0:0:0
     RDKit          3D

 95103  0  0  1  0  0  0  0  0999 V2000
  -28.4550  -21.8260   20.1460 C   0  0  0  0  0  3  0  0  0  0  0  0
  -29.5630  -23.3530   21.6660 C   0  0  0  0  0  3  0  0  0  0  0  0
  -30.1180  -20.9220   21.6500 C   0  0  0  0  0  3  0  0  0  0  0  0
  -28.6260  -23.2320   20.6220 C   0  0  0  0  0  0  0  0  0  0  0  0
  -29.1910  -20.6170   20.6290 C   0  0  0  0  0  0  0  0  0  0  0  0
  -30.2810  -22.2360   22.1670 C   0  0  0  0  0  0  0  0  0  0  0  0
  -31.1780  -22.4300   23.2160 N   0  0  0  0  0  0  0  0  0  0  0  0
  -31.0530  -23.2500   23.8040 H   0  0  0  0  0  0  0  0  0  0  0  0
  -31.4730  -21.6190   23.7510 H   0  0  0  0  0  0  0  0  0  0  0  0
  -27.7840  -24.5800   20.1450 C   0  0  0  0  0  2  0  0  0  0  0  0
  -28.1190  -26.0870   20.4260 O   0  0  0  0  0  0  0  0  0  0  0  0
  -24.5810  -31.9090   23.2690 C   0  0  0  0  0  0  0  0  0  0  0  0
  -27.1020  -27.1160   20.3090 C   0  0  0  0  0  0  0  0  0  0  0  0
  -23.3730  -30.5110   21.6400 C   0  0  0  0  0  3  0  0  0  0  0  0
  -24.8060  -28.9080   20.2330 C   0  0  0  0  0  0  0  0  0  0  0  0
  -25.9300  -30.7390   21.4870 C   0  0  0  0  0  2  0  0  0  0  0  0
  -25.9890  -29.3400   20.8470 C   0  0  0  0  0  0  0  0  0  0  0  0
  -27.1380  -28.4600   20.8650 C   0  0  0  0  0  3  0  0  0  0  0  0
  -25.8980  -26.7960   19.6430 C   0  0  0  0  0  3  0  0  0  0  0  0
  -24.7750  -27.6510   19.6140 C   0  0  0  0  0  3  0  0  0  0  0  0
  -23.5900  -29.8210   20.2680 C   0  0  0  0  0  2  0  0  0  0  0  0
  -24.6490  -31.0770   22.1870 N   0  0  0  0  0  0  0  0  0  0  0  0
  -23.4950  -32.2130   23.7860 O   0  0  0  0  0  0  0  0  0  0  0  0
  -22.6770  -29.5210   22.6080 C   0  0  0  0  0  0  0  0  0  0  0  0
  -21.3480  -29.3610   22.4700 N   0  0  0  0  0  0  0  0  0  0  0  0
  -23.3320  -28.9010   23.4480 O   0  0  0  0  0  0  0  0  0  0  0  0
  -20.8770  -29.9130   21.7690 H   0  0  0  0  0  0  0  0  0  0  0  0
  -17.9480  -28.2090   22.9660 C   0  0  0  0  0  0  0  0  0  0  0  0
  -20.5100  -28.4420   23.2430 C   0  0  0  0  0  3  0  0  0  0  0  0
  -20.5950  -27.0040   22.6830 C   0  0  0  0  0  2  0  0  0  0  0  0
  -19.4930  -26.6850   21.6660 C   0  0  0  0  0  2  0  0  0  0  0  0
  -18.1110  -26.8530   22.3010 C   0  0  0  0  0  2  0  0  0  0  0  0
  -19.0740  -28.9620   23.3930 C   0  0  0  0  0  0  0  0  0  0  0  0
  -18.8660  -30.2310   23.9790 C   0  0  0  0  0  3  0  0  0  0  0  0
  -17.5650  -30.7460   24.1370 C   0  0  0  0  0  3  0  0  0  0  0  0
  -16.4550  -29.9920   23.7210 C   0  0  0  0  0  3  0  0  0  0  0  0
  -16.6470  -28.7250   23.1440 C   0  0  0  0  0  3  0  0  0  0  0  0
  -25.8640  -32.5330   23.9020 C   0  0  0  0  0  3  0  0  0  0  0  0
  -25.5640  -33.9370   24.2210 N   0  0  0  0  0  0  0  0  0  0  0  0
  -25.8930  -34.9840   23.4530 C   0  0  0  0  0  0  0  0  0  0  0  0
  -26.5480  -34.8700   22.4140 O   0  0  0  0  0  0  0  0  0  0  0  0
  -24.9750  -34.1010   25.0250 H   0  0  0  0  0  0  0  0  0  0  0  0
  -24.1680  -36.7890   23.1260 C   0  0  0  0  0  1  0  0  0  0  0  0
  -25.4250  -36.3800   23.9110 C   0  0  0  0  0  3  0  0  0  0  0  0
  -27.5750  -37.2670   24.7020 C   0  0  0  0  0  1  0  0  0  0  0  0
  -26.4620  -37.4260   23.7680 N   0  0  0  0  0  0  0  0  0  0  0  0
  -26.0620  -38.3510   23.9040 H   0  0  0  0  0  0  0  0  0  0  0  0
  -26.3560  -31.7690   25.1930 C   0  0  1  0  0  0  0  0  0  0  0  0
  -25.2440  -31.5520   26.2470 C   0  0  0  0  0  1  0  0  0  0  0  0
  -26.9310  -30.3810   24.8270 C   0  0  0  0  0  1  0  0  0  0  0  0
  -27.5060  -32.5590   25.8630 C   0  0  0  0  0  1  0  0  0  0  0  0
  -29.0190  -19.0240   20.1480 C   0  0  0  0  0  3  0  0  0  0  0  0
  -28.9990  -18.9820   18.6820 N   0  0  0  0  0  4  0  0  0  0  0  0
  -29.8800  -19.2890   18.3110 H   0  0  0  0  0  0  0  0  0  0  0  0
  -28.2740  -19.5730   18.3270 H   0  0  0  0  0  0  0  0  0  0  0  0
  -28.8280  -18.0450   18.3650 H   0  0  0  0  0  0  0  0  0  0  0  0
  -29.9410  -17.6950   20.6850 C   0  0  0  0  0  2  0  0  0  0  0  0
  -30.4130  -14.9720   20.2440 C   0  0  0  0  0  0  0  0  0  0  0  0
  -30.2860  -12.6320   19.2550 C   0  0  0  0  0  2  0  0  0  0  0  0
  -29.3190  -12.5960   18.0500 C   0  0  0  0  0  2  0  0  0  0  0  0
  -27.8650  -12.3760   18.5120 C   0  0  0  0  0  2  0  0  0  0  0  0
  -27.4880  -13.2710   19.7220 C   0  0  0  0  0  3  0  0  0  0  0  0
  -28.5770  -13.2660   20.8140 C   0  0  0  0  0  2  0  0  0  0  0  0
  -29.8230  -13.7080   20.1740 N   0  0  0  0  0  0  0  0  0  0  0  0
  -31.6130  -15.0440   19.9600 O   0  0  0  0  0  0  0  0  0  0  0  0
  -29.6250  -16.1480   20.4370 N   0  0  0  0  0  0  0  0  0  0  0  0
  -28.6500  -15.9250   20.5650 H   0  0  0  0  0  0  0  0  0  0  0  0
  -25.1310  -13.8220   20.5510 C   0  0  0  0  0  0  0  0  0  0  0  0
  -24.0830  -13.0330   20.9390 C   0  0  0  0  0  0  0  0  0  0  0  0
  -24.5530  -11.6860   20.8640 C   0  0  0  0  0  0  0  0  0  0  0  0
  -26.1700  -12.9550   20.2580 N   0  0  0  0  0  0  0  0  0  0  0  0
  -25.8340  -11.6630   20.5120 N   0  0  0  0  0  0  0  0  0  0  0  0
  -23.8370  -10.4160   21.0460 C   0  0  0  0  0  0  0  0  0  0  0  0
  -24.2840   -9.4430   21.9670 C   0  0  0  0  0  3  0  0  0  0  0  0
  -23.5660   -8.2400   22.1430 C   0  0  0  0  0  3  0  0  0  0  0  0
  -22.3870   -8.0030   21.3970 C   0  0  0  0  0  0  0  0  0  0  0  0
  -21.9600   -8.9650   20.4640 C   0  0  0  0  0  3  0  0  0  0  0  0
  -22.6790  -10.1590   20.2880 C   0  0  0  0  0  3  0  0  0  0  0  0
  -21.6390   -6.8530   21.4790 O   0  0  0  0  0  0  0  0  0  0  0  0
  -21.5970   -6.1030   22.6270 C   0  0  0  0  0  0  0  0  0  0  0  0
  -21.1200   -6.6340   23.8450 C   0  0  0  0  0  3  0  0  0  0  0  0
  -21.0310   -5.8100   24.9850 C   0  0  0  0  0  3  0  0  0  0  0  0
  -21.4040   -4.4550   24.9060 C   0  0  0  0  0  0  0  0  0  0  0  0
  -21.8700   -3.9220   23.6900 C   0  0  0  0  0  3  0  0  0  0  0  0
  -21.9620   -4.7450   22.5530 C   0  0  0  0  0  0  0  0  0  0  0  0
  -22.3930   -4.2210   21.3800 F   0  0  0  0  0  0  0  0  0  0  0  0
  -21.3080   -3.6610   25.9970 F   0  0  0  0  0  0  0  0  0  0  0  0
  -22.6920  -13.4980   21.2610 C   0  0  0  0  0  0  0  0  0  0  0  0
  -21.9950  -12.7780   22.1330 N   0  0  0  0  0  0  0  0  0  0  0  0
  -22.2350  -14.5310   20.7750 O   0  0  0  0  0  0  0  0  0  0  0  0
  -22.3840  -11.9440   22.5490 H   0  0  0  0  0  0  0  0  0  0  0  0
  -21.0600  -13.0630   22.3900 H   0  0  0  0  0  0  0  0  0  0  0  0
  -25.2820  -15.1970   20.3940 N   0  0  0  0  0  0  0  0  0  0  0  0
  -24.5120  -15.8410   20.5340 H   0  0  0  0  0  0  0  0  0  0  0  0
  -26.0960  -15.6400   19.9920 H   0  0  0  0  0  0  0  0  0  0  0  0
  1  4  2  0
  1  5  1  0
  2  6  2  0
  3  6  1  0
  4  2  1  0
  5  3  2  0
  6  7  1  0
  7  9  1  0
  7  8  1  0
 10 11  1  0
 10  4  1  0
 12 23  2  0
 13 11  1  0
 13 18  1  0
 14 22  1  0
 14 24  1  0
 15 21  1  0
 15 17  1  0
 16 22  1  0
 17 18  2  0
 17 16  1  0
 19 13  2  0
 20 19  1  0
 20 15  2  0
 21 14  1  0
 22 12  1  0
 24 26  2  0
 25 24  1  0
 27 25  1  0
 28 37  2  0
 28 33  1  0
 29 25  1  0
 29 33  1  0
 30 29  1  0
 31 32  1  0
 31 30  1  0
 32 28  1  0
 33 34  2  0
 34 35  1  0
 36 35  2  0
 37 36  1  0
 38 12  1  0
 38 39  1  0
 38 48  1  0
 39 42  1  0
 40 44  1  0
 40 39  1  0
 41 40  2  0
 44 43  1  0
 46 47  1  0
 46 44  1  0
 46 45  1  0
 48 51  1  1
 48 49  1  0
 50 48  1  0
 52  5  1  0
 52 57  1  0
 53 52  1  0
 54 53  1  0
 55 53  1  0
 56 53  1  0
 58 66  1  0
 59 64  1  0
 60 61  1  0
 60 59  1  0
 62 61  1  0
 62 71  1  0
 62 63  1  0
 64 58  1  0
 64 63  1  0
 65 58  2  0
 66 67  1  0
 66 57  1  0
 68 69  2  0
 69 88  1  0
 70 69  1  0
 70 73  1  0
 71 72  1  0
 71 68  1  0
 72 70  2  0
 73 74  1  0
 74 75  2  0
 76 79  1  0
 76 75  1  0
 77 76  2  0
 78 77  1  0
 78 73  2  0
 79 80  1  0
 80 81  1  0
 81 82  2  0
 83 82  1  0
 83 87  1  0
 84 83  2  0
 85 80  2  0
 85 84  1  0
 86 85  1  0
 88 89  1  0
 89 92  1  0
 89 91  1  0
 90 88  2  0
 93 94  1  0
 93 68  1  0
 95 93  1  0
M  ISO  4  10 101  11 101  58 100  66 100
M  END
>  <TORSDO>  (1) 
F 21

>  <SCORE>  (1) 
-14.650

>  <name>  (1) 
0

>  <ligand_id>  (1) 
0

>  <original_smiles>  (1) 
[H]c1c([H])c([H])c2c(c1[H])C([H])([H])C([H])([H])C([H])([H])C2([H])N([H])C(=O)C1([H])N(C(=O)C([H])(N([H])C(=O)C([H])(N([H])C([H])([H])[H])C([H])([H])[H])C(C([H])([H])[H])(C([H])([H])[H])C([H])([H])[H])C([H])([H])c2c([H])c(OC([H])([H])c3c([H])c(N([H])[H])c([H])c(C([H])(C([H])([H])N([H])C(=O)N4C([H])([H])C([H])([H])C([H])([H])C([H])(n5nc(-c6c([H])c([H])c(Oc7c([H])c([H])c(F)c([H])c7F)c([H])c6[H])c(C(=O)N([H])[H])c5N([H])[H])C4([H])[H])[N+]([H])([H])[H])c3[H])c([H])c([H])c2C1([H])[H]

>  <smiles>  (1) 
[H]c1c([H])c([H])c2c(c1[H])C([H])([H])C([H])([H])C([H])([H])C2([H])N([H])C(=O)C1([H])N(C(=O)C([H])(N([H])C(=O)C([H])(N([H])C([H])([H])[H])C([H])([H])[H])C(C([H])([H])[H])(C([H])([H])[H])C([H])([H])[H])C([H])([H])c2c([H])c(OC([H])([H])c3c([H])c(N([H])[H])c([H])c(C([H])(C([H])([H])N([H])C(=O)N4C([H])([H])C([H])([H])C([H])([H])C([H])(n5nc(-c6c([H])c([H])c(Oc7c([H])c([H])c(F)c([H])c7F)c([H])c6[H])c(C(=O)N([H])[H])c5N([H])[H])C4([H])[H])[N+]([H])([H])[H])c3[H])c([H])c([H])c2C1([H])[H]

$$$$
1:0:0
     RDKit          3D

 96105  0  0  1  0  0  0  0  0999 V2000
  -31.6060  -21.7430   19.6120 C   0  0  0  0  0  2  0  0  0  0  0  0
  -30.2700  -19.9070   18.6920 C   0  0  0  0  0  2  0  0  0  0  0  0
  -29.3720  -22.3500   18.6780 C   0  0  0  0  0  2  0  0  0  0  0  0
  -29.5870  -21.6430   21.0960 C   0  0  0  0  0  2  0  0  0  0  0  0
  -30.6050  -21.4190   18.5000 C   0  0  0  0  0  3  0  0  0  0  0  0
  -30.9500  -20.9180   20.7310 C   0  0  0  0  0  3  0  0  0  0  0  0
  -30.8830  -19.4900   20.0530 C   0  0  2  0  0  0  0  0  0  0  0  0
  -29.0650  -22.6760   20.1100 N   0  0  1  0  0  4  0  0  0  0  0  0
  -28.0630  -22.5700   20.1860 H   0  0  0  0  0  0  0  0  0  0  0  0
  -32.2800  -19.0200   19.8550 N   0  0  0  0  0  4  0  0  0  0  0  0
  -32.8210  -19.7190   19.3770 H   0  0  0  0  0  0  0  0  0  0  0  0
  -32.3120  -18.1750   19.3120 H   0  0  0  0  0  0  0  0  0  0  0  0
  -32.7250  -18.8370   20.7380 H   0  0  0  0  0  0  0  0  0  0  0  0
  -30.1430  -18.2860   20.7730 C   0  0  0  0  0  2  0  0  0  0  0  0
  -30.0680  -16.9580   19.9160 C   0  0  0  0  0  2  0  0  0  0  0  0
  -30.6350  -14.5440   20.3690 C   0  0  0  0  0  0  0  0  0  0  0  0
  -30.3320  -12.3480   19.2910 C   0  0  0  0  0  2  0  0  0  0  0  0
  -29.3920  -12.5480   18.0810 C   0  0  0  0  0  2  0  0  0  0  0  0
  -27.9200  -12.4170   18.5160 C   0  0  0  0  0  2  0  0  0  0  0  0
  -27.5890  -13.2620   19.7750 C   0  0  0  0  0  3  0  0  0  0  0  0
  -28.6500  -13.0690   20.8850 C   0  0  0  0  0  2  0  0  0  0  0  0
  -29.9680  -13.3560   20.3030 N   0  0  0  0  0  0  0  0  0  0  0  0
  -31.7950  -14.6650   19.9690 O   0  0  0  0  0  0  0  0  0  0  0  0
  -29.8770  -15.6470   20.6080 N   0  0  0  0  0  0  0  0  0  0  0  0
  -28.9520  -15.4630   20.9690 H   0  0  0  0  0  0  0  0  0  0  0  0
  -25.1980  -13.8830   20.4900 C   0  0  0  0  0  0  0  0  0  0  0  0
  -24.1280  -13.1180   20.8650 C   0  0  0  0  0  0  0  0  0  0  0  0
  -24.5800  -11.7630   20.8410 C   0  0  0  0  0  0  0  0  0  0  0  0
  -26.2370  -12.9940   20.2620 N   0  0  0  0  0  0  0  0  0  0  0  0
  -25.8700  -11.7150   20.5310 N   0  0  0  0  0  0  0  0  0  0  0  0
  -23.8470  -10.5060   21.0380 C   0  0  0  0  0  0  0  0  0  0  0  0
  -24.2850   -9.5340   21.9630 C   0  0  0  0  0  3  0  0  0  0  0  0
  -23.5520   -8.3420   22.1500 C   0  0  0  0  0  3  0  0  0  0  0  0
  -22.3680   -8.1140   21.4110 C   0  0  0  0  0  0  0  0  0  0  0  0
  -21.9480   -9.0750   20.4740 C   0  0  0  0  0  3  0  0  0  0  0  0
  -22.6810  -10.2600   20.2870 C   0  0  0  0  0  3  0  0  0  0  0  0
  -21.6060   -6.9750   21.5060 O   0  0  0  0  0  0  0  0  0  0  0  0
  -21.5800   -6.2210   22.6520 C   0  0  0  0  0  0  0  0  0  0  0  0
  -21.1980   -6.7690   23.8960 C   0  0  0  0  0  3  0  0  0  0  0  0
  -21.1180   -5.9420   25.0340 C   0  0  0  0  0  3  0  0  0  0  0  0
  -21.4090   -4.5690   24.9300 C   0  0  0  0  0  0  0  0  0  0  0  0
  -21.7830   -4.0200   23.6900 C   0  0  0  0  0  3  0  0  0  0  0  0
  -21.8650   -4.8430   22.5540 C   0  0  0  0  0  0  0  0  0  0  0  0
  -22.2060   -4.3060   21.3580 F   0  0  0  0  0  0  0  0  0  0  0  0
  -21.3240   -3.7720   26.0200 F   0  0  0  0  0  0  0  0  0  0  0  0
  -22.7330  -13.6060   21.1370 C   0  0  0  0  0  0  0  0  0  0  0  0
  -22.0030  -12.9180   22.0090 N   0  0  0  0  0  0  0  0  0  0  0  0
  -22.3000  -14.6300   20.6100 O   0  0  0  0  0  0  0  0  0  0  0  0
  -22.3680  -12.0910   22.4580 H   0  0  0  0  0  0  0  0  0  0  0  0
  -21.0680  -13.2270   22.2330 H   0  0  0  0  0  0  0  0  0  0  0  0
  -25.3710  -15.2510   20.3020 N   0  0  0  0  0  0  0  0  0  0  0  0
  -24.6030  -15.9060   20.4010 H   0  0  0  0  0  0  0  0  0  0  0  0
  -26.2160  -15.6820   19.9500 H   0  0  0  0  0  0  0  0  0  0  0  0
  -29.2850  -24.1400   20.4650 C   0  0  0  0  0  2  0  0  0  0  0  0
  -28.1590  -25.1120   19.9570 C   0  0  0  0  0  2  0  0  0  0  0  0
  -28.3320  -26.5440   20.2060 O   0  0  0  0  0  0  0  0  0  0  0  0
  -24.5960  -31.8630   23.2400 C   0  0  0  0  0  0  0  0  0  0  0  0
  -27.1930  -27.3500   20.1540 C   0  0  0  0  0  0  0  0  0  0  0  0
  -23.3780  -30.4680   21.6050 C   0  0  0  0  0  3  0  0  0  0  0  0
  -24.8170  -28.9270   20.1680 C   0  0  0  0  0  0  0  0  0  0  0  0
  -25.9120  -30.7980   21.4020 C   0  0  0  0  0  2  0  0  0  0  0  0
  -25.9870  -29.4250   20.7550 C   0  0  0  0  0  0  0  0  0  0  0  0
  -27.1770  -28.6470   20.7410 C   0  0  0  0  0  3  0  0  0  0  0  0
  -25.9980  -26.8980   19.5390 C   0  0  0  0  0  3  0  0  0  0  0  0
  -24.8220  -27.6670   19.5550 C   0  0  0  0  0  3  0  0  0  0  0  0
  -23.5790  -29.7950   20.2240 C   0  0  0  0  0  2  0  0  0  0  0  0
  -24.6470  -31.0590   22.1400 N   0  0  0  0  0  0  0  0  0  0  0  0
  -23.5160  -32.1410   23.7830 O   0  0  0  0  0  0  0  0  0  0  0  0
  -22.7230  -29.4490   22.5670 C   0  0  0  0  0  0  0  0  0  0  0  0
  -21.3960  -29.2720   22.4460 N   0  0  0  0  0  0  0  0  0  0  0  0
  -23.4060  -28.8200   23.3790 O   0  0  0  0  0  0  0  0  0  0  0  0
  -20.9060  -29.8310   21.7630 H   0  0  0  0  0  0  0  0  0  0  0  0
  -18.0200  -28.0840   22.9540 C   0  0  0  0  0  0  0  0  0  0  0  0
  -20.5800  -28.3380   23.2200 C   0  0  0  0  0  3  0  0  0  0  0  0
  -20.6780  -26.9040   22.6470 C   0  0  0  0  0  2  0  0  0  0  0  0
  -19.5740  -26.5820   21.6350 C   0  0  0  0  0  2  0  0  0  0  0  0
  -18.1920  -26.7330   22.2810 C   0  0  0  0  0  2  0  0  0  0  0  0
  -19.1410  -28.8440   23.3800 C   0  0  0  0  0  0  0  0  0  0  0  0
  -18.9270  -30.1100   23.9690 C   0  0  0  0  0  3  0  0  0  0  0  0
  -17.6230  -30.6140   24.1350 C   0  0  0  0  0  3  0  0  0  0  0  0
  -16.5170  -29.8510   23.7260 C   0  0  0  0  0  3  0  0  0  0  0  0
  -16.7160  -28.5870   23.1410 C   0  0  0  0  0  3  0  0  0  0  0  0
  -25.8850  -32.4910   23.8540 C   0  0  0  0  0  3  0  0  0  0  0  0
  -25.5810  -33.8880   24.1890 N   0  0  0  0  0  0  0  0  0  0  0  0
  -25.9060  -34.9420   23.4290 C   0  0  0  0  0  0  0  0  0  0  0  0
  -26.5650  -34.8380   22.3900 O   0  0  0  0  0  0  0  0  0  0  0  0
  -24.9930  -34.0420   24.9960 H   0  0  0  0  0  0  0  0  0  0  0  0
  -24.1740  -36.7340   23.0980 C   0  0  0  0  0  1  0  0  0  0  0  0
  -25.4250  -36.3290   23.8930 C   0  0  0  0  0  3  0  0  0  0  0  0
  -27.5710  -37.2120   24.6950 C   0  0  0  0  0  1  0  0  0  0  0  0
  -26.4570  -37.3820   23.7680 N   0  0  0  0  0  0  0  0  0  0  0  0
  -26.0530  -38.3020   23.9220 H   0  0  0  0  0  0  0  0  0  0  0  0
  -26.4100  -31.7150   25.1240 C   0  0  1  0  0  0  0  0  0  0  0  0
  -25.3230  -31.4780   26.2000 C   0  0  0  0  0  1  0  0  0  0  0  0
  -26.9850  -30.3360   24.7230 C   0  0  0  0  0  1  0  0  0  0  0  0
  -27.5670  -32.5040   25.7800 C   0  0  0  0  0  1  0  0  0  0  0  0
  2  7  1  0
  3  8  1  0
  5  3  1  0
  5  2  1  0
  5  1  1  0
  6  1  1  0
  6  4  1  0
  7  6  1  0
  7 14  1  1
  8  9  1  6
  8 54  1  0
  8  4  1  0
 10  7  1  0
 10 13  1  0
 11 10  1  0
 12 10  1  0
 15 24  1  0
 15 14  1  0
 16 24  1  0
 17 22  1  0
 18 19  1  0
 18 17  1  0
 20 19  1  0
 20 29  1  0
 20 21  1  0
 22 16  1  0
 22 21  1  0
 23 16  2  0
 24 25  1  0
 26 27  2  0
 27 46  1  0
 28 27  1  0
 28 31  1  0
 29 26  1  0
 29 30  1  0
 30 28  2  0
 31 32  1  0
 32 33  2  0
 34 37  1  0
 34 33  1  0
 35 34  2  0
 36 35  1  0
 36 31  2  0
 37 38  1  0
 38 39  1  0
 39 40  2  0
 41 40  1  0
 41 45  1  0
 42 41  2  0
 43 38  2  0
 43 42  1  0
 44 43  1  0
 46 47  1  0
 47 50  1  0
 47 49  1  0
 48 46  2  0
 51 52  1  0
 51 26  1  0
 53 51  1  0
 55 56  1  0
 55 54  1  0
 57 68  2  0
 58 56  1  0
 58 63  1  0
 59 67  1  0
 59 69  1  0
 60 66  1  0
 60 62  1  0
 61 67  1  0
 62 61  1  0
 63 62  2  0
 64 65  1  0
 64 58  2  0
 65 60  2  0
 66 59  1  0
 67 57  1  0
 69 71  2  0
 70 69  1  0
 72 70  1  0
 73 82  2  0
 73 78  1  0
 74 70  1  0
 74 78  1  0
 75 74  1  0
 76 77  1  0
 76 75  1  0
 77 73  1  0
 78 79  2  0
 79 80  1  0
 81 80  2  0
 82 81  1  0
 83 57  1  0
 83 84  1  0
 83 93  1  0
 84 87  1  0
 85 89  1  0
 85 84  1  0
 86 85  2  0
 89 88  1  0
 91 89  1  0
 91 92  1  0
 91 90  1  0
 93 96  1  1
 93 94  1  0
 95 93  1  0
M  ISO  4  16 100  24 100  55 101  56 101
M  END
>  <TORSDO>  (2) 
F 21

>  <SCORE>  (2) 
-13.685

>  <name>  (2) 
1

>  <ligand_id>  (2) 
1

>  <original_smiles>  (2) 
[H]c1c([H])c([H])c2c(c1[H])C([H])([H])C([H])([H])C([H])([H])C2([H])N([H])C(=O)C1([H])N(C(=O)C([H])(N([H])C(=O)C([H])(N([H])C([H])([H])[H])C([H])([H])[H])C(C([H])([H])[H])(C([H])([H])[H])C([H])([H])[H])C([H])([H])c2c([H])c(OC([H])([H])C([H])([H])[N+]3([H])C([H])([H])C4([H])C([H])([H])C([H])(C(C([H])([H])C([H])([H])N([H])C(=O)N5C([H])([H])C([H])([H])C([H])([H])C([H])(n6nc(-c7c([H])c([H])c(Oc8c([H])c([H])c(F)c([H])c8F)c([H])c7[H])c(C(=O)N([H])[H])c6N([H])[H])C5([H])[H])([N+]([H])([H])[H])C4([H])[H])C3([H])[H])c([H])c([H])c2C1([H])[H]

>  <smiles>  (2) 
[H]c1c([H])c([H])c2c(c1[H])C([H])([H])C([H])([H])C([H])([H])C2([H])N([H])C(=O)C1([H])N(C(=O)C([H])(N([H])C(=O)C([H])(N([H])C([H])([H])[H])C([H])([H])[H])C(C([H])([H])[H])(C([H])([H])[H])C([H])([H])[H])C([H])([H])c2c([H])c(OC([H])([H])C([H])([H])[N+]3([H])C([H])([H])C4([H])C([H])([H])C([H])(C(C([H])([H])C([H])([H])N([H])C(=O)N5C([H])([H])C([H])([H])C([H])([H])C([H])(n6nc(-c7c([H])c([H])c(Oc8c([H])c([H])c(F)c([H])c8F)c([H])c7[H])c(C(=O)N([H])[H])c6N([H])[H])C5([H])[H])([N+]([H])([H])[H])C4([H])[H])C3([H])[H])c([H])c([H])c2C1([H])[H]

$$$$
2:0:0
     RDKit          3D

 93102  0  0  1  0  0  0  0  0999 V2000
  -28.5650  -21.1180   20.1710 C   0  0  0  0  0  2  0  0  0  0  0  0
  -28.9080  -19.7060   20.9230 C   0  0  0  0  0  2  0  0  0  0  0  0
  -30.6450  -14.7740   20.3740 C   0  0  0  0  0  0  0  0  0  0  0  0
  -30.3810  -12.4970   19.3780 C   0  0  0  0  0  2  0  0  0  0  0  0
  -29.4670  -12.5750   18.1400 C   0  0  0  0  0  2  0  0  0  0  0  0
  -27.9940  -12.4180   18.5600 C   0  0  0  0  0  2  0  0  0  0  0  0
  -27.6130  -13.3060   19.7740 C   0  0  0  0  0  3  0  0  0  0  0  0
  -28.6680  -13.2390   20.9020 C   0  0  0  0  0  2  0  0  0  0  0  0
  -29.9690  -13.5730   20.3130 N   0  0  0  0  0  0  0  0  0  0  0  0
  -31.8080  -14.8140   19.9590 O   0  0  0  0  0  0  0  0  0  0  0  0
  -31.0100  -18.9760   19.5140 C   0  0  0  0  0  3  0  0  0  0  0  0
  -32.1350  -18.2970   20.2320 C   0  0  0  0  0  2  0  0  0  0  0  0
  -30.8360  -16.6950   21.8780 C   0  0  0  0  0  2  0  0  0  0  0  0
  -29.3450  -17.0360   20.0730 C   0  0  0  0  0  2  0  0  0  0  0  0
  -31.0660  -18.1160   21.3440 C   0  0  0  0  0  3  0  0  0  0  0  0
  -29.8950  -18.5050   20.4250 C   0  0  2  0  0  0  0  0  0  0  0  0
  -31.0400  -19.8680   18.6330 N   0  0  0  0  0  2  0  0  0  0  0  0
  -30.0510  -15.9360   20.8750 N   0  0  0  0  0  0  0  0  0  0  0  0
  -30.8100  -19.5070   17.7140 H   0  0  0  0  0  0  0  0  0  0  0  0
  -25.2180  -13.8820   20.4820 C   0  0  0  0  0  0  0  0  0  0  0  0
  -24.1540  -13.1080   20.8460 C   0  0  0  0  0  0  0  0  0  0  0  0
  -24.6220  -11.7560   20.8240 C   0  0  0  0  0  0  0  0  0  0  0  0
  -26.2690  -13.0090   20.2570 N   0  0  0  0  0  0  0  0  0  0  0  0
  -25.9160  -11.7240   20.5240 N   0  0  0  0  0  0  0  0  0  0  0  0
  -23.8960  -10.4940   21.0130 C   0  0  0  0  0  0  0  0  0  0  0  0
  -24.3130   -9.5360   21.9630 C   0  0  0  0  0  3  0  0  0  0  0  0
  -23.5870   -8.3390   22.1400 C   0  0  0  0  0  3  0  0  0  0  0  0
  -22.4270   -8.0910   21.3680 C   0  0  0  0  0  0  0  0  0  0  0  0
  -22.0270   -9.0390   20.4080 C   0  0  0  0  0  3  0  0  0  0  0  0
  -22.7540  -10.2270   20.2300 C   0  0  0  0  0  3  0  0  0  0  0  0
  -21.6740   -6.9460   21.4520 O   0  0  0  0  0  0  0  0  0  0  0  0
  -21.6020   -6.2130   22.6120 C   0  0  0  0  0  0  0  0  0  0  0  0
  -21.1310   -6.7750   23.8180 C   0  0  0  0  0  3  0  0  0  0  0  0
  -21.0090   -5.9700   24.9680 C   0  0  0  0  0  3  0  0  0  0  0  0
  -21.3470   -4.6040   24.9120 C   0  0  0  0  0  0  0  0  0  0  0  0
  -21.8110   -4.0440   23.7100 C   0  0  0  0  0  3  0  0  0  0  0  0
  -21.9360   -4.8450   22.5620 C   0  0  0  0  0  0  0  0  0  0  0  0
  -22.3640   -4.2940   21.4000 F   0  0  0  0  0  0  0  0  0  0  0  0
  -21.2230   -3.8300   26.0150 F   0  0  0  0  0  0  0  0  0  0  0  0
  -22.7540  -13.5830   21.1060 C   0  0  0  0  0  0  0  0  0  0  0  0
  -22.0170  -12.8880   21.9630 N   0  0  0  0  0  0  0  0  0  0  0  0
  -22.3210  -14.6120   20.5840 O   0  0  0  0  0  0  0  0  0  0  0  0
  -22.3780  -12.0620   22.4170 H   0  0  0  0  0  0  0  0  0  0  0  0
  -21.0790  -13.1950   22.1790 H   0  0  0  0  0  0  0  0  0  0  0  0
  -25.3800  -15.2530   20.3020 N   0  0  0  0  0  0  0  0  0  0  0  0
  -24.6120  -15.9090   20.4070 H   0  0  0  0  0  0  0  0  0  0  0  0
  -26.2420  -15.6930   20.0090 H   0  0  0  0  0  0  0  0  0  0  0  0
  -29.4270  -22.4840   20.3120 C   0  0  0  0  0  2  0  0  0  0  0  0
  -28.8150  -23.8310   20.7750 N   0  0  0  0  0  4  0  0  0  0  0  0
  -28.0950  -23.6500   21.4510 H   0  0  0  0  0  0  0  0  0  0  0  0
  -29.5640  -24.2390   21.3090 H   0  0  0  0  0  0  0  0  0  0  0  0
  -28.3040  -25.0300   19.7000 C   0  0  0  0  0  2  0  0  0  0  0  0
  -28.3120  -26.4070   20.2610 O   0  0  0  0  0  0  0  0  0  0  0  0
  -24.5890  -31.8800   23.2450 C   0  0  0  0  0  0  0  0  0  0  0  0
  -27.1990  -27.2880   20.1640 C   0  0  0  0  0  0  0  0  0  0  0  0
  -23.3870  -30.4920   21.5980 C   0  0  0  0  0  3  0  0  0  0  0  0
  -24.8410  -28.9530   20.1570 C   0  0  0  0  0  0  0  0  0  0  0  0
  -25.9340  -30.7960   21.4260 C   0  0  0  0  0  2  0  0  0  0  0  0
  -26.0120  -29.4190   20.7660 C   0  0  0  0  0  0  0  0  0  0  0  0
  -27.1890  -28.5990   20.7590 C   0  0  0  0  0  3  0  0  0  0  0  0
  -26.0020  -26.9070   19.5120 C   0  0  0  0  0  3  0  0  0  0  0  0
  -24.8440  -27.7060   19.5190 C   0  0  0  0  0  3  0  0  0  0  0  0
  -23.6030  -29.8310   20.2130 C   0  0  0  0  0  2  0  0  0  0  0  0
  -24.6550  -31.0760   22.1440 N   0  0  0  0  0  0  0  0  0  0  0  0
  -23.5030  -32.1560   23.7770 O   0  0  0  0  0  0  0  0  0  0  0  0
  -22.7240  -29.4680   22.5500 C   0  0  0  0  0  0  0  0  0  0  0  0
  -21.3980  -29.2850   22.4160 N   0  0  0  0  0  0  0  0  0  0  0  0
  -23.4010  -28.8440   23.3710 O   0  0  0  0  0  0  0  0  0  0  0  0
  -20.9080  -29.8460   21.7320 H   0  0  0  0  0  0  0  0  0  0  0  0
  -18.0220  -28.0790   22.9140 C   0  0  0  0  0  0  0  0  0  0  0  0
  -20.5800  -28.3430   23.1820 C   0  0  0  0  0  3  0  0  0  0  0  0
  -20.6840  -26.9150   22.6010 C   0  0  0  0  0  2  0  0  0  0  0  0
  -19.5810  -26.5970   21.5840 C   0  0  0  0  0  2  0  0  0  0  0  0
  -18.1990  -26.7350   22.2290 C   0  0  0  0  0  2  0  0  0  0  0  0
  -19.1390  -28.8410   23.3470 C   0  0  0  0  0  0  0  0  0  0  0  0
  -18.9180  -30.1000   23.9460 C   0  0  0  0  0  3  0  0  0  0  0  0
  -17.6120  -30.5960   24.1170 C   0  0  0  0  0  3  0  0  0  0  0  0
  -16.5090  -29.8320   23.6970 C   0  0  0  0  0  3  0  0  0  0  0  0
  -16.7150  -28.5750   23.1000 C   0  0  0  0  0  3  0  0  0  0  0  0
  -25.8690  -32.5100   23.8730 C   0  0  0  0  0  3  0  0  0  0  0  0
  -26.3730  -31.7410   25.1560 C   0  0  1  0  0  0  0  0  0  0  0  0
  -25.2700  -31.5120   26.2160 C   0  0  0  0  0  1  0  0  0  0  0  0
  -26.9570  -30.3590   24.7790 C   0  0  0  0  0  1  0  0  0  0  0  0
  -27.5200  -32.5360   25.8250 C   0  0  0  0  0  1  0  0  0  0  0  0
  -25.5600  -33.9090   24.2020 N   0  0  0  0  0  0  0  0  0  0  0  0
  -25.8930  -34.9630   23.4440 C   0  0  0  0  0  0  0  0  0  0  0  0
  -26.5660  -34.8610   22.4150 O   0  0  0  0  0  0  0  0  0  0  0  0
  -24.9700  -34.0620   25.0050 H   0  0  0  0  0  0  0  0  0  0  0  0
  -24.1710  -36.7600   23.0840 C   0  0  0  0  0  1  0  0  0  0  0  0
  -25.4050  -36.3530   23.9040 C   0  0  0  0  0  3  0  0  0  0  0  0
  -27.5340  -37.2320   24.7540 C   0  0  0  0  0  1  0  0  0  0  0  0
  -26.4410  -37.4030   23.7990 N   0  0  0  0  0  0  0  0  0  0  0  0
  -26.0370  -38.3250   23.9440 H   0  0  0  0  0  0  0  0  0  0  0  0
  1 48  1  0
  1  2  1  0
  3 18  1  0
  4  9  1  0
  5  6  1  0
  5  4  1  0
  7  6  1  0
  7 23  1  0
  7  8  1  0
  9  3  1  0
  9  8  1  0
 10  3  2  0
 11 17  1  0
 11 12  1  0
 11 16  1  0
 14 16  1  0
 14 18  1  0
 15 12  1  0
 15 13  1  0
 16  2  1  1
 16 15  1  0
 18 13  1  0
 19 17  1  0
 20 21  2  0
 21 40  1  0
 22 21  1  0
 22 25  1  0
 23 20  1  0
 23 24  1  0
 24 22  2  0
 25 26  1  0
 26 27  2  0
 28 31  1  0
 28 27  1  0
 29 28  2  0
 30 29  1  0
 30 25  2  0
 31 32  1  0
 32 33  1  0
 33 34  2  0
 35 34  1  0
 35 39  1  0
 36 35  2  0
 37 32  2  0
 37 36  1  0
 38 37  1  0
 40 41  1  0
 41 44  1  0
 41 43  1  0
 42 40  2  0
 45 46  1  0
 45 20  1  0
 47 45  1  0
 48 49  1  0
 49 51  1  0
 49 50  1  0
 52 53  1  0
 52 49  1  0
 54 65  2  0
 55 53  1  0
 55 60  1  0
 56 64  1  0
 56 66  1  0
 57 63  1  0
 57 59  1  0
 58 64  1  0
 59 58  1  0
 60 59  2  0
 61 62  1  0
 61 55  2  0
 62 57  2  0
 63 56  1  0
 64 54  1  0
 66 68  2  0
 67 66  1  0
 69 67  1  0
 70 79  2  0
 70 75  1  0
 71 67  1  0
 71 75  1  0
 72 71  1  0
 73 74  1  0
 73 72  1  0
 74 70  1  0
 75 76  2  0
 76 77  1  0
 78 77  2  0
 79 78  1  0
 80 54  1  0
 80 85  1  0
 80 81  1  0
 81 84  1  1
 81 82  1  0
 83 81  1  0
 85 88  1  0
 86 90  1  0
 86 85  1  0
 87 86  2  0
 90 89  1  0
 92 90  1  0
 92 93  1  0
 92 91  1  0
M  ISO  4   3 100  18 100  52 101  53 101
M  END
>  <TORSDO>  (3) 
F 20

>  <SCORE>  (3) 
-14.822

>  <name>  (3) 
2

>  <ligand_id>  (3) 
2

>  <original_smiles>  (3) 
[H]N=C1C([H])([H])C2([H])C([H])([H])N(C(=O)N3C([H])([H])C([H])([H])C([H])([H])C([H])(n4nc(-c5c([H])c([H])c(Oc6c([H])c([H])c(F)c([H])c6F)c([H])c5[H])c(C(=O)N([H])[H])c4N([H])[H])C3([H])[H])C([H])([H])C12C([H])([H])C([H])([H])C([H])([H])[N+]([H])([H])C([H])([H])Oc1c([H])c([H])c2c(c1[H])C([H])([H])N(C(=O)C([H])(N([H])C(=O)C([H])(N([H])C([H])([H])[H])C([H])([H])[H])C(C([H])([H])[H])(C([H])([H])[H])C([H])([H])[H])C([H])(C(=O)N([H])C1([H])c3c([H])c([H])c([H])c([H])c3C([H])([H])C([H])([H])C1([H])[H])C2([H])[H]

>  <smiles>  (3) 
[H]N=C1C([H])([H])C2([H])C([H])([H])N(C(=O)N3C([H])([H])C([H])([H])C([H])([H])C([H])(n4nc(-c5c([H])c([H])c(Oc6c([H])c([H])c(F)c([H])c6F)c([H])c5[H])c(C(=O)N([H])[H])c4N([H])[H])C3([H])[H])C([H])([H])C12C([H])([H])C([H])([H])C([H])([H])[N+]([H])([H])C([H])([H])Oc1c([H])c([H])c2c(c1[H])C([H])([H])N(C(=O)C([H])(N([H])C(=O)C([H])(N([H])C([H])([H])[H])C([H])([H])[H])C(C([H])([H])[H])(C([H])([H])[H])C([H])([H])[H])C([H])(C(=O)N([H])C1([H])c3c([H])c([H])c([H])c([H])c3C([H])([H])C([H])([H])C1([H])[H])C2([H])[H]

$$$$
3:0:0
     RDKit          3D

 94103  0  0  1  0  0  0  0  0999 V2000
  -28.3640  -21.6000   19.7650 C   0  0  0  0  0  2  0  0  0  0  0  0
  -29.4760  -20.6560   20.0770 N   0  0  0  0  0  4  0  0  0  0  0  0
  -30.1980  -20.7660   19.3840 H   0  0  0  0  0  0  0  0  0  0  0  0
  -29.8650  -20.9210   20.9690 H   0  0  0  0  0  0  0  0  0  0  0  0
  -29.1160  -19.2070   20.1260 C   0  0  0  0  0  2  0  0  0  0  0  0
  -32.0120  -17.3470   20.0690 C   0  0  0  0  0  2  0  0  0  0  0  0
  -30.9280  -18.7160   22.0250 C   0  0  0  0  0  2  0  0  0  0  0  0
  -31.6790  -18.6580   20.7230 C   0  0  0  0  0  3  0  0  0  0  0  0
  -30.5180  -16.9670   19.9990 C   0  0  0  0  0  3  0  0  0  0  0  0
  -30.2060  -18.2970   20.7470 C   0  0  1  0  0  0  0  0  0  0  0  0
  -30.7840  -14.4770   20.1240 C   0  0  0  0  0  0  0  0  0  0  0  0
  -30.3730  -12.3400   18.9410 C   0  0  0  0  0  2  0  0  0  0  0  0
  -29.3810  -12.5760   17.7830 C   0  0  0  0  0  2  0  0  0  0  0  0
  -27.9240  -12.4490   18.2700 C   0  0  0  0  0  2  0  0  0  0  0  0
  -27.6630  -13.2320   19.5840 C   0  0  0  0  0  3  0  0  0  0  0  0
  -28.7700  -12.9340   20.6170 C   0  0  0  0  0  2  0  0  0  0  0  0
  -30.0580  -13.3140   20.0100 N   0  0  0  0  0  0  0  0  0  0  0  0
  -31.8650  -14.5680   19.5360 O   0  0  0  0  0  0  0  0  0  0  0  0
  -29.4070  -15.6800   21.8500 C   0  0  0  0  0  1  0  0  0  0  0  0
  -30.2010  -15.6250   20.6140 N   0  0  0  0  0  0  0  0  0  0  0  0
  -25.2990  -13.8310   20.4020 C   0  0  0  0  0  0  0  0  0  0  0  0
  -24.2470  -13.0570   20.8090 C   0  0  0  0  0  0  0  0  0  0  0  0
  -24.7040  -11.7040   20.7440 C   0  0  0  0  0  0  0  0  0  0  0  0
  -26.3320  -12.9520   20.1180 N   0  0  0  0  0  0  0  0  0  0  0  0
  -25.9780  -11.6670   20.3780 N   0  0  0  0  0  0  0  0  0  0  0  0
  -23.9840  -10.4430   20.9560 C   0  0  0  0  0  0  0  0  0  0  0  0
  -24.4350   -9.4850   21.8910 C   0  0  0  0  0  3  0  0  0  0  0  0
  -23.7160   -8.2860   22.0910 C   0  0  0  0  0  3  0  0  0  0  0  0
  -22.5310   -8.0380   21.3560 C   0  0  0  0  0  0  0  0  0  0  0  0
  -22.1000   -8.9850   20.4120 C   0  0  0  0  0  3  0  0  0  0  0  0
  -22.8190  -10.1750   20.2090 C   0  0  0  0  0  3  0  0  0  0  0  0
  -21.7820   -6.8920   21.4650 O   0  0  0  0  0  0  0  0  0  0  0  0
  -21.7250   -6.1770   22.6350 C   0  0  0  0  0  0  0  0  0  0  0  0
  -21.3000   -6.7640   23.8480 C   0  0  0  0  0  3  0  0  0  0  0  0
  -21.1870   -5.9760   25.0100 C   0  0  0  0  0  3  0  0  0  0  0  0
  -21.4940   -4.6030   24.9630 C   0  0  0  0  0  0  0  0  0  0  0  0
  -21.9130   -4.0160   23.7560 C   0  0  0  0  0  3  0  0  0  0  0  0
  -22.0260   -4.8000   22.5960 C   0  0  0  0  0  0  0  0  0  0  0  0
  -22.4090   -4.2250   21.4290 F   0  0  0  0  0  0  0  0  0  0  0  0
  -21.3800   -3.8430   26.0780 F   0  0  0  0  0  0  0  0  0  0  0  0
  -22.8650  -13.5320   21.1540 C   0  0  0  0  0  0  0  0  0  0  0  0
  -22.1850  -12.8350   22.0550 N   0  0  0  0  0  0  0  0  0  0  0  0
  -22.4000  -14.5570   20.6570 O   0  0  0  0  0  0  0  0  0  0  0  0
  -22.5750  -12.0050   22.4760 H   0  0  0  0  0  0  0  0  0  0  0  0
  -21.2580  -13.1330   22.3280 H   0  0  0  0  0  0  0  0  0  0  0  0
  -25.4590  -15.2040   20.2340 N   0  0  0  0  0  0  0  0  0  0  0  0
  -24.7010  -15.8610   20.3790 H   0  0  0  0  0  0  0  0  0  0  0  0
  -26.3070  -15.6440   19.9010 H   0  0  0  0  0  0  0  0  0  0  0  0
  -28.6450  -23.0450   17.6680 C   0  0  0  0  0  1  0  0  0  0  0  0
  -28.8470  -22.9830   19.1990 C   0  0  0  0  0  3  0  0  0  0  0  0
  -28.2480  -24.2430   19.8870 C   0  0  0  0  0  0  0  0  0  0  0  0
  -27.5470  -24.1550   20.9010 O   0  0  0  0  0  0  0  0  0  0  0  0
  -28.5740  -25.6240   19.2620 C   0  0  0  0  0  2  0  0  0  0  0  0
  -28.3770  -26.7310   20.1630 O   0  0  0  0  0  0  0  0  0  0  0  0
  -24.5490  -31.8970   23.2360 C   0  0  0  0  0  0  0  0  0  0  0  0
  -27.1890  -27.4390   20.1460 C   0  0  0  0  0  0  0  0  0  0  0  0
  -23.3420  -30.4940   21.5950 C   0  0  0  0  0  3  0  0  0  0  0  0
  -24.7930  -28.9550   20.1710 C   0  0  0  0  0  0  0  0  0  0  0  0
  -25.8700  -30.8440   21.4010 C   0  0  0  0  0  2  0  0  0  0  0  0
  -25.9520  -29.4720   20.7610 C   0  0  0  0  0  0  0  0  0  0  0  0
  -27.1470  -28.7180   20.7530 C   0  0  0  0  0  3  0  0  0  0  0  0
  -26.0040  -26.9330   19.5610 C   0  0  0  0  0  3  0  0  0  0  0  0
  -24.8130  -27.6830   19.5730 C   0  0  0  0  0  3  0  0  0  0  0  0
  -23.5510  -29.8170   20.2150 C   0  0  0  0  0  2  0  0  0  0  0  0
  -24.6060  -31.0930   22.1360 N   0  0  0  0  0  0  0  0  0  0  0  0
  -23.4670  -32.1700   23.7730 O   0  0  0  0  0  0  0  0  0  0  0  0
  -22.6900  -29.4720   22.5540 C   0  0  0  0  0  0  0  0  0  0  0  0
  -21.3640  -29.2970   22.4310 N   0  0  0  0  0  0  0  0  0  0  0  0
  -23.3740  -28.8410   23.3640 O   0  0  0  0  0  0  0  0  0  0  0  0
  -20.8750  -29.8570   21.7470 H   0  0  0  0  0  0  0  0  0  0  0  0
  -17.9850  -28.1280   22.9470 C   0  0  0  0  0  0  0  0  0  0  0  0
  -20.5460  -28.3640   23.2050 C   0  0  0  0  0  3  0  0  0  0  0  0
  -20.6340  -26.9350   22.6230 C   0  0  0  0  0  2  0  0  0  0  0  0
  -19.5240  -26.6250   21.6140 C   0  0  0  0  0  2  0  0  0  0  0  0
  -18.1470  -26.7790   22.2650 C   0  0  0  0  0  2  0  0  0  0  0  0
  -19.1120  -28.8790   23.3730 C   0  0  0  0  0  0  0  0  0  0  0  0
  -18.9070  -30.1430   23.9690 C   0  0  0  0  0  3  0  0  0  0  0  0
  -17.6070  -30.6550   24.1420 C   0  0  0  0  0  3  0  0  0  0  0  0
  -16.4950  -29.9010   23.7330 C   0  0  0  0  0  3  0  0  0  0  0  0
  -16.6840  -28.6390   23.1400 C   0  0  0  0  0  3  0  0  0  0  0  0
  -25.8350  -32.5270   23.8550 C   0  0  0  0  0  3  0  0  0  0  0  0
  -25.5250  -33.9240   24.1860 N   0  0  0  0  0  0  0  0  0  0  0  0
  -25.8550  -34.9770   23.4250 C   0  0  0  0  0  0  0  0  0  0  0  0
  -26.5210  -34.8740   22.3920 O   0  0  0  0  0  0  0  0  0  0  0  0
  -24.9310  -34.0790   24.9880 H   0  0  0  0  0  0  0  0  0  0  0  0
  -24.1200  -36.7630   23.0790 C   0  0  0  0  0  1  0  0  0  0  0  0
  -25.3670  -36.3630   23.8840 C   0  0  0  0  0  3  0  0  0  0  0  0
  -27.5030  -37.2510   24.7040 C   0  0  0  0  0  1  0  0  0  0  0  0
  -26.3960  -37.4180   23.7660 N   0  0  0  0  0  0  0  0  0  0  0  0
  -25.9870  -38.3360   23.9210 H   0  0  0  0  0  0  0  0  0  0  0  0
  -26.3590  -31.7520   25.1270 C   0  0  1  0  0  0  0  0  0  0  0  0
  -25.2700  -31.5050   26.1960 C   0  0  0  0  0  1  0  0  0  0  0  0
  -26.9490  -30.3800   24.7260 C   0  0  0  0  0  1  0  0  0  0  0  0
  -27.5100  -32.5480   25.7880 C   0  0  0  0  0  1  0  0  0  0  0  0
  1  2  1  0
  2  5  1  0
  2  4  1  0
  3  2  1  0
  8  6  1  0
  8 10  1  0
  8  7  1  0
  9  6  1  0
  9 20  1  0
  9 10  1  0
 10  5  1  6
 10  7  1  0
 11 20  1  0
 12 17  1  0
 13 14  1  0
 13 12  1  0
 15 14  1  0
 15 24  1  0
 15 16  1  0
 17 11  1  0
 17 16  1  0
 18 11  2  0
 20 19  1  0
 21 22  2  0
 22 41  1  0
 23 22  1  0
 23 26  1  0
 24 25  1  0
 24 21  1  0
 25 23  2  0
 26 27  1  0
 27 28  2  0
 29 32  1  0
 29 28  1  0
 30 29  2  0
 31 30  1  0
 31 26  2  0
 32 33  1  0
 33 34  1  0
 34 35  2  0
 36 35  1  0
 36 40  1  0
 37 36  2  0
 38 33  2  0
 38 37  1  0
 39 38  1  0
 41 42  1  0
 42 45  1  0
 42 44  1  0
 43 41  2  0
 46 47  1  0
 46 21  1  0
 48 46  1  0
 50 49  1  0
 50  1  1  0
 50 51  1  0
 51 52  2  0
 53 51  1  0
 53 54  1  0
 55 66  2  0
 56 54  1  0
 56 61  1  0
 57 65  1  0
 57 67  1  0
 58 64  1  0
 58 60  1  0
 59 65  1  0
 60 59  1  0
 61 60  2  0
 62 63  1  0
 62 56  2  0
 63 58  2  0
 64 57  1  0
 65 55  1  0
 67 69  2  0
 68 67  1  0
 70 68  1  0
 71 80  2  0
 71 76  1  0
 72 68  1  0
 72 76  1  0
 73 72  1  0
 74 75  1  0
 74 73  1  0
 75 71  1  0
 76 77  2  0
 77 78  1  0
 79 78  2  0
 80 79  1  0
 81 55  1  0
 81 82  1  0
 81 91  1  0
 82 85  1  0
 83 87  1  0
 83 82  1  0
 84 83  2  0
 87 86  1  0
 89 87  1  0
 89 90  1  0
 89 88  1  0
 91 94  1  1
 91 92  1  0
 93 91  1  0
M  ISO  4  11 100  20 100  53 101  54 101
M  END
>  <TORSDO>  (4) 
F 22

>  <SCORE>  (4) 
-12.658

>  <name>  (4) 
3

>  <ligand_id>  (4) 
3

>  <original_smiles>  (4) 
[H]c1c([H])c([H])c2c(c1[H])C([H])([H])C([H])([H])C([H])([H])C2([H])N([H])C(=O)C1([H])N(C(=O)C([H])(N([H])C(=O)C([H])(N([H])C([H])([H])[H])C([H])([H])[H])C(C([H])([H])[H])(C([H])([H])[H])C([H])([H])[H])C([H])([H])c2c([H])c(OC([H])([H])C(=O)C([H])(C([H])([H])[H])C([H])([H])[N+]([H])([H])C([H])([H])C34C([H])([H])C3([H])C([H])([H])C4([H])N(C(=O)N3C([H])([H])C([H])([H])C([H])([H])C([H])(n4nc(-c5c([H])c([H])c(Oc6c([H])c([H])c(F)c([H])c6F)c([H])c5[H])c(C(=O)N([H])[H])c4N([H])[H])C3([H])[H])C([H])([H])[H])c([H])c([H])c2C1([H])[H]

>  <smiles>  (4) 
[H]c1c([H])c([H])c2c(c1[H])C([H])([H])C([H])([H])C([H])([H])C2([H])N([H])C(=O)C1([H])N(C(=O)C([H])(N([H])C(=O)C([H])(N([H])C([H])([H])[H])C([H])([H])[H])C(C([H])([H])[H])(C([H])([H])[H])C([H])([H])[H])C([H])([H])c2c([H])c(OC([H])([H])C(=O)C([H])(C([H])([H])[H])C([H])([H])[N+]([H])([H])C([H])([H])C34C([H])([H])C3([H])C([H])([H])C4([H])N(C(=O)N3C([H])([H])C([H])([H])C([H])([H])C([H])(n4nc(-c5c([H])c([H])c(Oc6c([H])c([H])c(F)c([H])c6F)c([H])c5[H])c(C(=O)N([H])[H])c4N([H])[H])C3([H])[H])C([H])([H])[H])c([H])c([H])c2C1([H])[H]

$$$$
4:0:0
     RDKit          3D

 92101  0  0  1  0  0  0  0  0999 V2000
  -28.2010  -20.0540   19.5290 N   0  0  0  0  0  4  0  0  0  0  0  0
  -28.5750  -20.0000   20.4620 H   0  0  0  0  0  0  0  0  0  0  0  0
  -27.2100  -19.8960   19.6110 H   0  0  0  0  0  0  0  0  0  0  0  0
  -28.8090  -18.8040   18.7260 C   0  0  0  0  0  2  0  0  0  0  0  0
  -30.2730  -16.4670   20.6880 C   0  0  0  0  0  3  0  0  0  0  0  0
  -30.9880  -16.6260   19.3450 C   0  0  0  0  0  2  0  0  0  0  0  0
  -28.9270  -16.0930   20.1270 C   0  0  1  0  0  0  0  0  0  0  0  0
  -29.8200  -16.0490   18.5240 C   0  0  2  0  0  0  0  0  0  0  0  0
  -29.2420  -14.6510   19.2800 C   0  0  0  0  0  2  0  0  0  0  0  0
  -28.6360  -17.0710   18.9130 C   0  0  0  0  0  3  0  0  0  0  0  0
  -29.1230  -11.9060   20.0400 C   0  0  0  0  0 15  0  0  0  0  0  0
  -30.5990  -15.8090   21.7350 N   0  0  0  0  0  2  0  0  0  0  0  0
  -31.2310  -14.6350   21.3920 C   0  0  0  0  0  0  0  0  0  0  0  0
  -31.0470  -12.9630   19.5020 C   0  0  0  0  0  2  0  0  0  0  0  0
  -29.7920  -12.6390   18.0440 C   0  0  0  0  0  3  0  0  0  0  0  0
  -27.8960  -12.8180   18.3940 C   0  0  0  0  0  3  0  0  0  0  0  0
  -27.3610  -13.4220   20.1500 C   0  0  0  0  0  0  0  0  0  0  0  0
  -28.7150  -13.6770   21.5430 C   0  0  0  0  0  3  0  0  0  0  0  0
  -30.4420  -13.5960   21.0720 N   0  0  0  0  0  0  0  0  0  0  0  0
  -32.3940  -14.6550   21.0290 O   0  0  0  0  0  0  0  0  0  0  0  0
  -25.0700  -13.7800   20.8200 C   0  0  0  0  0  0  0  0  0  0  0  0
  -24.0650  -12.9270   21.0880 C   0  0  0  0  0  0  0  0  0  0  0  0
  -24.6130  -11.6070   21.0600 C   0  0  0  0  0  0  0  0  0  0  0  0
  -26.1380  -12.9580   20.6050 N   0  0  0  0  0  0  0  0  0  0  0  0
  -25.9050  -11.6430   20.7930 N   0  0  0  0  0  0  0  0  0  0  0  0
  -23.9570  -10.3140   21.1990 C   0  0  0  0  0  0  0  0  0  0  0  0
  -24.4000   -9.3520   22.1320 C   0  0  0  0  0  3  0  0  0  0  0  0
  -23.7040   -8.1350   22.2740 C   0  0  0  0  0  3  0  0  0  0  0  0
  -22.5580   -7.8780   21.4820 C   0  0  0  0  0  0  0  0  0  0  0  0
  -22.1470   -8.8290   20.5320 C   0  0  0  0  0  3  0  0  0  0  0  0
  -22.8420  -10.0370   20.3870 C   0  0  0  0  0  3  0  0  0  0  0  0
  -21.8250   -6.7210   21.5390 O   0  0  0  0  0  0  0  0  0  0  0  0
  -21.7730   -5.9620   22.6790 C   0  0  0  0  0  0  0  0  0  0  0  0
  -21.3330   -6.4930   23.9100 C   0  0  0  0  0  3  0  0  0  0  0  0
  -21.2290   -5.6560   25.0390 C   0  0  0  0  0  3  0  0  0  0  0  0
  -21.5540   -4.2890   24.9340 C   0  0  0  0  0  0  0  0  0  0  0  0
  -21.9850   -3.7590   23.7060 C   0  0  0  0  0  3  0  0  0  0  0  0
  -22.0910   -4.5930   22.5800 C   0  0  0  0  0  0  0  0  0  0  0  0
  -22.4880   -4.0760   21.3920 F   0  0  0  0  0  0  0  0  0  0  0  0
  -21.4440   -3.4800   26.0150 F   0  0  0  0  0  0  0  0  0  0  0  0
  -22.6550  -13.3510   21.2590 C   0  0  0  0  0  0  0  0  0  0  0  0
  -21.9170  -12.6470   22.1010 N   0  0  0  0  0  0  0  0  0  0  0  0
  -22.2300  -14.3590   20.6930 O   0  0  0  0  0  0  0  0  0  0  0  0
  -22.2950  -11.8420   22.5770 H   0  0  0  0  0  0  0  0  0  0  0  0
  -20.9590  -12.9170   22.2750 H   0  0  0  0  0  0  0  0  0  0  0  0
  -25.1360  -15.1750   20.7070 N   0  0  0  0  0  0  0  0  0  0  0  0
  -24.3130  -15.7610   20.7820 H   0  0  0  0  0  0  0  0  0  0  0  0
  -25.9710  -15.6890   20.4620 H   0  0  0  0  0  0  0  0  0  0  0  0
  -28.3890  -21.5840   19.0440 C   0  0  0  0  0  2  0  0  0  0  0  0
  -28.0100  -23.0260   19.9100 C   0  0  0  0  0  3  0  0  0  0  0  0
  -28.1420  -24.6400   19.3320 C   0  0  0  0  0  3  0  0  0  0  0  0
  -28.1790  -26.0630   20.0340 O   0  0  0  0  0  0  0  0  0  0  0  0
  -24.6660  -31.8630   23.1370 C   0  0  0  0  0  0  0  0  0  0  0  0
  -27.1570  -27.0910   20.0170 C   0  0  0  0  0  0  0  0  0  0  0  0
  -23.4470  -30.4680   21.5210 C   0  0  0  0  0  3  0  0  0  0  0  0
  -24.8620  -28.8860   20.0730 C   0  0  0  0  0  0  0  0  0  0  0  0
  -26.0060  -30.7030   21.3300 C   0  0  0  0  0  2  0  0  0  0  0  0
  -26.0600  -29.3100   20.6630 C   0  0  0  0  0  0  0  0  0  0  0  0
  -27.2090  -28.4230   20.6240 C   0  0  0  0  0  3  0  0  0  0  0  0
  -25.9250  -26.7780   19.4190 C   0  0  0  0  0  3  0  0  0  0  0  0
  -24.8090  -27.6340   19.4460 C   0  0  0  0  0  3  0  0  0  0  0  0
  -23.6440  -29.7930   20.1410 C   0  0  0  0  0  2  0  0  0  0  0  0
  -24.7290  -31.0330   22.0490 N   0  0  0  0  0  0  0  0  0  0  0  0
  -23.5840  -32.1520   23.6720 O   0  0  0  0  0  0  0  0  0  0  0  0
  -22.7760  -29.4620   22.4910 C   0  0  0  0  0  0  0  0  0  0  0  0
  -21.4450  -29.3030   22.3850 N   0  0  0  0  0  0  0  0  0  0  0  0
  -23.4560  -28.8290   23.3010 O   0  0  0  0  0  0  0  0  0  0  0  0
  -20.9520  -29.8610   21.7020 H   0  0  0  0  0  0  0  0  0  0  0  0
  -18.0640  -28.1260   22.9470 C   0  0  0  0  0  0  0  0  0  0  0  0
  -20.6300  -28.3710   23.1690 C   0  0  0  0  0  3  0  0  0  0  0  0
  -20.7110  -26.9380   22.5920 C   0  0  0  0  0  2  0  0  0  0  0  0
  -19.5900  -26.6240   21.5960 C   0  0  0  0  0  2  0  0  0  0  0  0
  -18.2210  -26.7760   22.2650 C   0  0  0  0  0  2  0  0  0  0  0  0
  -19.1950  -28.8810   23.3570 C   0  0  0  0  0  0  0  0  0  0  0  0
  -18.9940  -30.1430   23.9580 C   0  0  0  0  0  3  0  0  0  0  0  0
  -17.6960  -30.6500   24.1510 C   0  0  0  0  0  3  0  0  0  0  0  0
  -16.5790  -29.8920   23.7570 C   0  0  0  0  0  3  0  0  0  0  0  0
  -16.7650  -28.6310   23.1610 C   0  0  0  0  0  3  0  0  0  0  0  0
  -25.9470  -32.5040   23.7500 C   0  0  0  0  0  3  0  0  0  0  0  0
  -25.6250  -33.8950   24.1100 N   0  0  0  0  0  0  0  0  0  0  0  0
  -25.9390  -34.9690   23.3760 C   0  0  0  0  0  0  0  0  0  0  0  0
  -26.5980  -34.8940   22.3350 O   0  0  0  0  0  0  0  0  0  0  0  0
  -25.0370  -34.0260   24.9210 H   0  0  0  0  0  0  0  0  0  0  0  0
  -24.1910  -36.7580   23.0950 C   0  0  0  0  0  1  0  0  0  0  0  0
  -25.4500  -36.3440   23.8720 C   0  0  0  0  0  3  0  0  0  0  0  0
  -27.5940  -37.2270   24.6820 C   0  0  0  0  0  1  0  0  0  0  0  0
  -26.4720  -37.4080   23.7650 N   0  0  0  0  0  0  0  0  0  0  0  0
  -26.0620  -38.3220   23.9440 H   0  0  0  0  0  0  0  0  0  0  0  0
  -26.4860  -31.7230   25.0120 C   0  0  1  0  0  0  0  0  0  0  0  0
  -25.4110  -31.4740   26.0970 C   0  0  0  0  0  1  0  0  0  0  0  0
  -27.0690  -30.3500   24.6080 C   0  0  0  0  0  1  0  0  0  0  0  0
  -27.6420  -32.5200   25.6630 C   0  0  0  0  0  1  0  0  0  0  0  0
  1  3  1  0
  1  2  1  0
  4  1  1  0
  5 12  1  0
  6  5  1  0
  7  9  1  1
  7  5  1  0
  8 10  1  0
  8  9  1  1
  8  6  1  0
  8  7  1  0
 10  4  1  0
 10  7  1  0
 13 12  1  0
 14 19  1  0
 15 16  2  0
 15 14  1  0
 16 17  1  0
 17 24  1  0
 17 18  2  0
 19 13  1  0
 19 18  1  0
 20 13  2  0
 21 22  2  0
 22 41  1  0
 23 22  1  0
 23 26  1  0
 24 25  1  0
 24 21  1  0
 25 23  2  0
 26 27  1  0
 27 28  2  0
 29 32  1  0
 29 28  1  0
 30 29  2  0
 31 30  1  0
 31 26  2  0
 32 33  1  0
 33 34  1  0
 34 35  2  0
 36 35  1  0
 36 40  1  0
 37 36  2  0
 38 33  2  0
 38 37  1  0
 39 38  1  0
 41 42  1  0
 42 45  1  0
 42 44  1  0
 43 41  2  0
 46 47  1  0
 46 21  1  0
 48 46  1  0
 49  1  1  0
 49 50  1  0
 51 50  2  0
 51 52  1  0
 53 64  2  0
 54 52  1  0
 54 59  1  0
 55 63  1  0
 55 65  1  0
 56 62  1  0
 56 58  1  0
 57 63  1  0
 58 57  1  0
 59 58  2  0
 60 61  1  0
 60 54  2  0
 61 56  2  0
 62 55  1  0
 63 53  1  0
 65 67  2  0
 66 65  1  0
 68 66  1  0
 69 78  2  0
 69 74  1  0
 70 66  1  0
 70 74  1  0
 71 70  1  0
 72 73  1  0
 72 71  1  0
 73 69  1  0
 74 75  2  0
 75 76  1  0
 77 76  2  0
 78 77  1  0
 79 53  1  0
 79 80  1  0
 79 89  1  0
 80 83  1  0
 81 85  1  0
 81 80  1  0
 82 81  2  0
 85 84  1  0
 87 85  1  0
 87 88  1  0
 87 86  1  0
 89 92  1  1
 89 90  1  0
 91 89  1  0
M  ISO  4  12 100  13 100  51 101  52 101
M  END
>  <TORSDO>  (5) 
F 21

>  <SCORE>  (5) 
-15.272

>  <name>  (5) 
4

>  <ligand_id>  (5) 
4

>  <original_smiles>  (5) 
[H]c1c([H])c([H])c2c(c1[H])C([H])([H])C([H])([H])C([H])([H])C2([H])N([H])C(=O)C1([H])N(C(=O)C([H])(N([H])C(=O)C([H])(N([H])C([H])([H])[H])C([H])([H])[H])C(C([H])([H])[H])(C([H])([H])[H])C([H])([H])[H])C([H])([H])c2c([H])c(OC([H])([H])C([H])([H])C([H])([H])[N+]([H])([H])C([H])([H])C3([H])C4([H])C(=NC(=O)N5C([H])([H])C([H])([H])C([H])([H])C([H])(n6nc(-c7c([H])c([H])c(Oc8c([H])c([H])c(F)c([H])c8F)c([H])c7[H])c(C(=O)N([H])[H])c6N([H])[H])C5([H])[H])C([H])([H])C3([H])C4([H])C([H])([H])[H])c([H])c([H])c2C1([H])[H]

>  <smiles>  (5) 
[H]c1c([H])c([H])c2c(c1[H])C([H])([H])C([H])([H])C([H])([H])C2([H])N([H])C(=O)C1([H])N(C(=O)C([H])(N([H])C(=O)C([H])(N([H])C([H])([H])[H])C([H])([H])[H])C(C([H])([H])[H])(C([H])([H])[H])C([H])([H])[H])C([H])([H])c2c([H])c(OC([H])([H])C([H])([H])C([H])([H])[N+]([H])([H])C([H])([H])C3([H])C4([H])C(=NC(=O)N5C([H])([H])C([H])([H])C([H])([H])C([H])(n6nc(-c7c([H])c([H])c(Oc8c([H])c([H])c(F)c([H])c8F)c([H])c7[H])c(C(=O)N([H])[H])c6N([H])[H])C5([H])[H])C([H])([H])C3([H])C4([H])C([H])([H])[H])c([H])c([H])c2C1([H])[H]

$$$$
5:0:0
     RDKit          3D

 90 99  0  0  1  0  0  0  0  0999 V2000
  -30.4670  -15.4010   20.2590 C   0  0  0  0  0  0  0  0  0  0  0  0
  -30.4500  -12.9000   19.4730 C   0  0  0  0  0  2  0  0  0  0  0  0
  -29.5720  -12.6060   18.2290 C   0  0  0  0  0  2  0  0  0  0  0  0
  -28.1190  -12.3330   18.6440 C   0  0  0  0  0  2  0  0  0  0  0  0
  -27.6300  -13.3450   19.7090 C   0  0  0  0  0  3  0  0  0  0  0  0
  -28.6450  -13.5720   20.8520 C   0  0  0  0  0  2  0  0  0  0  0  0
  -29.8790  -14.0880   20.2300 N   0  0  0  0  0  0  0  0  0  0  0  0
  -31.6790  -15.3320   19.9940 O   0  0  0  0  0  0  0  0  0  0  0  0
  -28.3730  -18.7240   21.2680 C   0  0  0  0  0  2  0  0  0  0  0  0
  -28.6090  -17.1290   21.1500 C   0  0  0  0  0  2  0  0  0  0  0  0
  -30.7540  -20.7600   20.2080 C   0  0  0  0  0  2  0  0  0  0  0  0
  -30.0180  -18.2700   19.7240 C   0  0  0  0  0  3  0  0  0  0  0  0
  -28.8380  -19.4270   19.9620 C   0  0  0  0  0  3  0  0  0  0  0  0
  -31.1250  -19.1890   20.3410 C   0  0  0  0  0  3  0  0  0  0  0  0
  -29.7730  -16.7490   20.2960 N   0  0  0  0  0  0  0  0  0  0  0  0
  -29.3090  -21.0010   19.8750 N   0  0  1  0  0  4  0  0  0  0  0  0
  -29.3280  -21.1240   18.8730 H   0  0  0  0  0  0  0  0  0  0  0  0
  -25.2480  -13.9230   20.3970 C   0  0  0  0  0  0  0  0  0  0  0  0
  -24.1750  -13.1600   20.7590 C   0  0  0  0  0  0  0  0  0  0  0  0
  -24.6340  -11.8060   20.7610 C   0  0  0  0  0  0  0  0  0  0  0  0
  -26.2910  -13.0390   20.1950 N   0  0  0  0  0  0  0  0  0  0  0  0
  -25.9330  -11.7590   20.4820 N   0  0  0  0  0  0  0  0  0  0  0  0
  -23.8920  -10.5530   20.9540 C   0  0  0  0  0  0  0  0  0  0  0  0
  -24.2990   -9.5900   21.9040 C   0  0  0  0  0  3  0  0  0  0  0  0
  -23.5550   -8.4050   22.0850 C   0  0  0  0  0  3  0  0  0  0  0  0
  -22.3880   -8.1730   21.3180 C   0  0  0  0  0  0  0  0  0  0  0  0
  -22.0000   -9.1240   20.3580 C   0  0  0  0  0  3  0  0  0  0  0  0
  -22.7450  -10.3010   20.1740 C   0  0  0  0  0  3  0  0  0  0  0  0
  -21.6170   -7.0400   21.4100 O   0  0  0  0  0  0  0  0  0  0  0  0
  -21.5500   -6.3060   22.5670 C   0  0  0  0  0  0  0  0  0  0  0  0
  -21.1430   -6.8800   23.7910 C   0  0  0  0  0  3  0  0  0  0  0  0
  -21.0210   -6.0750   24.9410 C   0  0  0  0  0  3  0  0  0  0  0  0
  -21.2970   -4.6960   24.8680 C   0  0  0  0  0  0  0  0  0  0  0  0
  -21.6970   -4.1210   23.6490 C   0  0  0  0  0  3  0  0  0  0  0  0
  -21.8210   -4.9240   22.5010 C   0  0  0  0  0  0  0  0  0  0  0  0
  -22.1870   -4.3610   21.3240 F   0  0  0  0  0  0  0  0  0  0  0  0
  -21.1720   -3.9200   25.9700 F   0  0  0  0  0  0  0  0  0  0  0  0
  -22.7750  -13.6520   20.9840 C   0  0  0  0  0  0  0  0  0  0  0  0
  -22.0240  -12.9860   21.8530 N   0  0  0  0  0  0  0  0  0  0  0  0
  -22.3580  -14.6650   20.4240 O   0  0  0  0  0  0  0  0  0  0  0  0
  -22.3750  -12.1660   22.3270 H   0  0  0  0  0  0  0  0  0  0  0  0
  -21.0840  -13.3010   22.0490 H   0  0  0  0  0  0  0  0  0  0  0  0
  -25.4180  -15.2880   20.1910 N   0  0  0  0  0  0  0  0  0  0  0  0
  -24.6440  -15.9400   20.2570 H   0  0  0  0  0  0  0  0  0  0  0  0
  -26.2600  -15.7060   19.8220 H   0  0  0  0  0  0  0  0  0  0  0  0
  -32.3750  -18.9160   19.7210 O   0  0  0  0  0  0  0  0  0  0  0  0
  -32.2870  -19.0530   18.7810 H   0  0  0  0  0  0  0  0  0  0  0  0
  -28.6310  -22.4880   20.3700 C   0  0  0  0  0  2  0  0  0  0  0  0
  -28.4020  -24.1370   19.5670 C   0  0  0  0  0  2  0  0  0  0  0  0
  -28.3180  -25.7750   19.9800 O   0  0  0  0  0  0  0  0  0  0  0  0
  -24.5510  -31.6650   22.9380 C   0  0  0  0  0  0  0  0  0  0  0  0
  -27.2730  -26.8610   19.8640 C   0  0  0  0  0  0  0  0  0  0  0  0
  -23.4090  -30.2480   21.2810 C   0  0  0  0  0  3  0  0  0  0  0  0
  -24.9120  -28.7020   19.8340 C   0  0  0  0  0  0  0  0  0  0  0  0
  -25.9680  -30.5310   21.1450 C   0  0  0  0  0  2  0  0  0  0  0  0
  -26.0850  -29.1270   20.4700 C   0  0  0  0  0  0  0  0  0  0  0  0
  -27.2500  -28.2260   20.4640 C   0  0  0  0  0  3  0  0  0  0  0  0
  -26.0680  -26.6080   19.1680 C   0  0  0  0  0  3  0  0  0  0  0  0
  -24.9320  -27.4660   19.1630 C   0  0  0  0  0  3  0  0  0  0  0  0
  -23.6640  -29.5870   19.8960 C   0  0  0  0  0  2  0  0  0  0  0  0
  -24.6640  -30.8450   21.8420 N   0  0  0  0  0  0  0  0  0  0  0  0
  -23.4520  -31.9120   23.4610 O   0  0  0  0  0  0  0  0  0  0  0  0
  -22.7440  -29.2220   22.2370 C   0  0  0  0  0  0  0  0  0  0  0  0
  -21.4150  -29.0340   22.1280 N   0  0  0  0  0  0  0  0  0  0  0  0
  -23.4330  -28.5940   23.0450 O   0  0  0  0  0  0  0  0  0  0  0  0
  -20.9110  -29.5930   21.4550 H   0  0  0  0  0  0  0  0  0  0  0  0
  -18.0630  -27.7530   22.6770 C   0  0  0  0  0  0  0  0  0  0  0  0
  -20.6230  -28.0630   22.8920 C   0  0  0  0  0  3  0  0  0  0  0  0
  -20.7370  -26.6470   22.2780 C   0  0  0  0  0  2  0  0  0  0  0  0
  -19.6200  -26.3320   21.2790 C   0  0  0  0  0  2  0  0  0  0  0  0
  -18.2500  -26.4290   21.9560 C   0  0  0  0  0  2  0  0  0  0  0  0
  -19.1760  -28.5270   23.1030 C   0  0  0  0  0  0  0  0  0  0  0  0
  -18.9440  -29.7630   23.7430 C   0  0  0  0  0  3  0  0  0  0  0  0
  -17.6320  -30.2290   23.9580 C   0  0  0  0  0  3  0  0  0  0  0  0
  -16.5350  -29.4520   23.5460 C   0  0  0  0  0  3  0  0  0  0  0  0
  -16.7520  -28.2170   22.9120 C   0  0  0  0  0  3  0  0  0  0  0  0
  -25.7980  -32.3470   23.5800 C   0  0  0  0  0  3  0  0  0  0  0  0
  -25.4080  -33.7060   24.0010 N   0  0  0  0  0  0  0  0  0  0  0  0
  -25.6730  -34.8280   23.3190 C   0  0  0  0  0  0  0  0  0  0  0  0
  -26.3330  -34.8320   22.2780 O   0  0  0  0  0  0  0  0  0  0  0  0
  -24.8150  -33.7700   24.8150 H   0  0  0  0  0  0  0  0  0  0  0  0
  -23.8500  -36.5560   23.1140 C   0  0  0  0  0  1  0  0  0  0  0  0
  -25.1220  -36.1580   23.8800 C   0  0  0  0  0  3  0  0  0  0  0  0
  -27.2210  -37.0970   24.7440 C   0  0  0  0  0  1  0  0  0  0  0  0
  -26.0980  -37.2700   23.8280 N   0  0  0  0  0  0  0  0  0  0  0  0
  -25.6470  -38.1550   24.0420 H   0  0  0  0  0  0  0  0  0  0  0  0
  -26.3720  -31.5470   24.8150 C   0  0  1  0  0  0  0  0  0  0  0  0
  -25.3120  -31.2080   25.8900 C   0  0  0  0  0  1  0  0  0  0  0  0
  -27.0170  -30.2180   24.3610 C   0  0  0  0  0  1  0  0  0  0  0  0
  -27.4930  -32.3670   25.4950 C   0  0  0  0  0  1  0  0  0  0  0  0
  1 15  1  0
  2  7  1  0
  3  4  1  0
  3  2  1  0
  5  4  1  0
  5 21  1  0
  5  6  1  0
  7  1  1  0
  7  6  1  0
  8  1  2  0
 10  9  1  0
 11 14  1  0
 12 13  1  0
 12 15  1  0
 12 14  1  0
 13  9  1  0
 14 46  1  0
 15 10  1  0
 16 13  1  0
 16 11  1  0
 16 48  1  0
 16 17  1  6
 18 19  2  0
 19 20  1  0
 19 38  1  0
 20 23  1  0
 21 18  1  0
 21 22  1  0
 22 20  2  0
 23 24  1  0
 24 25  2  0
 26 29  1  0
 26 25  1  0
 27 26  2  0
 28 27  1  0
 28 23  2  0
 29 30  1  0
 30 31  1  0
 31 32  2  0
 33 32  1  0
 33 37  1  0
 34 33  2  0
 35 30  2  0
 35 34  1  0
 36 35  1  0
 38 39  1  0
 39 42  1  0
 39 41  1  0
 40 38  2  0
 43 44  1  0
 43 18  1  0
 45 43  1  0
 47 46  1  0
 49 50  1  0
 49 48  1  0
 51 62  2  0
 52 50  1  0
 52 57  1  0
 53 61  1  0
 53 63  1  0
 54 60  1  0
 54 56  1  0
 55 61  1  0
 56 55  1  0
 57 56  2  0
 58 52  2  0
 59 58  1  0
 59 54  2  0
 60 53  1  0
 61 51  1  0
 63 65  2  0
 64 63  1  0
 66 64  1  0
 67 76  2  0
 67 72  1  0
 68 64  1  0
 68 72  1  0
 69 68  1  0
 70 71  1  0
 70 69  1  0
 71 67  1  0
 72 73  2  0
 73 74  1  0
 75 74  2  0
 76 75  1  0
 77 51  1  0
 77 78  1  0
 77 87  1  0
 78 81  1  0
 79 83  1  0
 79 78  1  0
 80 79  2  0
 83 82  1  0
 85 83  1  0
 85 86  1  0
 85 84  1  0
 87 90  1  1
 87 88  1  0
 89 87  1  0
M  ISO  4   1 100  15 100  49 101  50 101
M  END
>  <TORSDO>  (6) 
F 18

>  <SCORE>  (6) 
-14.535

>  <name>  (6) 
5

>  <ligand_id>  (6) 
5

>  <original_smiles>  (6) 
[H]OC1([H])C2([H])N(C(=O)N3C([H])([H])C([H])([H])C([H])([H])C([H])(n4nc(-c5c([H])c([H])c(Oc6c([H])c([H])c(F)c([H])c6F)c([H])c5[H])c(C(=O)N([H])[H])c4N([H])[H])C3([H])[H])C([H])([H])C([H])([H])C2([H])[N+]([H])(C([H])([H])C([H])([H])Oc2c([H])c([H])c3c(c2[H])C([H])([H])N(C(=O)C([H])(N([H])C(=O)C([H])(N([H])C([H])([H])[H])C([H])([H])[H])C(C([H])([H])[H])(C([H])([H])[H])C([H])([H])[H])C([H])(C(=O)N([H])C2([H])c4c([H])c([H])c([H])c([H])c4C([H])([H])C([H])([H])C2([H])[H])C3([H])[H])C1([H])[H]

>  <smiles>  (6) 
[H]OC1([H])C2([H])N(C(=O)N3C([H])([H])C([H])([H])C([H])([H])C([H])(n4nc(-c5c([H])c([H])c(Oc6c([H])c([H])c(F)c([H])c6F)c([H])c5[H])c(C(=O)N([H])[H])c4N([H])[H])C3([H])[H])C([H])([H])C([H])([H])C2([H])[N+]([H])(C([H])([H])C([H])([H])Oc2c([H])c([H])c3c(c2[H])C([H])([H])N(C(=O)C([H])(N([H])C(=O)C([H])(N([H])C([H])([H])[H])C([H])([H])[H])C(C([H])([H])[H])(C([H])([H])[H])C([H])([H])[H])C([H])(C(=O)N([H])C2([H])c4c([H])c([H])c([H])c([H])c4C([H])([H])C([H])([H])C2([H])[H])C3([H])[H])C1([H])[H]

$$$$
6:0:0
     RDKit          3D

 92102  0  0  1  0  0  0  0  0999 V2000
  -29.8440  -20.8910   21.0200 C   0  0  0  0  0  2  0  0  0  0  0  0
  -30.9680  -14.9470   19.2460 C   0  0  0  0  0  0  0  0  0  0  0  0
  -30.5450  -12.7030   18.1900 C   0  0  0  0  0  2  0  0  0  0  0  0
  -29.3730  -12.7450   17.1890 C   0  0  0  0  0  2  0  0  0  0  0  0
  -28.0440  -12.5110   17.9300 C   0  0  0  0  0  2  0  0  0  0  0  0
  -27.9190  -13.3600   19.2250 C   0  0  0  0  0  3  0  0  0  0  0  0
  -29.1950  -13.3100   20.0890 C   0  0  0  0  0  2  0  0  0  0  0  0
  -30.2910  -13.7410   19.2300 N   0  0  0  0  0  0  0  0  0  0  0  0
  -32.0730  -14.9470   18.6820 O   0  0  0  0  0  0  0  0  0  0  0  0
  -31.3290  -17.3850   19.6210 C   0  0  0  0  0  2  0  0  0  0  0  0
  -29.1350  -16.8500   20.0550 C   0  0  0  0  0  2  0  0  0  0  0  0
  -30.9850  -18.5140   20.6740 C   0  0  1  0  0  0  0  0  0  0  0  0
  -29.2070  -18.3000   20.9030 C   0  0  2  0  0  0  0  0  0  0  0  0
  -30.2600  -18.2870   22.1070 C   0  0  2  0  0  0  0  0  0  0  0  0
  -30.9350  -19.2340   23.1420 C   0  0  0  0  0  1  0  0  0  0  0  0
  -29.1160  -17.6280   23.0040 C   0  0  0  0  0  1  0  0  0  0  0  0
  -30.4590  -16.1950   19.7160 N   0  0  0  0  0  0  0  0  0  0  0  0
  -29.8890  -19.4760   20.3150 N   0  0  1  0  0  4  0  0  0  0  0  0
  -29.6730  -19.5970   19.3350 H   0  0  0  0  0  0  0  0  0  0  0  0
  -25.8740  -13.8410   20.6840 C   0  0  0  0  0  0  0  0  0  0  0  0
  -24.8860  -13.0480   21.1620 C   0  0  0  0  0  0  0  0  0  0  0  0
  -25.1980  -11.7140   20.7310 C   0  0  0  0  0  0  0  0  0  0  0  0
  -26.7370  -13.0090   19.9940 N   0  0  0  0  0  0  0  0  0  0  0  0
  -26.3570  -11.7050   20.0880 N   0  0  0  0  0  0  0  0  0  0  0  0
  -24.4300  -10.4690   20.8280 C   0  0  0  0  0  0  0  0  0  0  0  0
  -24.8980   -9.3720   21.5880 C   0  0  0  0  0  3  0  0  0  0  0  0
  -24.1290   -8.1910   21.6920 C   0  0  0  0  0  3  0  0  0  0  0  0
  -22.8750   -8.1020   21.0410 C   0  0  0  0  0  0  0  0  0  0  0  0
  -22.4290   -9.1870   20.2660 C   0  0  0  0  0  3  0  0  0  0  0  0
  -23.1930  -10.3570   20.1570 C   0  0  0  0  0  3  0  0  0  0  0  0
  -22.0690   -6.9900   21.0650 O   0  0  0  0  0  0  0  0  0  0  0  0
  -21.9230   -6.2390   22.2050 C   0  0  0  0  0  0  0  0  0  0  0  0
  -21.4570   -6.7930   23.4150 C   0  0  0  0  0  3  0  0  0  0  0  0
  -21.2630   -5.9660   24.5420 C   0  0  0  0  0  3  0  0  0  0  0  0
  -21.5170   -4.5850   24.4520 C   0  0  0  0  0  0  0  0  0  0  0  0
  -21.9760   -4.0290   23.2420 C   0  0  0  0  0  3  0  0  0  0  0  0
  -22.1750   -4.8540   22.1220 C   0  0  0  0  0  0  0  0  0  0  0  0
  -22.5960   -4.3080   20.9540 F   0  0  0  0  0  0  0  0  0  0  0  0
  -21.3220   -3.7860   25.5270 F   0  0  0  0  0  0  0  0  0  0  0  0
  -23.6510  -13.4970   21.8880 C   0  0  0  0  0  0  0  0  0  0  0  0
  -23.1190  -12.6720   22.7730 N   0  0  0  0  0  0  0  0  0  0  0  0
  -23.1790  -14.6220   21.6950 O   0  0  0  0  0  0  0  0  0  0  0  0
  -23.5100  -11.7580   22.9470 H   0  0  0  0  0  0  0  0  0  0  0  0
  -22.3040  -12.9620   23.2940 H   0  0  0  0  0  0  0  0  0  0  0  0
  -26.0970  -15.2210   20.7310 N   0  0  0  0  0  0  0  0  0  0  0  0
  -25.3710  -15.8160   21.1090 H   0  0  0  0  0  0  0  0  0  0  0  0
  -26.7210  -15.7030   20.1020 H   0  0  0  0  0  0  0  0  0  0  0  0
  -29.1960  -22.1100   20.1420 C   0  0  0  0  0  0  0  0  0  0  0  0
  -28.6450  -21.8780   19.0350 O   0  0  0  0  0  0  0  0  0  0  0  0
  -29.2520  -23.6450   20.6970 C   0  0  0  0  0  3  0  0  0  0  0  0
  -28.7090  -24.9380   19.8360 C   0  0  0  0  0  3  0  0  0  0  0  0
  -28.6060  -26.3550   20.4160 O   0  0  0  0  0  0  0  0  0  0  0  0
  -24.6110  -31.7580   23.2690 C   0  0  0  0  0  0  0  0  0  0  0  0
  -27.4670  -27.2100   20.3020 C   0  0  0  0  0  0  0  0  0  0  0  0
  -23.5070  -30.2950   21.6240 C   0  0  0  0  0  3  0  0  0  0  0  0
  -25.0510  -28.7930   20.2340 C   0  0  0  0  0  0  0  0  0  0  0  0
  -26.0380  -30.7070   21.4880 C   0  0  0  0  0  2  0  0  0  0  0  0
  -26.1930  -29.3170   20.8550 C   0  0  0  0  0  0  0  0  0  0  0  0
  -27.4020  -28.5420   20.8690 C   0  0  0  0  0  3  0  0  0  0  0  0
  -26.3040  -26.7830   19.6240 C   0  0  0  0  0  3  0  0  0  0  0  0
  -25.1120  -27.5370   19.6170 C   0  0  0  0  0  3  0  0  0  0  0  0
  -23.7820  -29.6200   20.2520 C   0  0  0  0  0  2  0  0  0  0  0  0
  -24.7360  -30.9420   22.1800 N   0  0  0  0  0  0  0  0  0  0  0  0
  -23.5070  -31.9960   23.7800 O   0  0  0  0  0  0  0  0  0  0  0  0
  -22.8710  -29.2550   22.5820 C   0  0  0  0  0  0  0  0  0  0  0  0
  -21.5700  -28.9670   22.3920 N   0  0  0  0  0  0  0  0  0  0  0  0
  -23.5460  -28.7200   23.4650 O   0  0  0  0  0  0  0  0  0  0  0  0
  -21.0820  -29.4640   21.6590 H   0  0  0  0  0  0  0  0  0  0  0  0
  -18.3050  -27.4330   22.6870 C   0  0  0  0  0  0  0  0  0  0  0  0
  -20.7860  -27.9780   23.1420 C   0  0  0  0  0  3  0  0  0  0  0  0
  -21.0890  -26.5420   22.6570 C   0  0  0  0  0  2  0  0  0  0  0  0
  -20.1160  -26.0510   21.5820 C   0  0  0  0  0  2  0  0  0  0  0  0
  -18.6780  -26.0740   22.1140 C   0  0  0  0  0  2  0  0  0  0  0  0
  -19.2980  -28.3330   23.1540 C   0  0  0  0  0  0  0  0  0  0  0  0
  -18.9010  -29.5920   23.6540 C   0  0  0  0  0  3  0  0  0  0  0  0
  -17.5430  -29.9610   23.6820 C   0  0  0  0  0  3  0  0  0  0  0  0
  -16.5630  -29.0600   23.2260 C   0  0  0  0  0  3  0  0  0  0  0  0
  -16.9440  -27.7960   22.7400 C   0  0  0  0  0  3  0  0  0  0  0  0
  -25.8520  -32.4590   23.9020 C   0  0  0  0  0  3  0  0  0  0  0  0
  -26.3230  -31.7800   25.2490 C   0  0  1  0  0  0  0  0  0  0  0  0
  -25.1830  -31.5690   26.2710 C   0  0  0  0  0  1  0  0  0  0  0  0
  -26.9750  -30.4050   24.9760 C   0  0  0  0  0  1  0  0  0  0  0  0
  -27.3960  -32.6590   25.9380 C   0  0  0  0  0  1  0  0  0  0  0  0
  -25.5070  -33.8720   24.1330 N   0  0  0  0  0  0  0  0  0  0  0  0
  -25.8350  -34.8800   23.3150 C   0  0  0  0  0  0  0  0  0  0  0  0
  -26.5340  -34.7250   22.3090 O   0  0  0  0  0  0  0  0  0  0  0  0
  -24.8990  -34.0630   24.9140 H   0  0  0  0  0  0  0  0  0  0  0  0
  -24.0820  -36.6080   22.8070 C   0  0  0  0  0  1  0  0  0  0  0  0
  -25.3060  -36.2800   23.6750 C   0  0  0  0  0  3  0  0  0  0  0  0
  -27.3910  -37.2730   24.5090 C   0  0  0  0  0  1  0  0  0  0  0  0
  -26.3130  -37.3490   23.5250 N   0  0  0  0  0  0  0  0  0  0  0  0
  -25.8800  -38.2640   23.6020 H   0  0  0  0  0  0  0  0  0  0  0  0
  2 17  1  0
  3  8  1  0
  4  5  1  0
  4  3  1  0
  6  5  1  0
  6 23  1  0
  6  7  1  0
  8  2  1  0
  8  7  1  0
  9  2  2  0
 10 17  1  0
 12 10  1  6
 12 13  1  0
 12 14  1  0
 13 11  1  6
 13 14  1  0
 14 16  1  1
 14 15  1  0
 17 11  1  0
 18 12  1  0
 18 13  1  0
 18  1  1  0
 18 19  1  6
 20 45  1  0
 20 21  2  0
 21 40  1  0
 22 25  1  0
 22 21  1  0
 23 24  1  0
 23 20  1  0
 24 22  2  0
 25 26  1  0
 26 27  2  0
 28 31  1  0
 28 27  1  0
 29 28  2  0
 30 29  1  0
 30 25  2  0
 31 32  1  0
 32 33  1  0
 33 34  2  0
 35 34  1  0
 35 39  1  0
 36 35  2  0
 37 32  2  0
 37 36  1  0
 38 37  1  0
 40 41  1  0
 41 43  1  0
 41 44  1  0
 42 40  2  0
 45 46  1  0
 47 45  1  0
 48 50  1  0
 48  1  1  0
 49 48  2  0
 51 52  1  0
 51 50  2  0
 53 64  2  0
 54 52  1  0
 54 59  1  0
 55 63  1  0
 55 65  1  0
 56 62  1  0
 56 58  1  0
 57 63  1  0
 58 59  2  0
 58 57  1  0
 60 54  2  0
 61 60  1  0
 61 56  2  0
 62 55  1  0
 63 53  1  0
 65 67  2  0
 66 65  1  0
 68 66  1  0
 69 78  2  0
 69 74  1  0
 70 66  1  0
 70 74  1  0
 71 70  1  0
 72 73  1  0
 72 71  1  0
 73 69  1  0
 74 75  2  0
 75 76  1  0
 77 76  2  0
 78 77  1  0
 79 53  1  0
 79 84  1  0
 79 80  1  0
 80 83  1  1
 80 81  1  0
 82 80  1  0
 84 87  1  0
 85 89  1  0
 85 84  1  0
 86 85  2  0
 89 88  1  0
 91 92  1  0
 91 89  1  0
 91 90  1  0
M  ISO  4   2 100  17 100  51 101  52 101
M  END
>  <TORSDO>  (7) 
F 19

>  <SCORE>  (7) 
-6.770

>  <name>  (7) 
6

>  <ligand_id>  (7) 
6

>  <original_smiles>  (7) 
[H]c1c([H])c([H])c2c(c1[H])C([H])([H])C([H])([H])C([H])([H])C2([H])N([H])C(=O)C1([H])N(C(=O)C([H])(N([H])C(=O)C([H])(N([H])C([H])([H])[H])C([H])([H])[H])C(C([H])([H])[H])(C([H])([H])[H])C([H])([H])[H])C([H])([H])c2c([H])c(OC([H])([H])C([H])([H])C(=O)C([H])([H])[N+]3([H])C4([H])C([H])([H])N(C(=O)N5C([H])([H])C([H])([H])C([H])([H])C([H])(n6nc(-c7c([H])c([H])c(Oc8c([H])c([H])c(F)c([H])c8F)c([H])c7[H])c(C(=O)N([H])[H])c6N([H])[H])C5([H])[H])C([H])([H])C3([H])C4(C([H])([H])[H])C([H])([H])[H])c([H])c([H])c2C1([H])[H]

>  <smiles>  (7) 
[H]c1c([H])c([H])c2c(c1[H])C([H])([H])C([H])([H])C([H])([H])C2([H])N([H])C(=O)C1([H])N(C(=O)C([H])(N([H])C(=O)C([H])(N([H])C([H])([H])[H])C([H])([H])[H])C(C([H])([H])[H])(C([H])([H])[H])C([H])([H])[H])C([H])([H])c2c([H])c(OC([H])([H])C([H])([H])C(=O)C([H])([H])[N+]3([H])C4([H])C([H])([H])N(C(=O)N5C([H])([H])C([H])([H])C([H])([H])C([H])(n6nc(-c7c([H])c([H])c(Oc8c([H])c([H])c(F)c([H])c8F)c([H])c7[H])c(C(=O)N([H])[H])c6N([H])[H])C5([H])[H])C([H])([H])C3([H])C4(C([H])([H])[H])C([H])([H])[H])c([H])c([H])c2C1([H])[H]

$$$$
7:0:0
     RDKit          3D

 97106  0  0  1  0  0  0  0  0999 V2000
  -28.0080  -18.4100   19.5250 C   0  0  0  0  0  2  0  0  0  0  0  0
  -29.5530  -21.9080   20.2520 C   0  0  0  0  0  2  0  0  0  0  0  0
  -26.6410  -21.8840   20.5550 C   0  0  0  0  0  2  0  0  0  0  0  0
  -26.8250  -19.3610   19.7810 C   0  0  0  0  0  3  0  0  0  0  0  0
  -28.8410  -20.4930   20.7390 C   0  0  0  0  0  3  0  0  0  0  0  0
  -27.5080  -20.7250   19.9880 C   0  0  0  0  0  3  0  0  0  0  0  0
  -29.0490  -18.8050   20.5750 C   0  0  0  0  0  3  0  0  0  0  0  0
  -28.7560  -23.3530   20.6030 C   0  0  0  0  0  3  0  0  0  0  0  0
  -27.4090  -23.0200   21.1510 N   0  0  0  0  0  4  0  0  0  0  0  0
  -27.5510  -22.7780   22.1200 H   0  0  0  0  0  0  0  0  0  0  0  0
  -26.8290  -23.8460   21.1640 H   0  0  0  0  0  0  0  0  0  0  0  0
  -25.8080  -19.3600   18.6280 C   0  0  0  0  0  0  0  0  0  0  0  0
  -24.6450  -18.7600   18.8370 N   0  0  0  0  0  0  0  0  0  0  0  0
  -26.0580  -19.9040   17.5550 O   0  0  0  0  0  0  0  0  0  0  0  0
  -23.9430  -18.7420   18.1090 H   0  0  0  0  0  0  0  0  0  0  0  0
  -24.4460  -18.3080   19.7190 H   0  0  0  0  0  0  0  0  0  0  0  0
  -30.2720  -17.6720   20.7270 C   0  0  0  0  0  2  0  0  0  0  0  0
  -30.7470  -14.9560   20.8000 C   0  0  0  0  0  0  0  0  0  0  0  0
  -30.6680  -12.6080   19.8680 C   0  0  0  0  0  2  0  0  0  0  0  0
  -29.8150  -12.5750   18.5780 C   0  0  0  0  0  2  0  0  0  0  0  0
  -28.3250  -12.3790   18.9170 C   0  0  0  0  0  2  0  0  0  0  0  0
  -27.8510  -13.3080   20.0650 C   0  0  0  0  0  3  0  0  0  0  0  0
  -28.8330  -13.3110   21.2580 C   0  0  0  0  0  2  0  0  0  0  0  0
  -30.1460  -13.7030   20.7310 N   0  0  0  0  0  0  0  0  0  0  0  0
  -31.9590  -15.0250   20.5760 O   0  0  0  0  0  0  0  0  0  0  0  0
  -29.9610  -16.1300   20.9050 N   0  0  0  0  0  0  0  0  0  0  0  0
  -28.9840  -15.9300   21.0590 H   0  0  0  0  0  0  0  0  0  0  0  0
  -25.4380  -13.8980   20.6850 C   0  0  0  0  0  0  0  0  0  0  0  0
  -24.3450  -13.1280   20.9720 C   0  0  0  0  0  0  0  0  0  0  0  0
  -24.7950  -11.7720   20.9250 C   0  0  0  0  0  0  0  0  0  0  0  0
  -26.4830  -13.0140   20.4780 N   0  0  0  0  0  0  0  0  0  0  0  0
  -26.1000  -11.7280   20.6880 N   0  0  0  0  0  0  0  0  0  0  0  0
  -24.0420  -10.5150   21.0320 C   0  0  0  0  0  0  0  0  0  0  0  0
  -24.4330   -9.4930   21.9260 C   0  0  0  0  0  3  0  0  0  0  0  0
  -23.6810   -8.3030   22.0250 C   0  0  0  0  0  3  0  0  0  0  0  0
  -22.5240   -8.1260   21.2300 C   0  0  0  0  0  0  0  0  0  0  0  0
  -22.1520   -9.1360   20.3270 C   0  0  0  0  0  3  0  0  0  0  0  0
  -22.9050  -10.3180   20.2250 C   0  0  0  0  0  3  0  0  0  0  0  0
  -21.7460   -6.9920   21.2420 O   0  0  0  0  0  0  0  0  0  0  0  0
  -21.6850   -6.1730   22.3410 C   0  0  0  0  0  0  0  0  0  0  0  0
  -21.2760   -6.6510   23.6050 C   0  0  0  0  0  3  0  0  0  0  0  0
  -21.1600   -5.7600   24.6910 C   0  0  0  0  0  3  0  0  0  0  0  0
  -21.4420   -4.3920   24.5130 C   0  0  0  0  0  0  0  0  0  0  0  0
  -21.8440   -3.9130   23.2540 C   0  0  0  0  0  3  0  0  0  0  0  0
  -21.9620   -4.8020   22.1700 C   0  0  0  0  0  0  0  0  0  0  0  0
  -22.3290   -4.3320   20.9530 F   0  0  0  0  0  0  0  0  0  0  0  0
  -21.3240   -3.5350   25.5530 F   0  0  0  0  0  0  0  0  0  0  0  0
  -22.9410  -13.6160   21.1750 C   0  0  0  0  0  0  0  0  0  0  0  0
  -22.1590  -12.9140   21.9880 N   0  0  0  0  0  0  0  0  0  0  0  0
  -22.5450  -14.6560   20.6500 O   0  0  0  0  0  0  0  0  0  0  0  0
  -22.4930  -12.0730   22.4360 H   0  0  0  0  0  0  0  0  0  0  0  0
  -21.2150  -13.2220   22.1670 H   0  0  0  0  0  0  0  0  0  0  0  0
  -25.6240  -15.2710   20.5540 N   0  0  0  0  0  0  0  0  0  0  0  0
  -24.8470  -15.9190   20.6220 H   0  0  0  0  0  0  0  0  0  0  0  0
  -26.4690  -15.6980   20.2010 H   0  0  0  0  0  0  0  0  0  0  0  0
  -28.6610  -24.7270   19.6390 C   0  0  0  0  0  2  0  0  0  0  0  0
  -28.6710  -26.2160   20.0990 O   0  0  0  0  0  0  0  0  0  0  0  0
  -24.8620  -31.6910   23.1810 C   0  0  0  0  0  0  0  0  0  0  0  0
  -27.5740  -27.1500   20.0130 C   0  0  0  0  0  0  0  0  0  0  0  0
  -23.7070  -30.3260   21.4840 C   0  0  0  0  0  3  0  0  0  0  0  0
  -25.2030  -28.8350   20.0200 C   0  0  0  0  0  0  0  0  0  0  0  0
  -26.2550  -30.6540   21.3550 C   0  0  0  0  0  2  0  0  0  0  0  0
  -26.3640  -29.2880   20.6570 C   0  0  0  0  0  0  0  0  0  0  0  0
  -27.5450  -28.4580   20.6430 C   0  0  0  0  0  3  0  0  0  0  0  0
  -26.3870  -26.8060   19.3270 C   0  0  0  0  0  3  0  0  0  0  0  0
  -25.2270  -27.6100   19.3410 C   0  0  0  0  0  3  0  0  0  0  0  0
  -23.9550  -29.7010   20.0850 C   0  0  0  0  0  2  0  0  0  0  0  0
  -24.9600  -30.9110   22.0620 N   0  0  0  0  0  0  0  0  0  0  0  0
  -23.7650  -31.9350   23.7070 O   0  0  0  0  0  0  0  0  0  0  0  0
  -23.0440  -29.2710   22.4050 C   0  0  0  0  0  0  0  0  0  0  0  0
  -21.7100  -29.1250   22.3080 N   0  0  0  0  0  0  0  0  0  0  0  0
  -23.7310  -28.5890   23.1710 O   0  0  0  0  0  0  0  0  0  0  0  0
  -21.2130  -29.7290   21.6700 H   0  0  0  0  0  0  0  0  0  0  0  0
  -18.3220  -27.9930   22.8960 C   0  0  0  0  0  0  0  0  0  0  0  0
  -20.8990  -28.1540   23.0450 C   0  0  0  0  0  3  0  0  0  0  0  0
  -20.9210  -26.7700   22.3550 C   0  0  0  0  0  2  0  0  0  0  0  0
  -19.7570  -26.5630   21.3810 C   0  0  0  0  0  2  0  0  0  0  0  0
  -18.4160  -26.6970   22.1080 C   0  0  0  0  0  2  0  0  0  0  0  0
  -19.4870  -28.6830   23.3230 C   0  0  0  0  0  0  0  0  0  0  0  0
  -19.3430  -29.8990   24.0250 C   0  0  0  0  0  3  0  0  0  0  0  0
  -18.0680  -30.4240   24.3030 C   0  0  0  0  0  3  0  0  0  0  0  0
  -16.9170  -29.7300   23.8900 C   0  0  0  0  0  3  0  0  0  0  0  0
  -17.0450  -28.5150   23.1920 C   0  0  0  0  0  3  0  0  0  0  0  0
  -26.1210  -32.3320   23.8400 C   0  0  0  0  0  3  0  0  0  0  0  0
  -26.6590  -31.5110   25.0760 C   0  0  1  0  0  0  0  0  0  0  0  0
  -25.5750  -31.1940   26.1330 C   0  0  0  0  0  1  0  0  0  0  0  0
  -27.2730  -30.1670   24.6180 C   0  0  0  0  0  1  0  0  0  0  0  0
  -27.7940  -32.2980   25.7730 C   0  0  0  0  0  1  0  0  0  0  0  0
  -25.7630  -33.6990   24.2510 N   0  0  0  0  0  0  0  0  0  0  0  0
  -26.0900  -34.8100   23.5770 C   0  0  0  0  0  0  0  0  0  0  0  0
  -26.7890  -34.7930   22.5610 O   0  0  0  0  0  0  0  0  0  0  0  0
  -25.1410  -33.7850   25.0420 H   0  0  0  0  0  0  0  0  0  0  0  0
  -24.3260  -36.5850   23.2980 C   0  0  0  0  0  1  0  0  0  0  0  0
  -25.5570  -36.1540   24.1140 C   0  0  0  0  0  3  0  0  0  0  0  0
  -27.6430  -37.0330   25.0640 C   0  0  0  0  0  1  0  0  0  0  0  0
  -26.5650  -37.2360   24.1000 N   0  0  0  0  0  0  0  0  0  0  0  0
  -26.1320  -38.1350   24.2920 H   0  0  0  0  0  0  0  0  0  0  0  0
  1  4  1  0
  1  7  1  0
  2  8  1  0
  3  9  1  0
  4 12  1  0
  4  6  1  0
  5  2  1  0
  6  3  1  0
  6  5  1  0
  7 17  1  0
  7  5  1  0
  8 56  1  0
  8  9  1  0
  9 11  1  0
  9 10  1  0
 12 13  1  0
 13 16  1  0
 14 12  2  0
 15 13  1  0
 17 26  1  0
 18 26  1  0
 19 24  1  0
 20 21  1  0
 20 19  1  0
 22 21  1  0
 22 31  1  0
 22 23  1  0
 24 18  1  0
 24 23  1  0
 25 18  2  0
 26 27  1  0
 28 29  2  0
 29 48  1  0
 30 29  1  0
 30 33  1  0
 31 28  1  0
 31 32  1  0
 32 30  2  0
 33 34  1  0
 34 35  2  0
 36 39  1  0
 36 35  1  0
 37 36  2  0
 38 37  1  0
 38 33  2  0
 39 40  1  0
 40 41  1  0
 41 42  2  0
 43 42  1  0
 43 47  1  0
 44 43  2  0
 45 40  2  0
 45 44  1  0
 46 45  1  0
 48 49  1  0
 49 52  1  0
 49 51  1  0
 50 48  2  0
 53 54  1  0
 53 28  1  0
 55 53  1  0
 56 57  1  0
 58 69  2  0
 59 57  1  0
 59 64  1  0
 60 68  1  0
 60 70  1  0
 61 67  1  0
 61 63  1  0
 62 68  1  0
 63 62  1  0
 64 63  2  0
 65 66  1  0
 65 59  2  0
 66 61  2  0
 67 60  1  0
 68 58  1  0
 70 72  2  0
 71 70  1  0
 73 71  1  0
 74 83  2  0
 74 79  1  0
 75 71  1  0
 75 79  1  0
 76 75  1  0
 77 78  1  0
 77 76  1  0
 78 74  1  0
 79 80  2  0
 80 81  1  0
 82 81  2  0
 83 82  1  0
 84 58  1  0
 84 89  1  0
 84 85  1  0
 85 88  1  1
 85 86  1  0
 87 85  1  0
 89 92  1  0
 90 94  1  0
 90 89  1  0
 91 90  2  0
 94 93  1  0
 96 94  1  0
 96 97  1  0
 96 95  1  0
M  ISO  4  18 100  26 100  56 101  57 101
M  END
>  <TORSDO>  (8) 
F 19

>  <SCORE>  (8) 
-11.415

>  <name>  (8) 
7

>  <ligand_id>  (8) 
7

>  <original_smiles>  (8) 
[H]c1c([H])c([H])c2c(c1[H])C([H])([H])C([H])([H])C([H])([H])C2([H])N([H])C(=O)C1([H])N(C(=O)C([H])(N([H])C(=O)C([H])(N([H])C([H])([H])[H])C([H])([H])[H])C(C([H])([H])[H])(C([H])([H])[H])C([H])([H])[H])C([H])([H])c2c([H])c(OC([H])([H])C3([H])C([H])([H])C4([H])C([H])(C([H])([H])N([H])C(=O)N5C([H])([H])C([H])([H])C([H])([H])C([H])(n6nc(-c7c([H])c([H])c(Oc8c([H])c([H])c(F)c([H])c8F)c([H])c7[H])c(C(=O)N([H])[H])c6N([H])[H])C5([H])[H])C([H])([H])C([H])(C(=O)N([H])[H])C4([H])C([H])([H])[N+]3([H])[H])c([H])c([H])c2C1([H])[H]

>  <smiles>  (8) 
[H]c1c([H])c([H])c2c(c1[H])C([H])([H])C([H])([H])C([H])([H])C2([H])N([H])C(=O)C1([H])N(C(=O)C([H])(N([H])C(=O)C([H])(N([H])C([H])([H])[H])C([H])([H])[H])C(C([H])([H])[H])(C([H])([H])[H])C([H])([H])[H])C([H])([H])c2c([H])c(OC([H])([H])C3([H])C([H])([H])C4([H])C([H])(C([H])([H])N([H])C(=O)N5C([H])([H])C([H])([H])C([H])([H])C([H])(n6nc(-c7c([H])c([H])c(Oc8c([H])c([H])c(F)c([H])c8F)c([H])c7[H])c(C(=O)N([H])[H])c6N([H])[H])C5([H])[H])C([H])([H])C([H])(C(=O)N([H])[H])C4([H])C([H])([H])[N+]3([H])[H])c([H])c([H])c2C1([H])[H]

$$$$
8:0:0
     RDKit          3D

 93102  0  0  1  0  0  0  0  0999 V2000
  -30.2780  -20.9810   23.2600 C   0  0  0  0  0  0  0  0  0  0  0  0
  -29.8160  -19.6320   22.6740 C   0  0  0  0  0  2  0  0  0  0  0  0
  -30.9220  -22.4090   21.2160 C   0  0  0  0  0  2  0  0  0  0  0  0
  -31.2930  -21.2010   22.1140 C   0  0  0  0  0  3  0  0  0  0  0  0
  -30.9650  -19.7530   21.6430 C   0  0  0  0  0  3  0  0  0  0  0  0
  -29.6540  -22.1550   20.3840 C   0  0  0  0  0  3  0  0  0  0  0  0
  -30.7240  -19.5890   20.1410 C   0  0  0  0  0  3  0  0  0  0  0  0
  -29.7980  -20.7770   19.5980 N   0  0  0  0  0  4  0  0  0  0  0  0
  -29.9280  -21.6570   24.2290 O   0  0  0  0  0  0  0  0  0  0  0  0
  -30.1020  -20.9880   18.6630 H   0  0  0  0  0  0  0  0  0  0  0  0
  -28.8670  -20.4040   19.4960 H   0  0  0  0  0  0  0  0  0  0  0  0
  -28.7290  -23.5530   20.0270 C   0  0  0  0  0  2  0  0  0  0  0  0
  -29.1010  -25.0860   19.4430 C   0  0  0  0  0  2  0  0  0  0  0  0
  -28.8180  -26.5190   19.9890 O   0  0  0  0  0  0  0  0  0  0  0  0
  -24.6030  -31.6280   23.1010 C   0  0  0  0  0  0  0  0  0  0  0  0
  -27.6620  -27.3660   19.8720 C   0  0  0  0  0  0  0  0  0  0  0  0
  -23.5750  -30.2540   21.3270 C   0  0  0  0  0  3  0  0  0  0  0  0
  -25.1930  -28.8920   19.8560 C   0  0  0  0  0  0  0  0  0  0  0  0
  -26.0950  -30.7430   21.2670 C   0  0  0  0  0  2  0  0  0  0  0  0
  -26.3040  -29.4070   20.5330 C   0  0  0  0  0  0  0  0  0  0  0  0
  -27.5340  -28.6550   20.5260 C   0  0  0  0  0  3  0  0  0  0  0  0
  -26.5240  -26.9420   19.1560 C   0  0  0  0  0  3  0  0  0  0  0  0
  -25.3120  -27.6780   19.1560 C   0  0  0  0  0  3  0  0  0  0  0  0
  -23.8910  -29.6760   19.9210 C   0  0  0  0  0  2  0  0  0  0  0  0
  -24.7750  -30.8970   21.9570 N   0  0  0  0  0  0  0  0  0  0  0  0
  -23.4840  -31.7810   23.6130 O   0  0  0  0  0  0  0  0  0  0  0  0
  -22.9530  -29.1370   22.2030 C   0  0  0  0  0  0  0  0  0  0  0  0
  -21.6420  -28.8880   22.0410 N   0  0  0  0  0  0  0  0  0  0  0  0
  -23.6560  -28.4960   22.9890 O   0  0  0  0  0  0  0  0  0  0  0  0
  -21.1270  -29.4560   21.3830 H   0  0  0  0  0  0  0  0  0  0  0  0
  -18.3440  -27.4390   22.4000 C   0  0  0  0  0  0  0  0  0  0  0  0
  -20.8760  -27.8420   22.7240 C   0  0  0  0  0  3  0  0  0  0  0  0
  -21.0740  -26.4700   22.0370 C   0  0  0  0  0  2  0  0  0  0  0  0
  -20.0060  -26.1620   20.9830 C   0  0  0  0  0  2  0  0  0  0  0  0
  -18.6130  -26.1640   21.6190 C   0  0  0  0  0  2  0  0  0  0  0  0
  -19.4050  -28.2340   22.9060 C   0  0  0  0  0  0  0  0  0  0  0  0
  -19.1000  -29.4260   23.5990 C   0  0  0  0  0  3  0  0  0  0  0  0
  -17.7630  -29.8260   23.7840 C   0  0  0  0  0  3  0  0  0  0  0  0
  -16.7150  -29.0260   23.2920 C   0  0  0  0  0  3  0  0  0  0  0  0
  -17.0060  -27.8330   22.6090 C   0  0  0  0  0  3  0  0  0  0  0  0
  -25.8040  -32.3240   23.8130 C   0  0  0  0  0  3  0  0  0  0  0  0
  -26.2700  -31.5770   25.1240 C   0  0  1  0  0  0  0  0  0  0  0  0
  -25.1200  -31.2640   26.1100 C   0  0  0  0  0  1  0  0  0  0  0  0
  -26.9630  -30.2380   24.7770 C   0  0  0  0  0  1  0  0  0  0  0  0
  -27.3190  -32.4340   25.8710 C   0  0  0  0  0  1  0  0  0  0  0  0
  -25.3990  -33.7030   24.1270 N   0  0  0  0  0  0  0  0  0  0  0  0
  -25.7290  -34.7810   23.4020 C   0  0  0  0  0  0  0  0  0  0  0  0
  -26.4660  -34.7200   22.4140 O   0  0  0  0  0  0  0  0  0  0  0  0
  -24.7400  -33.8180   24.8820 H   0  0  0  0  0  0  0  0  0  0  0  0
  -23.9260  -36.4840   22.9730 C   0  0  0  0  0  1  0  0  0  0  0  0
  -25.1490  -36.1420   23.8390 C   0  0  0  0  0  3  0  0  0  0  0  0
  -27.1920  -37.1370   24.7710 C   0  0  0  0  0  1  0  0  0  0  0  0
  -26.1310  -37.2470   23.7740 N   0  0  0  0  0  0  0  0  0  0  0  0
  -25.6720  -38.1460   23.8970 H   0  0  0  0  0  0  0  0  0  0  0  0
  -30.6860  -17.9890   19.5490 C   0  0  0  0  0  2  0  0  0  0  0  0
  -31.6770  -15.4030   19.9980 C   0  0  0  0  0  0  0  0  0  0  0  0
  -31.5020  -13.0000   19.2020 C   0  0  0  0  0  2  0  0  0  0  0  0
  -30.5420  -12.9320   17.9890 C   0  0  0  0  0  2  0  0  0  0  0  0
  -29.0890  -12.7590   18.4600 C   0  0  0  0  0  2  0  0  0  0  0  0
  -28.7320  -13.7510   19.5980 C   0  0  0  0  0  3  0  0  0  0  0  0
  -29.8080  -13.7910   20.7070 C   0  0  0  0  0  2  0  0  0  0  0  0
  -31.0840  -14.1410   20.0710 N   0  0  0  0  0  0  0  0  0  0  0  0
  -32.8240  -15.4540   19.5370 O   0  0  0  0  0  0  0  0  0  0  0  0
  -30.9270  -16.5860   20.2760 N   0  0  0  0  0  0  0  0  0  0  0  0
  -30.1410  -16.3490   20.8640 H   0  0  0  0  0  0  0  0  0  0  0  0
  -26.4480  -14.4390   20.5190 C   0  0  0  0  0  0  0  0  0  0  0  0
  -25.3450  -13.7150   20.8830 C   0  0  0  0  0  0  0  0  0  0  0  0
  -25.6970  -12.3420   20.7080 C   0  0  0  0  0  0  0  0  0  0  0  0
  -27.4030  -13.5100   20.1410 N   0  0  0  0  0  0  0  0  0  0  0  0
  -26.9630  -12.2350   20.3200 N   0  0  0  0  0  0  0  0  0  0  0  0
  -24.8820  -11.1250   20.8280 C   0  0  0  0  0  0  0  0  0  0  0  0
  -25.2420  -10.0790   21.7050 C   0  0  0  0  0  3  0  0  0  0  0  0
  -24.4310   -8.9290   21.8180 C   0  0  0  0  0  3  0  0  0  0  0  0
  -23.2440   -8.8200   21.0540 C   0  0  0  0  0  0  0  0  0  0  0  0
  -22.9060   -9.8540   20.1630 C   0  0  0  0  0  3  0  0  0  0  0  0
  -23.7160  -10.9940   20.0480 C   0  0  0  0  0  3  0  0  0  0  0  0
  -22.4080   -7.7300   21.0810 O   0  0  0  0  0  0  0  0  0  0  0  0
  -22.1750   -7.0300   22.2380 C   0  0  0  0  0  0  0  0  0  0  0  0
  -21.6160   -7.6420   23.3800 C   0  0  0  0  0  3  0  0  0  0  0  0
  -21.3260   -6.8690   24.5230 C   0  0  0  0  0  3  0  0  0  0  0  0
  -21.5890   -5.4860   24.5220 C   0  0  0  0  0  0  0  0  0  0  0  0
  -22.1430   -4.8740   23.3840 C   0  0  0  0  0  3  0  0  0  0  0  0
  -22.4310   -5.6440   22.2430 C   0  0  0  0  0  0  0  0  0  0  0  0
  -22.9430   -5.0450   21.1410 F   0  0  0  0  0  0  0  0  0  0  0  0
  -21.3050   -4.7400   25.6170 F   0  0  0  0  0  0  0  0  0  0  0  0
  -24.0080  -14.2710   21.2770 C   0  0  0  0  0  0  0  0  0  0  0  0
  -23.2880  -13.5690   22.1480 N   0  0  0  0  0  0  0  0  0  0  0  0
  -23.6140  -15.3540   20.8480 O   0  0  0  0  0  0  0  0  0  0  0  0
  -23.6210  -12.6900   22.5120 H   0  0  0  0  0  0  0  0  0  0  0  0
  -22.3910  -13.9190   22.4520 H   0  0  0  0  0  0  0  0  0  0  0  0
  -26.7170  -15.8030   20.4510 N   0  0  0  0  0  0  0  0  0  0  0  0
  -26.0070  -16.5050   20.6310 H   0  0  0  0  0  0  0  0  0  0  0  0
  -27.5800  -16.1960   20.1010 H   0  0  0  0  0  0  0  0  0  0  0  0
  1  9  2  0
  2  1  1  0
  4  3  1  0
  4  1  1  0
  5  4  1  0
  5  2  1  0
  6 12  1  0
  6  3  1  0
  7 55  1  0
  7  5  1  0
  8  7  1  0
  8  6  1  0
 10  8  1  0
 11  8  1  0
 13 14  1  0
 13 12  1  0
 15 26  2  0
 16 14  1  0
 16 21  1  0
 17 25  1  0
 17 27  1  0
 18 24  1  0
 18 20  1  0
 19 25  1  0
 20 19  1  0
 21 20  2  0
 22 23  1  0
 22 16  2  0
 23 18  2  0
 24 17  1  0
 25 15  1  0
 27 29  2  0
 28 27  1  0
 30 28  1  0
 31 40  2  0
 31 36  1  0
 32 28  1  0
 32 36  1  0
 33 32  1  0
 34 35  1  0
 34 33  1  0
 35 31  1  0
 36 37  2  0
 37 38  1  0
 39 38  2  0
 40 39  1  0
 41 15  1  0
 41 46  1  0
 41 42  1  0
 42 45  1  1
 42 43  1  0
 44 42  1  0
 46 49  1  0
 47 51  1  0
 47 46  1  0
 48 47  2  0
 51 50  1  0
 53 51  1  0
 53 54  1  0
 53 52  1  0
 55 64  1  0
 56 62  1  0
 56 64  1  0
 57 62  1  0
 58 59  1  0
 58 57  1  0
 60 59  1  0
 60 69  1  0
 60 61  1  0
 62 61  1  0
 63 56  2  0
 64 65  1  0
 66 67  2  0
 67 86  1  0
 68 71  1  0
 68 67  1  0
 69 70  1  0
 69 66  1  0
 70 68  2  0
 71 72  1  0
 72 73  2  0
 74 77  1  0
 74 73  1  0
 75 74  2  0
 76 75  1  0
 76 71  2  0
 77 78  1  0
 78 83  2  0
 78 79  1  0
 79 80  2  0
 81 80  1  0
 81 85  1  0
 82 81  2  0
 83 82  1  0
 84 83  1  0
 86 87  1  0
 87 90  1  0
 87 89  1  0
 88 86  2  0
 91 66  1  0
 91 92  1  0
 93 91  1  0
M  ISO  4  13 101  14 101  56 100  64 100
M  END
>  <TORSDO>  (9) 
F 19

>  <SCORE>  (9) 
-11.893

>  <name>  (9) 
8

>  <ligand_id>  (9) 
8

>  <original_smiles>  (9) 
[H]c1c([H])c([H])c2c(c1[H])C([H])([H])C([H])([H])C([H])([H])C2([H])N([H])C(=O)C1([H])N(C(=O)C([H])(N([H])C(=O)C([H])(N([H])C([H])([H])[H])C([H])([H])[H])C(C([H])([H])[H])(C([H])([H])[H])C([H])([H])[H])C([H])([H])c2c([H])c(OC([H])([H])C([H])([H])C3([H])C([H])([H])C4([H])C(=O)C([H])([H])C4([H])C([H])(C([H])([H])N([H])C(=O)N4C([H])([H])C([H])([H])C([H])([H])C([H])(n5nc(-c6c([H])c([H])c(Oc7c([H])c([H])c(F)c([H])c7F)c([H])c6[H])c(C(=O)N([H])[H])c5N([H])[H])C4([H])[H])[N+]3([H])[H])c([H])c([H])c2C1([H])[H]

>  <smiles>  (9) 
[H]c1c([H])c([H])c2c(c1[H])C([H])([H])C([H])([H])C([H])([H])C2([H])N([H])C(=O)C1([H])N(C(=O)C([H])(N([H])C(=O)C([H])(N([H])C([H])([H])[H])C([H])([H])[H])C(C([H])([H])[H])(C([H])([H])[H])C([H])([H])[H])C([H])([H])c2c([H])c(OC([H])([H])C([H])([H])C3([H])C([H])([H])C4([H])C(=O)C([H])([H])C4([H])C([H])(C([H])([H])N([H])C(=O)N4C([H])([H])C([H])([H])C([H])([H])C([H])(n5nc(-c6c([H])c([H])c(Oc7c([H])c([H])c(F)c([H])c7F)c([H])c6[H])c(C(=O)N([H])[H])c5N([H])[H])C4([H])[H])[N+]3([H])[H])c([H])c([H])c2C1([H])[H]

$$$$
9:0:0
     RDKit          3D

 93102  0  0  1  0  0  0  0  0999 V2000
  -29.0200  -22.3430   20.4910 C   0  0  0  0  0  2  0  0  0  0  0  0
  -30.4580  -22.8580   22.2730 C   0  0  0  0  0  2  0  0  0  0  0  0
  -28.5220  -21.0530   21.1970 C   0  0  0  0  0  2  0  0  0  0  0  0
  -30.0250  -21.5840   23.0510 C   0  0  0  0  0  2  0  0  0  0  0  0
  -29.3230  -23.3740   21.4930 N   0  0  0  0  0  0  0  0  0  0  0  0
  -29.5130  -20.5000   22.1640 N   0  0  2  0  0  4  0  0  0  0  0  0
  -28.9820  -19.9090   22.7870 H   0  0  0  0  0  0  0  0  0  0  0  0
  -29.6070  -24.6970   20.8990 C   0  0  0  0  0  2  0  0  0  0  0  0
  -28.3220  -25.3740   20.3560 C   0  0  0  0  0  2  0  0  0  0  0  0
  -28.4980  -26.7610   20.0050 O   0  0  0  0  0  0  0  0  0  0  0  0
  -24.6570  -31.8510   23.1300 C   0  0  0  0  0  0  0  0  0  0  0  0
  -27.3310  -27.4990   19.9630 C   0  0  0  0  0  0  0  0  0  0  0  0
  -23.4500  -30.4460   21.4920 C   0  0  0  0  0  3  0  0  0  0  0  0
  -24.9090  -28.9670   20.0130 C   0  0  0  0  0  0  0  0  0  0  0  0
  -25.9610  -30.8670   21.2480 C   0  0  0  0  0  2  0  0  0  0  0  0
  -26.0660  -29.5060   20.5890 C   0  0  0  0  0  0  0  0  0  0  0  0
  -27.2800  -28.7820   20.5560 C   0  0  0  0  0  3  0  0  0  0  0  0
  -26.1570  -26.9850   19.3640 C   0  0  0  0  0  3  0  0  0  0  0  0
  -24.9500  -27.7080   19.3910 C   0  0  0  0  0  3  0  0  0  0  0  0
  -23.6460  -29.7950   20.0970 C   0  0  0  0  0  2  0  0  0  0  0  0
  -24.7090  -31.0680   22.0160 N   0  0  0  0  0  0  0  0  0  0  0  0
  -23.5800  -32.0930   23.6930 O   0  0  0  0  0  0  0  0  0  0  0  0
  -22.8390  -29.3970   22.4490 C   0  0  0  0  0  0  0  0  0  0  0  0
  -21.5270  -29.1560   22.3160 N   0  0  0  0  0  0  0  0  0  0  0  0
  -23.5460  -28.8030   23.2690 O   0  0  0  0  0  0  0  0  0  0  0  0
  -21.0170  -29.6880   21.6250 H   0  0  0  0  0  0  0  0  0  0  0  0
  -18.2170  -27.7670   22.7470 C   0  0  0  0  0  0  0  0  0  0  0  0
  -20.7460  -28.1840   23.0830 C   0  0  0  0  0  3  0  0  0  0  0  0
  -20.9500  -26.7520   22.5380 C   0  0  0  0  0  2  0  0  0  0  0  0
  -19.8970  -26.3460   21.5000 C   0  0  0  0  0  2  0  0  0  0  0  0
  -18.4930  -26.4170   22.1050 C   0  0  0  0  0  2  0  0  0  0  0  0
  -19.2750  -28.6020   23.1920 C   0  0  0  0  0  0  0  0  0  0  0  0
  -18.9640  -29.8620   23.7500 C   0  0  0  0  0  3  0  0  0  0  0  0
  -17.6260  -30.2870   23.8690 C   0  0  0  0  0  3  0  0  0  0  0  0
  -16.5830  -29.4490   23.4400 C   0  0  0  0  0  3  0  0  0  0  0  0
  -16.8790  -28.1910   22.8850 C   0  0  0  0  0  3  0  0  0  0  0  0
  -25.9400  -32.5020   23.7350 C   0  0  0  0  0  3  0  0  0  0  0  0
  -26.5060  -31.7170   24.9810 C   0  0  1  0  0  0  0  0  0  0  0  0
  -25.4460  -31.4310   26.0710 C   0  0  0  0  0  1  0  0  0  0  0  0
  -27.1080  -30.3610   24.5410 C   0  0  0  0  0  1  0  0  0  0  0  0
  -27.6550  -32.5240   25.6300 C   0  0  0  0  0  1  0  0  0  0  0  0
  -25.6050  -33.8840   24.0990 N   0  0  0  0  0  0  0  0  0  0  0  0
  -25.9290  -34.9630   23.3720 C   0  0  0  0  0  0  0  0  0  0  0  0
  -26.6140  -34.8990   22.3470 O   0  0  0  0  0  0  0  0  0  0  0  0
  -25.0000  -34.0080   24.8970 H   0  0  0  0  0  0  0  0  0  0  0  0
  -24.1810  -36.7360   23.0280 C   0  0  0  0  0  1  0  0  0  0  0  0
  -25.4080  -36.3290   23.8580 C   0  0  0  0  0  3  0  0  0  0  0  0
  -27.5160  -37.2110   24.7550 C   0  0  0  0  0  1  0  0  0  0  0  0
  -26.4240  -37.4020   23.8050 N   0  0  0  0  0  0  0  0  0  0  0  0
  -25.9980  -38.3060   23.9920 H   0  0  0  0  0  0  0  0  0  0  0  0
  -30.5540  -19.5920   21.5860 C   0  0  0  0  0  2  0  0  0  0  0  0
  -30.0100  -18.1750   21.1980 C   0  0  0  0  0  2  0  0  0  0  0  0
  -31.0710  -14.7130   20.0170 C   0  0  0  0  0  0  0  0  0  0  0  0
  -30.6920  -12.4900   19.0210 C   0  0  0  0  0  2  0  0  0  0  0  0
  -29.7560  -12.6310   17.8050 C   0  0  0  0  0  2  0  0  0  0  0  0
  -28.2810  -12.5510   18.2520 C   0  0  0  0  0  2  0  0  0  0  0  0
  -27.9560  -13.4430   19.4830 C   0  0  0  0  0  3  0  0  0  0  0  0
  -29.0320  -13.3340   20.5870 C   0  0  0  0  0  2  0  0  0  0  0  0
  -30.3400  -13.5620   19.9650 N   0  0  0  0  0  0  0  0  0  0  0  0
  -32.2750  -14.7140   19.7530 O   0  0  0  0  0  0  0  0  0  0  0  0
  -30.6080  -17.5740   18.3040 C   0  0  0  0  0  2  0  0  0  0  0  0
  -31.7110  -17.7320   19.3370 C   0  0  0  0  0  2  0  0  0  0  0  0
  -29.7920  -16.3670   18.8110 C   0  0  0  0  0  2  0  0  0  0  0  0
  -31.0430  -17.1520   20.5910 C   0  0  0  0  0  3  0  0  0  0  0  0
  -30.3890  -15.9060   20.0860 N   0  0  0  0  0  0  0  0  0  0  0  0
  -25.5910  -14.0950   20.2490 C   0  0  0  0  0  0  0  0  0  0  0  0
  -24.5170  -13.3460   20.6490 C   0  0  0  0  0  0  0  0  0  0  0  0
  -24.9540  -11.9850   20.6250 C   0  0  0  0  0  0  0  0  0  0  0  0
  -26.6140  -13.1910   20.0010 N   0  0  0  0  0  0  0  0  0  0  0  0
  -26.2380  -11.9190   20.2910 N   0  0  0  0  0  0  0  0  0  0  0  0
  -24.2070  -10.7400   20.8410 C   0  0  0  0  0  0  0  0  0  0  0  0
  -24.6200   -9.7880   21.7980 C   0  0  0  0  0  3  0  0  0  0  0  0
  -23.8760   -8.6060   22.0020 C   0  0  0  0  0  3  0  0  0  0  0  0
  -22.7020   -8.3690   21.2460 C   0  0  0  0  0  0  0  0  0  0  0  0
  -22.3070   -9.3100   20.2790 C   0  0  0  0  0  3  0  0  0  0  0  0
  -23.0530  -10.4820   20.0740 C   0  0  0  0  0  3  0  0  0  0  0  0
  -21.9290   -7.2380   21.3580 O   0  0  0  0  0  0  0  0  0  0  0  0
  -21.8360   -6.5420   22.5370 C   0  0  0  0  0  0  0  0  0  0  0  0
  -21.3830   -7.1520   23.7270 C   0  0  0  0  0  3  0  0  0  0  0  0
  -21.2350   -6.3860   24.9010 C   0  0  0  0  0  3  0  0  0  0  0  0
  -21.5300   -5.0100   24.8850 C   0  0  0  0  0  0  0  0  0  0  0  0
  -21.9750   -4.4000   23.7000 C   0  0  0  0  0  3  0  0  0  0  0  0
  -22.1240   -5.1620   22.5280 C   0  0  0  0  0  0  0  0  0  0  0  0
  -22.5340   -4.5630   21.3850 F   0  0  0  0  0  0  0  0  0  0  0  0
  -21.3810   -4.2720   26.0100 F   0  0  0  0  0  0  0  0  0  0  0  0
  -23.1350  -13.8500   20.9430 C   0  0  0  0  0  0  0  0  0  0  0  0
  -22.4120  -13.1850   21.8390 N   0  0  0  0  0  0  0  0  0  0  0  0
  -22.7020  -14.8710   20.4110 O   0  0  0  0  0  0  0  0  0  0  0  0
  -22.7690  -12.3550   22.2910 H   0  0  0  0  0  0  0  0  0  0  0  0
  -21.4870  -13.5140   22.0760 H   0  0  0  0  0  0  0  0  0  0  0  0
  -25.7840  -15.4620   20.0540 N   0  0  0  0  0  0  0  0  0  0  0  0
  -25.0500  -16.1500   20.1820 H   0  0  0  0  0  0  0  0  0  0  0  0
  -26.6530  -15.8660   19.7330 H   0  0  0  0  0  0  0  0  0  0  0  0
  1  3  1  0
  1  5  1  0
  2  4  1  0
  3  6  1  0
  5  2  1  0
  6  7  1  1
  6  4  1  0
  8  5  1  0
  9  8  1  0
 10  9  1  0
 11 22  2  0
 12 10  1  0
 12 17  1  0
 13 21  1  0
 13 23  1  0
 14 20  1  0
 14 16  1  0
 15 21  1  0
 16 15  1  0
 17 16  2  0
 18 19  1  0
 18 12  2  0
 19 14  2  0
 20 13  1  0
 21 11  1  0
 23 25  2  0
 24 23  1  0
 26 24  1  0
 27 36  2  0
 27 32  1  0
 28 24  1  0
 28 32  1  0
 29 28  1  0
 30 31  1  0
 30 29  1  0
 31 27  1  0
 32 33  2  0
 33 34  1  0
 35 34  2  0
 36 35  1  0
 37 11  1  0
 37 42  1  0
 37 38  1  0
 38 41  1  1
 38 39  1  0
 40 38  1  0
 42 45  1  0
 43 47  1  0
 43 42  1  0
 44 43  2  0
 47 46  1  0
 49 47  1  0
 49 50  1  0
 49 48  1  0
 51  6  1  0
 52 51  1  0
 53 65  1  0
 54 59  1  0
 55 56  1  0
 55 54  1  0
 57 56  1  0
 57 69  1  0
 57 58  1  0
 59 53  1  0
 59 58  1  0
 60 53  2  0
 61 63  1  0
 61 62  1  0
 62 64  1  0
 63 65  1  0
 64 52  1  0
 65 64  1  0
 66 67  2  0
 67 86  1  0
 68 67  1  0
 68 71  1  0
 69 66  1  0
 69 70  1  0
 70 68  2  0
 71 72  1  0
 72 73  2  0
 74 77  1  0
 74 73  1  0
 75 74  2  0
 76 75  1  0
 76 71  2  0
 77 78  1  0
 78 79  1  0
 79 80  2  0
 81 80  1  0
 81 85  1  0
 82 81  2  0
 83 78  2  0
 83 82  1  0
 84 83  1  0
 86 87  1  0
 87 90  1  0
 87 89  1  0
 88 86  2  0
 91 92  1  0
 91 66  1  0
 93 91  1  0
M  ISO  4   9 101  10 101  53 100  65 100
M  END
>  <TORSDO>  (10) 
F 20

>  <SCORE>  (10) 
-13.341

>  <name>  (10) 
9

>  <ligand_id>  (10) 
9

>  <original_smiles>  (10) 
[H]c1c([H])c([H])c2c(c1[H])C([H])([H])C([H])([H])C([H])([H])C2([H])N([H])C(=O)C1([H])N(C(=O)C([H])(N([H])C(=O)C([H])(N([H])C([H])([H])[H])C([H])([H])[H])C(C([H])([H])[H])(C([H])([H])[H])C([H])([H])[H])C([H])([H])c2c([H])c(OC([H])([H])C([H])([H])N3C([H])([H])C([H])([H])[N+]([H])(C([H])([H])C([H])([H])C4([H])N(C(=O)N5C([H])([H])C([H])([H])C([H])([H])C([H])(n6nc(-c7c([H])c([H])c(Oc8c([H])c([H])c(F)c([H])c8F)c([H])c7[H])c(C(=O)N([H])[H])c6N([H])[H])C5([H])[H])C([H])([H])C([H])([H])C4([H])[H])C([H])([H])C3([H])[H])c([H])c([H])c2C1([H])[H]

>  <smiles>  (10) 
[H]c1c([H])c([H])c2c(c1[H])C([H])([H])C([H])([H])C([H])([H])C2([H])N([H])C(=O)C1([H])N(C(=O)C([H])(N([H])C(=O)C([H])(N([H])C([H])([H])[H])C([H])([H])[H])C(C([H])([H])[H])(C([H])([H])[H])C([H])([H])[H])C([H])([H])c2c([H])c(OC([H])([H])C([H])([H])N3C([H])([H])C([H])([H])[N+]([H])(C([H])([H])C([H])([H])C4([H])N(C(=O)N5C([H])([H])C([H])([H])C([H])([H])C([H])(n6nc(-c7c([H])c([H])c(Oc8c([H])c([H])c(F)c([H])c8F)c([H])c7[H])c(C(=O)N([H])[H])c6N([H])[H])C5([H])[H])C([H])([H])C([H])([H])C4([H])[H])C([H])([H])C3([H])[H])c([H])c([H])c2C1([H])[H]

$$$$
10:0:0
     RDKit          3D

101111  0  0  1  0  0  0  0  0999 V2000
  -29.0900  -21.4910   21.4500 C   0  0  0  0  0  2  0  0  0  0  0  0
  -29.3570  -21.4960   19.1210 C   0  0  0  0  0  2  0  0  0  0  0  0
  -31.1530  -22.8080   19.7950 C   0  0  0  0  0  2  0  0  0  0  0  0
  -30.4760  -20.8540   21.1880 C   0  0  0  0  0  3  0  0  0  0  0  0
  -30.7420  -21.3160   19.7340 C   0  0  0  0  0  3  0  0  0  0  0  0
  -28.8900  -22.4350   20.2310 C   0  0  0  0  0  3  0  0  0  0  0  0
  -29.9260  -23.5160   20.2740 N   0  0  2  0  0  4  0  0  0  0  0  0
  -30.0530  -23.7270   21.2540 H   0  0  0  0  0  0  0  0  0  0  0  0
  -31.2000  -17.6890   23.3090 C   0  0  0  0  0  3  0  0  0  0  0  0
  -31.0530  -16.6500   22.3800 C   0  0  0  0  0  3  0  0  0  0  0  0
  -30.4950  -18.2930   20.6550 C   0  0  0  0  0  3  0  0  0  0  0  0
  -30.9790  -19.0290   22.9390 C   0  0  0  0  0  0  0  0  0  0  0  0
  -30.6530  -19.3640   21.5880 C   0  0  0  0  0  0  0  0  0  0  0  0
  -30.6850  -16.9380   21.0530 C   0  0  0  0  0  0  0  0  0  0  0  0
  -31.0970  -14.7890   19.8680 C   0  0  0  0  0  0  0  0  0  0  0  0
  -30.7490  -12.5750   18.8130 C   0  0  0  0  0  2  0  0  0  0  0  0
  -29.7300  -12.7220   17.6640 C   0  0  0  0  0  2  0  0  0  0  0  0
  -28.2820  -12.6150   18.1900 C   0  0  0  0  0  2  0  0  0  0  0  0
  -28.0260  -13.5060   19.4340 C   0  0  0  0  0  3  0  0  0  0  0  0
  -29.1480  -13.3210   20.4800 C   0  0  0  0  0  2  0  0  0  0  0  0
  -30.4270  -13.6060   19.8100 N   0  0  0  0  0  0  0  0  0  0  0  0
  -32.2280  -14.9500   19.3970 O   0  0  0  0  0  0  0  0  0  0  0  0
  -30.3270  -15.8380   20.2220 N   0  0  0  0  0  0  0  0  0  0  0  0
  -29.3560  -15.5770   20.3050 H   0  0  0  0  0  0  0  0  0  0  0  0
  -25.7290  -14.1860   20.3750 C   0  0  0  0  0  0  0  0  0  0  0  0
  -24.6530  -13.4460   20.7840 C   0  0  0  0  0  0  0  0  0  0  0  0
  -25.0340  -12.0780   20.6340 C   0  0  0  0  0  0  0  0  0  0  0  0
  -26.7020  -13.2700   20.0060 N   0  0  0  0  0  0  0  0  0  0  0  0
  -26.2910  -11.9930   20.2180 N   0  0  0  0  0  0  0  0  0  0  0  0
  -24.2580  -10.8450   20.8090 C   0  0  0  0  0  0  0  0  0  0  0  0
  -24.6690   -9.8320   21.7040 C   0  0  0  0  0  3  0  0  0  0  0  0
  -23.8950   -8.6640   21.8670 C   0  0  0  0  0  3  0  0  0  0  0  0
  -22.6940   -8.5000   21.1370 C   0  0  0  0  0  0  0  0  0  0  0  0
  -22.2990   -9.5000   20.2320 C   0  0  0  0  0  3  0  0  0  0  0  0
  -23.0750  -10.6600   20.0650 C   0  0  0  0  0  3  0  0  0  0  0  0
  -21.8920   -7.3860   21.2120 O   0  0  0  0  0  0  0  0  0  0  0  0
  -21.7870   -6.6510   22.3660 C   0  0  0  0  0  0  0  0  0  0  0  0
  -21.3510   -7.2270   23.5790 C   0  0  0  0  0  3  0  0  0  0  0  0
  -21.1890   -6.4210   24.7230 C   0  0  0  0  0  3  0  0  0  0  0  0
  -21.4530   -5.0410   24.6560 C   0  0  0  0  0  0  0  0  0  0  0  0
  -21.8830   -4.4640   23.4480 C   0  0  0  0  0  3  0  0  0  0  0  0
  -22.0470   -5.2670   22.3060 C   0  0  0  0  0  0  0  0  0  0  0  0
  -22.4390   -4.7030   21.1380 F   0  0  0  0  0  0  0  0  0  0  0  0
  -21.2900   -4.2640   25.7530 F   0  0  0  0  0  0  0  0  0  0  0  0
  -23.3090  -13.9760   21.1960 C   0  0  0  0  0  0  0  0  0  0  0  0
  -22.6200  -13.2750   22.0900 N   0  0  0  0  0  0  0  0  0  0  0  0
  -22.8820  -15.0450   20.7610 O   0  0  0  0  0  0  0  0  0  0  0  0
  -22.9800  -12.4090   22.4640 H   0  0  0  0  0  0  0  0  0  0  0  0
  -21.7230  -13.6110   22.4070 H   0  0  0  0  0  0  0  0  0  0  0  0
  -25.9500  -15.5550   20.2680 N   0  0  0  0  0  0  0  0  0  0  0  0
  -25.2240  -16.2290   20.4850 H   0  0  0  0  0  0  0  0  0  0  0  0
  -26.7830  -15.9830   19.8820 H   0  0  0  0  0  0  0  0  0  0  0  0
  -31.0800  -20.0580   24.0260 C   0  0  0  0  0  0  0  0  0  0  0  0
  -32.2380  -20.6920   24.1000 N   0  0  0  0  0  0  0  0  0  0  0  0
  -30.1460  -20.2800   24.7940 O   0  0  0  0  0  0  0  0  0  0  0  0
  -32.9750  -20.4650   23.4500 H   0  0  0  0  0  0  0  0  0  0  0  0
  -32.3980  -21.3870   24.8160 H   0  0  0  0  0  0  0  0  0  0  0  0
  -30.8760  -25.7780   19.8200 C   0  0  0  0  0  1  0  0  0  0  0  0
  -29.6660  -24.8380   19.5870 C   0  0  0  0  0  3  0  0  0  0  0  0
  -28.3560  -25.5760   20.0200 C   0  0  0  0  0  2  0  0  0  0  0  0
  -28.3400  -26.9490   19.5590 O   0  0  0  0  0  0  0  0  0  0  0  0
  -24.5850  -31.8520   23.1410 C   0  0  0  0  0  0  0  0  0  0  0  0
  -27.1480  -27.6410   19.6810 C   0  0  0  0  0  0  0  0  0  0  0  0
  -23.3170  -30.5040   21.4990 C   0  0  0  0  0  3  0  0  0  0  0  0
  -24.7200  -29.0870   19.9080 C   0  0  0  0  0  0  0  0  0  0  0  0
  -25.8160  -30.9470   21.1680 C   0  0  0  0  0  2  0  0  0  0  0  0
  -25.8990  -29.6120   20.4510 C   0  0  0  0  0  0  0  0  0  0  0  0
  -27.1160  -28.9000   20.3290 C   0  0  0  0  0  3  0  0  0  0  0  0
  -25.9510  -27.1350   19.1300 C   0  0  0  0  0  3  0  0  0  0  0  0
  -24.7430  -27.8490   19.2430 C   0  0  0  0  0  3  0  0  0  0  0  0
  -23.4600  -29.9070   20.0740 C   0  0  0  0  0  2  0  0  0  0  0  0
  -24.5940  -31.1140   21.9950 N   0  0  0  0  0  0  0  0  0  0  0  0
  -23.5330  -32.0610   23.7610 O   0  0  0  0  0  0  0  0  0  0  0  0
  -22.7550  -29.4140   22.4410 C   0  0  0  0  0  0  0  0  0  0  0  0
  -21.4480  -29.1300   22.3150 N   0  0  0  0  0  0  0  0  0  0  0  0
  -23.4900  -28.8270   23.2380 O   0  0  0  0  0  0  0  0  0  0  0  0
  -20.9120  -29.6560   21.6400 H   0  0  0  0  0  0  0  0  0  0  0  0
  -18.2190  -27.5530   22.6900 C   0  0  0  0  0  0  0  0  0  0  0  0
  -20.7130  -28.1160   23.0700 C   0  0  0  0  0  3  0  0  0  0  0  0
  -21.0110  -26.6980   22.5270 C   0  0  0  0  0  2  0  0  0  0  0  0
  -20.0020  -26.2340   21.4720 C   0  0  0  0  0  2  0  0  0  0  0  0
  -18.5840  -26.2240   22.0500 C   0  0  0  0  0  2  0  0  0  0  0  0
  -19.2190  -28.4480   23.1540 C   0  0  0  0  0  0  0  0  0  0  0  0
  -18.8260  -29.6850   23.7090 C   0  0  0  0  0  3  0  0  0  0  0  0
  -17.4650  -30.0310   23.8070 C   0  0  0  0  0  3  0  0  0  0  0  0
  -16.4790  -29.1340   23.3590 C   0  0  0  0  0  3  0  0  0  0  0  0
  -16.8560  -27.8970   22.8060 C   0  0  0  0  0  3  0  0  0  0  0  0
  -25.8900  -32.4870   23.7150 C   0  0  0  0  0  3  0  0  0  0  0  0
  -26.4720  -31.7010   24.9540 C   0  0  1  0  0  0  0  0  0  0  0  0
  -25.4280  -31.4310   26.0620 C   0  0  0  0  0  1  0  0  0  0  0  0
  -27.0570  -30.3400   24.5100 C   0  0  0  0  0  1  0  0  0  0  0  0
  -27.6380  -32.5000   25.5820 C   0  0  0  0  0  1  0  0  0  0  0  0
  -25.5830  -33.8760   24.0800 N   0  0  0  0  0  0  0  0  0  0  0  0
  -25.9280  -34.9470   23.3540 C   0  0  0  0  0  0  0  0  0  0  0  0
  -26.6110  -34.8690   22.3280 O   0  0  0  0  0  0  0  0  0  0  0  0
  -24.9780  -34.0100   24.8770 H   0  0  0  0  0  0  0  0  0  0  0  0
  -24.2150  -36.7550   23.0190 C   0  0  0  0  0  1  0  0  0  0  0  0
  -25.4390  -36.3230   23.8410 C   0  0  0  0  0  3  0  0  0  0  0  0
  -27.5670  -37.1650   24.7290 C   0  0  0  0  0  1  0  0  0  0  0  0
  -26.4780  -37.3750   23.7790 N   0  0  0  0  0  0  0  0  0  0  0  0
  -26.0750  -38.2900   23.9560 H   0  0  0  0  0  0  0  0  0  0  0  0
  3  7  1  0
  4  1  1  0
  4 13  1  0
  5  2  1  0
  5  3  1  0
  5  4  1  0
  6  2  1  0
  6  7  1  0
  6  1  1  0
  7  8  1  1
 10  9  2  0
 11 14  2  0
 11 13  1  0
 12  9  1  0
 12 53  1  0
 13 12  2  0
 14 10  1  0
 15 23  1  0
 16 21  1  0
 17 18  1  0
 17 16  1  0
 19 18  1  0
 19 28  1  0
 19 20  1  0
 21 15  1  0
 21 20  1  0
 22 15  2  0
 23 24  1  0
 23 14  1  0
 25 26  2  0
 26 45  1  0
 27 26  1  0
 27 30  1  0
 28 29  1  0
 28 25  1  0
 29 27  2  0
 30 31  1  0
 31 32  2  0
 33 36  1  0
 33 32  1  0
 34 33  2  0
 35 34  1  0
 35 30  2  0
 36 37  1  0
 37 38  1  0
 38 39  2  0
 40 39  1  0
 40 44  1  0
 41 40  2  0
 42 37  2  0
 42 41  1  0
 43 42  1  0
 45 46  1  0
 46 49  1  0
 46 48  1  0
 47 45  2  0
 50 25  1  0
 50 51  1  0
 52 50  1  0
 53 54  1  0
 53 55  2  0
 54 57  1  0
 56 54  1  0
 59 58  1  0
 59 60  1  0
 59  7  1  0
 61 63  1  0
 61 60  1  0
 62 73  2  0
 63 68  1  0
 64 72  1  0
 64 74  1  0
 65 71  1  0
 65 67  1  0
 66 72  1  0
 67 66  1  0
 68 67  2  0
 69 70  1  0
 69 63  2  0
 70 65  2  0
 71 64  1  0
 72 62  1  0
 74 76  2  0
 75 74  1  0
 77 75  1  0
 78 87  2  0
 78 83  1  0
 79 75  1  0
 79 83  1  0
 80 79  1  0
 81 82  1  0
 81 80  1  0
 82 78  1  0
 83 84  2  0
 84 85  1  0
 86 85  2  0
 87 86  1  0
 88 62  1  0
 88 93  1  0
 88 89  1  0
 89 92  1  1
 89 90  1  0
 91 89  1  0
 93 96  1  0
 94 98  1  0
 94 93  1  0
 95 94  2  0
 98 97  1  0
100 98  1  0
100101  1  0
100 99  1  0
M  ISO  4  15 100  23 100  60 101  61 101
M  END
>  <TORSDO>  (11) 
F 20

>  <SCORE>  (11) 
-12.507

>  <name>  (11) 
10

>  <ligand_id>  (11) 
10

>  <original_smiles>  (11) 
[H]c1c([H])c([H])c2c(c1[H])C([H])([H])C([H])([H])C([H])([H])C2([H])N([H])C(=O)C1([H])N(C(=O)C([H])(N([H])C(=O)C([H])(N([H])C([H])([H])[H])C([H])([H])[H])C(C([H])([H])[H])(C([H])([H])[H])C([H])([H])[H])C([H])([H])c2c([H])c(OC([H])([H])C([H])(C([H])([H])[H])[N+]3([H])C([H])([H])C4([H])C([H])([H])C3([H])C([H])([H])C4([H])c3c([H])c(N([H])C(=O)N4C([H])([H])C([H])([H])C([H])([H])C([H])(n5nc(-c6c([H])c([H])c(Oc7c([H])c([H])c(F)c([H])c7F)c([H])c6[H])c(C(=O)N([H])[H])c5N([H])[H])C4([H])[H])c([H])c([H])c3C(=O)N([H])[H])c([H])c([H])c2C1([H])[H]

>  <smiles>  (11) 
[H]c1c([H])c([H])c2c(c1[H])C([H])([H])C([H])([H])C([H])([H])C2([H])N([H])C(=O)C1([H])N(C(=O)C([H])(N([H])C(=O)C([H])(N([H])C([H])([H])[H])C([H])([H])[H])C(C([H])([H])[H])(C([H])([H])[H])C([H])([H])[H])C([H])([H])c2c([H])c(OC([H])([H])C([H])(C([H])([H])[H])[N+]3([H])C([H])([H])C4([H])C([H])([H])C3([H])C([H])([H])C4([H])c3c([H])c(N([H])C(=O)N4C([H])([H])C([H])([H])C([H])([H])C([H])(n5nc(-c6c([H])c([H])c(Oc7c([H])c([H])c(F)c([H])c7F)c([H])c6[H])c(C(=O)N([H])[H])c5N([H])[H])C4([H])[H])c([H])c([H])c3C(=O)N([H])[H])c([H])c([H])c2C1([H])[H]

$$$$
12:0:0
     RDKit          3D

 92101  0  0  1  0  0  0  0  0999 V2000
  -28.7430  -17.7220   20.0170 C   0  0  0  0  0  0  0  0  0  0  0  0
  -29.5720  -18.2320   22.3220 C   0  0  0  0  0  2  0  0  0  0  0  0
  -31.0080  -17.8440   21.8640 C   0  0  0  0  0  2  0  0  0  0  0  0
  -30.1070  -17.1590   19.5970 C   0  0  0  0  0  3  0  0  0  0  0  0
  -28.9670  -18.8750   21.0430 C   0  0  0  0  0  3  0  0  0  0  0  0
  -30.9730  -18.2640   20.3720 C   0  0  0  0  0  3  0  0  0  0  0  0
  -30.1670  -19.5490   20.5300 N   0  0  1  0  0  4  0  0  0  0  0  0
  -27.6510  -17.2640   19.6670 O   0  0  0  0  0  0  0  0  0  0  0  0
  -30.5830  -19.9740   21.3420 H   0  0  0  0  0  0  0  0  0  0  0  0
  -30.8170  -14.6000   19.3520 C   0  0  0  0  0  0  0  0  0  0  0  0
  -30.4130  -12.3420   18.3490 C   0  0  0  0  0  2  0  0  0  0  0  0
  -29.2830  -12.4260   17.2960 C   0  0  0  0  0  2  0  0  0  0  0  0
  -27.9060  -12.2530   17.9600 C   0  0  0  0  0  2  0  0  0  0  0  0
  -27.7450  -13.1500   19.2140 C   0  0  0  0  0  3  0  0  0  0  0  0
  -28.9670  -13.0510   20.1580 C   0  0  0  0  0  2  0  0  0  0  0  0
  -30.1750  -13.3810   19.3840 N   0  0  0  0  0  0  0  0  0  0  0  0
  -31.8410  -14.7500   18.6800 O   0  0  0  0  0  0  0  0  0  0  0  0
  -30.2200  -15.6730   19.9810 N   0  0  0  0  0  0  0  0  0  0  0  0
  -29.4910  -15.3740   20.6080 H   0  0  0  0  0  0  0  0  0  0  0  0
  -25.5630  -13.7770   20.4110 C   0  0  0  0  0  0  0  0  0  0  0  0
  -24.5310  -13.0160   20.8960 C   0  0  0  0  0  0  0  0  0  0  0  0
  -24.8960  -11.6570   20.6590 C   0  0  0  0  0  0  0  0  0  0  0  0
  -26.4910  -12.8780   19.9120 N   0  0  0  0  0  0  0  0  0  0  0  0
  -26.1080  -11.5910   20.1210 N   0  0  0  0  0  0  0  0  0  0  0  0
  -24.1380  -10.4140   20.8620 C   0  0  0  0  0  0  0  0  0  0  0  0
  -24.6170   -9.3830   21.7010 C   0  0  0  0  0  3  0  0  0  0  0  0
  -23.8590   -8.2090   21.8960 C   0  0  0  0  0  3  0  0  0  0  0  0
  -22.6070   -8.0570   21.2520 C   0  0  0  0  0  0  0  0  0  0  0  0
  -22.1460   -9.0770   20.4030 C   0  0  0  0  0  3  0  0  0  0  0  0
  -22.9040  -10.2430   20.2050 C   0  0  0  0  0  3  0  0  0  0  0  0
  -21.8130   -6.9400   21.3610 O   0  0  0  0  0  0  0  0  0  0  0  0
  -21.7750   -6.1940   22.5120 C   0  0  0  0  0  0  0  0  0  0  0  0
  -21.3920   -6.7550   23.7500 C   0  0  0  0  0  3  0  0  0  0  0  0
  -21.2970   -5.9380   24.8940 C   0  0  0  0  0  3  0  0  0  0  0  0
  -21.5770   -4.5600   24.8020 C   0  0  0  0  0  0  0  0  0  0  0  0
  -21.9550   -4.0000   23.5680 C   0  0  0  0  0  3  0  0  0  0  0  0
  -22.0500   -4.8150   22.4260 C   0  0  0  0  0  0  0  0  0  0  0  0
  -22.3920   -4.2650   21.2370 F   0  0  0  0  0  0  0  0  0  0  0  0
  -21.4800   -3.7750   25.8990 F   0  0  0  0  0  0  0  0  0  0  0  0
  -23.2360  -13.5280   21.4580 C   0  0  0  0  0  0  0  0  0  0  0  0
  -22.6380  -12.7830   22.3820 N   0  0  0  0  0  0  0  0  0  0  0  0
  -22.7740  -14.6150   21.1160 O   0  0  0  0  0  0  0  0  0  0  0  0
  -23.0280  -11.8980   22.6730 H   0  0  0  0  0  0  0  0  0  0  0  0
  -21.7790  -13.1020   22.8080 H   0  0  0  0  0  0  0  0  0  0  0  0
  -25.7740  -15.1500   20.3300 N   0  0  0  0  0  0  0  0  0  0  0  0
  -25.0660  -15.8130   20.6280 H   0  0  0  0  0  0  0  0  0  0  0  0
  -26.5430  -15.5970   19.8390 H   0  0  0  0  0  0  0  0  0  0  0  0
  -30.0630  -20.7630   19.5800 C   0  0  0  0  0  3  0  0  0  0  0  0
  -29.5530  -22.1770   20.2330 C   0  0  0  0  0  3  0  0  0  0  0  0
  -29.3470  -23.5620   19.3900 C   0  0  0  0  0  3  0  0  0  0  0  0
  -28.6910  -24.8730   20.1030 C   0  0  0  0  0  3  0  0  0  0  0  0
  -28.7380  -26.2690   19.5440 O   0  0  0  0  0  0  0  0  0  0  0  0
  -24.6950  -31.2690   22.9330 C   0  0  0  0  0  0  0  0  0  0  0  0
  -27.5730  -27.0670   19.5920 C   0  0  0  0  0  0  0  0  0  0  0  0
  -23.5680  -29.9030   21.2120 C   0  0  0  0  0  3  0  0  0  0  0  0
  -25.1060  -28.5380   19.6840 C   0  0  0  0  0  0  0  0  0  0  0  0
  -26.0820  -30.3980   21.0340 C   0  0  0  0  0  2  0  0  0  0  0  0
  -26.2490  -29.0700   20.2940 C   0  0  0  0  0  0  0  0  0  0  0  0
  -27.4880  -28.3520   20.2280 C   0  0  0  0  0  3  0  0  0  0  0  0
  -26.3960  -26.5930   18.9690 C   0  0  0  0  0  3  0  0  0  0  0  0
  -25.1820  -27.3070   19.0150 C   0  0  0  0  0  3  0  0  0  0  0  0
  -23.8110  -29.3230   19.7940 C   0  0  0  0  0  2  0  0  0  0  0  0
  -24.7990  -30.5390   21.7830 N   0  0  0  0  0  0  0  0  0  0  0  0
  -23.6010  -31.4420   23.4920 O   0  0  0  0  0  0  0  0  0  0  0  0
  -22.9800  -28.7890   22.1090 C   0  0  0  0  0  0  0  0  0  0  0  0
  -21.6770  -28.5090   21.9440 N   0  0  0  0  0  0  0  0  0  0  0  0
  -23.6940  -28.1820   22.9110 O   0  0  0  0  0  0  0  0  0  0  0  0
  -21.1640  -29.0490   21.2620 H   0  0  0  0  0  0  0  0  0  0  0  0
  -18.4160  -26.9710   22.2680 C   0  0  0  0  0  0  0  0  0  0  0  0
  -20.9250  -27.4660   22.6450 C   0  0  0  0  0  3  0  0  0  0  0  0
  -21.1900  -26.0760   22.0250 C   0  0  0  0  0  2  0  0  0  0  0  0
  -20.1630  -25.6880   20.9570 C   0  0  0  0  0  2  0  0  0  0  0  0
  -18.7500  -25.6730   21.5510 C   0  0  0  0  0  2  0  0  0  0  0  0
  -19.4380  -27.8220   22.7660 C   0  0  0  0  0  0  0  0  0  0  0  0
  -19.0770  -29.0340   23.3920 C   0  0  0  0  0  3  0  0  0  0  0  0
  -17.7250  -29.3980   23.5300 C   0  0  0  0  0  3  0  0  0  0  0  0
  -16.7150  -28.5430   23.0530 C   0  0  0  0  0  3  0  0  0  0  0  0
  -17.0630  -27.3340   22.4240 C   0  0  0  0  0  3  0  0  0  0  0  0
  -25.9400  -31.9400   23.5940 C   0  0  0  0  0  3  0  0  0  0  0  0
  -26.4950  -31.1350   24.8330 C   0  0  1  0  0  0  0  0  0  0  0  0
  -25.4160  -30.7870   25.8860 C   0  0  0  0  0  1  0  0  0  0  0  0
  -27.1520  -29.8130   24.3730 C   0  0  0  0  0  1  0  0  0  0  0  0
  -27.6070  -31.9530   25.5350 C   0  0  0  0  0  1  0  0  0  0  0  0
  -25.5520  -33.2960   24.0020 N   0  0  0  0  0  0  0  0  0  0  0  0
  -25.8210  -34.4080   23.3070 C   0  0  0  0  0  0  0  0  0  0  0  0
  -26.4940  -34.4010   22.2730 O   0  0  0  0  0  0  0  0  0  0  0  0
  -24.9550  -33.3690   24.8120 H   0  0  0  0  0  0  0  0  0  0  0  0
  -23.9870  -36.1120   23.0520 C   0  0  0  0  0  1  0  0  0  0  0  0
  -25.2510  -35.7350   23.8420 C   0  0  0  0  0  3  0  0  0  0  0  0
  -27.3250  -36.7000   24.7280 C   0  0  0  0  0  1  0  0  0  0  0  0
  -26.2170  -36.8540   23.7910 N   0  0  0  0  0  0  0  0  0  0  0  0
  -25.7560  -37.7370   23.9900 H   0  0  0  0  0  0  0  0  0  0  0  0
  1  5  1  0
  3  2  1  0
  4 18  1  0
  4  1  1  0
  4  6  1  0
  5  2  1  0
  6  7  1  0
  6  3  1  0
  7  5  1  0
  7  9  1  1
  8  1  2  0
 10 16  1  0
 10 18  1  0
 11 16  1  0
 12 13  1  0
 12 11  1  0
 14 13  1  0
 14 23  1  0
 14 15  1  0
 16 15  1  0
 17 10  2  0
 18 19  1  0
 20 21  2  0
 21 40  1  0
 22 25  1  0
 22 21  1  0
 23 24  1  0
 23 20  1  0
 24 22  2  0
 25 26  1  0
 26 27  2  0
 28 31  1  0
 28 27  1  0
 29 28  2  0
 30 29  1  0
 30 25  2  0
 31 32  1  0
 32 33  1  0
 33 34  2  0
 35 34  1  0
 35 39  1  0
 36 35  2  0
 37 32  2  0
 37 36  1  0
 38 37  1  0
 40 41  1  0
 41 43  1  0
 41 44  1  0
 42 40  2  0
 45 20  1  0
 45 46  1  0
 47 45  1  0
 48 49  2  0
 48  7  1  0
 50 51  2  0
 50 49  1  0
 52 54  1  0
 52 51  1  0
 53 64  2  0
 54 59  1  0
 55 63  1  0
 55 65  1  0
 56 62  1  0
 56 58  1  0
 57 63  1  0
 58 57  1  0
 59 58  2  0
 60 61  1  0
 60 54  2  0
 61 56  2  0
 62 55  1  0
 63 53  1  0
 65 67  2  0
 66 65  1  0
 68 66  1  0
 69 78  2  0
 69 74  1  0
 70 66  1  0
 70 74  1  0
 71 70  1  0
 72 73  1  0
 72 71  1  0
 73 69  1  0
 74 75  2  0
 75 76  1  0
 77 76  2  0
 78 77  1  0
 79 53  1  0
 79 84  1  0
 79 80  1  0
 80 83  1  1
 80 81  1  0
 82 80  1  0
 84 87  1  0
 85 89  1  0
 85 84  1  0
 86 85  2  0
 89 88  1  0
 91 89  1  0
 91 92  1  0
 91 90  1  0
M  ISO  4  10 100  18 100  51 101  52 101
M  END
>  <TORSDO>  (12) 
F 20

>  <SCORE>  (12) 
-9.903

>  <name>  (12) 
12

>  <ligand_id>  (12) 
12

>  <original_smiles>  (12) 
[H]c1c([H])c([H])c2c(c1[H])C([H])([H])C([H])([H])C([H])([H])C2([H])N([H])C(=O)C1([H])N(C(=O)C([H])(N([H])C(=O)C([H])(N([H])C([H])([H])[H])C([H])([H])[H])C(C([H])([H])[H])(C([H])([H])[H])C([H])([H])[H])C([H])([H])c2c([H])c(OC([H])([H])C([H])([H])C([H])([H])C([H])([H])[N+]3([H])C4([H])C(=O)C([H])(N([H])C(=O)N5C([H])([H])C([H])([H])C([H])([H])C([H])(n6nc(-c7c([H])c([H])c(Oc8c([H])c([H])c(F)c([H])c8F)c([H])c7[H])c(C(=O)N([H])[H])c6N([H])[H])C5([H])[H])C3([H])C([H])([H])C4([H])[H])c([H])c([H])c2C1([H])[H]

>  <smiles>  (12) 
[H]c1c([H])c([H])c2c(c1[H])C([H])([H])C([H])([H])C([H])([H])C2([H])N([H])C(=O)C1([H])N(C(=O)C([H])(N([H])C(=O)C([H])(N([H])C([H])([H])[H])C([H])([H])[H])C(C([H])([H])[H])(C([H])([H])[H])C([H])([H])[H])C([H])([H])c2c([H])c(OC([H])([H])C([H])([H])C([H])([H])C([H])([H])[N+]3([H])C4([H])C(=O)C([H])(N([H])C(=O)N5C([H])([H])C([H])([H])C([H])([H])C([H])(n6nc(-c7c([H])c([H])c(Oc8c([H])c([H])c(F)c([H])c8F)c([H])c7[H])c(C(=O)N([H])[H])c6N([H])[H])C5([H])[H])C3([H])C([H])([H])C4([H])[H])c([H])c([H])c2C1([H])[H]

$$$$
13:0:0
     RDKit          3D

 89 98  0  0  1  0  0  0  0  0999 V2000
  -26.9900  -18.5450   20.1780 C   0  0  0  0  0  2  0  0  0  0  0  0
  -27.5300  -20.8310   18.9530 C   0  0  0  0  0  2  0  0  0  0  0  0
  -27.0390  -20.0520   20.1570 C   0  0  0  0  0  3  0  0  0  0  0  0
  -28.1950  -19.2830   20.7260 C   0  0  0  0  0  3  0  0  0  0  0  0
  -29.4320  -19.6090   19.9150 C   0  0  0  0  0  3  0  0  0  0  0  0
  -28.9870  -21.0390   19.1490 N   0  0  2  0  0  4  0  0  0  0  0  0
  -29.3980  -20.9790   18.2290 H   0  0  0  0  0  0  0  0  0  0  0  0
  -30.0170  -18.0440   19.2360 C   0  0  0  0  0  2  0  0  0  0  0  0
  -30.7730  -15.2170   19.6610 C   0  0  0  0  0  0  0  0  0  0  0  0
  -30.7380  -12.7170   18.9660 C   0  0  0  0  0  2  0  0  0  0  0  0
  -29.7540  -12.4700   17.7930 C   0  0  0  0  0  2  0  0  0  0  0  0
  -28.3240  -12.2270   18.3160 C   0  0  0  0  0  2  0  0  0  0  0  0
  -27.9440  -13.2410   19.4260 C   0  0  0  0  0  3  0  0  0  0  0  0
  -29.0540  -13.4270   20.4840 C   0  0  0  0  0  2  0  0  0  0  0  0
  -30.2460  -13.8980   19.7660 N   0  0  0  0  0  0  0  0  0  0  0  0
  -31.9530  -15.2330   19.2770 O   0  0  0  0  0  0  0  0  0  0  0  0
  -29.9890  -16.4660   19.7950 N   0  0  0  0  0  0  0  0  0  0  0  0
  -29.0900  -16.2580   20.2060 H   0  0  0  0  0  0  0  0  0  0  0  0
  -25.6700  -13.8490   20.4040 C   0  0  0  0  0  0  0  0  0  0  0  0
  -24.6140  -13.0950   20.8310 C   0  0  0  0  0  0  0  0  0  0  0  0
  -25.0200  -11.7310   20.6950 C   0  0  0  0  0  0  0  0  0  0  0  0
  -26.6530  -12.9480   20.0310 N   0  0  0  0  0  0  0  0  0  0  0  0
  -26.2780  -11.6650   20.2690 N   0  0  0  0  0  0  0  0  0  0  0  0
  -24.2590  -10.4920   20.8880 C   0  0  0  0  0  0  0  0  0  0  0  0
  -24.6840   -9.4950   21.7930 C   0  0  0  0  0  3  0  0  0  0  0  0
  -23.9210   -8.3200   21.9770 C   0  0  0  0  0  3  0  0  0  0  0  0
  -22.7170   -8.1360   21.2550 C   0  0  0  0  0  0  0  0  0  0  0  0
  -22.3110   -9.1190   20.3350 C   0  0  0  0  0  3  0  0  0  0  0  0
  -23.0750  -10.2830   20.1500 C   0  0  0  0  0  3  0  0  0  0  0  0
  -21.9220   -7.0190   21.3500 O   0  0  0  0  0  0  0  0  0  0  0  0
  -21.8340   -6.2960   22.5120 C   0  0  0  0  0  0  0  0  0  0  0  0
  -21.3670   -6.8700   23.7150 C   0  0  0  0  0  3  0  0  0  0  0  0
  -21.2300   -6.0710   24.8690 C   0  0  0  0  0  3  0  0  0  0  0  0
  -21.5480   -4.7000   24.8170 C   0  0  0  0  0  0  0  0  0  0  0  0
  -22.0100   -4.1270   23.6190 C   0  0  0  0  0  3  0  0  0  0  0  0
  -22.1480   -4.9230   22.4700 C   0  0  0  0  0  0  0  0  0  0  0  0
  -22.5730   -4.3610   21.3130 F   0  0  0  0  0  0  0  0  0  0  0  0
  -21.4080   -3.9320   25.9220 F   0  0  0  0  0  0  0  0  0  0  0  0
  -23.2690  -13.6100   21.2440 C   0  0  0  0  0  0  0  0  0  0  0  0
  -22.5880  -12.9060   22.1400 N   0  0  0  0  0  0  0  0  0  0  0  0
  -22.8360  -14.6760   20.8060 O   0  0  0  0  0  0  0  0  0  0  0  0
  -22.9520  -12.0420   22.5130 H   0  0  0  0  0  0  0  0  0  0  0  0
  -21.6870  -13.2370   22.4570 H   0  0  0  0  0  0  0  0  0  0  0  0
  -25.8710  -15.2180   20.2750 N   0  0  0  0  0  0  0  0  0  0  0  0
  -25.1220  -15.8810   20.4480 H   0  0  0  0  0  0  0  0  0  0  0  0
  -26.6890  -15.6430   19.8600 H   0  0  0  0  0  0  0  0  0  0  0  0
  -29.2140  -22.6430   19.5900 C   0  0  0  0  0  3  0  0  0  0  0  0
  -28.3020  -24.1440   19.1200 C   0  0  0  0  0  3  0  0  0  0  0  0
  -28.4470  -25.7730   19.3980 O   0  0  0  0  0  0  0  0  0  0  0  0
  -24.6600  -31.3200   22.8280 C   0  0  0  0  0  0  0  0  0  0  0  0
  -27.3930  -26.8320   19.3990 C   0  0  0  0  0  0  0  0  0  0  0  0
  -23.5120  -30.0070   21.0910 C   0  0  0  0  0  3  0  0  0  0  0  0
  -25.0160  -28.6030   19.5210 C   0  0  0  0  0  0  0  0  0  0  0  0
  -26.0630  -30.3560   20.9380 C   0  0  0  0  0  2  0  0  0  0  0  0
  -26.1880  -29.0100   20.1660 C   0  0  0  0  0  0  0  0  0  0  0  0
  -27.3700  -28.1440   20.0850 C   0  0  0  0  0  3  0  0  0  0  0  0
  -26.1830  -26.5830   18.7080 C   0  0  0  0  0  3  0  0  0  0  0  0
  -25.0360  -27.4150   18.7730 C   0  0  0  0  0  3  0  0  0  0  0  0
  -23.7540  -29.4530   19.6580 C   0  0  0  0  0  2  0  0  0  0  0  0
  -24.7660  -30.5860   21.6740 N   0  0  0  0  0  0  0  0  0  0  0  0
  -23.5660  -31.5080   23.3860 O   0  0  0  0  0  0  0  0  0  0  0  0
  -22.8870  -28.8980   21.9780 C   0  0  0  0  0  0  0  0  0  0  0  0
  -21.5610  -28.6950   21.8820 N   0  0  0  0  0  0  0  0  0  0  0  0
  -23.6020  -28.2230   22.7220 O   0  0  0  0  0  0  0  0  0  0  0  0
  -21.0290  -29.3020   21.2760 H   0  0  0  0  0  0  0  0  0  0  0  0
  -18.2440  -27.3060   22.3690 C   0  0  0  0  0  0  0  0  0  0  0  0
  -20.7990  -27.6560   22.5850 C   0  0  0  0  0  3  0  0  0  0  0  0
  -20.9360  -26.2850   21.8810 C   0  0  0  0  0  2  0  0  0  0  0  0
  -19.8170  -26.0100   20.8710 C   0  0  0  0  0  2  0  0  0  0  0  0
  -18.4510  -26.0370   21.5620 C   0  0  0  0  0  2  0  0  0  0  0  0
  -19.3440  -28.0770   22.8350 C   0  0  0  0  0  0  0  0  0  0  0  0
  -19.0900  -29.2670   23.5490 C   0  0  0  0  0  3  0  0  0  0  0  0
  -17.7700  -29.6870   23.8040 C   0  0  0  0  0  3  0  0  0  0  0  0
  -16.6860  -28.9150   23.3510 C   0  0  0  0  0  3  0  0  0  0  0  0
  -16.9240  -27.7270   22.6380 C   0  0  0  0  0  3  0  0  0  0  0  0
  -25.9060  -31.9740   23.4980 C   0  0  0  0  0  3  0  0  0  0  0  0
  -26.4790  -31.1290   24.7010 C   0  0  1  0  0  0  0  0  0  0  0  0
  -25.4180  -30.7580   25.7630 C   0  0  0  0  0  1  0  0  0  0  0  0
  -27.1210  -29.8150   24.1990 C   0  0  0  0  0  1  0  0  0  0  0  0
  -27.6020  -31.9230   25.4110 C   0  0  0  0  0  1  0  0  0  0  0  0
  -25.5190  -33.3160   23.9680 N   0  0  0  0  0  0  0  0  0  0  0  0
  -25.7980  -34.4640   23.3360 C   0  0  0  0  0  0  0  0  0  0  0  0
  -26.4720  -34.5080   22.3020 O   0  0  0  0  0  0  0  0  0  0  0  0
  -24.9250  -33.3520   24.7830 H   0  0  0  0  0  0  0  0  0  0  0  0
  -23.9810  -36.2010   23.1830 C   0  0  0  0  0  1  0  0  0  0  0  0
  -25.2440  -35.7680   23.9450 C   0  0  0  0  0  3  0  0  0  0  0  0
  -27.3280  -36.6790   24.8760 C   0  0  0  0  0  1  0  0  0  0  0  0
  -26.2200  -36.8810   23.9470 N   0  0  0  0  0  0  0  0  0  0  0  0
  -25.7610  -37.7560   24.1830 H   0  0  0  0  0  0  0  0  0  0  0  0
  2  6  1  0
  3  2  1  0
  3  1  1  0
  3  4  1  0
  4  1  1  0
  5  8  1  0
  5  4  1  0
  6 47  1  0
  6  5  1  0
  6  7  1  6
  8 17  1  0
  9 15  1  0
  9 17  1  0
 10 15  1  0
 11 12  1  0
 11 10  1  0
 13 12  1  0
 13 22  1  0
 13 14  1  0
 15 14  1  0
 16  9  2  0
 17 18  1  0
 19 20  2  0
 20 39  1  0
 21 20  1  0
 21 24  1  0
 22 23  1  0
 22 19  1  0
 23 21  2  0
 24 25  1  0
 25 26  2  0
 27 30  1  0
 27 26  1  0
 28 27  2  0
 29 28  1  0
 29 24  2  0
 30 31  1  0
 31 32  1  0
 32 33  2  0
 34 33  1  0
 34 38  1  0
 35 34  2  0
 36 31  2  0
 36 35  1  0
 37 36  1  0
 39 40  1  0
 40 43  1  0
 40 42  1  0
 41 39  2  0
 44 19  1  0
 44 45  1  0
 46 44  1  0
 48 49  1  0
 48 47  2  0
 49 51  1  0
 50 61  2  0
 51 56  1  0
 52 60  1  0
 52 62  1  0
 53 59  1  0
 53 55  1  0
 54 60  1  0
 55 54  1  0
 56 55  2  0
 57 58  1  0
 57 51  2  0
 58 53  2  0
 59 52  1  0
 60 50  1  0
 62 64  2  0
 63 62  1  0
 65 63  1  0
 66 75  2  0
 66 71  1  0
 67 63  1  0
 67 71  1  0
 68 67  1  0
 69 70  1  0
 69 68  1  0
 70 66  1  0
 71 72  2  0
 72 73  1  0
 74 73  2  0
 75 74  1  0
 76 50  1  0
 76 81  1  0
 76 77  1  0
 77 80  1  1
 77 78  1  0
 79 77  1  0
 81 84  1  0
 82 86  1  0
 82 81  1  0
 83 82  2  0
 86 85  1  0
 86 88  1  0
 88 89  1  0
 88 87  1  0
M  ISO  4   9 100  17 100  48 101  49 101
M  END
>  <TORSDO>  (13) 
F 19

>  <SCORE>  (13) 
-13.555

>  <name>  (13) 
13

>  <ligand_id>  (13) 
13

>  <original_smiles>  (13) 
[H]c1c([H])c([H])c2c(c1[H])C([H])([H])C([H])([H])C([H])([H])C2([H])N([H])C(=O)C1([H])N(C(=O)C([H])(N([H])C(=O)C([H])(N([H])C([H])([H])[H])C([H])([H])[H])C(C([H])([H])[H])(C([H])([H])[H])C([H])([H])[H])C([H])([H])c2c([H])c(OC([H])([H])C([H])([H])[N+]3([H])C([H])([H])C4([H])C([H])([H])C4([H])C3([H])C([H])([H])N([H])C(=O)N3C([H])([H])C([H])([H])C([H])([H])C([H])(n4nc(-c5c([H])c([H])c(Oc6c([H])c([H])c(F)c([H])c6F)c([H])c5[H])c(C(=O)N([H])[H])c4N([H])[H])C3([H])[H])c([H])c([H])c2C1([H])[H]

>  <smiles>  (13) 
[H]c1c([H])c([H])c2c(c1[H])C([H])([H])C([H])([H])C([H])([H])C2([H])N([H])C(=O)C1([H])N(C(=O)C([H])(N([H])C(=O)C([H])(N([H])C([H])([H])[H])C([H])([H])[H])C(C([H])([H])[H])(C([H])([H])[H])C([H])([H])[H])C([H])([H])c2c([H])c(OC([H])([H])C([H])([H])[N+]3([H])C([H])([H])C4([H])C([H])([H])C4([H])C3([H])C([H])([H])N([H])C(=O)N3C([H])([H])C([H])([H])C([H])([H])C([H])(n4nc(-c5c([H])c([H])c(Oc6c([H])c([H])c(F)c([H])c6F)c([H])c5[H])c(C(=O)N([H])[H])c4N([H])[H])C3([H])[H])c([H])c([H])c2C1([H])[H]

$$$$
14:0:0
     RDKit          3D

101111  0  0  1  0  0  0  0  0999 V2000
  -28.0240  -19.1710   21.6000 N   0  0  0  0  0  4  0  0  0  0  0  0
  -28.1620  -20.0460   22.0770 H   0  0  0  0  0  0  0  0  0  0  0  0
  -27.3910  -18.6210   22.1660 H   0  0  0  0  0  0  0  0  0  0  0  0
  -31.6470  -17.9200   22.0900 C   0  0  0  0  0  2  0  0  0  0  0  0
  -30.5800  -19.0170   22.2170 C   0  0  1  0  0  0  0  0  0  0  0  0
  -30.3190  -18.6170   20.3750 C   0  0  1  0  0  0  0  0  0  0  0  0
  -31.4440  -17.6060   20.5930 C   0  0  0  0  0  3  0  0  0  0  0  0
  -29.3160  -18.4280   21.5460 C   0  0  0  0  0  3  0  0  0  0  0  0
  -30.7010  -19.9930   21.0030 C   0  0  1  0  0  0  0  0  0  0  0  0
  -29.7580  -21.2130   20.8120 C   0  0  0  0  0  1  0  0  0  0  0  0
  -32.1000  -20.5650   20.6700 C   0  0  0  0  0  1  0  0  0  0  0  0
  -31.1070  -16.1180   20.2780 C   0  0  0  0  0  3  0  0  0  0  0  0
  -32.4550  -14.1110   20.8750 C   0  0  0  0  0  0  0  0  0  0  0  0
  -32.2090  -11.6600   20.8640 C   0  0  0  0  0  2  0  0  0  0  0  0
  -31.5590  -11.1570   19.5630 C   0  0  0  0  0  2  0  0  0  0  0  0
  -30.0240  -11.1760   19.6930 C   0  0  0  0  0  2  0  0  0  0  0  0
  -29.4810  -12.5240   20.2410 C   0  0  0  0  0  3  0  0  0  0  0  0
  -30.2720  -12.9880   21.4850 C   0  0  0  0  0  2  0  0  0  0  0  0
  -31.7040  -13.0120   21.1410 N   0  0  0  0  0  0  0  0  0  0  0  0
  -33.6210  -14.0580   20.4780 O   0  0  0  0  0  0  0  0  0  0  0  0
  -31.9250  -15.2970   21.1810 N   0  0  0  0  0  0  0  0  0  0  0  0
  -32.6360  -15.8730   21.6050 H   0  0  0  0  0  0  0  0  0  0  0  0
  -27.0980  -13.4650   20.4800 C   0  0  0  0  0  0  0  0  0  0  0  0
  -25.8960  -12.8570   20.7410 C   0  0  0  0  0  0  0  0  0  0  0  0
  -26.1830  -11.4690   20.9100 C   0  0  0  0  0  0  0  0  0  0  0  0
  -28.0460  -12.4530   20.5100 N   0  0  0  0  0  0  0  0  0  0  0  0
  -27.4900  -11.2550   20.8230 N   0  0  0  0  0  0  0  0  0  0  0  0
  -25.2860  -10.3230   21.0940 C   0  0  0  0  0  0  0  0  0  0  0  0
  -25.3050   -9.5510   22.2760 C   0  0  0  0  0  3  0  0  0  0  0  0
  -24.4210   -8.4630   22.4360 C   0  0  0  0  0  3  0  0  0  0  0  0
  -23.5010   -8.1400   21.4100 C   0  0  0  0  0  0  0  0  0  0  0  0
  -23.5000   -8.8980   20.2250 C   0  0  0  0  0  3  0  0  0  0  0  0
  -24.3850   -9.9770   20.0670 C   0  0  0  0  0  3  0  0  0  0  0  0
  -22.6220   -7.0850   21.4660 O   0  0  0  0  0  0  0  0  0  0  0  0
  -21.9900   -6.7340   22.6320 C   0  0  0  0  0  0  0  0  0  0  0  0
  -21.1520   -7.6350   23.3240 C   0  0  0  0  0  3  0  0  0  0  0  0
  -20.4710   -7.2120   24.4840 C   0  0  0  0  0  3  0  0  0  0  0  0
  -20.6150   -5.8890   24.9420 C   0  0  0  0  0  0  0  0  0  0  0  0
  -21.4410   -4.9890   24.2500 C   0  0  0  0  0  3  0  0  0  0  0  0
  -22.1250   -5.4100   23.0960 C   0  0  0  0  0  0  0  0  0  0  0  0
  -22.9070   -4.5330   22.4190 F   0  0  0  0  0  0  0  0  0  0  0  0
  -19.9540   -5.4790   26.0510 F   0  0  0  0  0  0  0  0  0  0  0  0
  -24.5450  -13.5130   20.7320 C   0  0  0  0  0  0  0  0  0  0  0  0
  -23.6160  -13.0200   21.5460 N   0  0  0  0  0  0  0  0  0  0  0  0
  -24.3200  -14.5030   20.0370 O   0  0  0  0  0  0  0  0  0  0  0  0
  -23.8020  -12.2210   22.1320 H   0  0  0  0  0  0  0  0  0  0  0  0
  -22.7030  -13.4510   21.5800 H   0  0  0  0  0  0  0  0  0  0  0  0
  -27.4570  -14.7780   20.1970 N   0  0  0  0  0  0  0  0  0  0  0  0
  -26.7430  -15.4730   20.0190 H   0  0  0  0  0  0  0  0  0  0  0  0
  -28.3690  -15.0450   19.8520 H   0  0  0  0  0  0  0  0  0  0  0  0
  -30.4290  -14.5790   18.2620 C   0  0  0  0  0  1  0  0  0  0  0  0
  -31.2950  -15.7460   18.7700 C   0  0  0  0  0  2  0  0  0  0  0  0
  -27.3410  -19.3770   20.2970 C   0  0  0  0  0  2  0  0  0  0  0  0
  -28.1140  -20.2920   19.3100 C   0  0  0  0  0  2  0  0  0  0  0  0
  -27.7240  -21.7790   19.3590 C   0  0  0  0  0  2  0  0  0  0  0  0
  -28.8940  -22.6600   19.1240 N   0  0  0  0  0  4  0  0  0  0  0  0
  -29.0680  -23.1540   19.9890 H   0  0  0  0  0  0  0  0  0  0  0  0
  -29.7150  -22.1070   18.9300 H   0  0  0  0  0  0  0  0  0  0  0  0
  -28.7510  -23.6790   18.0590 C   0  0  0  0  0  2  0  0  0  0  0  0
  -29.5880  -24.9420   18.4140 C   0  0  0  0  0  2  0  0  0  0  0  0
  -29.4150  -26.3730   18.3190 O   0  0  0  0  0  0  0  0  0  0  0  0
  -26.0080  -29.7930   23.5450 C   0  0  0  0  0  0  0  0  0  0  0  0
  -28.2450  -26.9850   18.7290 C   0  0  0  0  0  0  0  0  0  0  0  0
  -24.6240  -29.1480   21.5990 C   0  0  0  0  0  3  0  0  0  0  0  0
  -25.9010  -28.3150   19.5640 C   0  0  0  0  0  0  0  0  0  0  0  0
  -27.1310  -29.5770   21.3370 C   0  0  0  0  0  2  0  0  0  0  0  0
  -27.1200  -28.5730   20.2050 C   0  0  0  0  0  0  0  0  0  0  0  0
  -28.2950  -27.9100   19.7900 C   0  0  0  0  0  3  0  0  0  0  0  0
  -27.0140  -26.7560   18.0780 C   0  0  0  0  0  3  0  0  0  0  0  0
  -25.8420  -27.4030   18.4990 C   0  0  0  0  0  3  0  0  0  0  0  0
  -24.6930  -29.0770   20.0510 C   0  0  0  0  0  2  0  0  0  0  0  0
  -25.9440  -29.4940   22.2170 N   0  0  0  0  0  0  0  0  0  0  0  0
  -24.9840  -29.8220   24.2420 O   0  0  0  0  0  0  0  0  0  0  0  0
  -24.0290  -27.8240   22.1270 C   0  0  0  0  0  0  0  0  0  0  0  0
  -22.7290  -27.6080   21.8740 N   0  0  0  0  0  0  0  0  0  0  0  0
  -24.7370  -27.0080   22.7230 O   0  0  0  0  0  0  0  0  0  0  0  0
  -22.2130  -28.3290   21.3900 H   0  0  0  0  0  0  0  0  0  0  0  0
  -19.5010  -26.0190   21.5740 C   0  0  0  0  0  0  0  0  0  0  0  0
  -21.9660  -26.4180   22.2460 C   0  0  0  0  0  3  0  0  0  0  0  0
  -22.3020  -25.2260   21.3200 C   0  0  0  0  0  2  0  0  0  0  0  0
  -21.3590  -25.1090   20.1200 C   0  0  0  0  0  2  0  0  0  0  0  0
  -19.9120  -24.9380   20.5890 C   0  0  0  0  0  2  0  0  0  0  0  0
  -20.4660  -26.7250   22.3400 C   0  0  0  0  0  0  0  0  0  0  0  0
  -20.0330  -27.7440   23.2170 C   0  0  0  0  0  3  0  0  0  0  0  0
  -18.6660  -28.0600   23.3330 C   0  0  0  0  0  3  0  0  0  0  0  0
  -17.7130  -27.3460   22.5860 C   0  0  0  0  0  3  0  0  0  0  0  0
  -18.1310  -26.3270   21.7120 C   0  0  0  0  0  3  0  0  0  0  0  0
  -27.3620  -30.1350   24.2410 C   0  0  0  0  0  3  0  0  0  0  0  0
  -27.9430  -28.9360   25.0870 C   0  0  1  0  0  0  0  0  0  0  0  0
  -26.9240  -28.3270   26.0780 C   0  0  0  0  0  1  0  0  0  0  0  0
  -28.4380  -27.8010   24.1600 C   0  0  0  0  0  1  0  0  0  0  0  0
  -29.1730  -29.4140   25.8970 C   0  0  0  0  0  1  0  0  0  0  0  0
  -27.1360  -31.3130   25.0870 N   0  0  0  0  0  0  0  0  0  0  0  0
  -27.5410  -32.5540   24.7840 C   0  0  0  0  0  0  0  0  0  0  0  0
  -28.2150  -32.8140   23.7840 O   0  0  0  0  0  0  0  0  0  0  0  0
  -26.5440  -31.1820   25.8940 H   0  0  0  0  0  0  0  0  0  0  0  0
  -25.9650  -34.4810   25.1320 C   0  0  0  0  0  1  0  0  0  0  0  0
  -27.1310  -33.6880   25.7420 C   0  0  0  0  0  3  0  0  0  0  0  0
  -29.2770  -33.9860   26.8990 C   0  0  0  0  0  1  0  0  0  0  0  0
  -28.2420  -34.6070   26.0750 N   0  0  0  0  0  0  0  0  0  0  0  0
  -27.8960  -35.4250   26.5690 H   0  0  0  0  0  0  0  0  0  0  0  0
  1  2  1  0
  1  3  1  0
  5  4  1  1
  6  7  1  1
  6  9  1  0
  6  8  1  0
  6  5  1  0
  7 12  1  0
  7  4  1  0
  8  1  1  0
  8  5  1  0
  9  5  1  0
  9 10  1  1
 11  9  1  0
 12 52  1  0
 12 21  1  0
 13 19  1  0
 13 21  1  0
 14 19  1  0
 15 16  1  0
 15 14  1  0
 17 16  1  0
 17 26  1  0
 17 18  1  0
 19 18  1  0
 20 13  2  0
 21 22  1  0
 23 26  1  0
 23 24  2  0
 24 25  1  0
 25 28  1  0
 26 27  1  0
 27 25  2  0
 28 29  1  0
 29 30  2  0
 31 34  1  0
 31 30  1  0
 32 31  2  0
 33 32  1  0
 33 28  2  0
 34 35  1  0
 35 40  2  0
 35 36  1  0
 36 37  2  0
 37 38  1  0
 38 42  1  0
 39 38  2  0
 40 39  1  0
 41 40  1  0
 43 24  1  0
 43 44  1  0
 44 47  1  0
 44 46  1  0
 45 43  2  0
 48 23  1  0
 49 48  1  0
 50 48  1  0
 51 52  1  0
 53  1  1  0
 54 55  1  0
 54 53  1  0
 56 55  1  0
 56 57  1  0
 58 56  1  0
 59 60  1  0
 59 56  1  0
 61 60  1  0
 61 63  1  0
 62 73  2  0
 63 68  1  0
 64 74  1  0
 64 72  1  0
 65 71  1  0
 65 67  1  0
 66 72  1  0
 67 66  1  0
 68 67  2  0
 69 70  1  0
 69 63  2  0
 70 65  2  0
 71 64  1  0
 72 62  1  0
 74 76  2  0
 75 74  1  0
 77 75  1  0
 78 87  2  0
 78 83  1  0
 79 75  1  0
 79 83  1  0
 80 79  1  0
 81 82  1  0
 81 80  1  0
 82 78  1  0
 83 84  2  0
 84 85  1  0
 86 85  2  0
 87 86  1  0
 88 62  1  0
 88 89  1  0
 88 93  1  0
 89 92  1  1
 89 90  1  0
 91 89  1  0
 93 96  1  0
 94 93  1  0
 94 98  1  0
 95 94  2  0
 98 97  1  0
 98100  1  0
100101  1  0
100 99  1  0
M  ISO  4  13 100  21 100  60 101  61 101
M  END
>  <TORSDO>  (14) 
F 25

>  <SCORE>  (14) 
-5.382

>  <name>  (14) 
14

>  <ligand_id>  (14) 
14

>  <original_smiles>  (14) 
[H]c1c([H])c([H])c2c(c1[H])C([H])([H])C([H])([H])C([H])([H])C2([H])N([H])C(=O)C1([H])N(C(=O)C([H])(N([H])C(=O)C([H])(N([H])C([H])([H])[H])C([H])([H])[H])C(C([H])([H])[H])(C([H])([H])[H])C([H])([H])[H])C([H])([H])c2c([H])c(OC([H])([H])C([H])([H])[N+]([H])([H])C([H])([H])C([H])([H])C([H])([H])[N+]([H])([H])C3([H])C4([H])C([H])([H])C([H])(C([H])(N([H])C(=O)N5C([H])([H])C([H])([H])C([H])([H])C([H])(n6nc(-c7c([H])c([H])c(Oc8c([H])c([H])c(F)c([H])c8F)c([H])c7[H])c(C(=O)N([H])[H])c6N([H])[H])C5([H])[H])C([H])([H])C([H])([H])[H])C3([H])C4(C([H])([H])[H])C([H])([H])[H])c([H])c([H])c2C1([H])[H]

>  <smiles>  (14) 
[H]c1c([H])c([H])c2c(c1[H])C([H])([H])C([H])([H])C([H])([H])C2([H])N([H])C(=O)C1([H])N(C(=O)C([H])(N([H])C(=O)C([H])(N([H])C([H])([H])[H])C([H])([H])[H])C(C([H])([H])[H])(C([H])([H])[H])C([H])([H])[H])C([H])([H])c2c([H])c(OC([H])([H])C([H])([H])[N+]([H])([H])C([H])([H])C([H])([H])C([H])([H])[N+]([H])([H])C3([H])C4([H])C([H])([H])C([H])(C([H])(N([H])C(=O)N5C([H])([H])C([H])([H])C([H])([H])C([H])(n6nc(-c7c([H])c([H])c(Oc8c([H])c([H])c(F)c([H])c8F)c([H])c7[H])c(C(=O)N([H])[H])c6N([H])[H])C5([H])[H])C([H])([H])C([H])([H])[H])C3([H])C4(C([H])([H])[H])C([H])([H])[H])c([H])c([H])c2C1([H])[H]

$$$$
15:0:0
     RDKit          3D

 98108  0  0  1  0  0  0  0  0999 V2000
  -29.8940  -21.7020   19.8410 C   0  0  0  0  0  0  0  0  0  0  0  0
  -29.9040  -20.3700   19.6830 N   0  0  0  0  0  0  0  0  0  0  0  0
  -29.8800  -22.2450   20.9490 O   0  0  0  0  0  0  0  0  0  0  0  0
  -29.9430  -20.0130   18.7380 H   0  0  0  0  0  0  0  0  0  0  0  0
  -30.0260  -16.8600   22.1850 C   0  0  0  0  0  2  0  0  0  0  0  0
  -31.0280  -18.0060   22.4300 C   0  0  0  0  0  2  0  0  0  0  0  0
  -28.8540  -18.2250   20.4290 C   0  0  0  0  0  2  0  0  0  0  0  0
  -29.7300  -16.9800   20.6730 C   0  0  0  0  0  3  0  0  0  0  0  0
  -31.1490  -18.6460   21.0290 C   0  0  0  0  0  3  0  0  0  0  0  0
  -31.0650  -17.4370   20.0850 C   0  0  0  0  0  3  0  0  0  0  0  0
  -29.8130  -19.3900   20.7640 C   0  0  0  0  0  3  0  0  0  0  0  0
  -32.2380  -16.4220   20.1190 C   0  0  0  0  0  2  0  0  0  0  0  0
  -32.1420  -13.9900   19.4680 C   0  0  0  0  0  0  0  0  0  0  0  0
  -31.6230  -11.6460   18.8860 C   0  0  0  0  0  2  0  0  0  0  0  0
  -30.5810  -11.5870   17.7520 C   0  0  0  0  0  2  0  0  0  0  0  0
  -29.1470  -11.6630   18.3140 C   0  0  0  0  0  2  0  0  0  0  0  0
  -28.9640  -12.8330   19.3160 C   0  0  0  0  0  3  0  0  0  0  0  0
  -30.0950  -12.8240   20.3660 C   0  0  0  0  0  2  0  0  0  0  0  0
  -31.3910  -12.8740   19.6590 N   0  0  0  0  0  0  0  0  0  0  0  0
  -33.1150  -14.0370   18.7080 O   0  0  0  0  0  0  0  0  0  0  0  0
  -31.7410  -15.0490   20.1790 N   0  0  0  0  0  0  0  0  0  0  0  0
  -30.9680  -14.8820   20.8050 H   0  0  0  0  0  0  0  0  0  0  0  0
  -26.8330  -13.8480   20.3510 C   0  0  0  0  0  0  0  0  0  0  0  0
  -25.6790  -13.2740   20.8130 C   0  0  0  0  0  0  0  0  0  0  0  0
  -25.8450  -11.8650   20.6450 C   0  0  0  0  0  0  0  0  0  0  0  0
  -27.6430  -12.7990   19.9420 N   0  0  0  0  0  0  0  0  0  0  0  0
  -27.0550  -11.5970   20.1690 N   0  0  0  0  0  0  0  0  0  0  0  0
  -24.9010  -10.7600   20.8540 C   0  0  0  0  0  0  0  0  0  0  0  0
  -25.1870   -9.7040   21.7460 C   0  0  0  0  0  3  0  0  0  0  0  0
  -24.2550   -8.6620   21.9440 C   0  0  0  0  0  3  0  0  0  0  0  0
  -23.0210   -8.6720   21.2510 C   0  0  0  0  0  0  0  0  0  0  0  0
  -22.7520   -9.7140   20.3470 C   0  0  0  0  0  3  0  0  0  0  0  0
  -23.6830  -10.7480   20.1470 C   0  0  0  0  0  3  0  0  0  0  0  0
  -22.0680   -7.6890   21.3620 O   0  0  0  0  0  0  0  0  0  0  0  0
  -21.8690   -7.0060   22.5340 C   0  0  0  0  0  0  0  0  0  0  0  0
  -21.5130   -7.6660   23.7300 C   0  0  0  0  0  3  0  0  0  0  0  0
  -21.2510   -6.9190   24.8960 C   0  0  0  0  0  3  0  0  0  0  0  0
  -21.3360   -5.5140   24.8660 C   0  0  0  0  0  0  0  0  0  0  0  0
  -21.6850   -4.8550   23.6740 C   0  0  0  0  0  3  0  0  0  0  0  0
  -21.9480   -5.5990   22.5110 C   0  0  0  0  0  0  0  0  0  0  0  0
  -22.2640   -4.9570   21.3600 F   0  0  0  0  0  0  0  0  0  0  0  0
  -21.0770   -4.7950   25.9830 F   0  0  0  0  0  0  0  0  0  0  0  0
  -24.4520  -13.9940   21.2940 C   0  0  0  0  0  0  0  0  0  0  0  0
  -23.7240  -13.4040   22.2360 N   0  0  0  0  0  0  0  0  0  0  0  0
  -24.1570  -15.1110   20.8690 O   0  0  0  0  0  0  0  0  0  0  0  0
  -23.9770  -12.4980   22.6020 H   0  0  0  0  0  0  0  0  0  0  0  0
  -22.9020  -13.8660   22.5980 H   0  0  0  0  0  0  0  0  0  0  0  0
  -27.2500  -15.1680   20.2270 N   0  0  0  0  0  0  0  0  0  0  0  0
  -26.6500  -15.9480   20.4720 H   0  0  0  0  0  0  0  0  0  0  0  0
  -28.1260  -15.4570   19.8120 H   0  0  0  0  0  0  0  0  0  0  0  0
  -31.1670  -22.3710   17.7380 C   0  0  0  0  0  2  0  0  0  0  0  0
  -31.2220  -23.8900   17.6660 C   0  0  0  0  0  2  0  0  0  0  0  0
  -29.8940  -22.5570   18.5660 C   0  0  0  0  0  3  0  0  0  0  0  0
  -30.3470  -23.9280   18.8400 N   0  0  2  0  0  4  0  0  0  0  0  0
  -30.8820  -23.8980   19.6990 H   0  0  0  0  0  0  0  0  0  0  0  0
  -29.3450  -25.0290   18.8200 C   0  0  0  0  0  2  0  0  0  0  0  0
  -28.7190  -25.3310   20.1970 C   0  0  0  0  0  2  0  0  0  0  0  0
  -28.6150  -26.7490   20.3430 O   0  0  0  0  0  0  0  0  0  0  0  0
  -24.6340  -31.8660   23.2120 C   0  0  0  0  0  0  0  0  0  0  0  0
  -27.3910  -27.3780   20.3150 C   0  0  0  0  0  0  0  0  0  0  0  0
  -23.4730  -30.4130   21.5790 C   0  0  0  0  0  3  0  0  0  0  0  0
  -24.9700  -28.8390   20.2390 C   0  0  0  0  0  0  0  0  0  0  0  0
  -25.9960  -30.7890   21.4250 C   0  0  0  0  0  2  0  0  0  0  0  0
  -26.1070  -29.4000   20.8310 C   0  0  0  0  0  0  0  0  0  0  0  0
  -27.3180  -28.6780   20.8610 C   0  0  0  0  0  3  0  0  0  0  0  0
  -26.2360  -26.8210   19.7200 C   0  0  0  0  0  3  0  0  0  0  0  0
  -25.0300  -27.5480   19.6830 C   0  0  0  0  0  3  0  0  0  0  0  0
  -23.7190  -29.6880   20.2280 C   0  0  0  0  0  2  0  0  0  0  0  0
  -24.7170  -31.0400   22.1310 N   0  0  0  0  0  0  0  0  0  0  0  0
  -23.5380  -32.1460   23.7190 O   0  0  0  0  0  0  0  0  0  0  0  0
  -22.8070  -29.4160   22.5550 C   0  0  0  0  0  0  0  0  0  0  0  0
  -21.4910  -29.2080   22.3870 N   0  0  0  0  0  0  0  0  0  0  0  0
  -23.4720  -28.8300   23.4140 O   0  0  0  0  0  0  0  0  0  0  0  0
  -21.0170  -29.7310   21.6660 H   0  0  0  0  0  0  0  0  0  0  0  0
  -18.1240  -27.9660   22.7970 C   0  0  0  0  0  0  0  0  0  0  0  0
  -20.6640  -28.2830   23.1610 C   0  0  0  0  0  3  0  0  0  0  0  0
  -20.8160  -26.8350   22.6410 C   0  0  0  0  0  2  0  0  0  0  0  0
  -19.7630  -26.4550   21.5970 C   0  0  0  0  0  2  0  0  0  0  0  0
  -18.3520  -26.5970   22.1790 C   0  0  0  0  0  2  0  0  0  0  0  0
  -19.2120  -28.7640   23.2450 C   0  0  0  0  0  0  0  0  0  0  0  0
  -18.9500  -30.0440   23.7790 C   0  0  0  0  0  3  0  0  0  0  0  0
  -17.6330  -30.5300   23.8720 C   0  0  0  0  0  3  0  0  0  0  0  0
  -16.5580  -29.7300   23.4440 C   0  0  0  0  0  3  0  0  0  0  0  0
  -16.8040  -28.4510   22.9120 C   0  0  0  0  0  3  0  0  0  0  0  0
  -25.9020  -32.5200   23.8460 C   0  0  0  0  0  3  0  0  0  0  0  0
  -25.5710  -33.9150   24.1660 N   0  0  0  0  0  0  0  0  0  0  0  0
  -25.9050  -34.9690   23.4120 C   0  0  0  0  0  0  0  0  0  0  0  0
  -26.5970  -34.8730   22.3930 O   0  0  0  0  0  0  0  0  0  0  0  0
  -24.9600  -34.0660   24.9570 H   0  0  0  0  0  0  0  0  0  0  0  0
  -24.1630  -36.7360   23.0120 C   0  0  0  0  0  1  0  0  0  0  0  0
  -25.3890  -36.3510   23.8550 C   0  0  0  0  0  3  0  0  0  0  0  0
  -27.4910  -37.2580   24.7400 C   0  0  0  0  0  1  0  0  0  0  0  0
  -26.4110  -37.4170   23.7700 N   0  0  0  0  0  0  0  0  0  0  0  0
  -25.9890  -38.3310   23.9150 H   0  0  0  0  0  0  0  0  0  0  0  0
  -26.4220  -31.7600   25.1280 C   0  0  1  0  0  0  0  0  0  0  0  0
  -25.3140  -31.4640   26.1660 C   0  0  0  0  0  1  0  0  0  0  0  0
  -27.0750  -30.4150   24.7340 C   0  0  0  0  0  1  0  0  0  0  0  0
  -27.5220  -32.5970   25.8240 C   0  0  0  0  0  1  0  0  0  0  0  0
  1  3  2  0
  2  1  1  0
  4  2  1  0
  5  6  1  0
  7 11  1  0
  8  7  1  0
  8  5  1  0
  9  6  1  0
 10 12  1  0
 10  8  1  0
 10  9  1  0
 11  2  1  0
 11  9  1  0
 12 21  1  0
 13 19  1  0
 13 21  1  0
 14 19  1  0
 15 16  1  0
 15 14  1  0
 17 16  1  0
 17 26  1  0
 17 18  1  0
 19 18  1  0
 20 13  2  0
 21 22  1  0
 23 24  2  0
 24 43  1  0
 25 24  1  0
 25 28  1  0
 26 27  1  0
 26 23  1  0
 27 25  2  0
 28 29  1  0
 29 30  2  0
 31 34  1  0
 31 30  1  0
 32 31  2  0
 33 32  1  0
 33 28  2  0
 34 35  1  0
 35 36  1  0
 36 37  2  0
 38 37  1  0
 38 42  1  0
 39 38  2  0
 40 35  2  0
 40 39  1  0
 41 40  1  0
 43 44  1  0
 44 47  1  0
 44 46  1  0
 45 43  2  0
 48 23  1  0
 48 49  1  0
 50 48  1  0
 51 53  1  0
 52 51  1  0
 52 54  1  0
 53 54  1  0
 53  1  1  0
 54 55  1  1
 56 54  1  0
 56 57  1  0
 57 58  1  0
 59 70  2  0
 60 58  1  0
 60 65  1  0
 61 69  1  0
 61 71  1  0
 62 64  1  0
 63 69  1  0
 64 65  2  0
 64 63  1  0
 66 60  2  0
 67 66  1  0
 67 62  2  0
 68 62  1  0
 68 61  1  0
 69 59  1  0
 71 73  2  0
 72 71  1  0
 74 72  1  0
 75 84  2  0
 75 80  1  0
 76 72  1  0
 76 80  1  0
 77 76  1  0
 78 79  1  0
 78 77  1  0
 79 75  1  0
 80 81  2  0
 81 82  1  0
 83 82  2  0
 84 83  1  0
 85 59  1  0
 85 86  1  0
 85 95  1  0
 86 89  1  0
 87 91  1  0
 87 86  1  0
 88 87  2  0
 91 90  1  0
 93 91  1  0
 93 94  1  0
 93 92  1  0
 95 98  1  1
 95 96  1  0
 97 95  1  0
M  ISO  4  13 100  21 100  57 101  58 101
M  END
>  <TORSDO>  (15) 
F 21

>  <SCORE>  (15) 
-12.043

>  <name>  (15) 
15

>  <ligand_id>  (15) 
15

>  <original_smiles>  (15) 
[H]c1c([H])c([H])c2c(c1[H])C([H])([H])C([H])([H])C([H])([H])C2([H])N([H])C(=O)C1([H])N(C(=O)C([H])(N([H])C(=O)C([H])(N([H])C([H])([H])[H])C([H])([H])[H])C(C([H])([H])[H])(C([H])([H])[H])C([H])([H])[H])C([H])([H])c2c([H])c(OC([H])([H])C([H])([H])[N+]3([H])C([H])([H])C([H])([H])C3([H])C(=O)N([H])C3([H])C([H])([H])C4([H])C([H])([H])C([H])([H])C3([H])C4([H])C([H])([H])N([H])C(=O)N3C([H])([H])C([H])([H])C([H])([H])C([H])(n4nc(-c5c([H])c([H])c(Oc6c([H])c([H])c(F)c([H])c6F)c([H])c5[H])c(C(=O)N([H])[H])c4N([H])[H])C3([H])[H])c([H])c([H])c2C1([H])[H]

>  <smiles>  (15) 
[H]c1c([H])c([H])c2c(c1[H])C([H])([H])C([H])([H])C([H])([H])C2([H])N([H])C(=O)C1([H])N(C(=O)C([H])(N([H])C(=O)C([H])(N([H])C([H])([H])[H])C([H])([H])[H])C(C([H])([H])[H])(C([H])([H])[H])C([H])([H])[H])C([H])([H])c2c([H])c(OC([H])([H])C([H])([H])[N+]3([H])C([H])([H])C([H])([H])C3([H])C(=O)N([H])C3([H])C([H])([H])C4([H])C([H])([H])C([H])([H])C3([H])C4([H])C([H])([H])N([H])C(=O)N3C([H])([H])C([H])([H])C([H])([H])C([H])(n4nc(-c5c([H])c([H])c(Oc6c([H])c([H])c(F)c([H])c6F)c([H])c5[H])c(C(=O)N([H])[H])c4N([H])[H])C3([H])[H])c([H])c([H])c2C1([H])[H]

$$$$
16:0:0
     RDKit          3D

 93101  0  0  1  0  0  0  0  0999 V2000
  -28.9700  -22.7810   20.2640 C   0  0  0  0  0  3  0  0  0  0  0  0
  -26.8570  -19.2460   18.2510 C   0  0  0  0  0  3  0  0  0  0  0  0
  -26.5430  -20.5940   18.2300 C   0  0  0  0  0  3  0  0  0  0  0  0
  -27.9680  -18.8060   18.9710 C   0  0  0  0  0  3  0  0  0  0  0  0
  -27.3410  -21.4990   18.9270 C   0  0  0  0  0  3  0  0  0  0  0  0
  -28.8500  -19.6180   19.7360 C   0  0  0  0  0  0  0  0  0  0  0  0
  -28.4940  -21.1880   19.7060 C   0  0  0  0  0  0  0  0  0  0  0  0
  -29.9590  -18.4090   20.3230 C   0  0  0  0  0  2  0  0  0  0  0  0
  -30.5600  -15.4620   20.2320 C   0  0  0  0  0  0  0  0  0  0  0  0
  -30.5540  -13.0050   19.3690 C   0  0  0  0  0  2  0  0  0  0  0  0
  -29.6400  -12.7710   18.1390 C   0  0  0  0  0  2  0  0  0  0  0  0
  -28.1930  -12.4940   18.5820 C   0  0  0  0  0  2  0  0  0  0  0  0
  -27.7270  -13.4730   19.6870 C   0  0  0  0  0  3  0  0  0  0  0  0
  -28.7700  -13.6460   20.8140 C   0  0  0  0  0  2  0  0  0  0  0  0
  -29.9980  -14.1520   20.1790 N   0  0  0  0  0  0  0  0  0  0  0  0
  -31.7820  -15.4620   20.0240 O   0  0  0  0  0  0  0  0  0  0  0  0
  -29.7830  -16.7260   20.3270 N   0  0  0  0  0  0  0  0  0  0  0  0
  -28.8130  -16.4890   20.4670 H   0  0  0  0  0  0  0  0  0  0  0  0
  -25.3480  -14.0250   20.4160 C   0  0  0  0  0  0  0  0  0  0  0  0
  -24.2870  -13.2450   20.7840 C   0  0  0  0  0  0  0  0  0  0  0  0
  -24.7620  -11.8970   20.7710 C   0  0  0  0  0  0  0  0  0  0  0  0
  -26.3990  -13.1540   20.1940 N   0  0  0  0  0  0  0  0  0  0  0  0
  -26.0590  -11.8700   20.4750 N   0  0  0  0  0  0  0  0  0  0  0  0
  -24.0410  -10.6320   20.9650 C   0  0  0  0  0  0  0  0  0  0  0  0
  -24.4630   -9.6810   21.9200 C   0  0  0  0  0  3  0  0  0  0  0  0
  -23.7390   -8.4830   22.1040 C   0  0  0  0  0  3  0  0  0  0  0  0
  -22.5810   -8.2280   21.3350 C   0  0  0  0  0  0  0  0  0  0  0  0
  -22.1790   -9.1650   20.3680 C   0  0  0  0  0  3  0  0  0  0  0  0
  -22.9040  -10.3550   20.1820 C   0  0  0  0  0  3  0  0  0  0  0  0
  -21.8300   -7.0800   21.4270 O   0  0  0  0  0  0  0  0  0  0  0  0
  -21.7510   -6.3630   22.5930 C   0  0  0  0  0  0  0  0  0  0  0  0
  -21.2640   -6.9340   23.7890 C   0  0  0  0  0  3  0  0  0  0  0  0
  -21.1390   -6.1410   24.9460 C   0  0  0  0  0  3  0  0  0  0  0  0
  -21.4880   -4.7780   24.9090 C   0  0  0  0  0  0  0  0  0  0  0  0
  -21.9690   -4.2060   23.7180 C   0  0  0  0  0  3  0  0  0  0  0  0
  -22.0970   -4.9970   22.5620 C   0  0  0  0  0  0  0  0  0  0  0  0
  -22.5380   -4.4350   21.4090 F   0  0  0  0  0  0  0  0  0  0  0  0
  -21.3590   -4.0140   26.0200 F   0  0  0  0  0  0  0  0  0  0  0  0
  -22.8830  -13.7140   21.0300 C   0  0  0  0  0  0  0  0  0  0  0  0
  -22.1530  -13.0240   21.8980 N   0  0  0  0  0  0  0  0  0  0  0  0
  -22.4450  -14.7270   20.4870 O   0  0  0  0  0  0  0  0  0  0  0  0
  -22.5210  -12.2020   22.3530 H   0  0  0  0  0  0  0  0  0  0  0  0
  -21.2100  -13.3170   22.1110 H   0  0  0  0  0  0  0  0  0  0  0  0
  -25.5050  -15.3950   20.2220 N   0  0  0  0  0  0  0  0  0  0  0  0
  -24.7360  -16.0490   20.3270 H   0  0  0  0  0  0  0  0  0  0  0  0
  -26.3440  -15.8280   19.8650 H   0  0  0  0  0  0  0  0  0  0  0  0
  -29.3110  -22.6700   21.7550 C   0  0  0  0  0  0  0  0  0  0  0  0
  -28.5790  -21.8520   22.5060 N   0  0  0  0  0  0  0  0  0  0  0  0
  -30.2270  -23.3280   22.2480 O   0  0  0  0  0  0  0  0  0  0  0  0
  -27.8500  -21.3050   22.0670 H   0  0  0  0  0  0  0  0  0  0  0  0
  -28.7430  -21.7720   23.5000 H   0  0  0  0  0  0  0  0  0  0  0  0
  -28.0620  -24.3630   20.0580 C   0  0  0  0  0  2  0  0  0  0  0  0
  -28.2820  -25.9840   20.3160 O   0  0  0  0  0  0  0  0  0  0  0  0
  -24.6110  -31.9010   23.2540 C   0  0  0  0  0  0  0  0  0  0  0  0
  -27.2570  -27.0690   20.2410 C   0  0  0  0  0  0  0  0  0  0  0  0
  -23.4460  -30.4950   21.6040 C   0  0  0  0  0  3  0  0  0  0  0  0
  -24.9270  -28.9140   20.1870 C   0  0  0  0  0  0  0  0  0  0  0  0
  -26.0110  -30.7440   21.4720 C   0  0  0  0  0  2  0  0  0  0  0  0
  -26.1060  -29.3360   20.8120 C   0  0  0  0  0  0  0  0  0  0  0  0
  -27.2660  -28.4370   20.8120 C   0  0  0  0  0  3  0  0  0  0  0  0
  -26.0440  -26.7980   19.5680 C   0  0  0  0  0  3  0  0  0  0  0  0
  -24.9210  -27.6630   19.5450 C   0  0  0  0  0  3  0  0  0  0  0  0
  -23.6930  -29.8140   20.2290 C   0  0  0  0  0  2  0  0  0  0  0  0
  -24.7100  -31.0730   22.1630 N   0  0  0  0  0  0  0  0  0  0  0  0
  -23.5150  -32.1740   23.7710 O   0  0  0  0  0  0  0  0  0  0  0  0
  -22.7590  -29.4880   22.5620 C   0  0  0  0  0  0  0  0  0  0  0  0
  -21.4300  -29.3160   22.4350 N   0  0  0  0  0  0  0  0  0  0  0  0
  -23.4280  -28.8640   23.3900 O   0  0  0  0  0  0  0  0  0  0  0  0
  -20.9450  -29.8720   21.7450 H   0  0  0  0  0  0  0  0  0  0  0  0
  -18.0530  -28.0810   22.9290 C   0  0  0  0  0  0  0  0  0  0  0  0
  -20.6110  -28.3670   23.1980 C   0  0  0  0  0  3  0  0  0  0  0  0
  -20.7250  -26.9400   22.6130 C   0  0  0  0  0  2  0  0  0  0  0  0
  -19.6270  -26.6140   21.5960 C   0  0  0  0  0  2  0  0  0  0  0  0
  -18.2430  -26.7410   22.2390 C   0  0  0  0  0  2  0  0  0  0  0  0
  -19.1650  -28.8520   23.3640 C   0  0  0  0  0  0  0  0  0  0  0  0
  -18.9310  -30.1050   23.9710 C   0  0  0  0  0  3  0  0  0  0  0  0
  -17.6210  -30.5870   24.1480 C   0  0  0  0  0  3  0  0  0  0  0  0
  -16.5250  -29.8130   23.7290 C   0  0  0  0  0  3  0  0  0  0  0  0
  -16.7420  -28.5620   23.1240 C   0  0  0  0  0  3  0  0  0  0  0  0
  -25.8690  -32.5580   23.8970 C   0  0  0  0  0  3  0  0  0  0  0  0
  -26.3520  -31.8200   25.2060 C   0  0  1  0  0  0  0  0  0  0  0  0
  -25.2320  -31.6060   26.2510 C   0  0  0  0  0  1  0  0  0  0  0  0
  -26.9510  -30.4360   24.8720 C   0  0  0  0  0  1  0  0  0  0  0  0
  -27.4790  -32.6380   25.8790 C   0  0  0  0  0  1  0  0  0  0  0  0
  -25.5440  -33.9630   24.2020 N   0  0  0  0  0  0  0  0  0  0  0  0
  -25.8870  -35.0140   23.4460 C   0  0  0  0  0  0  0  0  0  0  0  0
  -26.5760  -34.9030   22.4290 O   0  0  0  0  0  0  0  0  0  0  0  0
  -24.9380  -34.1220   24.9940 H   0  0  0  0  0  0  0  0  0  0  0  0
  -24.1710  -36.8140   23.0430 C   0  0  0  0  0  1  0  0  0  0  0  0
  -25.3910  -36.4080   23.8860 C   0  0  0  0  0  3  0  0  0  0  0  0
  -27.5010  -37.3030   24.7680 C   0  0  0  0  0  1  0  0  0  0  0  0
  -26.4270  -37.4600   23.7920 N   0  0  0  0  0  0  0  0  0  0  0  0
  -26.0160  -38.3810   23.9180 H   0  0  0  0  0  0  0  0  0  0  0  0
  1 52  1  0
  1 47  1  0
  2  4  1  0
  3  2  2  0
  3  5  1  0
  4  6  2  0
  5  7  2  0
  6  8  1  0
  7  6  1  0
  7  1  1  0
  8 17  1  0
  9 17  1  0
 10 15  1  0
 11 12  1  0
 11 10  1  0
 13 12  1  0
 13 22  1  0
 13 14  1  0
 15  9  1  0
 15 14  1  0
 16  9  2  0
 17 18  1  0
 19 20  2  0
 20 39  1  0
 21 20  1  0
 21 24  1  0
 22 19  1  0
 22 23  1  0
 23 21  2  0
 24 25  1  0
 25 26  2  0
 27 30  1  0
 27 26  1  0
 28 27  2  0
 29 28  1  0
 29 24  2  0
 30 31  1  0
 31 32  1  0
 32 33  2  0
 34 33  1  0
 34 38  1  0
 35 34  2  0
 36 31  2  0
 36 35  1  0
 37 36  1  0
 39 40  1  0
 40 43  1  0
 40 42  1  0
 41 39  2  0
 44 45  1  0
 44 19  1  0
 46 44  1  0
 47 49  2  0
 47 48  1  0
 48 51  1  0
 50 48  1  0
 52 53  1  0
 54 65  2  0
 55 53  1  0
 55 60  1  0
 56 64  1  0
 56 66  1  0
 57 63  1  0
 57 59  1  0
 58 64  1  0
 59 58  1  0
 60 59  2  0
 61 55  2  0
 62 61  1  0
 62 57  2  0
 63 56  1  0
 64 54  1  0
 66 68  2  0
 67 66  1  0
 69 67  1  0
 70 79  2  0
 70 75  1  0
 71 67  1  0
 71 75  1  0
 72 71  1  0
 73 74  1  0
 73 72  1  0
 74 70  1  0
 75 76  2  0
 76 77  1  0
 78 77  2  0
 79 78  1  0
 80 54  1  0
 80 85  1  0
 80 81  1  0
 81 84  1  1
 81 82  1  0
 83 81  1  0
 85 88  1  0
 86 90  1  0
 86 85  1  0
 87 86  2  0
 90 89  1  0
 92 90  1  0
 92 93  1  0
 92 91  1  0
M  ISO  4   9 100  17 100  52 101  53 101
M  END
>  <TORSDO>  (16) 
F 20

>  <SCORE>  (16) 
-16.831

>  <name>  (16) 
16

>  <ligand_id>  (16) 
16

>  <original_smiles>  (16) 
[H]c1c([H])c([H])c(C([H])(C(=O)N([H])[H])C([H])([H])Oc2c([H])c([H])c3c(c2[H])C([H])([H])N(C(=O)C([H])(N([H])C(=O)C([H])(N([H])C([H])([H])[H])C([H])([H])[H])C(C([H])([H])[H])(C([H])([H])[H])C([H])([H])[H])C([H])(C(=O)N([H])C2([H])c4c([H])c([H])c([H])c([H])c4C([H])([H])C([H])([H])C2([H])[H])C3([H])[H])c(C([H])([H])N([H])C(=O)N2C([H])([H])C([H])([H])C([H])([H])C([H])(n3nc(-c4c([H])c([H])c(Oc5c([H])c([H])c(F)c([H])c5F)c([H])c4[H])c(C(=O)N([H])[H])c3N([H])[H])C2([H])[H])c1[H]

>  <smiles>  (16) 
[H]c1c([H])c([H])c(C([H])(C(=O)N([H])[H])C([H])([H])Oc2c([H])c([H])c3c(c2[H])C([H])([H])N(C(=O)C([H])(N([H])C(=O)C([H])(N([H])C([H])([H])[H])C([H])([H])[H])C(C([H])([H])[H])(C([H])([H])[H])C([H])([H])[H])C([H])(C(=O)N([H])C2([H])c4c([H])c([H])c([H])c([H])c4C([H])([H])C([H])([H])C2([H])[H])C3([H])[H])c(C([H])([H])N([H])C(=O)N2C([H])([H])C([H])([H])C([H])([H])C([H])(n3nc(-c4c([H])c([H])c(Oc5c([H])c([H])c(F)c([H])c5F)c([H])c4[H])c(C(=O)N([H])[H])c3N([H])[H])C2([H])[H])c1[H]

$$$$
17:0:0
     RDKit          3D

 91100  0  0  1  0  0  0  0  0999 V2000
  -28.6510  -19.8390   21.4980 C   0  0  0  0  0  2  0  0  0  0  0  0
  -28.2540  -21.3380   21.2440 C   0  0  0  0  0  2  0  0  0  0  0  0
  -30.9640  -18.6040   18.8320 C   0  0  0  0  0  2  0  0  0  0  0  0
  -30.7970  -20.1740   18.8500 C   0  0  0  0  0  2  0  0  0  0  0  0
  -30.2280  -18.0340   20.0680 C   0  0  0  0  0  3  0  0  0  0  0  0
  -29.0500  -19.2280   20.1310 C   0  0  0  0  0  3  0  0  0  0  0  0
  -29.1940  -21.8740   20.1430 C   0  0  0  0  0  3  0  0  0  0  0  0
  -29.4370  -20.5120   19.3620 N   0  0  1  0  0  4  0  0  0  0  0  0
  -28.8190  -20.5280   18.5650 H   0  0  0  0  0  0  0  0  0  0  0  0
  -30.7680  -15.2670   19.8760 C   0  0  0  0  0  0  0  0  0  0  0  0
  -30.6350  -12.8930   18.9560 C   0  0  0  0  0  2  0  0  0  0  0  0
  -29.6340  -12.8210   17.7780 C   0  0  0  0  0  2  0  0  0  0  0  0
  -28.1980  -12.6010   18.2930 C   0  0  0  0  0  2  0  0  0  0  0  0
  -27.8540  -13.5290   19.4880 C   0  0  0  0  0  3  0  0  0  0  0  0
  -28.9730  -13.5550   20.5530 C   0  0  0  0  0  2  0  0  0  0  0  0
  -30.1960  -13.9930   19.8710 N   0  0  0  0  0  0  0  0  0  0  0  0
  -31.9430  -15.3440   19.5000 O   0  0  0  0  0  0  0  0  0  0  0  0
  -29.9850  -16.4460   20.1120 N   0  0  0  0  0  0  0  0  0  0  0  0
  -29.0600  -16.2020   20.4420 H   0  0  0  0  0  0  0  0  0  0  0  0
  -25.5440  -14.1080   20.4240 C   0  0  0  0  0  0  0  0  0  0  0  0
  -24.4950  -13.3310   20.8330 C   0  0  0  0  0  0  0  0  0  0  0  0
  -24.9300  -11.9760   20.7090 C   0  0  0  0  0  0  0  0  0  0  0  0
  -26.5490  -13.2250   20.0670 N   0  0  0  0  0  0  0  0  0  0  0  0
  -26.1950  -11.9350   20.3030 N   0  0  0  0  0  0  0  0  0  0  0  0
  -24.1950  -10.7190   20.8890 C   0  0  0  0  0  0  0  0  0  0  0  0
  -24.6140   -9.7460   21.8260 C   0  0  0  0  0  3  0  0  0  0  0  0
  -23.8800   -8.5530   21.9950 C   0  0  0  0  0  3  0  0  0  0  0  0
  -22.7130   -8.3250   21.2300 C   0  0  0  0  0  0  0  0  0  0  0  0
  -22.3130   -9.2850   20.2820 C   0  0  0  0  0  3  0  0  0  0  0  0
  -23.0490  -10.4670   20.1100 C   0  0  0  0  0  3  0  0  0  0  0  0
  -21.9480   -7.1860   21.3120 O   0  0  0  0  0  0  0  0  0  0  0  0
  -21.8110   -6.4920   22.4860 C   0  0  0  0  0  0  0  0  0  0  0  0
  -21.2360   -7.0780   23.6360 C   0  0  0  0  0  3  0  0  0  0  0  0
  -21.0520   -6.3060   24.8010 C   0  0  0  0  0  3  0  0  0  0  0  0
  -21.4320   -4.9510   24.8160 C   0  0  0  0  0  0  0  0  0  0  0  0
  -21.9990   -4.3640   23.6730 C   0  0  0  0  0  3  0  0  0  0  0  0
  -22.1840   -5.1310   22.5090 C   0  0  0  0  0  0  0  0  0  0  0  0
  -22.7120   -4.5560   21.4010 F   0  0  0  0  0  0  0  0  0  0  0  0
  -21.2470   -4.2070   25.9320 F   0  0  0  0  0  0  0  0  0  0  0  0
  -23.1280  -13.8170   21.2130 C   0  0  0  0  0  0  0  0  0  0  0  0
  -22.4460  -13.1090   22.1040 N   0  0  0  0  0  0  0  0  0  0  0  0
  -22.6720  -14.8630   20.7530 O   0  0  0  0  0  0  0  0  0  0  0  0
  -22.8250  -12.2620   22.4980 H   0  0  0  0  0  0  0  0  0  0  0  0
  -21.5270  -13.4190   22.3860 H   0  0  0  0  0  0  0  0  0  0  0  0
  -25.7150  -15.4820   20.2930 N   0  0  0  0  0  0  0  0  0  0  0  0
  -24.9530  -16.1260   20.4820 H   0  0  0  0  0  0  0  0  0  0  0  0
  -26.5000  -15.9200   19.8270 H   0  0  0  0  0  0  0  0  0  0  0  0
  -29.8740  -23.7380   18.4210 C   0  0  0  0  0  1  0  0  0  0  0  0
  -28.7560  -23.3740   19.4070 C   0  0  0  0  0  3  0  0  0  0  0  0
  -28.3030  -24.8400   20.1770 C   0  0  0  0  0  2  0  0  0  0  0  0
  -28.3750  -26.3480   19.7050 O   0  0  0  0  0  0  0  0  0  0  0  0
  -24.6120  -31.8280   23.0170 C   0  0  0  0  0  0  0  0  0  0  0  0
  -27.2850  -27.2990   19.7730 C   0  0  0  0  0  0  0  0  0  0  0  0
  -23.4310  -30.4650   21.3370 C   0  0  0  0  0  3  0  0  0  0  0  0
  -24.9070  -28.9880   19.8310 C   0  0  0  0  0  0  0  0  0  0  0  0
  -25.9780  -30.8160   21.1410 C   0  0  0  0  0  2  0  0  0  0  0  0
  -26.0820  -29.4480   20.4380 C   0  0  0  0  0  0  0  0  0  0  0  0
  -27.2760  -28.6250   20.3820 C   0  0  0  0  0  3  0  0  0  0  0  0
  -26.0810  -26.9460   19.1350 C   0  0  0  0  0  3  0  0  0  0  0  0
  -24.9200  -27.7550   19.1570 C   0  0  0  0  0  3  0  0  0  0  0  0
  -23.6500  -29.8430   19.9300 C   0  0  0  0  0  2  0  0  0  0  0  0
  -24.6960  -31.0600   21.8850 N   0  0  0  0  0  0  0  0  0  0  0  0
  -23.5290  -32.0450   23.5780 O   0  0  0  0  0  0  0  0  0  0  0  0
  -22.7970  -29.3990   22.2670 C   0  0  0  0  0  0  0  0  0  0  0  0
  -21.4710  -29.1940   22.1660 N   0  0  0  0  0  0  0  0  0  0  0  0
  -23.5060  -28.7540   23.0460 O   0  0  0  0  0  0  0  0  0  0  0  0
  -20.9520  -29.7670   21.5160 H   0  0  0  0  0  0  0  0  0  0  0  0
  -18.1330  -27.8910   22.7070 C   0  0  0  0  0  0  0  0  0  0  0  0
  -20.6940  -28.1990   22.9100 C   0  0  0  0  0  3  0  0  0  0  0  0
  -20.8100  -26.8000   22.2610 C   0  0  0  0  0  2  0  0  0  0  0  0
  -19.6850  -26.5010   21.2650 C   0  0  0  0  0  2  0  0  0  0  0  0
  -18.3190  -26.5850   21.9530 C   0  0  0  0  0  2  0  0  0  0  0  0
  -19.2470  -28.6590   23.1400 C   0  0  0  0  0  0  0  0  0  0  0  0
  -19.0160  -29.8840   23.8010 C   0  0  0  0  0  3  0  0  0  0  0  0
  -17.7060  -30.3390   24.0380 C   0  0  0  0  0  3  0  0  0  0  0  0
  -16.6080  -29.5680   23.6200 C   0  0  0  0  0  3  0  0  0  0  0  0
  -16.8220  -28.3470   22.9580 C   0  0  0  0  0  3  0  0  0  0  0  0
  -25.8770  -32.4850   23.6490 C   0  0  0  0  0  3  0  0  0  0  0  0
  -25.5280  -33.8630   24.0270 N   0  0  0  0  0  0  0  0  0  0  0  0
  -25.8250  -34.9540   23.3090 C   0  0  0  0  0  0  0  0  0  0  0  0
  -26.4850  -34.9120   22.2680 O   0  0  0  0  0  0  0  0  0  0  0  0
  -24.9550  -33.9710   24.8530 H   0  0  0  0  0  0  0  0  0  0  0  0
  -24.0450  -36.7180   23.0340 C   0  0  0  0  0  1  0  0  0  0  0  0
  -25.2990  -36.3100   23.8260 C   0  0  0  0  0  3  0  0  0  0  0  0
  -27.4030  -37.2280   24.6980 C   0  0  0  0  0  1  0  0  0  0  0  0
  -26.3000  -37.3950   23.7560 N   0  0  0  0  0  0  0  0  0  0  0  0
  -25.8620  -38.2940   23.9370 H   0  0  0  0  0  0  0  0  0  0  0  0
  -26.4230  -31.7000   24.9040 C   0  0  1  0  0  0  0  0  0  0  0  0
  -25.3450  -31.4050   25.9710 C   0  0  0  0  0  1  0  0  0  0  0  0
  -27.0490  -30.3520   24.4790 C   0  0  0  0  0  1  0  0  0  0  0  0
  -27.5490  -32.5140   25.5860 C   0  0  0  0  0  1  0  0  0  0  0  0
  2  1  1  0
  3  4  1  0
  3  5  1  0
  4  8  1  0
  5 18  1  0
  5  6  1  0
  6  1  1  0
  7 49  1  0
  7  2  1  0
  8  9  1  6
  8  6  1  0
  8  7  1  0
 10 18  1  0
 11 16  1  0
 12 13  1  0
 12 11  1  0
 14 13  1  0
 14 23  1  0
 14 15  1  0
 16 10  1  0
 16 15  1  0
 17 10  2  0
 18 19  1  0
 20 21  2  0
 21 40  1  0
 22 21  1  0
 22 25  1  0
 23 24  1  0
 23 20  1  0
 24 22  2  0
 25 26  1  0
 26 27  2  0
 28 31  1  0
 28 27  1  0
 29 28  2  0
 30 29  1  0
 30 25  2  0
 31 32  1  0
 32 37  2  0
 32 33  1  0
 33 34  2  0
 34 35  1  0
 35 39  1  0
 36 35  2  0
 37 36  1  0
 38 37  1  0
 40 41  1  0
 41 44  1  0
 41 43  1  0
 42 40  2  0
 45 20  1  0
 45 46  1  0
 47 45  1  0
 49 48  1  0
 49 50  1  0
 51 53  1  0
 51 50  1  0
 52 63  2  0
 53 58  1  0
 54 62  1  0
 54 64  1  0
 55 61  1  0
 55 57  1  0
 56 62  1  0
 57 56  1  0
 58 57  2  0
 59 60  1  0
 59 53  2  0
 60 55  2  0
 61 54  1  0
 62 52  1  0
 64 66  2  0
 65 64  1  0
 67 65  1  0
 68 77  2  0
 68 73  1  0
 69 65  1  0
 69 73  1  0
 70 69  1  0
 71 72  1  0
 71 70  1  0
 72 68  1  0
 73 74  2  0
 74 75  1  0
 76 75  2  0
 77 76  1  0
 78 52  1  0
 78 79  1  0
 78 88  1  0
 79 82  1  0
 80 84  1  0
 80 79  1  0
 81 80  2  0
 84 83  1  0
 86 84  1  0
 86 87  1  0
 86 85  1  0
 88 91  1  1
 88 89  1  0
 90 88  1  0
M  ISO  4  10 100  18 100  50 101  51 101
M  END
>  <TORSDO>  (17) 
F 18

>  <SCORE>  (17) 
-14.202

>  <name>  (17) 
17

>  <ligand_id>  (17) 
17

>  <original_smiles>  (17) 
[H]c1c([H])c([H])c2c(c1[H])C([H])([H])C([H])([H])C([H])([H])C2([H])N([H])C(=O)C1([H])N(C(=O)C([H])(N([H])C(=O)C([H])(N([H])C([H])([H])[H])C([H])([H])[H])C(C([H])([H])[H])(C([H])([H])[H])C([H])([H])[H])C([H])([H])c2c([H])c(OC([H])([H])C([H])(C([H])([H])[H])C3([H])C([H])([H])C([H])([H])C4([H])C([H])(N([H])C(=O)N5C([H])([H])C([H])([H])C([H])([H])C([H])(n6nc(-c7c([H])c([H])c(Oc8c([H])c([H])c(F)c([H])c8F)c([H])c7[H])c(C(=O)N([H])[H])c6N([H])[H])C5([H])[H])C([H])([H])C([H])([H])[N+]43[H])c([H])c([H])c2C1([H])[H]

>  <smiles>  (17) 
[H]c1c([H])c([H])c2c(c1[H])C([H])([H])C([H])([H])C([H])([H])C2([H])N([H])C(=O)C1([H])N(C(=O)C([H])(N([H])C(=O)C([H])(N([H])C([H])([H])[H])C([H])([H])[H])C(C([H])([H])[H])(C([H])([H])[H])C([H])([H])[H])C([H])([H])c2c([H])c(OC([H])([H])C([H])(C([H])([H])[H])C3([H])C([H])([H])C([H])([H])C4([H])C([H])(N([H])C(=O)N5C([H])([H])C([H])([H])C([H])([H])C([H])(n6nc(-c7c([H])c([H])c(Oc8c([H])c([H])c(F)c([H])c8F)c([H])c7[H])c(C(=O)N([H])[H])c6N([H])[H])C5([H])[H])C([H])([H])C([H])([H])[N+]43[H])c([H])c([H])c2C1([H])[H]

$$$$
18:0:0
     RDKit          3D

 96105  0  0  1  0  0  0  0  0999 V2000
  -30.7070  -21.4180   19.0010 C   0  0  0  0  0  2  0  0  0  0  0  0
  -31.0290  -21.0780   20.2460 C   0  0  0  0  0  2  0  0  0  0  0  0
  -29.1950  -21.3480   18.9150 C   0  0  0  0  0  3  0  0  0  0  0  0
  -29.7180  -20.7860   20.9390 C   0  0  0  0  0  3  0  0  0  0  0  0
  -28.8500  -19.7830   18.9730 C   0  0  0  0  0  3  0  0  0  0  0  0
  -29.2690  -19.2760   20.4140 C   0  0  0  0  0  3  0  0  0  0  0  0
  -28.8530  -21.8960   20.2620 N   0  0  1  0  0  4  0  0  0  0  0  0
  -27.8830  -21.7040   20.4650 H   0  0  0  0  0  0  0  0  0  0  0  0
  -27.3770  -19.4500   18.6360 C   0  0  0  0  0  2  0  0  0  0  0  0
  -26.8790  -20.1370   17.3610 C   0  0  0  0  0  0  0  0  0  0  0  0
  -26.8280  -19.4170   16.2490 N   0  0  0  0  0  0  0  0  0  0  0  0
  -26.5290  -21.3150   17.3730 O   0  0  0  0  0  0  0  0  0  0  0  0
  -27.1040  -18.4450   16.2510 H   0  0  0  0  0  0  0  0  0  0  0  0
  -26.5080  -19.8320   15.3850 H   0  0  0  0  0  0  0  0  0  0  0  0
  -30.2650  -17.8880   20.5160 C   0  0  0  0  0  2  0  0  0  0  0  0
  -30.6220  -15.1490   20.3500 C   0  0  0  0  0  0  0  0  0  0  0  0
  -30.5170  -12.7940   19.4040 C   0  0  0  0  0  2  0  0  0  0  0  0
  -29.5800  -12.7250   18.1770 C   0  0  0  0  0  2  0  0  0  0  0  0
  -28.1220  -12.4960   18.6180 C   0  0  0  0  0  2  0  0  0  0  0  0
  -27.7090  -13.4210   19.7930 C   0  0  0  0  0  3  0  0  0  0  0  0
  -28.7690  -13.4560   20.9130 C   0  0  0  0  0  2  0  0  0  0  0  0
  -30.0270  -13.8870   20.2930 N   0  0  0  0  0  0  0  0  0  0  0  0
  -31.8280  -15.2050   20.0870 O   0  0  0  0  0  0  0  0  0  0  0  0
  -29.8560  -16.3490   20.4960 N   0  0  0  0  0  0  0  0  0  0  0  0
  -28.8720  -16.1770   20.6420 H   0  0  0  0  0  0  0  0  0  0  0  0
  -25.3370  -13.9750   20.5730 C   0  0  0  0  0  0  0  0  0  0  0  0
  -24.2770  -13.1900   20.9310 C   0  0  0  0  0  0  0  0  0  0  0  0
  -24.7430  -11.8420   20.8620 C   0  0  0  0  0  0  0  0  0  0  0  0
  -26.3780  -13.1060   20.3000 N   0  0  0  0  0  0  0  0  0  0  0  0
  -26.0310  -11.8150   20.5410 N   0  0  0  0  0  0  0  0  0  0  0  0
  -24.0180  -10.5740   21.0240 C   0  0  0  0  0  0  0  0  0  0  0  0
  -24.4210   -9.6070   21.9710 C   0  0  0  0  0  3  0  0  0  0  0  0
  -23.6960   -8.4070   22.1220 C   0  0  0  0  0  3  0  0  0  0  0  0
  -22.5520   -8.1630   21.3250 C   0  0  0  0  0  0  0  0  0  0  0  0
  -22.1680   -9.1170   20.3670 C   0  0  0  0  0  3  0  0  0  0  0  0
  -22.8940  -10.3110   20.2140 C   0  0  0  0  0  3  0  0  0  0  0  0
  -21.8010   -7.0140   21.3840 O   0  0  0  0  0  0  0  0  0  0  0  0
  -21.6800   -6.2920   22.5440 C   0  0  0  0  0  0  0  0  0  0  0  0
  -21.1340   -6.8550   23.7190 C   0  0  0  0  0  3  0  0  0  0  0  0
  -20.9640   -6.0570   24.8680 C   0  0  0  0  0  3  0  0  0  0  0  0
  -21.3310   -4.6970   24.8430 C   0  0  0  0  0  0  0  0  0  0  0  0
  -21.8700   -4.1340   23.6730 C   0  0  0  0  0  3  0  0  0  0  0  0
  -22.0400   -4.9300   22.5250 C   0  0  0  0  0  0  0  0  0  0  0  0
  -22.5400   -4.3770   21.3930 F   0  0  0  0  0  0  0  0  0  0  0  0
  -21.1620   -3.9280   25.9440 F   0  0  0  0  0  0  0  0  0  0  0  0
  -22.8820  -13.6590   21.2230 C   0  0  0  0  0  0  0  0  0  0  0  0
  -22.1560  -12.9380   22.0690 N   0  0  0  0  0  0  0  0  0  0  0  0
  -22.4430  -14.7020   20.7360 O   0  0  0  0  0  0  0  0  0  0  0  0
  -22.5240  -12.0940   22.4840 H   0  0  0  0  0  0  0  0  0  0  0  0
  -21.2210  -13.2340   22.3080 H   0  0  0  0  0  0  0  0  0  0  0  0
  -25.4980  -15.3500   20.4310 N   0  0  0  0  0  0  0  0  0  0  0  0
  -24.7270  -15.9970   20.5600 H   0  0  0  0  0  0  0  0  0  0  0  0
  -26.3390  -15.7990   20.0940 H   0  0  0  0  0  0  0  0  0  0  0  0
  -29.1030  -23.4680   20.5330 C   0  0  0  0  0  3  0  0  0  0  0  0
  -28.0960  -24.7510   20.0660 C   0  0  0  0  0  3  0  0  0  0  0  0
  -28.2990  -26.2840   20.3470 O   0  0  0  0  0  0  0  0  0  0  0  0
  -24.6250  -31.9750   23.2870 C   0  0  0  0  0  0  0  0  0  0  0  0
  -27.2350  -27.2630   20.2650 C   0  0  0  0  0  0  0  0  0  0  0  0
  -23.4350  -30.5670   21.6510 C   0  0  0  0  0  3  0  0  0  0  0  0
  -24.8940  -28.9990   20.2270 C   0  0  0  0  0  0  0  0  0  0  0  0
  -25.9870  -30.8480   21.4860 C   0  0  0  0  0  2  0  0  0  0  0  0
  -26.0700  -29.4540   20.8350 C   0  0  0  0  0  0  0  0  0  0  0  0
  -27.2410  -28.6020   20.8350 C   0  0  0  0  0  3  0  0  0  0  0  0
  -26.0330  -26.9140   19.6150 C   0  0  0  0  0  3  0  0  0  0  0  0
  -24.8880  -27.7420   19.6020 C   0  0  0  0  0  3  0  0  0  0  0  0
  -23.6600  -29.8870   20.2740 C   0  0  0  0  0  2  0  0  0  0  0  0
  -24.7020  -31.1530   22.1950 N   0  0  0  0  0  0  0  0  0  0  0  0
  -23.5360  -32.2520   23.8150 O   0  0  0  0  0  0  0  0  0  0  0  0
  -22.7630  -29.5580   22.6160 C   0  0  0  0  0  0  0  0  0  0  0  0
  -21.4400  -29.3630   22.4780 N   0  0  0  0  0  0  0  0  0  0  0  0
  -23.4370  -28.9510   23.4530 O   0  0  0  0  0  0  0  0  0  0  0  0
  -20.9500  -29.9040   21.7790 H   0  0  0  0  0  0  0  0  0  0  0  0
  -18.0730  -28.1180   22.9700 C   0  0  0  0  0  0  0  0  0  0  0  0
  -20.6260  -28.4200   23.2510 C   0  0  0  0  0  3  0  0  0  0  0  0
  -20.7530  -26.9850   22.6890 C   0  0  0  0  0  2  0  0  0  0  0  0
  -19.6620  -26.6380   21.6700 C   0  0  0  0  0  2  0  0  0  0  0  0
  -18.2740  -26.7670   22.3020 C   0  0  0  0  0  2  0  0  0  0  0  0
  -19.1770  -28.9000   23.4010 C   0  0  0  0  0  0  0  0  0  0  0  0
  -18.9340  -30.1620   23.9840 C   0  0  0  0  0  3  0  0  0  0  0  0
  -17.6200  -30.6420   24.1420 C   0  0  0  0  0  3  0  0  0  0  0  0
  -16.5310  -29.8580   23.7260 C   0  0  0  0  0  3  0  0  0  0  0  0
  -16.7580  -28.5970   23.1460 C   0  0  0  0  0  3  0  0  0  0  0  0
  -25.8980  -32.6230   23.9120 C   0  0  0  0  0  3  0  0  0  0  0  0
  -25.5770  -34.0240   24.2320 N   0  0  0  0  0  0  0  0  0  0  0  0
  -25.8810  -35.0750   23.4600 C   0  0  0  0  0  0  0  0  0  0  0  0
  -26.5260  -34.9700   22.4130 O   0  0  0  0  0  0  0  0  0  0  0  0
  -25.0010  -34.1790   25.0470 H   0  0  0  0  0  0  0  0  0  0  0  0
  -24.1120  -36.8380   23.1550 C   0  0  0  0  0  1  0  0  0  0  0  0
  -25.3920  -36.4630   23.9190 C   0  0  0  0  0  3  0  0  0  0  0  0
  -27.5390  -37.3970   24.6590 C   0  0  0  0  0  1  0  0  0  0  0  0
  -26.4030  -37.5300   23.7520 N   0  0  0  0  0  0  0  0  0  0  0  0
  -25.9860  -38.4470   23.8950 H   0  0  0  0  0  0  0  0  0  0  0  0
  -26.4070  -31.8690   25.2020 C   0  0  1  0  0  0  0  0  0  0  0  0
  -25.3040  -31.6280   26.2590 C   0  0  0  0  0  1  0  0  0  0  0  0
  -27.0130  -30.4950   24.8320 C   0  0  0  0  0  1  0  0  0  0  0  0
  -27.5370  -32.6850   25.8710 C   0  0  0  0  0  1  0  0  0  0  0  0
  1  2  1  0
  3  5  1  0
  3  1  1  0
  3  7  1  0
  4  2  1  0
  5  9  1  0
  5  6  1  0
  6 15  1  0
  6  4  1  0
  7  8  1  1
  7 54  1  0
  7  4  1  0
 10 12  2  0
 10  9  1  0
 11 13  1  0
 11 10  1  0
 14 11  1  0
 16 24  1  0
 17 22  1  0
 18 19  1  0
 18 17  1  0
 20 19  1  0
 20 29  1  0
 20 21  1  0
 22 16  1  0
 22 21  1  0
 23 16  2  0
 24 15  1  0
 24 25  1  0
 26 27  2  0
 27 46  1  0
 28 27  1  0
 28 31  1  0
 29 30  1  0
 29 26  1  0
 30 28  2  0
 31 32  1  0
 32 33  2  0
 34 37  1  0
 34 33  1  0
 35 34  2  0
 36 35  1  0
 36 31  2  0
 37 38  1  0
 38 39  1  0
 39 40  2  0
 41 40  1  0
 41 45  1  0
 42 41  2  0
 43 38  2  0
 43 42  1  0
 44 43  1  0
 46 47  1  0
 47 50  1  0
 47 49  1  0
 48 46  2  0
 51 52  1  0
 51 26  1  0
 53 51  1  0
 55 56  1  0
 55 54  2  0
 57 68  2  0
 58 56  1  0
 58 63  1  0
 59 67  1  0
 59 69  1  0
 60 66  1  0
 60 62  1  0
 61 67  1  0
 62 61  1  0
 63 62  2  0
 64 58  2  0
 65 64  1  0
 65 60  2  0
 66 59  1  0
 67 57  1  0
 69 71  2  0
 70 69  1  0
 72 70  1  0
 73 82  2  0
 73 78  1  0
 74 70  1  0
 74 78  1  0
 75 74  1  0
 76 77  1  0
 76 75  1  0
 77 73  1  0
 78 79  2  0
 79 80  1  0
 81 80  2  0
 82 81  1  0
 83 57  1  0
 83 84  1  0
 83 93  1  0
 84 87  1  0
 85 89  1  0
 85 84  1  0
 86 85  2  0
 89 88  1  0
 91 92  1  0
 91 89  1  0
 91 90  1  0
 93 96  1  1
 93 94  1  0
 95 93  1  0
M  ISO  4  16 100  24 100  55 101  56 101
M  END
>  <TORSDO>  (18) 
F 21

>  <SCORE>  (18) 
-14.785

>  <name>  (18) 
18

>  <ligand_id>  (18) 
18

>  <original_smiles>  (18) 
[H]C1=C([H])C2([H])C([H])(C([H])([H])N([H])C(=O)N3C([H])([H])C([H])([H])C([H])([H])C([H])(n4nc(-c5c([H])c([H])c(Oc6c([H])c([H])c(F)c([H])c6F)c([H])c5[H])c(C(=O)N([H])[H])c4N([H])[H])C3([H])[H])C([H])(C([H])([H])C(=O)N([H])[H])C1([H])[N+]2([H])C([H])([H])C([H])([H])Oc1c([H])c([H])c2c(c1[H])C([H])([H])N(C(=O)C([H])(N([H])C(=O)C([H])(N([H])C([H])([H])[H])C([H])([H])[H])C(C([H])([H])[H])(C([H])([H])[H])C([H])([H])[H])C([H])(C(=O)N([H])C1([H])c3c([H])c([H])c([H])c([H])c3C([H])([H])C([H])([H])C1([H])[H])C2([H])[H]

>  <smiles>  (18) 
[H]C1=C([H])C2([H])C([H])(C([H])([H])N([H])C(=O)N3C([H])([H])C([H])([H])C([H])([H])C([H])(n4nc(-c5c([H])c([H])c(Oc6c([H])c([H])c(F)c([H])c6F)c([H])c5[H])c(C(=O)N([H])[H])c4N([H])[H])C3([H])[H])C([H])(C([H])([H])C(=O)N([H])[H])C1([H])[N+]2([H])C([H])([H])C([H])([H])Oc1c([H])c([H])c2c(c1[H])C([H])([H])N(C(=O)C([H])(N([H])C(=O)C([H])(N([H])C([H])([H])[H])C([H])([H])[H])C(C([H])([H])[H])(C([H])([H])[H])C([H])([H])[H])C([H])(C(=O)N([H])C1([H])c3c([H])c([H])c([H])c([H])c3C([H])([H])C([H])([H])C1([H])[H])C2([H])[H]

$$$$
19:0:0
     RDKit          3D

 91101  0  0  1  0  0  0  0  0999 V2000
  -28.7020  -22.2960   20.1920 N   0  0  0  0  0  4  0  0  0  0  0  0
  -27.8020  -22.1030   20.6050 H   0  0  0  0  0  0  0  0  0  0  0  0
  -28.6000  -22.1710   19.1960 H   0  0  0  0  0  0  0  0  0  0  0  0
  -29.6770  -21.2250   20.6940 C   0  0  0  0  0  2  0  0  0  0  0  0
  -31.8190  -18.9830   20.7770 C   0  0  0  0  0  2  0  0  0  0  0  0
  -29.9630  -19.0020   19.1500 C   0  0  0  0  0  2  0  0  0  0  0  0
  -31.1560  -18.1490   19.6600 C   0  0  1  0  0  0  0  0  0  0  0  0
  -30.3930  -18.6900   21.3420 C   0  0  2  0  0  0  0  0  0  0  0  0
  -29.4480  -19.6120   20.4740 C   0  0  0  0  0  3  0  0  0  0  0  0
  -30.8640  -17.2120   20.8730 C   0  0  0  0  0  3  0  0  0  0  0  0
  -30.6670  -14.7440   20.3790 C   0  0  0  0  0  0  0  0  0  0  0  0
  -30.3920  -12.4680   19.3960 C   0  0  0  0  0  2  0  0  0  0  0  0
  -29.4730  -12.5250   18.1590 C   0  0  0  0  0  2  0  0  0  0  0  0
  -28.0020  -12.3640   18.5840 C   0  0  0  0  0  2  0  0  0  0  0  0
  -27.6190  -13.2780   19.7800 C   0  0  0  0  0  3  0  0  0  0  0  0
  -28.6720  -13.2370   20.9100 C   0  0  0  0  0  2  0  0  0  0  0  0
  -29.9700  -13.5580   20.3080 N   0  0  0  0  0  0  0  0  0  0  0  0
  -31.8580  -14.7510   20.0550 O   0  0  0  0  0  0  0  0  0  0  0  0
  -30.0380  -15.9570   20.6410 N   0  0  0  0  0  0  0  0  0  0  0  0
  -29.0480  -15.9660   20.8390 H   0  0  0  0  0  0  0  0  0  0  0  0
  -25.2300  -13.8690   20.4960 C   0  0  0  0  0  0  0  0  0  0  0  0
  -24.1640  -13.0960   20.8630 C   0  0  0  0  0  0  0  0  0  0  0  0
  -24.6270  -11.7450   20.8460 C   0  0  0  0  0  0  0  0  0  0  0  0
  -26.2760  -12.9890   20.2700 N   0  0  0  0  0  0  0  0  0  0  0  0
  -25.9200  -11.7070   20.5470 N   0  0  0  0  0  0  0  0  0  0  0  0
  -23.9000  -10.4840   21.0380 C   0  0  0  0  0  0  0  0  0  0  0  0
  -24.3330   -9.5150   21.9690 C   0  0  0  0  0  3  0  0  0  0  0  0
  -23.6050   -8.3200   22.1510 C   0  0  0  0  0  3  0  0  0  0  0  0
  -22.4280   -8.0840   21.4000 C   0  0  0  0  0  0  0  0  0  0  0  0
  -22.0140   -9.0420   20.4570 C   0  0  0  0  0  3  0  0  0  0  0  0
  -22.7440  -10.2280   20.2740 C   0  0  0  0  0  3  0  0  0  0  0  0
  -21.6710   -6.9410   21.4900 O   0  0  0  0  0  0  0  0  0  0  0  0
  -21.6280   -6.1950   22.6400 C   0  0  0  0  0  0  0  0  0  0  0  0
  -21.2140   -6.7470   23.8710 C   0  0  0  0  0  3  0  0  0  0  0  0
  -21.1180   -5.9270   25.0150 C   0  0  0  0  0  3  0  0  0  0  0  0
  -21.4270   -4.5560   24.9260 C   0  0  0  0  0  0  0  0  0  0  0  0
  -21.8330   -4.0040   23.6990 C   0  0  0  0  0  3  0  0  0  0  0  0
  -21.9300   -4.8200   22.5580 C   0  0  0  0  0  0  0  0  0  0  0  0
  -22.3020   -4.2770   21.3740 F   0  0  0  0  0  0  0  0  0  0  0  0
  -21.3280   -3.7680   26.0220 F   0  0  0  0  0  0  0  0  0  0  0  0
  -22.7630  -13.5750   21.1190 C   0  0  0  0  0  0  0  0  0  0  0  0
  -22.0310  -12.8880   21.9880 N   0  0  0  0  0  0  0  0  0  0  0  0
  -22.3290  -14.5930   20.5830 O   0  0  0  0  0  0  0  0  0  0  0  0
  -22.3960  -12.0640   22.4440 H   0  0  0  0  0  0  0  0  0  0  0  0
  -21.0910  -13.1900   22.2020 H   0  0  0  0  0  0  0  0  0  0  0  0
  -25.3950  -15.2390   20.3080 N   0  0  0  0  0  0  0  0  0  0  0  0
  -24.6280  -15.8950   20.4070 H   0  0  0  0  0  0  0  0  0  0  0  0
  -26.2450  -15.6740   19.9700 H   0  0  0  0  0  0  0  0  0  0  0  0
  -29.0590  -23.7780   20.4600 C   0  0  0  0  0  3  0  0  0  0  0  0
  -28.0160  -24.9290   20.0220 C   0  0  0  0  0  3  0  0  0  0  0  0
  -28.2730  -26.3960   20.2550 O   0  0  0  0  0  0  0  0  0  0  0  0
  -24.6150  -31.9030   23.2490 C   0  0  0  0  0  0  0  0  0  0  0  0
  -27.1840  -27.2970   20.1880 C   0  0  0  0  0  0  0  0  0  0  0  0
  -23.4020  -30.5120   21.6140 C   0  0  0  0  0  3  0  0  0  0  0  0
  -24.8410  -28.9580   20.1780 C   0  0  0  0  0  0  0  0  0  0  0  0
  -25.9460  -30.8080   21.4270 C   0  0  0  0  0  2  0  0  0  0  0  0
  -26.0170  -29.4270   20.7770 C   0  0  0  0  0  0  0  0  0  0  0  0
  -27.1920  -28.6100   20.7710 C   0  0  0  0  0  3  0  0  0  0  0  0
  -25.9850  -26.9010   19.5510 C   0  0  0  0  0  3  0  0  0  0  0  0
  -24.8290  -27.7040   19.5550 C   0  0  0  0  0  3  0  0  0  0  0  0
  -23.6100  -29.8420   20.2320 C   0  0  0  0  0  2  0  0  0  0  0  0
  -24.6730  -31.0920   22.1540 N   0  0  0  0  0  0  0  0  0  0  0  0
  -23.5340  -32.1870   23.7850 O   0  0  0  0  0  0  0  0  0  0  0  0
  -22.7350  -29.4970   22.5740 C   0  0  0  0  0  0  0  0  0  0  0  0
  -21.4070  -29.3270   22.4520 N   0  0  0  0  0  0  0  0  0  0  0  0
  -23.4120  -28.8660   23.3900 O   0  0  0  0  0  0  0  0  0  0  0  0
  -20.9190  -29.8870   21.7680 H   0  0  0  0  0  0  0  0  0  0  0  0
  -18.0250  -28.1470   22.9610 C   0  0  0  0  0  0  0  0  0  0  0  0
  -20.5860  -28.3940   23.2250 C   0  0  0  0  0  3  0  0  0  0  0  0
  -20.6790  -26.9610   22.6500 C   0  0  0  0  0  2  0  0  0  0  0  0
  -19.5730  -26.6440   21.6390 C   0  0  0  0  0  2  0  0  0  0  0  0
  -18.1940  -26.7960   22.2860 C   0  0  0  0  0  2  0  0  0  0  0  0
  -19.1490  -28.9030   23.3890 C   0  0  0  0  0  0  0  0  0  0  0  0
  -18.9380  -30.1670   23.9810 C   0  0  0  0  0  3  0  0  0  0  0  0
  -17.6360  -30.6740   24.1510 C   0  0  0  0  0  3  0  0  0  0  0  0
  -16.5270  -29.9150   23.7400 C   0  0  0  0  0  3  0  0  0  0  0  0
  -16.7220  -28.6530   23.1510 C   0  0  0  0  0  3  0  0  0  0  0  0
  -25.9000  -32.5320   23.8690 C   0  0  0  0  0  3  0  0  0  0  0  0
  -26.4140  -31.7600   25.1450 C   0  0  1  0  0  0  0  0  0  0  0  0
  -25.3210  -31.5310   26.2150 C   0  0  0  0  0  1  0  0  0  0  0  0
  -26.9890  -30.3790   24.7560 C   0  0  0  0  0  1  0  0  0  0  0  0
  -27.5690  -32.5490   25.8050 C   0  0  0  0  0  1  0  0  0  0  0  0
  -25.5960  -33.9320   24.1990 N   0  0  0  0  0  0  0  0  0  0  0  0
  -25.9160  -34.9830   23.4320 C   0  0  0  0  0  0  0  0  0  0  0  0
  -26.5680  -34.8760   22.3890 O   0  0  0  0  0  0  0  0  0  0  0  0
  -25.0150  -34.0890   25.0090 H   0  0  0  0  0  0  0  0  0  0  0  0
  -24.1770  -36.7730   23.1130 C   0  0  0  0  0  1  0  0  0  0  0  0
  -25.4390  -36.3730   23.8950 C   0  0  0  0  0  3  0  0  0  0  0  0
  -27.5920  -37.2640   24.6690 C   0  0  0  0  0  1  0  0  0  0  0  0
  -26.4670  -37.4260   23.7510 N   0  0  0  0  0  0  0  0  0  0  0  0
  -26.0640  -38.3470   23.9060 H   0  0  0  0  0  0  0  0  0  0  0  0
  1 49  1  0
  1  2  1  0
  1  4  1  0
  3  1  1  0
  6  9  1  0
  7  6  1  1
  7  5  1  0
  7 10  1  0
  7  8  1  0
  8  5  1  1
  9  4  1  0
  9  8  1  0
 10 19  1  0
 10  8  1  0
 11 19  1  0
 12 17  1  0
 13 14  1  0
 13 12  1  0
 15 14  1  0
 15 24  1  0
 15 16  1  0
 17 11  1  0
 17 16  1  0
 18 11  2  0
 19 20  1  0
 21 22  2  0
 22 41  1  0
 23 22  1  0
 23 26  1  0
 24 21  1  0
 24 25  1  0
 25 23  2  0
 26 27  1  0
 27 28  2  0
 29 32  1  0
 29 28  1  0
 30 29  2  0
 31 30  1  0
 31 26  2  0
 32 33  1  0
 33 34  1  0
 34 35  2  0
 36 35  1  0
 36 40  1  0
 37 36  2  0
 38 33  2  0
 38 37  1  0
 39 38  1  0
 41 42  1  0
 42 45  1  0
 42 44  1  0
 43 41  2  0
 46 47  1  0
 46 21  1  0
 48 46  1  0
 50 51  1  0
 50 49  2  0
 52 63  2  0
 53 51  1  0
 53 58  1  0
 54 62  1  0
 54 64  1  0
 55 61  1  0
 55 57  1  0
 56 62  1  0
 57 56  1  0
 58 57  2  0
 59 60  1  0
 59 53  2  0
 60 55  2  0
 61 54  1  0
 62 52  1  0
 64 66  2  0
 65 64  1  0
 67 65  1  0
 68 77  2  0
 68 73  1  0
 69 65  1  0
 69 73  1  0
 70 69  1  0
 71 72  1  0
 71 70  1  0
 72 68  1  0
 73 74  2  0
 74 75  1  0
 76 75  2  0
 77 76  1  0
 78 52  1  0
 78 83  1  0
 78 79  1  0
 79 82  1  1
 79 80  1  0
 81 79  1  0
 83 86  1  0
 84 88  1  0
 84 83  1  0
 85 84  2  0
 88 87  1  0
 90 88  1  0
 90 91  1  0
 90 89  1  0
M  ISO  4  11 100  19 100  50 101  51 101
M  END
>  <TORSDO>  (19) 
F 20

>  <SCORE>  (19) 
-13.792

>  <name>  (19) 
19

>  <ligand_id>  (19) 
19

>  <original_smiles>  (19) 
[H]c1c([H])c([H])c2c(c1[H])C([H])([H])C([H])([H])C([H])([H])C2([H])N([H])C(=O)C1([H])N(C(=O)C([H])(N([H])C(=O)C([H])(N([H])C([H])([H])[H])C([H])([H])[H])C(C([H])([H])[H])(C([H])([H])[H])C([H])([H])[H])C([H])([H])c2c([H])c(OC([H])([H])C([H])([H])[N+]([H])([H])C([H])([H])C3([H])C([H])([H])C4([H])C([H])([H])C3([H])C4([H])N([H])C(=O)N3C([H])([H])C([H])([H])C([H])([H])C([H])(n4nc(-c5c([H])c([H])c(Oc6c([H])c([H])c(F)c([H])c6F)c([H])c5[H])c(C(=O)N([H])[H])c4N([H])[H])C3([H])[H])c([H])c([H])c2C1([H])[H]

>  <smiles>  (19) 
[H]c1c([H])c([H])c2c(c1[H])C([H])([H])C([H])([H])C([H])([H])C2([H])N([H])C(=O)C1([H])N(C(=O)C([H])(N([H])C(=O)C([H])(N([H])C([H])([H])[H])C([H])([H])[H])C(C([H])([H])[H])(C([H])([H])[H])C([H])([H])[H])C([H])([H])c2c([H])c(OC([H])([H])C([H])([H])[N+]([H])([H])C([H])([H])C3([H])C([H])([H])C4([H])C([H])([H])C3([H])C4([H])N([H])C(=O)N3C([H])([H])C([H])([H])C([H])([H])C([H])(n4nc(-c5c([H])c([H])c(Oc6c([H])c([H])c(F)c([H])c6F)c([H])c5[H])c(C(=O)N([H])[H])c4N([H])[H])C3([H])[H])c([H])c([H])c2C1([H])[H]

$$$$
20:0:0
     RDKit          3D

 95103  0  0  1  0  0  0  0  0999 V2000
  -28.8170  -22.0880   19.4080 C   0  0  0  0  0  2  0  0  0  0  0  0
  -28.7100  -18.2320   20.5940 C   0  0  0  0  0  3  0  0  0  0  0  0
  -30.7530  -18.4840   19.4370 C   0  0  0  0  0  3  0  0  0  0  0  0
  -28.4440  -19.6470   20.4900 C   0  0  0  0  0  0  0  0  0  0  0  0
  -30.4990  -19.9160   19.3160 C   0  0  0  0  0  0  0  0  0  0  0  0
  -29.3120  -20.5730   19.8160 C   0  0  0  0  0  0  0  0  0  0  0  0
  -29.8500  -17.5610   20.0560 C   0  0  0  0  0  0  0  0  0  0  0  0
  -27.1290  -20.1370   21.0730 C   0  0  0  0  0  1  0  0  0  0  0  0
  -30.7190  -14.9870   19.7100 C   0  0  0  0  0  0  0  0  0  0  0  0
  -30.5110  -12.6930   18.6800 C   0  0  0  0  0  2  0  0  0  0  0  0
  -29.4620  -12.7510   17.5430 C   0  0  0  0  0  2  0  0  0  0  0  0
  -28.0370  -12.5500   18.0950 C   0  0  0  0  0  2  0  0  0  0  0  0
  -27.7620  -13.4160   19.3540 C   0  0  0  0  0  3  0  0  0  0  0  0
  -28.9160  -13.3120   20.3770 C   0  0  0  0  0  2  0  0  0  0  0  0
  -30.1490  -13.7220   19.6890 N   0  0  0  0  0  0  0  0  0  0  0  0
  -31.8520  -15.1390   19.2390 O   0  0  0  0  0  0  0  0  0  0  0  0
  -29.9160  -16.0490   20.1500 N   0  0  0  0  0  0  0  0  0  0  0  0
  -29.0940  -15.6670   20.5930 H   0  0  0  0  0  0  0  0  0  0  0  0
  -25.4580  -13.9950   20.3160 C   0  0  0  0  0  0  0  0  0  0  0  0
  -24.4200  -13.2160   20.7520 C   0  0  0  0  0  0  0  0  0  0  0  0
  -24.8620  -11.8630   20.6270 C   0  0  0  0  0  0  0  0  0  0  0  0
  -26.4640  -13.1170   19.9510 N   0  0  0  0  0  0  0  0  0  0  0  0
  -26.1200  -11.8270   20.2010 N   0  0  0  0  0  0  0  0  0  0  0  0
  -24.1410  -10.6010   20.8340 C   0  0  0  0  0  0  0  0  0  0  0  0
  -24.5730   -9.6490   21.7840 C   0  0  0  0  0  3  0  0  0  0  0  0
  -23.8520   -8.4520   21.9780 C   0  0  0  0  0  3  0  0  0  0  0  0
  -22.6820   -8.1980   21.2220 C   0  0  0  0  0  0  0  0  0  0  0  0
  -22.2680   -9.1380   20.2630 C   0  0  0  0  0  3  0  0  0  0  0  0
  -22.9920  -10.3260   20.0660 C   0  0  0  0  0  3  0  0  0  0  0  0
  -21.9320   -7.0510   21.3250 O   0  0  0  0  0  0  0  0  0  0  0  0
  -21.7830   -6.3930   22.5200 C   0  0  0  0  0  0  0  0  0  0  0  0
  -21.2180   -7.0210   23.6510 C   0  0  0  0  0  3  0  0  0  0  0  0
  -21.0200   -6.2860   24.8380 C   0  0  0  0  0  3  0  0  0  0  0  0
  -21.3760   -4.9260   24.8920 C   0  0  0  0  0  0  0  0  0  0  0  0
  -21.9330   -4.2980   23.7640 C   0  0  0  0  0  3  0  0  0  0  0  0
  -22.1330   -5.0280   22.5810 C   0  0  0  0  0  0  0  0  0  0  0  0
  -22.6510   -4.4130   21.4910 F   0  0  0  0  0  0  0  0  0  0  0  0
  -21.1790   -4.2180   26.0300 F   0  0  0  0  0  0  0  0  0  0  0  0
  -23.0580  -13.6940   21.1660 C   0  0  0  0  0  0  0  0  0  0  0  0
  -22.4080  -12.9780   22.0760 N   0  0  0  0  0  0  0  0  0  0  0  0
  -22.5850  -14.7380   20.7190 O   0  0  0  0  0  0  0  0  0  0  0  0
  -22.8070  -12.1330   22.4590 H   0  0  0  0  0  0  0  0  0  0  0  0
  -21.4990  -13.2790   22.3960 H   0  0  0  0  0  0  0  0  0  0  0  0
  -25.6190  -15.3710   20.1760 N   0  0  0  0  0  0  0  0  0  0  0  0
  -24.8640  -16.0190   20.3670 H   0  0  0  0  0  0  0  0  0  0  0  0
  -26.4190  -15.8130   19.7420 H   0  0  0  0  0  0  0  0  0  0  0  0
  -31.3790  -20.6230   17.0440 C   0  0  0  0  0  1  0  0  0  0  0  0
  -31.5360  -20.7350   18.5650 C   0  0  0  0  0  2  0  0  0  0  0  0
  -29.1220  -23.5610   20.1120 C   0  0  0  0  0  3  0  0  0  0  0  0
  -29.0860  -23.4220   21.5830 N   0  0  0  0  0  4  0  0  0  0  0  0
  -29.3930  -24.2750   22.0200 H   0  0  0  0  0  0  0  0  0  0  0  0
  -29.7030  -22.6850   21.8830 H   0  0  0  0  0  0  0  0  0  0  0  0
  -28.1610  -23.2200   21.9180 H   0  0  0  0  0  0  0  0  0  0  0  0
  -28.1860  -24.8680   19.6720 C   0  0  0  0  0  2  0  0  0  0  0  0
  -28.3550  -26.3430   20.0770 O   0  0  0  0  0  0  0  0  0  0  0  0
  -24.4740  -31.7310   23.1760 C   0  0  0  0  0  0  0  0  0  0  0  0
  -27.2500  -27.2550   20.0140 C   0  0  0  0  0  0  0  0  0  0  0  0
  -23.3330  -30.3400   21.4890 C   0  0  0  0  0  3  0  0  0  0  0  0
  -24.8480  -28.8750   20.0240 C   0  0  0  0  0  0  0  0  0  0  0  0
  -25.8720  -30.7200   21.3450 C   0  0  0  0  0  2  0  0  0  0  0  0
  -26.0030  -29.3570   20.6520 C   0  0  0  0  0  0  0  0  0  0  0  0
  -27.2040  -28.5620   20.6360 C   0  0  0  0  0  3  0  0  0  0  0  0
  -26.0690  -26.8700   19.3400 C   0  0  0  0  0  3  0  0  0  0  0  0
  -24.8900  -27.6430   19.3550 C   0  0  0  0  0  3  0  0  0  0  0  0
  -23.5840  -29.7140   20.0920 C   0  0  0  0  0  2  0  0  0  0  0  0
  -24.5780  -30.9490   22.0590 N   0  0  0  0  0  0  0  0  0  0  0  0
  -23.3770  -31.9580   23.7070 O   0  0  0  0  0  0  0  0  0  0  0  0
  -22.6940  -29.2770   22.4170 C   0  0  0  0  0  0  0  0  0  0  0  0
  -21.3780  -29.0450   22.2630 N   0  0  0  0  0  0  0  0  0  0  0  0
  -23.3830  -28.6650   23.2360 O   0  0  0  0  0  0  0  0  0  0  0  0
  -20.8770  -29.5930   21.5780 H   0  0  0  0  0  0  0  0  0  0  0  0
  -18.0500  -27.6820   22.6850 C   0  0  0  0  0  0  0  0  0  0  0  0
  -20.5900  -28.0540   23.0000 C   0  0  0  0  0  3  0  0  0  0  0  0
  -20.7650  -26.6410   22.3950 C   0  0  0  0  0  2  0  0  0  0  0  0
  -19.6950  -26.2920   21.3570 C   0  0  0  0  0  2  0  0  0  0  0  0
  -18.2980  -26.3590   21.9810 C   0  0  0  0  0  2  0  0  0  0  0  0
  -19.1260  -28.4860   23.1480 C   0  0  0  0  0  0  0  0  0  0  0  0
  -18.8390  -29.7210   23.7670 C   0  0  0  0  0  3  0  0  0  0  0  0
  -17.5090  -30.1580   23.9250 C   0  0  0  0  0  3  0  0  0  0  0  0
  -16.4480  -29.3520   23.4760 C   0  0  0  0  0  3  0  0  0  0  0  0
  -16.7200  -28.1160   22.8610 C   0  0  0  0  0  3  0  0  0  0  0  0
  -25.7270  -32.3940   23.8270 C   0  0  0  0  0  3  0  0  0  0  0  0
  -25.3810  -33.7880   24.1410 N   0  0  0  0  0  0  0  0  0  0  0  0
  -25.6820  -34.8420   23.3710 C   0  0  0  0  0  0  0  0  0  0  0  0
  -26.3470  -34.7450   22.3370 O   0  0  0  0  0  0  0  0  0  0  0  0
  -24.7870  -33.9360   24.9440 H   0  0  0  0  0  0  0  0  0  0  0  0
  -23.8910  -36.5780   23.0330 C   0  0  0  0  0  1  0  0  0  0  0  0
  -25.1640  -36.2240   23.8190 C   0  0  0  0  0  3  0  0  0  0  0  0
  -27.2850  -37.1940   24.5880 C   0  0  0  0  0  1  0  0  0  0  0  0
  -26.1610  -37.3050   23.6620 N   0  0  0  0  0  0  0  0  0  0  0  0
  -25.7290  -38.2150   23.7950 H   0  0  0  0  0  0  0  0  0  0  0  0
  -26.2220  -31.6420   25.1230 C   0  0  1  0  0  0  0  0  0  0  0  0
  -25.1040  -31.3910   26.1620 C   0  0  0  0  0  1  0  0  0  0  0  0
  -26.8440  -30.2730   24.7630 C   0  0  0  0  0  1  0  0  0  0  0  0
  -27.3370  -32.4660   25.8100 C   0  0  0  0  0  1  0  0  0  0  0  0
  1  6  1  0
  3  7  1  0
  4  2  1  0
  4  8  1  0
  5  3  2  0
  5  6  1  0
  6  4  2  0
  7 17  1  0
  7  2  2  0
  9 17  1  0
 10 15  1  0
 11 12  1  0
 11 10  1  0
 13 12  1  0
 13 22  1  0
 13 14  1  0
 15  9  1  0
 15 14  1  0
 16  9  2  0
 17 18  1  0
 19 20  2  0
 20 39  1  0
 21 20  1  0
 21 24  1  0
 22 23  1  0
 22 19  1  0
 23 21  2  0
 24 25  1  0
 25 26  2  0
 27 30  1  0
 27 26  1  0
 28 27  2  0
 29 28  1  0
 29 24  2  0
 30 31  1  0
 31 36  2  0
 31 32  1  0
 32 33  2  0
 33 34  1  0
 34 38  1  0
 35 34  2  0
 36 35  1  0
 37 36  1  0
 39 40  1  0
 40 43  1  0
 40 42  1  0
 41 39  2  0
 44 19  1  0
 44 45  1  0
 46 44  1  0
 47 48  1  0
 48  5  1  0
 49  1  1  0
 49 50  1  0
 50 52  1  0
 50 53  1  0
 50 51  1  0
 54 55  1  0
 54 49  1  0
 56 67  2  0
 57 55  1  0
 57 62  1  0
 58 66  1  0
 58 68  1  0
 59 65  1  0
 59 61  1  0
 60 66  1  0
 61 60  1  0
 62 61  2  0
 63 64  1  0
 63 57  2  0
 64 59  2  0
 65 58  1  0
 66 56  1  0
 68 70  2  0
 69 68  1  0
 71 69  1  0
 72 81  2  0
 72 77  1  0
 73 69  1  0
 73 77  1  0
 74 73  1  0
 75 76  1  0
 75 74  1  0
 76 72  1  0
 77 78  2  0
 78 79  1  0
 80 79  2  0
 81 80  1  0
 82 56  1  0
 82 83  1  0
 82 92  1  0
 83 86  1  0
 84 88  1  0
 84 83  1  0
 85 84  2  0
 88 87  1  0
 90 91  1  0
 90 88  1  0
 90 89  1  0
 92 95  1  1
 92 93  1  0
 94 92  1  0
M  ISO  4   9 100  17 100  54 101  55 101
M  END
>  <TORSDO>  (20) 
F 21

>  <SCORE>  (20) 
-11.230

>  <name>  (20) 
20

>  <ligand_id>  (20) 
20

>  <original_smiles>  (20) 
[H]c1c([H])c([H])c2c(c1[H])C([H])([H])C([H])([H])C([H])([H])C2([H])N([H])C(=O)C1([H])N(C(=O)C([H])(N([H])C(=O)C([H])(N([H])C([H])([H])[H])C([H])([H])[H])C(C([H])([H])[H])(C([H])([H])[H])C([H])([H])[H])C([H])([H])c2c([H])c(OC([H])([H])C([H])(C([H])([H])c3c(C([H])([H])[H])c([H])c(N([H])C(=O)N4C([H])([H])C([H])([H])C([H])([H])C([H])(n5nc(-c6c([H])c([H])c(Oc7c([H])c([H])c(F)c([H])c7F)c([H])c6[H])c(C(=O)N([H])[H])c5N([H])[H])C4([H])[H])c([H])c3C([H])([H])C([H])([H])[H])[N+]([H])([H])[H])c([H])c([H])c2C1([H])[H]

>  <smiles>  (20) 
[H]c1c([H])c([H])c2c(c1[H])C([H])([H])C([H])([H])C([H])([H])C2([H])N([H])C(=O)C1([H])N(C(=O)C([H])(N([H])C(=O)C([H])(N([H])C([H])([H])[H])C([H])([H])[H])C(C([H])([H])[H])(C([H])([H])[H])C([H])([H])[H])C([H])([H])c2c([H])c(OC([H])([H])C([H])(C([H])([H])c3c(C([H])([H])[H])c([H])c(N([H])C(=O)N4C([H])([H])C([H])([H])C([H])([H])C([H])(n5nc(-c6c([H])c([H])c(Oc7c([H])c([H])c(F)c([H])c7F)c([H])c6[H])c(C(=O)N([H])[H])c5N([H])[H])C4([H])[H])c([H])c3C([H])([H])C([H])([H])[H])[N+]([H])([H])[H])c([H])c([H])c2C1([H])[H]

$$$$
21:0:0
     RDKit          3D

 97106  0  0  1  0  0  0  0  0999 V2000
  -27.6620  -21.2860   19.9430 C   0  0  0  0  0  3  0  0  0  0  0  0
  -26.7270  -23.5470   16.9750 C   0  0  0  0  0  3  0  0  0  0  0  0
  -27.3200  -24.7740   17.3210 C   0  0  0  0  0  3  0  0  0  0  0  0
  -26.8890  -22.4300   17.8140 C   0  0  0  0  0  3  0  0  0  0  0  0
  -28.2620  -23.7610   19.3330 C   0  0  0  0  0  3  0  0  0  0  0  0
  -28.0800  -24.9040   18.5040 C   0  0  0  0  0  0  0  0  0  0  0  0
  -27.6470  -22.5140   19.0040 C   0  0  0  0  0  0  0  0  0  0  0  0
  -28.7400  -26.2670   18.7720 C   0  0  0  0  0  2  0  0  0  0  0  0
  -28.3710  -26.9920   19.9550 O   0  0  0  0  0  0  0  0  0  0  0  0
  -24.7130  -31.9970   23.4570 C   0  0  0  0  0  0  0  0  0  0  0  0
  -27.2130  -27.7450   19.9780 C   0  0  0  0  0  0  0  0  0  0  0  0
  -23.4390  -30.7190   21.7670 C   0  0  0  0  0  3  0  0  0  0  0  0
  -24.8290  -29.2710   20.1870 C   0  0  0  0  0  0  0  0  0  0  0  0
  -25.9610  -31.0620   21.5100 C   0  0  0  0  0  2  0  0  0  0  0  0
  -26.0100  -29.7350   20.7780 C   0  0  0  0  0  0  0  0  0  0  0  0
  -27.1980  -28.9710   20.6840 C   0  0  0  0  0  3  0  0  0  0  0  0
  -26.0160  -27.3000   19.3790 C   0  0  0  0  0  3  0  0  0  0  0  0
  -24.8290  -28.0500   19.4880 C   0  0  0  0  0  3  0  0  0  0  0  0
  -23.5960  -30.1350   20.3350 C   0  0  0  0  0  2  0  0  0  0  0  0
  -24.7240  -31.2730   22.3020 N   0  0  0  0  0  0  0  0  0  0  0  0
  -23.6530  -32.2380   24.0530 O   0  0  0  0  0  0  0  0  0  0  0  0
  -22.8110  -29.6380   22.6770 C   0  0  0  0  0  0  0  0  0  0  0  0
  -21.5010  -29.3980   22.5000 N   0  0  0  0  0  0  0  0  0  0  0  0
  -23.5010  -29.0220   23.4960 O   0  0  0  0  0  0  0  0  0  0  0  0
  -21.0070  -29.9540   21.8130 H   0  0  0  0  0  0  0  0  0  0  0  0
  -18.2090  -27.9370   22.7690 C   0  0  0  0  0  0  0  0  0  0  0  0
  -20.7120  -28.3950   23.2110 C   0  0  0  0  0  3  0  0  0  0  0  0
  -20.9710  -26.9790   22.6430 C   0  0  0  0  0  2  0  0  0  0  0  0
  -19.9590  -26.5570   21.5710 C   0  0  0  0  0  2  0  0  0  0  0  0
  -18.5380  -26.5980   22.1320 C   0  0  0  0  0  2  0  0  0  0  0  0
  -19.2310  -28.7850   23.2650 C   0  0  0  0  0  0  0  0  0  0  0  0
  -18.8770  -30.0280   23.8310 C   0  0  0  0  0  3  0  0  0  0  0  0
  -17.5290  -30.4250   23.9080 C   0  0  0  0  0  3  0  0  0  0  0  0
  -16.5170  -29.5770   23.4250 C   0  0  0  0  0  3  0  0  0  0  0  0
  -16.8580  -28.3370   22.8570 C   0  0  0  0  0  3  0  0  0  0  0  0
  -26.0260  -32.5740   24.0730 C   0  0  0  0  0  3  0  0  0  0  0  0
  -25.7640  -33.9700   24.4490 N   0  0  0  0  0  0  0  0  0  0  0  0
  -26.0960  -35.0350   23.7070 C   0  0  0  0  0  0  0  0  0  0  0  0
  -26.7310  -34.9440   22.6530 O   0  0  0  0  0  0  0  0  0  0  0  0
  -25.2030  -34.1150   25.2770 H   0  0  0  0  0  0  0  0  0  0  0  0
  -24.3860  -36.8620   23.4640 C   0  0  0  0  0  1  0  0  0  0  0  0
  -25.6530  -36.4220   24.2150 C   0  0  0  0  0  3  0  0  0  0  0  0
  -27.8310  -37.2530   24.9800 C   0  0  0  0  0  1  0  0  0  0  0  0
  -26.6980  -37.4600   24.0810 N   0  0  0  0  0  0  0  0  0  0  0  0
  -26.3140  -38.3830   24.2580 H   0  0  0  0  0  0  0  0  0  0  0  0
  -26.5440  -31.7530   25.3140 C   0  0  1  0  0  0  0  0  0  0  0  0
  -25.4600  -31.4950   26.3870 C   0  0  0  0  0  1  0  0  0  0  0  0
  -27.0980  -30.3820   24.8630 C   0  0  0  0  0  1  0  0  0  0  0  0
  -27.7200  -32.5020   25.9850 C   0  0  0  0  0  1  0  0  0  0  0  0
  -30.3770  -18.6760   21.0170 C   0  0  0  0  0  2  0  0  0  0  0  0
  -29.4810  -19.9050   21.2740 C   0  0  0  0  0  2  0  0  0  0  0  0
  -28.7350  -18.9700   19.2340 C   0  0  0  0  0  2  0  0  0  0  0  0
  -29.8740  -18.0270   19.7140 C   0  0  0  0  0  3  0  0  0  0  0  0
  -28.9380  -20.3530   19.9030 C   0  0  0  0  0  3  0  0  0  0  0  0
  -29.4670  -16.5290   19.8500 C   0  0  0  0  0  2  0  0  0  0  0  0
  -31.0660  -14.6430   19.9370 C   0  0  0  0  0  0  0  0  0  0  0  0
  -30.7520  -12.4000   18.9530 C   0  0  0  0  0  2  0  0  0  0  0  0
  -29.7690  -12.4750   17.7690 C   0  0  0  0  0  2  0  0  0  0  0  0
  -28.3190  -12.3340   18.2690 C   0  0  0  0  0  2  0  0  0  0  0  0
  -28.0000  -13.2820   19.4560 C   0  0  0  0  0  3  0  0  0  0  0  0
  -29.0940  -13.1910   20.5430 C   0  0  0  0  0  2  0  0  0  0  0  0
  -30.3880  -13.4620   19.9040 N   0  0  0  0  0  0  0  0  0  0  0  0
  -32.1670  -14.7980   19.4090 O   0  0  0  0  0  0  0  0  0  0  0  0
  -30.4670  -15.6880   20.5420 N   0  0  0  0  0  0  0  0  0  0  0  0
  -31.1470  -16.2630   21.0180 H   0  0  0  0  0  0  0  0  0  0  0  0
  -25.6530  -13.9370   20.2860 C   0  0  0  0  0  0  0  0  0  0  0  0
  -24.5900  -13.1820   20.7020 C   0  0  0  0  0  0  0  0  0  0  0  0
  -25.0210  -11.8220   20.6390 C   0  0  0  0  0  0  0  0  0  0  0  0
  -26.6670  -13.0350   19.9990 N   0  0  0  0  0  0  0  0  0  0  0  0
  -26.2940  -11.7600   20.2710 N   0  0  0  0  0  0  0  0  0  0  0  0
  -24.2810  -10.5730   20.8520 C   0  0  0  0  0  0  0  0  0  0  0  0
  -24.6810   -9.6330   21.8270 C   0  0  0  0  0  3  0  0  0  0  0  0
  -23.9390   -8.4480   22.0230 C   0  0  0  0  0  3  0  0  0  0  0  0
  -22.7860   -8.1940   21.2420 C   0  0  0  0  0  0  0  0  0  0  0  0
  -22.4060   -9.1230   20.2580 C   0  0  0  0  0  3  0  0  0  0  0  0
  -23.1480  -10.2990   20.0610 C   0  0  0  0  0  3  0  0  0  0  0  0
  -22.0150   -7.0600   21.3480 O   0  0  0  0  0  0  0  0  0  0  0  0
  -21.8580   -6.4050   22.5450 C   0  0  0  0  0  0  0  0  0  0  0  0
  -21.3020   -7.0430   23.6740 C   0  0  0  0  0  3  0  0  0  0  0  0
  -21.0930   -6.3150   24.8630 C   0  0  0  0  0  3  0  0  0  0  0  0
  -21.4280   -4.9490   24.9230 C   0  0  0  0  0  0  0  0  0  0  0  0
  -21.9810   -4.3110   23.7980 C   0  0  0  0  0  3  0  0  0  0  0  0
  -22.1910   -5.0370   22.6120 C   0  0  0  0  0  0  0  0  0  0  0  0
  -22.7010   -4.4110   21.5240 F   0  0  0  0  0  0  0  0  0  0  0  0
  -21.2230   -4.2470   26.0630 F   0  0  0  0  0  0  0  0  0  0  0  0
  -23.2180  -13.6820   21.0500 C   0  0  0  0  0  0  0  0  0  0  0  0
  -22.5290  -13.0010   21.9580 N   0  0  0  0  0  0  0  0  0  0  0  0
  -22.7680  -14.7120   20.5470 O   0  0  0  0  0  0  0  0  0  0  0  0
  -22.9060  -12.1670   22.3830 H   0  0  0  0  0  0  0  0  0  0  0  0
  -21.6120  -13.3230   22.2380 H   0  0  0  0  0  0  0  0  0  0  0  0
  -25.8340  -15.3070   20.1040 N   0  0  0  0  0  0  0  0  0  0  0  0
  -25.0780  -15.9700   20.2410 H   0  0  0  0  0  0  0  0  0  0  0  0
  -26.6660  -15.7250   19.7090 H   0  0  0  0  0  0  0  0  0  0  0  0
  -27.2990  -21.7450   21.2930 N   0  0  0  0  0  4  0  0  0  0  0  0
  -26.4660  -22.3050   21.2340 H   0  0  0  0  0  0  0  0  0  0  0  0
  -28.0230  -22.3040   21.7020 H   0  0  0  0  0  0  0  0  0  0  0  0
  -27.1050  -20.9600   21.8880 H   0  0  0  0  0  0  0  0  0  0  0  0
  1 94  1  0
  2  3  2  0
  2  4  1  0
  3  6  1  0
  4  7  2  0
  6  8  1  0
  6  5  2  0
  7  5  1  0
  7  1  1  0
  8  9  1  0
  9 11  1  0
 10 21  2  0
 11 16  1  0
 12 20  1  0
 12 22  1  0
 13 19  1  0
 13 15  1  0
 14 20  1  0
 15 14  1  0
 16 15  2  0
 17 18  1  0
 17 11  2  0
 18 13  2  0
 19 12  1  0
 20 10  1  0
 22 24  2  0
 23 22  1  0
 25 23  1  0
 26 35  2  0
 26 31  1  0
 27 23  1  0
 27 31  1  0
 28 27  1  0
 29 30  1  0
 29 28  1  0
 30 26  1  0
 31 32  2  0
 32 33  1  0
 34 33  2  0
 35 34  1  0
 36 10  1  0
 36 37  1  0
 36 46  1  0
 37 40  1  0
 38 42  1  0
 38 37  1  0
 39 38  2  0
 42 41  1  0
 44 42  1  0
 44 45  1  0
 44 43  1  0
 46 49  1  1
 46 47  1  0
 48 46  1  0
 50 51  1  0
 52 53  1  0
 52 54  1  0
 53 55  1  0
 53 50  1  0
 54  1  1  0
 54 51  1  0
 55 64  1  0
 56 64  1  0
 57 62  1  0
 58 59  1  0
 58 57  1  0
 60 59  1  0
 60 69  1  0
 60 61  1  0
 62 56  1  0
 62 61  1  0
 63 56  2  0
 64 65  1  0
 66 67  2  0
 67 86  1  0
 68 67  1  0
 68 71  1  0
 69 70  1  0
 69 66  1  0
 70 68  2  0
 71 72  1  0
 72 73  2  0
 74 77  1  0
 74 73  1  0
 75 74  2  0
 76 75  1  0
 76 71  2  0
 77 78  1  0
 78 83  2  0
 78 79  1  0
 79 80  2  0
 80 81  1  0
 81 85  1  0
 82 81  2  0
 83 82  1  0
 84 83  1  0
 86 87  1  0
 87 90  1  0
 87 89  1  0
 88 86  2  0
 91 92  1  0
 91 66  1  0
 93 91  1  0
 94 96  1  0
 94 97  1  0
 95 94  1  0
M  ISO  4   8 101   9 101  56 100  64 100
M  END
>  <TORSDO>  (21) 
F 21

>  <SCORE>  (21) 
-12.385

>  <name>  (21) 
21

>  <ligand_id>  (21) 
21

>  <original_smiles>  (21) 
[H]c1c([H])c([H])c2c(c1[H])C([H])([H])C([H])([H])C([H])([H])C2([H])N([H])C(=O)C1([H])N(C(=O)C([H])(N([H])C(=O)C([H])(N([H])C([H])([H])[H])C([H])([H])[H])C(C([H])([H])[H])(C([H])([H])[H])C([H])([H])[H])C([H])([H])c2c([H])c(OC([H])([H])c3c([H])c([H])c([H])c(C([H])(C4([H])C([H])([H])C([H])([H])C([H])(C([H])([H])N([H])C(=O)N5C([H])([H])C([H])([H])C([H])([H])C([H])(n6nc(-c7c([H])c([H])c(Oc8c([H])c([H])c(F)c([H])c8F)c([H])c7[H])c(C(=O)N([H])[H])c6N([H])[H])C5([H])[H])C4([H])[H])[N+]([H])([H])[H])c3[H])c([H])c([H])c2C1([H])[H]

>  <smiles>  (21) 
[H]c1c([H])c([H])c2c(c1[H])C([H])([H])C([H])([H])C([H])([H])C2([H])N([H])C(=O)C1([H])N(C(=O)C([H])(N([H])C(=O)C([H])(N([H])C([H])([H])[H])C([H])([H])[H])C(C([H])([H])[H])(C([H])([H])[H])C([H])([H])[H])C([H])([H])c2c([H])c(OC([H])([H])c3c([H])c([H])c([H])c(C([H])(C4([H])C([H])([H])C([H])([H])C([H])(C([H])([H])N([H])C(=O)N5C([H])([H])C([H])([H])C([H])([H])C([H])(n6nc(-c7c([H])c([H])c(Oc8c([H])c([H])c(F)c([H])c8F)c([H])c7[H])c(C(=O)N([H])[H])c6N([H])[H])C5([H])[H])C4([H])[H])[N+]([H])([H])[H])c3[H])c([H])c([H])c2C1([H])[H]

$$$$
22:0:0
     RDKit          3D

 93101  0  0  1  0  0  0  0  0999 V2000
  -30.9400  -19.8530   19.7440 C   0  0  0  0  0  2  0  0  0  0  0  0
  -30.4160  -18.4050   19.7640 C   0  0  0  0  0  2  0  0  0  0  0  0
  -30.2900  -20.0680   22.1630 C   0  0  0  0  0  2  0  0  0  0  0  0
  -30.1410  -20.6860   20.7520 C   0  0  0  0  0  3  0  0  0  0  0  0
  -30.4750  -17.7720   21.1820 C   0  0  0  0  0  3  0  0  0  0  0  0
  -29.8290  -18.6600   22.1870 N   0  0  0  0  0  4  0  0  0  0  0  0
  -28.8330  -18.6610   22.0370 H   0  0  0  0  0  0  0  0  0  0  0  0
  -29.9940  -18.2980   23.1130 H   0  0  0  0  0  0  0  0  0  0  0  0
  -30.5750  -22.0870   20.7170 N   0  0  0  0  0  0  0  0  0  0  0  0
  -31.1460  -22.2320   19.8870 H   0  0  0  0  0  0  0  0  0  0  0  0
  -29.3980  -22.9530   20.6330 C   0  0  0  0  0  2  0  0  0  0  0  0
  -29.7180  -24.4630   20.5890 C   0  0  0  0  0  2  0  0  0  0  0  0
  -28.4560  -25.2460   20.1800 C   0  0  0  0  0  2  0  0  0  0  0  0
  -28.5780  -26.6660   20.3090 O   0  0  0  0  0  0  0  0  0  0  0  0
  -24.6620  -31.8320   23.2270 C   0  0  0  0  0  0  0  0  0  0  0  0
  -27.3980  -27.3850   20.2450 C   0  0  0  0  0  0  0  0  0  0  0  0
  -23.4980  -30.4110   21.5700 C   0  0  0  0  0  3  0  0  0  0  0  0
  -24.9900  -28.8750   20.1920 C   0  0  0  0  0  0  0  0  0  0  0  0
  -26.0260  -30.7860   21.4240 C   0  0  0  0  0  2  0  0  0  0  0  0
  -26.1330  -29.4120   20.7970 C   0  0  0  0  0  0  0  0  0  0  0  0
  -27.3390  -28.6740   20.8210 C   0  0  0  0  0  3  0  0  0  0  0  0
  -26.2320  -26.8680   19.6290 C   0  0  0  0  0  3  0  0  0  0  0  0
  -25.0330  -27.6010   19.6060 C   0  0  0  0  0  3  0  0  0  0  0  0
  -23.7390  -29.7210   20.2020 C   0  0  0  0  0  2  0  0  0  0  0  0
  -24.7460  -31.0240   22.1320 N   0  0  0  0  0  0  0  0  0  0  0  0
  -23.5670  -32.1030   23.7400 O   0  0  0  0  0  0  0  0  0  0  0  0
  -22.8300  -29.3940   22.5240 C   0  0  0  0  0  0  0  0  0  0  0  0
  -21.5110  -29.1970   22.3620 N   0  0  0  0  0  0  0  0  0  0  0  0
  -23.4960  -28.7840   23.3630 O   0  0  0  0  0  0  0  0  0  0  0  0
  -21.0350  -29.7430   21.6590 H   0  0  0  0  0  0  0  0  0  0  0  0
  -18.1340  -27.9770   22.7730 C   0  0  0  0  0  0  0  0  0  0  0  0
  -20.6790  -28.2620   23.1190 C   0  0  0  0  0  3  0  0  0  0  0  0
  -20.8120  -26.8240   22.5650 C   0  0  0  0  0  2  0  0  0  0  0  0
  -19.7440  -26.4790   21.5230 C   0  0  0  0  0  2  0  0  0  0  0  0
  -18.3420  -26.6200   22.1220 C   0  0  0  0  0  2  0  0  0  0  0  0
  -19.2320  -28.7550   23.2260 C   0  0  0  0  0  0  0  0  0  0  0  0
  -18.9830  -30.0250   23.7900 C   0  0  0  0  0  3  0  0  0  0  0  0
  -17.6690  -30.5140   23.9080 C   0  0  0  0  0  3  0  0  0  0  0  0
  -16.5860  -29.7330   23.4700 C   0  0  0  0  0  3  0  0  0  0  0  0
  -16.8200  -28.4660   22.9070 C   0  0  0  0  0  3  0  0  0  0  0  0
  -25.9320  -32.4700   23.8710 C   0  0  0  0  0  3  0  0  0  0  0  0
  -25.6070  -33.8670   24.1890 N   0  0  0  0  0  0  0  0  0  0  0  0
  -25.9360  -34.9170   23.4240 C   0  0  0  0  0  0  0  0  0  0  0  0
  -26.6170  -34.8130   22.4000 O   0  0  0  0  0  0  0  0  0  0  0  0
  -24.9980  -34.0210   24.9790 H   0  0  0  0  0  0  0  0  0  0  0  0
  -24.1900  -36.6870   23.0450 C   0  0  0  0  0  1  0  0  0  0  0  0
  -25.4310  -36.3030   23.8660 C   0  0  0  0  0  3  0  0  0  0  0  0
  -27.5500  -37.2210   24.7010 C   0  0  0  0  0  1  0  0  0  0  0  0
  -26.4520  -37.3670   23.7480 N   0  0  0  0  0  0  0  0  0  0  0  0
  -26.0350  -38.2830   23.8820 H   0  0  0  0  0  0  0  0  0  0  0  0
  -26.4310  -31.7050   25.1570 C   0  0  1  0  0  0  0  0  0  0  0  0
  -25.3190  -31.4600   26.2020 C   0  0  0  0  0  1  0  0  0  0  0  0
  -27.0350  -30.3330   24.7790 C   0  0  0  0  0  1  0  0  0  0  0  0
  -27.5610  -32.5110   25.8390 C   0  0  0  0  0  1  0  0  0  0  0  0
  -29.8740  -16.3330   21.2450 C   0  0  0  0  0  2  0  0  0  0  0  0
  -31.0350  -14.4060   20.1350 C   0  0  0  0  0  0  0  0  0  0  0  0
  -30.6180  -12.3050   18.9420 C   0  0  0  0  0  2  0  0  0  0  0  0
  -29.6560  -12.6020   17.7720 C   0  0  0  0  0  2  0  0  0  0  0  0
  -28.1890  -12.5090   18.2400 C   0  0  0  0  0  2  0  0  0  0  0  0
  -27.9180  -13.2920   19.5540 C   0  0  0  0  0  3  0  0  0  0  0  0
  -29.0010  -13.0080   20.6200 C   0  0  0  0  0  2  0  0  0  0  0  0
  -30.3100  -13.2670   20.0080 N   0  0  0  0  0  0  0  0  0  0  0  0
  -32.1980  -14.5170   19.7520 O   0  0  0  0  0  0  0  0  0  0  0  0
  -30.2980  -15.5220   20.1060 N   0  0  0  0  0  0  0  0  0  0  0  0
  -30.6590  -16.1230   19.3800 H   0  0  0  0  0  0  0  0  0  0  0  0
  -25.5380  -13.9330   20.2960 C   0  0  0  0  0  0  0  0  0  0  0  0
  -24.4700  -13.1770   20.6930 C   0  0  0  0  0  0  0  0  0  0  0  0
  -24.9140  -11.8180   20.6680 C   0  0  0  0  0  0  0  0  0  0  0  0
  -26.5700  -13.0380   20.0580 N   0  0  0  0  0  0  0  0  0  0  0  0
  -26.1980  -11.7620   20.3370 N   0  0  0  0  0  0  0  0  0  0  0  0
  -24.1770  -10.5660   20.8800 C   0  0  0  0  0  0  0  0  0  0  0  0
  -24.5940   -9.6170   21.8390 C   0  0  0  0  0  3  0  0  0  0  0  0
  -23.8590   -8.4290   22.0360 C   0  0  0  0  0  3  0  0  0  0  0  0
  -22.6920   -8.1800   21.2730 C   0  0  0  0  0  0  0  0  0  0  0  0
  -22.2950   -9.1180   20.3040 C   0  0  0  0  0  3  0  0  0  0  0  0
  -23.0330  -10.2980   20.1050 C   0  0  0  0  0  3  0  0  0  0  0  0
  -21.9310   -7.0410   21.3800 O   0  0  0  0  0  0  0  0  0  0  0  0
  -21.8340   -6.3480   22.5610 C   0  0  0  0  0  0  0  0  0  0  0  0
  -21.3490   -6.9500   23.7430 C   0  0  0  0  0  3  0  0  0  0  0  0
  -21.1990   -6.1820   24.9140 C   0  0  0  0  0  3  0  0  0  0  0  0
  -21.5250   -4.8130   24.9060 C   0  0  0  0  0  0  0  0  0  0  0  0
  -22.0060   -4.2100   23.7300 C   0  0  0  0  0  3  0  0  0  0  0  0
  -22.1550   -4.9740   22.5600 C   0  0  0  0  0  0  0  0  0  0  0  0
  -22.5970   -4.3820   21.4230 F   0  0  0  0  0  0  0  0  0  0  0  0
  -21.3760   -4.0730   26.0300 F   0  0  0  0  0  0  0  0  0  0  0  0
  -23.0830  -13.6720   20.9910 C   0  0  0  0  0  0  0  0  0  0  0  0
  -22.3650  -12.9920   21.8780 N   0  0  0  0  0  0  0  0  0  0  0  0
  -22.6460  -14.6970   20.4670 O   0  0  0  0  0  0  0  0  0  0  0  0
  -22.7310  -12.1610   22.3220 H   0  0  0  0  0  0  0  0  0  0  0  0
  -21.4360  -13.3060   22.1180 H   0  0  0  0  0  0  0  0  0  0  0  0
  -25.7150  -15.2980   20.0950 N   0  0  0  0  0  0  0  0  0  0  0  0
  -24.9520  -15.9590   20.1930 H   0  0  0  0  0  0  0  0  0  0  0  0
  -26.5540  -15.7100   19.7080 H   0  0  0  0  0  0  0  0  0  0  0  0
  1  2  1  0
  1  4  1  0
  2  5  1  0
  3  6  1  0
  4  9  1  0
  4  3  1  0
  5 55  1  0
  5  6  1  0
  6  8  1  0
  7  6  1  0
 10  9  1  0
 11  9  1  0
 12 11  1  0
 13 14  1  0
 13 12  1  0
 15 26  2  0
 16 14  1  0
 16 21  1  0
 17 25  1  0
 17 27  1  0
 18 24  1  0
 18 20  1  0
 19 25  1  0
 20 21  2  0
 20 19  1  0
 22 16  2  0
 23 22  1  0
 23 18  2  0
 24 17  1  0
 25 15  1  0
 27 29  2  0
 28 27  1  0
 30 28  1  0
 31 40  2  0
 31 36  1  0
 32 28  1  0
 32 36  1  0
 33 32  1  0
 34 35  1  0
 34 33  1  0
 35 31  1  0
 36 37  2  0
 37 38  1  0
 39 38  2  0
 40 39  1  0
 41 15  1  0
 41 42  1  0
 41 51  1  0
 42 45  1  0
 43 47  1  0
 43 42  1  0
 44 43  2  0
 47 46  1  0
 49 47  1  0
 49 50  1  0
 49 48  1  0
 51 54  1  1
 51 52  1  0
 53 51  1  0
 57 62  1  0
 58 59  1  0
 58 57  1  0
 60 59  1  0
 60 69  1  0
 60 61  1  0
 62 56  1  0
 62 61  1  0
 63 56  2  0
 64 56  1  0
 64 55  1  0
 65 64  1  0
 66 67  2  0
 67 86  1  0
 68 67  1  0
 68 71  1  0
 69 66  1  0
 69 70  1  0
 70 68  2  0
 71 72  1  0
 72 73  2  0
 74 77  1  0
 74 73  1  0
 75 74  2  0
 76 75  1  0
 76 71  2  0
 77 78  1  0
 78 79  1  0
 79 80  2  0
 81 80  1  0
 81 85  1  0
 82 81  2  0
 83 78  2  0
 83 82  1  0
 84 83  1  0
 86 87  1  0
 87 90  1  0
 87 89  1  0
 88 86  2  0
 91 92  1  0
 91 66  1  0
 93 91  1  0
M  ISO  4  13 101  14 101  56 100  64 100
M  END
>  <TORSDO>  (22) 
F 21

>  <SCORE>  (22) 
-12.689

>  <name>  (22) 
22

>  <ligand_id>  (22) 
22

>  <original_smiles>  (22) 
[H]c1c([H])c([H])c2c(c1[H])C([H])([H])C([H])([H])C([H])([H])C2([H])N([H])C(=O)C1([H])N(C(=O)C([H])(N([H])C(=O)C([H])(N([H])C([H])([H])[H])C([H])([H])[H])C(C([H])([H])[H])(C([H])([H])[H])C([H])([H])[H])C([H])([H])c2c([H])c(OC([H])([H])C([H])([H])C([H])([H])N([H])C3([H])C([H])([H])C([H])([H])C([H])(C([H])([H])N([H])C(=O)N4C([H])([H])C([H])([H])C([H])([H])C([H])(n5nc(-c6c([H])c([H])c(Oc7c([H])c([H])c(F)c([H])c7F)c([H])c6[H])c(C(=O)N([H])[H])c5N([H])[H])C4([H])[H])[N+]([H])([H])C3([H])[H])c([H])c([H])c2C1([H])[H]

>  <smiles>  (22) 
[H]c1c([H])c([H])c2c(c1[H])C([H])([H])C([H])([H])C([H])([H])C2([H])N([H])C(=O)C1([H])N(C(=O)C([H])(N([H])C(=O)C([H])(N([H])C([H])([H])[H])C([H])([H])[H])C(C([H])([H])[H])(C([H])([H])[H])C([H])([H])[H])C([H])([H])c2c([H])c(OC([H])([H])C([H])([H])C([H])([H])N([H])C3([H])C([H])([H])C([H])([H])C([H])(C([H])([H])N([H])C(=O)N4C([H])([H])C([H])([H])C([H])([H])C([H])(n5nc(-c6c([H])c([H])c(Oc7c([H])c([H])c(F)c([H])c7F)c([H])c6[H])c(C(=O)N([H])[H])c5N([H])[H])C4([H])[H])[N+]([H])([H])C3([H])[H])c([H])c([H])c2C1([H])[H]

$$$$
23:0:0
     RDKit          3D

 92102  0  0  1  0  0  0  0  0999 V2000
  -28.5940  -22.3130   21.5700 N   0  0  0  0  0  4  0  0  0  0  0  0
  -27.6240  -22.0930   21.7320 H   0  0  0  0  0  0  0  0  0  0  0  0
  -28.7880  -22.1440   20.5970 H   0  0  0  0  0  0  0  0  0  0  0  0
  -29.4380  -21.3960   22.3730 C   0  0  0  0  0  2  0  0  0  0  0  0
  -29.2860  -19.9260   21.9330 C   0  0  0  0  0  2  0  0  0  0  0  0
  -30.0080  -19.6470   20.6090 C   0  0  0  0  0  2  0  0  0  0  0  0
  -31.0700  -14.7450   19.9870 C   0  0  0  0  0  0  0  0  0  0  0  0
  -30.6690  -12.5500   19.0030 C   0  0  0  0  0  2  0  0  0  0  0  0
  -29.7180  -12.7280   17.8040 C   0  0  0  0  0  2  0  0  0  0  0  0
  -28.2530  -12.6290   18.2740 C   0  0  0  0  0  2  0  0  0  0  0  0
  -27.9380  -13.5090   19.5140 C   0  0  0  0  0  3  0  0  0  0  0  0
  -29.0290  -13.3860   20.6020 C   0  0  0  0  0  2  0  0  0  0  0  0
  -30.3350  -13.6040   19.9660 N   0  0  0  0  0  0  0  0  0  0  0  0
  -32.2840  -14.7560   19.7840 O   0  0  0  0  0  0  0  0  0  0  0  0
  -28.9240  -17.6920   19.3420 C   0  0  0  0  0  2  0  0  0  0  0  0
  -29.8650  -18.2280   20.1000 C   0  0  0  0  0  3  0  0  0  0  0  0
  -31.0180  -17.0720   18.3850 C   0  0  0  0  0  2  0  0  0  0  0  0
  -29.6480  -16.4940   18.7810 C   0  0  2  0  0  0  0  0  0  0  0  0
  -31.0050  -17.2680   19.9140 C   0  0  1  0  0  0  0  0  0  0  0  0
  -30.3800  -15.9170   19.9430 N   0  0  0  0  0  0  0  0  0  0  0  0
  -25.5660  -14.1470   20.2590 C   0  0  0  0  0  0  0  0  0  0  0  0
  -24.4980  -13.3910   20.6520 C   0  0  0  0  0  0  0  0  0  0  0  0
  -24.9490  -12.0350   20.6400 C   0  0  0  0  0  0  0  0  0  0  0  0
  -26.6000  -13.2530   20.0350 N   0  0  0  0  0  0  0  0  0  0  0  0
  -26.2350  -11.9780   20.3190 N   0  0  0  0  0  0  0  0  0  0  0  0
  -24.2170  -10.7820   20.8620 C   0  0  0  0  0  0  0  0  0  0  0  0
  -24.6200   -9.8620   21.8550 C   0  0  0  0  0  3  0  0  0  0  0  0
  -23.8930   -8.6710   22.0610 C   0  0  0  0  0  3  0  0  0  0  0  0
  -22.7500   -8.3910   21.2740 C   0  0  0  0  0  0  0  0  0  0  0  0
  -22.3670   -9.3000   20.2720 C   0  0  0  0  0  3  0  0  0  0  0  0
  -23.0970  -10.4830   20.0630 C   0  0  0  0  0  3  0  0  0  0  0  0
  -21.9970   -7.2470   21.3850 O   0  0  0  0  0  0  0  0  0  0  0  0
  -21.8520   -6.5960   22.5830 C   0  0  0  0  0  0  0  0  0  0  0  0
  -21.3020   -7.2320   23.7190 C   0  0  0  0  0  3  0  0  0  0  0  0
  -21.1110   -6.5040   24.9100 C   0  0  0  0  0  3  0  0  0  0  0  0
  -21.4570   -5.1410   24.9650 C   0  0  0  0  0  0  0  0  0  0  0  0
  -22.0010   -4.5040   23.8350 C   0  0  0  0  0  3  0  0  0  0  0  0
  -22.1960   -5.2300   22.6470 C   0  0  0  0  0  0  0  0  0  0  0  0
  -22.6980   -4.6060   21.5550 F   0  0  0  0  0  0  0  0  0  0  0  0
  -21.2660   -4.4390   26.1080 F   0  0  0  0  0  0  0  0  0  0  0  0
  -23.1070  -13.8810   20.9310 C   0  0  0  0  0  0  0  0  0  0  0  0
  -22.3910  -13.2080   21.8250 N   0  0  0  0  0  0  0  0  0  0  0  0
  -22.6670  -14.8960   20.3940 O   0  0  0  0  0  0  0  0  0  0  0  0
  -22.7610  -12.3910   22.2870 H   0  0  0  0  0  0  0  0  0  0  0  0
  -21.4570  -13.5190   22.0560 H   0  0  0  0  0  0  0  0  0  0  0  0
  -25.7390  -15.5140   20.0530 N   0  0  0  0  0  0  0  0  0  0  0  0
  -24.9930  -16.1880   20.1840 H   0  0  0  0  0  0  0  0  0  0  0  0
  -26.6120  -15.9390   19.7740 H   0  0  0  0  0  0  0  0  0  0  0  0
  -28.8170  -23.7520   21.8450 C   0  0  0  0  0  2  0  0  0  0  0  0
  -28.2060  -24.6620   20.7590 C   0  0  0  0  0  2  0  0  0  0  0  0
  -28.5840  -26.1440   20.9440 C   0  0  0  0  0  2  0  0  0  0  0  0
  -28.2330  -26.9130   19.7940 O   0  0  0  0  0  0  0  0  0  0  0  0
  -24.5470  -31.9810   23.1810 C   0  0  0  0  0  0  0  0  0  0  0  0
  -27.0680  -27.6270   19.9100 C   0  0  0  0  0  0  0  0  0  0  0  0
  -23.2730  -30.6110   21.5610 C   0  0  0  0  0  3  0  0  0  0  0  0
  -24.6700  -29.1000   20.0510 C   0  0  0  0  0  0  0  0  0  0  0  0
  -25.7840  -30.9840   21.2640 C   0  0  0  0  0  2  0  0  0  0  0  0
  -25.8470  -29.6230   20.6040 C   0  0  0  0  0  0  0  0  0  0  0  0
  -27.0510  -28.8890   20.5380 C   0  0  0  0  0  3  0  0  0  0  0  0
  -25.8820  -27.1090   19.3550 C   0  0  0  0  0  3  0  0  0  0  0  0
  -24.6790  -27.8380   19.4290 C   0  0  0  0  0  3  0  0  0  0  0  0
  -23.4270  -29.9540   20.1620 C   0  0  0  0  0  2  0  0  0  0  0  0
  -24.5550  -31.2050   22.0610 N   0  0  0  0  0  0  0  0  0  0  0  0
  -23.4910  -32.2420   23.7730 O   0  0  0  0  0  0  0  0  0  0  0  0
  -22.6650  -29.5690   22.5280 C   0  0  0  0  0  0  0  0  0  0  0  0
  -21.3400  -29.3720   22.4370 N   0  0  0  0  0  0  0  0  0  0  0  0
  -23.3800  -28.9450   23.3150 O   0  0  0  0  0  0  0  0  0  0  0  0
  -20.8230  -29.9310   21.7720 H   0  0  0  0  0  0  0  0  0  0  0  0
  -18.0030  -28.0980   22.9810 C   0  0  0  0  0  0  0  0  0  0  0  0
  -20.5580  -28.4140   23.2180 C   0  0  0  0  0  3  0  0  0  0  0  0
  -20.6850  -26.9850   22.6370 C   0  0  0  0  0  2  0  0  0  0  0  0
  -19.5750  -26.6400   21.6390 C   0  0  0  0  0  2  0  0  0  0  0  0
  -18.2010  -26.7530   22.3020 C   0  0  0  0  0  2  0  0  0  0  0  0
  -19.1090  -28.8840   23.3970 C   0  0  0  0  0  0  0  0  0  0  0  0
  -18.8720  -30.1430   23.9900 C   0  0  0  0  0  3  0  0  0  0  0  0
  -17.5590  -30.6150   24.1740 C   0  0  0  0  0  3  0  0  0  0  0  0
  -16.4660  -29.8250   23.7730 C   0  0  0  0  0  3  0  0  0  0  0  0
  -16.6890  -28.5690   23.1830 C   0  0  0  0  0  3  0  0  0  0  0  0
  -25.8610  -32.5990   23.7570 C   0  0  0  0  0  3  0  0  0  0  0  0
  -26.4270  -31.8090   25.0010 C   0  0  1  0  0  0  0  0  0  0  0  0
  -25.3770  -31.5580   26.1070 C   0  0  0  0  0  1  0  0  0  0  0  0
  -26.9890  -30.4340   24.5640 C   0  0  0  0  0  1  0  0  0  0  0  0
  -27.6070  -32.5890   25.6270 C   0  0  0  0  0  1  0  0  0  0  0  0
  -25.5750  -33.9950   24.1130 N   0  0  0  0  0  0  0  0  0  0  0  0
  -25.9070  -35.0530   23.3620 C   0  0  0  0  0  0  0  0  0  0  0  0
  -26.5580  -34.9560   22.3180 O   0  0  0  0  0  0  0  0  0  0  0  0
  -24.9950  -34.1450   24.9260 H   0  0  0  0  0  0  0  0  0  0  0  0
  -24.2010  -36.8720   23.0460 C   0  0  0  0  0  1  0  0  0  0  0  0
  -25.4410  -36.4400   23.8440 C   0  0  0  0  0  3  0  0  0  0  0  0
  -27.5910  -37.2820   24.6790 C   0  0  0  0  0  1  0  0  0  0  0  0
  -26.4880  -37.4790   23.7420 N   0  0  0  0  0  0  0  0  0  0  0  0
  -26.0950  -38.4020   23.9020 H   0  0  0  0  0  0  0  0  0  0  0  0
  1  2  1  0
  1 49  1  0
  1  4  1  0
  3  1  1  0
  5  4  1  0
  6  5  1  0
  8 13  1  0
  9 10  1  0
  9  8  1  0
 11 10  1  0
 11 24  1  0
 11 12  1  0
 13  7  1  0
 13 12  1  0
 14  7  2  0
 15 16  1  0
 16  6  1  0
 18 17  1  6
 18 15  1  0
 18 19  1  0
 18 20  1  0
 19 17  1  6
 19 20  1  0
 19 16  1  0
 20  7  1  0
 21 22  2  0
 22 41  1  0
 23 22  1  0
 23 26  1  0
 24 21  1  0
 24 25  1  0
 25 23  2  0
 26 27  1  0
 27 28  2  0
 29 32  1  0
 29 28  1  0
 30 29  2  0
 31 30  1  0
 31 26  2  0
 32 33  1  0
 33 38  2  0
 33 34  1  0
 34 35  2  0
 35 36  1  0
 36 40  1  0
 37 36  2  0
 38 37  1  0
 39 38  1  0
 41 42  1  0
 42 45  1  0
 42 44  1  0
 43 41  2  0
 46 47  1  0
 46 21  1  0
 48 46  1  0
 50 51  1  0
 50 49  1  0
 52 54  1  0
 52 51  1  0
 53 64  2  0
 54 59  1  0
 55 63  1  0
 55 65  1  0
 56 62  1  0
 56 58  1  0
 57 63  1  0
 58 57  1  0
 59 58  2  0
 60 61  1  0
 60 54  2  0
 61 56  2  0
 62 55  1  0
 63 53  1  0
 65 67  2  0
 66 65  1  0
 68 66  1  0
 69 78  2  0
 69 74  1  0
 70 66  1  0
 70 74  1  0
 71 70  1  0
 72 73  1  0
 72 71  1  0
 73 69  1  0
 74 75  2  0
 75 76  1  0
 77 76  2  0
 78 77  1  0
 79 53  1  0
 79 84  1  0
 79 80  1  0
 80 83  1  1
 80 81  1  0
 82 80  1  0
 84 87  1  0
 85 89  1  0
 85 84  1  0
 86 85  2  0
 89 88  1  0
 91 89  1  0
 91 92  1  0
 91 90  1  0
M  ISO  4   7 100  20 100  51 101  52 101
M  END
>  <TORSDO>  (23) 
F 22

>  <SCORE>  (23) 
-11.757

>  <name>  (23) 
23

>  <ligand_id>  (23) 
23

>  <original_smiles>  (23) 
[H]C1=C(C([H])([H])C([H])([H])C([H])([H])[N+]([H])([H])C([H])([H])C([H])([H])C([H])([H])Oc2c([H])c([H])c3c(c2[H])C([H])([H])N(C(=O)C([H])(N([H])C(=O)C([H])(N([H])C([H])([H])[H])C([H])([H])[H])C(C([H])([H])[H])(C([H])([H])[H])C([H])([H])[H])C([H])(C(=O)N([H])C2([H])c4c([H])c([H])c([H])c([H])c4C([H])([H])C([H])([H])C2([H])[H])C3([H])[H])C2([H])N(C(=O)N3C([H])([H])C([H])([H])C([H])([H])C([H])(n4nc(-c5c([H])c([H])c(Oc6c([H])c([H])c(F)c([H])c6F)c([H])c5[H])c(C(=O)N([H])[H])c4N([H])[H])C3([H])[H])C1([H])C2([H])[H]

>  <smiles>  (23) 
[H]C1=C(C([H])([H])C([H])([H])C([H])([H])[N+]([H])([H])C([H])([H])C([H])([H])C([H])([H])Oc2c([H])c([H])c3c(c2[H])C([H])([H])N(C(=O)C([H])(N([H])C(=O)C([H])(N([H])C([H])([H])[H])C([H])([H])[H])C(C([H])([H])[H])(C([H])([H])[H])C([H])([H])[H])C([H])(C(=O)N([H])C2([H])c4c([H])c([H])c([H])c([H])c4C([H])([H])C([H])([H])C2([H])[H])C3([H])[H])C2([H])N(C(=O)N3C([H])([H])C([H])([H])C([H])([H])C([H])(n4nc(-c5c([H])c([H])c(Oc6c([H])c([H])c(F)c([H])c6F)c([H])c5[H])c(C(=O)N([H])[H])c4N([H])[H])C3([H])[H])C1([H])C2([H])[H]

$$$$
24:0:0
     RDKit          3D

 96105  0  0  1  0  0  0  0  0999 V2000
  -29.8170  -18.0540   21.8970 C   0  0  0  0  0  2  0  0  0  0  0  0
  -31.1480  -20.3500   22.1780 C   0  0  0  0  0  2  0  0  0  0  0  0
  -29.9560  -18.5890   19.5540 C   0  0  0  0  0  2  0  0  0  0  0  0
  -29.8730  -19.6010   21.7550 C   0  0  0  0  0  3  0  0  0  0  0  0
  -30.3550  -17.4260   20.5810 C   0  0  0  0  0  3  0  0  0  0  0  0
  -31.6040  -20.3390   20.7130 C   0  0  0  0  0  3  0  0  0  0  0  0
  -30.1350  -19.9980   20.2860 C   0  0  1  0  0  0  0  0  0  0  0  0
  -30.7380  -14.8430   20.0630 C   0  0  0  0  0  0  0  0  0  0  0  0
  -30.4750  -12.6110   18.9700 C   0  0  0  0  0  2  0  0  0  0  0  0
  -29.4680  -12.7390   17.8060 C   0  0  0  0  0  2  0  0  0  0  0  0
  -28.0220  -12.5620   18.3120 C   0  0  0  0  0  2  0  0  0  0  0  0
  -27.7270  -13.3980   19.5870 C   0  0  0  0  0  3  0  0  0  0  0  0
  -28.8460  -13.2520   20.6390 C   0  0  0  0  0  2  0  0  0  0  0  0
  -30.1060  -13.6250   19.9840 N   0  0  0  0  0  0  0  0  0  0  0  0
  -31.9100  -14.9600   19.6930 O   0  0  0  0  0  0  0  0  0  0  0  0
  -29.9720  -15.9580   20.3740 N   0  0  0  0  0  0  0  0  0  0  0  0
  -29.0080  -15.7370   20.5780 H   0  0  0  0  0  0  0  0  0  0  0  0
  -25.3870  -13.9790   20.4600 C   0  0  0  0  0  0  0  0  0  0  0  0
  -24.3380  -13.1990   20.8690 C   0  0  0  0  0  0  0  0  0  0  0  0
  -24.7920  -11.8480   20.7760 C   0  0  0  0  0  0  0  0  0  0  0  0
  -26.4110  -13.1020   20.1430 N   0  0  0  0  0  0  0  0  0  0  0  0
  -26.0640  -11.8130   20.3940 N   0  0  0  0  0  0  0  0  0  0  0  0
  -24.0710  -10.5840   20.9710 C   0  0  0  0  0  0  0  0  0  0  0  0
  -24.5220   -9.6090   21.8890 C   0  0  0  0  0  3  0  0  0  0  0  0
  -23.8000   -8.4110   22.0730 C   0  0  0  0  0  3  0  0  0  0  0  0
  -22.6120   -8.1780   21.3400 C   0  0  0  0  0  0  0  0  0  0  0  0
  -22.1810   -9.1410   20.4100 C   0  0  0  0  0  3  0  0  0  0  0  0
  -22.9030  -10.3310   20.2240 C   0  0  0  0  0  3  0  0  0  0  0  0
  -21.8590   -7.0330   21.4330 O   0  0  0  0  0  0  0  0  0  0  0  0
  -21.8040   -6.3010   22.5910 C   0  0  0  0  0  0  0  0  0  0  0  0
  -21.3350   -6.8560   23.8020 C   0  0  0  0  0  3  0  0  0  0  0  0
  -21.2290   -6.0490   24.9530 C   0  0  0  0  0  3  0  0  0  0  0  0
  -21.5830   -4.6870   24.8940 C   0  0  0  0  0  0  0  0  0  0  0  0
  -22.0470   -4.1320   23.6880 C   0  0  0  0  0  3  0  0  0  0  0  0
  -22.1540   -4.9370   22.5400 C   0  0  0  0  0  0  0  0  0  0  0  0
  -22.5800   -4.3910   21.3760 F   0  0  0  0  0  0  0  0  0  0  0  0
  -21.4750   -3.9100   25.9960 F   0  0  0  0  0  0  0  0  0  0  0  0
  -22.9600  -13.6750   21.2260 C   0  0  0  0  0  0  0  0  0  0  0  0
  -22.2770  -12.9600   22.1110 N   0  0  0  0  0  0  0  0  0  0  0  0
  -22.5020  -14.7160   20.7580 O   0  0  0  0  0  0  0  0  0  0  0  0
  -22.6640  -12.1170   22.5120 H   0  0  0  0  0  0  0  0  0  0  0  0
  -21.3540  -13.2560   22.3920 H   0  0  0  0  0  0  0  0  0  0  0  0
  -25.5460  -15.3540   20.3080 N   0  0  0  0  0  0  0  0  0  0  0  0
  -24.7800  -15.9990   20.4660 H   0  0  0  0  0  0  0  0  0  0  0  0
  -26.3580  -15.7980   19.9000 H   0  0  0  0  0  0  0  0  0  0  0  0
  -32.2270  -21.6020   20.2340 N   0  0  0  0  0  4  0  0  0  0  0  0
  -31.6020  -22.3850   20.2620 H   0  0  0  0  0  0  0  0  0  0  0  0
  -32.5440  -21.4990   19.2850 H   0  0  0  0  0  0  0  0  0  0  0  0
  -33.0360  -21.8360   20.7860 H   0  0  0  0  0  0  0  0  0  0  0  0
  -29.3280  -21.2800   19.7070 C   0  0  0  0  0  0  0  0  0  0  0  0
  -29.2780  -22.5130   20.3430 N   0  0  0  0  0  0  0  0  0  0  0  0
  -28.8290  -21.1690   18.5870 O   0  0  0  0  0  0  0  0  0  0  0  0
  -29.5400  -22.5240   21.3210 H   0  0  0  0  0  0  0  0  0  0  0  0
  -28.9490  -23.8880   19.7460 C   0  0  0  0  0  2  0  0  0  0  0  0
  -28.4110  -25.0830   20.6930 C   0  0  0  0  0  2  0  0  0  0  0  0
  -28.5520  -26.5280   20.3120 O   0  0  0  0  0  0  0  0  0  0  0  0
  -24.6790  -31.9070   23.2920 C   0  0  0  0  0  0  0  0  0  0  0  0
  -27.4200  -27.3650   20.2990 C   0  0  0  0  0  0  0  0  0  0  0  0
  -23.5310  -30.4860   21.6310 C   0  0  0  0  0  3  0  0  0  0  0  0
  -25.0330  -28.9530   20.2370 C   0  0  0  0  0  0  0  0  0  0  0  0
  -26.0700  -30.8420   21.4950 C   0  0  0  0  0  2  0  0  0  0  0  0
  -26.1850  -29.4620   20.8520 C   0  0  0  0  0  0  0  0  0  0  0  0
  -27.3840  -28.6820   20.8630 C   0  0  0  0  0  3  0  0  0  0  0  0
  -26.2440  -26.9100   19.6660 C   0  0  0  0  0  3  0  0  0  0  0  0
  -25.0680  -27.6840   19.6330 C   0  0  0  0  0  3  0  0  0  0  0  0
  -23.7820  -29.8090   20.2580 C   0  0  0  0  0  2  0  0  0  0  0  0
  -24.7790  -31.0980   22.1960 N   0  0  0  0  0  0  0  0  0  0  0  0
  -23.5800  -32.1670   23.8050 O   0  0  0  0  0  0  0  0  0  0  0  0
  -22.8640  -29.4630   22.5810 C   0  0  0  0  0  0  0  0  0  0  0  0
  -21.5400  -29.2750   22.4360 N   0  0  0  0  0  0  0  0  0  0  0  0
  -23.5370  -28.8380   23.4050 O   0  0  0  0  0  0  0  0  0  0  0  0
  -21.0580  -29.8280   21.7420 H   0  0  0  0  0  0  0  0  0  0  0  0
  -18.1620  -28.0730   22.9130 C   0  0  0  0  0  0  0  0  0  0  0  0
  -20.7210  -28.3280   23.1920 C   0  0  0  0  0  3  0  0  0  0  0  0
  -20.8230  -26.9040   22.5980 C   0  0  0  0  0  2  0  0  0  0  0  0
  -19.7230  -26.5960   21.5780 C   0  0  0  0  0  2  0  0  0  0  0  0
  -18.3390  -26.7320   22.2190 C   0  0  0  0  0  2  0  0  0  0  0  0
  -19.2800  -28.8290   23.3550 C   0  0  0  0  0  0  0  0  0  0  0  0
  -19.0590  -30.0830   23.9640 C   0  0  0  0  0  3  0  0  0  0  0  0
  -17.7540  -30.5830   24.1340 C   0  0  0  0  0  3  0  0  0  0  0  0
  -16.6500  -29.8230   23.7080 C   0  0  0  0  0  3  0  0  0  0  0  0
  -16.8550  -28.5700   23.1020 C   0  0  0  0  0  3  0  0  0  0  0  0
  -25.9380  -32.5600   23.9420 C   0  0  0  0  0  3  0  0  0  0  0  0
  -26.4160  -31.8210   25.2510 C   0  0  1  0  0  0  0  0  0  0  0  0
  -25.2890  -31.6000   26.2870 C   0  0  0  0  0  1  0  0  0  0  0  0
  -27.0190  -30.4380   24.9100 C   0  0  0  0  0  1  0  0  0  0  0  0
  -27.5400  -32.6370   25.9330 C   0  0  0  0  0  1  0  0  0  0  0  0
  -25.6100  -33.9630   24.2330 N   0  0  0  0  0  0  0  0  0  0  0  0
  -25.9530  -35.0030   23.4600 C   0  0  0  0  0  0  0  0  0  0  0  0
  -26.6490  -34.8820   22.4480 O   0  0  0  0  0  0  0  0  0  0  0  0
  -24.9940  -34.1300   25.0150 H   0  0  0  0  0  0  0  0  0  0  0  0
  -24.2270  -36.7800   23.0220 C   0  0  0  0  0  1  0  0  0  0  0  0
  -25.4470  -36.3970   23.8760 C   0  0  0  0  0  3  0  0  0  0  0  0
  -27.5460  -37.3160   24.7580 C   0  0  0  0  0  1  0  0  0  0  0  0
  -26.4770  -37.4540   23.7730 N   0  0  0  0  0  0  0  0  0  0  0  0
  -26.0610  -38.3760   23.8810 H   0  0  0  0  0  0  0  0  0  0  0  0
  3  7  1  0
  3  5  1  0
  4  1  1  0
  4  2  1  0
  5 16  1  0
  5  1  1  0
  6 46  1  0
  6  2  1  0
  7 50  1  6
  7  6  1  0
  7  4  1  0
  8 16  1  0
  9 14  1  0
 10 11  1  0
 10  9  1  0
 12 11  1  0
 12 21  1  0
 12 13  1  0
 14  8  1  0
 14 13  1  0
 15  8  2  0
 16 17  1  0
 18 19  2  0
 19 38  1  0
 20 19  1  0
 20 23  1  0
 21 22  1  0
 21 18  1  0
 22 20  2  0
 23 24  1  0
 24 25  2  0
 26 29  1  0
 26 25  1  0
 27 26  2  0
 28 27  1  0
 28 23  2  0
 29 30  1  0
 30 31  1  0
 31 32  2  0
 33 32  1  0
 33 37  1  0
 34 33  2  0
 35 30  2  0
 35 34  1  0
 36 35  1  0
 38 39  1  0
 39 42  1  0
 39 41  1  0
 40 38  2  0
 43 18  1  0
 43 44  1  0
 45 43  1  0
 46 47  1  0
 46 49  1  0
 48 46  1  0
 50 51  1  0
 51 53  1  0
 52 50  2  0
 54 51  1  0
 54 55  1  0
 56 55  1  0
 57 68  2  0
 58 56  1  0
 58 63  1  0
 59 67  1  0
 59 69  1  0
 60 66  1  0
 60 62  1  0
 61 67  1  0
 62 63  2  0
 62 61  1  0
 64 58  2  0
 65 64  1  0
 65 60  2  0
 66 59  1  0
 67 57  1  0
 69 71  2  0
 70 69  1  0
 72 70  1  0
 73 82  2  0
 73 78  1  0
 74 70  1  0
 74 78  1  0
 75 74  1  0
 76 77  1  0
 76 75  1  0
 77 73  1  0
 78 79  2  0
 79 80  1  0
 81 80  2  0
 82 81  1  0
 83 57  1  0
 83 88  1  0
 83 84  1  0
 84 87  1  1
 84 85  1  0
 86 84  1  0
 88 91  1  0
 89 93  1  0
 89 88  1  0
 90 89  2  0
 93 92  1  0
 95 93  1  0
 95 96  1  0
 95 94  1  0
M  ISO  4   8 100  16 100  55 101  56 101
M  END
>  <TORSDO>  (24) 
F 20

>  <SCORE>  (24) 
-13.280

>  <name>  (24) 
24

>  <ligand_id>  (24) 
24

>  <original_smiles>  (24) 
[H]c1c([H])c([H])c2c(c1[H])C([H])([H])C([H])([H])C([H])([H])C2([H])N([H])C(=O)C1([H])N(C(=O)C([H])(N([H])C(=O)C([H])(N([H])C([H])([H])[H])C([H])([H])[H])C(C([H])([H])[H])(C([H])([H])[H])C([H])([H])[H])C([H])([H])c2c([H])c(OC([H])([H])C([H])([H])N([H])C(=O)C34C([H])([H])C([H])(N([H])C(=O)N5C([H])([H])C([H])([H])C([H])([H])C([H])(n6nc(-c7c([H])c([H])c(Oc8c([H])c([H])c(F)c([H])c8F)c([H])c7[H])c(C(=O)N([H])[H])c6N([H])[H])C5([H])[H])C([H])([H])C3([H])C([H])([H])C4([H])[N+]([H])([H])[H])c([H])c([H])c2C1([H])[H]

>  <smiles>  (24) 
[H]c1c([H])c([H])c2c(c1[H])C([H])([H])C([H])([H])C([H])([H])C2([H])N([H])C(=O)C1([H])N(C(=O)C([H])(N([H])C(=O)C([H])(N([H])C([H])([H])[H])C([H])([H])[H])C(C([H])([H])[H])(C([H])([H])[H])C([H])([H])[H])C([H])([H])c2c([H])c(OC([H])([H])C([H])([H])N([H])C(=O)C34C([H])([H])C([H])(N([H])C(=O)N5C([H])([H])C([H])([H])C([H])([H])C([H])(n6nc(-c7c([H])c([H])c(Oc8c([H])c([H])c(F)c([H])c8F)c([H])c7[H])c(C(=O)N([H])[H])c6N([H])[H])C5([H])[H])C([H])([H])C3([H])C([H])([H])C4([H])[N+]([H])([H])[H])c([H])c([H])c2C1([H])[H]

$$$$
25:0:0
     RDKit          3D

 99107  0  0  1  0  0  0  0  0999 V2000
  -31.0000  -20.7930   20.9960 C   0  0  0  0  0  3  0  0  0  0  0  0
  -31.5840  -18.4380   20.6580 C   0  0  0  0  0  3  0  0  0  0  0  0
  -29.4040  -19.2760   19.9580 C   0  0  0  0  0  3  0  0  0  0  0  0
  -31.9280  -19.7330   21.0930 C   0  0  0  0  0  0  0  0  0  0  0  0
  -29.7250  -20.5830   20.4240 C   0  0  0  0  0  0  0  0  0  0  0  0
  -30.3230  -18.1930   20.0840 C   0  0  0  0  0  0  0  0  0  0  0  0
  -33.3120  -19.9940   21.6400 C   0  0  0  0  0  1  0  0  0  0  0  0
  -28.6850  -21.7280   20.3950 C   0  0  0  0  0  2  0  0  0  0  0  0
  -29.1520  -23.0350   19.8390 N   0  0  0  0  0  4  0  0  0  0  0  0
  -29.3280  -22.9210   18.8510 H   0  0  0  0  0  0  0  0  0  0  0  0
  -30.0390  -23.2430   20.2700 H   0  0  0  0  0  0  0  0  0  0  0  0
  -28.2260  -24.1940   20.0920 C   0  0  0  0  0  2  0  0  0  0  0  0
  -28.6450  -25.5300   19.4050 C   0  0  0  0  0  2  0  0  0  0  0  0
  -28.4100  -26.7290   20.1840 O   0  0  0  0  0  0  0  0  0  0  0  0
  -24.5580  -31.9060   23.2550 C   0  0  0  0  0  0  0  0  0  0  0  0
  -27.2100  -27.4250   20.1630 C   0  0  0  0  0  0  0  0  0  0  0  0
  -23.3550  -30.4960   21.6170 C   0  0  0  0  0  3  0  0  0  0  0  0
  -24.8080  -28.9420   20.1990 C   0  0  0  0  0  0  0  0  0  0  0  0
  -25.8840  -30.8350   21.4300 C   0  0  0  0  0  2  0  0  0  0  0  0
  -25.9660  -29.4610   20.7880 C   0  0  0  0  0  0  0  0  0  0  0  0
  -27.1620  -28.7050   20.7740 C   0  0  0  0  0  3  0  0  0  0  0  0
  -26.0280  -26.9220   19.5760 C   0  0  0  0  0  3  0  0  0  0  0  0
  -24.8330  -27.6710   19.5980 C   0  0  0  0  0  3  0  0  0  0  0  0
  -23.5670  -29.8060   20.2410 C   0  0  0  0  0  2  0  0  0  0  0  0
  -24.6170  -31.0960   22.1570 N   0  0  0  0  0  0  0  0  0  0  0  0
  -23.4770  -32.1860   23.7900 O   0  0  0  0  0  0  0  0  0  0  0  0
  -22.6960  -29.4850   22.5860 C   0  0  0  0  0  0  0  0  0  0  0  0
  -21.3710  -29.3110   22.4590 N   0  0  0  0  0  0  0  0  0  0  0  0
  -23.3760  -28.8630   23.4060 O   0  0  0  0  0  0  0  0  0  0  0  0
  -20.8880  -29.8590   21.7610 H   0  0  0  0  0  0  0  0  0  0  0  0
  -17.9910  -28.1350   22.9560 C   0  0  0  0  0  0  0  0  0  0  0  0
  -20.5500  -28.3800   23.2330 C   0  0  0  0  0  3  0  0  0  0  0  0
  -20.6480  -26.9500   22.6550 C   0  0  0  0  0  2  0  0  0  0  0  0
  -19.5430  -26.6300   21.6430 C   0  0  0  0  0  2  0  0  0  0  0  0
  -18.1620  -26.7830   22.2850 C   0  0  0  0  0  2  0  0  0  0  0  0
  -19.1130  -28.8910   23.3870 C   0  0  0  0  0  0  0  0  0  0  0  0
  -18.9020  -30.1570   23.9770 C   0  0  0  0  0  3  0  0  0  0  0  0
  -17.6000  -30.6640   24.1440 C   0  0  0  0  0  3  0  0  0  0  0  0
  -16.4920  -29.9050   23.7340 C   0  0  0  0  0  3  0  0  0  0  0  0
  -16.6880  -28.6440   23.1430 C   0  0  0  0  0  3  0  0  0  0  0  0
  -25.8460  -32.5330   23.8740 C   0  0  0  0  0  3  0  0  0  0  0  0
  -25.5440  -33.9350   24.1940 N   0  0  0  0  0  0  0  0  0  0  0  0
  -25.8910  -34.9810   23.4320 C   0  0  0  0  0  0  0  0  0  0  0  0
  -26.5670  -34.8690   22.4070 O   0  0  0  0  0  0  0  0  0  0  0  0
  -24.9480  -34.1040   24.9910 H   0  0  0  0  0  0  0  0  0  0  0  0
  -24.1800  -36.7810   23.0570 C   0  0  0  0  0  1  0  0  0  0  0  0
  -25.4110  -36.3740   23.8810 C   0  0  0  0  0  3  0  0  0  0  0  0
  -27.5410  -37.2470   24.7310 C   0  0  0  0  0  1  0  0  0  0  0  0
  -26.4520  -37.4190   23.7720 N   0  0  0  0  0  0  0  0  0  0  0  0
  -26.0510  -38.3430   23.9110 H   0  0  0  0  0  0  0  0  0  0  0  0
  -26.3580  -31.7680   25.1570 C   0  0  1  0  0  0  0  0  0  0  0  0
  -25.2570  -31.5430   26.2190 C   0  0  0  0  0  1  0  0  0  0  0  0
  -26.9370  -30.3870   24.7720 C   0  0  0  0  0  1  0  0  0  0  0  0
  -27.5120  -32.5650   25.8120 C   0  0  0  0  0  1  0  0  0  0  0  0
  -30.0240  -16.8120   19.4730 C   0  0  0  0  0  3  0  0  0  0  0  0
  -30.8380  -14.5690   20.4270 C   0  0  0  0  0  0  0  0  0  0  0  0
  -30.5690  -12.3640   19.3920 C   0  0  0  0  0  2  0  0  0  0  0  0
  -29.6610  -12.5260   18.1520 C   0  0  0  0  0  2  0  0  0  0  0  0
  -28.1660  -12.4680   18.5330 C   0  0  0  0  0  2  0  0  0  0  0  0
  -27.8100  -13.3060   19.7920 C   0  0  0  0  0  3  0  0  0  0  0  0
  -28.8420  -13.1080   20.9280 C   0  0  0  0  0  2  0  0  0  0  0  0
  -30.1800  -13.3790   20.3810 N   0  0  0  0  0  0  0  0  0  0  0  0
  -32.0330  -14.6810   20.1610 O   0  0  0  0  0  0  0  0  0  0  0  0
  -30.0110  -15.6410   20.4050 N   0  0  0  0  0  0  0  0  0  0  0  0
  -29.0920  -15.4230   20.7610 H   0  0  0  0  0  0  0  0  0  0  0  0
  -25.4030  -13.9330   20.4390 C   0  0  0  0  0  0  0  0  0  0  0  0
  -24.3270  -13.1710   20.7980 C   0  0  0  0  0  0  0  0  0  0  0  0
  -24.7820  -11.8180   20.8030 C   0  0  0  0  0  0  0  0  0  0  0  0
  -26.4500  -13.0440   20.2490 N   0  0  0  0  0  0  0  0  0  0  0  0
  -26.0810  -11.7680   20.5300 N   0  0  0  0  0  0  0  0  0  0  0  0
  -24.0490  -10.5610   20.9950 C   0  0  0  0  0  0  0  0  0  0  0  0
  -24.4580   -9.6070   21.9520 C   0  0  0  0  0  3  0  0  0  0  0  0
  -23.7250   -8.4130   22.1340 C   0  0  0  0  0  3  0  0  0  0  0  0
  -22.5660   -8.1670   21.3600 C   0  0  0  0  0  0  0  0  0  0  0  0
  -22.1740   -9.1110   20.3940 C   0  0  0  0  0  3  0  0  0  0  0  0
  -22.9070  -10.2950   20.2100 C   0  0  0  0  0  3  0  0  0  0  0  0
  -21.8020   -7.0290   21.4500 O   0  0  0  0  0  0  0  0  0  0  0  0
  -21.7300   -6.3020   22.6120 C   0  0  0  0  0  0  0  0  0  0  0  0
  -21.2910   -6.8750   23.8250 C   0  0  0  0  0  3  0  0  0  0  0  0
  -21.1680   -6.0740   24.9780 C   0  0  0  0  0  3  0  0  0  0  0  0
  -21.4730   -4.7000   24.9160 C   0  0  0  0  0  0  0  0  0  0  0  0
  -21.9050   -4.1270   23.7090 C   0  0  0  0  0  3  0  0  0  0  0  0
  -22.0320   -4.9270   22.5580 C   0  0  0  0  0  0  0  0  0  0  0  0
  -22.4270   -4.3650   21.3900 F   0  0  0  0  0  0  0  0  0  0  0  0
  -21.3460   -3.9290   26.0220 F   0  0  0  0  0  0  0  0  0  0  0  0
  -22.9240  -13.6530   21.0250 C   0  0  0  0  0  0  0  0  0  0  0  0
  -22.1790  -12.9780   21.8890 N   0  0  0  0  0  0  0  0  0  0  0  0
  -22.5010  -14.6640   20.4650 O   0  0  0  0  0  0  0  0  0  0  0  0
  -22.5390  -12.1640   22.3670 H   0  0  0  0  0  0  0  0  0  0  0  0
  -21.2300  -13.2710   22.0710 H   0  0  0  0  0  0  0  0  0  0  0  0
  -25.5760  -15.3000   20.2320 N   0  0  0  0  0  0  0  0  0  0  0  0
  -24.7990  -15.9490   20.2950 H   0  0  0  0  0  0  0  0  0  0  0  0
  -26.4110  -15.7270   19.8550 H   0  0  0  0  0  0  0  0  0  0  0  0
  -30.9050  -16.5740   18.2090 C   0  0  0  0  0  2  0  0  0  0  0  0
  -30.8590  -17.6820   17.1340 C   0  0  0  0  0  2  0  0  0  0  0  0
  -31.7880  -17.4130   16.0200 N   0  0  0  0  0  4  0  0  0  0  0  0
  -31.5110  -16.5950   15.5040 H   0  0  0  0  0  0  0  0  0  0  0  0
  -32.7250  -17.2840   16.3580 H   0  0  0  0  0  0  0  0  0  0  0  0
  -31.7850  -18.1830   15.3740 H   0  0  0  0  0  0  0  0  0  0  0  0
  1  4  1  0
  2  4  2  0
  3  6  2  0
  3  5  1  0
  4  7  1  0
  5  1  2  0
  6  2  1  0
  8  5  1  0
  9 12  1  0
  9 11  1  0
  9  8  1  0
 10  9  1  0
 13 12  1  0
 13 14  1  0
 15 26  2  0
 16 14  1  0
 16 21  1  0
 17 25  1  0
 17 27  1  0
 18 24  1  0
 18 20  1  0
 19 25  1  0
 20 19  1  0
 21 20  2  0
 22 23  1  0
 22 16  2  0
 23 18  2  0
 24 17  1  0
 25 15  1  0
 27 29  2  0
 28 27  1  0
 30 28  1  0
 31 40  2  0
 31 36  1  0
 32 28  1  0
 32 36  1  0
 33 32  1  0
 34 35  1  0
 34 33  1  0
 35 31  1  0
 36 37  2  0
 37 38  1  0
 39 38  2  0
 40 39  1  0
 41 15  1  0
 41 42  1  0
 41 51  1  0
 42 45  1  0
 43 47  1  0
 43 42  1  0
 44 43  2  0
 47 46  1  0
 49 47  1  0
 49 50  1  0
 49 48  1  0
 51 54  1  1
 51 52  1  0
 53 51  1  0
 55 94  1  0
 55  6  1  0
 55 64  1  0
 57 62  1  0
 58 59  1  0
 58 57  1  0
 60 59  1  0
 60 69  1  0
 60 61  1  0
 62 56  1  0
 62 61  1  0
 63 56  2  0
 64 56  1  0
 64 65  1  0
 66 67  2  0
 67 68  1  0
 67 86  1  0
 68 71  1  0
 69 66  1  0
 69 70  1  0
 70 68  2  0
 71 72  1  0
 72 73  2  0
 74 77  1  0
 74 73  1  0
 75 74  2  0
 76 75  1  0
 76 71  2  0
 77 78  1  0
 78 79  1  0
 79 80  2  0
 81 80  1  0
 81 85  1  0
 82 81  2  0
 83 78  2  0
 83 82  1  0
 84 83  1  0
 86 87  1  0
 87 90  1  0
 87 89  1  0
 88 86  2  0
 91 92  1  0
 91 66  1  0
 93 91  1  0
 95 94  1  0
 96 98  1  0
 96 95  1  0
 97 96  1  0
 99 96  1  0
M  ISO  4  13 101  14 101  56 100  64 100
M  END
>  <TORSDO>  (25) 
F 24

>  <SCORE>  (25) 
-12.753

>  <name>  (25) 
25

>  <ligand_id>  (25) 
25

>  <original_smiles>  (25) 
[H]c1c([H])c([H])c2c(c1[H])C([H])([H])C([H])([H])C([H])([H])C2([H])N([H])C(=O)C1([H])N(C(=O)C([H])(N([H])C(=O)C([H])(N([H])C([H])([H])[H])C([H])([H])[H])C(C([H])([H])[H])(C([H])([H])[H])C([H])([H])[H])C([H])([H])c2c([H])c(OC([H])([H])C([H])([H])[N+]([H])([H])C([H])([H])c3c([H])c(C([H])([H])[H])c([H])c(C([H])(N([H])C(=O)N4C([H])([H])C([H])([H])C([H])([H])C([H])(n5nc(-c6c([H])c([H])c(Oc7c([H])c([H])c(F)c([H])c7F)c([H])c6[H])c(C(=O)N([H])[H])c5N([H])[H])C4([H])[H])C([H])([H])C([H])([H])[N+]([H])([H])[H])c3[H])c([H])c([H])c2C1([H])[H]

>  <smiles>  (25) 
[H]c1c([H])c([H])c2c(c1[H])C([H])([H])C([H])([H])C([H])([H])C2([H])N([H])C(=O)C1([H])N(C(=O)C([H])(N([H])C(=O)C([H])(N([H])C([H])([H])[H])C([H])([H])[H])C(C([H])([H])[H])(C([H])([H])[H])C([H])([H])[H])C([H])([H])c2c([H])c(OC([H])([H])C([H])([H])[N+]([H])([H])C([H])([H])c3c([H])c(C([H])([H])[H])c([H])c(C([H])(N([H])C(=O)N4C([H])([H])C([H])([H])C([H])([H])C([H])(n5nc(-c6c([H])c([H])c(Oc7c([H])c([H])c(F)c([H])c7F)c([H])c6[H])c(C(=O)N([H])[H])c5N([H])[H])C4([H])[H])C([H])([H])C([H])([H])[N+]([H])([H])[H])c3[H])c([H])c([H])c2C1([H])[H]

$$$$
26:0:0
     RDKit          3D

 95103  0  0  1  0  0  0  0  0999 V2000
  -30.0850  -22.2130   18.6260 C   0  0  0  0  0  3  0  0  0  0  0  0
  -30.2580  -20.8190   18.8180 C   0  0  0  0  0  3  0  0  0  0  0  0
  -28.1210  -22.1900   20.0380 C   0  0  0  0  0  0  0  0  0  0  0  0
  -28.9990  -22.9370   19.1870 C   0  0  0  0  0  0  0  0  0  0  0  0
  -29.3630  -20.0530   19.5980 C   0  0  0  0  0  0  0  0  0  0  0  0
  -28.3210  -20.7750   20.2600 C   0  0  0  0  0  0  0  0  0  0  0  0
  -27.3810  -19.9940   21.1780 C   0  0  0  0  0  1  0  0  0  0  0  0
  -26.9310  -22.8780   20.6500 C   0  0  0  0  0  0  0  0  0  0  0  0
  -25.8110  -22.8100   19.9460 N   0  0  0  0  0  0  0  0  0  0  0  0
  -26.9970  -23.4410   21.7400 O   0  0  0  0  0  0  0  0  0  0  0  0
  -25.8070  -22.3210   19.0630 H   0  0  0  0  0  0  0  0  0  0  0  0
  -24.9600  -23.2220   20.2960 H   0  0  0  0  0  0  0  0  0  0  0  0
  -28.7620  -24.4160   18.6770 C   0  0  0  0  0  3  0  0  0  0  0  0
  -28.6120  -25.6530   19.6500 C   0  0  0  0  0  3  0  0  0  0  0  0
  -28.4900  -26.9850   19.0410 O   0  0  0  0  0  0  0  0  0  0  0  0
  -24.4860  -31.5710   22.8610 C   0  0  0  0  0  0  0  0  0  0  0  0
  -27.2890  -27.6740   19.1820 C   0  0  0  0  0  0  0  0  0  0  0  0
  -23.3100  -30.2800   21.1120 C   0  0  0  0  0  3  0  0  0  0  0  0
  -24.8010  -29.0280   19.4560 C   0  0  0  0  0  0  0  0  0  0  0  0
  -25.7960  -30.8420   20.8590 C   0  0  0  0  0  2  0  0  0  0  0  0
  -25.9520  -29.5610   20.0520 C   0  0  0  0  0  0  0  0  0  0  0  0
  -27.2000  -28.8980   19.9020 C   0  0  0  0  0  3  0  0  0  0  0  0
  -26.1160  -27.1710   18.5800 C   0  0  0  0  0  3  0  0  0  0  0  0
  -24.8820  -27.8390   18.7110 C   0  0  0  0  0  3  0  0  0  0  0  0
  -23.5030  -29.7830   19.6540 C   0  0  0  0  0  2  0  0  0  0  0  0
  -24.5510  -30.9080   21.6690 N   0  0  0  0  0  0  0  0  0  0  0  0
  -23.4140  -31.6940   23.4710 O   0  0  0  0  0  0  0  0  0  0  0  0
  -22.7780  -29.1090   21.9700 C   0  0  0  0  0  0  0  0  0  0  0  0
  -21.4670  -28.8340   21.8670 N   0  0  0  0  0  0  0  0  0  0  0  0
  -23.5420  -28.4530   22.6830 O   0  0  0  0  0  0  0  0  0  0  0  0
  -20.9060  -29.4250   21.2710 H   0  0  0  0  0  0  0  0  0  0  0  0
  -18.2260  -27.2990   22.3200 C   0  0  0  0  0  0  0  0  0  0  0  0
  -20.7610  -27.7480   22.5480 C   0  0  0  0  0  3  0  0  0  0  0  0
  -20.9620  -26.4040   21.8100 C   0  0  0  0  0  2  0  0  0  0  0  0
  -19.8550  -26.1030   20.7960 C   0  0  0  0  0  2  0  0  0  0  0  0
  -18.4900  -26.0540   21.4900 C   0  0  0  0  0  2  0  0  0  0  0  0
  -19.2930  -28.1020   22.8040 C   0  0  0  0  0  0  0  0  0  0  0  0
  -18.9930  -29.2660   23.5420 C   0  0  0  0  0  3  0  0  0  0  0  0
  -17.6580  -29.6310   23.8010 C   0  0  0  0  0  3  0  0  0  0  0  0
  -16.6060  -28.8230   23.3340 C   0  0  0  0  0  3  0  0  0  0  0  0
  -16.8910  -27.6580   22.5990 C   0  0  0  0  0  3  0  0  0  0  0  0
  -25.7490  -32.2250   23.5030 C   0  0  0  0  0  3  0  0  0  0  0  0
  -25.3690  -33.5710   23.9570 N   0  0  0  0  0  0  0  0  0  0  0  0
  -25.6420  -34.7040   23.2950 C   0  0  0  0  0  0  0  0  0  0  0  0
  -26.3140  -34.7270   22.2600 O   0  0  0  0  0  0  0  0  0  0  0  0
  -24.7710  -33.6210   24.7690 H   0  0  0  0  0  0  0  0  0  0  0  0
  -23.8220  -36.4280   23.0990 C   0  0  0  0  0  1  0  0  0  0  0  0
  -25.0840  -36.0170   23.8740 C   0  0  0  0  0  3  0  0  0  0  0  0
  -27.1690  -36.9360   24.7900 C   0  0  0  0  0  1  0  0  0  0  0  0
  -26.0610  -37.1280   23.8580 N   0  0  0  0  0  0  0  0  0  0  0  0
  -25.6080  -38.0100   24.0820 H   0  0  0  0  0  0  0  0  0  0  0  0
  -26.3460  -31.3850   24.6970 C   0  0  1  0  0  0  0  0  0  0  0  0
  -25.3010  -31.0010   25.7720 C   0  0  0  0  0  1  0  0  0  0  0  0
  -26.9890  -30.0770   24.1770 C   0  0  0  0  0  1  0  0  0  0  0  0
  -27.4740  -32.1850   25.3900 C   0  0  0  0  0  1  0  0  0  0  0  0
  -29.4100  -18.4800   19.5240 C   0  0  0  0  0  2  0  0  0  0  0  0
  -30.4750  -17.6330   20.3280 C   0  0  0  0  0  2  0  0  0  0  0  0
  -31.0080  -15.0990   19.9980 C   0  0  0  0  0  0  0  0  0  0  0  0
  -30.8010  -12.8360   18.9970 C   0  0  0  0  0  2  0  0  0  0  0  0
  -29.8350  -12.9260   17.7960 C   0  0  0  0  0  2  0  0  0  0  0  0
  -28.3730  -12.7540   18.2580 C   0  0  0  0  0  2  0  0  0  0  0  0
  -28.0250  -13.6530   19.4750 C   0  0  0  0  0  3  0  0  0  0  0  0
  -29.1040  -13.5440   20.5760 C   0  0  0  0  0  2  0  0  0  0  0  0
  -30.3990  -13.8750   19.9640 N   0  0  0  0  0  0  0  0  0  0  0  0
  -32.1560  -15.2660   19.5770 O   0  0  0  0  0  0  0  0  0  0  0  0
  -30.2100  -16.1510   20.3420 N   0  0  0  0  0  0  0  0  0  0  0  0
  -29.2860  -15.8810   20.6460 H   0  0  0  0  0  0  0  0  0  0  0  0
  -25.6530  -14.2560   20.2590 C   0  0  0  0  0  0  0  0  0  0  0  0
  -24.5960  -13.4830   20.6600 C   0  0  0  0  0  0  0  0  0  0  0  0
  -25.0580  -12.1320   20.6170 C   0  0  0  0  0  0  0  0  0  0  0  0
  -26.6890  -13.3750   19.9940 N   0  0  0  0  0  0  0  0  0  0  0  0
  -26.3390  -12.0930   20.2730 N   0  0  0  0  0  0  0  0  0  0  0  0
  -24.3390  -10.8690   20.8320 C   0  0  0  0  0  0  0  0  0  0  0  0
  -24.7550   -9.9370   21.8070 C   0  0  0  0  0  3  0  0  0  0  0  0
  -24.0360   -8.7390   22.0060 C   0  0  0  0  0  3  0  0  0  0  0  0
  -22.8860   -8.4640   21.2260 C   0  0  0  0  0  0  0  0  0  0  0  0
  -22.4910   -9.3840   20.2400 C   0  0  0  0  0  3  0  0  0  0  0  0
  -23.2100  -10.5740   20.0400 C   0  0  0  0  0  3  0  0  0  0  0  0
  -22.1420   -7.3130   21.3300 O   0  0  0  0  0  0  0  0  0  0  0  0
  -22.0230   -6.6380   22.5200 C   0  0  0  0  0  0  0  0  0  0  0  0
  -21.4830   -7.2490   23.6720 C   0  0  0  0  0  3  0  0  0  0  0  0
  -21.3140   -6.4980   24.8530 C   0  0  0  0  0  3  0  0  0  0  0  0
  -21.6750   -5.1380   24.8800 C   0  0  0  0  0  0  0  0  0  0  0  0
  -22.2070   -4.5260   23.7320 C   0  0  0  0  0  3  0  0  0  0  0  0
  -22.3790   -5.2750   22.5540 C   0  0  0  0  0  0  0  0  0  0  0  0
  -22.8730   -4.6760   21.4440 F   0  0  0  0  0  0  0  0  0  0  0  0
  -21.5050   -4.4140   26.0110 F   0  0  0  0  0  0  0  0  0  0  0  0
  -23.2070  -13.9610   20.9690 C   0  0  0  0  0  0  0  0  0  0  0  0
  -22.5050  -13.2690   21.8600 N   0  0  0  0  0  0  0  0  0  0  0  0
  -22.7520  -14.9830   20.4570 O   0  0  0  0  0  0  0  0  0  0  0  0
  -22.8870  -12.4430   22.2980 H   0  0  0  0  0  0  0  0  0  0  0  0
  -21.5730  -13.5690   22.1100 H   0  0  0  0  0  0  0  0  0  0  0  0
  -25.8130  -15.6270   20.0780 N   0  0  0  0  0  0  0  0  0  0  0  0
  -25.0490  -16.2810   20.2070 H   0  0  0  0  0  0  0  0  0  0  0  0
  -26.6440  -16.0630   19.7000 H   0  0  0  0  0  0  0  0  0  0  0  0
  1  2  2  0
  1  4  1  0
  2  5  1  0
  3  6  1  0
  3  8  1  0
  4  3  2  0
  5  6  2  0
  6  7  1  0
  8 10  2  0
  9 12  1  0
  9  8  1  0
 11  9  1  0
 13  4  1  0
 13 14  2  0
 15 17  1  0
 15 14  1  0
 16 27  2  0
 17 22  1  0
 18 26  1  0
 18 28  1  0
 19 25  1  0
 19 21  1  0
 20 26  1  0
 21 20  1  0
 22 21  2  0
 23 24  1  0
 23 17  2  0
 24 19  2  0
 25 18  1  0
 26 16  1  0
 28 30  2  0
 29 28  1  0
 31 29  1  0
 32 41  2  0
 32 37  1  0
 33 29  1  0
 33 37  1  0
 34 33  1  0
 35 36  1  0
 35 34  1  0
 36 32  1  0
 37 38  2  0
 38 39  1  0
 40 39  2  0
 41 40  1  0
 42 16  1  0
 42 43  1  0
 42 52  1  0
 43 46  1  0
 44 48  1  0
 44 43  1  0
 45 44  2  0
 48 47  1  0
 50 48  1  0
 50 51  1  0
 50 49  1  0
 52 55  1  1
 52 53  1  0
 54 52  1  0
 56  5  1  0
 56 57  1  0
 57 66  1  0
 58 66  1  0
 59 64  1  0
 60 61  1  0
 60 59  1  0
 62 61  1  0
 62 71  1  0
 62 63  1  0
 64 58  1  0
 64 63  1  0
 65 58  2  0
 66 67  1  0
 68 69  2  0
 69 88  1  0
 70 69  1  0
 70 73  1  0
 71 68  1  0
 71 72  1  0
 72 70  2  0
 73 74  1  0
 74 75  2  0
 76 79  1  0
 76 75  1  0
 77 76  2  0
 78 77  1  0
 78 73  2  0
 79 80  1  0
 80 85  2  0
 80 81  1  0
 81 82  2  0
 82 83  1  0
 83 87  1  0
 84 83  2  0
 85 84  1  0
 86 85  1  0
 88 89  1  0
 89 92  1  0
 89 91  1  0
 90 88  2  0
 93 94  1  0
 93 68  1  0
 95 93  1  0
M  ISO  4  14 101  15 101  58 100  66 100
M  END
>  <TORSDO>  (26) 
F 21

>  <SCORE>  (26) 
-10.160

>  <name>  (26) 
26

>  <ligand_id>  (26) 
26

>  <original_smiles>  (26) 
[H]c1c([H])c([H])c2c(c1[H])C([H])([H])C([H])([H])C([H])([H])C2([H])N([H])C(=O)C1([H])N(C(=O)C([H])(N([H])C(=O)C([H])(N([H])C([H])([H])[H])C([H])([H])[H])C(C([H])([H])[H])(C([H])([H])[H])C([H])([H])[H])C([H])([H])c2c([H])c(OC([H])([H])C([H])([H])c3c([H])c([H])c(C([H])([H])C([H])([H])N([H])C(=O)N4C([H])([H])C([H])([H])C([H])([H])C([H])(n5nc(-c6c([H])c([H])c(Oc7c([H])c([H])c(F)c([H])c7F)c([H])c6[H])c(C(=O)N([H])[H])c5N([H])[H])C4([H])[H])c(C([H])([H])[H])c3C(=O)N([H])[H])c([H])c([H])c2C1([H])[H]

>  <smiles>  (26) 
[H]c1c([H])c([H])c2c(c1[H])C([H])([H])C([H])([H])C([H])([H])C2([H])N([H])C(=O)C1([H])N(C(=O)C([H])(N([H])C(=O)C([H])(N([H])C([H])([H])[H])C([H])([H])[H])C(C([H])([H])[H])(C([H])([H])[H])C([H])([H])[H])C([H])([H])c2c([H])c(OC([H])([H])C([H])([H])c3c([H])c([H])c(C([H])([H])C([H])([H])N([H])C(=O)N4C([H])([H])C([H])([H])C([H])([H])C([H])(n5nc(-c6c([H])c([H])c(Oc7c([H])c([H])c(F)c([H])c7F)c([H])c6[H])c(C(=O)N([H])[H])c5N([H])[H])C4([H])[H])c(C([H])([H])[H])c3C(=O)N([H])[H])c([H])c([H])c2C1([H])[H]

$$$$
27:0:0
     RDKit          3D

 93101  0  0  1  0  0  0  0  0999 V2000
  -28.1290  -23.1710   20.1440 C   0  0  0  0  0  3  0  0  0  0  0  0
  -29.2020  -21.8920   20.5230 C   0  0  0  0  0  2  0  0  0  0  0  0
  -29.6050  -18.9860   17.8810 C   0  0  0  0  0  3  0  0  0  0  0  0
  -29.3400  -20.2160   18.5270 C   0  0  0  0  0  3  0  0  0  0  0  0
  -29.8100  -17.7730   18.5800 C   0  0  0  0  0  3  0  0  0  0  0  0
  -29.4550  -19.0160   20.6320 C   0  0  0  0  0  3  0  0  0  0  0  0
  -29.2710  -20.3320   19.9310 C   0  0  0  0  0  0  0  0  0  0  0  0
  -29.7360  -17.6880   19.9870 C   0  0  0  0  0  0  0  0  0  0  0  0
  -30.5570  -15.0770   20.2600 C   0  0  0  0  0  0  0  0  0  0  0  0
  -30.4640  -12.7030   19.3610 C   0  0  0  0  0  2  0  0  0  0  0  0
  -29.5440  -12.6570   18.1170 C   0  0  0  0  0  2  0  0  0  0  0  0
  -28.0810  -12.4350   18.5390 C   0  0  0  0  0  2  0  0  0  0  0  0
  -27.6620  -13.3540   19.7170 C   0  0  0  0  0  3  0  0  0  0  0  0
  -28.7090  -13.3760   20.8520 C   0  0  0  0  0  2  0  0  0  0  0  0
  -29.9840  -13.8000   20.2590 N   0  0  0  0  0  0  0  0  0  0  0  0
  -31.7350  -15.1450   19.8880 O   0  0  0  0  0  0  0  0  0  0  0  0
  -29.8140  -16.2610   20.5840 N   0  0  0  0  0  0  0  0  0  0  0  0
  -29.0260  -16.0470   21.1780 H   0  0  0  0  0  0  0  0  0  0  0  0
  -25.2730  -13.9150   20.4340 C   0  0  0  0  0  0  0  0  0  0  0  0
  -24.2130  -13.1350   20.8040 C   0  0  0  0  0  0  0  0  0  0  0  0
  -24.6890  -11.7870   20.7900 C   0  0  0  0  0  0  0  0  0  0  0  0
  -26.3240  -13.0440   20.2070 N   0  0  0  0  0  0  0  0  0  0  0  0
  -25.9830  -11.7590   20.4880 N   0  0  0  0  0  0  0  0  0  0  0  0
  -23.9710  -10.5210   20.9890 C   0  0  0  0  0  0  0  0  0  0  0  0
  -24.4060   -9.5650   21.9340 C   0  0  0  0  0  3  0  0  0  0  0  0
  -23.6860   -8.3650   22.1220 C   0  0  0  0  0  3  0  0  0  0  0  0
  -22.5170   -8.1130   21.3630 C   0  0  0  0  0  0  0  0  0  0  0  0
  -22.1020   -9.0570   20.4080 C   0  0  0  0  0  3  0  0  0  0  0  0
  -22.8230  -10.2490   20.2190 C   0  0  0  0  0  3  0  0  0  0  0  0
  -21.7700   -6.9630   21.4590 O   0  0  0  0  0  0  0  0  0  0  0  0
  -21.7220   -6.2300   22.6170 C   0  0  0  0  0  0  0  0  0  0  0  0
  -21.2800   -6.7900   23.8350 C   0  0  0  0  0  3  0  0  0  0  0  0
  -21.1790   -5.9820   24.9860 C   0  0  0  0  0  3  0  0  0  0  0  0
  -21.5110   -4.6150   24.9190 C   0  0  0  0  0  0  0  0  0  0  0  0
  -21.9460   -4.0560   23.7050 C   0  0  0  0  0  3  0  0  0  0  0  0
  -22.0490   -4.8610   22.5570 C   0  0  0  0  0  0  0  0  0  0  0  0
  -22.4470   -4.3110   21.3850 F   0  0  0  0  0  0  0  0  0  0  0  0
  -21.4070   -3.8380   26.0210 F   0  0  0  0  0  0  0  0  0  0  0  0
  -22.8100  -13.6040   21.0610 C   0  0  0  0  0  0  0  0  0  0  0  0
  -22.0800  -12.9110   21.9270 N   0  0  0  0  0  0  0  0  0  0  0  0
  -22.3700  -14.6230   20.5280 O   0  0  0  0  0  0  0  0  0  0  0  0
  -22.4500  -12.0880   22.3810 H   0  0  0  0  0  0  0  0  0  0  0  0
  -21.1390  -13.2060   22.1410 H   0  0  0  0  0  0  0  0  0  0  0  0
  -25.4270  -15.2860   20.2450 N   0  0  0  0  0  0  0  0  0  0  0  0
  -24.6540  -15.9340   20.3390 H   0  0  0  0  0  0  0  0  0  0  0  0
  -26.2720  -15.7260   19.9000 H   0  0  0  0  0  0  0  0  0  0  0  0
  -26.9520  -23.1960   21.1410 C   0  0  0  0  0  2  0  0  0  0  0  0
  -27.2560  -23.9540   22.3690 N   0  0  0  0  0  4  0  0  0  0  0  0
  -28.0340  -23.5580   22.8650 H   0  0  0  0  0  0  0  0  0  0  0  0
  -26.4600  -23.9350   22.9830 H   0  0  0  0  0  0  0  0  0  0  0  0
  -27.4620  -24.9150   22.1580 H   0  0  0  0  0  0  0  0  0  0  0  0
  -28.4370  -24.7770   19.6260 C   0  0  0  0  0  2  0  0  0  0  0  0
  -28.2850  -26.2090   20.2500 O   0  0  0  0  0  0  0  0  0  0  0  0
  -24.6170  -31.8820   23.1710 C   0  0  0  0  0  0  0  0  0  0  0  0
  -27.2130  -27.1740   20.1160 C   0  0  0  0  0  0  0  0  0  0  0  0
  -23.4180  -30.4820   21.5310 C   0  0  0  0  0  3  0  0  0  0  0  0
  -24.8710  -28.9120   20.0930 C   0  0  0  0  0  0  0  0  0  0  0  0
  -25.9690  -30.7560   21.3600 C   0  0  0  0  0  2  0  0  0  0  0  0
  -26.0460  -29.3640   20.7040 C   0  0  0  0  0  0  0  0  0  0  0  0
  -27.2110  -28.5080   20.7020 C   0  0  0  0  0  3  0  0  0  0  0  0
  -26.0130  -26.8250   19.4620 C   0  0  0  0  0  3  0  0  0  0  0  0
  -24.8680  -27.6590   19.4570 C   0  0  0  0  0  3  0  0  0  0  0  0
  -23.6380  -29.8030   20.1510 C   0  0  0  0  0  2  0  0  0  0  0  0
  -24.6890  -31.0640   22.0760 N   0  0  0  0  0  0  0  0  0  0  0  0
  -23.5320  -32.1610   23.7050 O   0  0  0  0  0  0  0  0  0  0  0  0
  -22.7480  -29.4730   22.4980 C   0  0  0  0  0  0  0  0  0  0  0  0
  -21.4200  -29.2970   22.3770 N   0  0  0  0  0  0  0  0  0  0  0  0
  -23.4250  -28.8500   23.3190 O   0  0  0  0  0  0  0  0  0  0  0  0
  -20.9280  -29.8520   21.6900 H   0  0  0  0  0  0  0  0  0  0  0  0
  -18.0490  -28.0680   22.8830 C   0  0  0  0  0  0  0  0  0  0  0  0
  -20.6060  -28.3540   23.1490 C   0  0  0  0  0  3  0  0  0  0  0  0
  -20.7190  -26.9220   22.5780 C   0  0  0  0  0  2  0  0  0  0  0  0
  -19.6210  -26.5860   21.5640 C   0  0  0  0  0  2  0  0  0  0  0  0
  -18.2380  -26.7190   22.2080 C   0  0  0  0  0  2  0  0  0  0  0  0
  -19.1610  -28.8420   23.3110 C   0  0  0  0  0  0  0  0  0  0  0  0
  -18.9280  -30.1020   23.9040 C   0  0  0  0  0  3  0  0  0  0  0  0
  -17.6190  -30.5880   24.0730 C   0  0  0  0  0  3  0  0  0  0  0  0
  -16.5220  -29.8120   23.6600 C   0  0  0  0  0  3  0  0  0  0  0  0
  -16.7380  -28.5530   23.0700 C   0  0  0  0  0  3  0  0  0  0  0  0
  -25.8940  -32.5250   23.7950 C   0  0  0  0  0  3  0  0  0  0  0  0
  -25.5740  -33.9200   24.1350 N   0  0  0  0  0  0  0  0  0  0  0  0
  -25.9040  -34.9840   23.3910 C   0  0  0  0  0  0  0  0  0  0  0  0
  -26.5720  -34.8940   22.3580 O   0  0  0  0  0  0  0  0  0  0  0  0
  -24.9790  -34.0630   24.9380 H   0  0  0  0  0  0  0  0  0  0  0  0
  -24.1750  -36.7840   23.0550 C   0  0  0  0  0  1  0  0  0  0  0  0
  -25.4150  -36.3690   23.8640 C   0  0  0  0  0  3  0  0  0  0  0  0
  -27.5440  -37.2490   24.7140 C   0  0  0  0  0  1  0  0  0  0  0  0
  -26.4450  -37.4240   23.7670 N   0  0  0  0  0  0  0  0  0  0  0  0
  -26.0380  -38.3420   23.9190 H   0  0  0  0  0  0  0  0  0  0  0  0
  -26.4150  -31.7550   25.0730 C   0  0  1  0  0  0  0  0  0  0  0  0
  -25.3230  -31.5160   26.1430 C   0  0  0  0  0  1  0  0  0  0  0  0
  -27.0010  -30.3780   24.6860 C   0  0  0  0  0  1  0  0  0  0  0  0
  -27.5640  -32.5540   25.7330 C   0  0  0  0  0  1  0  0  0  0  0  0
  1 52  1  0
  1  2  1  0
  1 47  1  0
  3  4  2  0
  3  5  1  0
  4  7  1  0
  5  8  2  0
  7  2  1  0
  7  6  2  0
  8 17  1  0
  8  6  1  0
  9 17  1  0
 10 15  1  0
 11 12  1  0
 11 10  1  0
 13 12  1  0
 13 22  1  0
 13 14  1  0
 15  9  1  0
 15 14  1  0
 16  9  2  0
 17 18  1  0
 19 20  2  0
 20 39  1  0
 21 20  1  0
 21 24  1  0
 22 19  1  0
 22 23  1  0
 23 21  2  0
 24 25  1  0
 25 26  2  0
 27 30  1  0
 27 26  1  0
 28 27  2  0
 29 28  1  0
 29 24  2  0
 30 31  1  0
 31 32  1  0
 32 33  2  0
 34 33  1  0
 34 38  1  0
 35 34  2  0
 36 31  2  0
 36 35  1  0
 37 36  1  0
 39 40  1  0
 40 43  1  0
 40 42  1  0
 41 39  2  0
 44 45  1  0
 44 19  1  0
 46 44  1  0
 47 48  1  0
 48 49  1  0
 48 50  1  0
 51 48  1  0
 52 53  1  0
 54 65  2  0
 55 53  1  0
 55 60  1  0
 56 64  1  0
 56 66  1  0
 57 63  1  0
 57 59  1  0
 58 64  1  0
 59 58  1  0
 60 59  2  0
 61 55  2  0
 62 61  1  0
 62 57  2  0
 63 56  1  0
 64 54  1  0
 66 68  2  0
 67 66  1  0
 69 67  1  0
 70 79  2  0
 70 75  1  0
 71 67  1  0
 71 75  1  0
 72 71  1  0
 73 74  1  0
 73 72  1  0
 74 70  1  0
 75 76  2  0
 76 77  1  0
 78 77  2  0
 79 78  1  0
 80 54  1  0
 80 81  1  0
 80 90  1  0
 81 84  1  0
 82 86  1  0
 82 81  1  0
 83 82  2  0
 86 85  1  0
 88 86  1  0
 88 89  1  0
 88 87  1  0
 90 93  1  1
 90 91  1  0
 92 90  1  0
M  ISO  4   9 100  17 100  52 101  53 101
M  END
>  <TORSDO>  (27) 
F 21

>  <SCORE>  (27) 
-15.126

>  <name>  (27) 
27

>  <ligand_id>  (27) 
27

>  <original_smiles>  (27) 
[H]c1c([H])c([H])c2c(c1[H])C([H])([H])C([H])([H])C([H])([H])C2([H])N([H])C(=O)C1([H])N(C(=O)C([H])(N([H])C(=O)C([H])(N([H])C([H])([H])[H])C([H])([H])[H])C(C([H])([H])[H])(C([H])([H])[H])C([H])([H])[H])C([H])([H])c2c([H])c(OC([H])([H])C([H])(C([H])([H])c3c([H])c([H])c([H])c(N([H])C(=O)N4C([H])([H])C([H])([H])C([H])([H])C([H])(n5nc(-c6c([H])c([H])c(Oc7c([H])c([H])c(F)c([H])c7F)c([H])c6[H])c(C(=O)N([H])[H])c5N([H])[H])C4([H])[H])c3[H])C([H])([H])[N+]([H])([H])[H])c([H])c([H])c2C1([H])[H]

>  <smiles>  (27) 
[H]c1c([H])c([H])c2c(c1[H])C([H])([H])C([H])([H])C([H])([H])C2([H])N([H])C(=O)C1([H])N(C(=O)C([H])(N([H])C(=O)C([H])(N([H])C([H])([H])[H])C([H])([H])[H])C(C([H])([H])[H])(C([H])([H])[H])C([H])([H])[H])C([H])([H])c2c([H])c(OC([H])([H])C([H])(C([H])([H])c3c([H])c([H])c([H])c(N([H])C(=O)N4C([H])([H])C([H])([H])C([H])([H])C([H])(n5nc(-c6c([H])c([H])c(Oc7c([H])c([H])c(F)c([H])c7F)c([H])c6[H])c(C(=O)N([H])[H])c5N([H])[H])C4([H])[H])c3[H])C([H])([H])[N+]([H])([H])[H])c([H])c([H])c2C1([H])[H]

$$$$
28:0:0
     RDKit          3D

 93103  0  0  1  0  0  0  0  0999 V2000
  -29.9090  -21.4330   19.8430 C   0  0  0  0  0  2  0  0  0  0  0  0
  -27.4750  -18.7770   20.3970 C   0  0  0  0  0  2  0  0  0  0  0  0
  -28.8890  -18.6670   18.2770 C   0  0  0  0  0  2  0  0  0  0  0  0
  -28.0380  -19.5890   19.1670 C   0  0  1  0  0  0  0  0  0  0  0  0
  -29.0450  -18.7920   20.5160 C   0  0  2  0  0  0  0  0  0  0  0  0
  -29.4300  -17.7870   19.3880 C   0  0  0  0  0  3  0  0  0  0  0  0
  -28.8530  -20.3480   20.2190 C   0  0  0  0  0  3  0  0  0  0  0  0
  -30.8570  -17.1270   19.2600 C   0  0  0  0  0  2  0  0  0  0  0  0
  -31.5670  -14.7470   19.5390 C   0  0  0  0  0  0  0  0  0  0  0  0
  -31.1210  -12.4400   18.7330 C   0  0  0  0  0  2  0  0  0  0  0  0
  -30.1120  -12.4570   17.5680 C   0  0  0  0  0  2  0  0  0  0  0  0
  -28.6720  -12.3980   18.1080 C   0  0  0  0  0  2  0  0  0  0  0  0
  -28.4190  -13.4380   19.2300 C   0  0  0  0  0  3  0  0  0  0  0  0
  -29.5380  -13.4110   20.2920 C   0  0  0  0  0  2  0  0  0  0  0  0
  -30.8290  -13.5940   19.6100 N   0  0  0  0  0  0  0  0  0  0  0  0
  -32.6260  -14.7870   18.9040 O   0  0  0  0  0  0  0  0  0  0  0  0
  -31.0750  -15.8950   20.1070 N   0  0  0  0  0  0  0  0  0  0  0  0
  -26.1920  -14.2340   20.2340 C   0  0  0  0  0  0  0  0  0  0  0  0
  -25.0800  -13.5550   20.6540 C   0  0  0  0  0  0  0  0  0  0  0  0
  -25.3760  -12.1680   20.4820 C   0  0  0  0  0  0  0  0  0  0  0  0
  -27.0990  -13.2680   19.8310 N   0  0  0  0  0  0  0  0  0  0  0  0
  -26.6190  -12.0140   20.0400 N   0  0  0  0  0  0  0  0  0  0  0  0
  -24.5280  -10.9810   20.6560 C   0  0  0  0  0  0  0  0  0  0  0  0
  -24.8670   -9.9580   21.5690 C   0  0  0  0  0  3  0  0  0  0  0  0
  -24.0280   -8.8350   21.7310 C   0  0  0  0  0  3  0  0  0  0  0  0
  -22.8330   -8.7280   20.9800 C   0  0  0  0  0  0  0  0  0  0  0  0
  -22.5130   -9.7350   20.0520 C   0  0  0  0  0  3  0  0  0  0  0  0
  -23.3530  -10.8500   19.8890 C   0  0  0  0  0  3  0  0  0  0  0  0
  -21.9700   -7.6630   21.0530 O   0  0  0  0  0  0  0  0  0  0  0  0
  -21.7720   -6.9750   22.2230 C   0  0  0  0  0  0  0  0  0  0  0  0
  -21.3360   -7.6170   23.4020 C   0  0  0  0  0  3  0  0  0  0  0  0
  -21.0800   -6.8610   24.5620 C   0  0  0  0  0  3  0  0  0  0  0  0
  -21.2510   -5.4640   24.5450 C   0  0  0  0  0  0  0  0  0  0  0  0
  -21.6800   -4.8210   23.3710 C   0  0  0  0  0  3  0  0  0  0  0  0
  -21.9390   -5.5760   22.2130 C   0  0  0  0  0  0  0  0  0  0  0  0
  -22.3330   -4.9490   21.0790 F   0  0  0  0  0  0  0  0  0  0  0  0
  -20.9970   -4.7360   25.6580 F   0  0  0  0  0  0  0  0  0  0  0  0
  -23.7790  -14.1570   21.1010 C   0  0  0  0  0  0  0  0  0  0  0  0
  -23.0820  -13.4990   22.0200 N   0  0  0  0  0  0  0  0  0  0  0  0
  -23.3970  -15.2440   20.6690 O   0  0  0  0  0  0  0  0  0  0  0  0
  -23.4060  -12.6170   22.3860 H   0  0  0  0  0  0  0  0  0  0  0  0
  -22.2100  -13.8810   22.3610 H   0  0  0  0  0  0  0  0  0  0  0  0
  -26.5040  -15.5870   20.1400 N   0  0  0  0  0  0  0  0  0  0  0  0
  -25.8450  -16.3180   20.3830 H   0  0  0  0  0  0  0  0  0  0  0  0
  -27.3860  -15.9410   19.7930 H   0  0  0  0  0  0  0  0  0  0  0  0
  -30.7360  -16.1270   22.5740 C   0  0  0  0  0  1  0  0  0  0  0  0
  -31.7070  -16.2570   21.3930 C   0  0  0  0  0  2  0  0  0  0  0  0
  -29.3300  -22.7350   19.3260 N   0  0  0  0  0  4  0  0  0  0  0  0
  -29.9560  -23.0040   18.5820 H   0  0  0  0  0  0  0  0  0  0  0  0
  -28.4450  -22.5260   18.8920 H   0  0  0  0  0  0  0  0  0  0  0  0
  -29.1850  -23.9670   20.2020 C   0  0  0  0  0  2  0  0  0  0  0  0
  -28.8690  -25.2980   19.3880 C   0  0  0  0  0  2  0  0  0  0  0  0
  -28.6860  -26.5780   20.1060 O   0  0  0  0  0  0  0  0  0  0  0  0
  -24.7630  -31.7510   23.1980 C   0  0  0  0  0  0  0  0  0  0  0  0
  -27.5060  -27.3420   20.0420 C   0  0  0  0  0  0  0  0  0  0  0  0
  -23.5960  -30.3620   21.5240 C   0  0  0  0  0  3  0  0  0  0  0  0
  -25.0880  -28.8850   20.0650 C   0  0  0  0  0  0  0  0  0  0  0  0
  -26.1240  -30.7490   21.3540 C   0  0  0  0  0  2  0  0  0  0  0  0
  -26.2400  -29.3890   20.6800 C   0  0  0  0  0  0  0  0  0  0  0  0
  -27.4440  -28.6280   20.6630 C   0  0  0  0  0  3  0  0  0  0  0  0
  -26.3220  -26.8910   19.4060 C   0  0  0  0  0  3  0  0  0  0  0  0
  -25.1320  -27.6410   19.4220 C   0  0  0  0  0  3  0  0  0  0  0  0
  -23.8270  -29.7210   20.1300 C   0  0  0  0  0  2  0  0  0  0  0  0
  -24.8460  -30.9690   22.0850 N   0  0  0  0  0  0  0  0  0  0  0  0
  -23.6720  -31.9960   23.7330 O   0  0  0  0  0  0  0  0  0  0  0  0
  -22.9530  -29.3090   22.4590 C   0  0  0  0  0  0  0  0  0  0  0  0
  -21.6370  -29.0830   22.2980 N   0  0  0  0  0  0  0  0  0  0  0  0
  -23.6380  -28.7010   23.2850 O   0  0  0  0  0  0  0  0  0  0  0  0
  -21.1390  -29.6310   21.6100 H   0  0  0  0  0  0  0  0  0  0  0  0
  -18.2990  -27.7690   22.7170 C   0  0  0  0  0  0  0  0  0  0  0  0
  -20.8400  -28.1060   23.0400 C   0  0  0  0  0  3  0  0  0  0  0  0
  -21.0030  -26.6890   22.4390 C   0  0  0  0  0  2  0  0  0  0  0  0
  -19.9260  -26.3420   21.4070 C   0  0  0  0  0  2  0  0  0  0  0  0
  -18.5330  -26.4300   22.0360 C   0  0  0  0  0  2  0  0  0  0  0  0
  -19.3830  -28.5610   23.1800 C   0  0  0  0  0  0  0  0  0  0  0  0
  -19.1120  -29.8060   23.7860 C   0  0  0  0  0  3  0  0  0  0  0  0
  -17.7900  -30.2630   23.9360 C   0  0  0  0  0  3  0  0  0  0  0  0
  -16.7190  -29.4700   23.4870 C   0  0  0  0  0  3  0  0  0  0  0  0
  -16.9750  -28.2260   22.8820 C   0  0  0  0  0  3  0  0  0  0  0  0
  -26.0330  -32.3940   23.8390 C   0  0  0  0  0  3  0  0  0  0  0  0
  -25.6970  -33.7820   24.1870 N   0  0  0  0  0  0  0  0  0  0  0  0
  -26.0230  -34.8520   23.4510 C   0  0  0  0  0  0  0  0  0  0  0  0
  -26.7080  -34.7770   22.4280 O   0  0  0  0  0  0  0  0  0  0  0  0
  -25.0890  -33.9160   24.9800 H   0  0  0  0  0  0  0  0  0  0  0  0
  -24.2740  -36.6250   23.1060 C   0  0  0  0  0  1  0  0  0  0  0  0
  -25.5090  -36.2250   23.9280 C   0  0  0  0  0  3  0  0  0  0  0  0
  -27.6170  -37.1250   24.8060 C   0  0  0  0  0  1  0  0  0  0  0  0
  -26.5270  -37.2950   23.8480 N   0  0  0  0  0  0  0  0  0  0  0  0
  -26.1050  -38.2060   24.0080 H   0  0  0  0  0  0  0  0  0  0  0  0
  -26.5520  -31.6110   25.1060 C   0  0  1  0  0  0  0  0  0  0  0  0
  -25.4510  -31.3260   26.1510 C   0  0  0  0  0  1  0  0  0  0  0  0
  -27.1800  -30.2580   24.6970 C   0  0  0  0  0  1  0  0  0  0  0  0
  -27.6670  -32.4250   25.8020 C   0  0  0  0  0  1  0  0  0  0  0  0
  3  6  1  0
  4  3  1  1
  4  7  1  0
  4  2  1  0
  4  5  1  0
  5  2  1  1
  6  8  1  0
  6  5  1  0
  7  1  1  0
  7  5  1  0
  8 17  1  0
  9 15  1  0
  9 17  1  0
 10 15  1  0
 11 12  1  0
 11 10  1  0
 13 12  1  0
 13 21  1  0
 13 14  1  0
 15 14  1  0
 16  9  2  0
 17 47  1  0
 18 19  2  0
 19 38  1  0
 20 19  1  0
 20 23  1  0
 21 22  1  0
 21 18  1  0
 22 20  2  0
 23 24  1  0
 24 25  2  0
 26 29  1  0
 26 25  1  0
 27 26  2  0
 28 27  1  0
 28 23  2  0
 29 30  1  0
 30 31  1  0
 31 32  2  0
 33 32  1  0
 33 37  1  0
 34 33  2  0
 35 30  2  0
 35 34  1  0
 36 35  1  0
 38 39  1  0
 39 42  1  0
 39 41  1  0
 40 38  2  0
 43 18  1  0
 43 44  1  0
 45 43  1  0
 47 46  1  0
 48  1  1  0
 48 51  1  0
 49 48  1  0
 50 48  1  0
 52 53  1  0
 52 51  1  0
 54 65  2  0
 55 53  1  0
 55 60  1  0
 56 64  1  0
 56 66  1  0
 57 63  1  0
 57 59  1  0
 58 64  1  0
 59 58  1  0
 60 59  2  0
 61 62  1  0
 61 55  2  0
 62 57  2  0
 63 56  1  0
 64 54  1  0
 66 68  2  0
 67 66  1  0
 69 67  1  0
 70 79  2  0
 70 75  1  0
 71 67  1  0
 71 75  1  0
 72 71  1  0
 73 74  1  0
 73 72  1  0
 74 70  1  0
 75 76  2  0
 76 77  1  0
 78 77  2  0
 79 78  1  0
 80 54  1  0
 80 81  1  0
 80 90  1  0
 81 84  1  0
 82 86  1  0
 82 81  1  0
 83 82  2  0
 86 85  1  0
 88 86  1  0
 88 89  1  0
 88 87  1  0
 90 93  1  1
 90 91  1  0
 92 90  1  0
M  ISO  4   9 100  17 100  52 101  53 101
M  END
>  <TORSDO>  (28) 
F 22

>  <SCORE>  (28) 
-11.355

>  <name>  (28) 
28

>  <ligand_id>  (28) 
28

>  <original_smiles>  (28) 
[H]c1c([H])c([H])c2c(c1[H])C([H])([H])C([H])([H])C([H])([H])C2([H])N([H])C(=O)C1([H])N(C(=O)C([H])(N([H])C(=O)C([H])(N([H])C([H])([H])[H])C([H])([H])[H])C(C([H])([H])[H])(C([H])([H])[H])C([H])([H])[H])C([H])([H])c2c([H])c(OC([H])([H])C([H])([H])[N+]([H])([H])C([H])([H])C3([H])C4([H])C([H])([H])C([H])(C([H])([H])N(C(=O)N5C([H])([H])C([H])([H])C([H])([H])C([H])(n6nc(-c7c([H])c([H])c(Oc8c([H])c([H])c(F)c([H])c8F)c([H])c7[H])c(C(=O)N([H])[H])c6N([H])[H])C5([H])[H])C([H])([H])C([H])([H])[H])C3([H])C4([H])[H])c([H])c([H])c2C1([H])[H]

>  <smiles>  (28) 
[H]c1c([H])c([H])c2c(c1[H])C([H])([H])C([H])([H])C([H])([H])C2([H])N([H])C(=O)C1([H])N(C(=O)C([H])(N([H])C(=O)C([H])(N([H])C([H])([H])[H])C([H])([H])[H])C(C([H])([H])[H])(C([H])([H])[H])C([H])([H])[H])C([H])([H])c2c([H])c(OC([H])([H])C([H])([H])[N+]([H])([H])C([H])([H])C3([H])C4([H])C([H])([H])C([H])(C([H])([H])N(C(=O)N5C([H])([H])C([H])([H])C([H])([H])C([H])(n6nc(-c7c([H])c([H])c(Oc8c([H])c([H])c(F)c([H])c8F)c([H])c7[H])c(C(=O)N([H])[H])c6N([H])[H])C5([H])[H])C([H])([H])C([H])([H])[H])C3([H])C4([H])[H])c([H])c([H])c2C1([H])[H]

$$$$
29:0:0
     RDKit          3D

 90 99  0  0  1  0  0  0  0  0999 V2000
  -30.3250  -20.8350   19.6510 C   0  0  0  0  0  3  0  0  0  0  0  0
  -29.9140  -22.2600   19.6510 C   0  0  0  0  0  3  0  0  0  0  0  0
  -27.7300  -21.5750   19.8850 C   0  0  0  0  0  3  0  0  0  0  0  0
  -29.4940  -19.6380   19.7620 C   0  0  0  0  0  0  0  0  0  0  0  0
  -28.5660  -22.7650   19.7860 C   0  0  0  0  0  0  0  0  0  0  0  0
  -28.1260  -20.1430   19.8830 C   0  0  0  0  0  0  0  0  0  0  0  0
  -26.9880  -19.1410   20.0230 C   0  0  0  0  0  1  0  0  0  0  0  0
  -30.7160  -15.1530   19.7940 C   0  0  0  0  0  0  0  0  0  0  0  0
  -30.6200  -12.7180   18.9550 C   0  0  0  0  0  2  0  0  0  0  0  0
  -29.6230  -12.5360   17.7850 C   0  0  0  0  0  2  0  0  0  0  0  0
  -28.1980  -12.2990   18.3130 C   0  0  0  0  0  2  0  0  0  0  0  0
  -27.8330  -13.2630   19.4690 C   0  0  0  0  0  3  0  0  0  0  0  0
  -28.9500  -13.3930   20.5260 C   0  0  0  0  0  2  0  0  0  0  0  0
  -30.1470  -13.8590   19.8130 N   0  0  0  0  0  0  0  0  0  0  0  0
  -31.8830  -15.1810   19.3800 O   0  0  0  0  0  0  0  0  0  0  0  0
  -29.8250  -16.6990   21.4840 C   0  0  0  0  0  2  0  0  0  0  0  0
  -30.1710  -18.0300   19.8270 C   0  0  0  0  0  3  0  0  0  0  0  0
  -30.7620  -17.8850   21.2500 C   0  0  0  0  0  3  0  0  0  0  0  0
  -30.7930  -19.0090   22.2820 C   0  0  0  0  0  1  0  0  0  0  0  0
  -29.9720  -16.3940   20.0610 N   0  0  0  0  0  0  0  0  0  0  0  0
  -25.5380  -13.8290   20.4310 C   0  0  0  0  0  0  0  0  0  0  0  0
  -24.4930  -13.0540   20.8460 C   0  0  0  0  0  0  0  0  0  0  0  0
  -24.9290  -11.6980   20.7220 C   0  0  0  0  0  0  0  0  0  0  0  0
  -26.5400  -12.9490   20.0670 N   0  0  0  0  0  0  0  0  0  0  0  0
  -26.1920  -11.6580   20.3080 N   0  0  0  0  0  0  0  0  0  0  0  0
  -24.1950  -10.4410   20.9140 C   0  0  0  0  0  0  0  0  0  0  0  0
  -24.6230   -9.4690   21.8450 C   0  0  0  0  0  3  0  0  0  0  0  0
  -23.8870   -8.2780   22.0270 C   0  0  0  0  0  3  0  0  0  0  0  0
  -22.7080   -8.0520   21.2770 C   0  0  0  0  0  0  0  0  0  0  0  0
  -22.3000   -9.0120   20.3350 C   0  0  0  0  0  3  0  0  0  0  0  0
  -23.0370  -10.1930   20.1510 C   0  0  0  0  0  3  0  0  0  0  0  0
  -21.9430   -6.9150   21.3690 O   0  0  0  0  0  0  0  0  0  0  0  0
  -21.8050   -6.2320   22.5510 C   0  0  0  0  0  0  0  0  0  0  0  0
  -21.2810   -6.8470   23.7090 C   0  0  0  0  0  3  0  0  0  0  0  0
  -21.0930   -6.0900   24.8830 C   0  0  0  0  0  3  0  0  0  0  0  0
  -21.4170   -4.7200   24.8990 C   0  0  0  0  0  0  0  0  0  0  0  0
  -21.9320   -4.1060   23.7440 C   0  0  0  0  0  3  0  0  0  0  0  0
  -22.1230   -4.8590   22.5730 C   0  0  0  0  0  0  0  0  0  0  0  0
  -22.6010   -4.2560   21.4570 F   0  0  0  0  0  0  0  0  0  0  0  0
  -21.2290   -3.9910   26.0240 F   0  0  0  0  0  0  0  0  0  0  0  0
  -23.1300  -13.5420   21.2410 C   0  0  0  0  0  0  0  0  0  0  0  0
  -22.4620  -12.8280   22.1410 N   0  0  0  0  0  0  0  0  0  0  0  0
  -22.6710  -14.5900   20.7900 O   0  0  0  0  0  0  0  0  0  0  0  0
  -22.8480  -11.9790   22.5250 H   0  0  0  0  0  0  0  0  0  0  0  0
  -21.5500  -13.1360   22.4500 H   0  0  0  0  0  0  0  0  0  0  0  0
  -25.7130  -15.2040   20.3040 N   0  0  0  0  0  0  0  0  0  0  0  0
  -24.9670  -15.8620   20.5060 H   0  0  0  0  0  0  0  0  0  0  0  0
  -26.5450  -15.6480   19.9390 H   0  0  0  0  0  0  0  0  0  0  0  0
  -27.8990  -24.3470   19.5840 C   0  0  0  0  0  2  0  0  0  0  0  0
  -28.2890  -25.8680   19.9610 O   0  0  0  0  0  0  0  0  0  0  0  0
  -24.6420  -31.6330   23.0700 C   0  0  0  0  0  0  0  0  0  0  0  0
  -27.2930  -26.9580   19.9040 C   0  0  0  0  0  0  0  0  0  0  0  0
  -23.4880  -30.2890   21.3620 C   0  0  0  0  0  3  0  0  0  0  0  0
  -24.9740  -28.7800   19.8940 C   0  0  0  0  0  0  0  0  0  0  0  0
  -26.0490  -30.5550   21.2560 C   0  0  0  0  0  2  0  0  0  0  0  0
  -26.1470  -29.1790   20.5490 C   0  0  0  0  0  0  0  0  0  0  0  0
  -27.3050  -28.2890   20.5350 C   0  0  0  0  0  3  0  0  0  0  0  0
  -26.0960  -26.7120   19.1920 C   0  0  0  0  0  3  0  0  0  0  0  0
  -24.9730  -27.5670   19.1940 C   0  0  0  0  0  3  0  0  0  0  0  0
  -23.7410  -29.6750   19.9600 C   0  0  0  0  0  2  0  0  0  0  0  0
  -24.7470  -30.8490   21.9500 N   0  0  0  0  0  0  0  0  0  0  0  0
  -23.5430  -31.8830   23.5900 O   0  0  0  0  0  0  0  0  0  0  0  0
  -22.8010  -29.2390   22.2760 C   0  0  0  0  0  0  0  0  0  0  0  0
  -21.4720  -29.0730   22.1400 N   0  0  0  0  0  0  0  0  0  0  0  0
  -23.4700  -28.5800   23.0760 O   0  0  0  0  0  0  0  0  0  0  0  0
  -20.9850  -29.6600   21.4770 H   0  0  0  0  0  0  0  0  0  0  0  0
  -18.0870  -27.8730   22.6350 C   0  0  0  0  0  0  0  0  0  0  0  0
  -20.6540  -28.0980   22.8680 C   0  0  0  0  0  3  0  0  0  0  0  0
  -20.7290  -26.7030   22.2040 C   0  0  0  0  0  2  0  0  0  0  0  0
  -19.6060  -26.4530   21.1930 C   0  0  0  0  0  2  0  0  0  0  0  0
  -18.2360  -26.5680   21.8700 C   0  0  0  0  0  2  0  0  0  0  0  0
  -19.2210  -28.5980   23.0900 C   0  0  0  0  0  0  0  0  0  0  0  0
  -19.0240  -29.8190   23.7700 C   0  0  0  0  0  3  0  0  0  0  0  0
  -17.7260  -30.3180   23.9940 C   0  0  0  0  0  3  0  0  0  0  0  0
  -16.6070  -29.5920   23.5530 C   0  0  0  0  0  3  0  0  0  0  0  0
  -16.7880  -28.3700   22.8810 C   0  0  0  0  0  3  0  0  0  0  0  0
  -25.8970  -32.2670   23.7420 C   0  0  0  0  0  3  0  0  0  0  0  0
  -25.5690  -33.6610   24.0890 N   0  0  0  0  0  0  0  0  0  0  0  0
  -25.8970  -34.7330   23.3560 C   0  0  0  0  0  0  0  0  0  0  0  0
  -26.5750  -34.6560   22.3290 O   0  0  0  0  0  0  0  0  0  0  0  0
  -24.9760  -33.7940   24.8940 H   0  0  0  0  0  0  0  0  0  0  0  0
  -24.1540  -36.5210   23.0330 C   0  0  0  0  0  1  0  0  0  0  0  0
  -25.3960  -36.1100   23.8390 C   0  0  0  0  0  3  0  0  0  0  0  0
  -27.5190  -37.0050   24.6940 C   0  0  0  0  0  1  0  0  0  0  0  0
  -26.4200  -37.1760   23.7470 N   0  0  0  0  0  0  0  0  0  0  0  0
  -26.0010  -38.0890   23.9070 H   0  0  0  0  0  0  0  0  0  0  0  0
  -26.3720  -31.4850   25.0280 C   0  0  1  0  0  0  0  0  0  0  0  0
  -25.2450  -31.2370   26.0570 C   0  0  0  0  0  1  0  0  0  0  0  0
  -26.9720  -30.1110   24.6500 C   0  0  0  0  0  1  0  0  0  0  0  0
  -27.4940  -32.2780   25.7410 C   0  0  0  0  0  1  0  0  0  0  0  0
  1  4  1  0
  2  1  2  0
  2  5  1  0
  4  6  2  0
  5  3  2  0
  6  3  1  0
  6  7  1  0
  8 14  1  0
  8 20  1  0
  9 14  1  0
 10 11  1  0
 10  9  1  0
 12 11  1  0
 12 24  1  0
 12 13  1  0
 14 13  1  0
 15  8  2  0
 17  4  1  0
 17 20  1  0
 17 18  1  0
 18 16  1  0
 18 19  1  0
 20 16  1  0
 21 22  2  0
 22 41  1  0
 23 22  1  0
 23 26  1  0
 24 25  1  0
 24 21  1  0
 25 23  2  0
 26 27  1  0
 27 28  2  0
 29 32  1  0
 29 28  1  0
 30 29  2  0
 31 30  1  0
 31 26  2  0
 32 33  1  0
 33 38  2  0
 33 34  1  0
 34 35  2  0
 35 36  1  0
 36 40  1  0
 37 36  2  0
 38 37  1  0
 39 38  1  0
 41 42  1  0
 42 45  1  0
 42 44  1  0
 43 41  2  0
 46 21  1  0
 46 47  1  0
 48 46  1  0
 49  5  1  0
 49 50  1  0
 51 62  2  0
 52 50  1  0
 52 57  1  0
 53 61  1  0
 53 63  1  0
 54 60  1  0
 54 56  1  0
 55 61  1  0
 56 55  1  0
 57 56  2  0
 58 59  1  0
 58 52  2  0
 59 54  2  0
 60 53  1  0
 61 51  1  0
 63 65  2  0
 64 63  1  0
 66 64  1  0
 67 76  2  0
 67 72  1  0
 68 64  1  0
 68 72  1  0
 69 68  1  0
 70 71  1  0
 70 69  1  0
 71 67  1  0
 72 73  2  0
 73 74  1  0
 75 74  2  0
 76 75  1  0
 77 51  1  0
 77 78  1  0
 77 87  1  0
 78 81  1  0
 79 83  1  0
 79 78  1  0
 80 79  2  0
 83 82  1  0
 85 83  1  0
 85 86  1  0
 85 84  1  0
 87 90  1  1
 87 88  1  0
 89 87  1  0
M  ISO  4   8 100  20 100  49 101  50 101
M  END
>  <TORSDO>  (29) 
F 17

>  <SCORE>  (29) 
-15.281

>  <name>  (29) 
29

>  <ligand_id>  (29) 
29

>  <original_smiles>  (29) 
[H]c1c([H])c([H])c2c(c1[H])C([H])([H])C([H])([H])C([H])([H])C2([H])N([H])C(=O)C1([H])N(C(=O)C([H])(N([H])C(=O)C([H])(N([H])C([H])([H])[H])C([H])([H])[H])C(C([H])([H])[H])(C([H])([H])[H])C([H])([H])[H])C([H])([H])c2c([H])c(OC([H])([H])c3c([H])c([H])c(C4([H])N(C(=O)N5C([H])([H])C([H])([H])C([H])([H])C([H])(n6nc(-c7c([H])c([H])c(Oc8c([H])c([H])c(F)c([H])c8F)c([H])c7[H])c(C(=O)N([H])[H])c6N([H])[H])C5([H])[H])C([H])([H])C4([H])C([H])([H])[H])c(C([H])([H])[H])c3[H])c([H])c([H])c2C1([H])[H]

>  <smiles>  (29) 
[H]c1c([H])c([H])c2c(c1[H])C([H])([H])C([H])([H])C([H])([H])C2([H])N([H])C(=O)C1([H])N(C(=O)C([H])(N([H])C(=O)C([H])(N([H])C([H])([H])[H])C([H])([H])[H])C(C([H])([H])[H])(C([H])([H])[H])C([H])([H])[H])C([H])([H])c2c([H])c(OC([H])([H])c3c([H])c([H])c(C4([H])N(C(=O)N5C([H])([H])C([H])([H])C([H])([H])C([H])(n6nc(-c7c([H])c([H])c(Oc8c([H])c([H])c(F)c([H])c8F)c([H])c7[H])c(C(=O)N([H])[H])c6N([H])[H])C5([H])[H])C([H])([H])C4([H])C([H])([H])[H])c(C([H])([H])[H])c3[H])c([H])c([H])c2C1([H])[H]

$$$$
30:0:0
     RDKit          3D

 93101  0  0  1  0  0  0  0  0999 V2000
  -30.1500  -22.2880   21.4050 C   0  0  0  0  0  2  0  0  0  0  0  0
  -29.0170  -20.0050   21.2000 C   0  0  0  0  0  3  0  0  0  0  0  0
  -29.0150  -18.6590   20.7760 C   0  0  0  0  0  3  0  0  0  0  0  0
  -31.3180  -20.2330   20.4500 C   0  0  0  0  0  3  0  0  0  0  0  0
  -30.1600  -20.8120   21.0100 C   0  0  0  0  0  0  0  0  0  0  0  0
  -30.1530  -18.0960   20.1610 C   0  0  0  0  0  0  0  0  0  0  0  0
  -31.3290  -18.8820   20.0370 C   0  0  0  0  0  0  0  0  0  0  0  0
  -32.6070  -18.3140   19.4400 C   0  0  0  0  0  1  0  0  0  0  0  0
  -30.0370  -16.7150   19.5170 C   0  0  0  0  0  2  0  0  0  0  0  0
  -30.8030  -14.4870   20.1570 C   0  0  0  0  0  0  0  0  0  0  0  0
  -30.4290  -12.3490   19.0240 C   0  0  0  0  0  2  0  0  0  0  0  0
  -29.4650  -12.6270   17.8500 C   0  0  0  0  0  2  0  0  0  0  0  0
  -27.9970  -12.5210   18.3120 C   0  0  0  0  0  2  0  0  0  0  0  0
  -27.7170  -13.3260   19.6100 C   0  0  0  0  0  3  0  0  0  0  0  0
  -28.7990  -13.0510   20.6840 C   0  0  0  0  0  2  0  0  0  0  0  0
  -30.1180  -13.3150   20.0870 N   0  0  0  0  0  0  0  0  0  0  0  0
  -31.9450  -14.6320   19.7170 O   0  0  0  0  0  0  0  0  0  0  0  0
  -30.0310  -15.5530   20.4140 N   0  0  0  0  0  0  0  0  0  0  0  0
  -29.1440  -15.3440   20.8470 H   0  0  0  0  0  0  0  0  0  0  0  0
  -25.3400  -13.9650   20.3690 C   0  0  0  0  0  0  0  0  0  0  0  0
  -24.2720  -13.2060   20.7660 C   0  0  0  0  0  0  0  0  0  0  0  0
  -24.7190  -11.8500   20.7310 C   0  0  0  0  0  0  0  0  0  0  0  0
  -26.3710  -13.0700   20.1190 N   0  0  0  0  0  0  0  0  0  0  0  0
  -26.0010  -11.7950   20.3950 N   0  0  0  0  0  0  0  0  0  0  0  0
  -23.9840  -10.5970   20.9440 C   0  0  0  0  0  0  0  0  0  0  0  0
  -24.4300   -9.6280   21.8710 C   0  0  0  0  0  3  0  0  0  0  0  0
  -23.6980   -8.4390   22.0700 C   0  0  0  0  0  3  0  0  0  0  0  0
  -22.5050   -8.2080   21.3430 C   0  0  0  0  0  0  0  0  0  0  0  0
  -22.0790   -9.1660   20.4060 C   0  0  0  0  0  3  0  0  0  0  0  0
  -22.8120  -10.3470   20.2040 C   0  0  0  0  0  3  0  0  0  0  0  0
  -21.7410   -7.0710   21.4540 O   0  0  0  0  0  0  0  0  0  0  0  0
  -21.7120   -6.3330   22.6100 C   0  0  0  0  0  0  0  0  0  0  0  0
  -21.3270   -6.8970   23.8450 C   0  0  0  0  0  3  0  0  0  0  0  0
  -21.2450   -6.0860   24.9940 C   0  0  0  0  0  3  0  0  0  0  0  0
  -21.5370   -4.7120   24.9090 C   0  0  0  0  0  0  0  0  0  0  0  0
  -21.9130   -4.1460   23.6780 C   0  0  0  0  0  3  0  0  0  0  0  0
  -21.9990   -4.9550   22.5310 C   0  0  0  0  0  0  0  0  0  0  0  0
  -22.3430   -4.4010   21.3440 F   0  0  0  0  0  0  0  0  0  0  0  0
  -21.4490   -3.9300   26.0100 F   0  0  0  0  0  0  0  0  0  0  0  0
  -22.8870  -13.7000   21.0670 C   0  0  0  0  0  0  0  0  0  0  0  0
  -22.1720  -13.0180   21.9560 N   0  0  0  0  0  0  0  0  0  0  0  0
  -22.4470  -14.7250   20.5500 O   0  0  0  0  0  0  0  0  0  0  0  0
  -22.5390  -12.1890   22.3980 H   0  0  0  0  0  0  0  0  0  0  0  0
  -21.2420  -13.3310   22.1980 H   0  0  0  0  0  0  0  0  0  0  0  0
  -25.5120  -15.3330   20.1770 N   0  0  0  0  0  0  0  0  0  0  0  0
  -24.7470  -15.9880   20.2910 H   0  0  0  0  0  0  0  0  0  0  0  0
  -26.3470  -15.7640   19.8010 H   0  0  0  0  0  0  0  0  0  0  0  0
  -29.4030  -23.1120   20.4290 N   0  0  0  0  0  4  0  0  0  0  0  0
  -28.4420  -22.8090   20.4650 H   0  0  0  0  0  0  0  0  0  0  0  0
  -29.7500  -22.9010   19.5070 H   0  0  0  0  0  0  0  0  0  0  0  0
  -29.4670  -24.5820   20.6630 C   0  0  0  0  0  2  0  0  0  0  0  0
  -28.3870  -25.3460   19.8690 C   0  0  0  0  0  2  0  0  0  0  0  0
  -28.4270  -26.7530   20.1610 O   0  0  0  0  0  0  0  0  0  0  0  0
  -24.5930  -31.8910   23.2350 C   0  0  0  0  0  0  0  0  0  0  0  0
  -27.2430  -27.4660   20.1260 C   0  0  0  0  0  0  0  0  0  0  0  0
  -23.3890  -30.4980   21.5850 C   0  0  0  0  0  3  0  0  0  0  0  0
  -24.8440  -28.9730   20.1490 C   0  0  0  0  0  0  0  0  0  0  0  0
  -25.9150  -30.8600   21.3910 C   0  0  0  0  0  2  0  0  0  0  0  0
  -26.0010  -29.4930   20.7430 C   0  0  0  0  0  0  0  0  0  0  0  0
  -27.2000  -28.7460   20.7290 C   0  0  0  0  0  3  0  0  0  0  0  0
  -26.0670  -26.9730   19.5110 C   0  0  0  0  0  3  0  0  0  0  0  0
  -24.8710  -27.7140   19.5320 C   0  0  0  0  0  3  0  0  0  0  0  0
  -23.5980  -29.8280   20.2010 C   0  0  0  0  0  2  0  0  0  0  0  0
  -24.6510  -31.0970   22.1290 N   0  0  0  0  0  0  0  0  0  0  0  0
  -23.5120  -32.1600   23.7750 O   0  0  0  0  0  0  0  0  0  0  0  0
  -22.7390  -29.4700   22.5380 C   0  0  0  0  0  0  0  0  0  0  0  0
  -21.4150  -29.2850   22.4070 N   0  0  0  0  0  0  0  0  0  0  0  0
  -23.4220  -28.8410   23.3520 O   0  0  0  0  0  0  0  0  0  0  0  0
  -20.9260  -29.8430   21.7220 H   0  0  0  0  0  0  0  0  0  0  0  0
  -18.0430  -28.0800   22.8860 C   0  0  0  0  0  0  0  0  0  0  0  0
  -20.5980  -28.3430   23.1700 C   0  0  0  0  0  3  0  0  0  0  0  0
  -20.7070  -26.9130   22.5890 C   0  0  0  0  0  2  0  0  0  0  0  0
  -19.6110  -26.5930   21.5690 C   0  0  0  0  0  2  0  0  0  0  0  0
  -18.2260  -26.7330   22.2070 C   0  0  0  0  0  2  0  0  0  0  0  0
  -19.1580  -28.8430   23.3230 C   0  0  0  0  0  0  0  0  0  0  0  0
  -18.9340  -30.1050   23.9160 C   0  0  0  0  0  3  0  0  0  0  0  0
  -17.6280  -30.6030   24.0770 C   0  0  0  0  0  3  0  0  0  0  0  0
  -16.5270  -29.8380   23.6560 C   0  0  0  0  0  3  0  0  0  0  0  0
  -16.7350  -28.5780   23.0660 C   0  0  0  0  0  3  0  0  0  0  0  0
  -25.8790  -32.5200   23.8590 C   0  0  0  0  0  3  0  0  0  0  0  0
  -25.5710  -33.9160   24.1920 N   0  0  0  0  0  0  0  0  0  0  0  0
  -25.9050  -34.9690   23.4330 C   0  0  0  0  0  0  0  0  0  0  0  0
  -26.5760  -34.8660   22.4020 O   0  0  0  0  0  0  0  0  0  0  0  0
  -24.9770  -34.0710   24.9920 H   0  0  0  0  0  0  0  0  0  0  0  0
  -24.1760  -36.7600   23.0800 C   0  0  0  0  0  1  0  0  0  0  0  0
  -25.4170  -36.3560   23.8920 C   0  0  0  0  0  3  0  0  0  0  0  0
  -27.5510  -37.2410   24.7230 C   0  0  0  0  0  1  0  0  0  0  0  0
  -26.4490  -37.4100   23.7790 N   0  0  0  0  0  0  0  0  0  0  0  0
  -26.0430  -38.3300   23.9290 H   0  0  0  0  0  0  0  0  0  0  0  0
  -26.3950  -31.7430   25.1320 C   0  0  1  0  0  0  0  0  0  0  0  0
  -25.3010  -31.5030   26.1990 C   0  0  0  0  0  1  0  0  0  0  0  0
  -26.9780  -30.3670   24.7330 C   0  0  0  0  0  1  0  0  0  0  0  0
  -27.5460  -32.5350   25.7970 C   0  0  0  0  0  1  0  0  0  0  0  0
  3  2  2  0
  4  5  2  0
  5  2  1  0
  5  1  1  0
  6  3  1  0
  7  6  2  0
  7  4  1  0
  8  7  1  0
  9  6  1  0
  9 18  1  0
 10 18  1  0
 11 16  1  0
 12 13  1  0
 12 11  1  0
 14 13  1  0
 14 23  1  0
 14 15  1  0
 16 10  1  0
 16 15  1  0
 17 10  2  0
 18 19  1  0
 20 21  2  0
 21 40  1  0
 22 21  1  0
 22 25  1  0
 23 20  1  0
 23 24  1  0
 24 22  2  0
 25 26  1  0
 26 27  2  0
 28 31  1  0
 28 27  1  0
 29 28  2  0
 30 29  1  0
 30 25  2  0
 31 32  1  0
 32 33  1  0
 33 34  2  0
 35 34  1  0
 35 39  1  0
 36 35  2  0
 37 32  2  0
 37 36  1  0
 38 37  1  0
 40 41  1  0
 41 44  1  0
 41 43  1  0
 42 40  2  0
 45 46  1  0
 45 20  1  0
 47 45  1  0
 48 49  1  0
 48 51  1  0
 48  1  1  0
 50 48  1  0
 52 53  1  0
 52 51  1  0
 54 65  2  0
 55 53  1  0
 55 60  1  0
 56 64  1  0
 56 66  1  0
 57 63  1  0
 57 59  1  0
 58 64  1  0
 59 58  1  0
 60 59  2  0
 61 62  1  0
 61 55  2  0
 62 57  2  0
 63 56  1  0
 64 54  1  0
 66 68  2  0
 67 66  1  0
 69 67  1  0
 70 79  2  0
 70 75  1  0
 71 67  1  0
 71 75  1  0
 72 71  1  0
 73 74  1  0
 73 72  1  0
 74 70  1  0
 75 76  2  0
 76 77  1  0
 78 77  2  0
 79 78  1  0
 80 54  1  0
 80 81  1  0
 80 90  1  0
 81 84  1  0
 82 86  1  0
 82 81  1  0
 83 82  2  0
 86 85  1  0
 88 86  1  0
 88 89  1  0
 88 87  1  0
 90 93  1  1
 90 91  1  0
 92 90  1  0
M  ISO  4  10 100  18 100  52 101  53 101
M  END
>  <TORSDO>  (30) 
F 21

>  <SCORE>  (30) 
-13.226

>  <name>  (30) 
30

>  <ligand_id>  (30) 
30

>  <original_smiles>  (30) 
[H]c1c([H])c([H])c2c(c1[H])C([H])([H])C([H])([H])C([H])([H])C2([H])N([H])C(=O)C1([H])N(C(=O)C([H])(N([H])C(=O)C([H])(N([H])C([H])([H])[H])C([H])([H])[H])C(C([H])([H])[H])(C([H])([H])[H])C([H])([H])[H])C([H])([H])c2c([H])c(OC([H])([H])C([H])([H])[N+]([H])([H])C([H])([H])c3c([H])c([H])c(C([H])([H])N([H])C(=O)N4C([H])([H])C([H])([H])C([H])([H])C([H])(n5nc(-c6c([H])c([H])c(Oc7c([H])c([H])c(F)c([H])c7F)c([H])c6[H])c(C(=O)N([H])[H])c5N([H])[H])C4([H])[H])c(C([H])([H])[H])c3[H])c([H])c([H])c2C1([H])[H]

>  <smiles>  (30) 
[H]c1c([H])c([H])c2c(c1[H])C([H])([H])C([H])([H])C([H])([H])C2([H])N([H])C(=O)C1([H])N(C(=O)C([H])(N([H])C(=O)C([H])(N([H])C([H])([H])[H])C([H])([H])[H])C(C([H])([H])[H])(C([H])([H])[H])C([H])([H])[H])C([H])([H])c2c([H])c(OC([H])([H])C([H])([H])[N+]([H])([H])C([H])([H])c3c([H])c([H])c(C([H])([H])N([H])C(=O)N4C([H])([H])C([H])([H])C([H])([H])C([H])(n5nc(-c6c([H])c([H])c(Oc7c([H])c([H])c(F)c([H])c7F)c([H])c6[H])c(C(=O)N([H])[H])c5N([H])[H])C4([H])[H])c(C([H])([H])[H])c3[H])c([H])c([H])c2C1([H])[H]

$$$$
31:0:0
     RDKit          3D

 90 98  0  0  1  0  0  0  0  0999 V2000
  -29.7670  -23.5030   19.0910 C   0  0  0  0  0  3  0  0  0  0  0  0
  -30.4800  -22.4130   18.5460 C   0  0  0  0  0  3  0  0  0  0  0  0
  -28.6310  -21.8920   20.4930 C   0  0  0  0  0  3  0  0  0  0  0  0
  -28.7890  -23.3190   20.0760 C   0  0  0  0  0  0  0  0  0  0  0  0
  -30.2920  -21.0540   18.9330 C   0  0  0  0  0  0  0  0  0  0  0  0
  -29.3700  -20.7000   19.9700 C   0  0  0  0  0  0  0  0  0  0  0  0
  -31.9400  -20.4190   16.9960 C   0  0  0  0  0  1  0  0  0  0  0  0
  -31.0670  -19.9720   18.1820 C   0  0  0  0  0  2  0  0  0  0  0  0
  -29.1200  -19.0970   20.4160 C   0  0  0  0  0  3  0  0  0  0  0  0
  -30.1090  -17.7180   20.1890 C   0  0  0  0  0  3  0  0  0  0  0  0
  -30.5110  -14.9970   20.3350 C   0  0  0  0  0  0  0  0  0  0  0  0
  -30.3780  -12.6480   19.3890 C   0  0  0  0  0  2  0  0  0  0  0  0
  -29.4480  -12.6250   18.1540 C   0  0  0  0  0  2  0  0  0  0  0  0
  -27.9810  -12.4240   18.5770 C   0  0  0  0  0  2  0  0  0  0  0  0
  -27.5810  -13.3270   19.7740 C   0  0  0  0  0  3  0  0  0  0  0  0
  -28.6360  -13.3300   20.9000 C   0  0  0  0  0  2  0  0  0  0  0  0
  -29.9070  -13.7400   20.2920 N   0  0  0  0  0  0  0  0  0  0  0  0
  -31.7100  -15.0510   20.0420 O   0  0  0  0  0  0  0  0  0  0  0  0
  -29.7510  -16.1960   20.4830 N   0  0  0  0  0  0  0  0  0  0  0  0
  -28.7810  -16.0320   20.7070 H   0  0  0  0  0  0  0  0  0  0  0  0
  -25.1980  -13.8950   20.5050 C   0  0  0  0  0  0  0  0  0  0  0  0
  -24.1340  -13.1180   20.8710 C   0  0  0  0  0  0  0  0  0  0  0  0
  -24.6030  -11.7680   20.8400 C   0  0  0  0  0  0  0  0  0  0  0  0
  -26.2440  -13.0210   20.2680 N   0  0  0  0  0  0  0  0  0  0  0  0
  -25.8960  -11.7350   20.5340 N   0  0  0  0  0  0  0  0  0  0  0  0
  -23.8770  -10.5050   21.0260 C   0  0  0  0  0  0  0  0  0  0  0  0
  -24.2980   -9.5410   21.9700 C   0  0  0  0  0  3  0  0  0  0  0  0
  -23.5720   -8.3430   22.1430 C   0  0  0  0  0  3  0  0  0  0  0  0
  -22.4080   -8.1000   21.3740 C   0  0  0  0  0  0  0  0  0  0  0  0
  -22.0060   -9.0520   20.4200 C   0  0  0  0  0  3  0  0  0  0  0  0
  -22.7340  -10.2420   20.2450 C   0  0  0  0  0  3  0  0  0  0  0  0
  -21.6530   -6.9550   21.4570 O   0  0  0  0  0  0  0  0  0  0  0  0
  -21.5820   -6.2220   22.6150 C   0  0  0  0  0  0  0  0  0  0  0  0
  -21.1190   -6.7830   23.8240 C   0  0  0  0  0  3  0  0  0  0  0  0
  -20.9950   -5.9770   24.9730 C   0  0  0  0  0  3  0  0  0  0  0  0
  -21.3250   -4.6090   24.9130 C   0  0  0  0  0  0  0  0  0  0  0  0
  -21.7810   -4.0470   23.7080 C   0  0  0  0  0  3  0  0  0  0  0  0
  -21.9070   -4.8510   22.5610 C   0  0  0  0  0  0  0  0  0  0  0  0
  -22.3270   -4.3000   21.3970 F   0  0  0  0  0  0  0  0  0  0  0  0
  -21.2010   -3.8320   26.0150 F   0  0  0  0  0  0  0  0  0  0  0  0
  -22.7350  -13.5920   21.1370 C   0  0  0  0  0  0  0  0  0  0  0  0
  -22.0070  -12.8930   21.9980 N   0  0  0  0  0  0  0  0  0  0  0  0
  -22.2990  -14.6170   20.6140 O   0  0  0  0  0  0  0  0  0  0  0  0
  -22.3750  -12.0640   22.4400 H   0  0  0  0  0  0  0  0  0  0  0  0
  -21.0660  -13.1900   22.2200 H   0  0  0  0  0  0  0  0  0  0  0  0
  -25.3570  -15.2680   20.3260 N   0  0  0  0  0  0  0  0  0  0  0  0
  -24.5800  -15.9130   20.4220 H   0  0  0  0  0  0  0  0  0  0  0  0
  -26.1890  -15.7050   19.9550 H   0  0  0  0  0  0  0  0  0  0  0  0
  -27.9310  -24.6520   20.5500 C   0  0  0  0  0  2  0  0  0  0  0  0
  -28.2450  -26.1520   20.2140 O   0  0  0  0  0  0  0  0  0  0  0  0
  -24.6540  -31.8850   23.2380 C   0  0  0  0  0  0  0  0  0  0  0  0
  -27.2020  -27.1530   20.1990 C   0  0  0  0  0  0  0  0  0  0  0  0
  -23.4440  -30.4870   21.6110 C   0  0  0  0  0  3  0  0  0  0  0  0
  -24.8810  -28.9110   20.1780 C   0  0  0  0  0  0  0  0  0  0  0  0
  -25.9980  -30.7470   21.4300 C   0  0  0  0  0  2  0  0  0  0  0  0
  -26.0670  -29.3520   20.7810 C   0  0  0  0  0  0  0  0  0  0  0  0
  -27.2300  -28.4900   20.7730 C   0  0  0  0  0  3  0  0  0  0  0  0
  -25.9950  -26.8250   19.5450 C   0  0  0  0  0  3  0  0  0  0  0  0
  -24.8600  -27.6620   19.5430 C   0  0  0  0  0  3  0  0  0  0  0  0
  -23.6560  -29.8100   20.2310 C   0  0  0  0  0  2  0  0  0  0  0  0
  -24.7190  -31.0610   22.1470 N   0  0  0  0  0  0  0  0  0  0  0  0
  -23.5710  -32.1700   23.7720 O   0  0  0  0  0  0  0  0  0  0  0  0
  -22.7710  -29.4790   22.5780 C   0  0  0  0  0  0  0  0  0  0  0  0
  -21.4440  -29.3030   22.4550 N   0  0  0  0  0  0  0  0  0  0  0  0
  -23.4470  -28.8580   23.4010 O   0  0  0  0  0  0  0  0  0  0  0  0
  -20.9540  -29.8540   21.7650 H   0  0  0  0  0  0  0  0  0  0  0  0
  -18.0690  -28.0880   22.9710 C   0  0  0  0  0  0  0  0  0  0  0  0
  -20.6280  -28.3660   23.2330 C   0  0  0  0  0  3  0  0  0  0  0  0
  -20.7370  -26.9300   22.6690 C   0  0  0  0  0  2  0  0  0  0  0  0
  -19.6360  -26.5950   21.6580 C   0  0  0  0  0  2  0  0  0  0  0  0
  -18.2530  -26.7360   22.3010 C   0  0  0  0  0  2  0  0  0  0  0  0
  -19.1840  -28.8600   23.3940 C   0  0  0  0  0  0  0  0  0  0  0  0
  -18.9570  -30.1240   23.9810 C   0  0  0  0  0  3  0  0  0  0  0  0
  -17.6480  -30.6150   24.1470 C   0  0  0  0  0  3  0  0  0  0  0  0
  -16.5490  -29.8420   23.7390 C   0  0  0  0  0  3  0  0  0  0  0  0
  -16.7600  -28.5780   23.1570 C   0  0  0  0  0  3  0  0  0  0  0  0
  -25.9350  -32.5240   23.8560 C   0  0  0  0  0  3  0  0  0  0  0  0
  -26.4550  -31.7560   25.1320 C   0  0  1  0  0  0  0  0  0  0  0  0
  -25.3660  -31.5210   26.2060 C   0  0  0  0  0  1  0  0  0  0  0  0
  -27.0380  -30.3770   24.7470 C   0  0  0  0  0  1  0  0  0  0  0  0
  -27.6100  -32.5510   25.7870 C   0  0  0  0  0  1  0  0  0  0  0  0
  -25.6210  -33.9210   24.1930 N   0  0  0  0  0  0  0  0  0  0  0  0
  -25.9410  -34.9810   23.4370 C   0  0  0  0  0  0  0  0  0  0  0  0
  -26.5970  -34.8840   22.3960 O   0  0  0  0  0  0  0  0  0  0  0  0
  -25.0370  -34.0710   25.0030 H   0  0  0  0  0  0  0  0  0  0  0  0
  -24.2060  -36.7760   23.1170 C   0  0  0  0  0  1  0  0  0  0  0  0
  -25.4590  -36.3660   23.9090 C   0  0  0  0  0  3  0  0  0  0  0  0
  -27.6030  -37.2540   24.7160 C   0  0  0  0  0  1  0  0  0  0  0  0
  -26.4880  -37.4230   23.7870 N   0  0  0  0  0  0  0  0  0  0  0  0
  -26.0830  -38.3420   23.9410 H   0  0  0  0  0  0  0  0  0  0  0  0
  1  4  1  0
  2  5  1  0
  2  1  2  0
  4  3  2  0
  4 49  1  0
  5  6  2  0
  6  9  1  0
  6  3  1  0
  7  8  1  0
  8  5  1  0
 10  9  2  0
 10 19  1  0
 11 19  1  0
 12 17  1  0
 13 14  1  0
 13 12  1  0
 15 14  1  0
 15 24  1  0
 15 16  1  0
 17 11  1  0
 17 16  1  0
 18 11  2  0
 19 20  1  0
 21 22  2  0
 22 41  1  0
 23 22  1  0
 23 26  1  0
 24 21  1  0
 24 25  1  0
 25 23  2  0
 26 27  1  0
 27 28  2  0
 29 32  1  0
 29 28  1  0
 30 29  2  0
 31 30  1  0
 31 26  2  0
 32 33  1  0
 33 34  1  0
 34 35  2  0
 36 35  1  0
 36 40  1  0
 37 36  2  0
 38 33  2  0
 38 37  1  0
 39 38  1  0
 41 42  1  0
 42 45  1  0
 42 44  1  0
 43 41  2  0
 46 47  1  0
 46 21  1  0
 48 46  1  0
 50 49  1  0
 51 62  2  0
 52 50  1  0
 52 57  1  0
 53 61  1  0
 53 63  1  0
 54 60  1  0
 54 56  1  0
 55 61  1  0
 56 55  1  0
 57 56  2  0
 58 52  2  0
 59 58  1  0
 59 54  2  0
 60 53  1  0
 61 51  1  0
 63 65  2  0
 64 63  1  0
 66 64  1  0
 67 76  2  0
 67 72  1  0
 68 64  1  0
 68 72  1  0
 69 68  1  0
 70 71  1  0
 70 69  1  0
 71 67  1  0
 72 73  2  0
 73 74  1  0
 75 74  2  0
 76 75  1  0
 77 51  1  0
 77 82  1  0
 77 78  1  0
 78 81  1  1
 78 79  1  0
 80 78  1  0
 82 85  1  0
 83 87  1  0
 83 82  1  0
 84 83  2  0
 87 86  1  0
 89 87  1  0
 89 90  1  0
 89 88  1  0
M  ISO  4  11 100  19 100  49 101  50 101
M  END
>  <TORSDO>  (31) 
F 20

>  <SCORE>  (31) 
-14.468

>  <name>  (31) 
31

>  <ligand_id>  (31) 
31

>  <original_smiles>  (31) 
[H]c1c([H])c([H])c2c(c1[H])C([H])([H])C([H])([H])C([H])([H])C2([H])N([H])C(=O)C1([H])N(C(=O)C([H])(N([H])C(=O)C([H])(N([H])C([H])([H])[H])C([H])([H])[H])C(C([H])([H])[H])(C([H])([H])[H])C([H])([H])[H])C([H])([H])c2c([H])c(OC([H])([H])c3c([H])c([H])c(C([H])([H])C([H])([H])[H])c(C([H])([H])C([H])([H])N([H])C(=O)N4C([H])([H])C([H])([H])C([H])([H])C([H])(n5nc(-c6c([H])c([H])c(Oc7c([H])c([H])c(F)c([H])c7F)c([H])c6[H])c(C(=O)N([H])[H])c5N([H])[H])C4([H])[H])c3[H])c([H])c([H])c2C1([H])[H]

>  <smiles>  (31) 
[H]c1c([H])c([H])c2c(c1[H])C([H])([H])C([H])([H])C([H])([H])C2([H])N([H])C(=O)C1([H])N(C(=O)C([H])(N([H])C(=O)C([H])(N([H])C([H])([H])[H])C([H])([H])[H])C(C([H])([H])[H])(C([H])([H])[H])C([H])([H])[H])C([H])([H])c2c([H])c(OC([H])([H])c3c([H])c([H])c(C([H])([H])C([H])([H])[H])c(C([H])([H])C([H])([H])N([H])C(=O)N4C([H])([H])C([H])([H])C([H])([H])C([H])(n5nc(-c6c([H])c([H])c(Oc7c([H])c([H])c(F)c([H])c7F)c([H])c6[H])c(C(=O)N([H])[H])c5N([H])[H])C4([H])[H])c3[H])c([H])c([H])c2C1([H])[H]

$$$$
32:0:0
     RDKit          3D

 91 99  0  0  1  0  0  0  0  0999 V2000
  -30.9980  -15.3390   19.7610 C   0  0  0  0  0  0  0  0  0  0  0  0
  -30.9590  -12.8100   19.1560 C   0  0  0  0  0  2  0  0  0  0  0  0
  -30.0320  -12.4780   17.9580 C   0  0  0  0  0  2  0  0  0  0  0  0
  -28.5810  -12.2640   18.4250 C   0  0  0  0  0  2  0  0  0  0  0  0
  -28.1450  -13.3380   19.4500 C   0  0  0  0  0  3  0  0  0  0  0  0
  -29.2010  -13.5610   20.5520 C   0  0  0  0  0  2  0  0  0  0  0  0
  -30.4280  -14.0310   19.8770 N   0  0  0  0  0  0  0  0  0  0  0  0
  -32.1770  -15.2990   19.3750 O   0  0  0  0  0  0  0  0  0  0  0  0
  -29.3200  -18.2540   21.6080 C   0  0  0  0  0  2  0  0  0  0  0  0
  -29.3510  -16.8350   20.9740 C   0  0  0  0  0  2  0  0  0  0  0  0
  -30.3480  -18.0970   19.0460 C   0  0  0  0  0  2  0  0  0  0  0  0
  -29.8810  -19.7290   19.5900 C   0  0  0  0  0  3  0  0  0  0  0  0
  -28.8490  -19.4300   20.7040 C   0  0  0  0  0  3  0  0  0  0  0  0
  -30.2700  -16.6450   19.8380 N   0  0  0  0  0  0  0  0  0  0  0  0
  -25.8510  -14.0140   20.3370 C   0  0  0  0  0  0  0  0  0  0  0  0
  -24.7540  -13.2900   20.7140 C   0  0  0  0  0  0  0  0  0  0  0  0
  -25.1230  -11.9150   20.5830 C   0  0  0  0  0  0  0  0  0  0  0  0
  -26.8180  -13.0860   19.9960 N   0  0  0  0  0  0  0  0  0  0  0  0
  -26.3940  -11.8130   20.2100 N   0  0  0  0  0  0  0  0  0  0  0  0
  -24.3160  -10.6970   20.7340 C   0  0  0  0  0  0  0  0  0  0  0  0
  -24.7590   -9.6090   21.5180 C   0  0  0  0  0  3  0  0  0  0  0  0
  -23.9540   -8.4580   21.6650 C   0  0  0  0  0  3  0  0  0  0  0  0
  -22.6930   -8.3880   21.0280 C   0  0  0  0  0  0  0  0  0  0  0  0
  -22.2670   -9.4650   20.2300 C   0  0  0  0  0  3  0  0  0  0  0  0
  -23.0710  -10.6060   20.0800 C   0  0  0  0  0  3  0  0  0  0  0  0
  -21.8550   -7.3000   21.0930 O   0  0  0  0  0  0  0  0  0  0  0  0
  -21.9570   -6.3730   22.0990 C   0  0  0  0  0  0  0  0  0  0  0  0
  -21.8530   -6.7350   23.4590 C   0  0  0  0  0  3  0  0  0  0  0  0
  -21.8930   -5.7410   24.4580 C   0  0  0  0  0  3  0  0  0  0  0  0
  -22.0290   -4.3870   24.0990 C   0  0  0  0  0  0  0  0  0  0  0  0
  -22.1270   -4.0240   22.7440 C   0  0  0  0  0  3  0  0  0  0  0  0
  -22.0880   -5.0140   21.7470 C   0  0  0  0  0  0  0  0  0  0  0  0
  -22.1620   -4.6570   20.4420 F   0  0  0  0  0  0  0  0  0  0  0  0
  -22.0590   -3.4300   25.0560 F   0  0  0  0  0  0  0  0  0  0  0  0
  -23.4070  -13.8450   21.0740 C   0  0  0  0  0  0  0  0  0  0  0  0
  -22.6720  -13.1560   21.9400 N   0  0  0  0  0  0  0  0  0  0  0  0
  -23.0200  -14.9230   20.6240 O   0  0  0  0  0  0  0  0  0  0  0  0
  -22.9990  -12.2820   22.3240 H   0  0  0  0  0  0  0  0  0  0  0  0
  -21.7690  -13.5080   22.2230 H   0  0  0  0  0  0  0  0  0  0  0  0
  -26.0970  -15.3790   20.2250 N   0  0  0  0  0  0  0  0  0  0  0  0
  -25.3730  -16.0680   20.3870 H   0  0  0  0  0  0  0  0  0  0  0  0
  -26.9400  -15.7730   19.8290 H   0  0  0  0  0  0  0  0  0  0  0  0
  -28.5890  -20.6190   21.5370 N   0  0  0  0  0  4  0  0  0  0  0  0
  -28.2280  -21.3720   20.9820 H   0  0  0  0  0  0  0  0  0  0  0  0
  -29.4270  -20.9360   21.9920 H   0  0  0  0  0  0  0  0  0  0  0  0
  -27.9060  -20.4070   22.2430 H   0  0  0  0  0  0  0  0  0  0  0  0
  -29.4510  -21.2270   18.6760 C   0  0  0  0  0  2  0  0  0  0  0  0
  -29.3910  -22.9280   19.0880 C   0  0  0  0  0  0  0  0  0  0  0  0
  -30.1060  -23.2300   20.0480 O   0  0  0  0  0  0  0  0  0  0  0  0
  -28.4600  -24.2430   18.4110 C   0  0  0  0  0  2  0  0  0  0  0  0
  -28.5740  -25.8580   18.6840 O   0  0  0  0  0  0  0  0  0  0  0  0
  -24.6770  -31.0030   22.5540 C   0  0  0  0  0  0  0  0  0  0  0  0
  -27.4640  -26.8450   18.7820 C   0  0  0  0  0  0  0  0  0  0  0  0
  -23.5060  -29.7030   20.8220 C   0  0  0  0  0  3  0  0  0  0  0  0
  -24.9960  -28.4530   19.1150 C   0  0  0  0  0  0  0  0  0  0  0  0
  -26.0210  -30.2020   20.5530 C   0  0  0  0  0  2  0  0  0  0  0  0
  -26.1780  -28.9010   19.7160 C   0  0  0  0  0  0  0  0  0  0  0  0
  -27.4020  -28.1180   19.5330 C   0  0  0  0  0  3  0  0  0  0  0  0
  -26.2380  -26.5520   18.1450 C   0  0  0  0  0  3  0  0  0  0  0  0
  -25.0460  -27.3030   18.3100 C   0  0  0  0  0  3  0  0  0  0  0  0
  -23.6990  -29.2240   19.3560 C   0  0  0  0  0  2  0  0  0  0  0  0
  -24.7570  -30.3260   21.3650 N   0  0  0  0  0  0  0  0  0  0  0  0
  -23.6070  -31.1120   23.1740 O   0  0  0  0  0  0  0  0  0  0  0  0
  -22.9840  -28.5290   21.6900 C   0  0  0  0  0  0  0  0  0  0  0  0
  -21.6700  -28.2450   21.6260 N   0  0  0  0  0  0  0  0  0  0  0  0
  -23.7650  -27.8780   22.3880 O   0  0  0  0  0  0  0  0  0  0  0  0
  -21.0860  -28.8290   21.0440 H   0  0  0  0  0  0  0  0  0  0  0  0
  -18.4810  -26.5820   22.1010 C   0  0  0  0  0  0  0  0  0  0  0  0
  -20.9980  -27.1400   22.3180 C   0  0  0  0  0  3  0  0  0  0  0  0
  -21.2490  -25.7960   21.5940 C   0  0  0  0  0  2  0  0  0  0  0  0
  -20.1540  -25.4420   20.5830 C   0  0  0  0  0  2  0  0  0  0  0  0
  -18.7930  -25.3430   21.2780 C   0  0  0  0  0  2  0  0  0  0  0  0
  -19.5140  -27.4340   22.5760 C   0  0  0  0  0  0  0  0  0  0  0  0
  -19.1650  -28.5880   23.3100 C   0  0  0  0  0  3  0  0  0  0  0  0
  -17.8170  -28.8960   23.5700 C   0  0  0  0  0  3  0  0  0  0  0  0
  -16.7990  -28.0430   23.1090 C   0  0  0  0  0  3  0  0  0  0  0  0
  -17.1320  -26.8870   22.3810 C   0  0  0  0  0  3  0  0  0  0  0  0
  -25.9250  -31.6920   23.1880 C   0  0  0  0  0  3  0  0  0  0  0  0
  -26.6290  -30.8040   24.2870 C   0  0  1  0  0  0  0  0  0  0  0  0
  -25.6680  -30.2900   25.3850 C   0  0  0  0  0  1  0  0  0  0  0  0
  -27.3110  -29.5720   23.6500 C   0  0  0  0  0  1  0  0  0  0  0  0
  -27.7510  -31.6170   24.9760 C   0  0  0  0  0  1  0  0  0  0  0  0
  -25.4870  -32.9710   23.7740 N   0  0  0  0  0  0  0  0  0  0  0  0
  -25.7640  -34.1810   23.2710 C   0  0  0  0  0  0  0  0  0  0  0  0
  -26.4760  -34.3410   22.2770 O   0  0  0  0  0  0  0  0  0  0  0  0
  -24.8520  -32.9130   24.5560 H   0  0  0  0  0  0  0  0  0  0  0  0
  -23.9380  -35.9140   23.1930 C   0  0  0  0  0  1  0  0  0  0  0  0
  -25.1570  -35.4090   23.9810 C   0  0  0  0  0  3  0  0  0  0  0  0
  -27.1780  -36.2110   25.1250 C   0  0  0  0  0  1  0  0  0  0  0  0
  -26.1200  -36.5180   24.1660 N   0  0  0  0  0  0  0  0  0  0  0  0
  -25.6440  -37.3600   24.4780 H   0  0  0  0  0  0  0  0  0  0  0  0
  1 14  1  0
  1  7  1  0
  2  7  1  0
  3  4  1  0
  3  2  1  0
  5  4  1  0
  5 18  1  0
  5  6  1  0
  7  6  1  0
  8  1  2  0
 10  9  1  0
 11 12  1  0
 11 14  1  0
 12 47  1  0
 12 13  1  0
 13 43  1  0
 13  9  1  0
 14 10  1  0
 15 16  2  0
 16 35  1  0
 17 16  1  0
 17 20  1  0
 18 19  1  0
 18 15  1  0
 19 17  2  0
 20 21  1  0
 21 22  2  0
 23 26  1  0
 23 22  1  0
 24 23  2  0
 25 24  1  0
 25 20  2  0
 26 27  1  0
 27 28  1  0
 28 29  2  0
 30 29  1  0
 30 34  1  0
 31 30  2  0
 32 27  2  0
 32 31  1  0
 33 32  1  0
 35 36  1  0
 36 39  1  0
 36 38  1  0
 37 35  2  0
 40 15  1  0
 40 41  1  0
 42 40  1  0
 43 45  1  0
 43 46  1  0
 44 43  1  0
 47 48  1  0
 48 49  2  0
 50 51  1  0
 50 48  1  0
 51 53  1  0
 52 63  2  0
 53 58  1  0
 54 62  1  0
 54 64  1  0
 55 61  1  0
 55 57  1  0
 56 62  1  0
 57 56  1  0
 58 57  2  0
 59 60  1  0
 59 53  2  0
 60 55  2  0
 61 54  1  0
 62 52  1  0
 64 66  2  0
 65 64  1  0
 67 65  1  0
 68 77  2  0
 68 73  1  0
 69 65  1  0
 69 73  1  0
 70 69  1  0
 71 72  1  0
 71 70  1  0
 72 68  1  0
 73 74  2  0
 74 75  1  0
 76 75  2  0
 77 76  1  0
 78 52  1  0
 78 83  1  0
 78 79  1  0
 79 82  1  1
 79 80  1  0
 81 79  1  0
 83 86  1  0
 84 83  1  0
 84 88  1  0
 85 84  2  0
 88 87  1  0
 88 90  1  0
 90 91  1  0
 90 89  1  0
M  ISO  4   1 100  14 100  50 101  51 101
M  END
>  <TORSDO>  (32) 
F 19

>  <SCORE>  (32) 
-11.699

>  <name>  (32) 
32

>  <ligand_id>  (32) 
32

>  <original_smiles>  (32) 
[H]c1c([H])c([H])c2c(c1[H])C([H])([H])C([H])([H])C([H])([H])C2([H])N([H])C(=O)C1([H])N(C(=O)C([H])(N([H])C(=O)C([H])(N([H])C([H])([H])[H])C([H])([H])[H])C(C([H])([H])[H])(C([H])([H])[H])C([H])([H])[H])C([H])([H])c2c([H])c(OC([H])([H])C(=O)C([H])([H])C3([H])C([H])([H])N(C(=O)N4C([H])([H])C([H])([H])C([H])([H])C([H])(n5nc(-c6c([H])c([H])c(Oc7c([H])c([H])c(F)c([H])c7F)c([H])c6[H])c(C(=O)N([H])[H])c5N([H])[H])C4([H])[H])C([H])([H])C([H])([H])C3([H])[N+]([H])([H])[H])c([H])c([H])c2C1([H])[H]

>  <smiles>  (32) 
[H]c1c([H])c([H])c2c(c1[H])C([H])([H])C([H])([H])C([H])([H])C2([H])N([H])C(=O)C1([H])N(C(=O)C([H])(N([H])C(=O)C([H])(N([H])C([H])([H])[H])C([H])([H])[H])C(C([H])([H])[H])(C([H])([H])[H])C([H])([H])[H])C([H])([H])c2c([H])c(OC([H])([H])C(=O)C([H])([H])C3([H])C([H])([H])N(C(=O)N4C([H])([H])C([H])([H])C([H])([H])C([H])(n5nc(-c6c([H])c([H])c(Oc7c([H])c([H])c(F)c([H])c7F)c([H])c6[H])c(C(=O)N([H])[H])c5N([H])[H])C4([H])[H])C([H])([H])C([H])([H])C3([H])[N+]([H])([H])[H])c([H])c([H])c2C1([H])[H]

$$$$
33:0:0
     RDKit          3D

 92102  0  0  1  0  0  0  0  0999 V2000
  -29.2360  -22.4130   20.7410 C   0  0  0  0  0  2  0  0  0  0  0  0
  -29.3890  -23.1650   19.4700 N   0  0  0  0  0  4  0  0  0  0  0  0
  -28.5180  -23.1220   18.9640 H   0  0  0  0  0  0  0  0  0  0  0  0
  -30.0750  -22.6870   18.9050 H   0  0  0  0  0  0  0  0  0  0  0  0
  -29.7940  -24.5970   19.5950 C   0  0  0  0  0  2  0  0  0  0  0  0
  -28.7800  -25.4620   20.3770 C   0  0  0  0  0  2  0  0  0  0  0  0
  -28.9070  -26.8620   20.0710 O   0  0  0  0  0  0  0  0  0  0  0  0
  -24.8210  -31.6990   23.3310 C   0  0  0  0  0  0  0  0  0  0  0  0
  -27.7210  -27.5620   20.0710 C   0  0  0  0  0  0  0  0  0  0  0  0
  -23.7210  -30.3630   21.5650 C   0  0  0  0  0  3  0  0  0  0  0  0
  -25.2750  -28.9750   20.0960 C   0  0  0  0  0  0  0  0  0  0  0  0
  -26.2370  -30.8220   21.4780 C   0  0  0  0  0  2  0  0  0  0  0  0
  -26.3940  -29.5010   20.7550 C   0  0  0  0  0  0  0  0  0  0  0  0
  -27.6220  -28.8030   20.7390 C   0  0  0  0  0  3  0  0  0  0  0  0
  -26.5900  -27.0590   19.3900 C   0  0  0  0  0  3  0  0  0  0  0  0
  -25.3670  -27.7520   19.4090 C   0  0  0  0  0  3  0  0  0  0  0  0
  -23.9990  -29.7820   20.1530 C   0  0  0  0  0  2  0  0  0  0  0  0
  -24.9410  -30.9730   22.1840 N   0  0  0  0  0  0  0  0  0  0  0  0
  -23.7150  -31.8990   23.8500 O   0  0  0  0  0  0  0  0  0  0  0  0
  -23.0800  -29.2590   22.4360 C   0  0  0  0  0  0  0  0  0  0  0  0
  -21.7680  -29.0350   22.2500 N   0  0  0  0  0  0  0  0  0  0  0  0
  -23.7600  -28.6100   23.2350 O   0  0  0  0  0  0  0  0  0  0  0  0
  -21.2800  -29.6190   21.5850 H   0  0  0  0  0  0  0  0  0  0  0  0
  -18.4270  -27.6960   22.5610 C   0  0  0  0  0  0  0  0  0  0  0  0
  -20.9650  -28.0190   22.9290 C   0  0  0  0  0  3  0  0  0  0  0  0
  -21.1360  -26.6360   22.2560 C   0  0  0  0  0  2  0  0  0  0  0  0
  -20.0720  -26.3430   21.1950 C   0  0  0  0  0  2  0  0  0  0  0  0
  -18.6700  -26.3990   21.8100 C   0  0  0  0  0  2  0  0  0  0  0  0
  -19.5050  -28.4630   23.0750 C   0  0  0  0  0  0  0  0  0  0  0  0
  -19.2260  -29.6790   23.7360 C   0  0  0  0  0  3  0  0  0  0  0  0
  -17.9010  -30.1280   23.8910 C   0  0  0  0  0  3  0  0  0  0  0  0
  -16.8360  -29.3570   23.3930 C   0  0  0  0  0  3  0  0  0  0  0  0
  -17.1000  -28.1410   22.7350 C   0  0  0  0  0  3  0  0  0  0  0  0
  -26.0630  -32.3340   24.0310 C   0  0  0  0  0  3  0  0  0  0  0  0
  -25.7200  -33.7230   24.3650 N   0  0  0  0  0  0  0  0  0  0  0  0
  -26.0840  -34.7910   23.6420 C   0  0  0  0  0  0  0  0  0  0  0  0
  -26.8150  -34.7110   22.6500 O   0  0  0  0  0  0  0  0  0  0  0  0
  -25.0810  -33.8580   25.1350 H   0  0  0  0  0  0  0  0  0  0  0  0
  -24.3600  -36.5690   23.2090 C   0  0  0  0  0  1  0  0  0  0  0  0
  -25.5530  -36.1650   24.0900 C   0  0  0  0  0  3  0  0  0  0  0  0
  -27.6190  -37.0610   25.0690 C   0  0  0  0  0  1  0  0  0  0  0  0
  -26.5790  -37.2300   24.0580 N   0  0  0  0  0  0  0  0  0  0  0  0
  -26.1540  -38.1450   24.1900 H   0  0  0  0  0  0  0  0  0  0  0  0
  -26.5220  -31.5460   25.3190 C   0  0  1  0  0  0  0  0  0  0  0  0
  -25.3750  -31.2640   26.3160 C   0  0  0  0  0  1  0  0  0  0  0  0
  -27.1550  -30.1890   24.9330 C   0  0  0  0  0  1  0  0  0  0  0  0
  -27.6150  -32.3480   26.0620 C   0  0  0  0  0  1  0  0  0  0  0  0
  -28.7570  -20.9590   20.5300 C   0  0  0  0  0  2  0  0  0  0  0  0
  -28.7590  -18.2090   21.3020 C   0  0  0  0  0  2  0  0  0  0  0  0
  -30.0430  -18.9280   21.7490 C   0  0  1  0  0  0  0  0  0  0  0  0
  -29.5970  -18.4320   20.0280 C   0  0  2  0  0  0  0  0  0  0  0  0
  -29.8610  -19.8790   20.5290 C   0  0  0  0  0  3  0  0  0  0  0  0
  -30.8420  -17.9760   20.8290 C   0  0  0  0  0  3  0  0  0  0  0  0
  -31.1150  -16.4910   21.1640 C   0  0  0  0  0  2  0  0  0  0  0  0
  -32.3650  -14.6900   19.9510 C   0  0  0  0  0  0  0  0  0  0  0  0
  -31.8380  -12.5540   18.8660 C   0  0  0  0  0  2  0  0  0  0  0  0
  -30.8550  -12.8370   17.7110 C   0  0  0  0  0  2  0  0  0  0  0  0
  -29.3980  -12.8260   18.2180 C   0  0  0  0  0  2  0  0  0  0  0  0
  -29.1960  -13.6850   19.4960 C   0  0  0  0  0  3  0  0  0  0  0  0
  -30.2890  -13.3770   20.5440 C   0  0  0  0  0  2  0  0  0  0  0  0
  -31.5940  -13.5740   19.8960 N   0  0  0  0  0  0  0  0  0  0  0  0
  -33.5130  -14.7370   19.5070 O   0  0  0  0  0  0  0  0  0  0  0  0
  -31.6940  -15.8480   19.9900 N   0  0  0  0  0  0  0  0  0  0  0  0
  -32.1540  -16.5320   19.4080 H   0  0  0  0  0  0  0  0  0  0  0  0
  -26.9280  -14.4870   20.4090 C   0  0  0  0  0  0  0  0  0  0  0  0
  -25.8040  -13.8050   20.7920 C   0  0  0  0  0  0  0  0  0  0  0  0
  -26.1100  -12.4190   20.6290 C   0  0  0  0  0  0  0  0  0  0  0  0
  -27.8530  -13.5210   20.0450 N   0  0  0  0  0  0  0  0  0  0  0  0
  -27.3660  -12.2670   20.2340 N   0  0  0  0  0  0  0  0  0  0  0  0
  -25.2600  -11.2300   20.7730 C   0  0  0  0  0  0  0  0  0  0  0  0
  -25.5590  -10.2190   21.7140 C   0  0  0  0  0  3  0  0  0  0  0  0
  -24.7170   -9.0940   21.8460 C   0  0  0  0  0  3  0  0  0  0  0  0
  -23.5640   -8.9710   21.0350 C   0  0  0  0  0  0  0  0  0  0  0  0
  -23.2840   -9.9680   20.0830 C   0  0  0  0  0  3  0  0  0  0  0  0
  -24.1260  -11.0850   19.9500 C   0  0  0  0  0  3  0  0  0  0  0  0
  -22.7030   -7.9010   21.0770 O   0  0  0  0  0  0  0  0  0  0  0  0
  -22.4330   -7.2400   22.2490 C   0  0  0  0  0  0  0  0  0  0  0  0
  -21.9280   -7.9100   23.3840 C   0  0  0  0  0  3  0  0  0  0  0  0
  -21.5980   -7.1820   24.5430 C   0  0  0  0  0  3  0  0  0  0  0  0
  -21.7640   -5.7840   24.5670 C   0  0  0  0  0  0  0  0  0  0  0  0
  -22.2610   -5.1130   23.4360 C   0  0  0  0  0  3  0  0  0  0  0  0
  -22.5920   -5.8400   22.2790 C   0  0  0  0  0  0  0  0  0  0  0  0
  -23.0510   -5.1860   21.1840 F   0  0  0  0  0  0  0  0  0  0  0  0
  -21.4390   -5.0810   25.6780 F   0  0  0  0  0  0  0  0  0  0  0  0
  -24.4860  -14.4040   21.1920 C   0  0  0  0  0  0  0  0  0  0  0  0
  -23.7650  -13.7510   22.0970 N   0  0  0  0  0  0  0  0  0  0  0  0
  -24.1090  -15.4830   20.7380 O   0  0  0  0  0  0  0  0  0  0  0  0
  -24.0840  -12.8760   22.4880 H   0  0  0  0  0  0  0  0  0  0  0  0
  -22.8830  -14.1340   22.4050 H   0  0  0  0  0  0  0  0  0  0  0  0
  -27.2340  -15.8430   20.3210 N   0  0  0  0  0  0  0  0  0  0  0  0
  -26.5570  -16.5660   20.5320 H   0  0  0  0  0  0  0  0  0  0  0  0
  -28.1130  -16.2080   19.9750 H   0  0  0  0  0  0  0  0  0  0  0  0
  2  5  1  0
  2  1  1  0
  3  2  1  0
  4  2  1  0
  5  6  1  0
  7  6  1  0
  8 19  2  0
  9  7  1  0
  9 14  1  0
 10 18  1  0
 10 20  1  0
 11 17  1  0
 11 13  1  0
 12 18  1  0
 13 12  1  0
 14 13  2  0
 15 16  1  0
 15  9  2  0
 16 11  2  0
 17 10  1  0
 18  8  1  0
 20 22  2  0
 21 20  1  0
 23 21  1  0
 24 33  2  0
 24 29  1  0
 25 21  1  0
 25 29  1  0
 26 25  1  0
 27 28  1  0
 27 26  1  0
 28 24  1  0
 29 30  2  0
 30 31  1  0
 32 31  2  0
 33 32  1  0
 34  8  1  0
 34 35  1  0
 34 44  1  0
 35 38  1  0
 36 40  1  0
 36 35  1  0
 37 36  2  0
 40 39  1  0
 42 40  1  0
 42 43  1  0
 42 41  1  0
 44 47  1  1
 44 45  1  0
 46 44  1  0
 48  1  1  0
 50 49  1  1
 51 52  1  0
 51 53  1  0
 51 49  1  6
 51 50  1  0
 52 48  1  0
 52 50  1  0
 53 54  1  0
 53 50  1  0
 55 63  1  0
 56 61  1  0
 57 58  1  0
 57 56  1  0
 59 58  1  0
 59 68  1  0
 59 60  1  0
 61 55  1  0
 61 60  1  0
 62 55  2  0
 63 54  1  0
 64 63  1  0
 65 66  2  0
 66 85  1  0
 67 70  1  0
 67 66  1  0
 68 69  1  0
 68 65  1  0
 69 67  2  0
 70 71  1  0
 71 72  2  0
 73 76  1  0
 73 72  1  0
 74 73  2  0
 75 74  1  0
 75 70  2  0
 76 77  1  0
 77 82  2  0
 77 78  1  0
 78 79  2  0
 79 80  1  0
 80 84  1  0
 81 80  2  0
 82 81  1  0
 83 82  1  0
 85 86  1  0
 86 89  1  0
 86 88  1  0
 87 85  2  0
 90 65  1  0
 90 91  1  0
 92 90  1  0
M  ISO  4   6 101   7 101  55 100  63 100
M  END
>  <TORSDO>  (33) 
F 22

>  <SCORE>  (33) 
-9.743

>  <name>  (33) 
33

>  <ligand_id>  (33) 
33

>  <original_smiles>  (33) 
[H]c1c([H])c([H])c2c(c1[H])C([H])([H])C([H])([H])C([H])([H])C2([H])N([H])C(=O)C1([H])N(C(=O)C([H])(N([H])C(=O)C([H])(N([H])C([H])([H])[H])C([H])([H])[H])C(C([H])([H])[H])(C([H])([H])[H])C([H])([H])[H])C([H])([H])c2c([H])c(OC([H])([H])C([H])([H])[N+]([H])([H])C([H])([H])C([H])([H])C3([H])C4([H])C([H])([H])C3([H])C4([H])C([H])([H])N([H])C(=O)N3C([H])([H])C([H])([H])C([H])([H])C([H])(n4nc(-c5c([H])c([H])c(Oc6c([H])c([H])c(F)c([H])c6F)c([H])c5[H])c(C(=O)N([H])[H])c4N([H])[H])C3([H])[H])c([H])c([H])c2C1([H])[H]

>  <smiles>  (33) 
[H]c1c([H])c([H])c2c(c1[H])C([H])([H])C([H])([H])C([H])([H])C2([H])N([H])C(=O)C1([H])N(C(=O)C([H])(N([H])C(=O)C([H])(N([H])C([H])([H])[H])C([H])([H])[H])C(C([H])([H])[H])(C([H])([H])[H])C([H])([H])[H])C([H])([H])c2c([H])c(OC([H])([H])C([H])([H])[N+]([H])([H])C([H])([H])C([H])([H])C3([H])C4([H])C([H])([H])C3([H])C4([H])C([H])([H])N([H])C(=O)N3C([H])([H])C([H])([H])C([H])([H])C([H])(n4nc(-c5c([H])c([H])c(Oc6c([H])c([H])c(F)c([H])c6F)c([H])c5[H])c(C(=O)N([H])[H])c4N([H])[H])C3([H])[H])c([H])c([H])c2C1([H])[H]

$$$$
34:0:0
     RDKit          3D

 99108  0  0  1  0  0  0  0  0999 V2000
  -29.6940  -20.4810   20.4330 C   0  0  0  0  0  0  0  0  0  0  0  0
  -29.3650  -19.1660   20.5670 N   0  0  0  0  0  0  0  0  0  0  0  0
  -30.8460  -20.8560   20.2110 O   0  0  0  0  0  0  0  0  0  0  0  0
  -28.3840  -19.0040   20.7570 H   0  0  0  0  0  0  0  0  0  0  0  0
  -30.1540  -14.4520   19.2450 C   0  0  0  0  0  0  0  0  0  0  0  0
  -29.7010  -12.2800   18.1240 C   0  0  0  0  0  2  0  0  0  0  0  0
  -28.5400  -12.4320   17.1220 C   0  0  0  0  0  2  0  0  0  0  0  0
  -27.1840  -12.2420   17.8250 C   0  0  0  0  0  2  0  0  0  0  0  0
  -27.0670  -13.0720   19.1300 C   0  0  0  0  0  3  0  0  0  0  0  0
  -28.3190  -12.8920   20.0190 C   0  0  0  0  0  2  0  0  0  0  0  0
  -29.5030  -13.2510   19.2180 N   0  0  0  0  0  0  0  0  0  0  0  0
  -31.0100  -14.7640   18.4110 O   0  0  0  0  0  0  0  0  0  0  0  0
  -31.4940  -16.1830   21.6930 C   0  0  0  0  0  0  0  0  0  0  0  0
  -30.3880  -15.1450   21.5410 C   0  0  0  0  0  2  0  0  0  0  0  0
  -29.2650  -16.7070   19.9520 C   0  0  0  0  0  2  0  0  0  0  0  0
  -30.9800  -17.6290   21.7060 C   0  0  0  0  0  3  0  0  0  0  0  0
  -30.1800  -17.9290   20.3960 C   0  0  0  0  0  3  0  0  0  0  0  0
  -29.7770  -15.3240   20.2200 N   0  0  0  0  0  0  0  0  0  0  0  0
  -32.6830  -15.8480   21.7230 O   0  0  0  0  0  0  0  0  0  0  0  0
  -24.8770  -13.6010   20.3700 C   0  0  0  0  0  0  0  0  0  0  0  0
  -23.9100  -12.7960   20.9090 C   0  0  0  0  0  0  0  0  0  0  0  0
  -24.3400  -11.4540   20.6760 C   0  0  0  0  0  0  0  0  0  0  0  0
  -25.8400  -12.7480   19.8560 N   0  0  0  0  0  0  0  0  0  0  0  0
  -25.5290  -11.4470   20.0860 N   0  0  0  0  0  0  0  0  0  0  0  0
  -23.6600  -10.1770   20.9250 C   0  0  0  0  0  0  0  0  0  0  0  0
  -24.1470   -9.2530   21.8740 C   0  0  0  0  0  3  0  0  0  0  0  0
  -23.4660   -8.0380   22.1060 C   0  0  0  0  0  3  0  0  0  0  0  0
  -22.2830   -7.7390   21.3910 C   0  0  0  0  0  0  0  0  0  0  0  0
  -21.8140   -8.6520   20.4300 C   0  0  0  0  0  3  0  0  0  0  0  0
  -22.4980   -9.8580   20.1960 C   0  0  0  0  0  3  0  0  0  0  0  0
  -21.5720   -6.5720   21.5330 O   0  0  0  0  0  0  0  0  0  0  0  0
  -21.4820   -5.9260   22.7400 C   0  0  0  0  0  0  0  0  0  0  0  0
  -20.8900   -6.5340   23.8690 C   0  0  0  0  0  3  0  0  0  0  0  0
  -20.7530   -5.8070   25.0690 C   0  0  0  0  0  3  0  0  0  0  0  0
  -21.1970   -4.4730   25.1390 C   0  0  0  0  0  0  0  0  0  0  0  0
  -21.7840   -3.8660   24.0150 C   0  0  0  0  0  3  0  0  0  0  0  0
  -21.9220   -4.5890   22.8180 C   0  0  0  0  0  0  0  0  0  0  0  0
  -22.4680   -3.9910   21.7310 F   0  0  0  0  0  0  0  0  0  0  0  0
  -21.0590   -3.7740   26.2890 F   0  0  0  0  0  0  0  0  0  0  0  0
  -22.6100  -13.2420   21.5160 C   0  0  0  0  0  0  0  0  0  0  0  0
  -22.0970  -12.4930   22.4860 N   0  0  0  0  0  0  0  0  0  0  0  0
  -22.0630  -14.2870   21.1660 O   0  0  0  0  0  0  0  0  0  0  0  0
  -22.5520  -11.6450   22.7930 H   0  0  0  0  0  0  0  0  0  0  0  0
  -21.2330  -12.7720   22.9280 H   0  0  0  0  0  0  0  0  0  0  0  0
  -25.0160  -14.9810   20.2620 N   0  0  0  0  0  0  0  0  0  0  0  0
  -24.3010  -15.6200   20.5960 H   0  0  0  0  0  0  0  0  0  0  0  0
  -25.7810  -15.4490   19.7910 H   0  0  0  0  0  0  0  0  0  0  0  0
  -32.1450  -18.5090   21.9110 N   0  0  0  0  0  4  0  0  0  0  0  0
  -32.7970  -18.4310   21.1490 H   0  0  0  0  0  0  0  0  0  0  0  0
  -32.6270  -18.2020   22.7380 H   0  0  0  0  0  0  0  0  0  0  0  0
  -31.8670  -19.4660   22.0290 H   0  0  0  0  0  0  0  0  0  0  0  0
  -27.4360  -21.0240   19.5300 C   0  0  0  0  0  2  0  0  0  0  0  0
  -27.3660  -22.4300   18.9920 C   0  0  0  0  0  2  0  0  0  0  0  0
  -28.5170  -21.5110   20.4970 C   0  0  0  0  0  3  0  0  0  0  0  0
  -28.6290  -22.7590   19.6670 N   0  0  2  0  0  4  0  0  0  0  0  0
  -29.4170  -22.6200   19.0490 H   0  0  0  0  0  0  0  0  0  0  0  0
  -28.6570  -24.1480   20.2990 C   0  0  0  0  0  3  0  0  0  0  0  0
  -27.8630  -25.2670   19.5000 C   0  0  0  0  0  3  0  0  0  0  0  0
  -28.0350  -26.6930   19.8070 O   0  0  0  0  0  0  0  0  0  0  0  0
  -24.5320  -31.9280   23.2080 C   0  0  0  0  0  0  0  0  0  0  0  0
  -26.8980  -27.5120   19.8160 C   0  0  0  0  0  0  0  0  0  0  0  0
  -23.2030  -30.6000   21.6030 C   0  0  0  0  0  3  0  0  0  0  0  0
  -24.5380  -29.1070   20.0180 C   0  0  0  0  0  0  0  0  0  0  0  0
  -25.7170  -30.9270   21.2490 C   0  0  0  0  0  2  0  0  0  0  0  0
  -25.7420  -29.5760   20.5530 C   0  0  0  0  0  0  0  0  0  0  0  0
  -26.9230  -28.7890   20.4500 C   0  0  0  0  0  3  0  0  0  0  0  0
  -25.6720  -27.1030   19.2330 C   0  0  0  0  0  3  0  0  0  0  0  0
  -24.5030  -27.8790   19.3440 C   0  0  0  0  0  3  0  0  0  0  0  0
  -23.3120  -29.9750   20.1880 C   0  0  0  0  0  2  0  0  0  0  0  0
  -24.5070  -31.1660   22.0760 N   0  0  0  0  0  0  0  0  0  0  0  0
  -23.4950  -32.1910   23.8300 O   0  0  0  0  0  0  0  0  0  0  0  0
  -22.5960  -29.5570   22.5690 C   0  0  0  0  0  0  0  0  0  0  0  0
  -21.2770  -29.3210   22.4520 N   0  0  0  0  0  0  0  0  0  0  0  0
  -23.3110  -28.9590   23.3790 O   0  0  0  0  0  0  0  0  0  0  0  0
  -20.7620  -29.8500   21.7620 H   0  0  0  0  0  0  0  0  0  0  0  0
  -17.9750  -27.9220   22.9360 C   0  0  0  0  0  0  0  0  0  0  0  0
  -20.5050  -28.3520   23.2330 C   0  0  0  0  0  3  0  0  0  0  0  0
  -20.7090  -26.9180   22.6950 C   0  0  0  0  0  2  0  0  0  0  0  0
  -19.6490  -26.5110   21.6680 C   0  0  0  0  0  2  0  0  0  0  0  0
  -18.2500  -26.5740   22.2920 C   0  0  0  0  0  2  0  0  0  0  0  0
  -19.0350  -28.7640   23.3590 C   0  0  0  0  0  0  0  0  0  0  0  0
  -18.7320  -30.0240   23.9170 C   0  0  0  0  0  3  0  0  0  0  0  0
  -17.3980  -30.4470   24.0580 C   0  0  0  0  0  3  0  0  0  0  0  0
  -16.3500  -29.6020   23.6490 C   0  0  0  0  0  3  0  0  0  0  0  0
  -16.6370  -28.3420   23.0940 C   0  0  0  0  0  3  0  0  0  0  0  0
  -25.8660  -32.5220   23.7640 C   0  0  0  0  0  3  0  0  0  0  0  0
  -26.4470  -31.7070   24.9830 C   0  0  1  0  0  0  0  0  0  0  0  0
  -25.3980  -31.3830   26.0730 C   0  0  0  0  0  1  0  0  0  0  0  0
  -27.0580  -30.3690   24.5030 C   0  0  0  0  0  1  0  0  0  0  0  0
  -27.5970  -32.5030   25.6460 C   0  0  0  0  0  1  0  0  0  0  0  0
  -25.6050  -33.9150   24.1470 N   0  0  0  0  0  0  0  0  0  0  0  0
  -25.8920  -34.9790   23.3840 C   0  0  0  0  0  0  0  0  0  0  0  0
  -26.4740  -34.8890   22.3000 O   0  0  0  0  0  0  0  0  0  0  0  0
  -25.0820  -34.0650   24.9990 H   0  0  0  0  0  0  0  0  0  0  0  0
  -24.1670  -36.8010   23.2050 C   0  0  0  0  0  1  0  0  0  0  0  0
  -25.4620  -36.3630   23.9070 C   0  0  0  0  0  3  0  0  0  0  0  0
  -27.6590  -37.2130   24.6010 C   0  0  0  0  0  1  0  0  0  0  0  0
  -26.4970  -37.4040   23.7360 N   0  0  0  0  0  0  0  0  0  0  0  0
  -26.1140  -38.3270   23.9230 H   0  0  0  0  0  0  0  0  0  0  0  0
  1  2  1  0
  2  4  1  0
  3  1  2  0
  5 18  1  0
  6 11  1  0
  7  8  1  0
  7  6  1  0
  9  8  1  0
  9 23  1  0
  9 10  1  0
 11  5  1  0
 11 10  1  0
 12  5  2  0
 13 16  1  0
 13 19  2  0
 14 13  1  0
 15 18  1  0
 15 17  1  0
 16 48  1  0
 17  2  1  0
 17 16  1  0
 18 14  1  0
 20 21  2  0
 21 40  1  0
 22 21  1  0
 22 25  1  0
 23 24  1  0
 23 20  1  0
 24 22  2  0
 25 26  1  0
 26 27  2  0
 28 31  1  0
 28 27  1  0
 29 28  2  0
 30 29  1  0
 30 25  2  0
 31 32  1  0
 32 37  2  0
 32 33  1  0
 33 34  2  0
 34 35  1  0
 35 39  1  0
 36 35  2  0
 37 36  1  0
 38 37  1  0
 40 41  1  0
 41 43  1  0
 41 44  1  0
 42 40  2  0
 45 20  1  0
 45 46  1  0
 47 45  1  0
 48 51  1  0
 48 50  1  0
 49 48  1  0
 52 54  1  0
 53 52  1  0
 53 55  1  0
 54  1  1  0
 55 57  1  0
 55 54  1  0
 55 56  1  6
 58 59  1  0
 58 57  2  0
 59 61  1  0
 60 71  2  0
 61 66  1  0
 62 70  1  0
 62 72  1  0
 63 69  1  0
 63 65  1  0
 64 70  1  0
 65 64  1  0
 66 65  2  0
 67 68  1  0
 67 61  2  0
 68 63  2  0
 69 62  1  0
 70 60  1  0
 72 74  2  0
 73 72  1  0
 75 73  1  0
 76 85  2  0
 76 81  1  0
 77 73  1  0
 77 81  1  0
 78 77  1  0
 79 80  1  0
 79 78  1  0
 80 76  1  0
 81 82  2  0
 82 83  1  0
 84 83  2  0
 85 84  1  0
 86 60  1  0
 86 91  1  0
 86 87  1  0
 87 90  1  1
 87 88  1  0
 89 87  1  0
 91 94  1  0
 92 96  1  0
 92 91  1  0
 93 92  2  0
 96 95  1  0
 98 96  1  0
 98 99  1  0
 98 97  1  0
M  ISO  4   5 100  18 100  58 101  59 101
M  END
>  <TORSDO>  (34) 
F 20

>  <SCORE>  (34) 
-10.201

>  <name>  (34) 
34

>  <ligand_id>  (34) 
34

>  <original_smiles>  (34) 
[H]c1c([H])c([H])c2c(c1[H])C([H])([H])C([H])([H])C([H])([H])C2([H])N([H])C(=O)C1([H])N(C(=O)C([H])(N([H])C(=O)C([H])(N([H])C([H])([H])[H])C([H])([H])[H])C(C([H])([H])[H])(C([H])([H])[H])C([H])([H])[H])C([H])([H])c2c([H])c(OC([H])([H])C([H])([H])[N+]3([H])C([H])([H])C([H])([H])C3([H])C(=O)N([H])C3([H])C([H])([H])N(C(=O)N4C([H])([H])C([H])([H])C([H])([H])C([H])(n5nc(-c6c([H])c([H])c(Oc7c([H])c([H])c(F)c([H])c7F)c([H])c6[H])c(C(=O)N([H])[H])c5N([H])[H])C4([H])[H])C([H])([H])C(=O)C3([H])[N+]([H])([H])[H])c([H])c([H])c2C1([H])[H]

>  <smiles>  (34) 
[H]c1c([H])c([H])c2c(c1[H])C([H])([H])C([H])([H])C([H])([H])C2([H])N([H])C(=O)C1([H])N(C(=O)C([H])(N([H])C(=O)C([H])(N([H])C([H])([H])[H])C([H])([H])[H])C(C([H])([H])[H])(C([H])([H])[H])C([H])([H])[H])C([H])([H])c2c([H])c(OC([H])([H])C([H])([H])[N+]3([H])C([H])([H])C([H])([H])C3([H])C(=O)N([H])C3([H])C([H])([H])N(C(=O)N4C([H])([H])C([H])([H])C([H])([H])C([H])(n5nc(-c6c([H])c([H])c(Oc7c([H])c([H])c(F)c([H])c7F)c([H])c6[H])c(C(=O)N([H])[H])c5N([H])[H])C4([H])[H])C([H])([H])C(=O)C3([H])[N+]([H])([H])[H])c([H])c([H])c2C1([H])[H]

$$$$
35:0:0
     RDKit          3D

 96104  0  0  1  0  0  0  0  0999 V2000
  -31.6700  -21.1770   22.5830 C   0  0  0  0  0  2  0  0  0  0  0  0
  -31.0180  -19.8850   23.1200 C   0  0  0  0  0  2  0  0  0  0  0  0
  -31.8820  -18.6410   22.8440 C   0  0  0  0  0  2  0  0  0  0  0  0
  -30.6160  -16.5240   22.2630 C   0  0  0  0  0  0  0  0  0  0  0  0
  -31.1590  -17.3980   23.1260 N   0  0  0  0  0  0  0  0  0  0  0  0
  -30.0500  -15.5190   22.6870 O   0  0  0  0  0  0  0  0  0  0  0  0
  -31.0700  -17.1570   24.1050 H   0  0  0  0  0  0  0  0  0  0  0  0
  -31.0670  -14.4700   19.9030 C   0  0  0  0  0  0  0  0  0  0  0  0
  -30.6260  -12.3140   18.8360 C   0  0  0  0  0  2  0  0  0  0  0  0
  -29.6480  -12.5450   17.6670 C   0  0  0  0  0  2  0  0  0  0  0  0
  -28.1860  -12.4640   18.1540 C   0  0  0  0  0  2  0  0  0  0  0  0
  -27.9170  -13.2980   19.4370 C   0  0  0  0  0  3  0  0  0  0  0  0
  -29.0240  -13.1010   20.4940 C   0  0  0  0  0  2  0  0  0  0  0  0
  -30.3230  -13.3330   19.8450 N   0  0  0  0  0  0  0  0  0  0  0  0
  -32.2650  -14.5140   19.6290 O   0  0  0  0  0  0  0  0  0  0  0  0
  -29.6910  -17.6790   18.7810 C   0  0  0  0  0  2  0  0  0  0  0  0
  -29.6960  -17.8490   20.2900 C   0  0  0  0  0  2  0  0  0  0  0  0
  -29.9240  -16.1790   18.5870 C   0  0  0  0  0  2  0  0  0  0  0  0
  -30.6970  -16.7800   20.7410 C   0  0  0  0  0  3  0  0  0  0  0  0
  -30.3780  -15.6310   19.8820 N   0  0  0  0  0  0  0  0  0  0  0  0
  -25.5680  -13.9820   20.2100 C   0  0  0  0  0  0  0  0  0  0  0  0
  -24.4910  -13.2430   20.6130 C   0  0  0  0  0  0  0  0  0  0  0  0
  -24.9180  -11.8800   20.5900 C   0  0  0  0  0  0  0  0  0  0  0  0
  -26.5820  -13.0670   19.9680 N   0  0  0  0  0  0  0  0  0  0  0  0
  -26.1960  -11.8000   20.2530 N   0  0  0  0  0  0  0  0  0  0  0  0
  -24.1680  -10.6390   20.8100 C   0  0  0  0  0  0  0  0  0  0  0  0
  -24.5810   -9.6930   21.7740 C   0  0  0  0  0  3  0  0  0  0  0  0
  -23.8340   -8.5150   21.9860 C   0  0  0  0  0  3  0  0  0  0  0  0
  -22.6620   -8.2740   21.2330 C   0  0  0  0  0  0  0  0  0  0  0  0
  -22.2680   -9.2080   20.2570 C   0  0  0  0  0  3  0  0  0  0  0  0
  -23.0140  -10.3780   20.0440 C   0  0  0  0  0  3  0  0  0  0  0  0
  -21.8880   -7.1460   21.3520 O   0  0  0  0  0  0  0  0  0  0  0  0
  -21.7970   -6.4560   22.5340 C   0  0  0  0  0  0  0  0  0  0  0  0
  -21.3620   -7.0750   23.7260 C   0  0  0  0  0  3  0  0  0  0  0  0
  -21.2180   -6.3130   24.9030 C   0  0  0  0  0  3  0  0  0  0  0  0
  -21.4980   -4.9340   24.8880 C   0  0  0  0  0  0  0  0  0  0  0  0
  -21.9290   -4.3150   23.7000 C   0  0  0  0  0  3  0  0  0  0  0  0
  -22.0740   -5.0740   22.5260 C   0  0  0  0  0  0  0  0  0  0  0  0
  -22.4680   -4.4690   21.3790 F   0  0  0  0  0  0  0  0  0  0  0  0
  -21.3510   -4.2000   26.0150 F   0  0  0  0  0  0  0  0  0  0  0  0
  -23.1140  -13.7570   20.9150 C   0  0  0  0  0  0  0  0  0  0  0  0
  -22.4030  -13.1010   21.8240 N   0  0  0  0  0  0  0  0  0  0  0  0
  -22.6790  -14.7760   20.3780 O   0  0  0  0  0  0  0  0  0  0  0  0
  -22.7690  -12.2780   22.2780 H   0  0  0  0  0  0  0  0  0  0  0  0
  -21.4800  -13.4290   22.0720 H   0  0  0  0  0  0  0  0  0  0  0  0
  -25.7650  -15.3470   20.0100 N   0  0  0  0  0  0  0  0  0  0  0  0
  -25.0280  -16.0310   20.1430 H   0  0  0  0  0  0  0  0  0  0  0  0
  -26.6380  -15.7580   19.7010 H   0  0  0  0  0  0  0  0  0  0  0  0
  -30.8810  -22.4640   22.8890 C   0  0  0  0  0  2  0  0  0  0  0  0
  -29.5520  -22.4840   22.2350 N   0  0  0  0  0  4  0  0  0  0  0  0
  -29.6360  -22.2490   21.2600 H   0  0  0  0  0  0  0  0  0  0  0  0
  -28.9830  -21.7760   22.6700 H   0  0  0  0  0  0  0  0  0  0  0  0
  -28.8280  -23.7670   22.3660 C   0  0  0  0  0  2  0  0  0  0  0  0
  -29.0290  -24.6820   21.1450 C   0  0  0  0  0  2  0  0  0  0  0  0
  -28.4470  -26.0810   21.3830 C   0  0  0  0  0  2  0  0  0  0  0  0
  -28.3090  -26.7800   20.1470 O   0  0  0  0  0  0  0  0  0  0  0  0
  -24.5720  -31.9100   23.3220 C   0  0  0  0  0  0  0  0  0  0  0  0
  -27.1800  -27.5520   20.1300 C   0  0  0  0  0  0  0  0  0  0  0  0
  -23.3530  -30.5640   21.6390 C   0  0  0  0  0  3  0  0  0  0  0  0
  -24.7980  -29.0510   20.1780 C   0  0  0  0  0  0  0  0  0  0  0  0
  -25.8810  -30.9090   21.4550 C   0  0  0  0  0  2  0  0  0  0  0  0
  -25.9550  -29.5550   20.7850 C   0  0  0  0  0  0  0  0  0  0  0  0
  -27.1510  -28.8090   20.7660 C   0  0  0  0  0  3  0  0  0  0  0  0
  -26.0170  -27.0520   19.5150 C   0  0  0  0  0  3  0  0  0  0  0  0
  -24.8210  -27.7960   19.5430 C   0  0  0  0  0  3  0  0  0  0  0  0
  -23.5590  -29.9170   20.2440 C   0  0  0  0  0  2  0  0  0  0  0  0
  -24.6200  -31.1390   22.1990 N   0  0  0  0  0  0  0  0  0  0  0  0
  -23.4930  -32.1830   23.8630 O   0  0  0  0  0  0  0  0  0  0  0  0
  -22.6890  -29.5270   22.5710 C   0  0  0  0  0  0  0  0  0  0  0  0
  -21.3640  -29.3650   22.4340 N   0  0  0  0  0  0  0  0  0  0  0  0
  -23.3630  -28.8700   23.3700 O   0  0  0  0  0  0  0  0  0  0  0  0
  -20.8820  -29.9440   21.7590 H   0  0  0  0  0  0  0  0  0  0  0  0
  -17.9690  -28.2170   22.8910 C   0  0  0  0  0  0  0  0  0  0  0  0
  -20.5300  -28.4190   23.1740 C   0  0  0  0  0  3  0  0  0  0  0  0
  -20.6080  -27.0050   22.5540 C   0  0  0  0  0  2  0  0  0  0  0  0
  -19.5020  -26.7340   21.5280 C   0  0  0  0  0  2  0  0  0  0  0  0
  -18.1220  -26.8860   22.1750 C   0  0  0  0  0  2  0  0  0  0  0  0
  -19.1010  -28.9440   23.3460 C   0  0  0  0  0  0  0  0  0  0  0  0
  -18.9060  -30.1930   23.9740 C   0  0  0  0  0  3  0  0  0  0  0  0
  -17.6110  -30.7170   24.1500 C   0  0  0  0  0  3  0  0  0  0  0  0
  -16.4930  -29.9850   23.7130 C   0  0  0  0  0  3  0  0  0  0  0  0
  -16.6730  -28.7370   23.0900 C   0  0  0  0  0  3  0  0  0  0  0  0
  -25.8650  -32.5040   23.9630 C   0  0  0  0  0  3  0  0  0  0  0  0
  -25.5780  -33.8990   24.3240 N   0  0  0  0  0  0  0  0  0  0  0  0
  -25.9390  -34.9610   23.5930 C   0  0  0  0  0  0  0  0  0  0  0  0
  -26.6230  -34.8690   22.5680 O   0  0  0  0  0  0  0  0  0  0  0  0
  -24.9760  -34.0460   25.1200 H   0  0  0  0  0  0  0  0  0  0  0  0
  -24.2560  -36.7950   23.2460 C   0  0  0  0  0  1  0  0  0  0  0  0
  -25.4690  -36.3470   24.0750 C   0  0  0  0  0  3  0  0  0  0  0  0
  -27.6000  -37.1670   24.9790 C   0  0  0  0  0  1  0  0  0  0  0  0
  -26.5250  -37.3800   24.0130 N   0  0  0  0  0  0  0  0  0  0  0  0
  -26.1340  -38.3050   24.1710 H   0  0  0  0  0  0  0  0  0  0  0  0
  -26.3670  -31.6920   25.2190 C   0  0  1  0  0  0  0  0  0  0  0  0
  -25.2680  -31.4410   26.2750 C   0  0  0  0  0  1  0  0  0  0  0  0
  -26.9340  -30.3180   24.7880 C   0  0  0  0  0  1  0  0  0  0  0  0
  -27.5280  -32.4520   25.9060 C   0  0  0  0  0  1  0  0  0  0  0  0
  1 49  1  0
  1  2  1  0
  3  2  1  0
  3  5  1  0
  4  6  2  0
  4  5  1  0
  5  7  1  0
  9 14  1  0
 10 11  1  0
 10  9  1  0
 12 11  1  0
 12 24  1  0
 12 13  1  0
 14  8  1  0
 14 13  1  0
 15  8  2  0
 16 17  1  0
 17 19  1  0
 18 16  1  0
 18 20  1  0
 19  4  1  0
 20  8  1  0
 20 19  1  0
 21 22  2  0
 22 41  1  0
 23 22  1  0
 23 26  1  0
 24 21  1  0
 24 25  1  0
 25 23  2  0
 26 27  1  0
 27 28  2  0
 29 32  1  0
 29 28  1  0
 30 29  2  0
 31 30  1  0
 31 26  2  0
 32 33  1  0
 33 34  1  0
 34 35  2  0
 36 35  1  0
 36 40  1  0
 37 36  2  0
 38 33  2  0
 38 37  1  0
 39 38  1  0
 41 42  1  0
 42 45  1  0
 42 44  1  0
 43 41  2  0
 46 47  1  0
 46 21  1  0
 48 46  1  0
 50 53  1  0
 50 52  1  0
 50 49  1  0
 51 50  1  0
 54 55  1  0
 54 53  1  0
 56 55  1  0
 57 68  2  0
 58 56  1  0
 58 63  1  0
 59 67  1  0
 59 69  1  0
 60 66  1  0
 60 62  1  0
 61 67  1  0
 62 61  1  0
 63 62  2  0
 64 65  1  0
 64 58  2  0
 65 60  2  0
 66 59  1  0
 67 57  1  0
 69 71  2  0
 70 69  1  0
 72 70  1  0
 73 82  2  0
 73 78  1  0
 74 70  1  0
 74 78  1  0
 75 74  1  0
 76 77  1  0
 76 75  1  0
 77 73  1  0
 78 79  2  0
 79 80  1  0
 81 80  2  0
 82 81  1  0
 83 57  1  0
 83 84  1  0
 83 93  1  0
 84 87  1  0
 85 89  1  0
 85 84  1  0
 86 85  2  0
 89 88  1  0
 91 89  1  0
 91 92  1  0
 91 90  1  0
 93 96  1  1
 93 94  1  0
 95 93  1  0
M  ISO  4   8 100  20 100  55 101  56 101
M  END
>  <TORSDO>  (35) 
F 24

>  <SCORE>  (35) 
-10.538

>  <name>  (35) 
35

>  <ligand_id>  (35) 
35

>  <original_smiles>  (35) 
[H]c1c([H])c([H])c2c(c1[H])C([H])([H])C([H])([H])C([H])([H])C2([H])N([H])C(=O)C1([H])N(C(=O)C([H])(N([H])C(=O)C([H])(N([H])C([H])([H])[H])C([H])([H])[H])C(C([H])([H])[H])(C([H])([H])[H])C([H])([H])[H])C([H])([H])c2c([H])c(OC([H])([H])C([H])([H])C([H])([H])[N+]([H])([H])C([H])([H])C([H])([H])C([H])([H])C([H])([H])N([H])C(=O)C3([H])N(C(=O)N4C([H])([H])C([H])([H])C([H])([H])C([H])(n5nc(-c6c([H])c([H])c(Oc7c([H])c([H])c(F)c([H])c7F)c([H])c6[H])c(C(=O)N([H])[H])c5N([H])[H])C4([H])[H])C([H])([H])C([H])([H])C3([H])[H])c([H])c([H])c2C1([H])[H]

>  <smiles>  (35) 
[H]c1c([H])c([H])c2c(c1[H])C([H])([H])C([H])([H])C([H])([H])C2([H])N([H])C(=O)C1([H])N(C(=O)C([H])(N([H])C(=O)C([H])(N([H])C([H])([H])[H])C([H])([H])[H])C(C([H])([H])[H])(C([H])([H])[H])C([H])([H])[H])C([H])([H])c2c([H])c(OC([H])([H])C([H])([H])C([H])([H])[N+]([H])([H])C([H])([H])C([H])([H])C([H])([H])C([H])([H])N([H])C(=O)C3([H])N(C(=O)N4C([H])([H])C([H])([H])C([H])([H])C([H])(n5nc(-c6c([H])c([H])c(Oc7c([H])c([H])c(F)c([H])c7F)c([H])c6[H])c(C(=O)N([H])[H])c5N([H])[H])C4([H])[H])C([H])([H])C([H])([H])C3([H])[H])c([H])c([H])c2C1([H])[H]

$$$$
36:0:0
     RDKit          3D

 89 99  0  0  1  0  0  0  0  0999 V2000
  -28.1240  -19.7480   20.4100 C   0  0  0  0  0  2  0  0  0  0  0  0
  -29.8750  -20.8460   21.8020 C   0  0  0  0  0  2  0  0  0  0  0  0
  -29.4840  -19.3530   19.7980 C   0  0  0  0  0  3  0  0  0  0  0  0
  -28.4620  -21.0560   21.2060 C   0  0  2  0  0  0  0  0  0  0  0  0
  -30.1320  -20.7810   20.2740 C   0  0  2  0  0  0  0  0  0  0  0  0
  -29.2510  -22.0620   20.4620 N   0  0  1  0  0  4  0  0  0  0  0  0
  -29.7600  -22.5530   21.1820 H   0  0  0  0  0  0  0  0  0  0  0  0
  -30.2650  -17.8780   20.2210 C   0  0  0  0  0  2  0  0  0  0  0  0
  -30.6070  -15.1430   19.8660 C   0  0  0  0  0  0  0  0  0  0  0  0
  -30.4520  -12.7710   18.9540 C   0  0  0  0  0  2  0  0  0  0  0  0
  -29.4570  -12.6790   17.7740 C   0  0  0  0  0  2  0  0  0  0  0  0
  -28.0220  -12.4610   18.2880 C   0  0  0  0  0  2  0  0  0  0  0  0
  -27.6660  -13.4100   19.4620 C   0  0  0  0  0  3  0  0  0  0  0  0
  -28.7770  -13.4640   20.5300 C   0  0  0  0  0  2  0  0  0  0  0  0
  -30.0030  -13.8840   19.8410 N   0  0  0  0  0  0  0  0  0  0  0  0
  -31.8090  -15.1830   19.5800 O   0  0  0  0  0  0  0  0  0  0  0  0
  -29.8510  -16.3510   20.0120 N   0  0  0  0  0  0  0  0  0  0  0  0
  -28.8620  -16.1810   20.1270 H   0  0  0  0  0  0  0  0  0  0  0  0
  -25.3360  -13.9920   20.3410 C   0  0  0  0  0  0  0  0  0  0  0  0
  -24.2890  -13.2190   20.7610 C   0  0  0  0  0  0  0  0  0  0  0  0
  -24.7440  -11.8660   20.6930 C   0  0  0  0  0  0  0  0  0  0  0  0
  -26.3590  -13.1120   20.0350 N   0  0  0  0  0  0  0  0  0  0  0  0
  -26.0170  -11.8270   20.3140 N   0  0  0  0  0  0  0  0  0  0  0  0
  -24.0220  -10.6050   20.9080 C   0  0  0  0  0  0  0  0  0  0  0  0
  -24.4770   -9.6410   21.8340 C   0  0  0  0  0  3  0  0  0  0  0  0
  -23.7530   -8.4460   22.0370 C   0  0  0  0  0  3  0  0  0  0  0  0
  -22.5580   -8.2090   21.3160 C   0  0  0  0  0  0  0  0  0  0  0  0
  -22.1220   -9.1610   20.3790 C   0  0  0  0  0  3  0  0  0  0  0  0
  -22.8470  -10.3470   20.1740 C   0  0  0  0  0  3  0  0  0  0  0  0
  -21.8030   -7.0670   21.4310 O   0  0  0  0  0  0  0  0  0  0  0  0
  -21.7590   -6.3470   22.5980 C   0  0  0  0  0  0  0  0  0  0  0  0
  -21.3090   -6.9160   23.8090 C   0  0  0  0  0  3  0  0  0  0  0  0
  -21.2150   -6.1210   24.9680 C   0  0  0  0  0  3  0  0  0  0  0  0
  -21.5600   -4.7580   24.9190 C   0  0  0  0  0  0  0  0  0  0  0  0
  -22.0020   -4.1870   23.7120 C   0  0  0  0  0  3  0  0  0  0  0  0
  -22.0990   -4.9790   22.5540 C   0  0  0  0  0  0  0  0  0  0  0  0
  -22.5060   -4.4200   21.3900 F   0  0  0  0  0  0  0  0  0  0  0  0
  -21.4610   -3.9920   26.0300 F   0  0  0  0  0  0  0  0  0  0  0  0
  -22.9110  -13.7010   21.1070 C   0  0  0  0  0  0  0  0  0  0  0  0
  -22.2250  -13.0020   22.0040 N   0  0  0  0  0  0  0  0  0  0  0  0
  -22.4530  -14.7330   20.6170 O   0  0  0  0  0  0  0  0  0  0  0  0
  -22.6100  -12.1670   22.4210 H   0  0  0  0  0  0  0  0  0  0  0  0
  -21.3020  -13.3060   22.2790 H   0  0  0  0  0  0  0  0  0  0  0  0
  -25.4950  -15.3630   20.1660 N   0  0  0  0  0  0  0  0  0  0  0  0
  -24.7320  -16.0150   20.3140 H   0  0  0  0  0  0  0  0  0  0  0  0
  -26.3120  -15.8000   19.7580 H   0  0  0  0  0  0  0  0  0  0  0  0
  -28.8060  -23.3100   19.5730 C   0  0  0  0  0  2  0  0  0  0  0  0
  -28.2060  -24.7600   20.2590 C   0  0  0  0  0  2  0  0  0  0  0  0
  -28.3340  -26.2680   19.8130 O   0  0  0  0  0  0  0  0  0  0  0  0
  -24.6130  -31.8020   23.0690 C   0  0  0  0  0  0  0  0  0  0  0  0
  -27.2450  -27.2220   19.8650 C   0  0  0  0  0  0  0  0  0  0  0  0
  -23.4190  -30.4280   21.4080 C   0  0  0  0  0  3  0  0  0  0  0  0
  -24.8780  -28.9230   19.9170 C   0  0  0  0  0  0  0  0  0  0  0  0
  -25.9640  -30.7550   21.2080 C   0  0  0  0  0  2  0  0  0  0  0  0
  -26.0590  -29.3810   20.5160 C   0  0  0  0  0  0  0  0  0  0  0  0
  -27.2460  -28.5500   20.4650 C   0  0  0  0  0  3  0  0  0  0  0  0
  -26.0340  -26.8690   19.2340 C   0  0  0  0  0  3  0  0  0  0  0  0
  -24.8780  -27.6830   19.2600 C   0  0  0  0  0  3  0  0  0  0  0  0
  -23.6320  -29.7940   20.0080 C   0  0  0  0  0  2  0  0  0  0  0  0
  -24.6860  -31.0170   21.9500 N   0  0  0  0  0  0  0  0  0  0  0  0
  -23.5310  -32.0440   23.6230 O   0  0  0  0  0  0  0  0  0  0  0  0
  -22.7790  -29.3780   22.3520 C   0  0  0  0  0  0  0  0  0  0  0  0
  -21.4560  -29.1650   22.2280 N   0  0  0  0  0  0  0  0  0  0  0  0
  -23.4750  -28.7570   23.1590 O   0  0  0  0  0  0  0  0  0  0  0  0
  -20.9490  -29.7180   21.5520 H   0  0  0  0  0  0  0  0  0  0  0  0
  -18.1230  -27.8310   22.7150 C   0  0  0  0  0  0  0  0  0  0  0  0
  -20.6720  -28.1820   22.9810 C   0  0  0  0  0  3  0  0  0  0  0  0
  -20.8240  -26.7660   22.3780 C   0  0  0  0  0  2  0  0  0  0  0  0
  -19.7310  -26.4240   21.3590 C   0  0  0  0  0  2  0  0  0  0  0  0
  -18.3470  -26.5040   22.0100 C   0  0  0  0  0  2  0  0  0  0  0  0
  -19.2140  -28.6260   23.1580 C   0  0  0  0  0  0  0  0  0  0  0  0
  -18.9480  -29.8650   23.7790 C   0  0  0  0  0  3  0  0  0  0  0  0
  -17.6260  -30.3110   23.9620 C   0  0  0  0  0  3  0  0  0  0  0  0
  -16.5500  -29.5140   23.5350 C   0  0  0  0  0  3  0  0  0  0  0  0
  -16.7990  -28.2760   22.9170 C   0  0  0  0  0  3  0  0  0  0  0  0
  -25.8860  -32.4500   23.6940 C   0  0  0  0  0  3  0  0  0  0  0  0
  -26.4300  -31.6610   24.9500 C   0  0  1  0  0  0  0  0  0  0  0  0
  -25.3520  -31.3830   26.0250 C   0  0  0  0  0  1  0  0  0  0  0  0
  -27.0320  -30.3030   24.5270 C   0  0  0  0  0  1  0  0  0  0  0  0
  -27.5730  -32.4620   25.6160 C   0  0  0  0  0  1  0  0  0  0  0  0
  -25.5490  -33.8320   24.0680 N   0  0  0  0  0  0  0  0  0  0  0  0
  -25.8570  -34.9180   23.3440 C   0  0  0  0  0  0  0  0  0  0  0  0
  -26.5200  -34.8600   22.3050 O   0  0  0  0  0  0  0  0  0  0  0  0
  -24.9570  -33.9500   24.8770 H   0  0  0  0  0  0  0  0  0  0  0  0
  -24.1060  -36.7020   23.0510 C   0  0  0  0  0  1  0  0  0  0  0  0
  -25.3490  -36.2830   23.8510 C   0  0  0  0  0  3  0  0  0  0  0  0
  -27.4660  -37.1690   24.7260 C   0  0  0  0  0  1  0  0  0  0  0  0
  -26.3680  -37.3530   23.7820 N   0  0  0  0  0  0  0  0  0  0  0  0
  -25.9470  -38.2620   23.9570 H   0  0  0  0  0  0  0  0  0  0  0  0
  3  8  1  0
  3  5  1  0
  3  1  1  0
  4  1  1  1
  4  2  1  0
  5  6  1  0
  5  4  1  0
  5  2  1  1
  6  7  1  1
  6  4  1  0
  9 17  1  0
 10 15  1  0
 11 12  1  0
 11 10  1  0
 13 12  1  0
 13 22  1  0
 13 14  1  0
 15  9  1  0
 15 14  1  0
 16  9  2  0
 17 18  1  0
 17  8  1  0
 19 20  2  0
 20 39  1  0
 21 20  1  0
 21 24  1  0
 22 23  1  0
 22 19  1  0
 23 21  2  0
 24 25  1  0
 25 26  2  0
 27 30  1  0
 27 26  1  0
 28 27  2  0
 29 28  1  0
 29 24  2  0
 30 31  1  0
 31 32  1  0
 32 33  2  0
 34 33  1  0
 34 38  1  0
 35 34  2  0
 36 31  2  0
 36 35  1  0
 37 36  1  0
 39 40  1  0
 40 43  1  0
 40 42  1  0
 41 39  2  0
 44 45  1  0
 44 19  1  0
 46 44  1  0
 47 48  1  0
 47  6  1  0
 49 51  1  0
 49 48  1  0
 50 61  2  0
 51 56  1  0
 52 60  1  0
 52 62  1  0
 53 59  1  0
 53 55  1  0
 54 60  1  0
 55 54  1  0
 56 55  2  0
 57 58  1  0
 57 51  2  0
 58 53  2  0
 59 52  1  0
 60 50  1  0
 62 64  2  0
 63 62  1  0
 65 63  1  0
 66 75  2  0
 66 71  1  0
 67 63  1  0
 67 71  1  0
 68 67  1  0
 69 70  1  0
 69 68  1  0
 70 66  1  0
 71 72  2  0
 72 73  1  0
 74 73  2  0
 75 74  1  0
 76 50  1  0
 76 81  1  0
 76 77  1  0
 77 80  1  1
 77 78  1  0
 79 77  1  0
 81 84  1  0
 82 86  1  0
 82 81  1  0
 83 82  2  0
 86 85  1  0
 88 86  1  0
 88 89  1  0
 88 87  1  0
M  ISO  4   9 100  17 100  48 101  49 101
M  END
>  <TORSDO>  (36) 
F 19

>  <SCORE>  (36) 
-15.307

>  <name>  (36) 
36

>  <ligand_id>  (36) 
36

>  <original_smiles>  (36) 
[H]c1c([H])c([H])c2c(c1[H])C([H])([H])C([H])([H])C([H])([H])C2([H])N([H])C(=O)C1([H])N(C(=O)C([H])(N([H])C(=O)C([H])(N([H])C([H])([H])[H])C([H])([H])[H])C(C([H])([H])[H])(C([H])([H])[H])C([H])([H])[H])C([H])([H])c2c([H])c(OC([H])([H])C([H])([H])[N+]3([H])C4([H])C([H])([H])C([H])(C([H])([H])N([H])C(=O)N5C([H])([H])C([H])([H])C([H])([H])C([H])(n6nc(-c7c([H])c([H])c(Oc8c([H])c([H])c(F)c([H])c8F)c([H])c7[H])c(C(=O)N([H])[H])c6N([H])[H])C5([H])[H])C3([H])C4([H])[H])c([H])c([H])c2C1([H])[H]

>  <smiles>  (36) 
[H]c1c([H])c([H])c2c(c1[H])C([H])([H])C([H])([H])C([H])([H])C2([H])N([H])C(=O)C1([H])N(C(=O)C([H])(N([H])C(=O)C([H])(N([H])C([H])([H])[H])C([H])([H])[H])C(C([H])([H])[H])(C([H])([H])[H])C([H])([H])[H])C([H])([H])c2c([H])c(OC([H])([H])C([H])([H])[N+]3([H])C4([H])C([H])([H])C([H])(C([H])([H])N([H])C(=O)N5C([H])([H])C([H])([H])C([H])([H])C([H])(n6nc(-c7c([H])c([H])c(Oc8c([H])c([H])c(F)c([H])c8F)c([H])c7[H])c(C(=O)N([H])[H])c6N([H])[H])C5([H])[H])C3([H])C4([H])[H])c([H])c([H])c2C1([H])[H]

$$$$
37:0:0
     RDKit          3D

 94103  0  0  1  0  0  0  0  0999 V2000
  -30.6580  -14.8540   20.4220 C   0  0  0  0  0  0  0  0  0  0  0  0
  -30.3680  -12.5590   19.4450 C   0  0  0  0  0  2  0  0  0  0  0  0
  -29.4590  -12.5660   18.1990 C   0  0  0  0  0  2  0  0  0  0  0  0
  -27.9940  -12.3700   18.6230 C   0  0  0  0  0  2  0  0  0  0  0  0
  -27.5890  -13.3050   19.7910 C   0  0  0  0  0  3  0  0  0  0  0  0
  -28.6360  -13.3360   20.9280 C   0  0  0  0  0  2  0  0  0  0  0  0
  -29.9300  -13.6770   20.3270 N   0  0  0  0  0  0  0  0  0  0  0  0
  -31.8630  -14.7770   20.1650 O   0  0  0  0  0  0  0  0  0  0  0  0
  -30.6130  -18.0290   22.3680 C   0  0  0  0  0  2  0  0  0  0  0  0
  -28.9550  -16.7560   19.9730 C   0  0  0  0  0  2  0  0  0  0  0  0
  -30.7170  -18.7670   21.0510 C   0  0  0  0  0  3  0  0  0  0  0  0
  -29.5150  -19.4290   20.3360 C   0  0  0  0  0  3  0  0  0  0  0  0
  -31.0060  -17.2280   21.1360 C   0  0  0  0  0  3  0  0  0  0  0  0
  -28.4440  -18.2560   20.3060 C   0  0  0  0  0  3  0  0  0  0  0  0
  -30.1100  -16.1340   20.7080 N   0  0  0  0  0  0  0  0  0  0  0  0
  -25.2080  -13.9140   20.5010 C   0  0  0  0  0  0  0  0  0  0  0  0
  -24.1310  -13.1490   20.8530 C   0  0  0  0  0  0  0  0  0  0  0  0
  -24.5910  -11.7970   20.8470 C   0  0  0  0  0  0  0  0  0  0  0  0
  -26.2480  -13.0260   20.2840 N   0  0  0  0  0  0  0  0  0  0  0  0
  -25.8850  -11.7490   20.5620 N   0  0  0  0  0  0  0  0  0  0  0  0
  -23.8570  -10.5400   21.0390 C   0  0  0  0  0  0  0  0  0  0  0  0
  -24.2790   -9.5750   21.9790 C   0  0  0  0  0  3  0  0  0  0  0  0
  -23.5450   -8.3840   22.1580 C   0  0  0  0  0  3  0  0  0  0  0  0
  -22.3740   -8.1500   21.3980 C   0  0  0  0  0  0  0  0  0  0  0  0
  -21.9720   -9.1050   20.4480 C   0  0  0  0  0  3  0  0  0  0  0  0
  -22.7070  -10.2880   20.2660 C   0  0  0  0  0  3  0  0  0  0  0  0
  -21.6120   -7.0110   21.4860 O   0  0  0  0  0  0  0  0  0  0  0  0
  -21.5610   -6.2670   22.6380 C   0  0  0  0  0  0  0  0  0  0  0  0
  -21.1590   -6.8270   23.8700 C   0  0  0  0  0  3  0  0  0  0  0  0
  -21.0540   -6.0100   25.0140 C   0  0  0  0  0  3  0  0  0  0  0  0
  -21.3410   -4.6350   24.9260 C   0  0  0  0  0  0  0  0  0  0  0  0
  -21.7370   -4.0750   23.6980 C   0  0  0  0  0  3  0  0  0  0  0  0
  -21.8440   -4.8880   22.5570 C   0  0  0  0  0  0  0  0  0  0  0  0
  -22.2050   -4.3400   21.3710 F   0  0  0  0  0  0  0  0  0  0  0  0
  -21.2330   -3.8480   26.0210 F   0  0  0  0  0  0  0  0  0  0  0  0
  -22.7330  -13.6380   21.0950 C   0  0  0  0  0  0  0  0  0  0  0  0
  -21.9890  -12.9570   21.9580 N   0  0  0  0  0  0  0  0  0  0  0  0
  -22.3110  -14.6600   20.5570 O   0  0  0  0  0  0  0  0  0  0  0  0
  -22.3430  -12.1300   22.4160 H   0  0  0  0  0  0  0  0  0  0  0  0
  -21.0490  -13.2670   22.1640 H   0  0  0  0  0  0  0  0  0  0  0  0
  -25.3920  -15.2830   20.3350 N   0  0  0  0  0  0  0  0  0  0  0  0
  -24.6560  -15.9180   20.6250 H   0  0  0  0  0  0  0  0  0  0  0  0
  -26.3180  -15.6640   20.4450 H   0  0  0  0  0  0  0  0  0  0  0  0
  -27.3260  -18.5950   19.4010 N   0  0  0  0  0  4  0  0  0  0  0  0
  -27.6430  -18.7210   18.4550 H   0  0  0  0  0  0  0  0  0  0  0  0
  -26.8520  -19.4290   19.6930 H   0  0  0  0  0  0  0  0  0  0  0  0
  -26.6370  -17.8620   19.3930 H   0  0  0  0  0  0  0  0  0  0  0  0
  -29.1190  -20.9180   20.9630 C   0  0  0  0  0  2  0  0  0  0  0  0
  -28.9700  -22.2050   20.0980 N   0  0  0  0  0  4  0  0  0  0  0  0
  -29.8060  -22.2860   19.5390 H   0  0  0  0  0  0  0  0  0  0  0  0
  -28.2140  -22.0520   19.4490 H   0  0  0  0  0  0  0  0  0  0  0  0
  -28.7330  -23.5990   20.7650 C   0  0  0  0  0  3  0  0  0  0  0  0
  -28.4100  -24.9210   19.8430 C   0  0  0  0  0  3  0  0  0  0  0  0
  -28.3660  -26.3580   20.3570 O   0  0  0  0  0  0  0  0  0  0  0  0
  -24.6200  -31.8890   23.2660 C   0  0  0  0  0  0  0  0  0  0  0  0
  -27.2540  -27.2450   20.2550 C   0  0  0  0  0  0  0  0  0  0  0  0
  -23.4350  -30.4790   21.6250 C   0  0  0  0  0  3  0  0  0  0  0  0
  -24.8990  -28.9210   20.2130 C   0  0  0  0  0  0  0  0  0  0  0  0
  -25.9820  -30.7800   21.4680 C   0  0  0  0  0  2  0  0  0  0  0  0
  -26.0670  -29.3920   20.8240 C   0  0  0  0  0  0  0  0  0  0  0  0
  -27.2420  -28.5670   20.8340 C   0  0  0  0  0  3  0  0  0  0  0  0
  -26.0570  -26.8550   19.6100 C   0  0  0  0  0  3  0  0  0  0  0  0
  -24.9030  -27.6630   19.5950 C   0  0  0  0  0  3  0  0  0  0  0  0
  -23.6640  -29.8010   20.2490 C   0  0  0  0  0  2  0  0  0  0  0  0
  -24.6970  -31.0690   22.1740 N   0  0  0  0  0  0  0  0  0  0  0  0
  -23.5300  -32.1670   23.7880 O   0  0  0  0  0  0  0  0  0  0  0  0
  -22.7630  -29.4680   22.5840 C   0  0  0  0  0  0  0  0  0  0  0  0
  -21.4350  -29.2950   22.4550 N   0  0  0  0  0  0  0  0  0  0  0  0
  -23.4360  -28.8400   23.4050 O   0  0  0  0  0  0  0  0  0  0  0  0
  -20.9510  -29.8510   21.7640 H   0  0  0  0  0  0  0  0  0  0  0  0
  -18.0520  -28.1080   22.9570 C   0  0  0  0  0  0  0  0  0  0  0  0
  -20.6120  -28.3610   23.2240 C   0  0  0  0  0  3  0  0  0  0  0  0
  -20.7080  -26.9290   22.6490 C   0  0  0  0  0  2  0  0  0  0  0  0
  -19.6060  -26.6100   21.6350 C   0  0  0  0  0  2  0  0  0  0  0  0
  -18.2250  -26.7590   22.2790 C   0  0  0  0  0  2  0  0  0  0  0  0
  -19.1740  -28.8670   23.3850 C   0  0  0  0  0  0  0  0  0  0  0  0
  -18.9580  -30.1300   23.9790 C   0  0  0  0  0  3  0  0  0  0  0  0
  -17.6540  -30.6340   24.1470 C   0  0  0  0  0  3  0  0  0  0  0  0
  -16.5470  -29.8730   23.7330 C   0  0  0  0  0  3  0  0  0  0  0  0
  -16.7480  -28.6110   23.1430 C   0  0  0  0  0  3  0  0  0  0  0  0
  -25.8930  -32.5310   23.8960 C   0  0  0  0  0  3  0  0  0  0  0  0
  -26.3930  -31.7750   25.1890 C   0  0  1  0  0  0  0  0  0  0  0  0
  -25.2880  -31.5510   26.2470 C   0  0  0  0  0  1  0  0  0  0  0  0
  -26.9800  -30.3920   24.8230 C   0  0  0  0  0  1  0  0  0  0  0  0
  -27.5360  -32.5760   25.8540 C   0  0  0  0  0  1  0  0  0  0  0  0
  -25.5750  -33.9320   24.2110 N   0  0  0  0  0  0  0  0  0  0  0  0
  -25.9070  -34.9810   23.4470 C   0  0  0  0  0  0  0  0  0  0  0  0
  -26.5800  -34.8700   22.4190 O   0  0  0  0  0  0  0  0  0  0  0  0
  -24.9770  -34.0910   25.0100 H   0  0  0  0  0  0  0  0  0  0  0  0
  -24.1710  -36.7650   23.0770 C   0  0  0  0  0  1  0  0  0  0  0  0
  -25.4140  -36.3720   23.8920 C   0  0  0  0  0  3  0  0  0  0  0  0
  -27.5470  -37.2720   24.7130 C   0  0  0  0  0  1  0  0  0  0  0  0
  -26.4430  -37.4280   23.7690 N   0  0  0  0  0  0  0  0  0  0  0  0
  -26.0340  -38.3470   23.9080 H   0  0  0  0  0  0  0  0  0  0  0  0
  1 15  1  0
  2  7  1  0
  3  4  1  0
  3  2  1  0
  5  4  1  0
  5 19  1  0
  5  6  1  0
  7  1  1  0
  7  6  1  0
  8  1  2  0
 10 14  1  0
 10 15  1  0
 11 13  1  0
 11  9  1  0
 12 48  1  0
 12 11  1  0
 13  9  1  0
 14 44  1  0
 14 12  1  0
 15 13  1  0
 16 17  2  0
 17 36  1  0
 18 17  1  0
 18 21  1  0
 19 16  1  0
 19 20  1  0
 20 18  2  0
 21 22  1  0
 22 23  2  0
 24 27  1  0
 24 23  1  0
 25 24  2  0
 26 25  1  0
 26 21  2  0
 27 28  1  0
 28 29  1  0
 29 30  2  0
 31 30  1  0
 31 35  1  0
 32 31  2  0
 33 28  2  0
 33 32  1  0
 34 33  1  0
 36 37  1  0
 37 40  1  0
 37 39  1  0
 38 36  2  0
 41 43  1  0
 41 16  1  0
 41 42  1  0
 44 46  1  0
 45 44  1  0
 47 44  1  0
 49 52  1  0
 49 48  1  0
 50 49  1  0
 51 49  1  0
 53 54  1  0
 53 52  2  0
 55 66  2  0
 56 54  1  0
 56 61  1  0
 57 65  1  0
 57 67  1  0
 58 64  1  0
 58 60  1  0
 59 65  1  0
 60 61  2  0
 60 59  1  0
 62 56  2  0
 63 62  1  0
 63 58  2  0
 64 57  1  0
 65 55  1  0
 67 69  2  0
 68 67  1  0
 70 68  1  0
 71 80  2  0
 71 76  1  0
 72 68  1  0
 72 76  1  0
 73 72  1  0
 74 75  1  0
 74 73  1  0
 75 71  1  0
 76 77  2  0
 77 78  1  0
 79 78  2  0
 80 79  1  0
 81 55  1  0
 81 86  1  0
 81 82  1  0
 82 85  1  1
 82 83  1  0
 84 82  1  0
 86 89  1  0
 87 91  1  0
 87 86  1  0
 88 87  2  0
 91 90  1  0
 93 91  1  0
 93 94  1  0
 93 92  1  0
M  ISO  4   1 100  15 100  53 101  54 101
M  END
>  <TORSDO>  (37) 
F 20

>  <SCORE>  (37) 
-14.190

>  <name>  (37) 
37

>  <ligand_id>  (37) 
37

>  <original_smiles>  (37) 
[H]c1c([H])c([H])c2c(c1[H])C([H])([H])C([H])([H])C([H])([H])C2([H])N([H])C(=O)C1([H])N(C(=O)C([H])(N([H])C(=O)C([H])(N([H])C([H])([H])[H])C([H])([H])[H])C(C([H])([H])[H])(C([H])([H])[H])C([H])([H])[H])C([H])([H])c2c([H])c(OC([H])([H])C([H])([H])[N+]([H])([H])C([H])([H])C3([H])C4([H])C([H])([H])C4([H])N(C(=O)N4C([H])([H])C([H])([H])C([H])([H])C([H])(n5nc(-c6c([H])c([H])c(Oc7c([H])c([H])c(F)c([H])c7F)c([H])c6[H])c(C(=O)N([H])[H])c5N([H])[H])C4([H])[H])C([H])([H])C3([H])[N+]([H])([H])[H])c([H])c([H])c2C1([H])[H]

>  <smiles>  (37) 
[H]c1c([H])c([H])c2c(c1[H])C([H])([H])C([H])([H])C([H])([H])C2([H])N([H])C(=O)C1([H])N(C(=O)C([H])(N([H])C(=O)C([H])(N([H])C([H])([H])[H])C([H])([H])[H])C(C([H])([H])[H])(C([H])([H])[H])C([H])([H])[H])C([H])([H])c2c([H])c(OC([H])([H])C([H])([H])[N+]([H])([H])C([H])([H])C3([H])C4([H])C([H])([H])C4([H])N(C(=O)N4C([H])([H])C([H])([H])C([H])([H])C([H])(n5nc(-c6c([H])c([H])c(Oc7c([H])c([H])c(F)c([H])c7F)c([H])c6[H])c(C(=O)N([H])[H])c5N([H])[H])C4([H])[H])C([H])([H])C3([H])[N+]([H])([H])[H])c([H])c([H])c2C1([H])[H]

$$$$
38:0:0
     RDKit          3D

 97106  0  0  1  0  0  0  0  0999 V2000
  -29.4430  -20.9530   18.1250 C   0  0  0  0  0  0  0  0  0  0  0  0
  -29.2090  -21.0840   16.9200 O   0  0  0  0  0  0  0  0  0  0  0  0
  -27.1440  -19.7320   18.3600 C   0  0  0  0  0  2  0  0  0  0  0  0
  -28.9980  -19.1260   19.9110 C   0  0  0  0  0  2  0  0  0  0  0  0
  -27.5020  -17.1110   18.4940 C   0  0  0  0  0  2  0  0  0  0  0  0
  -28.4160  -20.3010   19.0740 C   0  0  0  0  0  3  0  0  0  0  0  0
  -26.8630  -18.4030   19.0340 C   0  0  0  0  0  3  0  0  0  0  0  0
  -27.7940  -18.2350   20.2260 C   0  0  0  0  0  3  0  0  0  0  0  0
  -27.8120  -16.8020   19.8930 N   0  0  2  0  0  4  0  0  0  0  0  0
  -26.9610  -16.3760   20.2340 H   0  0  0  0  0  0  0  0  0  0  0  0
  -28.8970  -15.8540   20.2920 C   0  0  0  0  0  2  0  0  0  0  0  0
  -30.3990  -16.2830   20.3740 C   0  0  0  0  0  2  0  0  0  0  0  0
  -31.8350  -14.2320   20.4570 C   0  0  0  0  0  0  0  0  0  0  0  0
  -31.8560  -11.7660   20.2480 C   0  0  0  0  0  2  0  0  0  0  0  0
  -31.0150  -11.3240   19.0350 C   0  0  0  0  0  2  0  0  0  0  0  0
  -29.5170  -11.2250   19.3940 C   0  0  0  0  0  2  0  0  0  0  0  0
  -29.0030  -12.5070   20.0930 C   0  0  0  0  0  3  0  0  0  0  0  0
  -29.9280  -12.8320   21.2830 C   0  0  0  0  0  2  0  0  0  0  0  0
  -31.3070  -13.0250   20.7640 N   0  0  0  0  0  0  0  0  0  0  0  0
  -32.8440  -14.4050   19.7550 O   0  0  0  0  0  0  0  0  0  0  0  0
  -31.1470  -15.2160   21.0470 N   0  0  0  0  0  0  0  0  0  0  0  0
  -30.6110  -14.8170   21.8070 H   0  0  0  0  0  0  0  0  0  0  0  0
  -26.6610  -13.3490   20.7580 C   0  0  0  0  0  0  0  0  0  0  0  0
  -25.5250  -12.6780   21.1310 C   0  0  0  0  0  0  0  0  0  0  0  0
  -25.8640  -11.2940   21.1120 C   0  0  0  0  0  0  0  0  0  0  0  0
  -27.6170  -12.3720   20.5380 N   0  0  0  0  0  0  0  0  0  0  0  0
  -27.1420  -11.1330   20.8040 N   0  0  0  0  0  0  0  0  0  0  0  0
  -25.0330  -10.1000   21.3100 C   0  0  0  0  0  0  0  0  0  0  0  0
  -25.0410   -9.3910   22.5300 C   0  0  0  0  0  3  0  0  0  0  0  0
  -24.2210   -8.2550   22.7020 C   0  0  0  0  0  3  0  0  0  0  0  0
  -23.3840   -7.8200   21.6460 C   0  0  0  0  0  0  0  0  0  0  0  0
  -23.3970   -8.5190   20.4230 C   0  0  0  0  0  3  0  0  0  0  0  0
  -24.2180   -9.6480   20.2560 C   0  0  0  0  0  3  0  0  0  0  0  0
  -22.5770   -6.7130   21.7070 O   0  0  0  0  0  0  0  0  0  0  0  0
  -21.7590   -6.4800   22.7850 C   0  0  0  0  0  0  0  0  0  0  0  0
  -20.7680   -7.4040   23.1850 C   0  0  0  0  0  3  0  0  0  0  0  0
  -19.9050   -7.0900   24.2540 C   0  0  0  0  0  3  0  0  0  0  0  0
  -20.0260   -5.8560   24.9190 C   0  0  0  0  0  0  0  0  0  0  0  0
  -21.0080   -4.9330   24.5170 C   0  0  0  0  0  3  0  0  0  0  0  0
  -21.8690   -5.2440   23.4520 C   0  0  0  0  0  0  0  0  0  0  0  0
  -22.8000   -4.3430   23.0560 F   0  0  0  0  0  0  0  0  0  0  0  0
  -19.1910   -5.5510   25.9400 F   0  0  0  0  0  0  0  0  0  0  0  0
  -24.1740  -13.2820   21.3860 C   0  0  0  0  0  0  0  0  0  0  0  0
  -23.3960  -12.6800   22.2770 N   0  0  0  0  0  0  0  0  0  0  0  0
  -23.8210  -14.3200   20.8300 O   0  0  0  0  0  0  0  0  0  0  0  0
  -23.6940  -11.8340   22.7400 H   0  0  0  0  0  0  0  0  0  0  0  0
  -22.4850  -13.0590   22.4870 H   0  0  0  0  0  0  0  0  0  0  0  0
  -26.9460  -14.6960   20.5750 N   0  0  0  0  0  0  0  0  0  0  0  0
  -26.1710  -15.3500   20.5380 H   0  0  0  0  0  0  0  0  0  0  0  0
  -27.7320  -14.9840   20.0020 H   0  0  0  0  0  0  0  0  0  0  0  0
  -30.7660  -21.4820   18.6850 C   0  0  0  0  0  2  0  0  0  0  0  0
  -30.8580  -22.8830   18.2270 N   0  0  0  0  0  4  0  0  0  0  0  0
  -30.1130  -22.9440   17.5400 H   0  0  0  0  0  0  0  0  0  0  0  0
  -31.7200  -23.0190   17.7180 H   0  0  0  0  0  0  0  0  0  0  0  0
  -30.7090  -23.9270   19.2910 C   0  0  0  0  0  2  0  0  0  0  0  0
  -29.7910  -25.0890   18.8510 C   0  0  0  0  0  2  0  0  0  0  0  0
  -29.7910  -26.2890   19.6760 O   0  0  0  0  0  0  0  0  0  0  0  0
  -25.5000  -30.6510   23.4600 C   0  0  0  0  0  0  0  0  0  0  0  0
  -28.5860  -26.9820   19.7560 C   0  0  0  0  0  0  0  0  0  0  0  0
  -24.5000  -29.4790   21.5570 C   0  0  0  0  0  3  0  0  0  0  0  0
  -26.0990  -28.3400   19.9570 C   0  0  0  0  0  0  0  0  0  0  0  0
  -26.9970  -30.0290   21.5550 C   0  0  0  0  0  2  0  0  0  0  0  0
  -27.2050  -28.8040   20.6800 C   0  0  0  0  0  0  0  0  0  0  0  0
  -28.4480  -28.1240   20.5910 C   0  0  0  0  0  3  0  0  0  0  0  0
  -27.4480  -26.5680   19.0190 C   0  0  0  0  0  3  0  0  0  0  0  0
  -26.2170  -27.2230   19.1260 C   0  0  0  0  0  3  0  0  0  0  0  0
  -24.8030  -29.0930   20.0940 C   0  0  0  0  0  2  0  0  0  0  0  0
  -25.6850  -30.0570   22.2490 N   0  0  0  0  0  0  0  0  0  0  0  0
  -24.3730  -30.7420   23.9720 O   0  0  0  0  0  0  0  0  0  0  0  0
  -23.8970  -28.2600   22.2870 C   0  0  0  0  0  0  0  0  0  0  0  0
  -22.6440  -28.0040   21.9290 N   0  0  0  0  0  0  0  0  0  0  0  0
  -24.5420  -27.5780   23.0840 O   0  0  0  0  0  0  0  0  0  0  0  0
  -22.2440  -28.6920   21.3040 H   0  0  0  0  0  0  0  0  0  0  0  0
  -19.4400  -26.1020   21.7240 C   0  0  0  0  0  0  0  0  0  0  0  0
  -21.8110  -26.8400   22.0800 C   0  0  0  0  0  3  0  0  0  0  0  0
  -22.3110  -25.4340   21.7250 C   0  0  0  0  0  2  0  0  0  0  0  0
  -21.4350  -24.8830   20.5860 C   0  0  0  0  0  2  0  0  0  0  0  0
  -19.9350  -24.8710   20.9610 C   0  0  0  0  0  2  0  0  0  0  0  0
  -20.3350  -27.0040   22.3520 C   0  0  0  0  0  0  0  0  0  0  0  0
  -19.8460  -28.1280   23.0490 C   0  0  0  0  0  3  0  0  0  0  0  0
  -18.4610  -28.3770   23.0910 C   0  0  0  0  0  3  0  0  0  0  0  0
  -17.5710  -27.4990   22.4480 C   0  0  0  0  0  3  0  0  0  0  0  0
  -18.0580  -26.3630   21.7740 C   0  0  0  0  0  3  0  0  0  0  0  0
  -26.6980  -31.2590   24.2530 C   0  0  0  0  0  3  0  0  0  0  0  0
  -26.2660  -32.5690   24.7630 N   0  0  0  0  0  0  0  0  0  0  0  0
  -26.5970  -33.7440   24.2100 C   0  0  0  0  0  0  0  0  0  0  0  0
  -27.3670  -33.8390   23.2510 O   0  0  0  0  0  0  0  0  0  0  0  0
  -25.5990  -32.5620   25.5220 H   0  0  0  0  0  0  0  0  0  0  0  0
  -24.8300  -35.5130   23.9250 C   0  0  0  0  0  1  0  0  0  0  0  0
  -25.9710  -35.0130   24.8250 C   0  0  0  0  0  3  0  0  0  0  0  0
  -27.9200  -35.8040   26.0930 C   0  0  0  0  0  1  0  0  0  0  0  0
  -26.9500  -36.0990   25.0420 N   0  0  0  0  0  0  0  0  0  0  0  0
  -26.4760  -36.9650   25.2810 H   0  0  0  0  0  0  0  0  0  0  0  0
  -27.1850  -30.3350   25.4320 C   0  0  1  0  0  0  0  0  0  0  0  0
  -26.0420  -29.8480   26.3550 C   0  0  0  0  0  1  0  0  0  0  0  0
  -27.9100  -29.0850   24.8810 C   0  0  0  0  0  1  0  0  0  0  0  0
  -28.2100  -31.1000   26.2990 C   0  0  0  0  0  1  0  0  0  0  0  0
  1 51  1  0
  2  1  2  0
  3  6  1  0
  5  7  1  0
  5  9  1  0
  6  1  1  0
  6  4  1  0
  7  3  1  0
  7  8  1  0
  8  4  1  0
  9  8  1  0
  9 10  1  1
  9 11  1  0
 11 12  1  0
 12 21  1  0
 13 19  1  0
 13 21  1  0
 14 19  1  0
 15 16  1  0
 15 14  1  0
 17 16  1  0
 17 26  1  0
 17 18  1  0
 19 18  1  0
 20 13  2  0
 21 22  1  0
 23 24  2  0
 24 43  1  0
 25 24  1  0
 25 28  1  0
 26 23  1  0
 26 27  1  0
 27 25  2  0
 28 29  1  0
 29 30  2  0
 31 34  1  0
 31 30  1  0
 32 31  2  0
 33 32  1  0
 33 28  2  0
 34 35  1  0
 35 36  2  0
 35 40  1  0
 36 37  1  0
 37 38  2  0
 38 42  1  0
 39 38  1  0
 40 39  2  0
 41 40  1  0
 43 44  1  0
 44 47  1  0
 44 46  1  0
 45 43  2  0
 48 23  1  0
 49 48  1  0
 50 48  1  0
 52 51  1  0
 52 55  1  0
 53 52  1  0
 54 52  1  0
 56 55  1  0
 56 57  1  0
 57 59  1  0
 58 69  2  0
 59 64  1  0
 60 68  1  0
 60 70  1  0
 61 67  1  0
 61 63  1  0
 62 68  1  0
 63 62  1  0
 64 63  2  0
 65 66  1  0
 65 59  2  0
 66 61  2  0
 67 60  1  0
 68 58  1  0
 70 72  2  0
 71 70  1  0
 73 71  1  0
 74 83  2  0
 74 79  1  0
 75 71  1  0
 75 79  1  0
 76 75  1  0
 77 78  1  0
 77 76  1  0
 78 74  1  0
 79 80  2  0
 80 81  1  0
 82 81  2  0
 83 82  1  0
 84 58  1  0
 84 85  1  0
 84 94  1  0
 85 88  1  0
 86 85  1  0
 86 90  1  0
 87 86  2  0
 90 89  1  0
 90 92  1  0
 92 93  1  0
 92 91  1  0
 94 97  1  1
 94 95  1  0
 96 94  1  0
M  ISO  4  13 100  21 100  56 101  57 101
M  END
>  <TORSDO>  (38) 
F 23

>  <SCORE>  (38) 
-8.126

>  <name>  (38) 
38

>  <ligand_id>  (38) 
38

>  <original_smiles>  (38) 
[H]c1c([H])c([H])c2c(c1[H])C([H])([H])C([H])([H])C([H])([H])C2([H])N([H])C(=O)C1([H])N(C(=O)C([H])(N([H])C(=O)C([H])(N([H])C([H])([H])[H])C([H])([H])[H])C(C([H])([H])[H])(C([H])([H])[H])C([H])([H])[H])C([H])([H])c2c([H])c(OC([H])([H])C([H])([H])[N+]([H])([H])C([H])([H])C(=O)C3([H])C([H])([H])C4([H])C([H])([H])[N+]([H])(C([H])([H])C([H])([H])N([H])C(=O)N5C([H])([H])C([H])([H])C([H])([H])C([H])(n6nc(-c7c([H])c([H])c(Oc8c([H])c([H])c(F)c([H])c8F)c([H])c7[H])c(C(=O)N([H])[H])c6N([H])[H])C5([H])[H])C4([H])C3([H])[H])c([H])c([H])c2C1([H])[H]

>  <smiles>  (38) 
[H]c1c([H])c([H])c2c(c1[H])C([H])([H])C([H])([H])C([H])([H])C2([H])N([H])C(=O)C1([H])N(C(=O)C([H])(N([H])C(=O)C([H])(N([H])C([H])([H])[H])C([H])([H])[H])C(C([H])([H])[H])(C([H])([H])[H])C([H])([H])[H])C([H])([H])c2c([H])c(OC([H])([H])C([H])([H])[N+]([H])([H])C([H])([H])C(=O)C3([H])C([H])([H])C4([H])C([H])([H])[N+]([H])(C([H])([H])C([H])([H])N([H])C(=O)N5C([H])([H])C([H])([H])C([H])([H])C([H])(n6nc(-c7c([H])c([H])c(Oc8c([H])c([H])c(F)c([H])c8F)c([H])c7[H])c(C(=O)N([H])[H])c6N([H])[H])C5([H])[H])C4([H])C3([H])[H])c([H])c([H])c2C1([H])[H]

$$$$
39:0:0
     RDKit          3D

 96105  0  0  1  0  0  0  0  0999 V2000
  -29.9350  -20.4190   21.0920 C   0  0  0  0  0  3  0  0  0  0  0  0
  -30.8250  -19.3990   21.5200 C   0  0  0  0  0  0  0  0  0  0  0  0
  -29.8710  -21.3580   22.0850 C   0  0  0  0  0  0  0  0  0  0  0  0
  -31.3440  -19.7480   22.7330 C   0  0  0  0  0  0  0  0  0  0  0  0
  -32.3160  -19.0230   23.6190 C   0  0  0  0  0  1  0  0  0  0  0  0
  -30.9580  -21.6340   24.3660 C   0  0  0  0  0  1  0  0  0  0  0  0
  -30.7470  -20.9540   23.0950 N   0  0  0  0  0  0  0  0  0  0  0  0
  -30.2820  -17.7060   19.5510 C   0  0  0  0  0  2  0  0  0  0  0  0
  -31.0480  -18.0810   20.8090 C   0  0  0  0  0  3  0  0  0  0  0  0
  -29.9300  -17.0710   20.8800 C   0  0  0  0  0  3  0  0  0  0  0  0
  -30.9500  -14.7720   20.5830 C   0  0  0  0  0  0  0  0  0  0  0  0
  -30.8250  -12.5120   19.5930 C   0  0  0  0  0  2  0  0  0  0  0  0
  -29.9240  -12.5860   18.3400 C   0  0  0  0  0  2  0  0  0  0  0  0
  -28.4340  -12.4380   18.7130 C   0  0  0  0  0  2  0  0  0  0  0  0
  -28.0190  -13.3750   19.8780 C   0  0  0  0  0  3  0  0  0  0  0  0
  -29.0220  -13.2240   21.0460 C   0  0  0  0  0  2  0  0  0  0  0  0
  -30.3720  -13.5430   20.5350 N   0  0  0  0  0  0  0  0  0  0  0  0
  -32.0290  -15.0480   20.0480 O   0  0  0  0  0  0  0  0  0  0  0  0
  -30.1470  -15.6810   21.1530 N   0  0  0  0  0  0  0  0  0  0  0  0
  -29.3850  -15.2530   21.6540 H   0  0  0  0  0  0  0  0  0  0  0  0
  -25.5990  -14.0300   20.4980 C   0  0  0  0  0  0  0  0  0  0  0  0
  -24.5040  -13.2740   20.8280 C   0  0  0  0  0  0  0  0  0  0  0  0
  -24.9460  -11.9170   20.8130 C   0  0  0  0  0  0  0  0  0  0  0  0
  -26.6400  -13.1300   20.3040 N   0  0  0  0  0  0  0  0  0  0  0  0
  -26.2450  -11.8550   20.5490 N   0  0  0  0  0  0  0  0  0  0  0  0
  -24.1990  -10.6640   20.9810 C   0  0  0  0  0  0  0  0  0  0  0  0
  -24.5870   -9.6950   21.9330 C   0  0  0  0  0  3  0  0  0  0  0  0
  -23.8430   -8.5060   22.0870 C   0  0  0  0  0  3  0  0  0  0  0  0
  -22.6980   -8.2770   21.2890 C   0  0  0  0  0  0  0  0  0  0  0  0
  -22.3300   -9.2330   20.3260 C   0  0  0  0  0  3  0  0  0  0  0  0
  -23.0750  -10.4150   20.1690 C   0  0  0  0  0  3  0  0  0  0  0  0
  -21.9310   -7.1400   21.3500 O   0  0  0  0  0  0  0  0  0  0  0  0
  -21.8300   -6.4010   22.5010 C   0  0  0  0  0  0  0  0  0  0  0  0
  -21.3310   -6.9560   23.7010 C   0  0  0  0  0  3  0  0  0  0  0  0
  -21.1770   -6.1440   24.8410 C   0  0  0  0  0  3  0  0  0  0  0  0
  -21.5120   -4.7780   24.7830 C   0  0  0  0  0  0  0  0  0  0  0  0
  -22.0040   -4.2220   23.5890 C   0  0  0  0  0  3  0  0  0  0  0  0
  -22.1590   -5.0320   22.4500 C   0  0  0  0  0  0  0  0  0  0  0  0
  -22.6130   -4.4860   21.2960 F   0  0  0  0  0  0  0  0  0  0  0  0
  -21.3580   -3.9960   25.8780 F   0  0  0  0  0  0  0  0  0  0  0  0
  -23.1060  -13.7740   21.0550 C   0  0  0  0  0  0  0  0  0  0  0  0
  -22.3400  -13.0870   21.8970 N   0  0  0  0  0  0  0  0  0  0  0  0
  -22.6960  -14.8040   20.5230 O   0  0  0  0  0  0  0  0  0  0  0  0
  -22.6780  -12.2530   22.3530 H   0  0  0  0  0  0  0  0  0  0  0  0
  -21.3990  -13.4030   22.0890 H   0  0  0  0  0  0  0  0  0  0  0  0
  -25.7900  -15.3980   20.3320 N   0  0  0  0  0  0  0  0  0  0  0  0
  -25.0370  -16.0670   20.4510 H   0  0  0  0  0  0  0  0  0  0  0  0
  -26.6600  -15.8310   20.0490 H   0  0  0  0  0  0  0  0  0  0  0  0
  -28.9950  -22.5760   22.2230 C   0  0  0  0  0  2  0  0  0  0  0  0
  -27.9770  -22.7960   21.0810 C   0  0  0  0  0  2  0  0  0  0  0  0
  -28.4850  -23.6870   20.0090 N   0  0  0  0  0  4  0  0  0  0  0  0
  -28.1960  -23.2920   19.1250 H   0  0  0  0  0  0  0  0  0  0  0  0
  -29.4920  -23.6650   20.0260 H   0  0  0  0  0  0  0  0  0  0  0  0
  -27.9890  -25.0880   20.1090 C   0  0  0  0  0  2  0  0  0  0  0  0
  -28.5680  -26.0270   19.0290 C   0  0  0  0  0  2  0  0  0  0  0  0
  -28.4770  -27.4110   19.4050 O   0  0  0  0  0  0  0  0  0  0  0  0
  -24.5480  -31.9010   23.2600 C   0  0  0  0  0  0  0  0  0  0  0  0
  -27.2480  -28.0280   19.5210 C   0  0  0  0  0  0  0  0  0  0  0  0
  -23.3340  -30.6670   21.4980 C   0  0  0  0  0  3  0  0  0  0  0  0
  -24.7880  -29.3940   19.8280 C   0  0  0  0  0  0  0  0  0  0  0  0
  -25.8310  -31.1630   21.2550 C   0  0  0  0  0  2  0  0  0  0  0  0
  -25.9450  -29.8950   20.4360 C   0  0  0  0  0  0  0  0  0  0  0  0
  -27.1730  -29.2190   20.2800 C   0  0  0  0  0  3  0  0  0  0  0  0
  -26.0680  -27.5370   18.9130 C   0  0  0  0  0  3  0  0  0  0  0  0
  -24.8420  -28.2130   19.0700 C   0  0  0  0  0  3  0  0  0  0  0  0
  -23.5100  -30.1770   20.0370 C   0  0  0  0  0  2  0  0  0  0  0  0
  -24.5900  -31.2550   22.0620 N   0  0  0  0  0  0  0  0  0  0  0  0
  -23.4790  -32.0500   23.8700 O   0  0  0  0  0  0  0  0  0  0  0  0
  -22.7690  -29.5000   22.3400 C   0  0  0  0  0  0  0  0  0  0  0  0
  -21.4580  -29.2430   22.2010 N   0  0  0  0  0  0  0  0  0  0  0  0
  -23.5060  -28.8340   23.0700 O   0  0  0  0  0  0  0  0  0  0  0  0
  -20.9210  -29.8340   21.5830 H   0  0  0  0  0  0  0  0  0  0  0  0
  -18.1850  -27.7570   22.5610 C   0  0  0  0  0  0  0  0  0  0  0  0
  -20.7190  -28.1700   22.8650 C   0  0  0  0  0  3  0  0  0  0  0  0
  -20.9240  -26.8200   22.1380 C   0  0  0  0  0  2  0  0  0  0  0  0
  -19.8430  -26.5310   21.0920 C   0  0  0  0  0  2  0  0  0  0  0  0
  -18.4580  -26.5030   21.7440 C   0  0  0  0  0  2  0  0  0  0  0  0
  -19.2470  -28.5470   23.0730 C   0  0  0  0  0  0  0  0  0  0  0  0
  -18.9400  -29.7220   23.7940 C   0  0  0  0  0  3  0  0  0  0  0  0
  -17.6030  -30.1060   24.0100 C   0  0  0  0  0  3  0  0  0  0  0  0
  -16.5560  -29.3090   23.5140 C   0  0  0  0  0  3  0  0  0  0  0  0
  -16.8470  -28.1380   22.7940 C   0  0  0  0  0  3  0  0  0  0  0  0
  -25.8300  -32.5070   23.9120 C   0  0  0  0  0  3  0  0  0  0  0  0
  -25.5120  -33.8810   24.3210 N   0  0  0  0  0  0  0  0  0  0  0  0
  -25.8560  -34.9770   23.6330 C   0  0  0  0  0  0  0  0  0  0  0  0
  -26.5440  -34.9370   22.6080 O   0  0  0  0  0  0  0  0  0  0  0  0
  -24.8970  -33.9840   25.1150 H   0  0  0  0  0  0  0  0  0  0  0  0
  -24.1340  -36.7870   23.3480 C   0  0  0  0  0  1  0  0  0  0  0  0
  -25.3570  -36.3360   24.1620 C   0  0  0  0  0  3  0  0  0  0  0  0
  -27.4670  -37.1710   25.0980 C   0  0  0  0  0  1  0  0  0  0  0  0
  -26.3910  -37.3930   24.1360 N   0  0  0  0  0  0  0  0  0  0  0  0
  -25.9820  -38.3050   24.3200 H   0  0  0  0  0  0  0  0  0  0  0  0
  -26.3600  -31.6670   25.1390 C   0  0  1  0  0  0  0  0  0  0  0  0
  -25.2750  -31.3560   26.1980 C   0  0  0  0  0  1  0  0  0  0  0  0
  -26.9510  -30.3200   24.6610 C   0  0  0  0  0  1  0  0  0  0  0  0
  -27.5130  -32.4290   25.8350 C   0  0  0  0  0  1  0  0  0  0  0  0
  1  2  1  0
  1  3  2  0
  2  4  2  0
  3 49  1  0
  3  7  1  0
  4  7  1  0
  4  5  1  0
  7  6  1  0
  8  9  1  0
  8 10  1  0
  9 10  1  0
  9  2  1  0
 10 19  1  0
 11 19  1  0
 12 17  1  0
 13 14  1  0
 13 12  1  0
 15 14  1  0
 15 24  1  0
 15 16  1  0
 17 11  1  0
 17 16  1  0
 18 11  2  0
 19 20  1  0
 21 22  2  0
 22 41  1  0
 23 22  1  0
 23 26  1  0
 24 21  1  0
 24 25  1  0
 25 23  2  0
 26 27  1  0
 27 28  2  0
 29 32  1  0
 29 28  1  0
 30 29  2  0
 31 30  1  0
 31 26  2  0
 32 33  1  0
 33 34  1  0
 34 35  2  0
 36 35  1  0
 36 40  1  0
 37 36  2  0
 38 33  2  0
 38 37  1  0
 39 38  1  0
 41 42  1  0
 42 45  1  0
 42 44  1  0
 43 41  2  0
 46 47  1  0
 46 21  1  0
 48 46  1  0
 50 49  1  0
 51 53  1  0
 51 54  1  0
 51 50  1  0
 52 51  1  0
 55 56  1  0
 55 54  1  0
 56 58  1  0
 57 68  2  0
 58 63  1  0
 59 67  1  0
 59 69  1  0
 60 66  1  0
 60 62  1  0
 61 67  1  0
 62 61  1  0
 63 62  2  0
 64 65  1  0
 64 58  2  0
 65 60  2  0
 66 59  1  0
 67 57  1  0
 69 71  2  0
 70 69  1  0
 72 70  1  0
 73 82  2  0
 73 78  1  0
 74 70  1  0
 74 78  1  0
 75 74  1  0
 76 77  1  0
 76 75  1  0
 77 73  1  0
 78 79  2  0
 79 80  1  0
 81 80  2  0
 82 81  1  0
 83 57  1  0
 83 84  1  0
 83 93  1  0
 84 87  1  0
 85 89  1  0
 85 84  1  0
 86 85  2  0
 89 88  1  0
 91 89  1  0
 91 92  1  0
 91 90  1  0
 93 96  1  1
 93 94  1  0
 95 93  1  0
M  ISO  4  11 100  19 100  55 101  56 101
M  END
>  <TORSDO>  (39) 
F 22

>  <SCORE>  (39) 
-11.492

>  <name>  (39) 
39

>  <ligand_id>  (39) 
39

>  <original_smiles>  (39) 
[H]c1c([H])c([H])c2c(c1[H])C([H])([H])C([H])([H])C([H])([H])C2([H])N([H])C(=O)C1([H])N(C(=O)C([H])(N([H])C(=O)C([H])(N([H])C([H])([H])[H])C([H])([H])[H])C(C([H])([H])[H])(C([H])([H])[H])C([H])([H])[H])C([H])([H])c2c([H])c(OC([H])([H])C([H])([H])[N+]([H])([H])C([H])([H])C([H])([H])c3c([H])c(C4([H])C([H])([H])C4([H])N([H])C(=O)N4C([H])([H])C([H])([H])C([H])([H])C([H])(n5nc(-c6c([H])c([H])c(Oc7c([H])c([H])c(F)c([H])c7F)c([H])c6[H])c(C(=O)N([H])[H])c5N([H])[H])C4([H])[H])c(C([H])([H])[H])n3C([H])([H])[H])c([H])c([H])c2C1([H])[H]

>  <smiles>  (39) 
[H]c1c([H])c([H])c2c(c1[H])C([H])([H])C([H])([H])C([H])([H])C2([H])N([H])C(=O)C1([H])N(C(=O)C([H])(N([H])C(=O)C([H])(N([H])C([H])([H])[H])C([H])([H])[H])C(C([H])([H])[H])(C([H])([H])[H])C([H])([H])[H])C([H])([H])c2c([H])c(OC([H])([H])C([H])([H])[N+]([H])([H])C([H])([H])C([H])([H])c3c([H])c(C4([H])C([H])([H])C4([H])N([H])C(=O)N4C([H])([H])C([H])([H])C([H])([H])C([H])(n5nc(-c6c([H])c([H])c(Oc7c([H])c([H])c(F)c([H])c7F)c([H])c6[H])c(C(=O)N([H])[H])c5N([H])[H])C4([H])[H])c(C([H])([H])[H])n3C([H])([H])[H])c([H])c([H])c2C1([H])[H]

$$$$
40:0:0
     RDKit          3D

 95100  0  0  1  0  0  0  0  0999 V2000
  -24.9480  -17.1360   18.7290 C   0  0  0  0  0  2  0  0  0  0  0  0
  -23.1480  -12.1790   22.0490 C   0  0  0  0  0  2  0  0  0  0  0  0
  -25.0840  -11.9830   22.9950 C   0  0  0  0  0 15  0  0  0  0  0  0
  -22.6830  -14.6740   19.5200 C   0  0  0  0  0  2  0  0  0  0  0  0
  -23.0090  -13.1180   20.1960 C   0  0  0  0  0  2  0  0  0  0  0  0
  -24.5190  -13.6040   19.3440 C   0  0  0  0  0  3  0  0  0  0  0  0
  -24.1610  -15.4250   19.2820 C   0  0  0  0  0  3  0  0  0  0  0  0
  -26.8100  -12.4720   21.8900 C   0  0  0  0  0  1  0  0  0  0  0  0
  -22.1010  -11.7490   22.6180 N   0  0  0  0  0  0  0  0  0  0  0  0
  -22.3030  -11.3160   23.5130 H   0  0  0  0  0  0  0  0  0  0  0  0
  -29.8240  -13.4350   20.9820 C   0  0  0  0  0  0  0  0  0  0  0  0
  -30.9190  -12.0820   18.9730 C   0  0  0  0  0  2  0  0  0  0  0  0
  -30.0200  -11.9520   17.6430 C   0  0  0  0  0  2  0  0  0  0  0  0
  -28.4570  -11.9060   17.8000 C   0  0  0  0  0  2  0  0  0  0  0  0
  -28.2300  -12.6420   19.0680 C   0  0  0  0  0  3  0  0  0  0  0  0
  -29.0010  -11.6690   20.0320 C   0  0  0  0  0  2  0  0  0  0  0  0
  -30.1420  -12.3510   20.2300 N   0  0  0  0  0  0  0  0  0  0  0  0
  -30.7330  -14.3010   20.6880 O   0  0  0  0  0  0  0  0  0  0  0  0
  -28.4770  -13.3200   21.8640 N   0  0  0  0  0  0  0  0  0  0  0  0
  -28.4370  -14.1320   22.4640 H   0  0  0  0  0  0  0  0  0  0  0  0
  -26.4120  -14.0710   20.4830 C   0  0  0  0  0  0  0  0  0  0  0  0
  -25.1510  -13.5730   21.1860 C   0  0  0  0  0  3  0  0  0  0  0  0
  -25.1590  -11.6410   20.3860 C   0  0  0  0  0  2  0  0  0  0  0  0
  -26.9740  -12.8640   19.5800 N   0  0  0  0  0  0  0  0  0  0  0  0
  -26.2800  -11.5510   19.5610 N   0  0  0  0  0  2  0  0  0  0  0  0
  -24.5120  -10.1590   20.6300 C   0  0  0  0  0  0  0  0  0  0  0  0
  -24.8550   -9.2240   21.6800 C   0  0  0  0  0  3  0  0  0  0  0  0
  -24.0070   -8.1520   22.1050 C   0  0  0  0  0  3  0  0  0  0  0  0
  -22.7650   -7.9230   21.4670 C   0  0  0  0  0  0  0  0  0  0  0  0
  -22.4330   -8.7730   20.4030 C   0  0  0  0  0  3  0  0  0  0  0  0
  -23.3060   -9.7920   19.9620 C   0  0  0  0  0  3  0  0  0  0  0  0
  -21.8920   -6.8750   21.6960 O   0  0  0  0  0  0  0  0  0  0  0  0
  -21.8470   -6.1510   22.8640 C   0  0  0  0  0  0  0  0  0  0  0  0
  -21.4750   -6.7520   24.0840 C   0  0  0  0  0  3  0  0  0  0  0  0
  -21.3360   -5.9680   25.2470 C   0  0  0  0  0  3  0  0  0  0  0  0
  -21.5600   -4.5790   25.1950 C   0  0  0  0  0  0  0  0  0  0  0  0
  -21.9180   -3.9710   23.9790 C   0  0  0  0  0  3  0  0  0  0  0  0
  -22.0550   -4.7530   22.8170 C   0  0  0  0  0  0  0  0  0  0  0  0
  -22.3670   -4.1490   21.6440 F   0  0  0  0  0  0  0  0  0  0  0  0
  -21.4290   -3.8270   26.3140 F   0  0  0  0  0  0  0  0  0  0  0  0
  -24.0960  -14.5080   21.9970 C   0  0  0  0  0  0  0  0  0  0  0  0
  -23.6350  -14.1980   23.2090 N   0  0  0  0  0  0  0  0  0  0  0  0
  -23.2110  -15.1780   21.5050 O   0  0  0  0  0  0  0  0  0  0  0  0
  -24.0910  -13.5170   23.7950 H   0  0  0  0  0  0  0  0  0  0  0  0
  -22.8380  -14.7040   23.5680 H   0  0  0  0  0  0  0  0  0  0  0  0
  -26.9630  -15.3040   20.4740 N   0  0  0  0  0  4  0  0  0  0  0  0
  -26.6040  -16.0920   20.9970 H   0  0  0  0  0  0  0  0  0  0  0  0
  -27.7770  -15.5450   19.9230 H   0  0  0  0  0  0  0  0  0  0  0  0
  -26.0270  -20.0930   19.2520 C   0  0  0  0  0  0  0  0  0  0  0  0
  -25.0460  -18.8860   19.1090 N   0  0  0  0  0  0  0  0  0  0  0  0
  -27.1710  -19.7050   19.4890 O   0  0  0  0  0  0  0  0  0  0  0  0
  -24.1130  -19.2710   19.0240 H   0  0  0  0  0  0  0  0  0  0  0  0
  -26.0160  -21.9650   19.0750 C   0  0  0  0  0  2  0  0  0  0  0  0
  -26.8220  -23.5880   19.8070 C   0  0  0  0  0  2  0  0  0  0  0  0
  -27.4780  -25.2340   19.5780 O   0  0  0  0  0  0  0  0  0  0  0  0
  -24.7460  -31.6450   23.0080 C   0  0  0  0  0  0  0  0  0  0  0  0
  -26.8500  -26.6080   19.7070 C   0  0  0  0  0  0  0  0  0  0  0  0
  -23.5170  -30.3110   21.3780 C   0  0  0  0  0  3  0  0  0  0  0  0
  -24.8590  -28.7690   19.8210 C   0  0  0  0  0  0  0  0  0  0  0  0
  -26.0970  -30.4140   21.1910 C   0  0  0  0  0  2  0  0  0  0  0  0
  -26.0820  -29.0180   20.4540 C   0  0  0  0  0  0  0  0  0  0  0  0
  -27.1090  -27.9450   20.3720 C   0  0  0  0  0  3  0  0  0  0  0  0
  -25.6650  -26.6100   19.0010 C   0  0  0  0  0  3  0  0  0  0  0  0
  -24.6950  -27.6090   19.0680 C   0  0  0  0  0  3  0  0  0  0  0  0
  -23.6980  -29.7380   19.9570 C   0  0  0  0  0  2  0  0  0  0  0  0
  -24.8180  -30.8230   21.9080 N   0  0  0  0  0  0  0  0  0  0  0  0
  -23.6610  -31.9160   23.5540 O   0  0  0  0  0  0  0  0  0  0  0  0
  -22.8650  -29.2510   22.3080 C   0  0  0  0  0  0  0  0  0  0  0  0
  -21.5340  -29.0720   22.2150 N   0  0  0  0  0  0  0  0  0  0  0  0
  -23.5610  -28.6040   23.0950 O   0  0  0  0  0  0  0  0  0  0  0  0
  -21.0230  -29.6470   21.5610 H   0  0  0  0  0  0  0  0  0  0  0  0
  -18.1860  -27.7880   22.7690 C   0  0  0  0  0  0  0  0  0  0  0  0
  -20.7460  -28.0990   22.9790 C   0  0  0  0  0  3  0  0  0  0  0  0
  -20.8610  -26.6840   22.3650 C   0  0  0  0  0  2  0  0  0  0  0  0
  -19.7420  -26.3660   21.3690 C   0  0  0  0  0  2  0  0  0  0  0  0
  -18.3730  -26.4630   22.0490 C   0  0  0  0  0  2  0  0  0  0  0  0
  -19.3000  -28.5630   23.1920 C   0  0  0  0  0  0  0  0  0  0  0  0
  -19.0670  -29.8000   23.8310 C   0  0  0  0  0  3  0  0  0  0  0  0
  -17.7560  -30.2650   24.0480 C   0  0  0  0  0  3  0  0  0  0  0  0
  -16.6580  -29.4880   23.6380 C   0  0  0  0  0  3  0  0  0  0  0  0
  -16.8750  -28.2510   23.0040 C   0  0  0  0  0  3  0  0  0  0  0  0
  -26.0130  -32.2980   23.6280 C   0  0  0  0  0  3  0  0  0  0  0  0
  -26.6000  -31.4730   24.8390 C   0  0  1  0  0  0  0  0  0  0  0  0
  -25.5550  -31.1330   25.9280 C   0  0  0  0  0  1  0  0  0  0  0  0
  -27.2180  -30.1430   24.3570 C   0  0  0  0  0  1  0  0  0  0  0  0
  -27.7460  -32.2690   25.5060 C   0  0  0  0  0  1  0  0  0  0  0  0
  -25.6470  -33.6550   24.0820 N   0  0  0  0  0  0  0  0  0  0  0  0
  -25.9100  -34.7910   23.4210 C   0  0  0  0  0  0  0  0  0  0  0  0
  -26.5500  -34.8110   22.3670 O   0  0  0  0  0  0  0  0  0  0  0  0
  -25.0700  -33.7090   24.9080 H   0  0  0  0  0  0  0  0  0  0  0  0
  -24.1030  -36.5450   23.2930 C   0  0  0  0  0  1  0  0  0  0  0  0
  -25.3860  -36.1130   24.0230 C   0  0  0  0  0  3  0  0  0  0  0  0
  -27.5110  -37.0100   24.8690 C   0  0  0  0  0  1  0  0  0  0  0  0
  -26.3730  -37.2160   23.9780 N   0  0  0  0  0  0  0  0  0  0  0  0
  -25.9360  -38.1010   24.2210 H   0  0  0  0  0  0  0  0  0  0  0  0
  1 50  1  0
  2  9  2  0
  4  5  1  0
  6  5  1  0
  6 22  1  0
  7  1  1  0
  7  6  1  0
  7  4  1  0
  9 10  1  0
 11 19  1  0
 12 17  1  0
 13 14  1  0
 13 12  1  0
 14 15  1  0
 15 24  1  0
 15 16  1  0
 16 17  1  0
 17 11  1  0
 18 11  2  0
 19  8  1  0
 19 20  1  0
 22 21  1  0
 22 41  1  0
 23 26  1  0
 24 21  1  0
 25 24  1  0
 25 23  1  0
 26 27  1  0
 27 28  2  0
 29 32  1  0
 29 28  1  0
 30 29  2  0
 31 30  1  0
 31 26  2  0
 32 33  1  0
 33 34  1  0
 34 35  2  0
 36 35  1  0
 36 40  1  0
 37 36  2  0
 38 33  2  0
 38 37  1  0
 39 38  1  0
 41 42  1  0
 42 45  1  0
 42 44  1  0
 43 41  2  0
 46 21  2  0
 46 47  1  0
 48 46  1  0
 49 51  2  0
 50 49  1  0
 52 50  1  0
 53 49  1  0
 53 54  1  0
 55 57  1  0
 55 54  1  0
 56 67  2  0
 57 62  1  0
 58 66  1  0
 58 68  1  0
 59 65  1  0
 59 61  1  0
 60 66  1  0
 61 60  1  0
 62 61  2  0
 63 64  1  0
 63 57  2  0
 64 59  2  0
 65 58  1  0
 66 56  1  0
 68 70  2  0
 69 68  1  0
 71 69  1  0
 72 81  2  0
 72 77  1  0
 73 69  1  0
 73 77  1  0
 74 73  1  0
 75 76  1  0
 75 74  1  0
 76 72  1  0
 77 78  2  0
 78 79  1  0
 80 79  2  0
 81 80  1  0
 82 56  1  0
 82 87  1  0
 82 83  1  0
 83 86  1  1
 83 84  1  0
 85 83  1  0
 87 90  1  0
 88 92  1  0
 88 87  1  0
 89 88  2  0
 92 91  1  0
 94 92  1  0
 94 95  1  0
 94 93  1  0
M  ISO  4  11 100  19 100  54 101  55 101
M  END
>  <TORSDO>  (40) 
F 20

>  <SCORE>  (40) 
0.052

>  <name>  (40) 
40

>  <ligand_id>  (40) 
40

>  <original_smiles>  (40) 
[H]N=C1C([H])([H])C([H])(N([H])C(=O)N2C([H])([H])C([H])([H])C([H])([H])C([H])(n3nc(-c4c([H])c([H])c(Oc5c([H])c([H])c(F)c([H])c5F)c([H])c4[H])c(C(=O)N([H])[H])c3N([H])[H])C2([H])[H])C2([H])C1([H])C([H])([H])C2([H])C([H])([H])N([H])C(=O)C([H])([H])C([H])([H])Oc1c([H])c([H])c2c(c1[H])C([H])([H])N(C(=O)C([H])(N([H])C(=O)C([H])(N([H])C([H])([H])[H])C([H])([H])[H])C(C([H])([H])[H])(C([H])([H])[H])C([H])([H])[H])C([H])(C(=O)N([H])C1([H])c3c([H])c([H])c([H])c([H])c3C([H])([H])C([H])([H])C1([H])[H])C2([H])[H]

>  <smiles>  (40) 
[H]N=C1C([H])([H])C([H])(N([H])C(=O)N2C([H])([H])C([H])([H])C([H])([H])C([H])(n3nc(-c4c([H])c([H])c(Oc5c([H])c([H])c(F)c([H])c5F)c([H])c4[H])c(C(=O)N([H])[H])c3N([H])[H])C2([H])[H])C2([H])C1([H])C([H])([H])C2([H])C([H])([H])N([H])C(=O)C([H])([H])C([H])([H])Oc1c([H])c([H])c2c(c1[H])C([H])([H])N(C(=O)C([H])(N([H])C(=O)C([H])(N([H])C([H])([H])[H])C([H])([H])[H])C(C([H])([H])[H])(C([H])([H])[H])C([H])([H])[H])C([H])(C(=O)N([H])C1([H])c3c([H])c([H])c([H])c([H])c3C([H])([H])C([H])([H])C1([H])[H])C2([H])[H]

$$$$
41:0:0
     RDKit          3D

 92101  0  0  1  0  0  0  0  0999 V2000
  -28.2260  -18.7000   21.0150 C   0  0  0  0  0  2  0  0  0  0  0  0
  -29.4490  -19.4020   21.6690 C   0  0  0  0  0  2  0  0  0  0  0  0
  -28.3030  -20.4040   19.0880 C   0  0  0  0  0  2  0  0  0  0  0  0
  -30.0300  -18.7430   19.4380 C   0  0  0  0  0  3  0  0  0  0  0  0
  -28.5040  -18.8850   19.4960 C   0  0  0  0  0  3  0  0  0  0  0  0
  -30.1650  -19.9870   20.4350 C   0  0  0  0  0  3  0  0  0  0  0  0
  -29.2190  -21.1120   20.0130 N   0  0  1  0  0  4  0  0  0  0  0  0
  -28.6280  -21.1460   20.8350 H   0  0  0  0  0  0  0  0  0  0  0  0
  -30.9980  -14.8680   19.5670 C   0  0  0  0  0  0  0  0  0  0  0  0
  -30.6800  -12.5440   18.6970 C   0  0  0  0  0  2  0  0  0  0  0  0
  -29.6240  -12.5210   17.5770 C   0  0  0  0  0  2  0  0  0  0  0  0
  -28.2220  -12.3400   18.1830 C   0  0  0  0  0  2  0  0  0  0  0  0
  -27.9470  -13.3160   19.3560 C   0  0  0  0  0  3  0  0  0  0  0  0
  -29.1180  -13.3500   20.3650 C   0  0  0  0  0  2  0  0  0  0  0  0
  -30.3300  -13.6640   19.5980 N   0  0  0  0  0  0  0  0  0  0  0  0
  -32.1770  -14.8690   19.2080 O   0  0  0  0  0  0  0  0  0  0  0  0
  -30.7820  -17.3520   19.8090 C   0  0  0  0  0  0  0  0  0  0  0  0
  -30.2790  -16.0630   19.6660 N   0  0  0  0  0  0  0  0  0  0  0  0
  -31.9220  -17.5080   20.2470 O   0  0  0  0  0  0  0  0  0  0  0  0
  -29.2830  -15.9760   19.5670 H   0  0  0  0  0  0  0  0  0  0  0  0
  -25.7000  -13.9300   20.4380 C   0  0  0  0  0  0  0  0  0  0  0  0
  -24.6590  -13.1680   20.8920 C   0  0  0  0  0  0  0  0  0  0  0  0
  -25.0570  -11.8090   20.7130 C   0  0  0  0  0  0  0  0  0  0  0  0
  -26.6660  -13.0400   20.0040 N   0  0  0  0  0  0  0  0  0  0  0  0
  -26.2950  -11.7530   20.2350 N   0  0  0  0  0  0  0  0  0  0  0  0
  -24.3060  -10.5590   20.8990 C   0  0  0  0  0  0  0  0  0  0  0  0
  -24.7160   -9.5820   21.8310 C   0  0  0  0  0  3  0  0  0  0  0  0
  -23.9660   -8.4010   22.0070 C   0  0  0  0  0  3  0  0  0  0  0  0
  -22.7890   -8.1880   21.2510 C   0  0  0  0  0  0  0  0  0  0  0  0
  -22.3970   -9.1540   20.3080 C   0  0  0  0  0  3  0  0  0  0  0  0
  -23.1490  -10.3270   20.1290 C   0  0  0  0  0  3  0  0  0  0  0  0
  -22.0120   -7.0590   21.3360 O   0  0  0  0  0  0  0  0  0  0  0  0
  -21.8360   -6.3920   22.5250 C   0  0  0  0  0  0  0  0  0  0  0  0
  -21.2360   -7.0110   23.6420 C   0  0  0  0  0  3  0  0  0  0  0  0
  -21.0150   -6.2700   24.8200 C   0  0  0  0  0  3  0  0  0  0  0  0
  -21.3810   -4.9110   24.8810 C   0  0  0  0  0  0  0  0  0  0  0  0
  -21.9720   -4.2930   23.7640 C   0  0  0  0  0  3  0  0  0  0  0  0
  -22.1960   -5.0320   22.5890 C   0  0  0  0  0  0  0  0  0  0  0  0
  -22.7470   -4.4260   21.5100 F   0  0  0  0  0  0  0  0  0  0  0  0
  -21.1640   -4.1970   26.0080 F   0  0  0  0  0  0  0  0  0  0  0  0
  -23.3250  -13.6690   21.3700 C   0  0  0  0  0  0  0  0  0  0  0  0
  -22.6770  -12.9330   22.2640 N   0  0  0  0  0  0  0  0  0  0  0  0
  -22.8780  -14.7530   20.9940 O   0  0  0  0  0  0  0  0  0  0  0  0
  -23.0570  -12.0550   22.5870 H   0  0  0  0  0  0  0  0  0  0  0  0
  -21.7960  -13.2560   22.6360 H   0  0  0  0  0  0  0  0  0  0  0  0
  -25.8990  -15.3050   20.3300 N   0  0  0  0  0  0  0  0  0  0  0  0
  -25.1550  -15.9620   20.5350 H   0  0  0  0  0  0  0  0  0  0  0  0
  -26.6720  -15.7170   19.8260 H   0  0  0  0  0  0  0  0  0  0  0  0
  -29.6160  -22.6100   19.9250 C   0  0  0  0  0  2  0  0  0  0  0  0
  -28.5750  -23.7490   19.3560 C   0  0  0  0  0  2  0  0  0  0  0  0
  -28.5600  -25.1900   20.1060 C   0  0  0  0  0  2  0  0  0  0  0  0
  -28.5020  -26.5400   19.4570 O   0  0  0  0  0  0  0  0  0  0  0  0
  -24.7130  -31.5980   23.0710 C   0  0  0  0  0  0  0  0  0  0  0  0
  -27.3680  -27.3590   19.5920 C   0  0  0  0  0  0  0  0  0  0  0  0
  -23.5170  -30.3370   21.3130 C   0  0  0  0  0  3  0  0  0  0  0  0
  -24.9800  -28.9340   19.7440 C   0  0  0  0  0  0  0  0  0  0  0  0
  -26.0470  -30.7060   21.1420 C   0  0  0  0  0  2  0  0  0  0  0  0
  -26.1450  -29.3870   20.3770 C   0  0  0  0  0  0  0  0  0  0  0  0
  -27.3480  -28.6150   20.2860 C   0  0  0  0  0  3  0  0  0  0  0  0
  -26.1770  -26.9560   18.9520 C   0  0  0  0  0  3  0  0  0  0  0  0
  -25.0000  -27.7280   19.0240 C   0  0  0  0  0  3  0  0  0  0  0  0
  -23.7310  -29.7850   19.8770 C   0  0  0  0  0  2  0  0  0  0  0  0
  -24.7780  -30.8940   21.9010 N   0  0  0  0  0  0  0  0  0  0  0  0
  -23.6300  -31.8080   23.6360 O   0  0  0  0  0  0  0  0  0  0  0  0
  -22.8730  -29.2270   22.1810 C   0  0  0  0  0  0  0  0  0  0  0  0
  -21.5430  -29.0690   22.0810 N   0  0  0  0  0  0  0  0  0  0  0  0
  -23.5680  -28.5140   22.9050 O   0  0  0  0  0  0  0  0  0  0  0  0
  -21.0390  -29.7080   21.4830 H   0  0  0  0  0  0  0  0  0  0  0  0
  -18.1730  -27.8470   22.5760 C   0  0  0  0  0  0  0  0  0  0  0  0
  -20.7430  -28.0540   22.7720 C   0  0  0  0  0  3  0  0  0  0  0  0
  -20.8070  -26.6980   22.0290 C   0  0  0  0  0  2  0  0  0  0  0  0
  -19.6630  -26.4980   21.0300 C   0  0  0  0  0  2  0  0  0  0  0  0
  -18.3090  -26.5830   21.7410 C   0  0  0  0  0  2  0  0  0  0  0  0
  -19.3170  -28.5450   23.0440 C   0  0  0  0  0  0  0  0  0  0  0  0
  -19.1400  -29.7340   23.7860 C   0  0  0  0  0  3  0  0  0  0  0  0
  -17.8480  -30.2220   24.0620 C   0  0  0  0  0  3  0  0  0  0  0  0
  -16.7210  -29.5160   23.6060 C   0  0  0  0  0  3  0  0  0  0  0  0
  -16.8840  -28.3320   22.8720 C   0  0  0  0  0  3  0  0  0  0  0  0
  -25.9910  -32.1900   23.7410 C   0  0  0  0  0  3  0  0  0  0  0  0
  -26.5210  -31.3200   24.9440 C   0  0  1  0  0  0  0  0  0  0  0  0
  -25.4360  -30.9960   25.9970 C   0  0  0  0  0  1  0  0  0  0  0  0
  -27.1060  -29.9810   24.4370 C   0  0  0  0  0  1  0  0  0  0  0  0
  -27.6780  -32.0580   25.6570 C   0  0  0  0  0  1  0  0  0  0  0  0
  -25.6640  -33.5510   24.1910 N   0  0  0  0  0  0  0  0  0  0  0  0
  -25.9920  -34.6690   23.5320 C   0  0  0  0  0  0  0  0  0  0  0  0
  -26.6640  -34.6650   22.4950 O   0  0  0  0  0  0  0  0  0  0  0  0
  -25.0730  -33.6290   25.0080 H   0  0  0  0  0  0  0  0  0  0  0  0
  -24.2470  -36.4720   23.3320 C   0  0  0  0  0  1  0  0  0  0  0  0
  -25.4900  -36.0070   24.1090 C   0  0  0  0  0  3  0  0  0  0  0  0
  -27.6050  -36.8400   25.0360 C   0  0  0  0  0  1  0  0  0  0  0  0
  -26.5130  -37.0750   24.0970 N   0  0  0  0  0  0  0  0  0  0  0  0
  -26.0950  -37.9760   24.3160 H   0  0  0  0  0  0  0  0  0  0  0  0
  1  2  1  0
  3  7  1  0
  4  5  1  0
  4 17  1  0
  4  6  1  0
  5  3  1  0
  5  1  1  0
  6  2  1  0
  7  6  1  0
  7  8  1  1
  9 15  1  0
  9 18  1  0
 10 15  1  0
 11 12  1  0
 11 10  1  0
 13 12  1  0
 13 24  1  0
 13 14  1  0
 15 14  1  0
 16  9  2  0
 17 19  2  0
 18 17  1  0
 20 18  1  0
 21 22  2  0
 22 41  1  0
 23 22  1  0
 23 26  1  0
 24 25  1  0
 24 21  1  0
 25 23  2  0
 26 27  1  0
 27 28  2  0
 29 32  1  0
 29 28  1  0
 30 29  2  0
 31 30  1  0
 31 26  2  0
 32 33  1  0
 33 38  2  0
 33 34  1  0
 34 35  2  0
 35 36  1  0
 36 40  1  0
 37 36  2  0
 38 37  1  0
 39 38  1  0
 41 42  1  0
 42 44  1  0
 42 45  1  0
 43 41  2  0
 46 21  1  0
 46 47  1  0
 48 46  1  0
 49  7  1  0
 50 49  1  0
 50 51  1  0
 52 54  1  0
 52 51  1  0
 53 64  2  0
 54 59  1  0
 55 63  1  0
 55 65  1  0
 56 62  1  0
 56 58  1  0
 57 63  1  0
 58 57  1  0
 59 58  2  0
 60 61  1  0
 60 54  2  0
 61 56  2  0
 62 55  1  0
 63 53  1  0
 65 67  2  0
 66 65  1  0
 68 66  1  0
 69 78  2  0
 69 74  1  0
 70 66  1  0
 70 74  1  0
 71 70  1  0
 72 73  1  0
 72 71  1  0
 73 69  1  0
 74 75  2  0
 75 76  1  0
 77 76  2  0
 78 77  1  0
 79 53  1  0
 79 84  1  0
 79 80  1  0
 80 83  1  1
 80 81  1  0
 82 80  1  0
 84 87  1  0
 85 89  1  0
 85 84  1  0
 86 85  2  0
 89 88  1  0
 91 89  1  0
 91 92  1  0
 91 90  1  0
M  ISO  4   9 100  18 100  51 101  52 101
M  END
>  <TORSDO>  (41) 
F 19

>  <SCORE>  (41) 
-11.743

>  <name>  (41) 
41

>  <ligand_id>  (41) 
41

>  <original_smiles>  (41) 
[H]c1c([H])c([H])c2c(c1[H])C([H])([H])C([H])([H])C([H])([H])C2([H])N([H])C(=O)C1([H])N(C(=O)C([H])(N([H])C(=O)C([H])(N([H])C([H])([H])[H])C([H])([H])[H])C(C([H])([H])[H])(C([H])([H])[H])C([H])([H])[H])C([H])([H])c2c([H])c(OC([H])([H])C([H])([H])C([H])([H])[N+]3([H])C([H])([H])C4([H])C([H])([H])C([H])([H])C3([H])C4([H])C(=O)N([H])C(=O)N3C([H])([H])C([H])([H])C([H])([H])C([H])(n4nc(-c5c([H])c([H])c(Oc6c([H])c([H])c(F)c([H])c6F)c([H])c5[H])c(C(=O)N([H])[H])c4N([H])[H])C3([H])[H])c([H])c([H])c2C1([H])[H]

>  <smiles>  (41) 
[H]c1c([H])c([H])c2c(c1[H])C([H])([H])C([H])([H])C([H])([H])C2([H])N([H])C(=O)C1([H])N(C(=O)C([H])(N([H])C(=O)C([H])(N([H])C([H])([H])[H])C([H])([H])[H])C(C([H])([H])[H])(C([H])([H])[H])C([H])([H])[H])C([H])([H])c2c([H])c(OC([H])([H])C([H])([H])C([H])([H])[N+]3([H])C([H])([H])C4([H])C([H])([H])C([H])([H])C3([H])C4([H])C(=O)N([H])C(=O)N3C([H])([H])C([H])([H])C([H])([H])C([H])(n4nc(-c5c([H])c([H])c(Oc6c([H])c([H])c(F)c([H])c6F)c([H])c5[H])c(C(=O)N([H])[H])c4N([H])[H])C3([H])[H])c([H])c([H])c2C1([H])[H]

$$$$
42:0:0
     RDKit          3D

 97106  0  0  1  0  0  0  0  0999 V2000
  -27.5470  -21.6830   20.7510 C   0  0  0  0  0  3  0  0  0  0  0  0
  -27.7020  -20.2310   20.1980 C   0  0  0  0  0  2  0  0  0  0  0  0
  -31.4140  -15.1700   20.4770 C   0  0  0  0  0  0  0  0  0  0  0  0
  -31.2370  -12.8470   19.6750 C   0  0  0  0  0  2  0  0  0  0  0  0
  -30.3740  -12.8430   18.3940 C   0  0  0  0  0  2  0  0  0  0  0  0
  -28.8730  -12.7510   18.7350 C   0  0  0  0  0  2  0  0  0  0  0  0
  -28.4410  -13.7660   19.8260 C   0  0  0  0  0  3  0  0  0  0  0  0
  -29.4210  -13.7230   21.0220 C   0  0  0  0  0  2  0  0  0  0  0  0
  -30.7770  -13.9680   20.5090 N   0  0  0  0  0  0  0  0  0  0  0  0
  -32.6090  -15.2750   20.1750 O   0  0  0  0  0  0  0  0  0  0  0  0
  -30.1250  -19.4700   19.4030 C   0  0  0  0  0  2  0  0  0  0  0  0
  -30.5960  -16.8890   18.9260 C   0  0  0  0  0  2  0  0  0  0  0  0
  -29.9640  -17.0810   21.2510 C   0  0  0  0  0  2  0  0  0  0  0  0
  -29.6290  -18.0550   19.0570 C   0  0  0  0  0  3  0  0  0  0  0  0
  -29.0400  -17.9930   20.4460 C   0  0  0  0  0  3  0  0  0  0  0  0
  -29.0480  -19.5360   20.4940 C   0  0  0  0  0  3  0  0  0  0  0  0
  -30.5810  -16.2100   20.2350 N   0  0  0  0  0  0  0  0  0  0  0  0
  -26.0430  -14.4850   20.4230 C   0  0  0  0  0  0  0  0  0  0  0  0
  -24.9250  -13.7570   20.7390 C   0  0  0  0  0  0  0  0  0  0  0  0
  -25.3260  -12.3890   20.7190 C   0  0  0  0  0  0  0  0  0  0  0  0
  -27.0580  -13.5570   20.2410 N   0  0  0  0  0  0  0  0  0  0  0  0
  -26.6260  -12.2910   20.4730 N   0  0  0  0  0  0  0  0  0  0  0  0
  -24.5360  -11.1600   20.8630 C   0  0  0  0  0  0  0  0  0  0  0  0
  -24.8420  -10.2040   21.8560 C   0  0  0  0  0  3  0  0  0  0  0  0
  -24.0620   -9.0360   21.9870 C   0  0  0  0  0  3  0  0  0  0  0  0
  -22.9600   -8.8170   21.1240 C   0  0  0  0  0  0  0  0  0  0  0  0
  -22.6760   -9.7640   20.1230 C   0  0  0  0  0  3  0  0  0  0  0  0
  -23.4570  -10.9240   19.9910 C   0  0  0  0  0  3  0  0  0  0  0  0
  -22.1570   -7.7020   21.1600 O   0  0  0  0  0  0  0  0  0  0  0  0
  -21.8790   -7.0530   22.3360 C   0  0  0  0  0  0  0  0  0  0  0  0
  -21.2460   -7.7080   23.4160 C   0  0  0  0  0  3  0  0  0  0  0  0
  -20.9150   -6.9850   24.5800 C   0  0  0  0  0  3  0  0  0  0  0  0
  -21.2070   -5.6100   24.6640 C   0  0  0  0  0  0  0  0  0  0  0  0
  -21.8340   -4.9580   23.5890 C   0  0  0  0  0  3  0  0  0  0  0  0
  -22.1660   -5.6760   22.4280 C   0  0  0  0  0  0  0  0  0  0  0  0
  -22.7480   -5.0380   21.3840 F   0  0  0  0  0  0  0  0  0  0  0  0
  -20.8840   -4.9140   25.7800 F   0  0  0  0  0  0  0  0  0  0  0  0
  -23.5400  -14.2940   20.9570 C   0  0  0  0  0  0  0  0  0  0  0  0
  -22.7550  -13.6360   21.8040 N   0  0  0  0  0  0  0  0  0  0  0  0
  -23.1620  -15.3280   20.4100 O   0  0  0  0  0  0  0  0  0  0  0  0
  -23.0740  -12.7980   22.2690 H   0  0  0  0  0  0  0  0  0  0  0  0
  -21.8220  -13.9760   21.9920 H   0  0  0  0  0  0  0  0  0  0  0  0
  -26.2720  -15.8450   20.2530 N   0  0  0  0  0  0  0  0  0  0  0  0
  -25.5350  -16.5360   20.3180 H   0  0  0  0  0  0  0  0  0  0  0  0
  -27.1620  -16.2400   19.9740 H   0  0  0  0  0  0  0  0  0  0  0  0
  -26.0370  -21.9320   21.0530 C   0  0  0  0  0  2  0  0  0  0  0  0
  -25.6620  -23.3360   21.3160 N   0  0  0  0  0  4  0  0  0  0  0  0
  -26.1670  -23.7150   22.0980 H   0  0  0  0  0  0  0  0  0  0  0  0
  -24.6870  -23.3650   21.5620 H   0  0  0  0  0  0  0  0  0  0  0  0
  -25.7790  -23.9310   20.5170 H   0  0  0  0  0  0  0  0  0  0  0  0
  -28.1530  -22.7480   19.7780 C   0  0  0  0  0  2  0  0  0  0  0  0
  -29.1090  -23.6740   20.4430 N   0  0  0  0  0  4  0  0  0  0  0  0
  -29.3660  -23.2930   21.3410 H   0  0  0  0  0  0  0  0  0  0  0  0
  -29.9570  -23.6780   19.8970 H   0  0  0  0  0  0  0  0  0  0  0  0
  -28.6760  -25.0840   20.6470 C   0  0  0  0  0  2  0  0  0  0  0  0
  -29.4490  -26.0770   19.7420 C   0  0  0  0  0  2  0  0  0  0  0  0
  -29.2690  -27.4440   20.1360 O   0  0  0  0  0  0  0  0  0  0  0  0
  -24.7880  -31.8840   23.3940 C   0  0  0  0  0  0  0  0  0  0  0  0
  -28.0110  -28.0090   20.1080 C   0  0  0  0  0  0  0  0  0  0  0  0
  -23.8060  -30.5040   21.5960 C   0  0  0  0  0  3  0  0  0  0  0  0
  -25.4680  -29.2510   20.1280 C   0  0  0  0  0  0  0  0  0  0  0  0
  -26.2860  -31.1390   21.5460 C   0  0  0  0  0  2  0  0  0  0  0  0
  -26.5400  -29.8430   20.8060 C   0  0  0  0  0  0  0  0  0  0  0  0
  -27.8140  -29.2310   20.7900 C   0  0  0  0  0  3  0  0  0  0  0  0
  -26.9160  -27.4270   19.4250 C   0  0  0  0  0  3  0  0  0  0  0  0
  -25.6520  -28.0430   19.4360 C   0  0  0  0  0  3  0  0  0  0  0  0
  -24.1400  -29.9700   20.1780 C   0  0  0  0  0  2  0  0  0  0  0  0
  -24.9740  -31.1880   22.2390 N   0  0  0  0  0  0  0  0  0  0  0  0
  -23.6630  -31.9930   23.9000 O   0  0  0  0  0  0  0  0  0  0  0  0
  -23.2330  -29.3410   22.4390 C   0  0  0  0  0  0  0  0  0  0  0  0
  -21.9470  -29.0220   22.2240 N   0  0  0  0  0  0  0  0  0  0  0  0
  -23.9460  -28.7310   23.2410 O   0  0  0  0  0  0  0  0  0  0  0  0
  -21.4280  -29.5740   21.5530 H   0  0  0  0  0  0  0  0  0  0  0  0
  -18.7160  -27.4250   22.4460 C   0  0  0  0  0  0  0  0  0  0  0  0
  -21.2090  -27.9390   22.8780 C   0  0  0  0  0  3  0  0  0  0  0  0
  -21.5050  -26.5790   22.2050 C   0  0  0  0  0  2  0  0  0  0  0  0
  -20.4960  -26.2200   21.1120 C   0  0  0  0  0  2  0  0  0  0  0  0
  -19.0760  -26.1650   21.6800 C   0  0  0  0  0  2  0  0  0  0  0  0
  -19.7190  -28.2670   22.9930 C   0  0  0  0  0  0  0  0  0  0  0  0
  -19.3290  -29.4490   23.6600 C   0  0  0  0  0  3  0  0  0  0  0  0
  -17.9700  -29.7920   23.7830 C   0  0  0  0  0  3  0  0  0  0  0  0
  -16.9810  -28.9450   23.2500 C   0  0  0  0  0  3  0  0  0  0  0  0
  -17.3540  -27.7610   22.5890 C   0  0  0  0  0  3  0  0  0  0  0  0
  -25.9700  -32.5930   24.1230 C   0  0  0  0  0  3  0  0  0  0  0  0
  -25.5650  -33.9840   24.3700 N   0  0  0  0  0  0  0  0  0  0  0  0
  -25.9220  -35.0270   23.6090 C   0  0  0  0  0  0  0  0  0  0  0  0
  -26.6980  -34.9240   22.6550 O   0  0  0  0  0  0  0  0  0  0  0  0
  -24.8830  -34.1330   25.0990 H   0  0  0  0  0  0  0  0  0  0  0  0
  -24.1570  -36.7180   23.0180 C   0  0  0  0  0  1  0  0  0  0  0  0
  -25.3260  -36.4030   23.9650 C   0  0  0  0  0  3  0  0  0  0  0  0
  -27.3180  -37.4220   24.9740 C   0  0  0  0  0  1  0  0  0  0  0  0
  -26.3130  -37.5030   23.9180 N   0  0  0  0  0  0  0  0  0  0  0  0
  -25.8510  -38.4060   23.9860 H   0  0  0  0  0  0  0  0  0  0  0  0
  -26.3870  -31.8850   25.4700 C   0  0  1  0  0  0  0  0  0  0  0  0
  -25.2000  -31.6070   26.4210 C   0  0  0  0  0  1  0  0  0  0  0  0
  -27.0870  -30.5370   25.1810 C   0  0  0  0  0  1  0  0  0  0  0  0
  -27.4120  -32.7620   26.2260 C   0  0  0  0  0  1  0  0  0  0  0  0
  1 51  1  0
  1 46  1  0
  2  1  1  0
  3  9  1  0
  4  9  1  0
  5  6  1  0
  5  4  1  0
  7  6  1  0
  7 21  1  0
  7  8  1  0
  9  8  1  0
 10  3  2  0
 11 16  1  0
 12 17  1  0
 14 12  1  0
 14 11  1  0
 14 15  1  0
 15 16  1  0
 15 13  1  0
 16  2  1  0
 17  3  1  0
 17 13  1  0
 18 19  2  0
 19 38  1  0
 20 19  1  0
 20 23  1  0
 21 18  1  0
 21 22  1  0
 22 20  2  0
 23 24  1  0
 24 25  2  0
 26 29  1  0
 26 25  1  0
 27 26  2  0
 28 27  1  0
 28 23  2  0
 29 30  1  0
 30 35  2  0
 30 31  1  0
 31 32  2  0
 32 33  1  0
 33 37  1  0
 34 33  2  0
 35 34  1  0
 36 35  1  0
 38 39  1  0
 39 42  1  0
 39 41  1  0
 40 38  2  0
 43 44  1  0
 43 18  1  0
 45 43  1  0
 46 47  1  0
 47 49  1  0
 47 48  1  0
 50 47  1  0
 51 52  1  0
 52 55  1  0
 52 53  1  0
 54 52  1  0
 56 57  1  0
 56 55  1  0
 58 69  2  0
 59 57  1  0
 59 64  1  0
 60 68  1  0
 60 70  1  0
 61 67  1  0
 61 63  1  0
 62 68  1  0
 63 62  1  0
 64 63  2  0
 65 66  1  0
 65 59  2  0
 66 61  2  0
 67 60  1  0
 68 58  1  0
 70 72  2  0
 71 70  1  0
 73 71  1  0
 74 83  2  0
 74 79  1  0
 75 71  1  0
 75 79  1  0
 76 75  1  0
 77 78  1  0
 77 76  1  0
 78 74  1  0
 79 80  2  0
 80 81  1  0
 82 81  2  0
 83 82  1  0
 84 58  1  0
 84 85  1  0
 84 94  1  0
 85 88  1  0
 86 90  1  0
 86 85  1  0
 87 86  2  0
 90 89  1  0
 92 90  1  0
 92 93  1  0
 92 91  1  0
 94 97  1  1
 94 95  1  0
 96 94  1  0
M  ISO  4   3 100  17 100  56 101  57 101
M  END
>  <TORSDO>  (42) 
F 23

>  <SCORE>  (42) 
-9.456

>  <name>  (42) 
42

>  <ligand_id>  (42) 
42

>  <original_smiles>  (42) 
[H]c1c([H])c([H])c2c(c1[H])C([H])([H])C([H])([H])C([H])([H])C2([H])N([H])C(=O)C1([H])N(C(=O)C([H])(N([H])C(=O)C([H])(N([H])C([H])([H])[H])C([H])([H])[H])C(C([H])([H])[H])(C([H])([H])[H])C([H])([H])[H])C([H])([H])c2c([H])c(OC([H])([H])C([H])([H])[N+]([H])([H])C([H])([H])C([H])(C([H])([H])C3([H])C([H])([H])C4([H])C([H])([H])N(C(=O)N5C([H])([H])C([H])([H])C([H])([H])C([H])(n6nc(-c7c([H])c([H])c(Oc8c([H])c([H])c(F)c([H])c8F)c([H])c7[H])c(C(=O)N([H])[H])c6N([H])[H])C5([H])[H])C([H])([H])C43[H])C([H])([H])[N+]([H])([H])[H])c([H])c([H])c2C1([H])[H]

>  <smiles>  (42) 
[H]c1c([H])c([H])c2c(c1[H])C([H])([H])C([H])([H])C([H])([H])C2([H])N([H])C(=O)C1([H])N(C(=O)C([H])(N([H])C(=O)C([H])(N([H])C([H])([H])[H])C([H])([H])[H])C(C([H])([H])[H])(C([H])([H])[H])C([H])([H])[H])C([H])([H])c2c([H])c(OC([H])([H])C([H])([H])[N+]([H])([H])C([H])([H])C([H])(C([H])([H])C3([H])C([H])([H])C4([H])C([H])([H])N(C(=O)N5C([H])([H])C([H])([H])C([H])([H])C([H])(n6nc(-c7c([H])c([H])c(Oc8c([H])c([H])c(F)c([H])c8F)c([H])c7[H])c(C(=O)N([H])[H])c6N([H])[H])C5([H])[H])C([H])([H])C43[H])C([H])([H])[N+]([H])([H])[H])c([H])c([H])c2C1([H])[H]

$$$$
43:0:0
     RDKit          3D

 90100  0  0  1  0  0  0  0  0999 V2000
  -29.3910  -20.8790   20.4830 C   0  0  0  0  0  2  0  0  0  0  0  0
  -30.2550  -17.9300   19.1490 C   0  0  0  0  0  2  0  0  0  0  0  0
  -27.7700  -17.9730   19.5170 C   0  0  0  0  0  2  0  0  0  0  0  0
  -29.9820  -17.3590   20.5440 C   0  0  0  0  0  3  0  0  0  0  0  0
  -28.9660  -18.7550   18.9410 C   0  0  2  0  0  0  0  0  0  0  0  0
  -28.6730  -18.2030   20.7460 C   0  0  2  0  0  0  0  0  0  0  0  0
  -28.6590  -19.5840   20.1180 N   0  0  1  0  0  4  0  0  0  0  0  0
  -27.6860  -19.8440   20.0680 H   0  0  0  0  0  0  0  0  0  0  0  0
  -30.5610  -14.7520   20.3470 C   0  0  0  0  0  0  0  0  0  0  0  0
  -30.3530  -12.4930   19.3060 C   0  0  0  0  0  2  0  0  0  0  0  0
  -29.3940  -12.5910   18.0980 C   0  0  0  0  0  2  0  0  0  0  0  0
  -27.9280  -12.4190   18.5470 C   0  0  0  0  0  2  0  0  0  0  0  0
  -27.5770  -13.2900   19.7830 C   0  0  0  0  0  3  0  0  0  0  0  0
  -28.6510  -13.1680   20.8860 C   0  0  0  0  0  2  0  0  0  0  0  0
  -29.9440  -13.5240   20.2850 N   0  0  0  0  0  0  0  0  0  0  0  0
  -31.7280  -14.8890   19.9720 O   0  0  0  0  0  0  0  0  0  0  0  0
  -29.7650  -15.8440   20.6350 N   0  0  0  0  0  0  0  0  0  0  0  0
  -28.8370  -15.5790   20.9280 H   0  0  0  0  0  0  0  0  0  0  0  0
  -25.2020  -13.8830   20.5560 C   0  0  0  0  0  0  0  0  0  0  0  0
  -24.1360  -13.1090   20.9280 C   0  0  0  0  0  0  0  0  0  0  0  0
  -24.5910  -11.7560   20.8640 C   0  0  0  0  0  0  0  0  0  0  0  0
  -26.2370  -13.0020   20.2870 N   0  0  0  0  0  0  0  0  0  0  0  0
  -25.8770  -11.7170   20.5330 N   0  0  0  0  0  0  0  0  0  0  0  0
  -23.8590  -10.4950   21.0400 C   0  0  0  0  0  0  0  0  0  0  0  0
  -24.2870   -9.5150   21.9640 C   0  0  0  0  0  3  0  0  0  0  0  0
  -23.5550   -8.3190   22.1290 C   0  0  0  0  0  3  0  0  0  0  0  0
  -22.3820   -8.0940   21.3700 C   0  0  0  0  0  0  0  0  0  0  0  0
  -21.9730   -9.0620   20.4370 C   0  0  0  0  0  3  0  0  0  0  0  0
  -22.7050  -10.2500   20.2700 C   0  0  0  0  0  3  0  0  0  0  0  0
  -21.6230   -6.9520   21.4460 O   0  0  0  0  0  0  0  0  0  0  0  0
  -21.5500   -6.2100   22.5980 C   0  0  0  0  0  0  0  0  0  0  0  0
  -21.0750   -6.7580   23.8090 C   0  0  0  0  0  3  0  0  0  0  0  0
  -20.9520   -5.9420   24.9510 C   0  0  0  0  0  3  0  0  0  0  0  0
  -21.2950   -4.5790   24.8830 C   0  0  0  0  0  0  0  0  0  0  0  0
  -21.7640   -4.0290   23.6770 C   0  0  0  0  0  3  0  0  0  0  0  0
  -21.8880   -4.8430   22.5360 C   0  0  0  0  0  0  0  0  0  0  0  0
  -22.3200   -4.3040   21.3710 F   0  0  0  0  0  0  0  0  0  0  0  0
  -21.1700   -3.7920   25.9770 F   0  0  0  0  0  0  0  0  0  0  0  0
  -22.7460  -13.5890   21.2290 C   0  0  0  0  0  0  0  0  0  0  0  0
  -22.0250  -12.8800   22.0890 N   0  0  0  0  0  0  0  0  0  0  0  0
  -22.3100  -14.6300   20.7380 O   0  0  0  0  0  0  0  0  0  0  0  0
  -22.3920  -12.0380   22.5080 H   0  0  0  0  0  0  0  0  0  0  0  0
  -21.0930  -13.1820   22.3310 H   0  0  0  0  0  0  0  0  0  0  0  0
  -25.3690  -15.2560   20.4010 N   0  0  0  0  0  0  0  0  0  0  0  0
  -24.5980  -15.9030   20.5220 H   0  0  0  0  0  0  0  0  0  0  0  0
  -26.1950  -15.6910   20.0150 H   0  0  0  0  0  0  0  0  0  0  0  0
  -28.5780  -22.2290   20.0730 C   0  0  0  0  0  2  0  0  0  0  0  0
  -29.0360  -23.7440   20.4300 C   0  0  0  0  0  3  0  0  0  0  0  0
  -28.0390  -24.9490   20.0150 C   0  0  0  0  0  3  0  0  0  0  0  0
  -28.2930  -26.4070   20.2800 O   0  0  0  0  0  0  0  0  0  0  0  0
  -24.6210  -31.9250   23.2480 C   0  0  0  0  0  0  0  0  0  0  0  0
  -27.2020  -27.3080   20.2070 C   0  0  0  0  0  0  0  0  0  0  0  0
  -23.4120  -30.5300   21.6120 C   0  0  0  0  0  3  0  0  0  0  0  0
  -24.8540  -28.9690   20.1870 C   0  0  0  0  0  0  0  0  0  0  0  0
  -25.9570  -30.8230   21.4340 C   0  0  0  0  0  2  0  0  0  0  0  0
  -26.0290  -29.4400   20.7870 C   0  0  0  0  0  0  0  0  0  0  0  0
  -27.2040  -28.6210   20.7870 C   0  0  0  0  0  3  0  0  0  0  0  0
  -26.0020  -26.9120   19.5690 C   0  0  0  0  0  3  0  0  0  0  0  0
  -24.8460  -27.7120   19.5670 C   0  0  0  0  0  3  0  0  0  0  0  0
  -23.6240  -29.8540   20.2330 C   0  0  0  0  0  2  0  0  0  0  0  0
  -24.6830  -31.1110   22.1530 N   0  0  0  0  0  0  0  0  0  0  0  0
  -23.5390  -32.2110   23.7790 O   0  0  0  0  0  0  0  0  0  0  0  0
  -22.7400  -29.5210   22.5740 C   0  0  0  0  0  0  0  0  0  0  0  0
  -21.4140  -29.3480   22.4430 N   0  0  0  0  0  0  0  0  0  0  0  0
  -23.4130  -28.8950   23.3980 O   0  0  0  0  0  0  0  0  0  0  0  0
  -20.9300  -29.9030   21.7520 H   0  0  0  0  0  0  0  0  0  0  0  0
  -18.0270  -28.1760   22.9480 C   0  0  0  0  0  0  0  0  0  0  0  0
  -20.5880  -28.4170   23.2160 C   0  0  0  0  0  3  0  0  0  0  0  0
  -20.6790  -26.9840   22.6430 C   0  0  0  0  0  2  0  0  0  0  0  0
  -19.5740  -26.6670   21.6290 C   0  0  0  0  0  2  0  0  0  0  0  0
  -18.1940  -26.8240   22.2740 C   0  0  0  0  0  2  0  0  0  0  0  0
  -19.1520  -28.9300   23.3760 C   0  0  0  0  0  0  0  0  0  0  0  0
  -18.9420  -30.1950   23.9670 C   0  0  0  0  0  3  0  0  0  0  0  0
  -17.6400  -30.7050   24.1340 C   0  0  0  0  0  3  0  0  0  0  0  0
  -16.5310  -29.9470   23.7220 C   0  0  0  0  0  3  0  0  0  0  0  0
  -16.7250  -28.6840   23.1350 C   0  0  0  0  0  3  0  0  0  0  0  0
  -25.9060  -32.5530   23.8700 C   0  0  0  0  0  3  0  0  0  0  0  0
  -26.4190  -31.7800   25.1470 C   0  0  1  0  0  0  0  0  0  0  0  0
  -25.3230  -31.5440   26.2130 C   0  0  0  0  0  1  0  0  0  0  0  0
  -27.0000  -30.4020   24.7570 C   0  0  0  0  0  1  0  0  0  0  0  0
  -27.5700  -32.5720   25.8110 C   0  0  0  0  0  1  0  0  0  0  0  0
  -25.6020  -33.9530   24.2010 N   0  0  0  0  0  0  0  0  0  0  0  0
  -25.9220  -35.0040   23.4360 C   0  0  0  0  0  0  0  0  0  0  0  0
  -26.5740  -34.8990   22.3930 O   0  0  0  0  0  0  0  0  0  0  0  0
  -25.0200  -34.1090   25.0120 H   0  0  0  0  0  0  0  0  0  0  0  0
  -24.1890  -36.7990   23.1090 C   0  0  0  0  0  1  0  0  0  0  0  0
  -25.4440  -36.3940   23.8990 C   0  0  0  0  0  3  0  0  0  0  0  0
  -27.5900  -37.2840   24.6950 C   0  0  0  0  0  1  0  0  0  0  0  0
  -26.4750  -37.4460   23.7660 N   0  0  0  0  0  0  0  0  0  0  0  0
  -26.0710  -38.3680   23.9140 H   0  0  0  0  0  0  0  0  0  0  0  0
  2  4  1  0
  4 17  1  0
  4  6  1  0
  5  2  1  1
  5  3  1  0
  5  7  1  0
  5  6  1  0
  6  3  1  6
  7  1  1  0
  7  6  1  0
  7  8  1  6
  9 17  1  0
 10 15  1  0
 11 12  1  0
 11 10  1  0
 13 12  1  0
 13 22  1  0
 13 14  1  0
 15  9  1  0
 15 14  1  0
 16  9  2  0
 17 18  1  0
 19 20  2  0
 20 39  1  0
 21 20  1  0
 21 24  1  0
 22 23  1  0
 22 19  1  0
 23 21  2  0
 24 25  1  0
 25 26  2  0
 27 30  1  0
 27 26  1  0
 28 27  2  0
 29 28  1  0
 29 24  2  0
 30 31  1  0
 31 32  1  0
 32 33  2  0
 34 33  1  0
 34 38  1  0
 35 34  2  0
 36 31  2  0
 36 35  1  0
 37 36  1  0
 39 40  1  0
 40 43  1  0
 40 42  1  0
 41 39  2  0
 44 45  1  0
 44 19  1  0
 46 44  1  0
 47 48  1  0
 47  1  1  0
 49 50  1  0
 49 48  2  0
 51 62  2  0
 52 50  1  0
 52 57  1  0
 53 61  1  0
 53 63  1  0
 54 60  1  0
 54 56  1  0
 55 61  1  0
 56 57  2  0
 56 55  1  0
 58 52  2  0
 59 58  1  0
 59 54  2  0
 60 53  1  0
 61 51  1  0
 63 65  2  0
 64 63  1  0
 66 64  1  0
 67 76  2  0
 67 72  1  0
 68 64  1  0
 68 72  1  0
 69 68  1  0
 70 71  1  0
 70 69  1  0
 71 67  1  0
 72 73  2  0
 73 74  1  0
 75 74  2  0
 76 75  1  0
 77 51  1  0
 77 82  1  0
 77 78  1  0
 78 81  1  1
 78 79  1  0
 80 78  1  0
 82 85  1  0
 83 87  1  0
 83 82  1  0
 84 83  2  0
 87 86  1  0
 89 87  1  0
 89 90  1  0
 89 88  1  0
M  ISO  4   9 100  17 100  49 101  50 101
M  END
>  <TORSDO>  (43) 
F 20

>  <SCORE>  (43) 
-13.882

>  <name>  (43) 
43

>  <ligand_id>  (43) 
43

>  <original_smiles>  (43) 
[H]c1c([H])c([H])c2c(c1[H])C([H])([H])C([H])([H])C([H])([H])C2([H])N([H])C(=O)C1([H])N(C(=O)C([H])(N([H])C(=O)C([H])(N([H])C([H])([H])[H])C([H])([H])[H])C(C([H])([H])[H])(C([H])([H])[H])C([H])([H])[H])C([H])([H])c2c([H])c(OC([H])([H])C([H])([H])C([H])([H])C([H])([H])[N+]3([H])C4([H])C([H])([H])C([H])(N([H])C(=O)N5C([H])([H])C([H])([H])C([H])([H])C([H])(n6nc(-c7c([H])c([H])c(Oc8c([H])c([H])c(F)c([H])c8F)c([H])c7[H])c(C(=O)N([H])[H])c6N([H])[H])C5([H])[H])C3([H])C4([H])[H])c([H])c([H])c2C1([H])[H]

>  <smiles>  (43) 
[H]c1c([H])c([H])c2c(c1[H])C([H])([H])C([H])([H])C([H])([H])C2([H])N([H])C(=O)C1([H])N(C(=O)C([H])(N([H])C(=O)C([H])(N([H])C([H])([H])[H])C([H])([H])[H])C(C([H])([H])[H])(C([H])([H])[H])C([H])([H])[H])C([H])([H])c2c([H])c(OC([H])([H])C([H])([H])C([H])([H])C([H])([H])[N+]3([H])C4([H])C([H])([H])C([H])(N([H])C(=O)N5C([H])([H])C([H])([H])C([H])([H])C([H])(n6nc(-c7c([H])c([H])c(Oc8c([H])c([H])c(F)c([H])c8F)c([H])c7[H])c(C(=O)N([H])[H])c6N([H])[H])C5([H])[H])C3([H])C4([H])[H])c([H])c([H])c2C1([H])[H]

$$$$
44:0:0
     RDKit          3D

 92101  0  0  1  0  0  0  0  0999 V2000
  -28.6980  -23.0280   21.2810 C   0  0  0  0  0  0  0  0  0  0  0  0
  -29.0440  -18.7880   19.2740 C   0  0  0  0  0  2  0  0  0  0  0  0
  -29.4840  -21.4340   19.4910 C   0  0  0  0  0  2  0  0  0  0  0  0
  -29.1130  -20.6080   21.7470 C   0  0  0  0  0  2  0  0  0  0  0  0
  -29.4420  -18.1470   20.6190 C   0  0  0  0  0  3  0  0  0  0  0  0
  -29.9720  -19.9860   19.5710 C   0  0  0  0  0  3  0  0  0  0  0  0
  -29.9660  -19.5610   21.0260 C   0  0  0  0  0  3  0  0  0  0  0  0
  -29.0560  -21.7860   20.8530 N   0  0  0  0  0  0  0  0  0  0  0  0
  -28.3250  -23.2070   22.4450 O   0  0  0  0  0  0  0  0  0  0  0  0
  -30.7820  -14.6370   20.0190 C   0  0  0  0  0  0  0  0  0  0  0  0
  -30.4130  -12.4550   18.9270 C   0  0  0  0  0  2  0  0  0  0  0  0
  -29.4060  -12.6310   17.7720 C   0  0  0  0  0  2  0  0  0  0  0  0
  -27.9630  -12.4800   18.2910 C   0  0  0  0  0  2  0  0  0  0  0  0
  -27.6870  -13.3340   19.5580 C   0  0  0  0  0  3  0  0  0  0  0  0
  -28.8100  -13.1650   20.6070 C   0  0  0  0  0  2  0  0  0  0  0  0
  -30.0890  -13.4650   19.9490 N   0  0  0  0  0  0  0  0  0  0  0  0
  -31.9210  -14.7250   19.5510 O   0  0  0  0  0  0  0  0  0  0  0  0
  -30.5030  -17.0130   20.4770 C   0  0  0  0  0  0  0  0  0  0  0  0
  -30.0740  -15.7240   20.4220 N   0  0  0  0  0  0  0  0  0  0  0  0
  -31.6950  -17.3390   20.4250 O   0  0  0  0  0  0  0  0  0  0  0  0
  -29.1010  -15.5690   20.6190 H   0  0  0  0  0  0  0  0  0  0  0  0
  -25.3490  -13.9230   20.4500 C   0  0  0  0  0  0  0  0  0  0  0  0
  -24.3040  -13.1430   20.8650 C   0  0  0  0  0  0  0  0  0  0  0  0
  -24.7550  -11.7920   20.7620 C   0  0  0  0  0  0  0  0  0  0  0  0
  -26.3710  -13.0470   20.1220 N   0  0  0  0  0  0  0  0  0  0  0  0
  -26.0220  -11.7580   20.3690 N   0  0  0  0  0  0  0  0  0  0  0  0
  -24.0360  -10.5260   20.9590 C   0  0  0  0  0  0  0  0  0  0  0  0
  -24.4940   -9.5520   21.8740 C   0  0  0  0  0  3  0  0  0  0  0  0
  -23.7750   -8.3510   22.0600 C   0  0  0  0  0  3  0  0  0  0  0  0
  -22.5840   -8.1170   21.3310 C   0  0  0  0  0  0  0  0  0  0  0  0
  -22.1460   -9.0800   20.4060 C   0  0  0  0  0  3  0  0  0  0  0  0
  -22.8650  -10.2730   20.2170 C   0  0  0  0  0  3  0  0  0  0  0  0
  -21.8340   -6.9690   21.4280 O   0  0  0  0  0  0  0  0  0  0  0  0
  -21.7760   -6.2430   22.5910 C   0  0  0  0  0  0  0  0  0  0  0  0
  -21.3090   -6.8070   23.7990 C   0  0  0  0  0  3  0  0  0  0  0  0
  -21.2000   -6.0050   24.9530 C   0  0  0  0  0  3  0  0  0  0  0  0
  -21.5480   -4.6430   24.9010 C   0  0  0  0  0  0  0  0  0  0  0  0
  -22.0080   -4.0800   23.6960 C   0  0  0  0  0  3  0  0  0  0  0  0
  -22.1190   -4.8770   22.5450 C   0  0  0  0  0  0  0  0  0  0  0  0
  -22.5420   -4.3240   21.3830 F   0  0  0  0  0  0  0  0  0  0  0  0
  -21.4350   -3.8700   26.0060 F   0  0  0  0  0  0  0  0  0  0  0  0
  -22.9290  -13.6170   21.2400 C   0  0  0  0  0  0  0  0  0  0  0  0
  -22.2540  -12.8980   22.1300 N   0  0  0  0  0  0  0  0  0  0  0  0
  -22.4650  -14.6590   20.7810 O   0  0  0  0  0  0  0  0  0  0  0  0
  -22.6450  -12.0540   22.5230 H   0  0  0  0  0  0  0  0  0  0  0  0
  -21.3350  -13.1960   22.4230 H   0  0  0  0  0  0  0  0  0  0  0  0
  -25.5080  -15.2990   20.3010 N   0  0  0  0  0  0  0  0  0  0  0  0
  -24.7480  -15.9470   20.4710 H   0  0  0  0  0  0  0  0  0  0  0  0
  -26.3190  -15.7420   19.8900 H   0  0  0  0  0  0  0  0  0  0  0  0
  -28.7700  -24.2520   20.3230 C   0  0  0  0  0  2  0  0  0  0  0  0
  -28.3570  -25.6020   20.9900 C   0  0  0  0  0  2  0  0  0  0  0  0
  -28.4500  -26.7730   20.1450 O   0  0  0  0  0  0  0  0  0  0  0  0
  -24.6290  -31.9470   23.2380 C   0  0  0  0  0  0  0  0  0  0  0  0
  -27.3060  -27.5420   20.1310 C   0  0  0  0  0  0  0  0  0  0  0  0
  -23.4340  -30.5440   21.5890 C   0  0  0  0  0  3  0  0  0  0  0  0
  -24.9010  -29.0300   20.1490 C   0  0  0  0  0  0  0  0  0  0  0  0
  -25.9560  -30.9300   21.3870 C   0  0  0  0  0  2  0  0  0  0  0  0
  -26.0570  -29.5630   20.7360 C   0  0  0  0  0  0  0  0  0  0  0  0
  -27.2670  -28.8280   20.7190 C   0  0  0  0  0  3  0  0  0  0  0  0
  -26.1380  -27.0270   19.5340 C   0  0  0  0  0  3  0  0  0  0  0  0
  -24.9370  -27.7630   19.5420 C   0  0  0  0  0  3  0  0  0  0  0  0
  -23.6480  -29.8750   20.2050 C   0  0  0  0  0  2  0  0  0  0  0  0
  -24.6920  -31.1540   22.1300 N   0  0  0  0  0  0  0  0  0  0  0  0
  -23.5470  -32.2040   23.7820 O   0  0  0  0  0  0  0  0  0  0  0  0
  -22.7960  -29.5100   22.5460 C   0  0  0  0  0  0  0  0  0  0  0  0
  -21.4750  -29.3100   22.4160 N   0  0  0  0  0  0  0  0  0  0  0  0
  -23.4870  -28.8910   23.3590 O   0  0  0  0  0  0  0  0  0  0  0  0
  -20.9780  -29.8620   21.7310 H   0  0  0  0  0  0  0  0  0  0  0  0
  -18.1180  -28.0590   22.8950 C   0  0  0  0  0  0  0  0  0  0  0  0
  -20.6700  -28.3580   23.1800 C   0  0  0  0  0  3  0  0  0  0  0  0
  -20.7980  -26.9300   22.6030 C   0  0  0  0  0  2  0  0  0  0  0  0
  -19.7070  -26.5900   21.5820 C   0  0  0  0  0  2  0  0  0  0  0  0
  -18.3200  -26.7140   22.2190 C   0  0  0  0  0  2  0  0  0  0  0  0
  -19.2220  -28.8380   23.3320 C   0  0  0  0  0  0  0  0  0  0  0  0
  -18.9790  -30.0970   23.9240 C   0  0  0  0  0  3  0  0  0  0  0  0
  -17.6660  -30.5780   24.0820 C   0  0  0  0  0  3  0  0  0  0  0  0
  -16.5770  -29.7960   23.6610 C   0  0  0  0  0  3  0  0  0  0  0  0
  -16.8040  -28.5380   23.0730 C   0  0  0  0  0  3  0  0  0  0  0  0
  -25.9110  -32.5880   23.8580 C   0  0  0  0  0  3  0  0  0  0  0  0
  -25.5940  -33.9840   24.1830 N   0  0  0  0  0  0  0  0  0  0  0  0
  -25.9280  -35.0360   23.4230 C   0  0  0  0  0  0  0  0  0  0  0  0
  -26.6060  -34.9330   22.3960 O   0  0  0  0  0  0  0  0  0  0  0  0
  -24.9920  -34.1380   24.9780 H   0  0  0  0  0  0  0  0  0  0  0  0
  -24.2010  -36.8230   23.0430 C   0  0  0  0  0  1  0  0  0  0  0  0
  -25.4320  -36.4230   23.8720 C   0  0  0  0  0  3  0  0  0  0  0  0
  -27.5500  -37.3160   24.7330 C   0  0  0  0  0  1  0  0  0  0  0  0
  -26.4620  -37.4780   23.7720 N   0  0  0  0  0  0  0  0  0  0  0  0
  -26.0520  -38.3980   23.9100 H   0  0  0  0  0  0  0  0  0  0  0  0
  -26.4330  -31.8220   25.1360 C   0  0  1  0  0  0  0  0  0  0  0  0
  -25.3410  -31.5780   26.2030 C   0  0  0  0  0  1  0  0  0  0  0  0
  -27.0280  -30.4500   24.7440 C   0  0  0  0  0  1  0  0  0  0  0  0
  -27.5770  -32.6280   25.7970 C   0  0  0  0  0  1  0  0  0  0  0  0
  1  9  2  0
  2  5  1  0
  3  6  1  0
  3  8  1  0
  5 18  1  0
  5  7  1  0
  6  2  1  0
  6  7  1  0
  7  4  1  0
  8  1  1  0
  8  4  1  0
 10 19  1  0
 11 16  1  0
 12 13  1  0
 12 11  1  0
 14 13  1  0
 14 25  1  0
 14 15  1  0
 16 10  1  0
 16 15  1  0
 17 10  2  0
 19 18  1  0
 19 21  1  0
 20 18  2  0
 22 23  2  0
 23 42  1  0
 24 23  1  0
 24 27  1  0
 25 26  1  0
 25 22  1  0
 26 24  2  0
 27 28  1  0
 28 29  2  0
 30 33  1  0
 30 29  1  0
 31 30  2  0
 32 31  1  0
 32 27  2  0
 33 34  1  0
 34 35  1  0
 35 36  2  0
 37 36  1  0
 37 41  1  0
 38 37  2  0
 39 34  2  0
 39 38  1  0
 40 39  1  0
 42 43  1  0
 43 46  1  0
 43 45  1  0
 44 42  2  0
 47 22  1  0
 47 48  1  0
 49 47  1  0
 50 51  1  0
 50  1  1  0
 52 51  1  0
 53 64  2  0
 54 52  1  0
 54 59  1  0
 55 63  1  0
 55 65  1  0
 56 62  1  0
 56 58  1  0
 57 63  1  0
 58 57  1  0
 59 58  2  0
 60 61  1  0
 60 54  2  0
 61 56  2  0
 62 55  1  0
 63 53  1  0
 65 67  2  0
 66 65  1  0
 68 66  1  0
 69 78  2  0
 69 74  1  0
 70 66  1  0
 70 74  1  0
 71 70  1  0
 72 73  1  0
 72 71  1  0
 73 69  1  0
 74 75  2  0
 75 76  1  0
 77 76  2  0
 78 77  1  0
 79 53  1  0
 79 80  1  0
 79 89  1  0
 80 83  1  0
 81 85  1  0
 81 80  1  0
 82 81  2  0
 85 84  1  0
 87 85  1  0
 87 88  1  0
 87 86  1  0
 89 92  1  1
 89 90  1  0
 91 89  1  0
M  ISO  4  10 100  19 100  51 101  52 101
M  END
>  <TORSDO>  (44) 
F 18

>  <SCORE>  (44) 
-14.133

>  <name>  (44) 
44

>  <ligand_id>  (44) 
44

>  <original_smiles>  (44) 
[H]c1c([H])c([H])c2c(c1[H])C([H])([H])C([H])([H])C([H])([H])C2([H])N([H])C(=O)C1([H])N(C(=O)C([H])(N([H])C(=O)C([H])(N([H])C([H])([H])[H])C([H])([H])[H])C(C([H])([H])[H])(C([H])([H])[H])C([H])([H])[H])C([H])([H])c2c([H])c(OC([H])([H])C([H])([H])C(=O)N3C([H])([H])C4([H])C([H])([H])C([H])(C(=O)N([H])C(=O)N5C([H])([H])C([H])([H])C([H])([H])C([H])(n6nc(-c7c([H])c([H])c(Oc8c([H])c([H])c(F)c([H])c8F)c([H])c7[H])c(C(=O)N([H])[H])c6N([H])[H])C5([H])[H])C4([H])C3([H])[H])c([H])c([H])c2C1([H])[H]

>  <smiles>  (44) 
[H]c1c([H])c([H])c2c(c1[H])C([H])([H])C([H])([H])C([H])([H])C2([H])N([H])C(=O)C1([H])N(C(=O)C([H])(N([H])C(=O)C([H])(N([H])C([H])([H])[H])C([H])([H])[H])C(C([H])([H])[H])(C([H])([H])[H])C([H])([H])[H])C([H])([H])c2c([H])c(OC([H])([H])C([H])([H])C(=O)N3C([H])([H])C4([H])C([H])([H])C([H])(C(=O)N([H])C(=O)N5C([H])([H])C([H])([H])C([H])([H])C([H])(n6nc(-c7c([H])c([H])c(Oc8c([H])c([H])c(F)c([H])c8F)c([H])c7[H])c(C(=O)N([H])[H])c6N([H])[H])C5([H])[H])C4([H])C3([H])[H])c([H])c([H])c2C1([H])[H]

$$$$
45:0:0
     RDKit          3D

 92100  0  0  1  0  0  0  0  0999 V2000
  -28.7760  -21.1610   20.7010 C   0  0  0  0  0  2  0  0  0  0  0  0
  -31.9280  -19.1660   19.6440 C   0  0  0  0  0  3  0  0  0  0  0  0
  -31.0110  -20.1880   19.9340 C   0  0  0  0  0  3  0  0  0  0  0  0
  -31.5820  -17.8100   19.7850 C   0  0  0  0  0  3  0  0  0  0  0  0
  -29.6940  -19.9010   20.3440 C   0  0  0  0  0  0  0  0  0  0  0  0
  -29.3440  -18.4800   20.4700 C   0  0  0  0  0  0  0  0  0  0  0  0
  -30.2970  -17.3970   20.2150 C   0  0  0  0  0  0  0  0  0  0  0  0
  -27.9320  -18.0930   20.8950 C   0  0  0  0  0  1  0  0  0  0  0  0
  -30.7150  -14.7920   20.0520 C   0  0  0  0  0  0  0  0  0  0  0  0
  -30.4070  -12.5800   18.9400 C   0  0  0  0  0  2  0  0  0  0  0  0
  -29.4000  -12.7310   17.7790 C   0  0  0  0  0  2  0  0  0  0  0  0
  -27.9590  -12.5440   18.2880 C   0  0  0  0  0  2  0  0  0  0  0  0
  -27.6670  -13.3640   19.5730 C   0  0  0  0  0  3  0  0  0  0  0  0
  -28.7920  -13.2230   20.6220 C   0  0  0  0  0  2  0  0  0  0  0  0
  -30.0530  -13.5880   19.9660 N   0  0  0  0  0  0  0  0  0  0  0  0
  -31.8920  -14.8450   19.6890 O   0  0  0  0  0  0  0  0  0  0  0  0
  -29.9830  -15.9390   20.3500 N   0  0  0  0  0  0  0  0  0  0  0  0
  -29.0390  -15.7390   20.6380 H   0  0  0  0  0  0  0  0  0  0  0  0
  -25.3150  -13.9080   20.4400 C   0  0  0  0  0  0  0  0  0  0  0  0
  -24.2800  -13.1130   20.8480 C   0  0  0  0  0  0  0  0  0  0  0  0
  -24.7540  -11.7680   20.7610 C   0  0  0  0  0  0  0  0  0  0  0  0
  -26.3560  -13.0480   20.1300 N   0  0  0  0  0  0  0  0  0  0  0  0
  -26.0280  -11.7540   20.3860 N   0  0  0  0  0  0  0  0  0  0  0  0
  -24.0510  -10.4950   20.9570 C   0  0  0  0  0  0  0  0  0  0  0  0
  -24.5020   -9.5380   21.8920 C   0  0  0  0  0  3  0  0  0  0  0  0
  -23.7970   -8.3290   22.0780 C   0  0  0  0  0  3  0  0  0  0  0  0
  -22.6270   -8.0680   21.3270 C   0  0  0  0  0  0  0  0  0  0  0  0
  -22.1940   -9.0130   20.3810 C   0  0  0  0  0  3  0  0  0  0  0  0
  -22.8990  -10.2130   20.1930 C   0  0  0  0  0  3  0  0  0  0  0  0
  -21.8920   -6.9110   21.4210 O   0  0  0  0  0  0  0  0  0  0  0  0
  -21.8170   -6.1980   22.5900 C   0  0  0  0  0  0  0  0  0  0  0  0
  -21.3190   -6.7730   23.7800 C   0  0  0  0  0  3  0  0  0  0  0  0
  -21.1940   -5.9870   24.9430 C   0  0  0  0  0  3  0  0  0  0  0  0
  -21.5540   -4.6260   24.9160 C   0  0  0  0  0  0  0  0  0  0  0  0
  -22.0440   -4.0510   23.7310 C   0  0  0  0  0  3  0  0  0  0  0  0
  -22.1710   -4.8350   22.5700 C   0  0  0  0  0  0  0  0  0  0  0  0
  -22.6240   -4.2710   21.4250 F   0  0  0  0  0  0  0  0  0  0  0  0
  -21.4250   -3.8690   26.0300 F   0  0  0  0  0  0  0  0  0  0  0  0
  -22.8940  -13.5670   21.2020 C   0  0  0  0  0  0  0  0  0  0  0  0
  -22.2180  -12.8420   22.0840 N   0  0  0  0  0  0  0  0  0  0  0  0
  -22.4230  -14.6040   20.7330 O   0  0  0  0  0  0  0  0  0  0  0  0
  -22.6140  -12.0030   22.4820 H   0  0  0  0  0  0  0  0  0  0  0  0
  -21.2910  -13.1280   22.3660 H   0  0  0  0  0  0  0  0  0  0  0  0
  -25.4500  -15.2830   20.2820 N   0  0  0  0  0  0  0  0  0  0  0  0
  -24.6660  -15.9100   20.4260 H   0  0  0  0  0  0  0  0  0  0  0  0
  -26.2360  -15.7330   19.8340 H   0  0  0  0  0  0  0  0  0  0  0  0
  -29.0330  -22.5100   20.0110 N   0  0  0  0  0  4  0  0  0  0  0  0
  -28.8170  -22.3800   19.0360 H   0  0  0  0  0  0  0  0  0  0  0  0
  -30.0250  -22.6790   20.0670 H   0  0  0  0  0  0  0  0  0  0  0  0
  -28.3330  -23.7900   20.5090 C   0  0  0  0  0  2  0  0  0  0  0  0
  -28.5100  -25.1320   19.6340 C   0  0  0  0  0  2  0  0  0  0  0  0
  -28.3820  -26.5020   20.2210 O   0  0  0  0  0  0  0  0  0  0  0  0
  -24.5590  -31.8610   23.1670 C   0  0  0  0  0  0  0  0  0  0  0  0
  -27.2380  -27.3170   20.1270 C   0  0  0  0  0  0  0  0  0  0  0  0
  -23.3870  -30.4650   21.5010 C   0  0  0  0  0  3  0  0  0  0  0  0
  -24.8670  -28.9290   20.0830 C   0  0  0  0  0  0  0  0  0  0  0  0
  -25.9250  -30.7980   21.3540 C   0  0  0  0  0  2  0  0  0  0  0  0
  -26.0220  -29.4200   20.7020 C   0  0  0  0  0  0  0  0  0  0  0  0
  -27.2070  -28.6230   20.7170 C   0  0  0  0  0  3  0  0  0  0  0  0
  -26.0560  -26.8810   19.4860 C   0  0  0  0  0  3  0  0  0  0  0  0
  -24.8860  -27.6680   19.4670 C   0  0  0  0  0  3  0  0  0  0  0  0
  -23.6270  -29.8040   20.1170 C   0  0  0  0  0  2  0  0  0  0  0  0
  -24.6420  -31.0600   22.0650 N   0  0  0  0  0  0  0  0  0  0  0  0
  -23.4670  -32.1310   23.6880 O   0  0  0  0  0  0  0  0  0  0  0  0
  -22.7190  -29.4380   22.4470 C   0  0  0  0  0  0  0  0  0  0  0  0
  -21.3930  -29.2670   22.3130 N   0  0  0  0  0  0  0  0  0  0  0  0
  -23.3910  -28.8010   23.2610 O   0  0  0  0  0  0  0  0  0  0  0  0
  -20.9100  -29.8380   21.6340 H   0  0  0  0  0  0  0  0  0  0  0  0
  -18.0040  -28.0950   22.7850 C   0  0  0  0  0  0  0  0  0  0  0  0
  -20.5650  -28.3240   23.0680 C   0  0  0  0  0  3  0  0  0  0  0  0
  -20.6540  -26.9040   22.4650 C   0  0  0  0  0  2  0  0  0  0  0  0
  -19.5510  -26.6100   21.4440 C   0  0  0  0  0  2  0  0  0  0  0  0
  -18.1690  -26.7560   22.0870 C   0  0  0  0  0  2  0  0  0  0  0  0
  -19.1290  -28.8380   23.2310 C   0  0  0  0  0  0  0  0  0  0  0  0
  -18.9210  -30.0920   23.8450 C   0  0  0  0  0  3  0  0  0  0  0  0
  -17.6210  -30.6020   24.0220 C   0  0  0  0  0  3  0  0  0  0  0  0
  -16.5100  -29.8550   23.5940 C   0  0  0  0  0  3  0  0  0  0  0  0
  -16.7030  -28.6040   22.9790 C   0  0  0  0  0  3  0  0  0  0  0  0
  -25.8280  -32.4970   23.8130 C   0  0  0  0  0  3  0  0  0  0  0  0
  -26.3310  -31.7200   25.0900 C   0  0  1  0  0  0  0  0  0  0  0  0
  -25.2250  -31.4670   26.1400 C   0  0  0  0  0  1  0  0  0  0  0  0
  -26.9300  -30.3510   24.6940 C   0  0  0  0  0  1  0  0  0  0  0  0
  -27.4650  -32.5180   25.7770 C   0  0  0  0  0  1  0  0  0  0  0  0
  -25.5050  -33.8920   24.1510 N   0  0  0  0  0  0  0  0  0  0  0  0
  -25.8400  -34.9550   23.4070 C   0  0  0  0  0  0  0  0  0  0  0  0
  -26.5220  -34.8640   22.3830 O   0  0  0  0  0  0  0  0  0  0  0  0
  -24.8960  -34.0330   24.9430 H   0  0  0  0  0  0  0  0  0  0  0  0
  -24.1100  -36.7450   23.0450 C   0  0  0  0  0  1  0  0  0  0  0  0
  -25.3370  -36.3340   23.8740 C   0  0  0  0  0  3  0  0  0  0  0  0
  -27.4480  -37.2240   24.7570 C   0  0  0  0  0  1  0  0  0  0  0  0
  -26.3650  -37.3950   23.7930 N   0  0  0  0  0  0  0  0  0  0  0  0
  -25.9490  -38.3120   23.9390 H   0  0  0  0  0  0  0  0  0  0  0  0
  2  4  2  0
  2  3  1  0
  3  5  2  0
  4  7  1  0
  5  6  1  0
  5  1  1  0
  6  8  1  0
  7 17  1  0
  7  6  2  0
  9 17  1  0
 10 15  1  0
 11 12  1  0
 11 10  1  0
 13 12  1  0
 13 22  1  0
 13 14  1  0
 15  9  1  0
 15 14  1  0
 16  9  2  0
 17 18  1  0
 19 20  2  0
 20 39  1  0
 21 20  1  0
 21 24  1  0
 22 23  1  0
 22 19  1  0
 23 21  2  0
 24 25  1  0
 25 26  2  0
 27 30  1  0
 27 26  1  0
 28 27  2  0
 29 28  1  0
 29 24  2  0
 30 31  1  0
 31 32  1  0
 32 33  2  0
 34 33  1  0
 34 38  1  0
 35 34  2  0
 36 31  2  0
 36 35  1  0
 37 36  1  0
 39 40  1  0
 40 43  1  0
 40 42  1  0
 41 39  2  0
 44 45  1  0
 44 19  1  0
 46 44  1  0
 47 49  1  0
 47 50  1  0
 47  1  1  0
 48 47  1  0
 51 52  1  0
 51 50  1  0
 53 64  2  0
 54 52  1  0
 54 59  1  0
 55 63  1  0
 55 65  1  0
 56 62  1  0
 56 58  1  0
 57 63  1  0
 58 59  2  0
 58 57  1  0
 60 54  2  0
 61 60  1  0
 61 56  2  0
 62 55  1  0
 63 53  1  0
 65 67  2  0
 66 65  1  0
 68 66  1  0
 69 78  2  0
 69 74  1  0
 70 66  1  0
 70 74  1  0
 71 70  1  0
 72 73  1  0
 72 71  1  0
 73 69  1  0
 74 75  2  0
 75 76  1  0
 77 76  2  0
 78 77  1  0
 79 53  1  0
 79 84  1  0
 79 80  1  0
 80 83  1  1
 80 81  1  0
 82 80  1  0
 84 87  1  0
 85 89  1  0
 85 84  1  0
 86 85  2  0
 89 88  1  0
 91 89  1  0
 91 92  1  0
 91 90  1  0
M  ISO  4   9 100  17 100  51 101  52 101
M  END
>  <TORSDO>  (45) 
F 20

>  <SCORE>  (45) 
-13.289

>  <name>  (45) 
45

>  <ligand_id>  (45) 
45

>  <original_smiles>  (45) 
[H]c1c([H])c([H])c2c(c1[H])C([H])([H])C([H])([H])C([H])([H])C2([H])N([H])C(=O)C1([H])N(C(=O)C([H])(N([H])C(=O)C([H])(N([H])C([H])([H])[H])C([H])([H])[H])C(C([H])([H])[H])(C([H])([H])[H])C([H])([H])[H])C([H])([H])c2c([H])c(OC([H])([H])C([H])([H])[N+]([H])([H])C([H])([H])c3c([H])c([H])c([H])c(N([H])C(=O)N4C([H])([H])C([H])([H])C([H])([H])C([H])(n5nc(-c6c([H])c([H])c(Oc7c([H])c([H])c(F)c([H])c7F)c([H])c6[H])c(C(=O)N([H])[H])c5N([H])[H])C4([H])[H])c3C([H])([H])[H])c([H])c([H])c2C1([H])[H]

>  <smiles>  (45) 
[H]c1c([H])c([H])c2c(c1[H])C([H])([H])C([H])([H])C([H])([H])C2([H])N([H])C(=O)C1([H])N(C(=O)C([H])(N([H])C(=O)C([H])(N([H])C([H])([H])[H])C([H])([H])[H])C(C([H])([H])[H])(C([H])([H])[H])C([H])([H])[H])C([H])([H])c2c([H])c(OC([H])([H])C([H])([H])[N+]([H])([H])C([H])([H])c3c([H])c([H])c([H])c(N([H])C(=O)N4C([H])([H])C([H])([H])C([H])([H])C([H])(n5nc(-c6c([H])c([H])c(Oc7c([H])c([H])c(F)c([H])c7F)c([H])c6[H])c(C(=O)N([H])[H])c5N([H])[H])C4([H])[H])c3C([H])([H])[H])c([H])c([H])c2C1([H])[H]

$$$$
46:0:0
     RDKit          3D

 91100  0  0  1  0  0  0  0  0999 V2000
  -28.5310  -19.9200   21.7380 C   0  0  0  0  0  2  0  0  0  0  0  0
  -29.1100  -18.6360   21.0910 C   0  0  0  0  0  2  0  0  0  0  0  0
  -29.8100  -19.3950   18.6280 C   0  0  0  0  0  2  0  0  0  0  0  0
  -28.5060  -21.2870   21.0050 C   0  0  0  0  0  2  0  0  0  0  0  0
  -30.4450  -20.3460   19.6250 C   0  0  0  0  0  3  0  0  0  0  0  0
  -30.1290  -18.8300   19.9860 C   0  0  1  0  0  0  0  0  0  0  0  0
  -29.4570  -21.4910   19.8750 N   0  0  2  0  0  4  0  0  0  0  0  0
  -28.8730  -21.4500   19.0540 H   0  0  0  0  0  0  0  0  0  0  0  0
  -31.1070  -17.5740   19.9470 C   0  0  0  0  0  2  0  0  0  0  0  0
  -31.3290  -15.0180   19.8560 C   0  0  0  0  0  0  0  0  0  0  0  0
  -31.0490  -12.6990   18.9880 C   0  0  0  0  0  2  0  0  0  0  0  0
  -30.1140  -12.7900   17.7690 C   0  0  0  0  0  2  0  0  0  0  0  0
  -28.6440  -12.6810   18.2320 C   0  0  0  0  0  2  0  0  0  0  0  0
  -28.3220  -13.5900   19.4530 C   0  0  0  0  0  3  0  0  0  0  0  0
  -29.4140  -13.5210   20.5480 C   0  0  0  0  0  2  0  0  0  0  0  0
  -30.6960  -13.8060   19.8980 N   0  0  0  0  0  0  0  0  0  0  0  0
  -32.4760  -15.1110   19.4060 O   0  0  0  0  0  0  0  0  0  0  0  0
  -30.6080  -16.1520   20.1200 N   0  0  0  0  0  0  0  0  0  0  0  0
  -29.6350  -16.0090   20.3680 H   0  0  0  0  0  0  0  0  0  0  0  0
  -25.9810  -14.2280   20.2800 C   0  0  0  0  0  0  0  0  0  0  0  0
  -24.9110  -13.4780   20.6780 C   0  0  0  0  0  0  0  0  0  0  0  0
  -25.3370  -12.1160   20.6090 C   0  0  0  0  0  0  0  0  0  0  0  0
  -26.9890  -13.3280   19.9840 N   0  0  0  0  0  0  0  0  0  0  0  0
  -26.6130  -12.0520   20.2460 N   0  0  0  0  0  0  0  0  0  0  0  0
  -24.5840  -10.8680   20.8120 C   0  0  0  0  0  0  0  0  0  0  0  0
  -24.9620   -9.9230   21.7910 C   0  0  0  0  0  3  0  0  0  0  0  0
  -24.2090   -8.7430   21.9780 C   0  0  0  0  0  3  0  0  0  0  0  0
  -23.0580   -8.5010   21.1870 C   0  0  0  0  0  0  0  0  0  0  0  0
  -22.6970   -9.4360   20.2000 C   0  0  0  0  0  3  0  0  0  0  0  0
  -23.4520  -10.6080   20.0120 C   0  0  0  0  0  3  0  0  0  0  0  0
  -22.2810   -7.3710   21.2790 O   0  0  0  0  0  0  0  0  0  0  0  0
  -22.0970   -6.7220   22.4740 C   0  0  0  0  0  0  0  0  0  0  0  0
  -21.5080   -7.3650   23.5820 C   0  0  0  0  0  3  0  0  0  0  0  0
  -21.2660   -6.6420   24.7690 C   0  0  0  0  0  3  0  0  0  0  0  0
  -21.6060   -5.2780   24.8450 C   0  0  0  0  0  0  0  0  0  0  0  0
  -22.1930   -4.6370   23.7380 C   0  0  0  0  0  3  0  0  0  0  0  0
  -22.4300   -5.3550   22.5550 C   0  0  0  0  0  0  0  0  0  0  0  0
  -22.9710   -4.7260   21.4840 F   0  0  0  0  0  0  0  0  0  0  0  0
  -21.3710   -4.5820   25.9820 F   0  0  0  0  0  0  0  0  0  0  0  0
  -23.5410  -13.9880   21.0170 C   0  0  0  0  0  0  0  0  0  0  0  0
  -22.8410  -13.3020   21.9130 N   0  0  0  0  0  0  0  0  0  0  0  0
  -23.1040  -15.0270   20.5250 O   0  0  0  0  0  0  0  0  0  0  0  0
  -23.2070  -12.4570   22.3230 H   0  0  0  0  0  0  0  0  0  0  0  0
  -21.9270  -13.6340   22.1870 H   0  0  0  0  0  0  0  0  0  0  0  0
  -26.1750  -15.6000   20.1190 N   0  0  0  0  0  0  0  0  0  0  0  0
  -25.4300  -16.2700   20.2750 H   0  0  0  0  0  0  0  0  0  0  0  0
  -27.0030  -16.0190   19.7140 H   0  0  0  0  0  0  0  0  0  0  0  0
  -30.0230  -22.9100   19.8380 C   0  0  0  0  0  2  0  0  0  0  0  0
  -29.0360  -24.1690   20.0610 C   0  0  0  0  0  2  0  0  0  0  0  0
  -29.3300  -25.5690   19.3260 C   0  0  0  0  0  2  0  0  0  0  0  0
  -29.0510  -26.8870   19.9590 O   0  0  0  0  0  0  0  0  0  0  0  0
  -24.6660  -31.6600   23.1160 C   0  0  0  0  0  0  0  0  0  0  0  0
  -27.8300  -27.5810   19.8930 C   0  0  0  0  0  0  0  0  0  0  0  0
  -23.6610  -30.2600   21.3450 C   0  0  0  0  0  3  0  0  0  0  0  0
  -25.3080  -28.9470   19.8840 C   0  0  0  0  0  0  0  0  0  0  0  0
  -26.1530  -30.8320   21.2820 C   0  0  0  0  0  2  0  0  0  0  0  0
  -26.3940  -29.5060   20.5630 C   0  0  0  0  0  0  0  0  0  0  0  0
  -27.6490  -28.8250   20.5760 C   0  0  0  0  0  3  0  0  0  0  0  0
  -26.7160  -27.0720   19.1840 C   0  0  0  0  0  3  0  0  0  0  0  0
  -25.4730  -27.7330   19.1930 C   0  0  0  0  0  3  0  0  0  0  0  0
  -23.9900  -29.6950   19.9350 C   0  0  0  0  0  2  0  0  0  0  0  0
  -24.8410  -30.9320   21.9770 N   0  0  0  0  0  0  0  0  0  0  0  0
  -23.5450  -31.7950   23.6290 O   0  0  0  0  0  0  0  0  0  0  0  0
  -23.0730  -29.1240   22.2190 C   0  0  0  0  0  0  0  0  0  0  0  0
  -21.7680  -28.8420   22.0560 N   0  0  0  0  0  0  0  0  0  0  0  0
  -23.7940  -28.5060   23.0080 O   0  0  0  0  0  0  0  0  0  0  0  0
  -21.2290  -29.4170   21.4270 H   0  0  0  0  0  0  0  0  0  0  0  0
  -18.5020  -27.3480   22.4430 C   0  0  0  0  0  0  0  0  0  0  0  0
  -21.0320  -27.7740   22.7310 C   0  0  0  0  0  3  0  0  0  0  0  0
  -21.2400  -26.4110   22.0240 C   0  0  0  0  0  2  0  0  0  0  0  0
  -20.1500  -26.0900   20.9920 C   0  0  0  0  0  2  0  0  0  0  0  0
  -18.7720  -26.0710   21.6600 C   0  0  0  0  0  2  0  0  0  0  0  0
  -19.5600  -28.1530   22.9340 C   0  0  0  0  0  0  0  0  0  0  0  0
  -19.2530  -29.3560   23.6090 C   0  0  0  0  0  3  0  0  0  0  0  0
  -17.9180  -29.7420   23.8030 C   0  0  0  0  0  3  0  0  0  0  0  0
  -16.8700  -28.9220   23.3400 C   0  0  0  0  0  3  0  0  0  0  0  0
  -17.1620  -27.7280   22.6660 C   0  0  0  0  0  3  0  0  0  0  0  0
  -25.8610  -32.3720   23.8280 C   0  0  0  0  0  3  0  0  0  0  0  0
  -26.3490  -31.6220   25.1280 C   0  0  1  0  0  0  0  0  0  0  0  0
  -25.2070  -31.2890   26.1190 C   0  0  0  0  0  1  0  0  0  0  0  0
  -27.0600  -30.2980   24.7610 C   0  0  0  0  0  1  0  0  0  0  0  0
  -27.3900  -32.4900   25.8730 C   0  0  0  0  0  1  0  0  0  0  0  0
  -25.4330  -33.7420   24.1490 N   0  0  0  0  0  0  0  0  0  0  0  0
  -25.7330  -34.8220   23.4140 C   0  0  0  0  0  0  0  0  0  0  0  0
  -26.4580  -34.7780   22.4160 O   0  0  0  0  0  0  0  0  0  0  0  0
  -24.7900  -33.8480   24.9220 H   0  0  0  0  0  0  0  0  0  0  0  0
  -23.8900  -36.4840   22.9900 C   0  0  0  0  0  1  0  0  0  0  0  0
  -25.1230  -36.1670   23.8550 C   0  0  0  0  0  3  0  0  0  0  0  0
  -27.1450  -37.2140   24.7770 C   0  0  0  0  0  1  0  0  0  0  0  0
  -26.0770  -37.2950   23.7840 N   0  0  0  0  0  0  0  0  0  0  0  0
  -25.5970  -38.1830   23.9060 H   0  0  0  0  0  0  0  0  0  0  0  0
  2  1  1  0
  3  6  1  0
  4  1  1  0
  5  3  1  0
  5  7  1  0
  5  6  1  0
  6  9  1  6
  6  2  1  0
  7  4  1  0
  7  8  1  6
  9 18  1  0
 10 16  1  0
 10 18  1  0
 11 16  1  0
 12 13  1  0
 12 11  1  0
 14 13  1  0
 14 23  1  0
 14 15  1  0
 16 15  1  0
 17 10  2  0
 18 19  1  0
 20 21  2  0
 21 40  1  0
 22 21  1  0
 22 25  1  0
 23 24  1  0
 23 20  1  0
 24 22  2  0
 25 26  1  0
 26 27  2  0
 28 31  1  0
 28 27  1  0
 29 28  2  0
 30 29  1  0
 30 25  2  0
 31 32  1  0
 32 37  2  0
 32 33  1  0
 33 34  2  0
 34 35  1  0
 35 39  1  0
 36 35  2  0
 37 36  1  0
 38 37  1  0
 40 41  1  0
 41 44  1  0
 41 43  1  0
 42 40  2  0
 45 46  1  0
 45 20  1  0
 47 45  1  0
 48  7  1  0
 48 49  1  0
 50 51  1  0
 50 49  1  0
 52 63  2  0
 53 51  1  0
 53 58  1  0
 54 62  1  0
 54 64  1  0
 55 61  1  0
 55 57  1  0
 56 62  1  0
 57 58  2  0
 57 56  1  0
 59 60  1  0
 59 53  2  0
 60 55  2  0
 61 54  1  0
 62 52  1  0
 64 66  2  0
 65 64  1  0
 67 65  1  0
 68 77  2  0
 68 73  1  0
 69 65  1  0
 69 73  1  0
 70 69  1  0
 71 72  1  0
 71 70  1  0
 72 68  1  0
 73 74  2  0
 74 75  1  0
 76 75  2  0
 77 76  1  0
 78 52  1  0
 78 83  1  0
 78 79  1  0
 79 82  1  1
 79 80  1  0
 81 79  1  0
 83 86  1  0
 84 88  1  0
 84 83  1  0
 85 84  2  0
 88 87  1  0
 90 88  1  0
 90 91  1  0
 90 89  1  0
M  ISO  4  10 100  18 100  50 101  51 101
M  END
>  <TORSDO>  (46) 
F 20

>  <SCORE>  (46) 
-10.646

>  <name>  (46) 
46

>  <ligand_id>  (46) 
46

>  <original_smiles>  (46) 
[H]c1c([H])c([H])c2c(c1[H])C([H])([H])C([H])([H])C([H])([H])C2([H])N([H])C(=O)C1([H])N(C(=O)C([H])(N([H])C(=O)C([H])(N([H])C([H])([H])[H])C([H])([H])[H])C(C([H])([H])[H])(C([H])([H])[H])C([H])([H])[H])C([H])([H])c2c([H])c(OC([H])([H])C([H])([H])C([H])([H])[N+]3([H])C([H])([H])C([H])([H])C([H])([H])C4(C([H])([H])N([H])C(=O)N5C([H])([H])C([H])([H])C([H])([H])C([H])(n6nc(-c7c([H])c([H])c(Oc8c([H])c([H])c(F)c([H])c8F)c([H])c7[H])c(C(=O)N([H])[H])c6N([H])[H])C5([H])[H])C([H])([H])C43[H])c([H])c([H])c2C1([H])[H]

>  <smiles>  (46) 
[H]c1c([H])c([H])c2c(c1[H])C([H])([H])C([H])([H])C([H])([H])C2([H])N([H])C(=O)C1([H])N(C(=O)C([H])(N([H])C(=O)C([H])(N([H])C([H])([H])[H])C([H])([H])[H])C(C([H])([H])[H])(C([H])([H])[H])C([H])([H])[H])C([H])([H])c2c([H])c(OC([H])([H])C([H])([H])C([H])([H])[N+]3([H])C([H])([H])C([H])([H])C([H])([H])C4(C([H])([H])N([H])C(=O)N5C([H])([H])C([H])([H])C([H])([H])C([H])(n6nc(-c7c([H])c([H])c(Oc8c([H])c([H])c(F)c([H])c8F)c([H])c7[H])c(C(=O)N([H])[H])c6N([H])[H])C5([H])[H])C([H])([H])C43[H])c([H])c([H])c2C1([H])[H]

$$$$
47:0:0
     RDKit          3D

 92101  0  0  1  0  0  0  0  0999 V2000
  -29.9230  -22.0650   22.6920 C   0  0  0  0  0  2  0  0  0  0  0  0
  -29.0100  -23.2140   22.1850 C   0  0  0  0  0  2  0  0  0  0  0  0
  -30.7470  -19.8660   21.4890 C   0  0  0  0  0  2  0  0  0  0  0  0
  -30.6510  -21.4320   21.4850 C   0  0  0  0  0  3  0  0  0  0  0  0
  -29.8620  -21.9210   20.2480 C   0  0  0  0  0  3  0  0  0  0  0  0
  -29.5670  -19.2820   20.6860 C   0  0  0  0  0  3  0  0  0  0  0  0
  -29.3460  -23.5090   20.7090 C   0  0  2  0  0  0  0  0  0  0  0  0
  -30.6630  -24.3430   20.6780 C   0  0  0  0  0  1  0  0  0  0  0  0
  -29.0850  -20.5950   19.9400 N   0  0  0  0  0  4  0  0  0  0  0  0
  -29.1390  -20.4420   18.9440 H   0  0  0  0  0  0  0  0  0  0  0  0
  -28.1150  -20.7490   20.1570 H   0  0  0  0  0  0  0  0  0  0  0  0
  -29.9320  -17.7870   19.9170 C   0  0  0  0  0  2  0  0  0  0  0  0
  -30.5870  -15.0840   20.2700 C   0  0  0  0  0  0  0  0  0  0  0  0
  -30.4670  -12.7180   19.3460 C   0  0  0  0  0  2  0  0  0  0  0  0
  -29.5400  -12.6620   18.1080 C   0  0  0  0  0  2  0  0  0  0  0  0
  -28.0750  -12.4400   18.5320 C   0  0  0  0  0  2  0  0  0  0  0  0
  -27.6620  -13.3560   19.7130 C   0  0  0  0  0  3  0  0  0  0  0  0
  -28.7170  -13.3870   20.8410 C   0  0  0  0  0  2  0  0  0  0  0  0
  -29.9870  -13.8180   20.2430 N   0  0  0  0  0  0  0  0  0  0  0  0
  -31.7650  -15.1370   19.9060 O   0  0  0  0  0  0  0  0  0  0  0  0
  -29.8460  -16.2920   20.5020 N   0  0  0  0  0  0  0  0  0  0  0  0
  -28.9540  -16.1020   20.9370 H   0  0  0  0  0  0  0  0  0  0  0  0
  -25.2710  -13.9070   20.4410 C   0  0  0  0  0  0  0  0  0  0  0  0
  -24.2120  -13.1250   20.8160 C   0  0  0  0  0  0  0  0  0  0  0  0
  -24.6890  -11.7770   20.7940 C   0  0  0  0  0  0  0  0  0  0  0  0
  -26.3250  -13.0390   20.2100 N   0  0  0  0  0  0  0  0  0  0  0  0
  -25.9820  -11.7520   20.4860 N   0  0  0  0  0  0  0  0  0  0  0  0
  -23.9690  -10.5120   20.9920 C   0  0  0  0  0  0  0  0  0  0  0  0
  -24.4060   -9.5520   21.9320 C   0  0  0  0  0  3  0  0  0  0  0  0
  -23.6860   -8.3510   22.1160 C   0  0  0  0  0  3  0  0  0  0  0  0
  -22.5150   -8.1030   21.3610 C   0  0  0  0  0  0  0  0  0  0  0  0
  -22.0980   -9.0500   20.4100 C   0  0  0  0  0  3  0  0  0  0  0  0
  -22.8180  -10.2410   20.2230 C   0  0  0  0  0  3  0  0  0  0  0  0
  -21.7640   -6.9550   21.4570 O   0  0  0  0  0  0  0  0  0  0  0  0
  -21.7170   -6.2190   22.6140 C   0  0  0  0  0  0  0  0  0  0  0  0
  -21.2820   -6.7780   23.8350 C   0  0  0  0  0  3  0  0  0  0  0  0
  -21.1810   -5.9660   24.9830 C   0  0  0  0  0  3  0  0  0  0  0  0
  -21.5050   -4.5980   24.9120 C   0  0  0  0  0  0  0  0  0  0  0  0
  -21.9340   -4.0410   23.6950 C   0  0  0  0  0  3  0  0  0  0  0  0
  -22.0340   -4.8480   22.5490 C   0  0  0  0  0  0  0  0  0  0  0  0
  -22.4260   -4.2990   21.3740 F   0  0  0  0  0  0  0  0  0  0  0  0
  -21.4010   -3.8180   26.0140 F   0  0  0  0  0  0  0  0  0  0  0  0
  -22.8090  -13.5940   21.0760 C   0  0  0  0  0  0  0  0  0  0  0  0
  -22.0740  -12.9040   21.9420 N   0  0  0  0  0  0  0  0  0  0  0  0
  -22.3700  -14.6110   20.5450 O   0  0  0  0  0  0  0  0  0  0  0  0
  -22.4440  -12.0880   22.4090 H   0  0  0  0  0  0  0  0  0  0  0  0
  -21.1320  -13.2000   22.1520 H   0  0  0  0  0  0  0  0  0  0  0  0
  -25.4190  -15.2790   20.2520 N   0  0  0  0  0  0  0  0  0  0  0  0
  -24.6390  -15.9200   20.3490 H   0  0  0  0  0  0  0  0  0  0  0  0
  -26.2510  -15.7160   19.8750 H   0  0  0  0  0  0  0  0  0  0  0  0
  -28.2780  -24.6800   20.0550 C   0  0  0  0  0  2  0  0  0  0  0  0
  -28.3430  -26.2310   20.3310 O   0  0  0  0  0  0  0  0  0  0  0  0
  -24.6330  -31.9040   23.2440 C   0  0  0  0  0  0  0  0  0  0  0  0
  -27.2500  -27.1840   20.2360 C   0  0  0  0  0  0  0  0  0  0  0  0
  -23.4350  -30.4980   21.6040 C   0  0  0  0  0  3  0  0  0  0  0  0
  -24.8980  -28.9130   20.1930 C   0  0  0  0  0  0  0  0  0  0  0  0
  -25.9870  -30.7760   21.4400 C   0  0  0  0  0  2  0  0  0  0  0  0
  -26.0710  -29.3750   20.7970 C   0  0  0  0  0  0  0  0  0  0  0  0
  -27.2440  -28.5270   20.8010 C   0  0  0  0  0  3  0  0  0  0  0  0
  -26.0480  -26.8190   19.5920 C   0  0  0  0  0  3  0  0  0  0  0  0
  -24.8980  -27.6500   19.5760 C   0  0  0  0  0  3  0  0  0  0  0  0
  -23.6620  -29.8060   20.2300 C   0  0  0  0  0  2  0  0  0  0  0  0
  -24.7020  -31.0830   22.1500 N   0  0  0  0  0  0  0  0  0  0  0  0
  -23.5460  -32.1890   23.7720 O   0  0  0  0  0  0  0  0  0  0  0  0
  -22.7570  -29.4990   22.5750 C   0  0  0  0  0  0  0  0  0  0  0  0
  -21.4270  -29.3310   22.4510 N   0  0  0  0  0  0  0  0  0  0  0  0
  -23.4290  -28.8770   23.4000 O   0  0  0  0  0  0  0  0  0  0  0  0
  -20.9430  -29.8840   21.7560 H   0  0  0  0  0  0  0  0  0  0  0  0
  -18.0460  -28.1330   22.9580 C   0  0  0  0  0  0  0  0  0  0  0  0
  -20.6070  -28.3960   23.2240 C   0  0  0  0  0  3  0  0  0  0  0  0
  -20.7060  -26.9620   22.6520 C   0  0  0  0  0  2  0  0  0  0  0  0
  -19.6030  -26.6380   21.6390 C   0  0  0  0  0  2  0  0  0  0  0  0
  -18.2210  -26.7840   22.2820 C   0  0  0  0  0  2  0  0  0  0  0  0
  -19.1660  -28.8960   23.3860 C   0  0  0  0  0  0  0  0  0  0  0  0
  -18.9450  -30.1580   23.9780 C   0  0  0  0  0  3  0  0  0  0  0  0
  -17.6390  -30.6590   24.1450 C   0  0  0  0  0  3  0  0  0  0  0  0
  -16.5360  -29.8930   23.7320 C   0  0  0  0  0  3  0  0  0  0  0  0
  -16.7400  -28.6310   23.1460 C   0  0  0  0  0  3  0  0  0  0  0  0
  -25.9100  -32.5420   23.8720 C   0  0  0  0  0  3  0  0  0  0  0  0
  -25.6010  -33.9410   24.2040 N   0  0  0  0  0  0  0  0  0  0  0  0
  -25.9270  -34.9950   23.4440 C   0  0  0  0  0  0  0  0  0  0  0  0
  -26.5850  -34.8920   22.4070 O   0  0  0  0  0  0  0  0  0  0  0  0
  -25.0160  -34.0980   25.0130 H   0  0  0  0  0  0  0  0  0  0  0  0
  -24.1910  -36.7860   23.1140 C   0  0  0  0  0  1  0  0  0  0  0  0
  -25.4460  -36.3850   23.9070 C   0  0  0  0  0  3  0  0  0  0  0  0
  -27.5910  -37.2770   24.7040 C   0  0  0  0  0  1  0  0  0  0  0  0
  -26.4760  -37.4390   23.7740 N   0  0  0  0  0  0  0  0  0  0  0  0
  -26.0710  -38.3590   23.9210 H   0  0  0  0  0  0  0  0  0  0  0  0
  -26.4200  -31.7740   25.1550 C   0  0  1  0  0  0  0  0  0  0  0  0
  -25.3210  -31.5450   26.2190 C   0  0  0  0  0  1  0  0  0  0  0  0
  -27.0030  -30.3930   24.7740 C   0  0  0  0  0  1  0  0  0  0  0  0
  -27.5720  -32.5670   25.8180 C   0  0  0  0  0  1  0  0  0  0  0  0
  2  1  1  0
  4  3  1  0
  4  1  1  0
  5  9  1  0
  5  7  1  0
  5  4  1  0
  6 12  1  0
  6  3  1  0
  7  8  1  1
  7  2  1  0
  9 11  1  0
  9  6  1  0
 10  9  1  0
 12 21  1  0
 13 21  1  0
 14 19  1  0
 15 16  1  0
 15 14  1  0
 17 16  1  0
 17 26  1  0
 17 18  1  0
 19 13  1  0
 19 18  1  0
 20 13  2  0
 21 22  1  0
 23 24  2  0
 24 43  1  0
 25 24  1  0
 25 28  1  0
 26 23  1  0
 26 27  1  0
 27 25  2  0
 28 29  1  0
 29 30  2  0
 31 34  1  0
 31 30  1  0
 32 31  2  0
 33 32  1  0
 33 28  2  0
 34 35  1  0
 35 36  1  0
 36 37  2  0
 38 37  1  0
 38 42  1  0
 39 38  2  0
 40 35  2  0
 40 39  1  0
 41 40  1  0
 43 44  1  0
 44 47  1  0
 44 46  1  0
 45 43  2  0
 48 49  1  0
 48 23  1  0
 50 48  1  0
 51 52  1  0
 51  7  1  0
 53 64  2  0
 54 52  1  0
 54 59  1  0
 55 63  1  0
 55 65  1  0
 56 62  1  0
 56 58  1  0
 57 63  1  0
 58 59  2  0
 58 57  1  0
 60 54  2  0
 61 60  1  0
 61 56  2  0
 62 55  1  0
 63 53  1  0
 65 67  2  0
 66 65  1  0
 68 66  1  0
 69 78  2  0
 69 74  1  0
 70 66  1  0
 70 74  1  0
 71 70  1  0
 72 73  1  0
 72 71  1  0
 73 69  1  0
 74 75  2  0
 75 76  1  0
 77 76  2  0
 78 77  1  0
 79 53  1  0
 79 80  1  0
 79 89  1  0
 80 83  1  0
 81 85  1  0
 81 80  1  0
 82 81  2  0
 85 84  1  0
 87 85  1  0
 87 88  1  0
 87 86  1  0
 89 92  1  1
 89 90  1  0
 91 89  1  0
M  ISO  4  13 100  21 100  51 101  52 101
M  END
>  <TORSDO>  (47) 
F 18

>  <SCORE>  (47) 
-16.176

>  <name>  (47) 
47

>  <ligand_id>  (47) 
47

>  <original_smiles>  (47) 
[H]c1c([H])c([H])c2c(c1[H])C([H])([H])C([H])([H])C([H])([H])C2([H])N([H])C(=O)C1([H])N(C(=O)C([H])(N([H])C(=O)C([H])(N([H])C([H])([H])[H])C([H])([H])[H])C(C([H])([H])[H])(C([H])([H])[H])C([H])([H])[H])C([H])([H])c2c([H])c(OC([H])([H])C3(C([H])([H])[H])C([H])([H])C([H])([H])C4([H])C([H])([H])C([H])(C([H])([H])N([H])C(=O)N5C([H])([H])C([H])([H])C([H])([H])C([H])(n6nc(-c7c([H])c([H])c(Oc8c([H])c([H])c(F)c([H])c8F)c([H])c7[H])c(C(=O)N([H])[H])c6N([H])[H])C5([H])[H])[N+]([H])([H])C43[H])c([H])c([H])c2C1([H])[H]

>  <smiles>  (47) 
[H]c1c([H])c([H])c2c(c1[H])C([H])([H])C([H])([H])C([H])([H])C2([H])N([H])C(=O)C1([H])N(C(=O)C([H])(N([H])C(=O)C([H])(N([H])C([H])([H])[H])C([H])([H])[H])C(C([H])([H])[H])(C([H])([H])[H])C([H])([H])[H])C([H])([H])c2c([H])c(OC([H])([H])C3(C([H])([H])[H])C([H])([H])C([H])([H])C4([H])C([H])([H])C([H])(C([H])([H])N([H])C(=O)N5C([H])([H])C([H])([H])C([H])([H])C([H])(n6nc(-c7c([H])c([H])c(Oc8c([H])c([H])c(F)c([H])c8F)c([H])c7[H])c(C(=O)N([H])[H])c6N([H])[H])C5([H])[H])[N+]([H])([H])C43[H])c([H])c([H])c2C1([H])[H]

$$$$
48:0:0
     RDKit          3D

 92101  0  0  1  0  0  0  0  0999 V2000
  -30.3940  -21.8610   20.8290 C   0  0  0  0  0  3  0  0  0  0  0  0
  -30.3480  -20.4380   20.8210 C   0  0  0  0  0  3  0  0  0  0  0  0
  -28.2120  -21.9570   19.8220 C   0  0  0  0  0  3  0  0  0  0  0  0
  -29.3310  -22.6640   20.3280 C   0  0  0  0  0  0  0  0  0  0  0  0
  -29.2300  -19.7320   20.3120 C   0  0  0  0  0  0  0  0  0  0  0  0
  -28.1580  -20.5320   19.8150 C   0  0  0  0  0  0  0  0  0  0  0  0
  -26.9070  -19.8680   19.2630 C   0  0  0  0  0  1  0  0  0  0  0  0
  -29.4460  -17.5450   18.9640 C   0  0  0  0  0  2  0  0  0  0  0  0
  -29.1380  -18.1830   20.2910 C   0  0  0  0  0  3  0  0  0  0  0  0
  -30.2380  -17.0720   20.1610 C   0  0  0  0  0  3  0  0  0  0  0  0
  -30.7650  -14.5880   20.1490 C   0  0  0  0  0  0  0  0  0  0  0  0
  -30.4390  -12.4110   19.0190 C   0  0  0  0  0  2  0  0  0  0  0  0
  -29.4490  -12.6290   17.8540 C   0  0  0  0  0  2  0  0  0  0  0  0
  -27.9920  -12.4910   18.3420 C   0  0  0  0  0  2  0  0  0  0  0  0
  -27.7130  -13.3090   19.6310 C   0  0  0  0  0  3  0  0  0  0  0  0
  -28.8140  -13.0770   20.6920 C   0  0  0  0  0  2  0  0  0  0  0  0
  -30.1090  -13.3910   20.0700 N   0  0  0  0  0  0  0  0  0  0  0  0
  -31.9080  -14.7360   19.7070 O   0  0  0  0  0  0  0  0  0  0  0  0
  -29.9970  -15.6610   20.4850 N   0  0  0  0  0  0  0  0  0  0  0  0
  -29.0820  -15.4350   20.8460 H   0  0  0  0  0  0  0  0  0  0  0  0
  -25.3600  -13.9340   20.4570 C   0  0  0  0  0  0  0  0  0  0  0  0
  -24.2960  -13.1700   20.8520 C   0  0  0  0  0  0  0  0  0  0  0  0
  -24.7330  -11.8130   20.7710 C   0  0  0  0  0  0  0  0  0  0  0  0
  -26.3790  -13.0410   20.1610 N   0  0  0  0  0  0  0  0  0  0  0  0
  -26.0090  -11.7590   20.4090 N   0  0  0  0  0  0  0  0  0  0  0  0
  -23.9930  -10.5580   20.9620 C   0  0  0  0  0  0  0  0  0  0  0  0
  -24.4260   -9.5780   21.8820 C   0  0  0  0  0  3  0  0  0  0  0  0
  -23.6890   -8.3880   22.0610 C   0  0  0  0  0  3  0  0  0  0  0  0
  -22.5030   -8.1700   21.3210 C   0  0  0  0  0  0  0  0  0  0  0  0
  -22.0880   -9.1390   20.3880 C   0  0  0  0  0  3  0  0  0  0  0  0
  -22.8270  -10.3200   20.2080 C   0  0  0  0  0  3  0  0  0  0  0  0
  -21.7350   -7.0340   21.4100 O   0  0  0  0  0  0  0  0  0  0  0  0
  -21.6660   -6.3020   22.5680 C   0  0  0  0  0  0  0  0  0  0  0  0
  -21.2040   -6.8630   23.7780 C   0  0  0  0  0  3  0  0  0  0  0  0
  -21.0840   -6.0560   24.9270 C   0  0  0  0  0  3  0  0  0  0  0  0
  -21.4160   -4.6900   24.8670 C   0  0  0  0  0  0  0  0  0  0  0  0
  -21.8710   -4.1280   23.6610 C   0  0  0  0  0  3  0  0  0  0  0  0
  -21.9930   -4.9320   22.5140 C   0  0  0  0  0  0  0  0  0  0  0  0
  -22.4110   -4.3820   21.3490 F   0  0  0  0  0  0  0  0  0  0  0  0
  -21.2920   -3.9120   25.9680 F   0  0  0  0  0  0  0  0  0  0  0  0
  -22.9190  -13.6630   21.1940 C   0  0  0  0  0  0  0  0  0  0  0  0
  -22.2170  -12.9600   22.0750 N   0  0  0  0  0  0  0  0  0  0  0  0
  -22.4770  -14.7060   20.7160 O   0  0  0  0  0  0  0  0  0  0  0  0
  -22.5870  -12.1140   22.4840 H   0  0  0  0  0  0  0  0  0  0  0  0
  -21.2950  -13.2710   22.3470 H   0  0  0  0  0  0  0  0  0  0  0  0
  -25.5410  -15.3060   20.3050 N   0  0  0  0  0  0  0  0  0  0  0  0
  -24.7890  -15.9660   20.4710 H   0  0  0  0  0  0  0  0  0  0  0  0
  -26.3750  -15.7410   19.9340 H   0  0  0  0  0  0  0  0  0  0  0  0
  -29.4220  -24.1950   20.3650 C   0  0  0  0  0  0  0  0  0  0  0  0
  -30.4320  -24.7660   20.7930 O   0  0  0  0  0  0  0  0  0  0  0  0
  -28.2370  -25.0800   19.8520 C   0  0  0  0  0  2  0  0  0  0  0  0
  -28.4220  -26.5300   20.0340 O   0  0  0  0  0  0  0  0  0  0  0  0
  -24.5480  -31.7410   23.1010 C   0  0  0  0  0  0  0  0  0  0  0  0
  -27.2750  -27.3230   19.9840 C   0  0  0  0  0  0  0  0  0  0  0  0
  -23.3830  -30.3540   21.4220 C   0  0  0  0  0  3  0  0  0  0  0  0
  -24.8730  -28.8610   19.9820 C   0  0  0  0  0  0  0  0  0  0  0  0
  -25.9140  -30.7310   21.2650 C   0  0  0  0  0  2  0  0  0  0  0  0
  -26.0240  -29.3700   20.5950 C   0  0  0  0  0  0  0  0  0  0  0  0
  -27.2280  -28.6130   20.5870 C   0  0  0  0  0  3  0  0  0  0  0  0
  -26.0990  -26.8570   19.3480 C   0  0  0  0  0  3  0  0  0  0  0  0
  -24.9110  -27.6090   19.3510 C   0  0  0  0  0  3  0  0  0  0  0  0
  -23.6190  -29.7070   20.0320 C   0  0  0  0  0  2  0  0  0  0  0  0
  -24.6320  -30.9570   21.9870 N   0  0  0  0  0  0  0  0  0  0  0  0
  -23.4570  -31.9880   23.6320 O   0  0  0  0  0  0  0  0  0  0  0  0
  -22.7310  -29.3060   22.3560 C   0  0  0  0  0  0  0  0  0  0  0  0
  -21.4020  -29.1440   22.2450 N   0  0  0  0  0  0  0  0  0  0  0  0
  -23.4190  -28.6440   23.1370 O   0  0  0  0  0  0  0  0  0  0  0  0
  -20.9060  -29.7300   21.5880 H   0  0  0  0  0  0  0  0  0  0  0  0
  -18.0150  -28.0090   22.8070 C   0  0  0  0  0  0  0  0  0  0  0  0
  -20.5880  -28.1870   22.9950 C   0  0  0  0  0  3  0  0  0  0  0  0
  -20.6290  -26.7860   22.3420 C   0  0  0  0  0  2  0  0  0  0  0  0
  -19.4830  -26.5470   21.3550 C   0  0  0  0  0  2  0  0  0  0  0  0
  -18.1290  -26.6940   22.0560 C   0  0  0  0  0  2  0  0  0  0  0  0
  -19.1700  -28.7180   23.2350 C   0  0  0  0  0  0  0  0  0  0  0  0
  -19.0070  -29.9530   23.8990 C   0  0  0  0  0  3  0  0  0  0  0  0
  -17.7230  -30.4780   24.1400 C   0  0  0  0  0  3  0  0  0  0  0  0
  -16.5840  -29.7650   23.7270 C   0  0  0  0  0  3  0  0  0  0  0  0
  -16.7310  -28.5320   23.0670 C   0  0  0  0  0  3  0  0  0  0  0  0
  -25.8160  -32.3810   23.7470 C   0  0  0  0  0  3  0  0  0  0  0  0
  -26.3350  -31.5910   25.0110 C   0  0  1  0  0  0  0  0  0  0  0  0
  -25.2370  -31.3130   26.0640 C   0  0  0  0  0  1  0  0  0  0  0  0
  -26.9440  -30.2320   24.5960 C   0  0  0  0  0  1  0  0  0  0  0  0
  -27.4650  -32.3910   25.7000 C   0  0  0  0  0  1  0  0  0  0  0  0
  -25.4810  -33.7670   24.1020 N   0  0  0  0  0  0  0  0  0  0  0  0
  -25.7920  -34.8390   23.3600 C   0  0  0  0  0  0  0  0  0  0  0  0
  -26.4630  -34.7650   22.3270 O   0  0  0  0  0  0  0  0  0  0  0  0
  -24.8870  -33.8970   24.9070 H   0  0  0  0  0  0  0  0  0  0  0  0
  -24.0300  -36.6040   23.0400 C   0  0  0  0  0  1  0  0  0  0  0  0
  -25.2790  -36.2100   23.8430 C   0  0  0  0  0  3  0  0  0  0  0  0
  -27.3930  -37.1240   24.6940 C   0  0  0  0  0  1  0  0  0  0  0  0
  -26.2910  -37.2840   23.7480 N   0  0  0  0  0  0  0  0  0  0  0  0
  -25.8680  -38.1930   23.9060 H   0  0  0  0  0  0  0  0  0  0  0  0
  2  1  1  0
  3  4  1  0
  4 49  1  0
  4  1  2  0
  5  2  2  0
  6  3  2  0
  6  5  1  0
  7  6  1  0
  8 10  1  0
  8  9  1  0
  9  5  1  0
 10  9  1  0
 10 19  1  0
 11 19  1  0
 12 17  1  0
 13 14  1  0
 13 12  1  0
 15 14  1  0
 15 24  1  0
 15 16  1  0
 17 11  1  0
 17 16  1  0
 18 11  2  0
 19 20  1  0
 21 22  2  0
 22 41  1  0
 23 22  1  0
 23 26  1  0
 24 25  1  0
 24 21  1  0
 25 23  2  0
 26 27  1  0
 27 28  2  0
 29 32  1  0
 29 28  1  0
 30 29  2  0
 31 30  1  0
 31 26  2  0
 32 33  1  0
 33 34  1  0
 34 35  2  0
 36 35  1  0
 36 40  1  0
 37 36  2  0
 38 33  2  0
 38 37  1  0
 39 38  1  0
 41 42  1  0
 42 45  1  0
 42 44  1  0
 43 41  2  0
 46 21  1  0
 46 47  1  0
 48 46  1  0
 49 50  2  0
 51 52  1  0
 51 49  1  0
 53 64  2  0
 54 52  1  0
 54 59  1  0
 55 63  1  0
 55 65  1  0
 56 62  1  0
 56 58  1  0
 57 63  1  0
 58 57  1  0
 59 58  2  0
 60 61  1  0
 60 54  2  0
 61 56  2  0
 62 55  1  0
 63 53  1  0
 65 67  2  0
 66 65  1  0
 68 66  1  0
 69 78  2  0
 69 74  1  0
 70 66  1  0
 70 74  1  0
 71 70  1  0
 72 73  1  0
 72 71  1  0
 73 69  1  0
 74 75  2  0
 75 76  1  0
 77 76  2  0
 78 77  1  0
 79 53  1  0
 79 84  1  0
 79 80  1  0
 80 83  1  1
 80 81  1  0
 82 80  1  0
 84 87  1  0
 85 89  1  0
 85 84  1  0
 86 85  2  0
 89 88  1  0
 91 89  1  0
 91 92  1  0
 91 90  1  0
M  ISO  4  11 100  19 100  51 101  52 101
M  END
>  <TORSDO>  (48) 
F 19

>  <SCORE>  (48) 
-14.103

>  <name>  (48) 
48

>  <ligand_id>  (48) 
48

>  <original_smiles>  (48) 
[H]c1c([H])c([H])c2c(c1[H])C([H])([H])C([H])([H])C([H])([H])C2([H])N([H])C(=O)C1([H])N(C(=O)C([H])(N([H])C(=O)C([H])(N([H])C([H])([H])[H])C([H])([H])[H])C(C([H])([H])[H])(C([H])([H])[H])C([H])([H])[H])C([H])([H])c2c([H])c(OC([H])([H])C(=O)c3c([H])c([H])c(C4([H])C([H])([H])C4([H])N([H])C(=O)N4C([H])([H])C([H])([H])C([H])([H])C([H])(n5nc(-c6c([H])c([H])c(Oc7c([H])c([H])c(F)c([H])c7F)c([H])c6[H])c(C(=O)N([H])[H])c5N([H])[H])C4([H])[H])c(C([H])([H])[H])c3[H])c([H])c([H])c2C1([H])[H]

>  <smiles>  (48) 
[H]c1c([H])c([H])c2c(c1[H])C([H])([H])C([H])([H])C([H])([H])C2([H])N([H])C(=O)C1([H])N(C(=O)C([H])(N([H])C(=O)C([H])(N([H])C([H])([H])[H])C([H])([H])[H])C(C([H])([H])[H])(C([H])([H])[H])C([H])([H])[H])C([H])([H])c2c([H])c(OC([H])([H])C(=O)c3c([H])c([H])c(C4([H])C([H])([H])C4([H])N([H])C(=O)N4C([H])([H])C([H])([H])C([H])([H])C([H])(n5nc(-c6c([H])c([H])c(Oc7c([H])c([H])c(F)c([H])c7F)c([H])c6[H])c(C(=O)N([H])[H])c5N([H])[H])C4([H])[H])c(C([H])([H])[H])c3[H])c([H])c([H])c2C1([H])[H]

$$$$
49:0:0
     RDKit          3D

 96105  0  0  1  0  0  0  0  0999 V2000
  -29.1430  -21.4720   18.2040 C   0  0  0  0  0  2  0  0  0  0  0  0
  -29.4910  -20.6170   16.9710 C   0  0  0  0  0  2  0  0  0  0  0  0
  -31.2450  -17.8280   16.4270 C   0  0  0  0  0  2  0  0  0  0  0  0
  -30.3290  -18.3200   15.2890 C   0  0  0  0  0  2  0  0  0  0  0  0
  -28.2810  -17.3950   16.6780 C   0  0  0  0  0  2  0  0  0  0  0  0
  -30.5990  -17.8520   17.8550 C   0  0  0  0  0  3  0  0  0  0  0  0
  -28.8680  -18.4650   15.7500 C   0  0  0  0  0  3  0  0  0  0  0  0
  -29.0820  -18.1470   17.7500 C   0  0  0  0  0  3  0  0  0  0  0  0
  -28.7320  -19.3300   16.9270 N   0  0  1  0  0  4  0  0  0  0  0  0
  -27.7500  -19.5360   17.0350 H   0  0  0  0  0  0  0  0  0  0  0  0
  -30.9470  -16.4780   18.4970 C   0  0  0  0  0  2  0  0  0  0  0  0
  -31.1120  -15.0580   20.4360 C   0  0  0  0  0  0  0  0  0  0  0  0
  -30.8110  -12.8650   19.3900 C   0  0  0  0  0  2  0  0  0  0  0  0
  -29.9080  -12.9690   18.1410 C   0  0  0  0  0  2  0  0  0  0  0  0
  -28.4120  -12.9810   18.5190 C   0  0  0  0  0  2  0  0  0  0  0  0
  -28.0480  -13.8430   19.7620 C   0  0  0  0  0  3  0  0  0  0  0  0
  -29.0750  -13.6600   20.8990 C   0  0  0  0  0  2  0  0  0  0  0  0
  -30.4070  -13.9070   20.3380 N   0  0  0  0  0  0  0  0  0  0  0  0
  -32.3420  -15.0840   20.4560 O   0  0  0  0  0  0  0  0  0  0  0  0
  -30.4850  -16.1000   19.8490 N   0  0  0  0  0  0  0  0  0  0  0  0
  -30.2850  -16.8720   20.4700 H   0  0  0  0  0  0  0  0  0  0  0  0
  -25.6020  -14.4080   20.3480 C   0  0  0  0  0  0  0  0  0  0  0  0
  -24.5260  -13.6250   20.6640 C   0  0  0  0  0  0  0  0  0  0  0  0
  -25.0110  -12.2830   20.6960 C   0  0  0  0  0  0  0  0  0  0  0  0
  -26.6770  -13.5490   20.1920 N   0  0  0  0  0  0  0  0  0  0  0  0
  -26.3190  -12.2650   20.4660 N   0  0  0  0  0  0  0  0  0  0  0  0
  -24.2950  -11.0120   20.8680 C   0  0  0  0  0  0  0  0  0  0  0  0
  -24.7130  -10.0420   21.8060 C   0  0  0  0  0  3  0  0  0  0  0  0
  -23.9940   -8.8360   21.9600 C   0  0  0  0  0  3  0  0  0  0  0  0
  -22.8380   -8.5960   21.1760 C   0  0  0  0  0  0  0  0  0  0  0  0
  -22.4410   -9.5520   20.2250 C   0  0  0  0  0  3  0  0  0  0  0  0
  -23.1620  -10.7480   20.0710 C   0  0  0  0  0  3  0  0  0  0  0  0
  -22.0920   -7.4440   21.2390 O   0  0  0  0  0  0  0  0  0  0  0  0
  -21.9640   -6.7340   22.4050 C   0  0  0  0  0  0  0  0  0  0  0  0
  -21.4570   -7.3230   23.5860 C   0  0  0  0  0  3  0  0  0  0  0  0
  -21.2820   -6.5380   24.7430 C   0  0  0  0  0  3  0  0  0  0  0  0
  -21.6040   -5.1660   24.7220 C   0  0  0  0  0  0  0  0  0  0  0  0
  -22.1080   -4.5810   23.5480 C   0  0  0  0  0  3  0  0  0  0  0  0
  -22.2840   -5.3620   22.3930 C   0  0  0  0  0  0  0  0  0  0  0  0
  -22.7520   -4.7860   21.2570 F   0  0  0  0  0  0  0  0  0  0  0  0
  -21.4310   -4.4140   25.8320 F   0  0  0  0  0  0  0  0  0  0  0  0
  -23.1080  -14.0850   20.8380 C   0  0  0  0  0  0  0  0  0  0  0  0
  -22.3460  -13.4120   21.6890 N   0  0  0  0  0  0  0  0  0  0  0  0
  -22.6870  -15.0850   20.2570 O   0  0  0  0  0  0  0  0  0  0  0  0
  -22.6890  -12.5960   22.1710 H   0  0  0  0  0  0  0  0  0  0  0  0
  -21.3980  -13.7200   21.8550 H   0  0  0  0  0  0  0  0  0  0  0  0
  -25.7520  -15.7810   20.1600 N   0  0  0  0  0  0  0  0  0  0  0  0
  -24.9640  -16.4140   20.2280 H   0  0  0  0  0  0  0  0  0  0  0  0
  -26.6220  -16.2360   19.9130 H   0  0  0  0  0  0  0  0  0  0  0  0
  -29.0930  -22.9920   17.9200 C   0  0  0  0  0  2  0  0  0  0  0  0
  -28.8560  -23.7480   19.1710 N   0  0  0  0  0  4  0  0  0  0  0  0
  -29.5210  -23.4280   19.8590 H   0  0  0  0  0  0  0  0  0  0  0  0
  -27.9390  -23.4950   19.5080 H   0  0  0  0  0  0  0  0  0  0  0  0
  -28.9240  -25.2280   19.0950 C   0  0  0  0  0  2  0  0  0  0  0  0
  -28.7480  -25.8080   20.5170 C   0  0  0  0  0  2  0  0  0  0  0  0
  -28.7520  -27.2340   20.5680 O   0  0  0  0  0  0  0  0  0  0  0  0
  -24.7030  -32.2280   23.6250 C   0  0  0  0  0  0  0  0  0  0  0  0
  -27.5370  -27.8840   20.5710 C   0  0  0  0  0  0  0  0  0  0  0  0
  -23.5740  -30.8040   21.9470 C   0  0  0  0  0  3  0  0  0  0  0  0
  -25.0960  -29.3080   20.5580 C   0  0  0  0  0  0  0  0  0  0  0  0
  -26.0950  -31.2260   21.8170 C   0  0  0  0  0  2  0  0  0  0  0  0
  -26.2260  -29.8630   21.1730 C   0  0  0  0  0  0  0  0  0  0  0  0
  -27.4480  -29.1570   21.1740 C   0  0  0  0  0  3  0  0  0  0  0  0
  -26.3820  -27.3320   19.9680 C   0  0  0  0  0  3  0  0  0  0  0  0
  -25.1670  -28.0380   19.9620 C   0  0  0  0  0  3  0  0  0  0  0  0
  -23.8330  -30.1350   20.5710 C   0  0  0  0  0  2  0  0  0  0  0  0
  -24.8070  -31.4330   22.5200 N   0  0  0  0  0  0  0  0  0  0  0  0
  -23.6010  -32.4710   24.1370 O   0  0  0  0  0  0  0  0  0  0  0  0
  -22.9230  -29.7630   22.8870 C   0  0  0  0  0  0  0  0  0  0  0  0
  -21.6340  -29.4710   22.6540 N   0  0  0  0  0  0  0  0  0  0  0  0
  -23.5830  -29.2180   23.7760 O   0  0  0  0  0  0  0  0  0  0  0  0
  -21.1650  -29.9690   21.9110 H   0  0  0  0  0  0  0  0  0  0  0  0
  -18.3520  -27.9730   22.8550 C   0  0  0  0  0  0  0  0  0  0  0  0
  -20.8260  -28.4960   23.3870 C   0  0  0  0  0  3  0  0  0  0  0  0
  -21.1260  -27.0560   22.9090 C   0  0  0  0  0  2  0  0  0  0  0  0
  -20.1810  -26.5770   21.8020 C   0  0  0  0  0  2  0  0  0  0  0  0
  -18.7290  -26.6170   22.2840 C   0  0  0  0  0  2  0  0  0  0  0  0
  -19.3390  -28.8630   23.3570 C   0  0  0  0  0  0  0  0  0  0  0  0
  -18.9380  -30.1270   23.8450 C   0  0  0  0  0  3  0  0  0  0  0  0
  -17.5830  -30.5050   23.8380 C   0  0  0  0  0  3  0  0  0  0  0  0
  -16.6080  -29.6150   23.3540 C   0  0  0  0  0  3  0  0  0  0  0  0
  -16.9930  -28.3520   22.8690 C   0  0  0  0  0  3  0  0  0  0  0  0
  -25.9580  -32.8850   24.2790 C   0  0  0  0  0  3  0  0  0  0  0  0
  -25.6450  -34.3030   24.5000 N   0  0  0  0  0  0  0  0  0  0  0  0
  -25.9920  -35.2970   23.6710 C   0  0  0  0  0  0  0  0  0  0  0  0
  -26.6810  -35.1200   22.6630 O   0  0  0  0  0  0  0  0  0  0  0  0
  -25.0380  -34.5170   25.2780 H   0  0  0  0  0  0  0  0  0  0  0  0
  -24.2420  -37.0380   23.1890 C   0  0  0  0  0  1  0  0  0  0  0  0
  -25.4960  -36.7140   24.0160 C   0  0  0  0  0  3  0  0  0  0  0  0
  -27.6240  -37.6920   24.7560 C   0  0  0  0  0  1  0  0  0  0  0  0
  -26.5180  -37.7630   23.8040 N   0  0  0  0  0  0  0  0  0  0  0  0
  -26.1010  -38.6880   23.8690 H   0  0  0  0  0  0  0  0  0  0  0  0
  -26.3910  -32.1940   25.6300 C   0  0  1  0  0  0  0  0  0  0  0  0
  -25.2220  -31.9640   26.6150 C   0  0  0  0  0  1  0  0  0  0  0  0
  -27.0510  -30.8240   25.3520 C   0  0  0  0  0  1  0  0  0  0  0  0
  -27.4520  -33.0610   26.3470 C   0  0  0  0  0  1  0  0  0  0  0  0
  2  1  1  0
  3  6  1  0
  4  3  1  0
  6 11  1  0
  7  4  1  0
  7  5  1  0
  7  9  1  0
  8  5  1  0
  8  6  1  0
  9  2  1  0
  9 10  1  1
  9  8  1  0
 11 20  1  0
 12 19  2  0
 13 18  1  0
 14 15  1  0
 14 13  1  0
 16 15  1  0
 16 25  1  0
 16 17  1  0
 18 12  1  0
 18 17  1  0
 20 12  1  0
 20 21  1  0
 22 23  2  0
 23 24  1  0
 23 42  1  0
 24 27  1  0
 25 22  1  0
 25 26  1  0
 26 24  2  0
 27 28  1  0
 28 29  2  0
 30 33  1  0
 30 29  1  0
 31 30  2  0
 32 31  1  0
 32 27  2  0
 33 34  1  0
 34 35  1  0
 35 36  2  0
 37 36  1  0
 37 41  1  0
 38 37  2  0
 39 34  2  0
 39 38  1  0
 40 39  1  0
 42 43  1  0
 43 46  1  0
 43 45  1  0
 44 42  2  0
 47 48  1  0
 47 22  1  0
 49 47  1  0
 50  1  1  0
 50 51  1  0
 51 53  1  0
 51 52  1  0
 54 51  1  0
 54 55  1  0
 55 56  1  0
 56 58  1  0
 57 68  2  0
 58 63  1  0
 59 67  1  0
 59 69  1  0
 60 66  1  0
 60 62  1  0
 61 67  1  0
 62 63  2  0
 62 61  1  0
 64 58  2  0
 65 64  1  0
 65 60  2  0
 66 59  1  0
 67 57  1  0
 69 71  2  0
 70 69  1  0
 72 70  1  0
 73 82  2  0
 73 78  1  0
 74 70  1  0
 75 74  1  0
 76 77  1  0
 76 75  1  0
 77 73  1  0
 78 74  1  0
 78 79  2  0
 80 79  1  0
 81 80  2  0
 82 81  1  0
 83 57  1  0
 83 84  1  0
 83 93  1  0
 84 87  1  0
 85 89  1  0
 85 84  1  0
 86 85  2  0
 89 88  1  0
 91 92  1  0
 91 89  1  0
 91 90  1  0
 93 96  1  1
 93 94  1  0
 95 93  1  0
M  ISO  4  12 100  20 100  55 101  56 101
M  END
>  <TORSDO>  (49) 
F 23

>  <SCORE>  (49) 
-9.484

>  <name>  (49) 
49

>  <ligand_id>  (49) 
49

>  <original_smiles>  (49) 
[H]c1c([H])c([H])c2c(c1[H])C([H])([H])C([H])([H])C([H])([H])C2([H])N([H])C(=O)C1([H])N(C(=O)C([H])(N([H])C(=O)C([H])(N([H])C([H])([H])[H])C([H])([H])[H])C(C([H])([H])[H])(C([H])([H])[H])C([H])([H])[H])C([H])([H])c2c([H])c(OC([H])([H])C([H])([H])[N+]([H])([H])C([H])([H])C([H])([H])C([H])([H])[N+]3([H])C4([H])C([H])([H])C([H])([H])C([H])(C([H])([H])N([H])C(=O)N5C([H])([H])C([H])([H])C([H])([H])C([H])(n6nc(-c7c([H])c([H])c(Oc8c([H])c([H])c(F)c([H])c8F)c([H])c7[H])c(C(=O)N([H])[H])c6N([H])[H])C5([H])[H])C3([H])C4([H])[H])c([H])c([H])c2C1([H])[H]

>  <smiles>  (49) 
[H]c1c([H])c([H])c2c(c1[H])C([H])([H])C([H])([H])C([H])([H])C2([H])N([H])C(=O)C1([H])N(C(=O)C([H])(N([H])C(=O)C([H])(N([H])C([H])([H])[H])C([H])([H])[H])C(C([H])([H])[H])(C([H])([H])[H])C([H])([H])[H])C([H])([H])c2c([H])c(OC([H])([H])C([H])([H])[N+]([H])([H])C([H])([H])C([H])([H])C([H])([H])[N+]3([H])C4([H])C([H])([H])C([H])([H])C([H])(C([H])([H])N([H])C(=O)N5C([H])([H])C([H])([H])C([H])([H])C([H])(n6nc(-c7c([H])c([H])c(Oc8c([H])c([H])c(F)c([H])c8F)c([H])c7[H])c(C(=O)N([H])[H])c6N([H])[H])C5([H])[H])C3([H])C4([H])[H])c([H])c([H])c2C1([H])[H]

$$$$
50:0:0
     RDKit          3D

 94104  0  0  1  0  0  0  0  0999 V2000
  -27.6260  -21.8860   21.6460 C   0  0  0  0  0  2  0  0  0  0  0  0
  -29.7410  -22.8690   21.2980 C   0  0  0  0  0  2  0  0  0  0  0  0
  -29.5670  -20.3360   22.0760 C   0  0  0  0  0  2  0  0  0  0  0  0
  -28.3340  -20.2990   19.8610 C   0  0  0  0  0  2  0  0  0  0  0  0
  -29.0450  -21.8030   22.1760 C   0  0  0  0  0  3  0  0  0  0  0  0
  -27.9540  -21.8270   20.1550 C   0  0  0  0  0  3  0  0  0  0  0  0
  -29.0580  -22.8080   19.9920 N   0  0  0  0  0  0  0  0  0  0  0  0
  -29.4370  -19.7100   20.7200 N   0  0  2  0  0  4  0  0  0  0  0  0
  -30.2590  -20.0300   20.2300 H   0  0  0  0  0  0  0  0  0  0  0  0
  -29.5520  -18.1920   20.8490 C   0  0  0  0  0  2  0  0  0  0  0  0
  -31.4400  -14.9750   19.6650 C   0  0  0  0  0  0  0  0  0  0  0  0
  -30.9500  -12.6650   18.9400 C   0  0  0  0  0  2  0  0  0  0  0  0
  -29.9990  -12.7350   17.7370 C   0  0  0  0  0  2  0  0  0  0  0  0
  -28.5480  -12.6410   18.2340 C   0  0  0  0  0  2  0  0  0  0  0  0
  -28.2460  -13.6060   19.4150 C   0  0  0  0  0  3  0  0  0  0  0  0
  -29.3640  -13.7110   20.4850 C   0  0  0  0  0  2  0  0  0  0  0  0
  -30.6450  -13.8550   19.7800 N   0  0  0  0  0  0  0  0  0  0  0  0
  -32.5770  -14.8130   19.2390 O   0  0  0  0  0  0  0  0  0  0  0  0
  -32.1060  -17.3450   19.8250 C   0  0  0  0  0  2  0  0  0  0  0  0
  -31.1820  -18.0250   18.7980 C   0  0  0  0  0  3  0  0  0  0  0  0
  -30.0740  -17.3520   19.6190 C   0  0  0  0  0  3  0  0  0  0  0  0
  -31.3000  -17.8340   17.2530 C   0  0  0  0  0  1  0  0  0  0  0  0
  -31.0810  -16.2780   20.0100 N   0  0  0  0  0  0  0  0  0  0  0  0
  -25.9610  -14.2500   20.3710 C   0  0  0  0  0  0  0  0  0  0  0  0
  -24.8950  -13.4940   20.7880 C   0  0  0  0  0  0  0  0  0  0  0  0
  -25.2860  -12.1310   20.6310 C   0  0  0  0  0  0  0  0  0  0  0  0
  -26.9370  -13.3380   20.0050 N   0  0  0  0  0  0  0  0  0  0  0  0
  -26.5470  -12.0530   20.2210 N   0  0  0  0  0  0  0  0  0  0  0  0
  -24.5080  -10.8910   20.8020 C   0  0  0  0  0  0  0  0  0  0  0  0
  -24.9020   -9.8870   21.7140 C   0  0  0  0  0  3  0  0  0  0  0  0
  -24.1220   -8.7220   21.8770 C   0  0  0  0  0  3  0  0  0  0  0  0
  -22.9350   -8.5520   21.1280 C   0  0  0  0  0  0  0  0  0  0  0  0
  -22.5610   -9.5410   20.2020 C   0  0  0  0  0  3  0  0  0  0  0  0
  -23.3400  -10.6980   20.0370 C   0  0  0  0  0  3  0  0  0  0  0  0
  -22.1290   -7.4400   21.2000 O   0  0  0  0  0  0  0  0  0  0  0  0
  -21.9620   -6.7440   22.3720 C   0  0  0  0  0  0  0  0  0  0  0  0
  -21.4660   -7.3600   23.5410 C   0  0  0  0  0  3  0  0  0  0  0  0
  -21.2420   -6.5890   24.7000 C   0  0  0  0  0  3  0  0  0  0  0  0
  -21.5130   -5.2090   24.6920 C   0  0  0  0  0  0  0  0  0  0  0  0
  -22.0030   -4.5930   23.5280 C   0  0  0  0  0  3  0  0  0  0  0  0
  -22.2250   -5.3600   22.3680 C   0  0  0  0  0  0  0  0  0  0  0  0
  -22.6760   -4.7550   21.2420 F   0  0  0  0  0  0  0  0  0  0  0  0
  -21.2940   -4.4660   25.8040 F   0  0  0  0  0  0  0  0  0  0  0  0
  -23.5530  -14.0170   21.1970 C   0  0  0  0  0  0  0  0  0  0  0  0
  -22.8780  -13.3040   22.0980 N   0  0  0  0  0  0  0  0  0  0  0  0
  -23.1210  -15.0830   20.7700 O   0  0  0  0  0  0  0  0  0  0  0  0
  -23.2510  -12.4380   22.4540 H   0  0  0  0  0  0  0  0  0  0  0  0
  -21.9800  -13.6280   22.4290 H   0  0  0  0  0  0  0  0  0  0  0  0
  -26.1750  -15.6180   20.2690 N   0  0  0  0  0  0  0  0  0  0  0  0
  -25.4310  -16.2770   20.4630 H   0  0  0  0  0  0  0  0  0  0  0  0
  -26.9860  -16.0540   19.8540 H   0  0  0  0  0  0  0  0  0  0  0  0
  -28.8650  -24.1170   19.2480 C   0  0  0  0  0  3  0  0  0  0  0  0
  -27.8580  -25.2560   19.7340 C   0  0  0  0  0  3  0  0  0  0  0  0
  -28.0360  -26.6430   19.1970 O   0  0  0  0  0  0  0  0  0  0  0  0
  -24.5510  -31.6680   22.9770 C   0  0  0  0  0  0  0  0  0  0  0  0
  -26.9380  -27.5130   19.2760 C   0  0  0  0  0  0  0  0  0  0  0  0
  -23.2280  -30.4310   21.2900 C   0  0  0  0  0  3  0  0  0  0  0  0
  -24.5760  -29.0830   19.5850 C   0  0  0  0  0  0  0  0  0  0  0  0
  -25.7360  -30.8240   20.9470 C   0  0  0  0  0  2  0  0  0  0  0  0
  -25.7820  -29.5320   20.1440 C   0  0  0  0  0  0  0  0  0  0  0  0
  -26.9670  -28.7570   19.9790 C   0  0  0  0  0  3  0  0  0  0  0  0
  -25.7220  -27.1420   18.6670 C   0  0  0  0  0  3  0  0  0  0  0  0
  -24.5500  -27.9040   18.8280 C   0  0  0  0  0  3  0  0  0  0  0  0
  -23.3380  -29.9200   19.8260 C   0  0  0  0  0  2  0  0  0  0  0  0
  -24.5220  -30.9890   21.7940 N   0  0  0  0  0  0  0  0  0  0  0  0
  -23.5200  -31.8530   23.6360 O   0  0  0  0  0  0  0  0  0  0  0  0
  -22.6690  -29.3000   22.1900 C   0  0  0  0  0  0  0  0  0  0  0  0
  -21.3540  -29.0490   22.1070 N   0  0  0  0  0  0  0  0  0  0  0  0
  -23.4160  -28.6510   22.9250 O   0  0  0  0  0  0  0  0  0  0  0  0
  -20.7910  -29.6080   21.4870 H   0  0  0  0  0  0  0  0  0  0  0  0
  -18.0960  -27.5700   22.6540 C   0  0  0  0  0  0  0  0  0  0  0  0
  -20.6340  -28.0150   22.8460 C   0  0  0  0  0  3  0  0  0  0  0  0
  -20.8280  -26.6280   22.1990 C   0  0  0  0  0  2  0  0  0  0  0  0
  -19.7090  -26.2360   21.2260 C   0  0  0  0  0  2  0  0  0  0  0  0
  -18.3550  -26.2550   21.9380 C   0  0  0  0  0  2  0  0  0  0  0  0
  -19.1680  -28.3950   23.0830 C   0  0  0  0  0  0  0  0  0  0  0  0
  -18.8700  -29.6100   23.7360 C   0  0  0  0  0  3  0  0  0  0  0  0
  -17.5370  -30.0000   23.9670 C   0  0  0  0  0  3  0  0  0  0  0  0
  -16.4820  -29.1710   23.5480 C   0  0  0  0  0  3  0  0  0  0  0  0
  -16.7620  -27.9560   22.8970 C   0  0  0  0  0  3  0  0  0  0  0  0
  -25.8800  -32.2520   23.5520 C   0  0  0  0  0  3  0  0  0  0  0  0
  -26.5030  -31.3810   24.7160 C   0  0  1  0  0  0  0  0  0  0  0  0
  -25.5010  -31.0530   25.8450 C   0  0  0  0  0  1  0  0  0  0  0  0
  -27.0600  -30.0460   24.1690 C   0  0  0  0  0  1  0  0  0  0  0  0
  -27.7040  -32.1280   25.3380 C   0  0  0  0  0  1  0  0  0  0  0  0
  -25.5960  -33.6170   24.0210 N   0  0  0  0  0  0  0  0  0  0  0  0
  -25.9100  -34.7290   23.3460 C   0  0  0  0  0  0  0  0  0  0  0  0
  -26.5330  -34.7190   22.2830 O   0  0  0  0  0  0  0  0  0  0  0  0
  -25.0380  -33.6990   24.8570 H   0  0  0  0  0  0  0  0  0  0  0  0
  -24.1820  -36.5540   23.2200 C   0  0  0  0  0  1  0  0  0  0  0  0
  -25.4510  -36.0720   23.9440 C   0  0  0  0  0  3  0  0  0  0  0  0
  -27.6220  -36.8680   24.7660 C   0  0  0  0  0  1  0  0  0  0  0  0
  -26.4870  -37.1280   23.8860 N   0  0  0  0  0  0  0  0  0  0  0  0
  -26.0940  -38.0360   24.1300 H   0  0  0  0  0  0  0  0  0  0  0  0
  1  5  1  0
  3  5  1  0
  4  8  1  0
  5  2  1  0
  6  4  1  0
  6  1  1  0
  7  6  1  0
  7  2  1  0
  8 10  1  0
  8  3  1  0
  8  9  1  6
 11 17  1  0
 11 23  1  0
 12 17  1  0
 13 14  1  0
 13 12  1  0
 15 14  1  0
 15 27  1  0
 15 16  1  0
 17 16  1  0
 18 11  2  0
 19 23  1  0
 20 22  1  0
 20 21  1  0
 20 19  1  0
 21 23  1  0
 21 10  1  0
 24 25  2  0
 25 44  1  0
 26 25  1  0
 26 29  1  0
 27 28  1  0
 27 24  1  0
 28 26  2  0
 29 30  1  0
 30 31  2  0
 32 35  1  0
 32 31  1  0
 33 32  2  0
 34 33  1  0
 34 29  2  0
 35 36  1  0
 36 37  1  0
 37 38  2  0
 39 38  1  0
 39 43  1  0
 40 39  2  0
 41 36  2  0
 41 40  1  0
 42 41  1  0
 44 45  1  0
 45 48  1  0
 45 47  1  0
 46 44  2  0
 49 24  1  0
 49 50  1  0
 51 49  1  0
 52 53  2  0
 52  7  1  0
 54 56  1  0
 54 53  1  0
 55 66  2  0
 56 61  1  0
 57 65  1  0
 57 67  1  0
 58 64  1  0
 58 60  1  0
 59 65  1  0
 60 59  1  0
 61 60  2  0
 62 63  1  0
 62 56  2  0
 63 58  2  0
 64 57  1  0
 65 55  1  0
 67 69  2  0
 68 67  1  0
 70 68  1  0
 71 80  2  0
 71 76  1  0
 72 68  1  0
 72 76  1  0
 73 72  1  0
 74 75  1  0
 74 73  1  0
 75 71  1  0
 76 77  2  0
 77 78  1  0
 79 78  2  0
 80 79  1  0
 81 55  1  0
 81 86  1  0
 81 82  1  0
 82 85  1  1
 82 83  1  0
 84 82  1  0
 86 89  1  0
 87 91  1  0
 87 86  1  0
 88 87  2  0
 91 90  1  0
 93 91  1  0
 93 94  1  0
 93 92  1  0
M  ISO  4  11 100  23 100  53 101  54 101
M  END
>  <TORSDO>  (50) 
F 19

>  <SCORE>  (50) 
-12.302

>  <name>  (50) 
50

>  <ligand_id>  (50) 
50

>  <original_smiles>  (50) 
[H]c1c([H])c([H])c2c(c1[H])C([H])([H])C([H])([H])C([H])([H])C2([H])N([H])C(=O)C1([H])N(C(=O)C([H])(N([H])C(=O)C([H])(N([H])C([H])([H])[H])C([H])([H])[H])C(C([H])([H])[H])(C([H])([H])[H])C([H])([H])[H])C([H])([H])c2c([H])c(OC([H])([H])C([H])([H])N3C([H])([H])C4([H])C([H])([H])C3([H])C([H])([H])[N+]([H])(C([H])([H])C3([H])N(C(=O)N5C([H])([H])C([H])([H])C([H])([H])C([H])(n6nc(-c7c([H])c([H])c(Oc8c([H])c([H])c(F)c([H])c8F)c([H])c7[H])c(C(=O)N([H])[H])c6N([H])[H])C5([H])[H])C([H])([H])C3([H])C([H])([H])[H])C4([H])[H])c([H])c([H])c2C1([H])[H]

>  <smiles>  (50) 
[H]c1c([H])c([H])c2c(c1[H])C([H])([H])C([H])([H])C([H])([H])C2([H])N([H])C(=O)C1([H])N(C(=O)C([H])(N([H])C(=O)C([H])(N([H])C([H])([H])[H])C([H])([H])[H])C(C([H])([H])[H])(C([H])([H])[H])C([H])([H])[H])C([H])([H])c2c([H])c(OC([H])([H])C([H])([H])N3C([H])([H])C4([H])C([H])([H])C3([H])C([H])([H])[N+]([H])(C([H])([H])C3([H])N(C(=O)N5C([H])([H])C([H])([H])C([H])([H])C([H])(n6nc(-c7c([H])c([H])c(Oc8c([H])c([H])c(F)c([H])c8F)c([H])c7[H])c(C(=O)N([H])[H])c6N([H])[H])C5([H])[H])C([H])([H])C3([H])C([H])([H])[H])C4([H])[H])c([H])c([H])c2C1([H])[H]

$$$$
51:0:0
     RDKit          3D

 96106  0  0  1  0  0  0  0  0999 V2000
  -29.3020  -21.8610   18.5710 C   0  0  0  0  0  2  0  0  0  0  0  0
  -29.1990  -21.7980   20.9040 C   0  0  0  0  0  2  0  0  0  0  0  0
  -29.5420  -23.2880   19.0290 C   0  0  0  0  0  3  0  0  0  0  0  0
  -29.4160  -23.2980   20.5250 C   0  0  0  0  0  3  0  0  0  0  0  0
  -28.5230  -24.2250   19.6600 C   0  0  0  0  0  3  0  0  0  0  0  0
  -29.7600  -20.9310   19.7310 C   0  0  1  0  0  0  0  0  0  0  0  0
  -28.5130  -17.6700   18.0400 C   0  0  0  0  0  3  0  0  0  0  0  0
  -28.7220  -19.0210   18.3560 C   0  0  0  0  0  3  0  0  0  0  0  0
  -28.9100  -16.6620   18.9300 C   0  0  0  0  0  3  0  0  0  0  0  0
  -29.6810  -18.3690   20.4970 C   0  0  0  0  0  3  0  0  0  0  0  0
  -29.3320  -19.4200   19.5720 C   0  0  0  0  0  0  0  0  0  0  0  0
  -29.4930  -16.9780   20.1760 C   0  0  0  0  0  0  0  0  0  0  0  0
  -30.5820  -14.8110   20.8060 C   0  0  0  0  0  0  0  0  0  0  0  0
  -30.4900  -12.5500   19.8170 C   0  0  0  0  0  2  0  0  0  0  0  0
  -29.6240  -12.6350   18.5410 C   0  0  0  0  0  2  0  0  0  0  0  0
  -28.1330  -12.4470   18.8810 C   0  0  0  0  0  2  0  0  0  0  0  0
  -27.6700  -13.3110   20.0850 C   0  0  0  0  0  3  0  0  0  0  0  0
  -28.6640  -13.2210   21.2650 C   0  0  0  0  0  2  0  0  0  0  0  0
  -29.9980  -13.5760   20.7580 N   0  0  0  0  0  0  0  0  0  0  0  0
  -31.7540  -14.9890   20.4640 O   0  0  0  0  0  0  0  0  0  0  0  0
  -29.7710  -15.8760   21.0800 N   0  0  0  0  0  0  0  0  0  0  0  0
  -28.9710  -15.6150   21.6370 H   0  0  0  0  0  0  0  0  0  0  0  0
  -25.2230  -13.8470   20.6570 C   0  0  0  0  0  0  0  0  0  0  0  0
  -24.1620  -13.0420   20.9680 C   0  0  0  0  0  0  0  0  0  0  0  0
  -24.6650  -11.7060   20.9720 C   0  0  0  0  0  0  0  0  0  0  0  0
  -26.3060  -12.9940   20.4910 N   0  0  0  0  0  0  0  0  0  0  0  0
  -25.9710  -11.7040   20.7400 N   0  0  0  0  0  0  0  0  0  0  0  0
  -23.9700  -10.4230   21.1260 C   0  0  0  0  0  0  0  0  0  0  0  0
  -24.3640   -9.4820   22.1020 C   0  0  0  0  0  3  0  0  0  0  0  0
  -23.6680   -8.2620   22.2420 C   0  0  0  0  0  3  0  0  0  0  0  0
  -22.5620   -7.9750   21.4080 C   0  0  0  0  0  0  0  0  0  0  0  0
  -22.1910   -8.9040   20.4190 C   0  0  0  0  0  3  0  0  0  0  0  0
  -22.8890  -10.1150   20.2770 C   0  0  0  0  0  3  0  0  0  0  0  0
  -21.8420   -6.8080   21.4580 O   0  0  0  0  0  0  0  0  0  0  0  0
  -21.7120   -6.0900   22.6200 C   0  0  0  0  0  0  0  0  0  0  0  0
  -21.1170   -6.6440   23.7740 C   0  0  0  0  0  3  0  0  0  0  0  0
  -20.9380   -5.8490   24.9240 C   0  0  0  0  0  3  0  0  0  0  0  0
  -21.3440   -4.5010   24.9190 C   0  0  0  0  0  0  0  0  0  0  0  0
  -21.9340   -3.9470   23.7690 C   0  0  0  0  0  3  0  0  0  0  0  0
  -22.1140   -4.7390   22.6220 C   0  0  0  0  0  0  0  0  0  0  0  0
  -22.6620   -4.1940   21.5080 F   0  0  0  0  0  0  0  0  0  0  0  0
  -21.1670   -3.7340   26.0200 F   0  0  0  0  0  0  0  0  0  0  0  0
  -22.7360  -13.4770   21.1570 C   0  0  0  0  0  0  0  0  0  0  0  0
  -21.9790  -12.7530   21.9740 N   0  0  0  0  0  0  0  0  0  0  0  0
  -22.3010  -14.4920   20.6160 O   0  0  0  0  0  0  0  0  0  0  0  0
  -22.3430  -11.9320   22.4360 H   0  0  0  0  0  0  0  0  0  0  0  0
  -21.0190  -13.0210   22.1380 H   0  0  0  0  0  0  0  0  0  0  0  0
  -25.3540  -15.2200   20.4810 N   0  0  0  0  0  0  0  0  0  0  0  0
  -24.5550  -15.8430   20.5210 H   0  0  0  0  0  0  0  0  0  0  0  0
  -26.2010  -15.6890   20.1880 H   0  0  0  0  0  0  0  0  0  0  0  0
  -31.2330  -20.9240   19.7670 N   0  0  0  0  0  4  0  0  0  0  0  0
  -31.5880  -20.4190   18.9740 H   0  0  0  0  0  0  0  0  0  0  0  0
  -31.5680  -20.4740   20.5990 H   0  0  0  0  0  0  0  0  0  0  0  0
  -31.6000  -21.8580   19.7390 H   0  0  0  0  0  0  0  0  0  0  0  0
  -28.7550  -25.7270   19.2810 C   0  0  0  0  0  2  0  0  0  0  0  0
  -28.5010  -26.8130   20.2070 O   0  0  0  0  0  0  0  0  0  0  0  0
  -24.6980  -31.9620   23.3530 C   0  0  0  0  0  0  0  0  0  0  0  0
  -27.3320  -27.5640   20.1540 C   0  0  0  0  0  0  0  0  0  0  0  0
  -23.4830  -30.5910   21.6900 C   0  0  0  0  0  3  0  0  0  0  0  0
  -24.9310  -29.0900   20.2120 C   0  0  0  0  0  0  0  0  0  0  0  0
  -26.0070  -30.9580   21.4780 C   0  0  0  0  0  2  0  0  0  0  0  0
  -26.0930  -29.5970   20.8060 C   0  0  0  0  0  0  0  0  0  0  0  0
  -27.2900  -28.8380   20.7810 C   0  0  0  0  0  3  0  0  0  0  0  0
  -26.1500  -27.0810   19.5500 C   0  0  0  0  0  3  0  0  0  0  0  0
  -24.9580  -27.8330   19.5810 C   0  0  0  0  0  3  0  0  0  0  0  0
  -23.6850  -29.9460   20.2920 C   0  0  0  0  0  2  0  0  0  0  0  0
  -24.7490  -31.1850   22.2320 N   0  0  0  0  0  0  0  0  0  0  0  0
  -23.6210  -32.2160   23.9100 O   0  0  0  0  0  0  0  0  0  0  0  0
  -22.8440  -29.5480   22.6330 C   0  0  0  0  0  0  0  0  0  0  0  0
  -21.5240  -29.3390   22.4930 N   0  0  0  0  0  0  0  0  0  0  0  0
  -23.5330  -28.9280   23.4480 O   0  0  0  0  0  0  0  0  0  0  0  0
  -21.0270  -29.8940   21.8120 H   0  0  0  0  0  0  0  0  0  0  0  0
  -18.1780  -28.0480   22.9330 C   0  0  0  0  0  0  0  0  0  0  0  0
  -20.7230  -28.3750   23.2460 C   0  0  0  0  0  3  0  0  0  0  0  0
  -20.8740  -26.9510   22.6630 C   0  0  0  0  0  2  0  0  0  0  0  0
  -19.7980  -26.6050   21.6290 C   0  0  0  0  0  2  0  0  0  0  0  0
  -18.4030  -26.7080   22.2520 C   0  0  0  0  0  2  0  0  0  0  0  0
  -19.2680  -28.8380   23.3860 C   0  0  0  0  0  0  0  0  0  0  0  0
  -19.0060  -30.0900   23.9800 C   0  0  0  0  0  3  0  0  0  0  0  0
  -17.6860  -30.5550   24.1270 C   0  0  0  0  0  3  0  0  0  0  0  0
  -16.6090  -29.7630   23.6920 C   0  0  0  0  0  3  0  0  0  0  0  0
  -16.8560  -28.5120   23.1000 C   0  0  0  0  0  3  0  0  0  0  0  0
  -25.9860  -32.5860   23.9750 C   0  0  0  0  0  3  0  0  0  0  0  0
  -26.5050  -31.8040   25.2440 C   0  0  1  0  0  0  0  0  0  0  0  0
  -25.4160  -31.5610   26.3140 C   0  0  0  0  0  1  0  0  0  0  0  0
  -27.0840  -30.4290   24.8380 C   0  0  0  0  0  1  0  0  0  0  0  0
  -27.6580  -32.5910   25.9110 C   0  0  0  0  0  1  0  0  0  0  0  0
  -25.6820  -33.9820   24.3160 N   0  0  0  0  0  0  0  0  0  0  0  0
  -26.0270  -35.0400   23.5700 C   0  0  0  0  0  0  0  0  0  0  0  0
  -26.7060  -34.9420   22.5440 O   0  0  0  0  0  0  0  0  0  0  0  0
  -25.0830  -34.1320   25.1150 H   0  0  0  0  0  0  0  0  0  0  0  0
  -24.3270  -36.8560   23.2000 C   0  0  0  0  0  1  0  0  0  0  0  0
  -25.5430  -36.4260   24.0360 C   0  0  0  0  0  3  0  0  0  0  0  0
  -27.6600  -37.2820   24.9390 C   0  0  0  0  0  1  0  0  0  0  0  0
  -26.5870  -37.4700   23.9660 N   0  0  0  0  0  0  0  0  0  0  0  0
  -26.1860  -38.3920   24.1110 H   0  0  0  0  0  0  0  0  0  0  0  0
  1  6  1  0
  3  1  1  0
  3  5  1  0
  3  4  1  0
  4  2  1  0
  5 55  1  0
  5  4  1  0
  6 51  1  1
  6  2  1  0
  7  8  2  0
  7  9  1  0
  8 11  1  0
  9 12  2  0
 11  6  1  0
 11 10  2  0
 12 10  1  0
 12 21  1  0
 13 21  1  0
 14 19  1  0
 15 16  1  0
 15 14  1  0
 17 16  1  0
 17 26  1  0
 17 18  1  0
 19 13  1  0
 19 18  1  0
 20 13  2  0
 21 22  1  0
 23 24  2  0
 24 25  1  0
 24 43  1  0
 25 28  1  0
 26 23  1  0
 26 27  1  0
 27 25  2  0
 28 29  1  0
 29 30  2  0
 31 34  1  0
 31 30  1  0
 32 31  2  0
 33 32  1  0
 33 28  2  0
 34 35  1  0
 35 40  2  0
 35 36  1  0
 36 37  2  0
 38 37  1  0
 38 42  1  0
 39 38  2  0
 40 39  1  0
 41 40  1  0
 43 44  1  0
 44 47  1  0
 44 46  1  0
 45 43  2  0
 48 49  1  0
 48 23  1  0
 50 48  1  0
 51 53  1  0
 52 51  1  0
 54 51  1  0
 55 56  1  0
 57 68  2  0
 58 56  1  0
 58 63  1  0
 59 67  1  0
 59 69  1  0
 60 66  1  0
 60 62  1  0
 61 67  1  0
 62 61  1  0
 63 62  2  0
 64 65  1  0
 64 58  2  0
 65 60  2  0
 66 59  1  0
 67 57  1  0
 69 71  2  0
 70 69  1  0
 72 70  1  0
 73 82  2  0
 73 78  1  0
 74 70  1  0
 74 78  1  0
 75 74  1  0
 76 77  1  0
 76 75  1  0
 77 73  1  0
 78 79  2  0
 79 80  1  0
 81 80  2  0
 82 81  1  0
 83 57  1  0
 83 88  1  0
 83 84  1  0
 84 87  1  1
 84 85  1  0
 86 84  1  0
 88 91  1  0
 89 93  1  0
 89 88  1  0
 90 89  2  0
 93 92  1  0
 95 93  1  0
 95 96  1  0
 95 94  1  0
M  ISO  4  13 100  21 100  55 101  56 101
M  END
>  <TORSDO>  (51) 
F 19

>  <SCORE>  (51) 
-14.322

>  <name>  (51) 
51

>  <ligand_id>  (51) 
51

>  <original_smiles>  (51) 
[H]c1c([H])c([H])c2c(c1[H])C([H])([H])C([H])([H])C([H])([H])C2([H])N([H])C(=O)C1([H])N(C(=O)C([H])(N([H])C(=O)C([H])(N([H])C([H])([H])[H])C([H])([H])[H])C(C([H])([H])[H])(C([H])([H])[H])C([H])([H])[H])C([H])([H])c2c([H])c(OC([H])([H])C3([H])C4([H])C([H])([H])C(c5c([H])c([H])c([H])c(N([H])C(=O)N6C([H])([H])C([H])([H])C([H])([H])C([H])(n7nc(-c8c([H])c([H])c(Oc9c([H])c([H])c(F)c([H])c9F)c([H])c8[H])c(C(=O)N([H])[H])c7N([H])[H])C6([H])[H])c5[H])([N+]([H])([H])[H])C([H])([H])C34[H])c([H])c([H])c2C1([H])[H]

>  <smiles>  (51) 
[H]c1c([H])c([H])c2c(c1[H])C([H])([H])C([H])([H])C([H])([H])C2([H])N([H])C(=O)C1([H])N(C(=O)C([H])(N([H])C(=O)C([H])(N([H])C([H])([H])[H])C([H])([H])[H])C(C([H])([H])[H])(C([H])([H])[H])C([H])([H])[H])C([H])([H])c2c([H])c(OC([H])([H])C3([H])C4([H])C([H])([H])C(c5c([H])c([H])c([H])c(N([H])C(=O)N6C([H])([H])C([H])([H])C([H])([H])C([H])(n7nc(-c8c([H])c([H])c(Oc9c([H])c([H])c(F)c([H])c9F)c([H])c8[H])c(C(=O)N([H])[H])c7N([H])[H])C6([H])[H])c5[H])([N+]([H])([H])[H])C([H])([H])C34[H])c([H])c([H])c2C1([H])[H]

$$$$
52:0:0
     RDKit          3D

 93101  0  0  1  0  0  0  0  0999 V2000
  -29.0260  -20.5170   19.8460 N   0  0  0  0  0  4  0  0  0  0  0  0
  -29.1960  -20.4310   18.8580 H   0  0  0  0  0  0  0  0  0  0  0  0
  -28.0380  -20.3590   19.9550 H   0  0  0  0  0  0  0  0  0  0  0  0
  -29.2750  -22.0580   20.1830 C   0  0  0  0  0  2  0  0  0  0  0  0
  -28.1180  -23.3040   20.1080 C   0  0  0  0  0  2  0  0  0  0  0  0
  -28.2500  -24.8560   19.4360 C   0  0  0  0  0  2  0  0  0  0  0  0
  -28.1260  -26.2990   20.0120 O   0  0  0  0  0  0  0  0  0  0  0  0
  -24.5690  -31.8950   23.1330 C   0  0  0  0  0  0  0  0  0  0  0  0
  -27.0410  -27.2410   19.9310 C   0  0  0  0  0  0  0  0  0  0  0  0
  -23.3090  -30.5260   21.5140 C   0  0  0  0  0  3  0  0  0  0  0  0
  -24.7030  -28.9730   20.0050 C   0  0  0  0  0  0  0  0  0  0  0  0
  -25.8510  -30.7980   21.2590 C   0  0  0  0  0  2  0  0  0  0  0  0
  -25.8980  -29.4170   20.5830 C   0  0  0  0  0  0  0  0  0  0  0  0
  -27.0600  -28.5630   20.5340 C   0  0  0  0  0  3  0  0  0  0  0  0
  -25.8210  -26.8930   19.3140 C   0  0  0  0  0  3  0  0  0  0  0  0
  -24.6780  -27.7260   19.3540 C   0  0  0  0  0  3  0  0  0  0  0  0
  -23.4760  -29.8660   20.1170 C   0  0  0  0  0  2  0  0  0  0  0  0
  -24.5990  -31.0960   22.0240 N   0  0  0  0  0  0  0  0  0  0  0  0
  -23.5040  -32.1700   23.7080 O   0  0  0  0  0  0  0  0  0  0  0  0
  -22.6650  -29.5070   22.4870 C   0  0  0  0  0  0  0  0  0  0  0  0
  -21.3350  -29.3280   22.3960 N   0  0  0  0  0  0  0  0  0  0  0  0
  -23.3650  -28.8780   23.2860 O   0  0  0  0  0  0  0  0  0  0  0  0
  -20.8260  -29.8870   21.7260 H   0  0  0  0  0  0  0  0  0  0  0  0
  -17.9860  -28.0640   22.9470 C   0  0  0  0  0  0  0  0  0  0  0  0
  -20.5420  -28.3760   23.1790 C   0  0  0  0  0  3  0  0  0  0  0  0
  -20.6640  -26.9460   22.6050 C   0  0  0  0  0  2  0  0  0  0  0  0
  -19.5550  -26.6010   21.6060 C   0  0  0  0  0  2  0  0  0  0  0  0
  -18.1790  -26.7200   22.2670 C   0  0  0  0  0  2  0  0  0  0  0  0
  -19.0950  -28.8490   23.3600 C   0  0  0  0  0  0  0  0  0  0  0  0
  -18.8590  -30.1060   23.9580 C   0  0  0  0  0  3  0  0  0  0  0  0
  -17.5470  -30.5800   24.1440 C   0  0  0  0  0  3  0  0  0  0  0  0
  -16.4520  -29.7940   23.7450 C   0  0  0  0  0  3  0  0  0  0  0  0
  -16.6730  -28.5370   23.1530 C   0  0  0  0  0  3  0  0  0  0  0  0
  -25.8700  -32.5210   23.7250 C   0  0  0  0  0  3  0  0  0  0  0  0
  -25.5730  -33.9130   24.0970 N   0  0  0  0  0  0  0  0  0  0  0  0
  -25.9010  -34.9880   23.3660 C   0  0  0  0  0  0  0  0  0  0  0  0
  -26.5520  -34.9090   22.3220 O   0  0  0  0  0  0  0  0  0  0  0  0
  -24.9940  -34.0470   24.9130 H   0  0  0  0  0  0  0  0  0  0  0  0
  -24.1840  -36.8070   23.0910 C   0  0  0  0  0  1  0  0  0  0  0  0
  -25.4330  -36.3670   23.8730 C   0  0  0  0  0  3  0  0  0  0  0  0
  -27.5860  -37.2100   24.7010 C   0  0  0  0  0  1  0  0  0  0  0  0
  -26.4720  -37.4150   23.7760 N   0  0  0  0  0  0  0  0  0  0  0  0
  -26.0770  -38.3330   23.9550 H   0  0  0  0  0  0  0  0  0  0  0  0
  -26.4280  -31.7290   24.9720 C   0  0  1  0  0  0  0  0  0  0  0  0
  -25.3720  -31.4810   26.0760 C   0  0  0  0  0  1  0  0  0  0  0  0
  -26.9920  -30.3550   24.5440 C   0  0  0  0  0  1  0  0  0  0  0  0
  -27.6040  -32.5100   25.6050 C   0  0  0  0  0  1  0  0  0  0  0  0
  -29.7060  -19.2370   20.5180 C   0  0  0  0  0  3  0  0  0  0  0  0
  -33.3610  -20.3820   22.5870 C   0  0  0  0  0  3  0  0  0  0  0  0
  -32.1710  -20.1880   23.3130 C   0  0  0  0  0  3  0  0  0  0  0  0
  -33.3680  -20.2020   21.1900 C   0  0  0  0  0  3  0  0  0  0  0  0
  -30.9890  -19.8150   22.6440 C   0  0  0  0  0  3  0  0  0  0  0  0
  -32.1870  -19.8260   20.5200 C   0  0  0  0  0  3  0  0  0  0  0  0
  -30.9890  -19.6300   21.2430 C   0  0  0  0  0  0  0  0  0  0  0  0
  -29.9120  -17.7550   19.7150 C   0  0  0  0  0  2  0  0  0  0  0  0
  -30.7020  -15.1390   20.2020 C   0  0  0  0  0  0  0  0  0  0  0  0
  -30.6280  -12.7420   19.3890 C   0  0  0  0  0  2  0  0  0  0  0  0
  -29.7050  -12.6480   18.1510 C   0  0  0  0  0  2  0  0  0  0  0  0
  -28.2400  -12.4390   18.5810 C   0  0  0  0  0  2  0  0  0  0  0  0
  -27.8200  -13.4010   19.7230 C   0  0  0  0  0  3  0  0  0  0  0  0
  -28.8680  -13.4630   20.8570 C   0  0  0  0  0  2  0  0  0  0  0  0
  -30.1410  -13.8620   20.2460 N   0  0  0  0  0  0  0  0  0  0  0  0
  -31.8780  -15.2260   19.8370 O   0  0  0  0  0  0  0  0  0  0  0  0
  -29.8920  -16.3000   20.3540 N   0  0  0  0  0  0  0  0  0  0  0  0
  -28.9960  -16.0730   20.7590 H   0  0  0  0  0  0  0  0  0  0  0  0
  -25.4450  -13.9880   20.4760 C   0  0  0  0  0  0  0  0  0  0  0  0
  -24.3790  -13.2160   20.8480 C   0  0  0  0  0  0  0  0  0  0  0  0
  -24.8360  -11.8630   20.8050 C   0  0  0  0  0  0  0  0  0  0  0  0
  -26.4820  -13.1060   20.2240 N   0  0  0  0  0  0  0  0  0  0  0  0
  -26.1250  -11.8220   20.4860 N   0  0  0  0  0  0  0  0  0  0  0  0
  -24.1030  -10.6040   20.9910 C   0  0  0  0  0  0  0  0  0  0  0  0
  -24.5240   -9.6350   21.9280 C   0  0  0  0  0  3  0  0  0  0  0  0
  -23.7900   -8.4420   22.1030 C   0  0  0  0  0  3  0  0  0  0  0  0
  -22.6210   -8.2080   21.3400 C   0  0  0  0  0  0  0  0  0  0  0  0
  -22.2200   -9.1660   20.3910 C   0  0  0  0  0  3  0  0  0  0  0  0
  -22.9540  -10.3510   20.2150 C   0  0  0  0  0  3  0  0  0  0  0  0
  -21.8590   -7.0680   21.4230 O   0  0  0  0  0  0  0  0  0  0  0  0
  -21.7810   -6.3380   22.5820 C   0  0  0  0  0  0  0  0  0  0  0  0
  -21.3200   -6.9050   23.7910 C   0  0  0  0  0  3  0  0  0  0  0  0
  -21.1900   -6.1010   24.9410 C   0  0  0  0  0  3  0  0  0  0  0  0
  -21.5110   -4.7320   24.8830 C   0  0  0  0  0  0  0  0  0  0  0  0
  -21.9660   -4.1640   23.6800 C   0  0  0  0  0  3  0  0  0  0  0  0
  -22.0970   -4.9650   22.5320 C   0  0  0  0  0  0  0  0  0  0  0  0
  -22.5150   -4.4090   21.3700 F   0  0  0  0  0  0  0  0  0  0  0  0
  -21.3800   -3.9570   25.9860 F   0  0  0  0  0  0  0  0  0  0  0  0
  -22.9860  -13.6990   21.1290 C   0  0  0  0  0  0  0  0  0  0  0  0
  -22.2650  -13.0140   22.0080 N   0  0  0  0  0  0  0  0  0  0  0  0
  -22.5470  -14.7220   20.6030 O   0  0  0  0  0  0  0  0  0  0  0  0
  -22.6320  -12.1870   22.4550 H   0  0  0  0  0  0  0  0  0  0  0  0
  -21.3310  -13.3230   22.2400 H   0  0  0  0  0  0  0  0  0  0  0  0
  -25.6140  -15.3590   20.3070 N   0  0  0  0  0  0  0  0  0  0  0  0
  -24.8450  -16.0110   20.4210 H   0  0  0  0  0  0  0  0  0  0  0  0
  -26.4490  -15.7930   19.9370 H   0  0  0  0  0  0  0  0  0  0  0  0
  1  3  1  0
  1  4  1  0
  1 48  1  0
  2  1  1  0
  5  4  1  0
  6  7  1  0
  6  5  1  0
  8 19  2  0
  9  7  1  0
  9 14  1  0
 10 18  1  0
 10 20  1  0
 11 17  1  0
 11 13  1  0
 12 18  1  0
 13 12  1  0
 14 13  2  0
 15 16  1  0
 15  9  2  0
 16 11  2  0
 17 10  1  0
 18  8  1  0
 20 22  2  0
 21 20  1  0
 23 21  1  0
 24 33  2  0
 24 29  1  0
 25 21  1  0
 25 29  1  0
 26 25  1  0
 27 28  1  0
 27 26  1  0
 28 24  1  0
 29 30  2  0
 30 31  1  0
 32 31  2  0
 33 32  1  0
 34  8  1  0
 34 35  1  0
 34 44  1  0
 35 38  1  0
 36 40  1  0
 36 35  1  0
 37 36  2  0
 40 39  1  0
 42 40  1  0
 42 43  1  0
 42 41  1  0
 44 47  1  1
 44 45  1  0
 46 44  1  0
 48 55  1  0
 48 54  1  0
 49 50  1  0
 51 49  2  0
 52 50  2  0
 53 51  1  0
 53 54  2  0
 54 52  1  0
 55 64  1  0
 56 62  1  0
 56 64  1  0
 57 62  1  0
 58 59  1  0
 58 57  1  0
 60 59  1  0
 60 69  1  0
 60 61  1  0
 62 61  1  0
 63 56  2  0
 64 65  1  0
 66 67  2  0
 67 86  1  0
 68 67  1  0
 68 71  1  0
 69 66  1  0
 69 70  1  0
 70 68  2  0
 71 72  1  0
 72 73  2  0
 74 77  1  0
 74 73  1  0
 75 74  2  0
 76 75  1  0
 76 71  2  0
 77 78  1  0
 78 79  1  0
 79 80  2  0
 81 80  1  0
 81 85  1  0
 82 81  2  0
 83 78  2  0
 83 82  1  0
 84 83  1  0
 86 87  1  0
 87 90  1  0
 87 89  1  0
 88 86  2  0
 91 92  1  0
 91 66  1  0
 93 91  1  0
M  ISO  4   6 101   7 101  56 100  64 100
M  END
>  <TORSDO>  (52) 
F 22

>  <SCORE>  (52) 
-15.013

>  <name>  (52) 
52

>  <ligand_id>  (52) 
52

>  <original_smiles>  (52) 
[H]c1c([H])c([H])c(C([H])(C([H])([H])N([H])C(=O)N2C([H])([H])C([H])([H])C([H])([H])C([H])(n3nc(-c4c([H])c([H])c(Oc5c([H])c([H])c(F)c([H])c5F)c([H])c4[H])c(C(=O)N([H])[H])c3N([H])[H])C2([H])[H])[N+]([H])([H])C([H])([H])C([H])([H])C([H])([H])Oc2c([H])c([H])c3c(c2[H])C([H])([H])N(C(=O)C([H])(N([H])C(=O)C([H])(N([H])C([H])([H])[H])C([H])([H])[H])C(C([H])([H])[H])(C([H])([H])[H])C([H])([H])[H])C([H])(C(=O)N([H])C2([H])c4c([H])c([H])c([H])c([H])c4C([H])([H])C([H])([H])C2([H])[H])C3([H])[H])c([H])c1[H]

>  <smiles>  (52) 
[H]c1c([H])c([H])c(C([H])(C([H])([H])N([H])C(=O)N2C([H])([H])C([H])([H])C([H])([H])C([H])(n3nc(-c4c([H])c([H])c(Oc5c([H])c([H])c(F)c([H])c5F)c([H])c4[H])c(C(=O)N([H])[H])c3N([H])[H])C2([H])[H])[N+]([H])([H])C([H])([H])C([H])([H])C([H])([H])Oc2c([H])c([H])c3c(c2[H])C([H])([H])N(C(=O)C([H])(N([H])C(=O)C([H])(N([H])C([H])([H])[H])C([H])([H])[H])C(C([H])([H])[H])(C([H])([H])[H])C([H])([H])[H])C([H])(C(=O)N([H])C2([H])c4c([H])c([H])c([H])c([H])c4C([H])([H])C([H])([H])C2([H])[H])C3([H])[H])c([H])c1[H]

$$$$
53:0:0
     RDKit          3D

 95104  0  0  1  0  0  0  0  0999 V2000
  -29.3100  -21.0870   21.7070 C   0  0  0  0  0  2  0  0  0  0  0  0
  -29.0600  -22.4140   21.0880 N   0  0  0  0  0  4  0  0  0  0  0  0
  -28.0660  -22.5840   21.0740 H   0  0  0  0  0  0  0  0  0  0  0  0
  -29.3880  -22.4020   20.1360 H   0  0  0  0  0  0  0  0  0  0  0  0
  -29.7240  -23.5180   21.8320 C   0  0  0  0  0  2  0  0  0  0  0  0
  -29.7560  -24.8910   21.1160 C   0  0  0  0  0  2  0  0  0  0  0  0
  -28.4460  -25.6970   21.1220 C   0  0  0  0  0  2  0  0  0  0  0  0
  -28.6270  -26.9150   20.3850 O   0  0  0  0  0  0  0  0  0  0  0  0
  -24.6930  -31.9890   23.3780 C   0  0  0  0  0  0  0  0  0  0  0  0
  -27.4770  -27.6600   20.3080 C   0  0  0  0  0  0  0  0  0  0  0  0
  -23.5520  -30.5980   21.6790 C   0  0  0  0  0  3  0  0  0  0  0  0
  -25.0670  -29.1160   20.2600 C   0  0  0  0  0  0  0  0  0  0  0  0
  -26.0730  -31.0090   21.5490 C   0  0  0  0  0  2  0  0  0  0  0  0
  -26.1990  -29.6550   20.8880 C   0  0  0  0  0  0  0  0  0  0  0  0
  -27.4080  -28.9320   20.9110 C   0  0  0  0  0  3  0  0  0  0  0  0
  -26.3380  -27.1340   19.6650 C   0  0  0  0  0  3  0  0  0  0  0  0
  -25.1290  -27.8540   19.6420 C   0  0  0  0  0  3  0  0  0  0  0  0
  -23.8050  -29.9420   20.2930 C   0  0  0  0  0  2  0  0  0  0  0  0
  -24.7910  -31.2120   22.2610 N   0  0  0  0  0  0  0  0  0  0  0  0
  -23.5950  -32.2340   23.8960 O   0  0  0  0  0  0  0  0  0  0  0  0
  -22.8970  -29.5490   22.6020 C   0  0  0  0  0  0  0  0  0  0  0  0
  -21.5800  -29.3400   22.4310 N   0  0  0  0  0  0  0  0  0  0  0  0
  -23.5730  -28.9210   23.4230 O   0  0  0  0  0  0  0  0  0  0  0  0
  -21.0940  -29.8970   21.7410 H   0  0  0  0  0  0  0  0  0  0  0  0
  -18.2120  -28.0870   22.8310 C   0  0  0  0  0  0  0  0  0  0  0  0
  -20.7620  -28.3690   23.1580 C   0  0  0  0  0  3  0  0  0  0  0  0
  -20.8990  -26.9580   22.5450 C   0  0  0  0  0  2  0  0  0  0  0  0
  -19.8170  -26.6530   21.5040 C   0  0  0  0  0  2  0  0  0  0  0  0
  -18.4210  -26.7580   22.1260 C   0  0  0  0  0  2  0  0  0  0  0  0
  -19.3130  -28.8500   23.3030 C   0  0  0  0  0  0  0  0  0  0  0  0
  -19.0700  -30.0960   23.9220 C   0  0  0  0  0  3  0  0  0  0  0  0
  -17.7570  -30.5810   24.0710 C   0  0  0  0  0  3  0  0  0  0  0  0
  -16.6700  -29.8160   23.6140 C   0  0  0  0  0  3  0  0  0  0  0  0
  -16.8980  -28.5700   23.0000 C   0  0  0  0  0  3  0  0  0  0  0  0
  -25.9550  -32.6280   24.0440 C   0  0  0  0  0  3  0  0  0  0  0  0
  -26.4380  -31.8580   25.3360 C   0  0  1  0  0  0  0  0  0  0  0  0
  -25.3090  -31.6040   26.3590 C   0  0  0  0  0  1  0  0  0  0  0  0
  -27.0700  -30.4950   24.9610 C   0  0  0  0  0  1  0  0  0  0  0  0
  -27.5370  -32.6750   26.0550 C   0  0  0  0  0  1  0  0  0  0  0  0
  -25.6290  -34.0250   24.3630 N   0  0  0  0  0  0  0  0  0  0  0  0
  -25.9720  -35.0770   23.6090 C   0  0  0  0  0  0  0  0  0  0  0  0
  -26.6710  -34.9770   22.5970 O   0  0  0  0  0  0  0  0  0  0  0  0
  -25.0250  -34.1800   25.1570 H   0  0  0  0  0  0  0  0  0  0  0  0
  -24.2360  -36.8520   23.2040 C   0  0  0  0  0  1  0  0  0  0  0  0
  -25.4590  -36.4600   24.0480 C   0  0  0  0  0  3  0  0  0  0  0  0
  -27.5570  -37.3730   24.9390 C   0  0  0  0  0  1  0  0  0  0  0  0
  -26.4830  -37.5230   23.9610 N   0  0  0  0  0  0  0  0  0  0  0  0
  -26.0580  -38.4380   24.0940 H   0  0  0  0  0  0  0  0  0  0  0  0
  -28.3760  -19.9460   21.2180 C   0  0  0  0  0  2  0  0  0  0  0  0
  -28.9580  -19.0070   20.1300 C   0  0  0  0  0  2  0  0  0  0  0  0
  -31.3450  -14.5820   20.0910 C   0  0  0  0  0  0  0  0  0  0  0  0
  -30.8700  -12.3600   19.1590 C   0  0  0  0  0  2  0  0  0  0  0  0
  -29.9390  -12.4850   17.9400 C   0  0  0  0  0  2  0  0  0  0  0  0
  -28.4700  -12.4150   18.3940 C   0  0  0  0  0  2  0  0  0  0  0  0
  -28.1590  -13.3940   19.5590 C   0  0  0  0  0  3  0  0  0  0  0  0
  -29.2260  -13.3160   20.6780 C   0  0  0  0  0  2  0  0  0  0  0  0
  -30.5540  -13.4740   20.0680 N   0  0  0  0  0  0  0  0  0  0  0  0
  -32.4770  -14.6000   19.6040 O   0  0  0  0  0  0  0  0  0  0  0  0
  -31.1480  -17.3790   18.7890 C   0  0  0  0  0  0  0  0  0  0  0  0
  -31.6740  -16.6070   21.4370 C   0  0  0  0  0  2  0  0  0  0  0  0
  -30.1200  -16.6800   19.6940 C   0  0  0  0  0  3  0  0  0  0  0  0
  -29.8110  -17.8210   20.6780 C   0  0  0  0  0  3  0  0  0  0  0  0
  -31.3090  -18.0290   20.9330 C   0  0  0  0  0  3  0  0  0  0  0  0
  -31.8550  -18.1760   19.5810 N   0  0  0  0  0  0  0  0  0  0  0  0
  -30.8400  -15.7300   20.5770 N   0  0  0  0  0  0  0  0  0  0  0  0
  -31.2950  -17.1990   17.5830 O   0  0  0  0  0  0  0  0  0  0  0  0
  -32.6380  -18.7560   19.3080 H   0  0  0  0  0  0  0  0  0  0  0  0
  -25.8240  -14.1360   20.3420 C   0  0  0  0  0  0  0  0  0  0  0  0
  -24.7200  -13.4230   20.7360 C   0  0  0  0  0  0  0  0  0  0  0  0
  -25.1030  -12.0470   20.6900 C   0  0  0  0  0  0  0  0  0  0  0  0
  -26.8080  -13.1940   20.0790 N   0  0  0  0  0  0  0  0  0  0  0  0
  -26.3800  -11.9350   20.3470 N   0  0  0  0  0  0  0  0  0  0  0  0
  -24.3130  -10.8250   20.8930 C   0  0  0  0  0  0  0  0  0  0  0  0
  -24.6830   -9.8510   21.8450 C   0  0  0  0  0  3  0  0  0  0  0  0
  -23.8930   -8.6940   22.0340 C   0  0  0  0  0  3  0  0  0  0  0  0
  -22.7200   -8.5040   21.2700 C   0  0  0  0  0  0  0  0  0  0  0  0
  -22.3670   -9.4660   20.3040 C   0  0  0  0  0  3  0  0  0  0  0  0
  -23.1560  -10.6130   20.1130 C   0  0  0  0  0  3  0  0  0  0  0  0
  -21.9070   -7.4020   21.3680 O   0  0  0  0  0  0  0  0  0  0  0  0
  -21.7830   -6.7010   22.5420 C   0  0  0  0  0  0  0  0  0  0  0  0
  -21.3280   -7.3150   23.7300 C   0  0  0  0  0  3  0  0  0  0  0  0
  -21.1470   -6.5440   24.8950 C   0  0  0  0  0  3  0  0  0  0  0  0
  -21.4110   -5.1620   24.8740 C   0  0  0  0  0  0  0  0  0  0  0  0
  -21.8610   -4.5500   23.6910 C   0  0  0  0  0  3  0  0  0  0  0  0
  -22.0440   -5.3170   22.5280 C   0  0  0  0  0  0  0  0  0  0  0  0
  -22.4570   -4.7190   21.3850 F   0  0  0  0  0  0  0  0  0  0  0  0
  -21.2290   -4.4210   25.9910 F   0  0  0  0  0  0  0  0  0  0  0  0
  -23.3600  -13.9810   21.0340 C   0  0  0  0  0  0  0  0  0  0  0  0
  -22.6070  -13.3320   21.9180 N   0  0  0  0  0  0  0  0  0  0  0  0
  -22.9690  -15.0250   20.5160 O   0  0  0  0  0  0  0  0  0  0  0  0
  -22.9310  -12.4900   22.3660 H   0  0  0  0  0  0  0  0  0  0  0  0
  -21.6930  -13.6950   22.1520 H   0  0  0  0  0  0  0  0  0  0  0  0
  -26.0720  -15.4910   20.1640 N   0  0  0  0  0  0  0  0  0  0  0  0
  -25.3660  -16.2080   20.2930 H   0  0  0  0  0  0  0  0  0  0  0  0
  -26.9550  -15.8600   19.8370 H   0  0  0  0  0  0  0  0  0  0  0  0
  2  1  1  0
  2  5  1  0
  3  2  1  0
  4  2  1  0
  6  7  1  0
  6  5  1  0
  8  7  1  0
  9 20  2  0
 10  8  1  0
 10 15  1  0
 11 19  1  0
 11 21  1  0
 12 18  1  0
 12 14  1  0
 13 19  1  0
 14 15  2  0
 14 13  1  0
 16 10  2  0
 17 16  1  0
 17 12  2  0
 18 11  1  0
 19  9  1  0
 21 23  2  0
 22 21  1  0
 24 22  1  0
 25 34  2  0
 25 30  1  0
 26 22  1  0
 26 30  1  0
 27 26  1  0
 28 29  1  0
 28 27  1  0
 29 25  1  0
 30 31  2  0
 31 32  1  0
 33 32  2  0
 34 33  1  0
 35  9  1  0
 35 40  1  0
 35 36  1  0
 36 39  1  1
 36 37  1  0
 38 36  1  0
 40 43  1  0
 41 45  1  0
 41 40  1  0
 42 41  2  0
 45 44  1  0
 47 45  1  0
 47 48  1  0
 47 46  1  0
 49  1  1  0
 50 49  1  0
 51 65  1  0
 52 57  1  0
 53 54  1  0
 53 52  1  0
 55 54  1  0
 55 71  1  0
 55 56  1  0
 57 51  1  0
 57 56  1  0
 58 51  2  0
 59 64  1  0
 61 59  1  0
 61 65  1  0
 61 62  1  0
 62 50  1  0
 62 63  1  0
 63 60  1  0
 64 63  1  0
 65 60  1  0
 66 59  2  0
 67 64  1  0
 68 69  2  0
 69 88  1  0
 70 69  1  0
 70 73  1  0
 71 68  1  0
 71 72  1  0
 72 70  2  0
 73 74  1  0
 74 75  2  0
 76 79  1  0
 76 75  1  0
 77 76  2  0
 78 77  1  0
 78 73  2  0
 79 80  1  0
 80 81  1  0
 81 82  2  0
 83 82  1  0
 83 87  1  0
 84 83  2  0
 85 80  2  0
 85 84  1  0
 86 85  1  0
 88 89  1  0
 89 92  1  0
 89 91  1  0
 90 88  2  0
 93 94  1  0
 93 68  1  0
 95 93  1  0
M  ISO  4   7 101   8 101  51 100  65 100
M  END
>  <TORSDO>  (53) 
F 22

>  <SCORE>  (53) 
-12.276

>  <name>  (53) 
53

>  <ligand_id>  (53) 
53

>  <original_smiles>  (53) 
[H]c1c([H])c([H])c2c(c1[H])C([H])([H])C([H])([H])C([H])([H])C2([H])N([H])C(=O)C1([H])N(C(=O)C([H])(N([H])C(=O)C([H])(N([H])C([H])([H])[H])C([H])([H])[H])C(C([H])([H])[H])(C([H])([H])[H])C([H])([H])[H])C([H])([H])c2c([H])c(OC([H])([H])C([H])([H])C([H])([H])[N+]([H])([H])C([H])([H])C([H])([H])C([H])([H])C3([H])C4([H])C(=O)N([H])C3([H])C([H])([H])N4C(=O)N3C([H])([H])C([H])([H])C([H])([H])C([H])(n4nc(-c5c([H])c([H])c(Oc6c([H])c([H])c(F)c([H])c6F)c([H])c5[H])c(C(=O)N([H])[H])c4N([H])[H])C3([H])[H])c([H])c([H])c2C1([H])[H]

>  <smiles>  (53) 
[H]c1c([H])c([H])c2c(c1[H])C([H])([H])C([H])([H])C([H])([H])C2([H])N([H])C(=O)C1([H])N(C(=O)C([H])(N([H])C(=O)C([H])(N([H])C([H])([H])[H])C([H])([H])[H])C(C([H])([H])[H])(C([H])([H])[H])C([H])([H])[H])C([H])([H])c2c([H])c(OC([H])([H])C([H])([H])C([H])([H])[N+]([H])([H])C([H])([H])C([H])([H])C([H])([H])C3([H])C4([H])C(=O)N([H])C3([H])C([H])([H])N4C(=O)N3C([H])([H])C([H])([H])C([H])([H])C([H])(n4nc(-c5c([H])c([H])c(Oc6c([H])c([H])c(F)c([H])c6F)c([H])c5[H])c(C(=O)N([H])[H])c4N([H])[H])C3([H])[H])c([H])c([H])c2C1([H])[H]

$$$$
54:0:0
     RDKit          3D

100109  0  0  1  0  0  0  0  0999 V2000
  -30.9820  -21.8110   19.8850 C   0  0  0  0  0  2  0  0  0  0  0  0
  -30.3190  -18.6750   21.5790 C   0  0  0  0  0  2  0  0  0  0  0  0
  -29.7820  -20.1440   18.6490 C   0  0  0  0  0  2  0  0  0  0  0  0
  -30.2030  -18.7520   19.1260 C   0  0  0  0  0  3  0  0  0  0  0  0
  -29.7550  -17.3240   21.0570 C   0  0  0  0  0  3  0  0  0  0  0  0
  -30.8190  -19.4120   20.3430 C   0  0  0  0  0  3  0  0  0  0  0  0
  -29.2600  -17.6480   19.6170 C   0  0  0  0  0  3  0  0  0  0  0  0
  -30.0910  -20.6450   19.9900 N   0  0  0  0  0  0  0  0  0  0  0  0
  -27.8540  -18.0840   19.6250 N   0  0  0  0  0  4  0  0  0  0  0  0
  -27.7570  -18.9530   20.1190 H   0  0  0  0  0  0  0  0  0  0  0  0
  -27.2700  -17.4000   20.0720 H   0  0  0  0  0  0  0  0  0  0  0  0
  -27.5200  -18.2100   18.6850 H   0  0  0  0  0  0  0  0  0  0  0  0
  -30.8430  -16.2130   21.0790 C   0  0  0  0  0  2  0  0  0  0  0  0
  -30.8610  -13.9130   20.0680 C   0  0  0  0  0  0  0  0  0  0  0  0
  -30.4810  -11.7200   18.9970 C   0  0  0  0  0  2  0  0  0  0  0  0
  -29.4660  -11.8490   17.8420 C   0  0  0  0  0  2  0  0  0  0  0  0
  -28.0240  -11.7340   18.3690 C   0  0  0  0  0  2  0  0  0  0  0  0
  -27.7550  -12.6510   19.5890 C   0  0  0  0  0  3  0  0  0  0  0  0
  -28.8660  -12.4820   20.6490 C   0  0  0  0  0  2  0  0  0  0  0  0
  -30.1640  -12.7480   20.0010 N   0  0  0  0  0  0  0  0  0  0  0  0
  -31.8950  -14.1200   19.4250 O   0  0  0  0  0  0  0  0  0  0  0  0
  -30.3150  -14.8630   20.8440 N   0  0  0  0  0  0  0  0  0  0  0  0
  -29.4770  -14.5960   21.3410 H   0  0  0  0  0  0  0  0  0  0  0  0
  -25.4280  -13.3140   20.4680 C   0  0  0  0  0  0  0  0  0  0  0  0
  -24.3690  -12.5670   20.9110 C   0  0  0  0  0  0  0  0  0  0  0  0
  -24.7910  -11.2050   20.8370 C   0  0  0  0  0  0  0  0  0  0  0  0
  -26.4300  -12.4100   20.1560 N   0  0  0  0  0  0  0  0  0  0  0  0
  -26.0530  -11.1350   20.4330 N   0  0  0  0  0  0  0  0  0  0  0  0
  -24.0500   -9.9590   21.0670 C   0  0  0  0  0  0  0  0  0  0  0  0
  -24.4690   -9.0190   22.0350 C   0  0  0  0  0  3  0  0  0  0  0  0
  -23.7280   -7.8380   22.2530 C   0  0  0  0  0  3  0  0  0  0  0  0
  -22.5550   -7.5880   21.5010 C   0  0  0  0  0  0  0  0  0  0  0  0
  -22.1560   -8.5140   20.5210 C   0  0  0  0  0  3  0  0  0  0  0  0
  -22.8960   -9.6870   20.3030 C   0  0  0  0  0  3  0  0  0  0  0  0
  -21.7900   -6.4520   21.6220 O   0  0  0  0  0  0  0  0  0  0  0  0
  -21.6750   -5.7870   22.8170 C   0  0  0  0  0  0  0  0  0  0  0  0
  -21.1300   -6.4040   23.9650 C   0  0  0  0  0  3  0  0  0  0  0  0
  -20.9660   -5.6630   25.1520 C   0  0  0  0  0  3  0  0  0  0  0  0
  -21.3380   -4.3050   25.1920 C   0  0  0  0  0  0  0  0  0  0  0  0
  -21.8760   -3.6890   24.0490 C   0  0  0  0  0  3  0  0  0  0  0  0
  -22.0410   -4.4280   22.8640 C   0  0  0  0  0  0  0  0  0  0  0  0
  -22.5410   -3.8220   21.7580 F   0  0  0  0  0  0  0  0  0  0  0  0
  -21.1760   -3.5910   26.3290 F   0  0  0  0  0  0  0  0  0  0  0  0
  -23.0080  -13.0780   21.2870 C   0  0  0  0  0  0  0  0  0  0  0  0
  -22.3260  -12.3880   22.1960 N   0  0  0  0  0  0  0  0  0  0  0  0
  -22.5600  -14.1180   20.8080 O   0  0  0  0  0  0  0  0  0  0  0  0
  -22.7040  -11.5470   22.6060 H   0  0  0  0  0  0  0  0  0  0  0  0
  -21.4140  -12.7110   22.4880 H   0  0  0  0  0  0  0  0  0  0  0  0
  -25.6150  -14.6780   20.2790 N   0  0  0  0  0  0  0  0  0  0  0  0
  -24.8470  -15.3320   20.3750 H   0  0  0  0  0  0  0  0  0  0  0  0
  -26.3660  -15.0260   19.7010 H   0  0  0  0  0  0  0  0  0  0  0  0
  -31.1240  -22.6040   21.2120 C   0  0  0  0  0  3  0  0  0  0  0  0
  -30.5700  -23.9800   21.0910 N   0  0  0  0  0  4  0  0  0  0  0  0
  -30.7910  -24.4570   21.9510 H   0  0  0  0  0  0  0  0  0  0  0  0
  -31.0410  -24.4810   20.3520 H   0  0  0  0  0  0  0  0  0  0  0  0
  -29.1050  -24.0840   20.8900 C   0  0  0  0  0  2  0  0  0  0  0  0
  -28.5390  -25.4440   21.3490 C   0  0  0  0  0  2  0  0  0  0  0  0
  -28.7780  -26.5310   20.4300 O   0  0  0  0  0  0  0  0  0  0  0  0
  -24.8390  -31.6930   23.3020 C   0  0  0  0  0  0  0  0  0  0  0  0
  -27.6620  -27.3250   20.3030 C   0  0  0  0  0  0  0  0  0  0  0  0
  -23.7300  -30.3070   21.5800 C   0  0  0  0  0  3  0  0  0  0  0  0
  -25.2690  -28.8140   20.1980 C   0  0  0  0  0  0  0  0  0  0  0  0
  -26.2570  -30.6950   21.5140 C   0  0  0  0  0  2  0  0  0  0  0  0
  -26.3900  -29.3380   20.8550 C   0  0  0  0  0  0  0  0  0  0  0  0
  -27.5950  -28.6020   20.9040 C   0  0  0  0  0  3  0  0  0  0  0  0
  -26.5360  -26.8230   19.6180 C   0  0  0  0  0  3  0  0  0  0  0  0
  -25.3380  -27.5580   19.5720 C   0  0  0  0  0  3  0  0  0  0  0  0
  -24.0120  -29.6560   20.2010 C   0  0  0  0  0  2  0  0  0  0  0  0
  -24.9580  -30.9110   22.1930 N   0  0  0  0  0  0  0  0  0  0  0  0
  -23.7290  -31.9470   23.7920 O   0  0  0  0  0  0  0  0  0  0  0  0
  -23.0430  -29.2640   22.4910 C   0  0  0  0  0  0  0  0  0  0  0  0
  -21.7240  -29.0840   22.3090 N   0  0  0  0  0  0  0  0  0  0  0  0
  -23.6930  -28.6200   23.3190 O   0  0  0  0  0  0  0  0  0  0  0  0
  -21.2620  -29.6530   21.6120 H   0  0  0  0  0  0  0  0  0  0  0  0
  -18.3260  -27.9160   22.6760 C   0  0  0  0  0  0  0  0  0  0  0  0
  -20.8770  -28.1330   23.0260 C   0  0  0  0  0  3  0  0  0  0  0  0
  -20.9790  -26.7190   22.4050 C   0  0  0  0  0  2  0  0  0  0  0  0
  -19.9020  -26.4450   21.3520 C   0  0  0  0  0  2  0  0  0  0  0  0
  -18.5050  -26.5870   21.9630 C   0  0  0  0  0  2  0  0  0  0  0  0
  -19.4400  -28.6490   23.1630 C   0  0  0  0  0  0  0  0  0  0  0  0
  -19.2210  -29.8950   23.7870 C   0  0  0  0  0  3  0  0  0  0  0  0
  -17.9170  -30.4070   23.9360 C   0  0  0  0  0  3  0  0  0  0  0  0
  -16.8170  -29.6680   23.4670 C   0  0  0  0  0  3  0  0  0  0  0  0
  -17.0210  -28.4260   22.8430 C   0  0  0  0  0  3  0  0  0  0  0  0
  -26.0860  -32.3280   23.9940 C   0  0  0  0  0  3  0  0  0  0  0  0
  -25.7450  -33.7150   24.3340 N   0  0  0  0  0  0  0  0  0  0  0  0
  -26.0760  -34.7820   23.5940 C   0  0  0  0  0  0  0  0  0  0  0  0
  -26.7720  -34.7020   22.5780 O   0  0  0  0  0  0  0  0  0  0  0  0
  -25.1300  -33.8510   25.1230 H   0  0  0  0  0  0  0  0  0  0  0  0
  -24.3160  -36.5390   23.2280 C   0  0  0  0  0  1  0  0  0  0  0  0
  -25.5530  -36.1540   24.0550 C   0  0  0  0  0  3  0  0  0  0  0  0
  -27.6490  -37.0860   24.9290 C   0  0  0  0  0  1  0  0  0  0  0  0
  -26.5640  -37.2300   23.9630 N   0  0  0  0  0  0  0  0  0  0  0  0
  -26.1350  -38.1410   24.1010 H   0  0  0  0  0  0  0  0  0  0  0  0
  -26.5530  -31.5370   25.2760 C   0  0  1  0  0  0  0  0  0  0  0  0
  -25.4140  -31.2570   26.2840 C   0  0  0  0  0  1  0  0  0  0  0  0
  -27.1810  -30.1780   24.8820 C   0  0  0  0  0  1  0  0  0  0  0  0
  -27.6570  -32.3340   26.0100 C   0  0  0  0  0  1  0  0  0  0  0  0
  -33.1930  -21.3110   22.0340 C   0  0  0  0  0  1  0  0  0  0  0  0
  -32.6050  -22.6770   21.6500 C   0  0  0  0  0  2  0  0  0  0  0  0
  1  8  1  0
  3  8  1  0
  4  3  1  0
  4  7  1  0
  4  6  1  0
  5 13  1  0
  5  2  1  0
  6  2  1  0
  7  9  1  0
  7  5  1  0
  8  6  1  0
  9 11  1  0
  9 10  1  0
 12  9  1  0
 14 22  1  0
 15 20  1  0
 16 17  1  0
 16 15  1  0
 18 17  1  0
 18 27  1  0
 18 19  1  0
 20 14  1  0
 20 19  1  0
 21 14  2  0
 22 13  1  0
 22 23  1  0
 24 25  2  0
 25 44  1  0
 26 25  1  0
 26 29  1  0
 27 28  1  0
 27 24  1  0
 28 26  2  0
 29 30  1  0
 30 31  2  0
 32 35  1  0
 32 31  1  0
 33 32  2  0
 34 33  1  0
 34 29  2  0
 35 36  1  0
 36 41  2  0
 36 37  1  0
 37 38  2  0
 38 39  1  0
 39 43  1  0
 40 39  2  0
 41 40  1  0
 42 41  1  0
 44 45  1  0
 45 48  1  0
 45 47  1  0
 46 44  2  0
 49 50  1  0
 49 24  1  0
 51 49  1  0
 52  1  1  0
 52100  1  0
 53 52  1  0
 53 54  1  0
 55 53  1  0
 56 53  1  0
 56 57  1  0
 58 57  1  0
 59 70  2  0
 60 58  1  0
 60 65  1  0
 61 69  1  0
 61 71  1  0
 62 68  1  0
 62 64  1  0
 63 69  1  0
 64 65  2  0
 64 63  1  0
 66 60  2  0
 67 66  1  0
 67 62  2  0
 68 61  1  0
 69 59  1  0
 71 73  2  0
 72 71  1  0
 74 72  1  0
 75 84  2  0
 75 80  1  0
 76 72  1  0
 76 80  1  0
 77 76  1  0
 78 79  1  0
 78 77  1  0
 79 75  1  0
 80 81  2  0
 81 82  1  0
 83 82  2  0
 84 83  1  0
 85 59  1  0
 85 86  1  0
 85 95  1  0
 86 89  1  0
 87 91  1  0
 87 86  1  0
 88 87  2  0
 91 90  1  0
 93 91  1  0
 93 94  1  0
 93 92  1  0
 95 98  1  1
 95 96  1  0
 97 95  1  0
100 99  1  0
M  ISO  4  14 100  22 100  57 101  58 101
M  END
>  <TORSDO>  (54) 
F 24

>  <SCORE>  (54) 
-10.629

>  <name>  (54) 
54

>  <ligand_id>  (54) 
54

>  <original_smiles>  (54) 
[H]c1c([H])c([H])c2c(c1[H])C([H])([H])C([H])([H])C([H])([H])C2([H])N([H])C(=O)C1([H])N(C(=O)C([H])(N([H])C(=O)C([H])(N([H])C([H])([H])[H])C([H])([H])[H])C(C([H])([H])[H])(C([H])([H])[H])C([H])([H])[H])C([H])([H])c2c([H])c(OC([H])([H])C([H])([H])[N+]([H])([H])C([H])(C([H])([H])N3C([H])([H])C4([H])C3([H])C([H])([H])C([H])(C([H])([H])N([H])C(=O)N3C([H])([H])C([H])([H])C([H])([H])C([H])(n5nc(-c6c([H])c([H])c(Oc7c([H])c([H])c(F)c([H])c7F)c([H])c6[H])c(C(=O)N([H])[H])c5N([H])[H])C3([H])[H])C4([H])[N+]([H])([H])[H])C([H])([H])C([H])([H])[H])c([H])c([H])c2C1([H])[H]

>  <smiles>  (54) 
[H]c1c([H])c([H])c2c(c1[H])C([H])([H])C([H])([H])C([H])([H])C2([H])N([H])C(=O)C1([H])N(C(=O)C([H])(N([H])C(=O)C([H])(N([H])C([H])([H])[H])C([H])([H])[H])C(C([H])([H])[H])(C([H])([H])[H])C([H])([H])[H])C([H])([H])c2c([H])c(OC([H])([H])C([H])([H])[N+]([H])([H])C([H])(C([H])([H])N3C([H])([H])C4([H])C3([H])C([H])([H])C([H])(C([H])([H])N([H])C(=O)N3C([H])([H])C([H])([H])C([H])([H])C([H])(n5nc(-c6c([H])c([H])c(Oc7c([H])c([H])c(F)c([H])c7F)c([H])c6[H])c(C(=O)N([H])[H])c5N([H])[H])C3([H])[H])C4([H])[N+]([H])([H])[H])C([H])([H])C([H])([H])[H])c([H])c([H])c2C1([H])[H]

$$$$
55:0:0
     RDKit          3D

 92101  0  0  1  0  0  0  0  0999 V2000
  -29.3830  -23.1850   21.7620 C   0  0  0  0  0  2  0  0  0  0  0  0
  -29.2610  -23.1630   19.6740 C   0  0  0  0  0  2  0  0  0  0  0  0
  -29.8020  -22.1430   20.7030 C   0  0  0  0  0  3  0  0  0  0  0  0
  -29.3990  -24.3110   20.7030 C   0  0  0  0  0  3  0  0  0  0  0  0
  -29.2360  -20.6910   20.7770 C   0  0  0  0  0  2  0  0  0  0  0  0
  -32.0130  -18.8080   18.8790 C   0  0  0  0  0  3  0  0  0  0  0  0
  -31.2020  -19.8300   19.3880 C   0  0  0  0  0  3  0  0  0  0  0  0
  -31.7520  -17.4670   19.2060 C   0  0  0  0  0  3  0  0  0  0  0  0
  -30.1110  -19.5330   20.2310 C   0  0  0  0  0  0  0  0  0  0  0  0
  -29.8260  -18.1560   20.5350 C   0  0  0  0  0  0  0  0  0  0  0  0
  -30.6730  -17.1030   20.0530 C   0  0  0  0  0  0  0  0  0  0  0  0
  -28.5840  -17.8320   21.3590 C   0  0  0  0  0  1  0  0  0  0  0  0
  -31.1180  -14.6060   20.0360 C   0  0  0  0  0  0  0  0  0  0  0  0
  -30.7330  -12.4440   18.9270 C   0  0  0  0  0  2  0  0  0  0  0  0
  -29.7290  -12.6730   17.7780 C   0  0  0  0  0  2  0  0  0  0  0  0
  -28.2830  -12.5310   18.2930 C   0  0  0  0  0  2  0  0  0  0  0  0
  -28.0180  -13.3490   19.5860 C   0  0  0  0  0  3  0  0  0  0  0  0
  -29.1420  -13.1440   20.6260 C   0  0  0  0  0  2  0  0  0  0  0  0
  -30.4270  -13.4330   19.9740 N   0  0  0  0  0  0  0  0  0  0  0  0
  -32.2820  -14.6850   19.6360 O   0  0  0  0  0  0  0  0  0  0  0  0
  -30.4060  -15.7110   20.3700 N   0  0  0  0  0  0  0  0  0  0  0  0
  -29.5110  -15.5220   20.7970 H   0  0  0  0  0  0  0  0  0  0  0  0
  -25.6830  -13.9300   20.4940 C   0  0  0  0  0  0  0  0  0  0  0  0
  -24.6360  -13.1450   20.8970 C   0  0  0  0  0  0  0  0  0  0  0  0
  -25.0830  -11.7950   20.7720 C   0  0  0  0  0  0  0  0  0  0  0  0
  -26.7010  -13.0560   20.1470 N   0  0  0  0  0  0  0  0  0  0  0  0
  -26.3490  -11.7640   20.3750 N   0  0  0  0  0  0  0  0  0  0  0  0
  -24.3560  -10.5300   20.9460 C   0  0  0  0  0  0  0  0  0  0  0  0
  -24.7620   -9.5710   21.8990 C   0  0  0  0  0  3  0  0  0  0  0  0
  -24.0380   -8.3700   22.0610 C   0  0  0  0  0  3  0  0  0  0  0  0
  -22.8920   -8.1210   21.2680 C   0  0  0  0  0  0  0  0  0  0  0  0
  -22.5080   -9.0660   20.3010 C   0  0  0  0  0  3  0  0  0  0  0  0
  -23.2330  -10.2580   20.1390 C   0  0  0  0  0  3  0  0  0  0  0  0
  -22.1410   -6.9730   21.3380 O   0  0  0  0  0  0  0  0  0  0  0  0
  -21.9610   -6.3010   22.5200 C   0  0  0  0  0  0  0  0  0  0  0  0
  -21.3730   -6.9170   23.6460 C   0  0  0  0  0  3  0  0  0  0  0  0
  -21.1450   -6.1710   24.8190 C   0  0  0  0  0  3  0  0  0  0  0  0
  -21.4910   -4.8070   24.8660 C   0  0  0  0  0  0  0  0  0  0  0  0
  -22.0710   -4.1890   23.7430 C   0  0  0  0  0  3  0  0  0  0  0  0
  -22.3030   -4.9330   22.5730 C   0  0  0  0  0  0  0  0  0  0  0  0
  -22.8430   -4.3280   21.4880 F   0  0  0  0  0  0  0  0  0  0  0  0
  -21.2620   -4.0880   25.9890 F   0  0  0  0  0  0  0  0  0  0  0  0
  -23.2640  -13.6170   21.2810 C   0  0  0  0  0  0  0  0  0  0  0  0
  -22.5840  -12.8840   22.1560 N   0  0  0  0  0  0  0  0  0  0  0  0
  -22.8040  -14.6700   20.8400 O   0  0  0  0  0  0  0  0  0  0  0  0
  -22.9660  -12.0280   22.5310 H   0  0  0  0  0  0  0  0  0  0  0  0
  -21.6620  -13.1780   22.4470 H   0  0  0  0  0  0  0  0  0  0  0  0
  -25.8440  -15.3070   20.3670 N   0  0  0  0  0  0  0  0  0  0  0  0
  -25.0750  -15.9460   20.5330 H   0  0  0  0  0  0  0  0  0  0  0  0
  -26.6390  -15.7540   19.9260 H   0  0  0  0  0  0  0  0  0  0  0  0
  -28.3210  -25.4140   20.8230 C   0  0  0  0  0  2  0  0  0  0  0  0
  -28.5680  -26.6770   20.1590 O   0  0  0  0  0  0  0  0  0  0  0  0
  -24.7170  -31.8140   23.3020 C   0  0  0  0  0  0  0  0  0  0  0  0
  -27.4430  -27.4830   20.1190 C   0  0  0  0  0  0  0  0  0  0  0  0
  -23.5620  -30.4810   21.5700 C   0  0  0  0  0  3  0  0  0  0  0  0
  -25.0570  -29.0070   20.1210 C   0  0  0  0  0  0  0  0  0  0  0  0
  -26.0920  -30.8470   21.4550 C   0  0  0  0  0  2  0  0  0  0  0  0
  -26.1990  -29.4990   20.7660 C   0  0  0  0  0  0  0  0  0  0  0  0
  -27.3980  -28.7430   20.7640 C   0  0  0  0  0  3  0  0  0  0  0  0
  -26.2900  -27.0240   19.4470 C   0  0  0  0  0  3  0  0  0  0  0  0
  -25.0980  -27.7700   19.4570 C   0  0  0  0  0  3  0  0  0  0  0  0
  -23.8090  -29.8610   20.1690 C   0  0  0  0  0  2  0  0  0  0  0  0
  -24.8080  -31.0600   22.1700 N   0  0  0  0  0  0  0  0  0  0  0  0
  -23.6190  -32.0620   23.8210 O   0  0  0  0  0  0  0  0  0  0  0  0
  -22.8800  -29.4250   22.4690 C   0  0  0  0  0  0  0  0  0  0  0  0
  -21.5590  -29.2540   22.2950 N   0  0  0  0  0  0  0  0  0  0  0  0
  -23.5380  -28.7620   23.2750 O   0  0  0  0  0  0  0  0  0  0  0  0
  -21.0880  -29.8420   21.6210 H   0  0  0  0  0  0  0  0  0  0  0  0
  -18.1610  -28.0840   22.6650 C   0  0  0  0  0  0  0  0  0  0  0  0
  -20.7170  -28.2850   22.9950 C   0  0  0  0  0  3  0  0  0  0  0  0
  -20.8100  -26.8890   22.3380 C   0  0  0  0  0  2  0  0  0  0  0  0
  -19.7210  -26.6420   21.2900 C   0  0  0  0  0  2  0  0  0  0  0  0
  -18.3310  -26.7740   21.9190 C   0  0  0  0  0  2  0  0  0  0  0  0
  -19.2820  -28.8020   23.1580 C   0  0  0  0  0  0  0  0  0  0  0  0
  -19.0720  -30.0350   23.8130 C   0  0  0  0  0  3  0  0  0  0  0  0
  -17.7710  -30.5450   23.9850 C   0  0  0  0  0  3  0  0  0  0  0  0
  -16.6630  -29.8210   23.5130 C   0  0  0  0  0  3  0  0  0  0  0  0
  -16.8590  -28.5930   22.8560 C   0  0  0  0  0  3  0  0  0  0  0  0
  -25.9840  -32.4160   23.9880 C   0  0  0  0  0  3  0  0  0  0  0  0
  -26.4370  -31.6100   25.2670 C   0  0  1  0  0  0  0  0  0  0  0  0
  -25.2940  -31.3590   26.2760 C   0  0  0  0  0  1  0  0  0  0  0  0
  -27.0260  -30.2400   24.8620 C   0  0  0  0  0  1  0  0  0  0  0  0
  -27.5630  -32.3770   26.0000 C   0  0  0  0  0  1  0  0  0  0  0  0
  -25.6830  -33.8130   24.3310 N   0  0  0  0  0  0  0  0  0  0  0  0
  -26.0700  -34.8710   23.6080 C   0  0  0  0  0  0  0  0  0  0  0  0
  -26.7920  -34.7760   22.6110 O   0  0  0  0  0  0  0  0  0  0  0  0
  -25.0510  -33.9650   25.1050 H   0  0  0  0  0  0  0  0  0  0  0  0
  -24.4090  -36.7070   23.1790 C   0  0  0  0  0  1  0  0  0  0  0  0
  -25.5820  -36.2590   24.0640 C   0  0  0  0  0  3  0  0  0  0  0  0
  -27.6690  -37.0800   25.0630 C   0  0  0  0  0  1  0  0  0  0  0  0
  -26.6390  -37.2930   24.0490 N   0  0  0  0  0  0  0  0  0  0  0  0
  -26.2390  -38.2160   24.1950 H   0  0  0  0  0  0  0  0  0  0  0  0
  2  4  1  0
  2  3  1  0
  3  5  1  0
  3  1  1  0
  4 51  1  0
  4  1  1  0
  6  8  2  0
  6  7  1  0
  7  9  2  0
  8 11  1  0
  9 10  1  0
  9  5  1  0
 10 12  1  0
 11 21  1  0
 11 10  2  0
 13 21  1  0
 14 19  1  0
 15 16  1  0
 15 14  1  0
 17 16  1  0
 17 26  1  0
 17 18  1  0
 19 13  1  0
 19 18  1  0
 20 13  2  0
 21 22  1  0
 23 24  2  0
 24 43  1  0
 25 24  1  0
 25 28  1  0
 26 27  1  0
 26 23  1  0
 27 25  2  0
 28 29  1  0
 29 30  2  0
 31 34  1  0
 31 30  1  0
 32 31  2  0
 33 32  1  0
 33 28  2  0
 34 35  1  0
 35 40  2  0
 35 36  1  0
 36 37  2  0
 37 38  1  0
 38 42  1  0
 39 38  2  0
 40 39  1  0
 41 40  1  0
 43 44  1  0
 44 47  1  0
 44 46  1  0
 45 43  2  0
 48 23  1  0
 48 49  1  0
 50 48  1  0
 52 51  1  0
 53 64  2  0
 54 52  1  0
 54 59  1  0
 55 63  1  0
 55 65  1  0
 56 62  1  0
 56 58  1  0
 57 63  1  0
 58 57  1  0
 59 58  2  0
 60 61  1  0
 60 54  2  0
 61 56  2  0
 62 55  1  0
 63 53  1  0
 65 67  2  0
 66 65  1  0
 68 66  1  0
 69 78  2  0
 69 74  1  0
 70 66  1  0
 70 74  1  0
 71 70  1  0
 72 73  1  0
 72 71  1  0
 73 69  1  0
 74 75  2  0
 75 76  1  0
 77 76  2  0
 78 77  1  0
 79 53  1  0
 79 84  1  0
 79 80  1  0
 80 83  1  1
 80 81  1  0
 82 80  1  0
 84 87  1  0
 85 89  1  0
 85 84  1  0
 86 85  2  0
 89 88  1  0
 91 89  1  0
 91 92  1  0
 91 90  1  0
M  ISO  4  13 100  21 100  51 101  52 101
M  END
>  <TORSDO>  (55) 
F 19

>  <SCORE>  (55) 
-12.825

>  <name>  (55) 
55

>  <ligand_id>  (55) 
55

>  <original_smiles>  (55) 
[H]c1c([H])c([H])c2c(c1[H])C([H])([H])C([H])([H])C([H])([H])C2([H])N([H])C(=O)C1([H])N(C(=O)C([H])(N([H])C(=O)C([H])(N([H])C([H])([H])[H])C([H])([H])[H])C(C([H])([H])[H])(C([H])([H])[H])C([H])([H])[H])C([H])([H])c2c([H])c(OC([H])([H])C3([H])C([H])([H])C([H])(C([H])([H])c4c([H])c([H])c([H])c(N([H])C(=O)N5C([H])([H])C([H])([H])C([H])([H])C([H])(n6nc(-c7c([H])c([H])c(Oc8c([H])c([H])c(F)c([H])c8F)c([H])c7[H])c(C(=O)N([H])[H])c6N([H])[H])C5([H])[H])c4C([H])([H])[H])C3([H])[H])c([H])c([H])c2C1([H])[H]

>  <smiles>  (55) 
[H]c1c([H])c([H])c2c(c1[H])C([H])([H])C([H])([H])C([H])([H])C2([H])N([H])C(=O)C1([H])N(C(=O)C([H])(N([H])C(=O)C([H])(N([H])C([H])([H])[H])C([H])([H])[H])C(C([H])([H])[H])(C([H])([H])[H])C([H])([H])[H])C([H])([H])c2c([H])c(OC([H])([H])C3([H])C([H])([H])C([H])(C([H])([H])c4c([H])c([H])c([H])c(N([H])C(=O)N5C([H])([H])C([H])([H])C([H])([H])C([H])(n6nc(-c7c([H])c([H])c(Oc8c([H])c([H])c(F)c([H])c8F)c([H])c7[H])c(C(=O)N([H])[H])c6N([H])[H])C5([H])[H])c4C([H])([H])[H])C3([H])[H])c([H])c([H])c2C1([H])[H]

$$$$
56:0:0
     RDKit          3D

 93101  0  0  1  0  0  0  0  0999 V2000
  -29.9420  -20.6010   20.7400 C   0  0  0  0  0  2  0  0  0  0  0  0
  -29.4820  -19.1910   20.5110 N   0  0  0  0  0  4  0  0  0  0  0  0
  -28.9820  -19.1670   19.6360 H   0  0  0  0  0  0  0  0  0  0  0  0
  -28.8220  -18.9580   21.2340 H   0  0  0  0  0  0  0  0  0  0  0  0
  -30.5410  -18.1300   20.4390 C   0  0  0  0  0  3  0  0  0  0  0  0
  -31.5270  -18.6300   18.0330 C   0  0  0  0  0  2  0  0  0  0  0  0
  -32.1880  -17.3660   18.5250 C   0  0  0  0  0  2  0  0  0  0  0  0
  -30.7930  -17.7180   18.9960 C   0  0  0  0  0  3  0  0  0  0  0  0
  -30.3350  -16.9260   21.4390 C   0  0  0  0  0  2  0  0  0  0  0  0
  -30.6680  -14.5440   20.5190 C   0  0  0  0  0  0  0  0  0  0  0  0
  -30.4060  -12.3660   19.3680 C   0  0  0  0  0  2  0  0  0  0  0  0
  -29.4760  -12.5260   18.1480 C   0  0  0  0  0  2  0  0  0  0  0  0
  -27.9950  -12.3900   18.5600 C   0  0  0  0  0  2  0  0  0  0  0  0
  -27.6350  -13.2560   19.7970 C   0  0  0  0  0  3  0  0  0  0  0  0
  -28.6710  -13.0590   20.9240 C   0  0  0  0  0  2  0  0  0  0  0  0
  -29.9980  -13.3670   20.3660 N   0  0  0  0  0  0  0  0  0  0  0  0
  -31.8410  -14.6890   20.1730 O   0  0  0  0  0  0  0  0  0  0  0  0
  -29.9120  -15.5890   20.9360 N   0  0  0  0  0  0  0  0  0  0  0  0
  -28.9440  -15.3580   21.0920 H   0  0  0  0  0  0  0  0  0  0  0  0
  -25.2320  -13.8920   20.4580 C   0  0  0  0  0  0  0  0  0  0  0  0
  -24.1510  -13.1340   20.8190 C   0  0  0  0  0  0  0  0  0  0  0  0
  -24.6020  -11.7790   20.8190 C   0  0  0  0  0  0  0  0  0  0  0  0
  -26.2740  -12.9990   20.2600 N   0  0  0  0  0  0  0  0  0  0  0  0
  -25.8980  -11.7240   20.5370 N   0  0  0  0  0  0  0  0  0  0  0  0
  -23.8630  -10.5250   21.0140 C   0  0  0  0  0  0  0  0  0  0  0  0
  -24.2790   -9.5620   21.9600 C   0  0  0  0  0  3  0  0  0  0  0  0
  -23.5410   -8.3730   22.1410 C   0  0  0  0  0  3  0  0  0  0  0  0
  -22.3730   -8.1380   21.3770 C   0  0  0  0  0  0  0  0  0  0  0  0
  -21.9760   -9.0900   20.4220 C   0  0  0  0  0  3  0  0  0  0  0  0
  -22.7150  -10.2710   20.2380 C   0  0  0  0  0  3  0  0  0  0  0  0
  -21.6070   -7.0010   21.4680 O   0  0  0  0  0  0  0  0  0  0  0  0
  -21.5510   -6.2620   22.6230 C   0  0  0  0  0  0  0  0  0  0  0  0
  -21.1450   -6.8280   23.8510 C   0  0  0  0  0  3  0  0  0  0  0  0
  -21.0350   -6.0160   24.9970 C   0  0  0  0  0  3  0  0  0  0  0  0
  -21.3200   -4.6400   24.9160 C   0  0  0  0  0  0  0  0  0  0  0  0
  -21.7180   -4.0730   23.6930 C   0  0  0  0  0  3  0  0  0  0  0  0
  -21.8300   -4.8820   22.5490 C   0  0  0  0  0  0  0  0  0  0  0  0
  -22.1950   -4.3280   21.3670 F   0  0  0  0  0  0  0  0  0  0  0  0
  -21.2060   -3.8580   26.0160 F   0  0  0  0  0  0  0  0  0  0  0  0
  -22.7530  -13.6270   21.0560 C   0  0  0  0  0  0  0  0  0  0  0  0
  -22.0020  -12.9510   21.9180 N   0  0  0  0  0  0  0  0  0  0  0  0
  -22.3320  -14.6450   20.5080 O   0  0  0  0  0  0  0  0  0  0  0  0
  -22.3540  -12.1260   22.3820 H   0  0  0  0  0  0  0  0  0  0  0  0
  -21.0630  -13.2620   22.1180 H   0  0  0  0  0  0  0  0  0  0  0  0
  -25.4110  -15.2580   20.2590 N   0  0  0  0  0  0  0  0  0  0  0  0
  -24.6410  -15.9150   20.3270 H   0  0  0  0  0  0  0  0  0  0  0  0
  -26.2570  -15.6800   19.8970 H   0  0  0  0  0  0  0  0  0  0  0  0
  -28.9790  -21.7110   20.1870 C   0  0  0  0  0  2  0  0  0  0  0  0
  -29.1150  -23.0130   20.8690 N   0  0  0  0  0  0  0  0  0  0  0  0
  -28.6540  -22.9660   21.7760 H   0  0  0  0  0  0  0  0  0  0  0  0
  -28.5800  -24.1530   20.0930 C   0  0  0  0  0  2  0  0  0  0  0  0
  -28.4390  -25.4620   20.9350 C   0  0  0  0  0  2  0  0  0  0  0  0
  -28.3990  -26.6820   20.1600 O   0  0  0  0  0  0  0  0  0  0  0  0
  -24.5830  -31.8890   23.2430 C   0  0  0  0  0  0  0  0  0  0  0  0
  -27.2290  -27.4160   20.1960 C   0  0  0  0  0  0  0  0  0  0  0  0
  -23.3770  -30.4800   21.6060 C   0  0  0  0  0  3  0  0  0  0  0  0
  -24.8320  -28.9310   20.1890 C   0  0  0  0  0  0  0  0  0  0  0  0
  -25.9020  -30.8390   21.4010 C   0  0  0  0  0  2  0  0  0  0  0  0
  -25.9910  -29.4590   20.7730 C   0  0  0  0  0  0  0  0  0  0  0  0
  -27.1930  -28.7120   20.7690 C   0  0  0  0  0  3  0  0  0  0  0  0
  -26.0570  -26.9030   19.6060 C   0  0  0  0  0  3  0  0  0  0  0  0
  -24.8620  -27.6540   19.6010 C   0  0  0  0  0  3  0  0  0  0  0  0
  -23.5870  -29.7900   20.2310 C   0  0  0  0  0  2  0  0  0  0  0  0
  -24.6400  -31.0850   22.1420 N   0  0  0  0  0  0  0  0  0  0  0  0
  -23.5020  -32.1630   23.7830 O   0  0  0  0  0  0  0  0  0  0  0  0
  -22.7250  -29.4670   22.5730 C   0  0  0  0  0  0  0  0  0  0  0  0
  -21.4000  -29.2830   22.4460 N   0  0  0  0  0  0  0  0  0  0  0  0
  -23.4070  -28.8440   23.3910 O   0  0  0  0  0  0  0  0  0  0  0  0
  -20.9120  -29.8320   21.7530 H   0  0  0  0  0  0  0  0  0  0  0  0
  -18.0280  -28.0820   22.9370 C   0  0  0  0  0  0  0  0  0  0  0  0
  -20.5830  -28.3470   23.2180 C   0  0  0  0  0  3  0  0  0  0  0  0
  -20.6930  -26.9140   22.6500 C   0  0  0  0  0  2  0  0  0  0  0  0
  -19.5950  -26.5840   21.6350 C   0  0  0  0  0  2  0  0  0  0  0  0
  -18.2100  -26.7290   22.2710 C   0  0  0  0  0  2  0  0  0  0  0  0
  -19.1440  -28.8490   23.3680 C   0  0  0  0  0  0  0  0  0  0  0  0
  -18.9200  -30.1140   23.9520 C   0  0  0  0  0  3  0  0  0  0  0  0
  -17.6140  -30.6150   24.1090 C   0  0  0  0  0  3  0  0  0  0  0  0
  -16.5130  -29.8450   23.6970 C   0  0  0  0  0  3  0  0  0  0  0  0
  -16.7200  -28.5820   23.1150 C   0  0  0  0  0  3  0  0  0  0  0  0
  -25.8690  -32.5220   23.8590 C   0  0  0  0  0  3  0  0  0  0  0  0
  -25.5620  -33.9210   24.1870 N   0  0  0  0  0  0  0  0  0  0  0  0
  -25.8970  -34.9710   23.4270 C   0  0  0  0  0  0  0  0  0  0  0  0
  -26.5680  -34.8650   22.3970 O   0  0  0  0  0  0  0  0  0  0  0  0
  -24.9640  -34.0740   24.9860 H   0  0  0  0  0  0  0  0  0  0  0  0
  -24.1690  -36.7630   23.0640 C   0  0  0  0  0  1  0  0  0  0  0  0
  -25.4080  -36.3610   23.8790 C   0  0  0  0  0  3  0  0  0  0  0  0
  -27.5410  -37.2430   24.7120 C   0  0  0  0  0  1  0  0  0  0  0  0
  -26.4400  -37.4140   23.7680 N   0  0  0  0  0  0  0  0  0  0  0  0
  -26.0360  -38.3340   23.9150 H   0  0  0  0  0  0  0  0  0  0  0  0
  -26.3900  -31.7520   25.1330 C   0  0  1  0  0  0  0  0  0  0  0  0
  -25.3010  -31.5130   26.2050 C   0  0  0  0  0  1  0  0  0  0  0  0
  -26.9720  -30.3750   24.7380 C   0  0  0  0  0  1  0  0  0  0  0  0
  -27.5470  -32.5440   25.7890 C   0  0  0  0  0  1  0  0  0  0  0  0
  2  1  1  0
  2  4  1  0
  3  2  1  0
  5  2  1  0
  5  9  1  0
  6  7  1  0
  6  8  1  0
  7  8  1  0
  8  5  1  0
 10 18  1  0
 11 16  1  0
 12 13  1  0
 12 11  1  0
 14 13  1  0
 14 23  1  0
 14 15  1  0
 16 10  1  0
 16 15  1  0
 17 10  2  0
 18 19  1  0
 18  9  1  0
 20 21  2  0
 21 22  1  0
 21 40  1  0
 22 25  1  0
 23 20  1  0
 23 24  1  0
 24 22  2  0
 25 26  1  0
 26 27  2  0
 28 31  1  0
 28 27  1  0
 29 28  2  0
 30 29  1  0
 30 25  2  0
 31 32  1  0
 32 33  1  0
 33 34  2  0
 35 34  1  0
 35 39  1  0
 36 35  2  0
 37 32  2  0
 37 36  1  0
 38 37  1  0
 40 41  1  0
 41 44  1  0
 41 43  1  0
 42 40  2  0
 45 46  1  0
 45 20  1  0
 47 45  1  0
 48  1  1  0
 48 49  1  0
 49 50  1  0
 51 49  1  0
 51 52  1  0
 53 55  1  0
 53 52  1  0
 54 65  2  0
 55 60  1  0
 56 64  1  0
 56 66  1  0
 57 63  1  0
 57 59  1  0
 58 64  1  0
 59 58  1  0
 60 59  2  0
 61 55  2  0
 62 61  1  0
 62 57  2  0
 63 56  1  0
 64 54  1  0
 66 68  2  0
 67 66  1  0
 69 67  1  0
 70 79  2  0
 70 75  1  0
 71 67  1  0
 71 75  1  0
 72 71  1  0
 73 74  1  0
 73 72  1  0
 74 70  1  0
 75 76  2  0
 76 77  1  0
 78 77  2  0
 79 78  1  0
 80 54  1  0
 80 81  1  0
 80 90  1  0
 81 84  1  0
 82 86  1  0
 82 81  1  0
 83 82  2  0
 86 85  1  0
 88 86  1  0
 88 89  1  0
 88 87  1  0
 90 93  1  1
 90 91  1  0
 92 90  1  0
M  ISO  4  10 100  18 100  52 101  53 101
M  END
>  <TORSDO>  (56) 
F 24

>  <SCORE>  (56) 
-12.521

>  <name>  (56) 
56

>  <ligand_id>  (56) 
56

>  <original_smiles>  (56) 
[H]c1c([H])c([H])c2c(c1[H])C([H])([H])C([H])([H])C([H])([H])C2([H])N([H])C(=O)C1([H])N(C(=O)C([H])(N([H])C(=O)C([H])(N([H])C([H])([H])[H])C([H])([H])[H])C(C([H])([H])[H])(C([H])([H])[H])C([H])([H])[H])C([H])([H])c2c([H])c(OC([H])([H])C([H])([H])N([H])C([H])([H])C([H])([H])[N+]([H])([H])C([H])(C([H])([H])N([H])C(=O)N3C([H])([H])C([H])([H])C([H])([H])C([H])(n4nc(-c5c([H])c([H])c(Oc6c([H])c([H])c(F)c([H])c6F)c([H])c5[H])c(C(=O)N([H])[H])c4N([H])[H])C3([H])[H])C3([H])C([H])([H])C3([H])[H])c([H])c([H])c2C1([H])[H]

>  <smiles>  (56) 
[H]c1c([H])c([H])c2c(c1[H])C([H])([H])C([H])([H])C([H])([H])C2([H])N([H])C(=O)C1([H])N(C(=O)C([H])(N([H])C(=O)C([H])(N([H])C([H])([H])[H])C([H])([H])[H])C(C([H])([H])[H])(C([H])([H])[H])C([H])([H])[H])C([H])([H])c2c([H])c(OC([H])([H])C([H])([H])N([H])C([H])([H])C([H])([H])[N+]([H])([H])C([H])(C([H])([H])N([H])C(=O)N3C([H])([H])C([H])([H])C([H])([H])C([H])(n4nc(-c5c([H])c([H])c(Oc6c([H])c([H])c(F)c([H])c6F)c([H])c5[H])c(C(=O)N([H])[H])c4N([H])[H])C3([H])[H])C3([H])C([H])([H])C3([H])[H])c([H])c([H])c2C1([H])[H]

$$$$
57:0:0
     RDKit          3D

 96105  0  0  1  0  0  0  0  0999 V2000
  -30.5580  -19.4450   23.4230 C   0  0  0  0  0  2  0  0  0  0  0  0
  -32.1010  -19.6760   23.2950 C   0  0  0  0  0  2  0  0  0  0  0  0
  -32.1760  -18.4760   21.1540 C   0  0  0  0  0  2  0  0  0  0  0  0
  -31.8410  -20.8820   21.1550 C   0  0  0  0  0  2  0  0  0  0  0  0
  -29.9350  -19.4070   21.9880 C   0  0  0  0  0  3  0  0  0  0  0  0
  -30.6820  -18.1300   21.3880 C   0  0  0  0  0  3  0  0  0  0  0  0
  -30.3150  -20.8630   21.4530 C   0  0  0  0  0  3  0  0  0  0  0  0
  -32.5080  -19.7450   21.8560 N   0  0  1  0  0  4  0  0  0  0  0  0
  -33.5080  -19.8800   21.8030 H   0  0  0  0  0  0  0  0  0  0  0  0
  -30.0400  -17.2470   20.2710 C   0  0  0  0  0  2  0  0  0  0  0  0
  -30.7720  -14.7690   20.2220 C   0  0  0  0  0  0  0  0  0  0  0  0
  -30.5570  -12.5580   19.1400 C   0  0  0  0  0  2  0  0  0  0  0  0
  -29.6050  -12.7210   17.9340 C   0  0  0  0  0  2  0  0  0  0  0  0
  -28.1330  -12.5660   18.3680 C   0  0  0  0  0  2  0  0  0  0  0  0
  -27.7860  -13.4160   19.6200 C   0  0  0  0  0  3  0  0  0  0  0  0
  -28.8470  -13.2210   20.7270 C   0  0  0  0  0  2  0  0  0  0  0  0
  -30.1620  -13.5510   20.1540 N   0  0  0  0  0  0  0  0  0  0  0  0
  -31.9070  -14.9750   19.7850 O   0  0  0  0  0  0  0  0  0  0  0  0
  -29.9580  -15.7910   20.5910 N   0  0  0  0  0  0  0  0  0  0  0  0
  -29.0680  -15.4850   20.9550 H   0  0  0  0  0  0  0  0  0  0  0  0
  -25.3850  -14.0150   20.3260 C   0  0  0  0  0  0  0  0  0  0  0  0
  -24.3220  -13.2400   20.7060 C   0  0  0  0  0  0  0  0  0  0  0  0
  -24.7920  -11.8910   20.6880 C   0  0  0  0  0  0  0  0  0  0  0  0
  -26.4360  -13.1380   20.1030 N   0  0  0  0  0  0  0  0  0  0  0  0
  -26.0820  -11.8570   20.3790 N   0  0  0  0  0  0  0  0  0  0  0  0
  -24.0740  -10.6260   20.8920 C   0  0  0  0  0  0  0  0  0  0  0  0
  -24.4710   -9.7020   21.8830 C   0  0  0  0  0  3  0  0  0  0  0  0
  -23.7550   -8.5020   22.0720 C   0  0  0  0  0  3  0  0  0  0  0  0
  -22.6260   -8.2160   21.2670 C   0  0  0  0  0  0  0  0  0  0  0  0
  -22.2490   -9.1270   20.2660 C   0  0  0  0  0  3  0  0  0  0  0  0
  -22.9670  -10.3200   20.0760 C   0  0  0  0  0  3  0  0  0  0  0  0
  -21.8840   -7.0630   21.3620 O   0  0  0  0  0  0  0  0  0  0  0  0
  -21.7320   -6.4000   22.5540 C   0  0  0  0  0  0  0  0  0  0  0  0
  -21.1400   -7.0160   23.6780 C   0  0  0  0  0  3  0  0  0  0  0  0
  -20.9410   -6.2760   24.8620 C   0  0  0  0  0  3  0  0  0  0  0  0
  -21.3220   -4.9220   24.9200 C   0  0  0  0  0  0  0  0  0  0  0  0
  -21.9070   -4.3060   23.7990 C   0  0  0  0  0  3  0  0  0  0  0  0
  -22.1090   -5.0430   22.6180 C   0  0  0  0  0  0  0  0  0  0  0  0
  -22.6530   -4.4400   21.5340 F   0  0  0  0  0  0  0  0  0  0  0  0
  -21.1240   -4.2100   26.0530 F   0  0  0  0  0  0  0  0  0  0  0  0
  -22.9220  -13.7120   20.9750 C   0  0  0  0  0  0  0  0  0  0  0  0
  -22.2000  -13.0180   21.8490 N   0  0  0  0  0  0  0  0  0  0  0  0
  -22.4770  -14.7290   20.4460 O   0  0  0  0  0  0  0  0  0  0  0  0
  -22.5720  -12.1950   22.2990 H   0  0  0  0  0  0  0  0  0  0  0  0
  -21.2600  -13.3170   22.0720 H   0  0  0  0  0  0  0  0  0  0  0  0
  -25.5400  -15.3850   20.1350 N   0  0  0  0  0  0  0  0  0  0  0  0
  -24.7680  -16.0350   20.2370 H   0  0  0  0  0  0  0  0  0  0  0  0
  -26.3810  -15.8230   19.7800 H   0  0  0  0  0  0  0  0  0  0  0  0
  -29.4020  -21.7130   20.4780 C   0  0  0  0  0  2  0  0  0  0  0  0
  -29.2720  -23.1570   20.9180 N   0  0  0  0  0  4  0  0  0  0  0  0
  -28.6450  -23.1480   21.7110 H   0  0  0  0  0  0  0  0  0  0  0  0
  -30.1660  -23.4620   21.2690 H   0  0  0  0  0  0  0  0  0  0  0  0
  -29.8420  -24.5240   18.8910 C   0  0  0  0  0  1  0  0  0  0  0  0
  -28.7820  -24.2280   19.9710 C   0  0  0  0  0  3  0  0  0  0  0  0
  -28.3790  -25.5500   20.7430 C   0  0  0  0  0  2  0  0  0  0  0  0
  -28.3570  -26.7990   19.9940 O   0  0  0  0  0  0  0  0  0  0  0  0
  -24.5320  -31.9400   23.2340 C   0  0  0  0  0  0  0  0  0  0  0  0
  -27.1940  -27.5510   20.0540 C   0  0  0  0  0  0  0  0  0  0  0  0
  -23.3290  -30.5580   21.5730 C   0  0  0  0  0  3  0  0  0  0  0  0
  -24.7880  -29.0570   20.1090 C   0  0  0  0  0  0  0  0  0  0  0  0
  -25.8520  -30.9390   21.3640 C   0  0  0  0  0  2  0  0  0  0  0  0
  -25.9490  -29.5770   20.6970 C   0  0  0  0  0  0  0  0  0  0  0  0
  -27.1570  -28.8340   20.6610 C   0  0  0  0  0  3  0  0  0  0  0  0
  -26.0170  -27.0550   19.4590 C   0  0  0  0  0  3  0  0  0  0  0  0
  -24.8190  -27.7980   19.4850 C   0  0  0  0  0  3  0  0  0  0  0  0
  -23.5370  -29.9060   20.1800 C   0  0  0  0  0  2  0  0  0  0  0  0
  -24.5890  -31.1600   22.1150 N   0  0  0  0  0  0  0  0  0  0  0  0
  -23.4510  -32.1890   23.7880 O   0  0  0  0  0  0  0  0  0  0  0  0
  -22.6950  -29.5110   22.5200 C   0  0  0  0  0  0  0  0  0  0  0  0
  -21.3780  -29.2880   22.3740 N   0  0  0  0  0  0  0  0  0  0  0  0
  -23.3850  -28.9030   23.3410 O   0  0  0  0  0  0  0  0  0  0  0  0
  -20.8800  -29.8330   21.6840 H   0  0  0  0  0  0  0  0  0  0  0  0
  -18.0400  -27.9710   22.8050 C   0  0  0  0  0  0  0  0  0  0  0  0
  -20.5810  -28.3190   23.1270 C   0  0  0  0  0  3  0  0  0  0  0  0
  -20.7470  -26.8950   22.5470 C   0  0  0  0  0  2  0  0  0  0  0  0
  -19.6750  -26.5370   21.5120 C   0  0  0  0  0  2  0  0  0  0  0  0
  -18.2770  -26.6310   22.1300 C   0  0  0  0  0  2  0  0  0  0  0  0
  -19.1220  -28.7710   23.2580 C   0  0  0  0  0  0  0  0  0  0  0  0
  -18.8470  -30.0230   23.8480 C   0  0  0  0  0  3  0  0  0  0  0  0
  -17.5230  -30.4770   23.9900 C   0  0  0  0  0  3  0  0  0  0  0  0
  -16.4540  -29.6740   23.5530 C   0  0  0  0  0  3  0  0  0  0  0  0
  -16.7140  -28.4230   22.9660 C   0  0  0  0  0  3  0  0  0  0  0  0
  -25.8140  -32.5740   23.8560 C   0  0  0  0  0  3  0  0  0  0  0  0
  -25.5060  -33.9740   24.1780 N   0  0  0  0  0  0  0  0  0  0  0  0
  -25.8490  -35.0230   23.4200 C   0  0  0  0  0  0  0  0  0  0  0  0
  -26.5310  -34.9140   22.3970 O   0  0  0  0  0  0  0  0  0  0  0  0
  -24.9030  -34.1320   24.9730 H   0  0  0  0  0  0  0  0  0  0  0  0
  -24.1370  -36.8230   23.0290 C   0  0  0  0  0  1  0  0  0  0  0  0
  -25.3580  -36.4130   23.8670 C   0  0  0  0  0  3  0  0  0  0  0  0
  -27.4760  -37.2920   24.7460 C   0  0  0  0  0  1  0  0  0  0  0  0
  -26.3980  -37.4610   23.7750 N   0  0  0  0  0  0  0  0  0  0  0  0
  -25.9930  -38.3840   23.9090 H   0  0  0  0  0  0  0  0  0  0  0  0
  -26.3290  -31.8080   25.1360 C   0  0  1  0  0  0  0  0  0  0  0  0
  -25.2280  -31.5540   26.1920 C   0  0  0  0  0  1  0  0  0  0  0  0
  -26.9330  -30.4390   24.7470 C   0  0  0  0  0  1  0  0  0  0  0  0
  -27.4620  -32.6160   25.8110 C   0  0  0  0  0  1  0  0  0  0  0  0
  2  1  1  0
  3  6  1  0
  3  8  1  0
  4  7  1  0
  4  8  1  0
  5  1  1  0
  6 10  1  0
  6  5  1  0
  7 49  1  0
  7  5  1  0
  8  9  1  1
  8  2  1  0
 10 19  1  0
 11 19  1  0
 12 17  1  0
 13 14  1  0
 13 12  1  0
 15 14  1  0
 15 24  1  0
 15 16  1  0
 17 11  1  0
 17 16  1  0
 18 11  2  0
 19 20  1  0
 21 22  2  0
 22 41  1  0
 23 22  1  0
 23 26  1  0
 24 21  1  0
 24 25  1  0
 25 23  2  0
 26 27  1  0
 27 28  2  0
 29 32  1  0
 29 28  1  0
 30 29  2  0
 31 30  1  0
 31 26  2  0
 32 33  1  0
 33 38  2  0
 33 34  1  0
 34 35  2  0
 35 36  1  0
 36 40  1  0
 37 36  2  0
 38 37  1  0
 39 38  1  0
 41 42  1  0
 42 45  1  0
 42 44  1  0
 43 41  2  0
 46 47  1  0
 46 21  1  0
 48 46  1  0
 49 50  1  0
 50 52  1  0
 50 51  1  0
 54 53  1  0
 54 55  1  0
 54 50  1  0
 56 58  1  0
 56 55  1  0
 57 68  2  0
 58 63  1  0
 59 67  1  0
 59 69  1  0
 60 66  1  0
 60 62  1  0
 61 67  1  0
 62 61  1  0
 63 62  2  0
 64 65  1  0
 64 58  2  0
 65 60  2  0
 66 59  1  0
 67 57  1  0
 69 71  2  0
 70 69  1  0
 72 70  1  0
 73 82  2  0
 73 78  1  0
 74 70  1  0
 74 78  1  0
 75 74  1  0
 76 77  1  0
 76 75  1  0
 77 73  1  0
 78 79  2  0
 79 80  1  0
 81 80  2  0
 82 81  1  0
 83 57  1  0
 83 84  1  0
 83 93  1  0
 84 87  1  0
 85 89  1  0
 85 84  1  0
 86 85  2  0
 89 88  1  0
 91 89  1  0
 91 92  1  0
 91 90  1  0
 93 96  1  1
 93 94  1  0
 95 93  1  0
M  ISO  4  11 100  19 100  55 101  56 101
M  END
>  <TORSDO>  (57) 
F 21

>  <SCORE>  (57) 
-12.449

>  <name>  (57) 
57

>  <ligand_id>  (57) 
57

>  <original_smiles>  (57) 
[H]c1c([H])c([H])c2c(c1[H])C([H])([H])C([H])([H])C([H])([H])C2([H])N([H])C(=O)C1([H])N(C(=O)C([H])(N([H])C(=O)C([H])(N([H])C([H])([H])[H])C([H])([H])[H])C(C([H])([H])[H])(C([H])([H])[H])C([H])([H])[H])C([H])([H])c2c([H])c(OC([H])([H])C([H])(C([H])([H])[H])[N+]([H])([H])C([H])([H])C3([H])C4([H])C([H])([H])C([H])([H])[N+]([H])(C([H])([H])C4([H])C([H])([H])N([H])C(=O)N4C([H])([H])C([H])([H])C([H])([H])C([H])(n5nc(-c6c([H])c([H])c(Oc7c([H])c([H])c(F)c([H])c7F)c([H])c6[H])c(C(=O)N([H])[H])c5N([H])[H])C4([H])[H])C3([H])[H])c([H])c([H])c2C1([H])[H]

>  <smiles>  (57) 
[H]c1c([H])c([H])c2c(c1[H])C([H])([H])C([H])([H])C([H])([H])C2([H])N([H])C(=O)C1([H])N(C(=O)C([H])(N([H])C(=O)C([H])(N([H])C([H])([H])[H])C([H])([H])[H])C(C([H])([H])[H])(C([H])([H])[H])C([H])([H])[H])C([H])([H])c2c([H])c(OC([H])([H])C([H])(C([H])([H])[H])[N+]([H])([H])C([H])([H])C3([H])C4([H])C([H])([H])C([H])([H])[N+]([H])(C([H])([H])C4([H])C([H])([H])N([H])C(=O)N4C([H])([H])C([H])([H])C([H])([H])C([H])(n5nc(-c6c([H])c([H])c(Oc7c([H])c([H])c(F)c([H])c7F)c([H])c6[H])c(C(=O)N([H])[H])c5N([H])[H])C4([H])[H])C3([H])[H])c([H])c([H])c2C1([H])[H]

$$$$
58:0:0
     RDKit          3D

 93102  0  0  1  0  0  0  0  0999 V2000
  -31.7130  -18.9760   19.7300 C   0  0  0  0  0  2  0  0  0  0  0  0
  -32.0460  -20.1670   20.6360 C   0  0  0  0  0  2  0  0  0  0  0  0
  -28.7340  -19.6040   20.7060 C   0  0  0  0  0  2  0  0  0  0  0  0
  -28.6270  -21.0290   21.2460 C   0  0  0  0  0  2  0  0  0  0  0  0
  -29.9860  -19.0510   21.4020 C   0  0  0  0  0  3  0  0  0  0  0  0
  -30.8490  -18.0520   20.5950 C   0  0  0  0  0  3  0  0  0  0  0  0
  -30.8620  -20.3110   21.6080 C   0  0  0  0  0  3  0  0  0  0  0  0
  -30.0220  -21.5100   21.3240 N   0  0  2  0  0  4  0  0  0  0  0  0
  -30.2730  -21.8200   20.3970 H   0  0  0  0  0  0  0  0  0  0  0  0
  -30.1030  -16.9650   19.7810 C   0  0  0  0  0  2  0  0  0  0  0  0
  -30.7020  -14.6110   20.2100 C   0  0  0  0  0  0  0  0  0  0  0  0
  -30.3770  -12.4700   19.0710 C   0  0  0  0  0  2  0  0  0  0  0  0
  -29.4120  -12.7190   17.8910 C   0  0  0  0  0  2  0  0  0  0  0  0
  -27.9450  -12.5790   18.3480 C   0  0  0  0  0  2  0  0  0  0  0  0
  -27.6370  -13.3810   19.6410 C   0  0  0  0  0  3  0  0  0  0  0  0
  -28.7180  -13.1400   20.7220 C   0  0  0  0  0  2  0  0  0  0  0  0
  -30.0340  -13.4320   20.1270 N   0  0  0  0  0  0  0  0  0  0  0  0
  -31.8500  -14.7700   19.7900 O   0  0  0  0  0  0  0  0  0  0  0  0
  -29.9250  -15.6780   20.4700 N   0  0  0  0  0  0  0  0  0  0  0  0
  -29.0040  -15.4750   20.8270 H   0  0  0  0  0  0  0  0  0  0  0  0
  -25.2430  -13.9700   20.3910 C   0  0  0  0  0  0  0  0  0  0  0  0
  -24.1880  -13.1870   20.7800 C   0  0  0  0  0  0  0  0  0  0  0  0
  -24.6620  -11.8400   20.7400 C   0  0  0  0  0  0  0  0  0  0  0  0
  -26.2930  -13.0970   20.1420 N   0  0  0  0  0  0  0  0  0  0  0  0
  -25.9470  -11.8120   20.4100 N   0  0  0  0  0  0  0  0  0  0  0  0
  -23.9510  -10.5700   20.9430 C   0  0  0  0  0  0  0  0  0  0  0  0
  -24.4000   -9.6150   21.8810 C   0  0  0  0  0  3  0  0  0  0  0  0
  -23.6930   -8.4090   22.0700 C   0  0  0  0  0  3  0  0  0  0  0  0
  -22.5200   -8.1490   21.3210 C   0  0  0  0  0  0  0  0  0  0  0  0
  -22.0900   -9.0930   20.3720 C   0  0  0  0  0  3  0  0  0  0  0  0
  -22.7980  -10.2910   20.1810 C   0  0  0  0  0  3  0  0  0  0  0  0
  -21.7810   -6.9950   21.4200 O   0  0  0  0  0  0  0  0  0  0  0  0
  -21.7390   -6.2640   22.5790 C   0  0  0  0  0  0  0  0  0  0  0  0
  -21.3020   -6.8260   23.7990 C   0  0  0  0  0  3  0  0  0  0  0  0
  -21.2080   -6.0200   24.9520 C   0  0  0  0  0  3  0  0  0  0  0  0
  -21.5430   -4.6550   24.8850 C   0  0  0  0  0  0  0  0  0  0  0  0
  -21.9730   -4.0930   23.6710 C   0  0  0  0  0  3  0  0  0  0  0  0
  -22.0690   -4.8950   22.5200 C   0  0  0  0  0  0  0  0  0  0  0  0
  -22.4650   -4.3450   21.3470 F   0  0  0  0  0  0  0  0  0  0  0  0
  -21.4460   -3.8780   25.9900 F   0  0  0  0  0  0  0  0  0  0  0  0
  -22.7910  -13.6510   21.0760 C   0  0  0  0  0  0  0  0  0  0  0  0
  -22.0830  -12.9490   21.9540 N   0  0  0  0  0  0  0  0  0  0  0  0
  -22.3340  -14.6720   20.5640 O   0  0  0  0  0  0  0  0  0  0  0  0
  -22.4650  -12.1230   22.3920 H   0  0  0  0  0  0  0  0  0  0  0  0
  -21.1460  -13.2390   22.1920 H   0  0  0  0  0  0  0  0  0  0  0  0
  -25.3910  -15.3420   20.2090 N   0  0  0  0  0  0  0  0  0  0  0  0
  -24.6190  -15.9880   20.3300 H   0  0  0  0  0  0  0  0  0  0  0  0
  -26.2220  -15.7850   19.8380 H   0  0  0  0  0  0  0  0  0  0  0  0
  -30.2590  -22.6480   22.2580 C   0  0  0  0  0  2  0  0  0  0  0  0
  -29.2750  -23.8440   22.1410 C   0  0  0  0  0  2  0  0  0  0  0  0
  -29.4280  -24.7860   20.9200 C   0  0  0  0  0  2  0  0  0  0  0  0
  -28.5770  -26.0640   21.0970 C   0  0  0  0  0  2  0  0  0  0  0  0
  -28.5050  -26.8830   19.9220 O   0  0  0  0  0  0  0  0  0  0  0  0
  -24.6420  -31.9020   23.1420 C   0  0  0  0  0  0  0  0  0  0  0  0
  -27.3570  -27.6360   19.9080 C   0  0  0  0  0  0  0  0  0  0  0  0
  -23.4490  -30.5220   21.4690 C   0  0  0  0  0  3  0  0  0  0  0  0
  -24.9250  -29.0670   19.9790 C   0  0  0  0  0  0  0  0  0  0  0  0
  -25.9600  -30.9540   21.2520 C   0  0  0  0  0  2  0  0  0  0  0  0
  -26.0750  -29.6060   20.5730 C   0  0  0  0  0  0  0  0  0  0  0  0
  -27.2950  -28.8970   20.5390 C   0  0  0  0  0  3  0  0  0  0  0  0
  -26.1990  -27.1080   19.3010 C   0  0  0  0  0  3  0  0  0  0  0  0
  -24.9820  -27.8170   19.3380 C   0  0  0  0  0  3  0  0  0  0  0  0
  -23.6580  -29.8870   20.0680 C   0  0  0  0  0  2  0  0  0  0  0  0
  -24.7020  -31.1390   22.0130 N   0  0  0  0  0  0  0  0  0  0  0  0
  -23.5610  -32.1330   23.7010 O   0  0  0  0  0  0  0  0  0  0  0  0
  -22.8350  -29.4570   22.4070 C   0  0  0  0  0  0  0  0  0  0  0  0
  -21.5110  -29.2600   22.3010 N   0  0  0  0  0  0  0  0  0  0  0  0
  -23.5450  -28.8130   23.1830 O   0  0  0  0  0  0  0  0  0  0  0  0
  -20.9990  -29.8340   21.6440 H   0  0  0  0  0  0  0  0  0  0  0  0
  -18.1600  -28.0290   22.8480 C   0  0  0  0  0  0  0  0  0  0  0  0
  -20.7230  -28.2850   23.0530 C   0  0  0  0  0  3  0  0  0  0  0  0
  -20.8120  -26.8830   22.4080 C   0  0  0  0  0  2  0  0  0  0  0  0
  -19.6800  -26.6030   21.4150 C   0  0  0  0  0  2  0  0  0  0  0  0
  -18.3190  -26.7130   22.1070 C   0  0  0  0  0  2  0  0  0  0  0  0
  -19.2880  -28.7750   23.2790 C   0  0  0  0  0  0  0  0  0  0  0  0
  -19.0850  -30.0110   23.9320 C   0  0  0  0  0  3  0  0  0  0  0  0
  -17.7850  -30.4990   24.1590 C   0  0  0  0  0  3  0  0  0  0  0  0
  -16.6710  -29.7490   23.7460 C   0  0  0  0  0  3  0  0  0  0  0  0
  -16.8580  -28.5160   23.0960 C   0  0  0  0  0  3  0  0  0  0  0  0
  -25.9220  -32.5420   23.7660 C   0  0  0  0  0  3  0  0  0  0  0  0
  -25.5920  -33.9260   24.1270 N   0  0  0  0  0  0  0  0  0  0  0  0
  -25.9160  -35.0000   23.3940 C   0  0  0  0  0  0  0  0  0  0  0  0
  -26.5970  -34.9290   22.3650 O   0  0  0  0  0  0  0  0  0  0  0  0
  -24.9850  -34.0530   24.9230 H   0  0  0  0  0  0  0  0  0  0  0  0
  -24.1750  -36.7820   23.0530 C   0  0  0  0  0  1  0  0  0  0  0  0
  -25.4060  -36.3700   23.8770 C   0  0  0  0  0  3  0  0  0  0  0  0
  -27.5160  -37.2540   24.7680 C   0  0  0  0  0  1  0  0  0  0  0  0
  -26.4290  -37.4360   23.8100 N   0  0  0  0  0  0  0  0  0  0  0  0
  -26.0100  -38.3470   23.9730 H   0  0  0  0  0  0  0  0  0  0  0  0
  -26.4640  -31.7500   25.0190 C   0  0  1  0  0  0  0  0  0  0  0  0
  -25.3860  -31.4710   26.0920 C   0  0  0  0  0  1  0  0  0  0  0  0
  -27.0690  -30.3930   24.5880 C   0  0  0  0  0  1  0  0  0  0  0  0
  -27.6090  -32.5500   25.6860 C   0  0  0  0  0  1  0  0  0  0  0  0
  1  6  1  0
  1  2  1  0
  3  4  1  0
  4  8  1  0
  5  3  1  0
  5  7  1  0
  6 10  1  0
  6  5  1  0
  7  2  1  0
  8  7  1  0
  8 49  1  0
  8  9  1  6
 10 19  1  0
 11 19  1  0
 12 17  1  0
 13 14  1  0
 13 12  1  0
 15 14  1  0
 15 24  1  0
 15 16  1  0
 17 11  1  0
 17 16  1  0
 18 11  2  0
 19 20  1  0
 21 22  2  0
 22 41  1  0
 23 22  1  0
 23 26  1  0
 24 21  1  0
 24 25  1  0
 25 23  2  0
 26 27  1  0
 27 28  2  0
 29 32  1  0
 29 28  1  0
 30 29  2  0
 31 30  1  0
 31 26  2  0
 32 33  1  0
 33 34  1  0
 34 35  2  0
 36 35  1  0
 36 40  1  0
 37 36  2  0
 38 33  2  0
 38 37  1  0
 39 38  1  0
 41 42  1  0
 42 45  1  0
 42 44  1  0
 43 41  2  0
 46 47  1  0
 46 21  1  0
 48 46  1  0
 50 49  1  0
 51 52  1  0
 51 50  1  0
 53 52  1  0
 54 65  2  0
 55 53  1  0
 55 60  1  0
 56 64  1  0
 56 66  1  0
 57 63  1  0
 57 59  1  0
 58 64  1  0
 59 58  1  0
 60 59  2  0
 61 62  1  0
 61 55  2  0
 62 57  2  0
 63 56  1  0
 64 54  1  0
 66 68  2  0
 67 66  1  0
 69 67  1  0
 70 79  2  0
 70 75  1  0
 71 67  1  0
 71 75  1  0
 72 71  1  0
 73 74  1  0
 73 72  1  0
 74 70  1  0
 75 76  2  0
 76 77  1  0
 78 77  2  0
 79 78  1  0
 80 54  1  0
 80 81  1  0
 80 90  1  0
 81 84  1  0
 82 86  1  0
 82 81  1  0
 83 82  2  0
 86 85  1  0
 88 86  1  0
 88 89  1  0
 88 87  1  0
 90 93  1  1
 90 91  1  0
 92 90  1  0
M  ISO  4  11 100  19 100  52 101  53 101
M  END
>  <TORSDO>  (58) 
F 21

>  <SCORE>  (58) 
-13.397

>  <name>  (58) 
58

>  <ligand_id>  (58) 
58

>  <original_smiles>  (58) 
[H]c1c([H])c([H])c2c(c1[H])C([H])([H])C([H])([H])C([H])([H])C2([H])N([H])C(=O)C1([H])N(C(=O)C([H])(N([H])C(=O)C([H])(N([H])C([H])([H])[H])C([H])([H])[H])C(C([H])([H])[H])(C([H])([H])[H])C([H])([H])[H])C([H])([H])c2c([H])c(OC([H])([H])C([H])([H])C([H])([H])C([H])([H])[N+]3([H])C([H])([H])C([H])([H])C4([H])C([H])(C([H])([H])N([H])C(=O)N5C([H])([H])C([H])([H])C([H])([H])C([H])(n6nc(-c7c([H])c([H])c(Oc8c([H])c([H])c(F)c([H])c8F)c([H])c7[H])c(C(=O)N([H])[H])c6N([H])[H])C5([H])[H])C([H])([H])C([H])([H])C43[H])c([H])c([H])c2C1([H])[H]

>  <smiles>  (58) 
[H]c1c([H])c([H])c2c(c1[H])C([H])([H])C([H])([H])C([H])([H])C2([H])N([H])C(=O)C1([H])N(C(=O)C([H])(N([H])C(=O)C([H])(N([H])C([H])([H])[H])C([H])([H])[H])C(C([H])([H])[H])(C([H])([H])[H])C([H])([H])[H])C([H])([H])c2c([H])c(OC([H])([H])C([H])([H])C([H])([H])C([H])([H])[N+]3([H])C([H])([H])C([H])([H])C4([H])C([H])(C([H])([H])N([H])C(=O)N5C([H])([H])C([H])([H])C([H])([H])C([H])(n6nc(-c7c([H])c([H])c(Oc8c([H])c([H])c(F)c([H])c8F)c([H])c7[H])c(C(=O)N([H])[H])c6N([H])[H])C5([H])[H])C([H])([H])C([H])([H])C43[H])c([H])c([H])c2C1([H])[H]

$$$$
59:0:0
     RDKit          3D

 91100  0  0  1  0  0  0  0  0999 V2000
  -30.1420  -23.6410   21.3920 C   0  0  0  0  0  2  0  0  0  0  0  0
  -30.4640  -22.4510   22.3210 C   0  0  0  0  0  2  0  0  0  0  0  0
  -29.0740  -21.8690   19.9080 C   0  0  0  0  0  2  0  0  0  0  0  0
  -28.8490  -23.3750   20.6200 C   0  0  0  0  0  3  0  0  0  0  0  0
  -30.7670  -21.1180   21.5820 C   0  0  0  0  0  3  0  0  0  0  0  0
  -31.2410  -20.0670   22.6080 C   0  0  0  0  0  1  0  0  0  0  0  0
  -29.6240  -20.6370   20.7380 N   0  0  2  0  0  4  0  0  0  0  0  0
  -28.8700  -20.4150   21.3720 H   0  0  0  0  0  0  0  0  0  0  0  0
  -28.3190  -24.7540   19.8070 C   0  0  0  0  0  2  0  0  0  0  0  0
  -28.3030  -26.2330   20.3000 O   0  0  0  0  0  0  0  0  0  0  0  0
  -24.6220  -31.8790   23.2240 C   0  0  0  0  0  0  0  0  0  0  0  0
  -27.2150  -27.1750   20.1900 C   0  0  0  0  0  0  0  0  0  0  0  0
  -23.4180  -30.4760   21.5920 C   0  0  0  0  0  3  0  0  0  0  0  0
  -24.8670  -28.9020   20.1650 C   0  0  0  0  0  0  0  0  0  0  0  0
  -25.9690  -30.7500   21.4170 C   0  0  0  0  0  2  0  0  0  0  0  0
  -26.0440  -29.3570   20.7710 C   0  0  0  0  0  0  0  0  0  0  0  0
  -27.2110  -28.5070   20.7720 C   0  0  0  0  0  3  0  0  0  0  0  0
  -26.0110  -26.8250   19.5340 C   0  0  0  0  0  3  0  0  0  0  0  0
  -24.8630  -27.6500   19.5330 C   0  0  0  0  0  3  0  0  0  0  0  0
  -23.6360  -29.7940   20.2140 C   0  0  0  0  0  2  0  0  0  0  0  0
  -24.6890  -31.0570   22.1330 N   0  0  0  0  0  0  0  0  0  0  0  0
  -23.5380  -32.1640   23.7560 O   0  0  0  0  0  0  0  0  0  0  0  0
  -22.7460  -29.4710   22.5610 C   0  0  0  0  0  0  0  0  0  0  0  0
  -21.4180  -29.2970   22.4400 N   0  0  0  0  0  0  0  0  0  0  0  0
  -23.4220  -28.8490   23.3850 O   0  0  0  0  0  0  0  0  0  0  0  0
  -20.9280  -29.8520   21.7520 H   0  0  0  0  0  0  0  0  0  0  0  0
  -18.0430  -28.0880   22.9520 C   0  0  0  0  0  0  0  0  0  0  0  0
  -20.6010  -28.3620   23.2180 C   0  0  0  0  0  3  0  0  0  0  0  0
  -20.7080  -26.9260   22.6520 C   0  0  0  0  0  2  0  0  0  0  0  0
  -19.6060  -26.5930   21.6400 C   0  0  0  0  0  2  0  0  0  0  0  0
  -18.2240  -26.7360   22.2830 C   0  0  0  0  0  2  0  0  0  0  0  0
  -19.1580  -28.8580   23.3760 C   0  0  0  0  0  0  0  0  0  0  0  0
  -18.9320  -30.1220   23.9630 C   0  0  0  0  0  3  0  0  0  0  0  0
  -17.6250  -30.6170   24.1280 C   0  0  0  0  0  3  0  0  0  0  0  0
  -16.5250  -29.8450   23.7190 C   0  0  0  0  0  3  0  0  0  0  0  0
  -16.7340  -28.5820   23.1380 C   0  0  0  0  0  3  0  0  0  0  0  0
  -25.9020  -32.5190   23.8440 C   0  0  0  0  0  3  0  0  0  0  0  0
  -25.5890  -33.9180   24.1760 N   0  0  0  0  0  0  0  0  0  0  0  0
  -25.9130  -34.9750   23.4200 C   0  0  0  0  0  0  0  0  0  0  0  0
  -26.5760  -34.8750   22.3840 O   0  0  0  0  0  0  0  0  0  0  0  0
  -25.0010  -34.0690   24.9840 H   0  0  0  0  0  0  0  0  0  0  0  0
  -24.1800  -36.7690   23.0890 C   0  0  0  0  0  1  0  0  0  0  0  0
  -25.4300  -36.3630   23.8870 C   0  0  0  0  0  3  0  0  0  0  0  0
  -27.5710  -37.2510   24.6980 C   0  0  0  0  0  1  0  0  0  0  0  0
  -26.4600  -37.4180   23.7650 N   0  0  0  0  0  0  0  0  0  0  0  0
  -26.0540  -38.3370   23.9170 H   0  0  0  0  0  0  0  0  0  0  0  0
  -26.4210  -31.7530   25.1230 C   0  0  1  0  0  0  0  0  0  0  0  0
  -25.3310  -31.5180   26.1950 C   0  0  0  0  0  1  0  0  0  0  0  0
  -27.0040  -30.3750   24.7380 C   0  0  0  0  0  1  0  0  0  0  0  0
  -27.5720  -32.5520   25.7800 C   0  0  0  0  0  1  0  0  0  0  0  0
  -29.9800  -19.2550   20.0260 C   0  0  0  0  0  2  0  0  0  0  0  0
  -30.5760  -15.0660   20.1620 C   0  0  0  0  0  0  0  0  0  0  0  0
  -30.4140  -12.7130   19.2160 C   0  0  0  0  0  2  0  0  0  0  0  0
  -29.4510  -12.6020   18.0150 C   0  0  0  0  0  2  0  0  0  0  0  0
  -28.0130  -12.3260   18.4990 C   0  0  0  0  0  2  0  0  0  0  0  0
  -27.5980  -13.2600   19.6580 C   0  0  0  0  0  3  0  0  0  0  0  0
  -28.6870  -13.4060   20.7430 C   0  0  0  0  0  2  0  0  0  0  0  0
  -29.9240  -13.8320   20.0670 N   0  0  0  0  0  0  0  0  0  0  0  0
  -31.8090  -15.0430   20.1120 O   0  0  0  0  0  0  0  0  0  0  0  0
  -28.1900  -17.3470   20.4520 C   0  0  0  0  0  2  0  0  0  0  0  0
  -28.7410  -16.6750   19.1840 C   0  0  0  0  0  2  0  0  0  0  0  0
  -29.6460  -17.7440   20.7040 C   0  0  0  0  0  3  0  0  0  0  0  0
  -29.8860  -16.3230   20.0220 N   0  0  0  0  0  0  0  0  0  0  0  0
  -25.2410  -13.8860   20.4200 C   0  0  0  0  0  0  0  0  0  0  0  0
  -24.1730  -13.1210   20.7960 C   0  0  0  0  0  0  0  0  0  0  0  0
  -24.6370  -11.7700   20.7780 C   0  0  0  0  0  0  0  0  0  0  0  0
  -26.2770  -12.9920   20.1900 N   0  0  0  0  0  0  0  0  0  0  0  0
  -25.9250  -11.7180   20.4720 N   0  0  0  0  0  0  0  0  0  0  0  0
  -23.9150  -10.5120   20.9760 C   0  0  0  0  0  0  0  0  0  0  0  0
  -24.3530   -9.5560   21.9150 C   0  0  0  0  0  3  0  0  0  0  0  0
  -23.6330   -8.3570   22.1010 C   0  0  0  0  0  3  0  0  0  0  0  0
  -22.4630   -8.1100   21.3450 C   0  0  0  0  0  0  0  0  0  0  0  0
  -22.0450   -9.0560   20.3920 C   0  0  0  0  0  3  0  0  0  0  0  0
  -22.7660  -10.2470   20.2050 C   0  0  0  0  0  3  0  0  0  0  0  0
  -21.7120   -6.9650   21.4430 O   0  0  0  0  0  0  0  0  0  0  0  0
  -21.6640   -6.2350   22.6030 C   0  0  0  0  0  0  0  0  0  0  0  0
  -21.2330   -6.8030   23.8220 C   0  0  0  0  0  3  0  0  0  0  0  0
  -21.1340   -6.0000   24.9760 C   0  0  0  0  0  3  0  0  0  0  0  0
  -21.4540   -4.6300   24.9100 C   0  0  0  0  0  0  0  0  0  0  0  0
  -21.8780   -4.0630   23.6960 C   0  0  0  0  0  3  0  0  0  0  0  0
  -21.9810   -4.8640   22.5450 C   0  0  0  0  0  0  0  0  0  0  0  0
  -22.3700   -4.3080   21.3720 F   0  0  0  0  0  0  0  0  0  0  0  0
  -21.3500   -3.8560   26.0160 F   0  0  0  0  0  0  0  0  0  0  0  0
  -22.7780  -13.6050   21.0580 C   0  0  0  0  0  0  0  0  0  0  0  0
  -22.0460  -12.9180   21.9270 N   0  0  0  0  0  0  0  0  0  0  0  0
  -22.3450  -14.6280   20.5290 O   0  0  0  0  0  0  0  0  0  0  0  0
  -22.4080  -12.0900   22.3780 H   0  0  0  0  0  0  0  0  0  0  0  0
  -21.1100  -13.2260   22.1470 H   0  0  0  0  0  0  0  0  0  0  0  0
  -25.4040  -15.2550   20.2240 N   0  0  0  0  0  0  0  0  0  0  0  0
  -24.6350  -15.9070   20.3350 H   0  0  0  0  0  0  0  0  0  0  0  0
  -26.2590  -15.6940   19.9140 H   0  0  0  0  0  0  0  0  0  0  0  0
  1  2  1  0
  3  4  1  0
  3  7  1  0
  4  9  1  0
  4  1  1  0
  5  2  1  0
  5  6  1  0
  7  8  1  1
  7  5  1  0
  9 10  1  0
 11 22  2  0
 12 10  1  0
 12 17  1  0
 13 21  1  0
 13 23  1  0
 14 20  1  0
 14 16  1  0
 15 21  1  0
 16 17  2  0
 16 15  1  0
 18 12  2  0
 19 18  1  0
 19 14  2  0
 20 13  1  0
 21 11  1  0
 23 25  2  0
 24 23  1  0
 26 24  1  0
 27 36  2  0
 27 32  1  0
 28 24  1  0
 28 32  1  0
 29 28  1  0
 30 31  1  0
 30 29  1  0
 31 27  1  0
 32 33  2  0
 33 34  1  0
 35 34  2  0
 36 35  1  0
 37 11  1  0
 37 38  1  0
 37 47  1  0
 38 41  1  0
 39 43  1  0
 39 38  1  0
 40 39  2  0
 43 42  1  0
 45 43  1  0
 45 46  1  0
 45 44  1  0
 47 50  1  1
 47 48  1  0
 49 47  1  0
 51  7  1  0
 53 58  1  0
 54 55  1  0
 54 53  1  0
 56 55  1  0
 56 67  1  0
 56 57  1  0
 58 52  1  0
 58 57  1  0
 59 52  2  0
 60 62  1  0
 61 63  1  0
 61 60  1  0
 62 51  1  0
 63 52  1  0
 63 62  1  0
 64 65  2  0
 65 84  1  0
 66 65  1  0
 66 69  1  0
 67 64  1  0
 67 68  1  0
 68 66  2  0
 69 70  1  0
 70 71  2  0
 72 75  1  0
 72 71  1  0
 73 72  2  0
 74 73  1  0
 74 69  2  0
 75 76  1  0
 76 77  1  0
 77 78  2  0
 79 78  1  0
 79 83  1  0
 80 79  2  0
 81 76  2  0
 81 80  1  0
 82 81  1  0
 84 85  1  0
 85 88  1  0
 85 87  1  0
 86 84  2  0
 89 90  1  0
 89 64  1  0
 91 89  1  0
M  ISO  4   9 101  10 101  52 100  63 100
M  END
>  <TORSDO>  (59) 
F 18

>  <SCORE>  (59) 
-14.993

>  <name>  (59) 
59

>  <ligand_id>  (59) 
59

>  <original_smiles>  (59) 
[H]c1c([H])c([H])c2c(c1[H])C([H])([H])C([H])([H])C([H])([H])C2([H])N([H])C(=O)C1([H])N(C(=O)C([H])(N([H])C(=O)C([H])(N([H])C([H])([H])[H])C([H])([H])[H])C(C([H])([H])[H])(C([H])([H])[H])C([H])([H])[H])C([H])([H])c2c([H])c(OC([H])([H])C3([H])C([H])([H])C([H])([H])C([H])(C([H])([H])[H])[N+]([H])(C([H])([H])C4([H])N(C(=O)N5C([H])([H])C([H])([H])C([H])([H])C([H])(n6nc(-c7c([H])c([H])c(Oc8c([H])c([H])c(F)c([H])c8F)c([H])c7[H])c(C(=O)N([H])[H])c6N([H])[H])C5([H])[H])C([H])([H])C4([H])[H])C3([H])[H])c([H])c([H])c2C1([H])[H]

>  <smiles>  (59) 
[H]c1c([H])c([H])c2c(c1[H])C([H])([H])C([H])([H])C([H])([H])C2([H])N([H])C(=O)C1([H])N(C(=O)C([H])(N([H])C(=O)C([H])(N([H])C([H])([H])[H])C([H])([H])[H])C(C([H])([H])[H])(C([H])([H])[H])C([H])([H])[H])C([H])([H])c2c([H])c(OC([H])([H])C3([H])C([H])([H])C([H])([H])C([H])(C([H])([H])[H])[N+]([H])(C([H])([H])C4([H])N(C(=O)N5C([H])([H])C([H])([H])C([H])([H])C([H])(n6nc(-c7c([H])c([H])c(Oc8c([H])c([H])c(F)c([H])c8F)c([H])c7[H])c(C(=O)N([H])[H])c6N([H])[H])C5([H])[H])C([H])([H])C4([H])[H])C3([H])[H])c([H])c([H])c2C1([H])[H]

$$$$
60:0:0
     RDKit          3D

 94102  0  0  1  0  0  0  0  0999 V2000
  -28.8040  -23.3670   19.7850 C   0  0  0  0  0  3  0  0  0  0  0  0
  -29.2080  -21.9030   20.5230 C   0  0  0  0  0  2  0  0  0  0  0  0
  -28.7590  -20.3000   18.3610 C   0  0  0  0  0  2  0  0  0  0  0  0
  -29.0150  -18.7870   18.4180 C   0  0  0  0  0  2  0  0  0  0  0  0
  -28.9650  -20.3780   19.8810 C   0  0  0  0  0  3  0  0  0  0  0  0
  -29.8980  -18.9780   19.6610 C   0  0  0  0  0  3  0  0  0  0  0  0
  -29.0600  -17.6760   21.6870 C   0  0  0  0  0  1  0  0  0  0  0  0
  -31.5030  -17.7880   21.3050 C   0  0  0  0  0  1  0  0  0  0  0  0
  -30.1460  -17.6180   20.5980 C   0  0  2  0  0  0  0  0  0  0  0  0
  -30.8710  -14.9740   19.9320 C   0  0  0  0  0  0  0  0  0  0  0  0
  -30.6730  -12.6570   18.9280 C   0  0  0  0  0  2  0  0  0  0  0  0
  -29.6760  -12.6760   17.7440 C   0  0  0  0  0  2  0  0  0  0  0  0
  -28.2270  -12.4970   18.2410 C   0  0  0  0  0  2  0  0  0  0  0  0
  -27.8990  -13.4010   19.4620 C   0  0  0  0  0  3  0  0  0  0  0  0
  -29.0090  -13.3380   20.5310 C   0  0  0  0  0  2  0  0  0  0  0  0
  -30.2560  -13.7290   19.8640 N   0  0  0  0  0  0  0  0  0  0  0  0
  -32.0790  -15.0330   19.6850 O   0  0  0  0  0  0  0  0  0  0  0  0
  -30.0560  -16.1280   20.0730 N   0  0  0  0  0  0  0  0  0  0  0  0
  -29.0890  -15.8490   20.0150 H   0  0  0  0  0  0  0  0  0  0  0  0
  -25.5720  -14.0290   20.3260 C   0  0  0  0  0  0  0  0  0  0  0  0
  -24.5090  -13.2730   20.7350 C   0  0  0  0  0  0  0  0  0  0  0  0
  -24.9380  -11.9130   20.6620 C   0  0  0  0  0  0  0  0  0  0  0  0
  -26.5810  -13.1310   20.0200 N   0  0  0  0  0  0  0  0  0  0  0  0
  -26.2110  -11.8510   20.2880 N   0  0  0  0  0  0  0  0  0  0  0  0
  -24.1900  -10.6640   20.8650 C   0  0  0  0  0  0  0  0  0  0  0  0
  -24.5930   -9.7070   21.8210 C   0  0  0  0  0  3  0  0  0  0  0  0
  -23.8440   -8.5250   22.0120 C   0  0  0  0  0  3  0  0  0  0  0  0
  -22.6770   -8.2950   21.2430 C   0  0  0  0  0  0  0  0  0  0  0  0
  -22.2940   -9.2410   20.2750 C   0  0  0  0  0  3  0  0  0  0  0  0
  -23.0450  -10.4120   20.0830 C   0  0  0  0  0  3  0  0  0  0  0  0
  -21.9030   -7.1650   21.3400 O   0  0  0  0  0  0  0  0  0  0  0  0
  -21.7580   -6.4890   22.5250 C   0  0  0  0  0  0  0  0  0  0  0  0
  -21.2490   -7.1160   23.6840 C   0  0  0  0  0  3  0  0  0  0  0  0
  -21.0530   -6.3670   24.8610 C   0  0  0  0  0  3  0  0  0  0  0  0
  -21.3570   -4.9930   24.8810 C   0  0  0  0  0  0  0  0  0  0  0  0
  -21.8610   -4.3670   23.7280 C   0  0  0  0  0  3  0  0  0  0  0  0
  -22.0580   -5.1120   22.5530 C   0  0  0  0  0  0  0  0  0  0  0  0
  -22.5230   -4.4990   21.4380 F   0  0  0  0  0  0  0  0  0  0  0  0
  -21.1620   -4.2720   26.0100 F   0  0  0  0  0  0  0  0  0  0  0  0
  -23.1360  -13.7800   21.0730 C   0  0  0  0  0  0  0  0  0  0  0  0
  -22.4300  -13.0970   21.9660 N   0  0  0  0  0  0  0  0  0  0  0  0
  -22.7010  -14.8190   20.5790 O   0  0  0  0  0  0  0  0  0  0  0  0
  -22.7940  -12.2600   22.3960 H   0  0  0  0  0  0  0  0  0  0  0  0
  -21.5110  -13.4200   22.2330 H   0  0  0  0  0  0  0  0  0  0  0  0
  -25.7540  -15.3990   20.1580 N   0  0  0  0  0  0  0  0  0  0  0  0
  -24.9940  -16.0540   20.3040 H   0  0  0  0  0  0  0  0  0  0  0  0
  -26.5660  -15.8270   19.7370 H   0  0  0  0  0  0  0  0  0  0  0  0
  -30.0120  -23.8290   18.9420 C   0  0  0  0  0  2  0  0  0  0  0  0
  -31.1030  -24.3960   19.7580 N   0  0  0  0  0  4  0  0  0  0  0  0
  -30.8040  -25.2350   20.2220 H   0  0  0  0  0  0  0  0  0  0  0  0
  -31.8810  -24.6320   19.1690 H   0  0  0  0  0  0  0  0  0  0  0  0
  -31.4300  -23.7400   20.4440 H   0  0  0  0  0  0  0  0  0  0  0  0
  -28.1630  -24.7120   20.5660 C   0  0  0  0  0  2  0  0  0  0  0  0
  -28.3570  -26.2080   20.2060 O   0  0  0  0  0  0  0  0  0  0  0  0
  -24.6620  -31.8340   23.2000 C   0  0  0  0  0  0  0  0  0  0  0  0
  -27.2760  -27.1500   20.1960 C   0  0  0  0  0  0  0  0  0  0  0  0
  -23.4740  -30.4280   21.5600 C   0  0  0  0  0  3  0  0  0  0  0  0
  -24.9340  -28.8560   20.1480 C   0  0  0  0  0  0  0  0  0  0  0  0
  -26.0240  -30.7160   21.3990 C   0  0  0  0  0  2  0  0  0  0  0  0
  -26.1070  -29.3230   20.7560 C   0  0  0  0  0  0  0  0  0  0  0  0
  -27.2830  -28.4850   20.7570 C   0  0  0  0  0  3  0  0  0  0  0  0
  -26.0780  -26.7740   19.5560 C   0  0  0  0  0  3  0  0  0  0  0  0
  -24.9280  -27.5940   19.5350 C   0  0  0  0  0  3  0  0  0  0  0  0
  -23.7030  -29.7480   20.1840 C   0  0  0  0  0  2  0  0  0  0  0  0
  -24.7400  -31.0150   22.1090 N   0  0  0  0  0  0  0  0  0  0  0  0
  -23.5720  -32.1120   23.7260 O   0  0  0  0  0  0  0  0  0  0  0  0
  -22.7990  -29.4200   22.5220 C   0  0  0  0  0  0  0  0  0  0  0  0
  -21.4680  -29.2590   22.4060 N   0  0  0  0  0  0  0  0  0  0  0  0
  -23.4730  -28.7820   23.3340 O   0  0  0  0  0  0  0  0  0  0  0  0
  -20.9800  -29.8210   21.7220 H   0  0  0  0  0  0  0  0  0  0  0  0
  -18.0830  -28.0890   22.9340 C   0  0  0  0  0  0  0  0  0  0  0  0
  -20.6470  -28.3250   23.1780 C   0  0  0  0  0  3  0  0  0  0  0  0
  -20.7300  -26.8960   22.5930 C   0  0  0  0  0  2  0  0  0  0  0  0
  -19.6140  -26.5910   21.5880 C   0  0  0  0  0  2  0  0  0  0  0  0
  -18.2390  -26.7440   22.2460 C   0  0  0  0  0  2  0  0  0  0  0  0
  -19.2120  -28.8380   23.3580 C   0  0  0  0  0  0  0  0  0  0  0  0
  -19.0100  -30.0980   23.9630 C   0  0  0  0  0  3  0  0  0  0  0  0
  -17.7100  -30.6070   24.1490 C   0  0  0  0  0  3  0  0  0  0  0  0
  -16.5950  -29.8540   23.7410 C   0  0  0  0  0  3  0  0  0  0  0  0
  -16.7830  -28.5980   23.1380 C   0  0  0  0  0  3  0  0  0  0  0  0
  -25.9340  -32.4780   23.8310 C   0  0  0  0  0  3  0  0  0  0  0  0
  -25.6120  -33.8720   24.1690 N   0  0  0  0  0  0  0  0  0  0  0  0
  -25.9460  -34.9340   23.4240 C   0  0  0  0  0  0  0  0  0  0  0  0
  -26.6260  -34.8440   22.3980 O   0  0  0  0  0  0  0  0  0  0  0  0
  -25.0100  -34.0160   24.9660 H   0  0  0  0  0  0  0  0  0  0  0  0
  -24.2180  -36.7290   23.0700 C   0  0  0  0  0  1  0  0  0  0  0  0
  -25.4500  -36.3170   23.8920 C   0  0  0  0  0  3  0  0  0  0  0  0
  -27.5700  -37.1990   24.7630 C   0  0  0  0  0  1  0  0  0  0  0  0
  -26.4820  -37.3750   23.8050 N   0  0  0  0  0  0  0  0  0  0  0  0
  -26.0700  -38.2910   23.9580 H   0  0  0  0  0  0  0  0  0  0  0  0
  -26.4490  -31.7070   25.1090 C   0  0  1  0  0  0  0  0  0  0  0  0
  -25.3520  -31.4600   26.1730 C   0  0  0  0  0  1  0  0  0  0  0  0
  -27.0420  -30.3330   24.7200 C   0  0  0  0  0  1  0  0  0  0  0  0
  -27.5930  -32.5060   25.7770 C   0  0  0  0  0  1  0  0  0  0  0  0
  1 48  1  0
  1  2  1  0
  1 53  1  0
  3  4  1  0
  3  5  1  0
  4  6  1  0
  5  2  1  0
  6  5  1  0
  6  9  1  0
  9  8  1  1
  9  7  1  0
 10 18  1  0
 11 16  1  0
 12 13  1  0
 12 11  1  0
 14 13  1  0
 14 23  1  0
 14 15  1  0
 16 10  1  0
 16 15  1  0
 17 10  2  0
 18  9  1  0
 19 18  1  0
 20 21  2  0
 21 40  1  0
 22 21  1  0
 22 25  1  0
 23 24  1  0
 23 20  1  0
 24 22  2  0
 25 26  1  0
 26 27  2  0
 28 31  1  0
 28 27  1  0
 29 28  2  0
 30 29  1  0
 30 25  2  0
 31 32  1  0
 32 37  2  0
 32 33  1  0
 33 34  2  0
 34 35  1  0
 35 39  1  0
 36 35  2  0
 37 36  1  0
 38 37  1  0
 40 41  1  0
 41 44  1  0
 41 43  1  0
 42 40  2  0
 45 46  1  0
 45 20  1  0
 47 45  1  0
 48 49  1  0
 49 50  1  0
 49 52  1  0
 51 49  1  0
 54 53  1  0
 55 66  2  0
 56 54  1  0
 56 61  1  0
 57 65  1  0
 57 67  1  0
 58 64  1  0
 58 60  1  0
 59 65  1  0
 60 61  2  0
 60 59  1  0
 62 56  2  0
 63 62  1  0
 63 58  2  0
 64 57  1  0
 65 55  1  0
 67 69  2  0
 68 67  1  0
 70 68  1  0
 71 80  2  0
 71 76  1  0
 72 68  1  0
 72 76  1  0
 73 72  1  0
 74 75  1  0
 74 73  1  0
 75 71  1  0
 76 77  2  0
 77 78  1  0
 79 78  2  0
 80 79  1  0
 81 55  1  0
 81 82  1  0
 81 91  1  0
 82 85  1  0
 83 87  1  0
 83 82  1  0
 84 83  2  0
 87 86  1  0
 89 87  1  0
 89 90  1  0
 89 88  1  0
 91 94  1  1
 91 92  1  0
 93 91  1  0
M  ISO  4  10 100  18 100  53 101  54 101
M  END
>  <TORSDO>  (60) 
F 22

>  <SCORE>  (60) 
-12.360

>  <name>  (60) 
60

>  <ligand_id>  (60) 
60

>  <original_smiles>  (60) 
[H]c1c([H])c([H])c2c(c1[H])C([H])([H])C([H])([H])C([H])([H])C2([H])N([H])C(=O)C1([H])N(C(=O)C([H])(N([H])C(=O)C([H])(N([H])C([H])([H])[H])C([H])([H])[H])C(C([H])([H])[H])(C([H])([H])[H])C([H])([H])[H])C([H])([H])c2c([H])c(OC([H])([H])C([H])(C([H])([H])C3([H])C([H])([H])C([H])([H])C3([H])C(N([H])C(=O)N3C([H])([H])C([H])([H])C([H])([H])C([H])(n4nc(-c5c([H])c([H])c(Oc6c([H])c([H])c(F)c([H])c6F)c([H])c5[H])c(C(=O)N([H])[H])c4N([H])[H])C3([H])[H])(C([H])([H])[H])C([H])([H])[H])C([H])([H])[N+]([H])([H])[H])c([H])c([H])c2C1([H])[H]

>  <smiles>  (60) 
[H]c1c([H])c([H])c2c(c1[H])C([H])([H])C([H])([H])C([H])([H])C2([H])N([H])C(=O)C1([H])N(C(=O)C([H])(N([H])C(=O)C([H])(N([H])C([H])([H])[H])C([H])([H])[H])C(C([H])([H])[H])(C([H])([H])[H])C([H])([H])[H])C([H])([H])c2c([H])c(OC([H])([H])C([H])(C([H])([H])C3([H])C([H])([H])C([H])([H])C3([H])C(N([H])C(=O)N3C([H])([H])C([H])([H])C([H])([H])C([H])(n4nc(-c5c([H])c([H])c(Oc6c([H])c([H])c(F)c([H])c6F)c([H])c5[H])c(C(=O)N([H])[H])c4N([H])[H])C3([H])[H])(C([H])([H])[H])C([H])([H])[H])C([H])([H])[N+]([H])([H])[H])c([H])c([H])c2C1([H])[H]

$$$$
61:0:0
     RDKit          3D

 92101  0  0  1  0  0  0  0  0999 V2000
  -31.9100  -19.0990   21.1960 C   0  0  0  0  0  2  0  0  0  0  0  0
  -29.4870  -18.9600   20.7030 C   0  0  0  0  0  2  0  0  0  0  0  0
  -31.3850  -21.6860   20.6730 C   0  0  0  0  0  2  0  0  0  0  0  0
  -31.2610  -20.4350   21.5640 C   0  0  0  0  0  3  0  0  0  0  0  0
  -29.7710  -20.3660   21.2760 C   0  0  0  0  0  3  0  0  0  0  0  0
  -30.7950  -18.1060   20.7470 C   0  0  0  0  0  3  0  0  0  0  0  0
  -29.8660  -21.6710   20.4120 C   0  0  0  0  0  3  0  0  0  0  0  0
  -29.0950  -22.8480   20.9550 N   0  0  0  0  0  4  0  0  0  0  0  0
  -29.2510  -22.9180   21.9480 H   0  0  0  0  0  0  0  0  0  0  0  0
  -28.1200  -22.6140   20.8400 H   0  0  0  0  0  0  0  0  0  0  0  0
  -29.3030  -24.2050   20.3340 C   0  0  0  0  0  2  0  0  0  0  0  0
  -28.1990  -25.2490   20.7290 C   0  0  0  0  0  2  0  0  0  0  0  0
  -28.3810  -26.6100   20.2220 O   0  0  0  0  0  0  0  0  0  0  0  0
  -24.6100  -31.9110   23.2400 C   0  0  0  0  0  0  0  0  0  0  0  0
  -27.2410  -27.4070   20.1890 C   0  0  0  0  0  0  0  0  0  0  0  0
  -23.4080  -30.5040   21.6030 C   0  0  0  0  0  3  0  0  0  0  0  0
  -24.8620  -28.9650   20.1750 C   0  0  0  0  0  0  0  0  0  0  0  0
  -25.9390  -30.8500   21.4080 C   0  0  0  0  0  2  0  0  0  0  0  0
  -26.0230  -29.4730   20.7720 C   0  0  0  0  0  0  0  0  0  0  0  0
  -27.2170  -28.7030   20.7720 C   0  0  0  0  0  3  0  0  0  0  0  0
  -26.0680  -26.9460   19.5530 C   0  0  0  0  0  3  0  0  0  0  0  0
  -24.8830  -27.7060   19.5550 C   0  0  0  0  0  3  0  0  0  0  0  0
  -23.6190  -29.8280   20.2230 C   0  0  0  0  0  2  0  0  0  0  0  0
  -24.6710  -31.1040   22.1430 N   0  0  0  0  0  0  0  0  0  0  0  0
  -23.5260  -32.1830   23.7770 O   0  0  0  0  0  0  0  0  0  0  0  0
  -22.7550  -29.4840   22.5650 C   0  0  0  0  0  0  0  0  0  0  0  0
  -21.4300  -29.3000   22.4370 N   0  0  0  0  0  0  0  0  0  0  0  0
  -23.4370  -28.8620   23.3820 O   0  0  0  0  0  0  0  0  0  0  0  0
  -20.9380  -29.8560   21.7510 H   0  0  0  0  0  0  0  0  0  0  0  0
  -18.0570  -28.0960   22.9320 C   0  0  0  0  0  0  0  0  0  0  0  0
  -20.6140  -28.3640   23.2080 C   0  0  0  0  0  3  0  0  0  0  0  0
  -20.7220  -26.9300   22.6390 C   0  0  0  0  0  2  0  0  0  0  0  0
  -19.6230  -26.5990   21.6240 C   0  0  0  0  0  2  0  0  0  0  0  0
  -18.2390  -26.7440   22.2630 C   0  0  0  0  0  2  0  0  0  0  0  0
  -19.1730  -28.8630   23.3620 C   0  0  0  0  0  0  0  0  0  0  0  0
  -18.9490  -30.1280   23.9460 C   0  0  0  0  0  3  0  0  0  0  0  0
  -17.6430  -30.6270   24.1060 C   0  0  0  0  0  3  0  0  0  0  0  0
  -16.5420  -29.8590   23.6930 C   0  0  0  0  0  3  0  0  0  0  0  0
  -16.7500  -28.5950   23.1120 C   0  0  0  0  0  3  0  0  0  0  0  0
  -25.8930  -32.5490   23.8580 C   0  0  0  0  0  3  0  0  0  0  0  0
  -26.4110  -31.7810   25.1360 C   0  0  1  0  0  0  0  0  0  0  0  0
  -25.3200  -31.5470   26.2070 C   0  0  0  0  0  1  0  0  0  0  0  0
  -26.9910  -30.4030   24.7420 C   0  0  0  0  0  1  0  0  0  0  0  0
  -27.5620  -32.5780   25.7940 C   0  0  0  0  0  1  0  0  0  0  0  0
  -25.5830  -33.9480   24.1840 N   0  0  0  0  0  0  0  0  0  0  0  0
  -25.9130  -34.9990   23.4210 C   0  0  0  0  0  0  0  0  0  0  0  0
  -26.5840  -34.8930   22.3890 O   0  0  0  0  0  0  0  0  0  0  0  0
  -24.9980  -34.1060   24.9910 H   0  0  0  0  0  0  0  0  0  0  0  0
  -24.1820  -36.7840   23.0560 C   0  0  0  0  0  1  0  0  0  0  0  0
  -25.4210  -36.3870   23.8730 C   0  0  0  0  0  3  0  0  0  0  0  0
  -27.5520  -37.2750   24.7060 C   0  0  0  0  0  1  0  0  0  0  0  0
  -26.4520  -37.4420   23.7610 N   0  0  0  0  0  0  0  0  0  0  0  0
  -26.0430  -38.3600   23.9090 H   0  0  0  0  0  0  0  0  0  0  0  0
  -30.7580  -16.8120   21.6440 C   0  0  0  0  0  2  0  0  0  0  0  0
  -30.6880  -14.5710   20.4710 C   0  0  0  0  0  0  0  0  0  0  0  0
  -30.3390  -12.4290   19.2750 C   0  0  0  0  0  2  0  0  0  0  0  0
  -29.3890  -12.6170   18.0770 C   0  0  0  0  0  2  0  0  0  0  0  0
  -27.9220  -12.4660   18.5210 C   0  0  0  0  0  2  0  0  0  0  0  0
  -27.5880  -13.3060   19.7830 C   0  0  0  0  0  3  0  0  0  0  0  0
  -28.6550  -13.1100   20.8840 C   0  0  0  0  0  2  0  0  0  0  0  0
  -29.9710  -13.4200   20.3020 N   0  0  0  0  0  0  0  0  0  0  0  0
  -31.8150  -14.7160   19.9950 O   0  0  0  0  0  0  0  0  0  0  0  0
  -30.0820  -15.5980   21.1130 N   0  0  0  0  0  0  0  0  0  0  0  0
  -29.1300  -15.4380   21.4080 H   0  0  0  0  0  0  0  0  0  0  0  0
  -25.1910  -13.9040   20.5000 C   0  0  0  0  0  0  0  0  0  0  0  0
  -24.1260  -13.1290   20.8730 C   0  0  0  0  0  0  0  0  0  0  0  0
  -24.5920  -11.7780   20.8460 C   0  0  0  0  0  0  0  0  0  0  0  0
  -26.2390  -13.0250   20.2700 N   0  0  0  0  0  0  0  0  0  0  0  0
  -25.8820  -11.7420   20.5380 N   0  0  0  0  0  0  0  0  0  0  0  0
  -23.8680  -10.5140   21.0400 C   0  0  0  0  0  0  0  0  0  0  0  0
  -24.3070   -9.5470   21.9700 C   0  0  0  0  0  3  0  0  0  0  0  0
  -23.5830   -8.3490   22.1530 C   0  0  0  0  0  3  0  0  0  0  0  0
  -22.4060   -8.1100   21.4050 C   0  0  0  0  0  0  0  0  0  0  0  0
  -21.9860   -9.0660   20.4640 C   0  0  0  0  0  3  0  0  0  0  0  0
  -22.7100  -10.2560   20.2790 C   0  0  0  0  0  3  0  0  0  0  0  0
  -21.6530   -6.9630   21.4960 O   0  0  0  0  0  0  0  0  0  0  0  0
  -21.6190   -6.2150   22.6450 C   0  0  0  0  0  0  0  0  0  0  0  0
  -21.2200   -6.7660   23.8810 C   0  0  0  0  0  3  0  0  0  0  0  0
  -21.1330   -5.9440   25.0230 C   0  0  0  0  0  3  0  0  0  0  0  0
  -21.4340   -4.5720   24.9290 C   0  0  0  0  0  0  0  0  0  0  0  0
  -21.8270   -4.0210   23.6970 C   0  0  0  0  0  3  0  0  0  0  0  0
  -21.9170   -4.8400   22.5580 C   0  0  0  0  0  0  0  0  0  0  0  0
  -22.2740   -4.2980   21.3680 F   0  0  0  0  0  0  0  0  0  0  0  0
  -21.3430   -3.7800   26.0230 F   0  0  0  0  0  0  0  0  0  0  0  0
  -22.7270  -13.6040   21.1430 C   0  0  0  0  0  0  0  0  0  0  0  0
  -22.0020  -12.9080   22.0120 N   0  0  0  0  0  0  0  0  0  0  0  0
  -22.2870  -14.6270   20.6220 O   0  0  0  0  0  0  0  0  0  0  0  0
  -22.3710  -12.0810   22.4560 H   0  0  0  0  0  0  0  0  0  0  0  0
  -21.0630  -13.2080   22.2350 H   0  0  0  0  0  0  0  0  0  0  0  0
  -25.3530  -15.2730   20.3150 N   0  0  0  0  0  0  0  0  0  0  0  0
  -24.5850  -15.9270   20.4170 H   0  0  0  0  0  0  0  0  0  0  0  0
  -26.2000  -15.7100   19.9730 H   0  0  0  0  0  0  0  0  0  0  0  0
  1  4  1  0
  2  6  1  0
  4  3  1  0
  5  2  1  0
  5  4  1  0
  6  1  1  0
  6 54  1  0
  7  3  1  0
  7  8  1  0
  7  5  1  0
  8  9  1  0
 10  8  1  0
 11 12  1  0
 11  8  1  0
 13 12  1  0
 14 25  2  0
 15 13  1  0
 15 20  1  0
 16 24  1  0
 16 26  1  0
 17 23  1  0
 17 19  1  0
 18 24  1  0
 19 20  2  0
 19 18  1  0
 21 22  1  0
 21 15  2  0
 22 17  2  0
 23 16  1  0
 24 14  1  0
 26 28  2  0
 27 26  1  0
 29 27  1  0
 30 39  2  0
 30 35  1  0
 31 27  1  0
 31 35  1  0
 32 31  1  0
 33 34  1  0
 33 32  1  0
 34 30  1  0
 35 36  2  0
 36 37  1  0
 38 37  2  0
 39 38  1  0
 40 14  1  0
 40 45  1  0
 40 41  1  0
 41 44  1  1
 41 42  1  0
 43 41  1  0
 45 48  1  0
 46 50  1  0
 46 45  1  0
 47 46  2  0
 50 49  1  0
 52 50  1  0
 52 53  1  0
 52 51  1  0
 55 63  1  0
 56 61  1  0
 57 58  1  0
 57 56  1  0
 59 58  1  0
 59 68  1  0
 59 60  1  0
 61 55  1  0
 61 60  1  0
 62 55  2  0
 63 64  1  0
 63 54  1  0
 65 66  2  0
 66 85  1  0
 67 66  1  0
 67 70  1  0
 68 65  1  0
 68 69  1  0
 69 67  2  0
 70 71  1  0
 71 72  2  0
 73 76  1  0
 73 72  1  0
 74 73  2  0
 75 74  1  0
 75 70  2  0
 76 77  1  0
 77 78  1  0
 78 79  2  0
 80 79  1  0
 80 84  1  0
 81 80  2  0
 82 77  2  0
 82 81  1  0
 83 82  1  0
 85 86  1  0
 86 89  1  0
 86 88  1  0
 87 85  2  0
 90 91  1  0
 90 65  1  0
 92 90  1  0
M  ISO  4  12 101  13 101  55 100  63 100
M  END
>  <TORSDO>  (61) 
F 20

>  <SCORE>  (61) 
-14.077

>  <name>  (61) 
61

>  <ligand_id>  (61) 
61

>  <original_smiles>  (61) 
[H]c1c([H])c([H])c2c(c1[H])C([H])([H])C([H])([H])C([H])([H])C2([H])N([H])C(=O)C1([H])N(C(=O)C([H])(N([H])C(=O)C([H])(N([H])C([H])([H])[H])C([H])([H])[H])C(C([H])([H])[H])(C([H])([H])[H])C([H])([H])[H])C([H])([H])c2c([H])c(OC([H])([H])C([H])([H])[N+]([H])([H])C3([H])C([H])([H])C4([H])C([H])([H])C([H])(C([H])([H])N([H])C(=O)N5C([H])([H])C([H])([H])C([H])([H])C([H])(n6nc(-c7c([H])c([H])c(Oc8c([H])c([H])c(F)c([H])c8F)c([H])c7[H])c(C(=O)N([H])[H])c6N([H])[H])C5([H])[H])C([H])([H])C43[H])c([H])c([H])c2C1([H])[H]

>  <smiles>  (61) 
[H]c1c([H])c([H])c2c(c1[H])C([H])([H])C([H])([H])C([H])([H])C2([H])N([H])C(=O)C1([H])N(C(=O)C([H])(N([H])C(=O)C([H])(N([H])C([H])([H])[H])C([H])([H])[H])C(C([H])([H])[H])(C([H])([H])[H])C([H])([H])[H])C([H])([H])c2c([H])c(OC([H])([H])C([H])([H])[N+]([H])([H])C3([H])C([H])([H])C4([H])C([H])([H])C([H])(C([H])([H])N([H])C(=O)N5C([H])([H])C([H])([H])C([H])([H])C([H])(n6nc(-c7c([H])c([H])c(Oc8c([H])c([H])c(F)c([H])c8F)c([H])c7[H])c(C(=O)N([H])[H])c6N([H])[H])C5([H])[H])C([H])([H])C43[H])c([H])c([H])c2C1([H])[H]

$$$$
62:0:0
     RDKit          3D

 92101  0  0  1  0  0  0  0  0999 V2000
  -27.6020  -21.6660   21.5970 C   0  0  0  0  0  2  0  0  0  0  0  0
  -28.7830  -22.2820   22.3690 C   0  0  0  0  0  2  0  0  0  0  0  0
  -27.9200  -22.8220   19.3350 C   0  0  0  0  0  2  0  0  0  0  0  0
  -29.8580  -23.7800   20.6000 C   0  0  0  0  0  2  0  0  0  0  0  0
  -28.4610  -24.1390   20.0040 C   0  0  0  0  0  3  0  0  0  0  0  0
  -28.1460  -21.4950   20.1660 C   0  0  0  0  0  3  0  0  0  0  0  0
  -29.9060  -22.3790   21.3090 C   0  0  0  0  0  3  0  0  0  0  0  0
  -29.6030  -21.2660   20.3570 N   0  0  1  0  0  4  0  0  0  0  0  0
  -30.0790  -21.4340   19.4830 H   0  0  0  0  0  0  0  0  0  0  0  0
  -28.4530  -25.4130   19.0540 C   0  0  0  0  0  2  0  0  0  0  0  0
  -28.3860  -26.7670   19.6250 O   0  0  0  0  0  0  0  0  0  0  0  0
  -24.6230  -31.8000   23.0960 C   0  0  0  0  0  0  0  0  0  0  0  0
  -27.2060  -27.5190   19.6620 C   0  0  0  0  0  0  0  0  0  0  0  0
  -23.3750  -30.4650   21.4300 C   0  0  0  0  0  3  0  0  0  0  0  0
  -24.7940  -29.0400   19.8550 C   0  0  0  0  0  0  0  0  0  0  0  0
  -25.8900  -30.8720   21.1490 C   0  0  0  0  0  2  0  0  0  0  0  0
  -25.9720  -29.5360   20.4220 C   0  0  0  0  0  0  0  0  0  0  0  0
  -27.1770  -28.7860   20.3160 C   0  0  0  0  0  3  0  0  0  0  0  0
  -25.9950  -27.0610   19.0920 C   0  0  0  0  0  3  0  0  0  0  0  0
  -24.8060  -27.8090   19.1800 C   0  0  0  0  0  3  0  0  0  0  0  0
  -23.5390  -29.8740   20.0050 C   0  0  0  0  0  2  0  0  0  0  0  0
  -24.6500  -31.0610   21.9480 N   0  0  0  0  0  0  0  0  0  0  0  0
  -23.5600  -32.0140   23.6950 O   0  0  0  0  0  0  0  0  0  0  0  0
  -22.7870  -29.3780   22.3610 C   0  0  0  0  0  0  0  0  0  0  0  0
  -21.4720  -29.1290   22.2430 N   0  0  0  0  0  0  0  0  0  0  0  0
  -23.5130  -28.7630   23.1480 O   0  0  0  0  0  0  0  0  0  0  0  0
  -20.9450  -29.6810   21.5820 H   0  0  0  0  0  0  0  0  0  0  0  0
  -18.1890  -27.6830   22.6980 C   0  0  0  0  0  0  0  0  0  0  0  0
  -20.7200  -28.1200   22.9890 C   0  0  0  0  0  3  0  0  0  0  0  0
  -20.9270  -26.7120   22.3870 C   0  0  0  0  0  2  0  0  0  0  0  0
  -19.8580  -26.3290   21.3590 C   0  0  0  0  0  2  0  0  0  0  0  0
  -18.4660  -26.3650   21.9940 C   0  0  0  0  0  2  0  0  0  0  0  0
  -19.2470  -28.5140   23.1520 C   0  0  0  0  0  0  0  0  0  0  0  0
  -18.9370  -29.7440   23.7700 C   0  0  0  0  0  3  0  0  0  0  0  0
  -17.5990  -30.1490   23.9340 C   0  0  0  0  0  3  0  0  0  0  0  0
  -16.5540  -29.3170   23.4960 C   0  0  0  0  0  3  0  0  0  0  0  0
  -16.8500  -28.0850   22.8850 C   0  0  0  0  0  3  0  0  0  0  0  0
  -25.9200  -32.4300   23.6950 C   0  0  0  0  0  3  0  0  0  0  0  0
  -26.4980  -31.6220   24.9220 C   0  0  1  0  0  0  0  0  0  0  0  0
  -25.4490  -31.3200   26.0190 C   0  0  0  0  0  1  0  0  0  0  0  0
  -27.0930  -30.2740   24.4550 C   0  0  0  0  0  1  0  0  0  0  0  0
  -27.6600  -32.4130   25.5710 C   0  0  0  0  0  1  0  0  0  0  0  0
  -25.6030  -33.8070   24.0920 N   0  0  0  0  0  0  0  0  0  0  0  0
  -25.9050  -34.8960   23.3730 C   0  0  0  0  0  0  0  0  0  0  0  0
  -26.5540  -34.8470   22.3240 O   0  0  0  0  0  0  0  0  0  0  0  0
  -25.0340  -33.9200   24.9180 H   0  0  0  0  0  0  0  0  0  0  0  0
  -24.1530  -36.6780   23.1330 C   0  0  0  0  0  1  0  0  0  0  0  0
  -25.4100  -36.2540   23.9050 C   0  0  0  0  0  3  0  0  0  0  0  0
  -27.5430  -37.1240   24.7500 C   0  0  0  0  0  1  0  0  0  0  0  0
  -26.4280  -37.3220   23.8270 N   0  0  0  0  0  0  0  0  0  0  0  0
  -26.0140  -38.2290   24.0240 H   0  0  0  0  0  0  0  0  0  0  0  0
  -30.0890  -19.9120   20.8680 C   0  0  0  0  0  2  0  0  0  0  0  0
  -29.7430  -18.5560   20.1210 C   0  0  0  0  0  2  0  0  0  0  0  0
  -30.6730  -17.3390   20.5480 C   0  0  0  0  0  2  0  0  0  0  0  0
  -30.9310  -14.8460   19.9710 C   0  0  0  0  0  0  0  0  0  0  0  0
  -30.6500  -12.5940   18.9670 C   0  0  0  0  0  2  0  0  0  0  0  0
  -29.6530  -12.6810   17.7920 C   0  0  0  0  0  2  0  0  0  0  0  0
  -28.2000  -12.5440   18.2900 C   0  0  0  0  0  2  0  0  0  0  0  0
  -27.8970  -13.4550   19.5100 C   0  0  0  0  0  3  0  0  0  0  0  0
  -29.0000  -13.3380   20.5830 C   0  0  0  0  0  2  0  0  0  0  0  0
  -30.2810  -13.6450   19.9340 N   0  0  0  0  0  0  0  0  0  0  0  0
  -32.0860  -14.9710   19.5530 O   0  0  0  0  0  0  0  0  0  0  0  0
  -30.1920  -15.9360   20.3270 N   0  0  0  0  0  0  0  0  0  0  0  0
  -29.2340  -15.7400   20.5770 H   0  0  0  0  0  0  0  0  0  0  0  0
  -25.5550  -14.0870   20.3580 C   0  0  0  0  0  0  0  0  0  0  0  0
  -24.4940  -13.3270   20.7690 C   0  0  0  0  0  0  0  0  0  0  0  0
  -24.9290  -11.9660   20.6940 C   0  0  0  0  0  0  0  0  0  0  0  0
  -26.5700  -13.1920   20.0590 N   0  0  0  0  0  0  0  0  0  0  0  0
  -26.2030  -11.9120   20.3240 N   0  0  0  0  0  0  0  0  0  0  0  0
  -24.1930  -10.7140   20.8990 C   0  0  0  0  0  0  0  0  0  0  0  0
  -24.6140   -9.7550   21.8480 C   0  0  0  0  0  3  0  0  0  0  0  0
  -23.8760   -8.5680   22.0390 C   0  0  0  0  0  3  0  0  0  0  0  0
  -22.7040   -8.3290   21.2820 C   0  0  0  0  0  0  0  0  0  0  0  0
  -22.3040   -9.2760   20.3220 C   0  0  0  0  0  3  0  0  0  0  0  0
  -23.0420  -10.4560   20.1280 C   0  0  0  0  0  3  0  0  0  0  0  0
  -21.9400   -7.1920   21.3830 O   0  0  0  0  0  0  0  0  0  0  0  0
  -21.8340   -6.4990   22.5630 C   0  0  0  0  0  0  0  0  0  0  0  0
  -21.3220   -7.0950   23.7350 C   0  0  0  0  0  3  0  0  0  0  0  0
  -21.1640   -6.3260   24.9050 C   0  0  0  0  0  3  0  0  0  0  0  0
  -21.5100   -4.9620   24.9030 C   0  0  0  0  0  0  0  0  0  0  0  0
  -22.0160   -4.3640   23.7350 C   0  0  0  0  0  3  0  0  0  0  0  0
  -22.1730   -5.1310   22.5670 C   0  0  0  0  0  0  0  0  0  0  0  0
  -22.6410   -4.5460   21.4380 F   0  0  0  0  0  0  0  0  0  0  0  0
  -21.3520   -4.2210   26.0240 F   0  0  0  0  0  0  0  0  0  0  0  0
  -23.1190  -13.8200   21.1170 C   0  0  0  0  0  0  0  0  0  0  0  0
  -22.4280  -13.1210   22.0110 N   0  0  0  0  0  0  0  0  0  0  0  0
  -22.6700  -14.8580   20.6320 O   0  0  0  0  0  0  0  0  0  0  0  0
  -22.8070  -12.2820   22.4210 H   0  0  0  0  0  0  0  0  0  0  0  0
  -21.5080  -13.4270   22.2900 H   0  0  0  0  0  0  0  0  0  0  0  0
  -25.7340  -15.4580   20.1920 N   0  0  0  0  0  0  0  0  0  0  0  0
  -24.9830  -16.1210   20.3470 H   0  0  0  0  0  0  0  0  0  0  0  0
  -26.5630  -15.8850   19.7990 H   0  0  0  0  0  0  0  0  0  0  0  0
  1  2  1  0
  3  5  1  0
  5 10  1  0
  5  4  1  0
  6  3  1  0
  6  8  1  0
  6  1  1  0
  7  4  1  0
  7  2  1  0
  8 52  1  0
  8  7  1  0
  8  9  1  6
 10 11  1  0
 11 13  1  0
 12 23  2  0
 13 18  1  0
 14 22  1  0
 14 24  1  0
 15 21  1  0
 15 17  1  0
 16 22  1  0
 17 16  1  0
 18 17  2  0
 19 20  1  0
 19 13  2  0
 20 15  2  0
 21 14  1  0
 22 12  1  0
 24 26  2  0
 25 24  1  0
 27 25  1  0
 28 37  2  0
 28 33  1  0
 29 25  1  0
 29 33  1  0
 30 29  1  0
 31 32  1  0
 31 30  1  0
 32 28  1  0
 33 34  2  0
 34 35  1  0
 36 35  2  0
 37 36  1  0
 38 12  1  0
 38 43  1  0
 38 39  1  0
 39 42  1  1
 39 40  1  0
 41 39  1  0
 43 46  1  0
 44 48  1  0
 44 43  1  0
 45 44  2  0
 48 47  1  0
 50 48  1  0
 50 51  1  0
 50 49  1  0
 53 54  1  0
 53 52  1  0
 55 63  1  0
 56 61  1  0
 57 58  1  0
 57 56  1  0
 59 58  1  0
 59 68  1  0
 59 60  1  0
 61 55  1  0
 61 60  1  0
 62 55  2  0
 63 54  1  0
 63 64  1  0
 65 66  2  0
 66 85  1  0
 67 66  1  0
 67 70  1  0
 68 69  1  0
 68 65  1  0
 69 67  2  0
 70 71  1  0
 71 72  2  0
 73 76  1  0
 73 72  1  0
 74 73  2  0
 75 74  1  0
 75 70  2  0
 76 77  1  0
 77 82  2  0
 77 78  1  0
 78 79  2  0
 80 79  1  0
 80 84  1  0
 81 80  2  0
 82 81  1  0
 83 82  1  0
 85 86  1  0
 86 89  1  0
 86 88  1  0
 87 85  2  0
 90 91  1  0
 90 65  1  0
 92 90  1  0
M  ISO  4  10 101  11 101  55 100  63 100
M  END
>  <TORSDO>  (62) 
F 20

>  <SCORE>  (62) 
-12.925

>  <name>  (62) 
62

>  <ligand_id>  (62) 
62

>  <original_smiles>  (62) 
[H]c1c([H])c([H])c2c(c1[H])C([H])([H])C([H])([H])C([H])([H])C2([H])N([H])C(=O)C1([H])N(C(=O)C([H])(N([H])C(=O)C([H])(N([H])C([H])([H])[H])C([H])([H])[H])C(C([H])([H])[H])(C([H])([H])[H])C([H])([H])[H])C([H])([H])c2c([H])c(OC([H])([H])C3([H])C([H])([H])C4([H])C([H])([H])C([H])([H])C([H])(C3([H])[H])[N+]4([H])C([H])([H])C([H])([H])C([H])([H])N([H])C(=O)N3C([H])([H])C([H])([H])C([H])([H])C([H])(n4nc(-c5c([H])c([H])c(Oc6c([H])c([H])c(F)c([H])c6F)c([H])c5[H])c(C(=O)N([H])[H])c4N([H])[H])C3([H])[H])c([H])c([H])c2C1([H])[H]

>  <smiles>  (62) 
[H]c1c([H])c([H])c2c(c1[H])C([H])([H])C([H])([H])C([H])([H])C2([H])N([H])C(=O)C1([H])N(C(=O)C([H])(N([H])C(=O)C([H])(N([H])C([H])([H])[H])C([H])([H])[H])C(C([H])([H])[H])(C([H])([H])[H])C([H])([H])[H])C([H])([H])c2c([H])c(OC([H])([H])C3([H])C([H])([H])C4([H])C([H])([H])C([H])([H])C([H])(C3([H])[H])[N+]4([H])C([H])([H])C([H])([H])C([H])([H])N([H])C(=O)N3C([H])([H])C([H])([H])C([H])([H])C([H])(n4nc(-c5c([H])c([H])c(Oc6c([H])c([H])c(F)c([H])c6F)c([H])c5[H])c(C(=O)N([H])[H])c4N([H])[H])C3([H])[H])c([H])c([H])c2C1([H])[H]

$$$$
63:0:0
     RDKit          3D

 90100  0  0  1  0  0  0  0  0999 V2000
  -28.9300  -21.7820   20.4630 N   0  0  0  0  0  4  0  0  0  0  0  0
  -29.7110  -21.7430   21.0970 H   0  0  0  0  0  0  0  0  0  0  0  0
  -28.1110  -21.7020   21.0410 H   0  0  0  0  0  0  0  0  0  0  0  0
  -29.0370  -18.7880   18.4110 C   0  0  0  0  0  2  0  0  0  0  0  0
  -30.9500  -18.6180   19.8670 C   0  0  0  0  0  2  0  0  0  0  0  0
  -30.1720  -19.6720   18.9980 C   0  0  1  0  0  0  0  0  0  0  0  0
  -28.6830  -18.8320   19.9240 C   0  0  2  0  0  0  0  0  0  0  0  0
  -29.8040  -17.8170   20.5410 C   0  0  0  0  0  3  0  0  0  0  0  0
  -28.9150  -20.4570   19.5700 C   0  0  0  0  0  3  0  0  0  0  0  0
  -30.5060  -15.0560   20.2510 C   0  0  0  0  0  0  0  0  0  0  0  0
  -30.4050  -12.6910   19.3090 C   0  0  0  0  0  2  0  0  0  0  0  0
  -29.4440  -12.6260   18.0990 C   0  0  0  0  0  2  0  0  0  0  0  0
  -27.9940  -12.3900   18.5660 C   0  0  0  0  0  2  0  0  0  0  0  0
  -27.5990  -13.3120   19.7480 C   0  0  0  0  0  3  0  0  0  0  0  0
  -28.6810  -13.3470   20.8480 C   0  0  0  0  0  2  0  0  0  0  0  0
  -29.9270  -13.7840   20.2040 N   0  0  0  0  0  0  0  0  0  0  0  0
  -31.7150  -15.1260   20.0130 O   0  0  0  0  0  0  0  0  0  0  0  0
  -29.6850  -16.2240   20.3630 N   0  0  0  0  0  0  0  0  0  0  0  0
  -28.7230  -15.9350   20.4420 H   0  0  0  0  0  0  0  0  0  0  0  0
  -25.2350  -13.8680   20.5520 C   0  0  0  0  0  0  0  0  0  0  0  0
  -24.1820  -13.0840   20.9320 C   0  0  0  0  0  0  0  0  0  0  0  0
  -24.6520  -11.7360   20.8770 C   0  0  0  0  0  0  0  0  0  0  0  0
  -26.2760  -12.9980   20.2780 N   0  0  0  0  0  0  0  0  0  0  0  0
  -25.9370  -11.7080   20.5390 N   0  0  0  0  0  0  0  0  0  0  0  0
  -23.9340  -10.4680   21.0630 C   0  0  0  0  0  0  0  0  0  0  0  0
  -24.3790   -9.4930   21.9830 C   0  0  0  0  0  3  0  0  0  0  0  0
  -23.6570   -8.2940   22.1590 C   0  0  0  0  0  3  0  0  0  0  0  0
  -22.4780   -8.0580   21.4130 C   0  0  0  0  0  0  0  0  0  0  0  0
  -22.0530   -9.0210   20.4800 C   0  0  0  0  0  3  0  0  0  0  0  0
  -22.7760  -10.2130   20.3040 C   0  0  0  0  0  3  0  0  0  0  0  0
  -21.7280   -6.9100   21.4990 O   0  0  0  0  0  0  0  0  0  0  0  0
  -21.6850   -6.1610   22.6470 C   0  0  0  0  0  0  0  0  0  0  0  0
  -21.2420   -6.7010   23.8730 C   0  0  0  0  0  3  0  0  0  0  0  0
  -21.1490   -5.8790   25.0130 C   0  0  0  0  0  3  0  0  0  0  0  0
  -21.4880   -4.5160   24.9280 C   0  0  0  0  0  0  0  0  0  0  0  0
  -21.9240   -3.9730   23.7060 C   0  0  0  0  0  3  0  0  0  0  0  0
  -22.0200   -4.7930   22.5690 C   0  0  0  0  0  0  0  0  0  0  0  0
  -22.4190   -4.2620   21.3890 F   0  0  0  0  0  0  0  0  0  0  0  0
  -21.3910   -3.7220   26.0200 F   0  0  0  0  0  0  0  0  0  0  0  0
  -22.7890  -13.5520   21.2360 C   0  0  0  0  0  0  0  0  0  0  0  0
  -22.0760  -12.8380   22.0990 N   0  0  0  0  0  0  0  0  0  0  0  0
  -22.3410  -14.5850   20.7410 O   0  0  0  0  0  0  0  0  0  0  0  0
  -22.4510  -12.0010   22.5190 H   0  0  0  0  0  0  0  0  0  0  0  0
  -21.1410  -13.1340   22.3420 H   0  0  0  0  0  0  0  0  0  0  0  0
  -25.3850  -15.2430   20.3870 N   0  0  0  0  0  0  0  0  0  0  0  0
  -24.6080  -15.8830   20.5160 H   0  0  0  0  0  0  0  0  0  0  0  0
  -26.2030  -15.6890   19.9940 H   0  0  0  0  0  0  0  0  0  0  0  0
  -28.8420  -23.2660   19.8360 C   0  0  0  0  0  3  0  0  0  0  0  0
  -28.1420  -24.6420   20.5740 C   0  0  0  0  0  3  0  0  0  0  0  0
  -28.3010  -26.1770   20.2360 O   0  0  0  0  0  0  0  0  0  0  0  0
  -24.6170  -31.8920   23.2310 C   0  0  0  0  0  0  0  0  0  0  0  0
  -27.2210  -27.1460   20.2410 C   0  0  0  0  0  0  0  0  0  0  0  0
  -23.4250  -30.4820   21.5980 C   0  0  0  0  0  3  0  0  0  0  0  0
  -24.8810  -28.8910   20.1960 C   0  0  0  0  0  0  0  0  0  0  0  0
  -25.9790  -30.7490   21.4360 C   0  0  0  0  0  2  0  0  0  0  0  0
  -26.0600  -29.3470   20.7970 C   0  0  0  0  0  0  0  0  0  0  0  0
  -27.2320  -28.4940   20.7950 C   0  0  0  0  0  3  0  0  0  0  0  0
  -26.0100  -26.7900   19.6100 C   0  0  0  0  0  3  0  0  0  0  0  0
  -24.8710  -27.6260   19.5850 C   0  0  0  0  0  3  0  0  0  0  0  0
  -23.6520  -29.7880   20.2280 C   0  0  0  0  0  2  0  0  0  0  0  0
  -24.6940  -31.0650   22.1440 N   0  0  0  0  0  0  0  0  0  0  0  0
  -23.5280  -32.1770   23.7560 O   0  0  0  0  0  0  0  0  0  0  0  0
  -22.7430  -29.4850   22.5670 C   0  0  0  0  0  0  0  0  0  0  0  0
  -21.4150  -29.3130   22.4410 N   0  0  0  0  0  0  0  0  0  0  0  0
  -23.4120  -28.8640   23.3970 O   0  0  0  0  0  0  0  0  0  0  0  0
  -20.9270  -29.8620   21.7480 H   0  0  0  0  0  0  0  0  0  0  0  0
  -18.0340  -28.1140   22.9560 C   0  0  0  0  0  0  0  0  0  0  0  0
  -20.5940  -28.3790   23.2180 C   0  0  0  0  0  3  0  0  0  0  0  0
  -20.6940  -26.9450   22.6490 C   0  0  0  0  0  2  0  0  0  0  0  0
  -19.5900  -26.6180   21.6360 C   0  0  0  0  0  2  0  0  0  0  0  0
  -18.2090  -26.7640   22.2820 C   0  0  0  0  0  2  0  0  0  0  0  0
  -19.1540  -28.8790   23.3810 C   0  0  0  0  0  0  0  0  0  0  0  0
  -18.9350  -30.1400   23.9750 C   0  0  0  0  0  3  0  0  0  0  0  0
  -17.6290  -30.6420   24.1420 C   0  0  0  0  0  3  0  0  0  0  0  0
  -16.5250  -29.8750   23.7320 C   0  0  0  0  0  3  0  0  0  0  0  0
  -16.7270  -28.6120   23.1470 C   0  0  0  0  0  3  0  0  0  0  0  0
  -25.8900  -32.5370   23.8580 C   0  0  0  0  0  3  0  0  0  0  0  0
  -26.3890  -31.7870   25.1540 C   0  0  1  0  0  0  0  0  0  0  0  0
  -25.2860  -31.5730   26.2160 C   0  0  0  0  0  1  0  0  0  0  0  0
  -26.9720  -30.3990   24.7980 C   0  0  0  0  0  1  0  0  0  0  0  0
  -27.5340  -32.5910   25.8160 C   0  0  0  0  0  1  0  0  0  0  0  0
  -25.5760  -33.9410   24.1700 N   0  0  0  0  0  0  0  0  0  0  0  0
  -25.9150  -34.9900   23.4070 C   0  0  0  0  0  0  0  0  0  0  0  0
  -26.5910  -34.8760   22.3810 O   0  0  0  0  0  0  0  0  0  0  0  0
  -24.9740  -34.1040   24.9640 H   0  0  0  0  0  0  0  0  0  0  0  0
  -24.1970  -36.7910   23.0300 C   0  0  0  0  0  1  0  0  0  0  0  0
  -25.4300  -36.3840   23.8520 C   0  0  0  0  0  3  0  0  0  0  0  0
  -27.5620  -37.2710   24.6920 C   0  0  0  0  0  1  0  0  0  0  0  0
  -26.4670  -37.4340   23.7390 N   0  0  0  0  0  0  0  0  0  0  0  0
  -26.0610  -38.3560   23.8760 H   0  0  0  0  0  0  0  0  0  0  0  0
  1  3  1  0
  1  2  1  0
  5  8  1  0
  6  4  1  1
  6  9  1  0
  6  5  1  0
  6  7  1  0
  7  4  1  6
  7  8  1  0
  8 18  1  0
  9  7  1  0
  9  1  1  0
 10 18  1  0
 11 16  1  0
 12 13  1  0
 12 11  1  0
 14 13  1  0
 14 23  1  0
 14 15  1  0
 16 10  1  0
 16 15  1  0
 17 10  2  0
 18 19  1  0
 20 21  2  0
 21 40  1  0
 22 21  1  0
 22 25  1  0
 23 24  1  0
 23 20  1  0
 24 22  2  0
 25 26  1  0
 26 27  2  0
 28 31  1  0
 28 27  1  0
 29 28  2  0
 30 29  1  0
 30 25  2  0
 31 32  1  0
 32 33  1  0
 33 34  2  0
 35 34  1  0
 35 39  1  0
 36 35  2  0
 37 32  2  0
 37 36  1  0
 38 37  1  0
 40 41  1  0
 41 44  1  0
 41 43  1  0
 42 40  2  0
 45 46  1  0
 45 20  1  0
 47 45  1  0
 48  1  1  0
 48 49  2  0
 50 52  1  0
 50 49  1  0
 51 62  2  0
 52 57  1  0
 53 61  1  0
 53 63  1  0
 54 60  1  0
 54 56  1  0
 55 61  1  0
 56 55  1  0
 57 56  2  0
 58 52  2  0
 59 58  1  0
 59 54  2  0
 60 53  1  0
 61 51  1  0
 63 65  2  0
 64 63  1  0
 66 64  1  0
 67 76  2  0
 67 72  1  0
 68 64  1  0
 68 72  1  0
 69 68  1  0
 70 71  1  0
 70 69  1  0
 71 67  1  0
 72 73  2  0
 73 74  1  0
 75 74  2  0
 76 75  1  0
 77 51  1  0
 77 82  1  0
 77 78  1  0
 78 81  1  1
 78 79  1  0
 80 78  1  0
 82 85  1  0
 83 87  1  0
 83 82  1  0
 84 83  2  0
 87 86  1  0
 89 87  1  0
 89 90  1  0
 89 88  1  0
M  ISO  4  10 100  18 100  49 101  50 101
M  END
>  <TORSDO>  (63) 
F 19

>  <SCORE>  (63) 
-15.042

>  <name>  (63) 
63

>  <ligand_id>  (63) 
63

>  <original_smiles>  (63) 
[H]c1c([H])c([H])c2c(c1[H])C([H])([H])C([H])([H])C([H])([H])C2([H])N([H])C(=O)C1([H])N(C(=O)C([H])(N([H])C(=O)C([H])(N([H])C([H])([H])[H])C([H])([H])[H])C(C([H])([H])[H])(C([H])([H])[H])C([H])([H])[H])C([H])([H])c2c([H])c(OC([H])([H])C([H])([H])[N+]([H])([H])C3([H])C4([H])C([H])([H])C([H])(N([H])C(=O)N5C([H])([H])C([H])([H])C([H])([H])C([H])(n6nc(-c7c([H])c([H])c(Oc8c([H])c([H])c(F)c([H])c8F)c([H])c7[H])c(C(=O)N([H])[H])c6N([H])[H])C5([H])[H])C3([H])C4([H])[H])c([H])c([H])c2C1([H])[H]

>  <smiles>  (63) 
[H]c1c([H])c([H])c2c(c1[H])C([H])([H])C([H])([H])C([H])([H])C2([H])N([H])C(=O)C1([H])N(C(=O)C([H])(N([H])C(=O)C([H])(N([H])C([H])([H])[H])C([H])([H])[H])C(C([H])([H])[H])(C([H])([H])[H])C([H])([H])[H])C([H])([H])c2c([H])c(OC([H])([H])C([H])([H])[N+]([H])([H])C3([H])C4([H])C([H])([H])C([H])(N([H])C(=O)N5C([H])([H])C([H])([H])C([H])([H])C([H])(n6nc(-c7c([H])c([H])c(Oc8c([H])c([H])c(F)c([H])c8F)c([H])c7[H])c(C(=O)N([H])[H])c6N([H])[H])C5([H])[H])C3([H])C4([H])[H])c([H])c([H])c2C1([H])[H]

$$$$
64:0:0
     RDKit          3D

 93101  0  0  1  0  0  0  0  0999 V2000
  -28.2720  -19.9780   19.2440 C   0  0  0  0  0  2  0  0  0  0  0  0
  -27.7960  -22.5130   20.1070 C   0  0  0  0  0  2  0  0  0  0  0  0
  -27.2880  -21.0150   19.9100 C   0  0  0  0  0  3  0  0  0  0  0  0
  -29.7340  -20.0710   19.7080 C   0  0  0  0  0  3  0  0  0  0  0  0
  -29.0370  -22.8870   19.2400 C   0  0  0  0  0  3  0  0  0  0  0  0
  -30.1140  -21.6370   19.3190 N   0  0  0  0  0  4  0  0  0  0  0  0
  -30.8600  -21.9330   19.9350 H   0  0  0  0  0  0  0  0  0  0  0  0
  -30.5500  -21.5920   18.4130 H   0  0  0  0  0  0  0  0  0  0  0  0
  -26.6710  -20.4470   21.1450 N   0  0  0  0  0  4  0  0  0  0  0  0
  -25.7710  -20.8540   21.3310 H   0  0  0  0  0  0  0  0  0  0  0  0
  -27.2480  -20.5810   21.9600 H   0  0  0  0  0  0  0  0  0  0  0  0
  -26.5160  -19.4580   21.0290 H   0  0  0  0  0  0  0  0  0  0  0  0
  -30.6990  -18.5330   19.4960 C   0  0  0  0  0  2  0  0  0  0  0  0
  -31.1580  -15.5810   19.6960 C   0  0  0  0  0  0  0  0  0  0  0  0
  -31.0740  -13.0800   18.9580 C   0  0  0  0  0  2  0  0  0  0  0  0
  -30.0990  -12.8260   17.7790 C   0  0  0  0  0  2  0  0  0  0  0  0
  -28.6700  -12.5960   18.2960 C   0  0  0  0  0  2  0  0  0  0  0  0
  -28.2870  -13.5950   19.4160 C   0  0  0  0  0  3  0  0  0  0  0  0
  -29.3940  -13.7940   20.4730 C   0  0  0  0  0  2  0  0  0  0  0  0
  -30.5830  -14.2720   19.7520 N   0  0  0  0  0  0  0  0  0  0  0  0
  -32.3610  -15.5420   19.4000 O   0  0  0  0  0  0  0  0  0  0  0  0
  -30.4220  -16.8880   19.7700 N   0  0  0  0  0  0  0  0  0  0  0  0
  -29.4510  -16.7240   19.9990 H   0  0  0  0  0  0  0  0  0  0  0  0
  -26.0190  -14.2270   20.3760 C   0  0  0  0  0  0  0  0  0  0  0  0
  -24.9430  -13.4830   20.7800 C   0  0  0  0  0  0  0  0  0  0  0  0
  -25.3240  -12.1170   20.6250 C   0  0  0  0  0  0  0  0  0  0  0  0
  -26.9840  -13.3130   20.0020 N   0  0  0  0  0  0  0  0  0  0  0  0
  -26.5880  -12.0330   20.2160 N   0  0  0  0  0  0  0  0  0  0  0  0
  -24.5320  -10.8900   20.7880 C   0  0  0  0  0  0  0  0  0  0  0  0
  -24.9150   -9.8790   21.6950 C   0  0  0  0  0  3  0  0  0  0  0  0
  -24.1280   -8.7180   21.8520 C   0  0  0  0  0  3  0  0  0  0  0  0
  -22.9380   -8.5620   21.0990 C   0  0  0  0  0  0  0  0  0  0  0  0
  -22.5710   -9.5630   20.1820 C   0  0  0  0  0  3  0  0  0  0  0  0
  -23.3600  -10.7150   20.0270 C   0  0  0  0  0  3  0  0  0  0  0  0
  -22.1250   -7.4570   21.1660 O   0  0  0  0  0  0  0  0  0  0  0  0
  -21.9730   -6.7420   22.3280 C   0  0  0  0  0  0  0  0  0  0  0  0
  -21.4410   -7.3260   23.4980 C   0  0  0  0  0  3  0  0  0  0  0  0
  -21.2400   -6.5380   24.6490 C   0  0  0  0  0  3  0  0  0  0  0  0
  -21.5590   -5.1670   24.6260 C   0  0  0  0  0  0  0  0  0  0  0  0
  -22.0840   -4.5820   23.4600 C   0  0  0  0  0  3  0  0  0  0  0  0
  -22.2880   -5.3680   22.3140 C   0  0  0  0  0  0  0  0  0  0  0  0
  -22.7730   -4.7970   21.1830 F   0  0  0  0  0  0  0  0  0  0  0  0
  -21.3580   -4.4070   25.7280 F   0  0  0  0  0  0  0  0  0  0  0  0
  -23.6000  -14.0240   21.1750 C   0  0  0  0  0  0  0  0  0  0  0  0
  -22.9070  -13.3270   22.0680 N   0  0  0  0  0  0  0  0  0  0  0  0
  -23.1880  -15.0980   20.7410 O   0  0  0  0  0  0  0  0  0  0  0  0
  -23.2620  -12.4580   22.4380 H   0  0  0  0  0  0  0  0  0  0  0  0
  -22.0080  -13.6620   22.3820 H   0  0  0  0  0  0  0  0  0  0  0  0
  -26.2420  -15.5920   20.2590 N   0  0  0  0  0  0  0  0  0  0  0  0
  -25.4710  -16.2410   20.3780 H   0  0  0  0  0  0  0  0  0  0  0  0
  -27.0150  -15.9830   19.7320 H   0  0  0  0  0  0  0  0  0  0  0  0
  -29.2280  -24.6390   18.8010 C   0  0  0  0  0  2  0  0  0  0  0  0
  -29.0860  -26.1690   19.3840 O   0  0  0  0  0  0  0  0  0  0  0  0
  -24.8040  -31.2890   22.8530 C   0  0  0  0  0  0  0  0  0  0  0  0
  -27.9670  -27.1450   19.3540 C   0  0  0  0  0  0  0  0  0  0  0  0
  -23.8170  -29.9770   21.0220 C   0  0  0  0  0  3  0  0  0  0  0  0
  -25.4730  -28.7300   19.4670 C   0  0  0  0  0  0  0  0  0  0  0  0
  -26.3450  -30.4880   20.9980 C   0  0  0  0  0  2  0  0  0  0  0  0
  -26.5880  -29.1860   20.1800 C   0  0  0  0  0  0  0  0  0  0  0  0
  -27.8250  -28.4070   20.1140 C   0  0  0  0  0  3  0  0  0  0  0  0
  -26.8110  -26.8470   18.6050 C   0  0  0  0  0  3  0  0  0  0  0  0
  -25.6040  -27.5890   18.6610 C   0  0  0  0  0  3  0  0  0  0  0  0
  -24.1590  -29.4950   19.5830 C   0  0  0  0  0  2  0  0  0  0  0  0
  -25.0060  -30.6080   21.6790 N   0  0  0  0  0  0  0  0  0  0  0  0
  -23.6750  -31.3940   23.3580 O   0  0  0  0  0  0  0  0  0  0  0  0
  -23.2210  -28.7980   21.8360 C   0  0  0  0  0  0  0  0  0  0  0  0
  -21.9180  -28.5130   21.6520 N   0  0  0  0  0  0  0  0  0  0  0  0
  -23.9380  -28.1490   22.6010 O   0  0  0  0  0  0  0  0  0  0  0  0
  -21.3820  -29.1190   21.0430 H   0  0  0  0  0  0  0  0  0  0  0  0
  -18.6700  -26.9200   21.9060 C   0  0  0  0  0  0  0  0  0  0  0  0
  -21.1870  -27.3940   22.2560 C   0  0  0  0  0  3  0  0  0  0  0  0
  -21.4400  -26.0880   21.4620 C   0  0  0  0  0  2  0  0  0  0  0  0
  -20.3730  -25.8180   20.3980 C   0  0  0  0  0  2  0  0  0  0  0  0
  -18.9890  -25.7080   21.0440 C   0  0  0  0  0  2  0  0  0  0  0  0
  -19.7010  -27.7230   22.4600 C   0  0  0  0  0  0  0  0  0  0  0  0
  -19.3500  -28.8660   23.2050 C   0  0  0  0  0  3  0  0  0  0  0  0
  -17.9980  -29.2060   23.4070 C   0  0  0  0  0  3  0  0  0  0  0  0
  -16.9780  -28.3930   22.8750 C   0  0  0  0  0  3  0  0  0  0  0  0
  -17.3150  -27.2440   22.1350 C   0  0  0  0  0  3  0  0  0  0  0  0
  -25.9770  -31.9870   23.6070 C   0  0  0  0  0  3  0  0  0  0  0  0
  -26.4670  -31.1700   24.8640 C   0  0  1  0  0  0  0  0  0  0  0  0
  -25.3330  -30.7700   25.8380 C   0  0  0  0  0  1  0  0  0  0  0  0
  -27.1840  -29.8720   24.4310 C   0  0  0  0  0  1  0  0  0  0  0  0
  -27.5080  -31.9990   25.6550 C   0  0  0  0  0  1  0  0  0  0  0  0
  -25.5160  -33.3250   24.0210 N   0  0  0  0  0  0  0  0  0  0  0  0
  -25.8060  -34.4660   23.3810 C   0  0  0  0  0  0  0  0  0  0  0  0
  -26.5470  -34.5010   22.3930 O   0  0  0  0  0  0  0  0  0  0  0  0
  -24.8590  -33.3630   24.7900 H   0  0  0  0  0  0  0  0  0  0  0  0
  -23.9400  -36.1250   23.0770 C   0  0  0  0  0  1  0  0  0  0  0  0
  -25.1760  -35.7700   23.9180 C   0  0  0  0  0  3  0  0  0  0  0  0
  -27.1740  -36.7820   24.9260 C   0  0  0  0  0  1  0  0  0  0  0  0
  -26.1120  -36.9160   23.9310 N   0  0  0  0  0  0  0  0  0  0  0  0
  -25.6170  -37.7870   24.1040 H   0  0  0  0  0  0  0  0  0  0  0  0
  1  4  1  0
  1  3  1  0
  3  2  1  0
  3  9  1  0
  4 13  1  0
  5 52  1  0
  5  6  1  0
  5  2  1  0
  6  4  1  0
  6  7  1  0
  8  6  1  0
  9 10  1  0
  9 11  1  0
 12  9  1  0
 13 22  1  0
 14 20  1  0
 14 22  1  0
 15 20  1  0
 16 17  1  0
 16 15  1  0
 18 17  1  0
 18 27  1  0
 18 19  1  0
 20 19  1  0
 21 14  2  0
 22 23  1  0
 24 25  2  0
 25 44  1  0
 26 25  1  0
 26 29  1  0
 27 28  1  0
 27 24  1  0
 28 26  2  0
 29 30  1  0
 30 31  2  0
 32 35  1  0
 32 31  1  0
 33 32  2  0
 34 33  1  0
 34 29  2  0
 35 36  1  0
 36 37  1  0
 37 38  2  0
 39 38  1  0
 39 43  1  0
 40 39  2  0
 41 36  2  0
 41 40  1  0
 42 41  1  0
 44 45  1  0
 45 48  1  0
 45 47  1  0
 46 44  2  0
 49 24  1  0
 49 50  1  0
 51 49  1  0
 52 53  1  0
 54 65  2  0
 55 53  1  0
 55 60  1  0
 56 64  1  0
 56 66  1  0
 57 63  1  0
 57 59  1  0
 58 64  1  0
 59 58  1  0
 60 59  2  0
 61 62  1  0
 61 55  2  0
 62 57  2  0
 63 56  1  0
 64 54  1  0
 66 68  2  0
 67 66  1  0
 69 67  1  0
 70 79  2  0
 70 75  1  0
 71 67  1  0
 71 75  1  0
 72 71  1  0
 73 74  1  0
 73 72  1  0
 74 70  1  0
 75 76  2  0
 76 77  1  0
 78 77  2  0
 79 78  1  0
 80 54  1  0
 80 85  1  0
 80 81  1  0
 81 84  1  1
 81 82  1  0
 83 81  1  0
 85 88  1  0
 86 90  1  0
 86 85  1  0
 87 86  2  0
 90 89  1  0
 90 92  1  0
 92 93  1  0
 92 91  1  0
M  ISO  4  14 100  22 100  52 101  53 101
M  END
>  <TORSDO>  (64) 
F 19

>  <SCORE>  (64) 
-9.716

>  <name>  (64) 
64

>  <ligand_id>  (64) 
64

>  <original_smiles>  (64) 
[H]c1c([H])c([H])c2c(c1[H])C([H])([H])C([H])([H])C([H])([H])C2([H])N([H])C(=O)C1([H])N(C(=O)C([H])(N([H])C(=O)C([H])(N([H])C([H])([H])[H])C([H])([H])[H])C(C([H])([H])[H])(C([H])([H])[H])C([H])([H])[H])C([H])([H])c2c([H])c(OC([H])([H])C3([H])C([H])([H])C([H])([N+]([H])([H])[H])C([H])([H])C([H])(C([H])([H])N([H])C(=O)N4C([H])([H])C([H])([H])C([H])([H])C([H])(n5nc(-c6c([H])c([H])c(Oc7c([H])c([H])c(F)c([H])c7F)c([H])c6[H])c(C(=O)N([H])[H])c5N([H])[H])C4([H])[H])[N+]3([H])[H])c([H])c([H])c2C1([H])[H]

>  <smiles>  (64) 
[H]c1c([H])c([H])c2c(c1[H])C([H])([H])C([H])([H])C([H])([H])C2([H])N([H])C(=O)C1([H])N(C(=O)C([H])(N([H])C(=O)C([H])(N([H])C([H])([H])[H])C([H])([H])[H])C(C([H])([H])[H])(C([H])([H])[H])C([H])([H])[H])C([H])([H])c2c([H])c(OC([H])([H])C3([H])C([H])([H])C([H])([N+]([H])([H])[H])C([H])([H])C([H])(C([H])([H])N([H])C(=O)N4C([H])([H])C([H])([H])C([H])([H])C([H])(n5nc(-c6c([H])c([H])c(Oc7c([H])c([H])c(F)c([H])c7F)c([H])c6[H])c(C(=O)N([H])[H])c5N([H])[H])C4([H])[H])[N+]3([H])[H])c([H])c([H])c2C1([H])[H]

$$$$
65:0:0
     RDKit          3D

 98108  0  0  1  0  0  0  0  0999 V2000
  -32.6850  -24.5910   21.0150 C   0  0  0  0  0  2  0  0  0  0  0  0
  -31.5130  -23.8220   18.9240 C   0  0  0  0  0  2  0  0  0  0  0  0
  -32.3580  -26.0430   20.6190 C   0  0  0  0  0  2  0  0  0  0  0  0
  -31.2490  -25.2950   18.5770 C   0  0  0  0  0  2  0  0  0  0  0  0
  -32.7680  -23.6360   19.8050 C   0  0  0  0  0  3  0  0  0  0  0  0
  -31.1150  -26.1100   19.8120 N   0  0  2  0  0  4  0  0  0  0  0  0
  -30.3810  -25.6880   20.3640 H   0  0  0  0  0  0  0  0  0  0  0  0
  -32.8970  -22.1820   20.3060 C   0  0  0  0  0  2  0  0  0  0  0  0
  -33.0620  -21.1120   19.2040 C   0  0  0  0  0  2  0  0  0  0  0  0
  -31.2790  -19.4620   19.6800 C   0  0  0  0  0  0  0  0  0  0  0  0
  -32.5710  -19.8120   19.6470 N   0  0  0  0  0  0  0  0  0  0  0  0
  -30.3680  -20.2430   19.3990 O   0  0  0  0  0  0  0  0  0  0  0  0
  -33.2570  -19.1120   19.9020 H   0  0  0  0  0  0  0  0  0  0  0  0
  -30.6520  -14.4550   20.1810 C   0  0  0  0  0  0  0  0  0  0  0  0
  -30.2260  -12.3750   18.9320 C   0  0  0  0  0  2  0  0  0  0  0  0
  -29.2250  -12.6330   17.7890 C   0  0  0  0  0  2  0  0  0  0  0  0
  -27.7780  -12.4730   18.2930 C   0  0  0  0  0  2  0  0  0  0  0  0
  -27.5110  -13.2720   19.5950 C   0  0  0  0  0  3  0  0  0  0  0  0
  -28.6220  -13.0200   20.6410 C   0  0  0  0  0  2  0  0  0  0  0  0
  -29.9240  -13.3180   20.0180 N   0  0  0  0  0  0  0  0  0  0  0  0
  -31.7040  -14.6710   19.5680 O   0  0  0  0  0  0  0  0  0  0  0  0
  -31.0900  -16.1740   21.8750 C   0  0  0  0  0  2  0  0  0  0  0  0
  -29.1450  -16.2920   20.5740 C   0  0  0  0  0  2  0  0  0  0  0  0
  -31.0360  -18.0350   20.0140 C   0  0  0  0  0  3  0  0  0  0  0  0
  -30.9370  -17.6210   21.4690 C   0  0  0  0  0  3  0  0  0  0  0  0
  -29.6990  -17.6900   20.6480 C   0  0  0  0  0  3  0  0  0  0  0  0
  -30.1690  -15.3550   21.0640 N   0  0  0  0  0  0  0  0  0  0  0  0
  -25.1410  -13.8610   20.4080 C   0  0  0  0  0  0  0  0  0  0  0  0
  -24.1010  -13.0770   20.8290 C   0  0  0  0  0  0  0  0  0  0  0  0
  -24.5770  -11.7310   20.7840 C   0  0  0  0  0  0  0  0  0  0  0  0
  -26.1860  -12.9890   20.1350 N   0  0  0  0  0  0  0  0  0  0  0  0
  -25.8510  -11.7050   20.4170 N   0  0  0  0  0  0  0  0  0  0  0  0
  -23.8770  -10.4610   21.0180 C   0  0  0  0  0  0  0  0  0  0  0  0
  -24.3510   -9.5190   21.9580 C   0  0  0  0  0  3  0  0  0  0  0  0
  -23.6520   -8.3120   22.1740 C   0  0  0  0  0  3  0  0  0  0  0  0
  -22.4670   -8.0390   21.4520 C   0  0  0  0  0  0  0  0  0  0  0  0
  -22.0130   -8.9700   20.5010 C   0  0  0  0  0  3  0  0  0  0  0  0
  -22.7120  -10.1690   20.2820 C   0  0  0  0  0  3  0  0  0  0  0  0
  -21.7360   -6.8830   21.5770 O   0  0  0  0  0  0  0  0  0  0  0  0
  -21.7250   -6.1630   22.7450 C   0  0  0  0  0  0  0  0  0  0  0  0
  -21.2980   -6.7310   23.9650 C   0  0  0  0  0  3  0  0  0  0  0  0
  -21.2350   -5.9370   25.1270 C   0  0  0  0  0  3  0  0  0  0  0  0
  -21.5900   -4.5750   25.0700 C   0  0  0  0  0  0  0  0  0  0  0  0
  -22.0090   -4.0080   23.8540 C   0  0  0  0  0  3  0  0  0  0  0  0
  -22.0750   -4.7990   22.6940 C   0  0  0  0  0  0  0  0  0  0  0  0
  -22.4600   -4.2420   21.5200 F   0  0  0  0  0  0  0  0  0  0  0  0
  -21.5210   -3.8100   26.1840 F   0  0  0  0  0  0  0  0  0  0  0  0
  -22.7130  -13.5400   21.1650 C   0  0  0  0  0  0  0  0  0  0  0  0
  -22.0310  -12.8330   22.0590 N   0  0  0  0  0  0  0  0  0  0  0  0
  -22.2420  -14.5630   20.6710 O   0  0  0  0  0  0  0  0  0  0  0  0
  -22.4250  -12.0050   22.4790 H   0  0  0  0  0  0  0  0  0  0  0  0
  -21.1010  -13.1270   22.3270 H   0  0  0  0  0  0  0  0  0  0  0  0
  -25.2790  -15.2320   20.2140 N   0  0  0  0  0  0  0  0  0  0  0  0
  -24.5090  -15.8760   20.3530 H   0  0  0  0  0  0  0  0  0  0  0  0
  -26.1090  -15.6810   19.8490 H   0  0  0  0  0  0  0  0  0  0  0  0
  -30.6710  -27.5090   19.5720 C   0  0  0  0  0  2  0  0  0  0  0  0
  -29.2470  -27.5980   19.0020 C   0  0  0  0  0  2  0  0  0  0  0  0
  -28.3230  -26.9490   19.8820 O   0  0  0  0  0  0  0  0  0  0  0  0
  -24.5010  -31.9640   23.1830 C   0  0  0  0  0  0  0  0  0  0  0  0
  -27.1390  -27.6240   19.9960 C   0  0  0  0  0  0  0  0  0  0  0  0
  -23.2790  -30.5880   21.5260 C   0  0  0  0  0  3  0  0  0  0  0  0
  -24.7230  -29.0690   20.0740 C   0  0  0  0  0  0  0  0  0  0  0  0
  -25.7970  -30.9650   21.3090 C   0  0  0  0  0  2  0  0  0  0  0  0
  -25.8790  -29.6040   20.6560 C   0  0  0  0  0  0  0  0  0  0  0  0
  -27.0870  -28.8840   20.6270 C   0  0  0  0  0  3  0  0  0  0  0  0
  -25.9660  -27.0730   19.4430 C   0  0  0  0  0  3  0  0  0  0  0  0
  -24.7570  -27.7960   19.4740 C   0  0  0  0  0  3  0  0  0  0  0  0
  -23.4770  -29.9230   20.1370 C   0  0  0  0  0  2  0  0  0  0  0  0
  -24.5440  -31.1860   22.0650 N   0  0  0  0  0  0  0  0  0  0  0  0
  -23.4260  -32.2270   23.7390 O   0  0  0  0  0  0  0  0  0  0  0  0
  -22.6380  -29.5530   22.4770 C   0  0  0  0  0  0  0  0  0  0  0  0
  -21.3210  -29.3380   22.3250 N   0  0  0  0  0  0  0  0  0  0  0  0
  -23.3220  -28.9410   23.3020 O   0  0  0  0  0  0  0  0  0  0  0  0
  -20.8320  -29.8800   21.6260 H   0  0  0  0  0  0  0  0  0  0  0  0
  -17.9730  -28.0500   22.7330 C   0  0  0  0  0  0  0  0  0  0  0  0
  -20.5120  -28.3840   23.0800 C   0  0  0  0  0  3  0  0  0  0  0  0
  -20.6760  -26.9520   22.5220 C   0  0  0  0  0  2  0  0  0  0  0  0
  -19.6150  -26.5880   21.4790 C   0  0  0  0  0  2  0  0  0  0  0  0
  -18.2100  -26.7000   22.0770 C   0  0  0  0  0  2  0  0  0  0  0  0
  -19.0550  -28.8480   23.1890 C   0  0  0  0  0  0  0  0  0  0  0  0
  -18.7820  -30.1120   23.7560 C   0  0  0  0  0  3  0  0  0  0  0  0
  -17.4580  -30.5750   23.8770 C   0  0  0  0  0  3  0  0  0  0  0  0
  -16.3910  -29.7730   23.4380 C   0  0  0  0  0  3  0  0  0  0  0  0
  -16.6490  -28.5130   22.8720 C   0  0  0  0  0  3  0  0  0  0  0  0
  -25.7960  -32.5820   23.8000 C   0  0  0  0  0  3  0  0  0  0  0  0
  -25.5050  -33.9840   24.1270 N   0  0  0  0  0  0  0  0  0  0  0  0
  -25.8640  -35.0310   23.3720 C   0  0  0  0  0  0  0  0  0  0  0  0
  -26.5480  -34.9160   22.3500 O   0  0  0  0  0  0  0  0  0  0  0  0
  -24.9050  -34.1480   24.9210 H   0  0  0  0  0  0  0  0  0  0  0  0
  -24.1750  -36.8470   22.9760 C   0  0  0  0  0  1  0  0  0  0  0  0
  -25.3890  -36.4250   23.8190 C   0  0  0  0  0  3  0  0  0  0  0  0
  -27.5110  -37.2740   24.7140 C   0  0  0  0  0  1  0  0  0  0  0  0
  -26.4420  -37.4600   23.7360 N   0  0  0  0  0  0  0  0  0  0  0  0
  -26.0490  -38.3870   23.8710 H   0  0  0  0  0  0  0  0  0  0  0  0
  -26.3100  -31.8040   25.0720 C   0  0  1  0  0  0  0  0  0  0  0  0
  -25.2160  -31.5610   26.1370 C   0  0  0  0  0  1  0  0  0  0  0  0
  -26.8900  -30.4280   24.6730 C   0  0  0  0  0  1  0  0  0  0  0  0
  -27.4620  -32.5910   25.7410 C   0  0  0  0  0  1  0  0  0  0  0  0
  2  5  1  0
  3  1  1  0
  4  2  1  0
  4  6  1  0
  5  8  1  0
  5  1  1  0
  6  7  1  1
  6  3  1  0
  9 11  1  0
  9  8  1  0
 11 10  1  0
 11 13  1  0
 12 10  2  0
 14 27  1  0
 15 20  1  0
 16 17  1  0
 16 15  1  0
 18 17  1  0
 18 31  1  0
 18 19  1  0
 20 14  1  0
 20 19  1  0
 21 14  2  0
 23 27  1  0
 24 10  1  0
 24 26  1  0
 24 25  1  0
 25 22  1  0
 26 23  1  0
 26 25  1  0
 27 22  1  0
 28 29  2  0
 29 48  1  0
 30 29  1  0
 30 33  1  0
 31 28  1  0
 31 32  1  0
 32 30  2  0
 33 34  1  0
 34 35  2  0
 36 39  1  0
 36 35  1  0
 37 36  2  0
 38 37  1  0
 38 33  2  0
 39 40  1  0
 40 41  1  0
 41 42  2  0
 43 42  1  0
 43 47  1  0
 44 43  2  0
 45 40  2  0
 45 44  1  0
 46 45  1  0
 48 49  1  0
 49 52  1  0
 49 51  1  0
 50 48  2  0
 53 54  1  0
 53 28  1  0
 55 53  1  0
 56  6  1  0
 57 56  1  0
 57 58  1  0
 58 60  1  0
 59 70  2  0
 60 65  1  0
 61 69  1  0
 61 71  1  0
 62 68  1  0
 62 64  1  0
 63 69  1  0
 64 63  1  0
 65 64  2  0
 66 67  1  0
 66 60  2  0
 67 62  2  0
 68 61  1  0
 69 59  1  0
 71 73  2  0
 72 71  1  0
 74 72  1  0
 75 84  2  0
 75 80  1  0
 76 72  1  0
 76 80  1  0
 77 76  1  0
 78 79  1  0
 78 77  1  0
 79 75  1  0
 80 81  2  0
 81 82  1  0
 83 82  2  0
 84 83  1  0
 85 59  1  0
 85 86  1  0
 85 95  1  0
 86 89  1  0
 87 91  1  0
 87 86  1  0
 88 87  2  0
 91 90  1  0
 93 91  1  0
 93 94  1  0
 93 92  1  0
 95 98  1  1
 95 96  1  0
 97 95  1  0
M  ISO  4  14 100  27 100  57 101  58 101
M  END
>  <TORSDO>  (65) 
F 21

>  <SCORE>  (65) 
-12.567

>  <name>  (65) 
65

>  <ligand_id>  (65) 
65

>  <original_smiles>  (65) 
[H]c1c([H])c([H])c2c(c1[H])C([H])([H])C([H])([H])C([H])([H])C2([H])N([H])C(=O)C1([H])N(C(=O)C([H])(N([H])C(=O)C([H])(N([H])C([H])([H])[H])C([H])([H])[H])C(C([H])([H])[H])(C([H])([H])[H])C([H])([H])[H])C([H])([H])c2c([H])c(OC([H])([H])C([H])([H])[N+]3([H])C([H])([H])C([H])([H])C([H])(C([H])([H])C([H])([H])N([H])C(=O)C4([H])C5([H])C([H])([H])N(C(=O)N6C([H])([H])C([H])([H])C([H])([H])C([H])(n7nc(-c8c([H])c([H])c(Oc9c([H])c([H])c(F)c([H])c9F)c([H])c8[H])c(C(=O)N([H])[H])c7N([H])[H])C6([H])[H])C([H])([H])C45[H])C([H])([H])C3([H])[H])c([H])c([H])c2C1([H])[H]

>  <smiles>  (65) 
[H]c1c([H])c([H])c2c(c1[H])C([H])([H])C([H])([H])C([H])([H])C2([H])N([H])C(=O)C1([H])N(C(=O)C([H])(N([H])C(=O)C([H])(N([H])C([H])([H])[H])C([H])([H])[H])C(C([H])([H])[H])(C([H])([H])[H])C([H])([H])[H])C([H])([H])c2c([H])c(OC([H])([H])C([H])([H])[N+]3([H])C([H])([H])C([H])([H])C([H])(C([H])([H])C([H])([H])N([H])C(=O)C4([H])C5([H])C([H])([H])N(C(=O)N6C([H])([H])C([H])([H])C([H])([H])C([H])(n7nc(-c8c([H])c([H])c(Oc9c([H])c([H])c(F)c([H])c9F)c([H])c8[H])c(C(=O)N([H])[H])c7N([H])[H])C6([H])[H])C([H])([H])C45[H])C([H])([H])C3([H])[H])c([H])c([H])c2C1([H])[H]

$$$$
66:0:0
     RDKit          3D

 95103  0  0  1  0  0  0  0  0999 V2000
  -28.8210  -20.4800   20.4980 C   0  0  0  0  0  2  0  0  0  0  0  0
  -30.2540  -19.8740   20.5250 C   0  0  0  0  0  2  0  0  0  0  0  0
  -31.3850  -17.6320   20.7670 C   0  0  0  0  0  0  0  0  0  0  0  0
  -32.4730  -18.0440   20.0840 N   0  0  0  0  0  4  0  0  0  0  0  0
  -30.3130  -18.4480   20.9290 N   0  0  0  0  0  0  0  0  0  0  0  0
  -33.2800  -17.4430   19.9890 H   0  0  0  0  0  0  0  0  0  0  0  0
  -32.5570  -18.9490   19.6590 H   0  0  0  0  0  0  0  0  0  0  0  0
  -29.5060  -18.0830   21.4140 H   0  0  0  0  0  0  0  0  0  0  0  0
  -30.6840  -14.4520   19.8580 C   0  0  0  0  0  0  0  0  0  0  0  0
  -30.0910  -12.5140   18.4250 C   0  0  0  0  0  2  0  0  0  0  0  0
  -28.9900  -12.8010   17.3840 C   0  0  0  0  0  2  0  0  0  0  0  0
  -27.5830  -12.6480   17.9900 C   0  0  0  0  0  2  0  0  0  0  0  0
  -27.4480  -13.3370   19.3740 C   0  0  0  0  0  3  0  0  0  0  0  0
  -28.6350  -12.9790   20.2920 C   0  0  0  0  0  2  0  0  0  0  0  0
  -29.8830  -13.3650   19.6160 N   0  0  0  0  0  0  0  0  0  0  0  0
  -31.5890  -14.7640   19.0790 O   0  0  0  0  0  0  0  0  0  0  0  0
  -30.9060  -16.1340   22.7980 C   0  0  0  0  0  2  0  0  0  0  0  0
  -30.1680  -14.8770   22.3550 C   0  0  0  0  0  2  0  0  0  0  0  0
  -31.4570  -16.2520   21.3840 C   0  0  0  0  0  3  0  0  0  0  0  0
  -30.4740  -15.2350   20.9560 N   0  0  0  0  0  0  0  0  0  0  0  0
  -25.1630  -13.8970   20.4160 C   0  0  0  0  0  0  0  0  0  0  0  0
  -24.1360  -13.1000   20.8490 C   0  0  0  0  0  0  0  0  0  0  0  0
  -24.5710  -11.7550   20.6590 C   0  0  0  0  0  0  0  0  0  0  0  0
  -26.1610  -13.0310   19.9950 N   0  0  0  0  0  0  0  0  0  0  0  0
  -25.8130  -11.7330   20.1920 N   0  0  0  0  0  0  0  0  0  0  0  0
  -23.8590  -10.4840   20.8460 C   0  0  0  0  0  0  0  0  0  0  0  0
  -24.3840   -9.4520   21.6550 C   0  0  0  0  0  3  0  0  0  0  0  0
  -23.6660   -8.2500   21.8330 C   0  0  0  0  0  3  0  0  0  0  0  0
  -22.4100   -8.0700   21.2060 C   0  0  0  0  0  0  0  0  0  0  0  0
  -21.9040   -9.0950   20.3880 C   0  0  0  0  0  3  0  0  0  0  0  0
  -22.6220  -10.2890   20.2050 C   0  0  0  0  0  3  0  0  0  0  0  0
  -21.6650   -6.9180   21.2900 O   0  0  0  0  0  0  0  0  0  0  0  0
  -21.7360   -6.0980   22.3900 C   0  0  0  0  0  0  0  0  0  0  0  0
  -21.4890   -6.5770   23.6940 C   0  0  0  0  0  3  0  0  0  0  0  0
  -21.4980   -5.6840   24.7840 C   0  0  0  0  0  3  0  0  0  0  0  0
  -21.7530   -4.3160   24.5740 C   0  0  0  0  0  0  0  0  0  0  0  0
  -22.0010   -3.8380   23.2760 C   0  0  0  0  0  3  0  0  0  0  0  0
  -21.9870   -4.7270   22.1840 C   0  0  0  0  0  0  0  0  0  0  0  0
  -22.1990   -4.2560   20.9320 F   0  0  0  0  0  0  0  0  0  0  0  0
  -21.7600   -3.4580   25.6210 F   0  0  0  0  0  0  0  0  0  0  0  0
  -22.7910  -13.5640   21.3250 C   0  0  0  0  0  0  0  0  0  0  0  0
  -22.1790  -12.8210   22.2430 N   0  0  0  0  0  0  0  0  0  0  0  0
  -22.3000  -14.6190   20.9330 O   0  0  0  0  0  0  0  0  0  0  0  0
  -22.6000  -11.9740   22.5940 H   0  0  0  0  0  0  0  0  0  0  0  0
  -21.2760  -13.1080   22.5920 H   0  0  0  0  0  0  0  0  0  0  0  0
  -25.3060  -15.2760   20.3260 N   0  0  0  0  0  0  0  0  0  0  0  0
  -24.5520  -15.8960   20.6000 H   0  0  0  0  0  0  0  0  0  0  0  0
  -26.1200  -15.7690   19.9860 H   0  0  0  0  0  0  0  0  0  0  0  0
  -28.7690  -21.9990   20.8310 C   0  0  0  0  0  2  0  0  0  0  0  0
  -29.9800  -22.5830   18.6640 C   0  0  0  0  0  1  0  0  0  0  0  0
  -29.0240  -22.9750   19.7230 N   0  0  2  0  0  4  0  0  0  0  0  0
  -28.1320  -22.9760   19.2400 H   0  0  0  0  0  0  0  0  0  0  0  0
  -29.2590  -24.3830   20.1940 C   0  0  0  0  0  2  0  0  0  0  0  0
  -28.1410  -25.3100   19.6960 C   0  0  0  0  0  2  0  0  0  0  0  0
  -28.2780  -26.6900   20.0860 O   0  0  0  0  0  0  0  0  0  0  0  0
  -24.5370  -31.9180   23.1890 C   0  0  0  0  0  0  0  0  0  0  0  0
  -27.1160  -27.4420   20.0700 C   0  0  0  0  0  0  0  0  0  0  0  0
  -23.3040  -30.4940   21.5870 C   0  0  0  0  0  3  0  0  0  0  0  0
  -24.7260  -28.9670   20.1320 C   0  0  0  0  0  0  0  0  0  0  0  0
  -25.8280  -30.8490   21.3420 C   0  0  0  0  0  2  0  0  0  0  0  0
  -25.8980  -29.4790   20.7050 C   0  0  0  0  0  0  0  0  0  0  0  0
  -27.0950  -28.7240   20.6700 C   0  0  0  0  0  3  0  0  0  0  0  0
  -25.9170  -26.9660   19.4730 C   0  0  0  0  0  3  0  0  0  0  0  0
  -24.7360  -27.7140   19.5080 C   0  0  0  0  0  3  0  0  0  0  0  0
  -23.4830  -29.8220   20.2040 C   0  0  0  0  0  2  0  0  0  0  0  0
  -24.5750  -31.1060   22.0940 N   0  0  0  0  0  0  0  0  0  0  0  0
  -23.4630  -32.1930   23.7410 O   0  0  0  0  0  0  0  0  0  0  0  0
  -22.6760  -29.4760   22.5670 C   0  0  0  0  0  0  0  0  0  0  0  0
  -21.3560  -29.2630   22.4450 N   0  0  0  0  0  0  0  0  0  0  0  0
  -23.3760  -28.8790   23.3870 O   0  0  0  0  0  0  0  0  0  0  0  0
  -20.8680  -29.7480   21.7060 H   0  0  0  0  0  0  0  0  0  0  0  0
  -17.9860  -28.0640   22.9870 C   0  0  0  0  0  0  0  0  0  0  0  0
  -20.5450  -28.3410   23.2470 C   0  0  0  0  0  3  0  0  0  0  0  0
  -20.6480  -26.8960   22.7060 C   0  0  0  0  0  2  0  0  0  0  0  0
  -19.5400  -26.5460   21.7130 C   0  0  0  0  0  2  0  0  0  0  0  0
  -18.1670  -26.6950   22.3640 C   0  0  0  0  0  2  0  0  0  0  0  0
  -19.1010  -28.8440   23.3950 C   0  0  0  0  0  0  0  0  0  0  0  0
  -18.8710  -30.1180   23.9640 C   0  0  0  0  0  3  0  0  0  0  0  0
  -17.5590  -30.6030   24.1300 C   0  0  0  0  0  3  0  0  0  0  0  0
  -16.4620  -29.8170   23.7380 C   0  0  0  0  0  3  0  0  0  0  0  0
  -16.6750  -28.5480   23.1730 C   0  0  0  0  0  3  0  0  0  0  0  0
  -25.8290  -32.5560   23.7850 C   0  0  0  0  0  3  0  0  0  0  0  0
  -25.5210  -33.9480   24.1280 N   0  0  0  0  0  0  0  0  0  0  0  0
  -25.8260  -35.0060   23.3630 C   0  0  0  0  0  0  0  0  0  0  0  0
  -26.4700  -34.9070   22.3140 O   0  0  0  0  0  0  0  0  0  0  0  0
  -24.9510  -34.0970   24.9480 H   0  0  0  0  0  0  0  0  0  0  0  0
  -24.0690  -36.7780   23.0620 C   0  0  0  0  0  1  0  0  0  0  0  0
  -25.3400  -36.3890   23.8340 C   0  0  0  0  0  3  0  0  0  0  0  0
  -27.4980  -37.2890   24.5890 C   0  0  0  0  0  1  0  0  0  0  0  0
  -26.3590  -37.4500   23.6880 N   0  0  0  0  0  0  0  0  0  0  0  0
  -25.9550  -38.3680   23.8480 H   0  0  0  0  0  0  0  0  0  0  0  0
  -26.3810  -31.7780   25.0410 C   0  0  1  0  0  0  0  0  0  0  0  0
  -25.3180  -31.5230   26.1370 C   0  0  0  0  0  1  0  0  0  0  0  0
  -26.9660  -30.4100   24.6200 C   0  0  0  0  0  1  0  0  0  0  0  0
  -27.5430  -32.5780   25.6770 C   0  0  0  0  0  1  0  0  0  0  0  0
  1  2  1  0
  1 49  1  0
  2  5  1  0
  3  5  1  0
  4  3  2  0
  5  8  1  0
  6  4  1  0
  7  4  1  0
  9 20  1  0
 10 15  1  0
 11 12  1  0
 11 10  1  0
 13 12  1  0
 13 24  1  0
 13 14  1  0
 15  9  1  0
 15 14  1  0
 16  9  2  0
 18 17  1  0
 19  3  1  0
 19 17  1  0
 20 19  1  0
 20 18  1  0
 21 22  2  0
 22 41  1  0
 23 26  1  0
 23 22  1  0
 24 25  1  0
 24 21  1  0
 25 23  2  0
 26 27  1  0
 27 28  2  0
 29 32  1  0
 29 28  1  0
 30 29  2  0
 31 30  1  0
 31 26  2  0
 32 33  1  0
 33 34  1  0
 34 35  2  0
 36 35  1  0
 36 40  1  0
 37 36  2  0
 38 33  2  0
 38 37  1  0
 39 38  1  0
 41 42  1  0
 42 45  1  0
 42 44  1  0
 43 41  2  0
 46 21  1  0
 46 47  1  0
 48 46  1  0
 50 51  1  0
 51 53  1  0
 51 49  1  0
 51 52  1  6
 54 55  1  0
 54 53  1  0
 56 67  2  0
 57 55  1  0
 57 62  1  0
 58 66  1  0
 58 68  1  0
 59 65  1  0
 59 61  1  0
 60 66  1  0
 61 60  1  0
 62 61  2  0
 63 64  1  0
 63 57  2  0
 64 59  2  0
 65 58  1  0
 66 56  1  0
 68 70  2  0
 69 68  1  0
 71 69  1  0
 72 81  2  0
 72 77  1  0
 73 69  1  0
 73 77  1  0
 74 73  1  0
 75 76  1  0
 75 74  1  0
 76 72  1  0
 77 78  2  0
 78 79  1  0
 80 79  2  0
 81 80  1  0
 82 56  1  0
 82 83  1  0
 82 92  1  0
 83 86  1  0
 84 88  1  0
 84 83  1  0
 85 84  2  0
 88 87  1  0
 90 88  1  0
 90 91  1  0
 90 89  1  0
 92 95  1  1
 92 93  1  0
 94 92  1  0
M  ISO  4   9 100  20 100  54 101  55 101
M  END
>  <TORSDO>  (66) 
F 22

>  <SCORE>  (66) 
-10.440

>  <name>  (66) 
66

>  <ligand_id>  (66) 
66

>  <original_smiles>  (66) 
[H]c1c([H])c([H])c2c(c1[H])C([H])([H])C([H])([H])C([H])([H])C2([H])N([H])C(=O)C1([H])N(C(=O)C([H])(N([H])C(=O)C([H])(N([H])C([H])([H])[H])C([H])([H])[H])C(C([H])([H])[H])(C([H])([H])[H])C([H])([H])[H])C([H])([H])c2c([H])c(OC([H])([H])C([H])([H])[N+]([H])(C([H])([H])[H])C([H])([H])C([H])([H])C([H])([H])[N+]([H])=C(N([H])[H])C3([H])N(C(=O)N4C([H])([H])C([H])([H])C([H])([H])C([H])(n5nc(-c6c([H])c([H])c(Oc7c([H])c([H])c(F)c([H])c7F)c([H])c6[H])c(C(=O)N([H])[H])c5N([H])[H])C4([H])[H])C([H])([H])C3([H])[H])c([H])c([H])c2C1([H])[H]

>  <smiles>  (66) 
[H]c1c([H])c([H])c2c(c1[H])C([H])([H])C([H])([H])C([H])([H])C2([H])N([H])C(=O)C1([H])N(C(=O)C([H])(N([H])C(=O)C([H])(N([H])C([H])([H])[H])C([H])([H])[H])C(C([H])([H])[H])(C([H])([H])[H])C([H])([H])[H])C([H])([H])c2c([H])c(OC([H])([H])C([H])([H])[N+]([H])(C([H])([H])[H])C([H])([H])C([H])([H])C([H])([H])[N+]([H])=C(N([H])[H])C3([H])N(C(=O)N4C([H])([H])C([H])([H])C([H])([H])C([H])(n5nc(-c6c([H])c([H])c(Oc7c([H])c([H])c(F)c([H])c7F)c([H])c6[H])c(C(=O)N([H])[H])c5N([H])[H])C4([H])[H])C([H])([H])C3([H])[H])c([H])c([H])c2C1([H])[H]

$$$$
67:0:0
     RDKit          3D

 89 98  0  0  1  0  0  0  0  0999 V2000
  -28.9030  -21.6260   22.2680 C   0  0  0  0  0  3  0  0  0  0  0  0
  -29.2710  -20.3940   21.6490 C   0  0  0  0  0  3  0  0  0  0  0  0
  -28.7240  -22.8700   21.5950 C   0  0  0  0  0  3  0  0  0  0  0  0
  -29.2760  -21.6480   19.5910 C   0  0  0  0  0  3  0  0  0  0  0  0
  -29.5100  -20.2640   20.2620 C   0  0  0  0  0  0  0  0  0  0  0  0
  -28.8750  -23.0210   20.1990 C   0  0  0  0  0  0  0  0  0  0  0  0
  -30.6740  -15.7340   19.9760 C   0  0  0  0  0  0  0  0  0  0  0  0
  -30.6640  -13.2500   19.1650 C   0  0  0  0  0  2  0  0  0  0  0  0
  -29.7190  -12.9480   17.9750 C   0  0  0  0  0  2  0  0  0  0  0  0
  -28.3030  -12.6180   18.4780 C   0  0  0  0  0  2  0  0  0  0  0  0
  -27.8450  -13.6100   19.5720 C   0  0  0  0  0  3  0  0  0  0  0  0
  -28.9210  -13.8750   20.6500 C   0  0  0  0  0  2  0  0  0  0  0  0
  -30.1100  -14.4120   19.9600 N   0  0  0  0  0  0  0  0  0  0  0  0
  -31.9000  -15.6990   19.7800 O   0  0  0  0  0  0  0  0  0  0  0  0
  -28.6990  -17.1520   19.2110 C   0  0  0  0  0  2  0  0  0  0  0  0
  -30.0810  -18.6990   19.6610 C   0  0  0  0  0  3  0  0  0  0  0  0
  -29.3290  -18.3010   18.4040 C   0  0  0  0  0  3  0  0  0  0  0  0
  -30.1090  -17.9760   17.1320 C   0  0  0  0  0  1  0  0  0  0  0  0
  -29.9210  -17.0440   20.0110 N   0  0  0  0  0  0  0  0  0  0  0  0
  -25.5200  -14.1770   20.4310 C   0  0  0  0  0  0  0  0  0  0  0  0
  -24.4630  -13.4010   20.8160 C   0  0  0  0  0  0  0  0  0  0  0  0
  -24.9210  -12.0490   20.7380 C   0  0  0  0  0  0  0  0  0  0  0  0
  -26.5440  -13.2960   20.1320 N   0  0  0  0  0  0  0  0  0  0  0  0
  -26.2010  -12.0090   20.3840 N   0  0  0  0  0  0  0  0  0  0  0  0
  -24.1960  -10.7860   20.9170 C   0  0  0  0  0  0  0  0  0  0  0  0
  -24.6050   -9.8300   21.8720 C   0  0  0  0  0  3  0  0  0  0  0  0
  -23.8750   -8.6340   22.0390 C   0  0  0  0  0  3  0  0  0  0  0  0
  -22.7250   -8.3870   21.2550 C   0  0  0  0  0  0  0  0  0  0  0  0
  -22.3360   -9.3320   20.2870 C   0  0  0  0  0  3  0  0  0  0  0  0
  -23.0670  -10.5210   20.1170 C   0  0  0  0  0  3  0  0  0  0  0  0
  -21.9680   -7.2420   21.3340 O   0  0  0  0  0  0  0  0  0  0  0  0
  -21.8080   -6.5670   22.5150 C   0  0  0  0  0  0  0  0  0  0  0  0
  -21.2060   -7.1660   23.6450 C   0  0  0  0  0  3  0  0  0  0  0  0
  -21.0060   -6.4110   24.8190 C   0  0  0  0  0  3  0  0  0  0  0  0
  -21.3920   -5.0570   24.8600 C   0  0  0  0  0  0  0  0  0  0  0  0
  -21.9860   -4.4590   23.7350 C   0  0  0  0  0  3  0  0  0  0  0  0
  -22.1900   -5.2110   22.5650 C   0  0  0  0  0  0  0  0  0  0  0  0
  -22.7430   -4.6240   21.4760 F   0  0  0  0  0  0  0  0  0  0  0  0
  -21.1900   -4.3290   25.9830 F   0  0  0  0  0  0  0  0  0  0  0  0
  -23.0790  -13.8840   21.1360 C   0  0  0  0  0  0  0  0  0  0  0  0
  -22.3750  -13.1770   22.0130 N   0  0  0  0  0  0  0  0  0  0  0  0
  -22.6330  -14.9200   20.6450 O   0  0  0  0  0  0  0  0  0  0  0  0
  -22.7500  -12.3370   22.4280 H   0  0  0  0  0  0  0  0  0  0  0  0
  -21.4460  -13.4740   22.2710 H   0  0  0  0  0  0  0  0  0  0  0  0
  -25.6910  -15.5490   20.2790 N   0  0  0  0  0  0  0  0  0  0  0  0
  -24.9340  -16.2110   20.4200 H   0  0  0  0  0  0  0  0  0  0  0  0
  -26.5440  -15.9780   19.9500 H   0  0  0  0  0  0  0  0  0  0  0  0
  -28.4220  -24.5810   19.5140 C   0  0  0  0  0  2  0  0  0  0  0  0
  -28.4210  -26.1510   20.0630 O   0  0  0  0  0  0  0  0  0  0  0  0
  -24.6400  -31.9020   23.1870 C   0  0  0  0  0  0  0  0  0  0  0  0
  -27.3700  -27.2220   19.9850 C   0  0  0  0  0  0  0  0  0  0  0  0
  -23.4860  -30.5080   21.5180 C   0  0  0  0  0  3  0  0  0  0  0  0
  -24.9860  -29.0110   20.0250 C   0  0  0  0  0  0  0  0  0  0  0  0
  -26.0390  -30.8310   21.3510 C   0  0  0  0  0  2  0  0  0  0  0  0
  -26.1590  -29.4440   20.6510 C   0  0  0  0  0  0  0  0  0  0  0  0
  -27.3380  -28.5660   20.6150 C   0  0  0  0  0  3  0  0  0  0  0  0
  -26.1610  -26.9550   19.3040 C   0  0  0  0  0  3  0  0  0  0  0  0
  -25.0110  -27.7880   19.3350 C   0  0  0  0  0  3  0  0  0  0  0  0
  -23.7260  -29.8760   20.1170 C   0  0  0  0  0  2  0  0  0  0  0  0
  -24.7430  -31.1080   22.0720 N   0  0  0  0  0  0  0  0  0  0  0  0
  -23.5450  -32.1290   23.7270 O   0  0  0  0  0  0  0  0  0  0  0  0
  -22.8450  -29.4560   22.4620 C   0  0  0  0  0  0  0  0  0  0  0  0
  -21.5290  -29.2130   22.3240 N   0  0  0  0  0  0  0  0  0  0  0  0
  -23.5400  -28.8590   23.2870 O   0  0  0  0  0  0  0  0  0  0  0  0
  -21.0170  -29.7490   21.6370 H   0  0  0  0  0  0  0  0  0  0  0  0
  -18.2260  -27.7740   22.7720 C   0  0  0  0  0  0  0  0  0  0  0  0
  -20.7600  -28.2100   23.0710 C   0  0  0  0  0  3  0  0  0  0  0  0
  -20.9650  -26.7960   22.4780 C   0  0  0  0  0  2  0  0  0  0  0  0
  -19.8980  -26.4150   21.4460 C   0  0  0  0  0  2  0  0  0  0  0  0
  -18.5030  -26.4550   22.0730 C   0  0  0  0  0  2  0  0  0  0  0  0
  -19.2860  -28.6060   23.2260 C   0  0  0  0  0  0  0  0  0  0  0  0
  -18.9720  -29.8370   23.8410 C   0  0  0  0  0  3  0  0  0  0  0  0
  -17.6320  -30.2410   24.0060 C   0  0  0  0  0  3  0  0  0  0  0  0
  -16.5890  -29.4080   23.5660 C   0  0  0  0  0  3  0  0  0  0  0  0
  -16.8860  -28.1770   22.9560 C   0  0  0  0  0  3  0  0  0  0  0  0
  -25.8880  -32.5820   23.8270 C   0  0  0  0  0  3  0  0  0  0  0  0
  -25.5350  -33.9760   24.1520 N   0  0  0  0  0  0  0  0  0  0  0  0
  -25.8380  -35.0420   23.4000 C   0  0  0  0  0  0  0  0  0  0  0  0
  -26.5110  -34.9570   22.3700 O   0  0  0  0  0  0  0  0  0  0  0  0
  -24.9390  -34.1130   24.9560 H   0  0  0  0  0  0  0  0  0  0  0  0
  -24.0670  -36.7980   23.0560 C   0  0  0  0  0  1  0  0  0  0  0  0
  -25.3200  -36.4210   23.8620 C   0  0  0  0  0  3  0  0  0  0  0  0
  -27.4310  -37.3690   24.6920 C   0  0  0  0  0  1  0  0  0  0  0  0
  -26.3260  -37.5010   23.7440 N   0  0  0  0  0  0  0  0  0  0  0  0
  -25.8960  -38.4110   23.8820 H   0  0  0  0  0  0  0  0  0  0  0  0
  -26.3980  -31.8390   25.1230 C   0  0  1  0  0  0  0  0  0  0  0  0
  -25.2830  -31.5540   26.1590 C   0  0  0  0  0  1  0  0  0  0  0  0
  -27.0570  -30.4900   24.7630 C   0  0  0  0  0  1  0  0  0  0  0  0
  -27.4900  -32.6880   25.8160 C   0  0  0  0  0  1  0  0  0  0  0  0
  2  1  1  0
  3  1  2  0
  4  6  2  0
  4  5  1  0
  5  2  2  0
  6  3  1  0
  7 19  1  0
  8 13  1  0
  9 10  1  0
  9  8  1  0
 11 10  1  0
 11 23  1  0
 11 12  1  0
 13  7  1  0
 13 12  1  0
 14  7  2  0
 15 19  1  0
 16 19  1  0
 16  5  1  0
 17 18  1  0
 17 15  1  0
 17 16  1  0
 20 21  2  0
 21 40  1  0
 22 21  1  0
 22 25  1  0
 23 24  1  0
 23 20  1  0
 24 22  2  0
 25 26  1  0
 26 27  2  0
 28 31  1  0
 28 27  1  0
 29 28  2  0
 30 29  1  0
 30 25  2  0
 31 32  1  0
 32 37  2  0
 32 33  1  0
 33 34  2  0
 34 35  1  0
 35 39  1  0
 36 35  2  0
 37 36  1  0
 38 37  1  0
 40 41  1  0
 41 44  1  0
 41 43  1  0
 42 40  2  0
 45 46  1  0
 45 20  1  0
 47 45  1  0
 48 49  1  0
 48  6  1  0
 50 61  2  0
 51 49  1  0
 51 56  1  0
 52 60  1  0
 52 62  1  0
 53 59  1  0
 53 55  1  0
 54 60  1  0
 55 54  1  0
 56 55  2  0
 57 58  1  0
 57 51  2  0
 58 53  2  0
 59 52  1  0
 60 50  1  0
 62 64  2  0
 63 62  1  0
 65 63  1  0
 66 75  2  0
 66 71  1  0
 67 63  1  0
 67 71  1  0
 68 67  1  0
 69 70  1  0
 69 68  1  0
 70 66  1  0
 71 72  2  0
 72 73  1  0
 74 73  2  0
 75 74  1  0
 76 50  1  0
 76 77  1  0
 76 86  1  0
 77 80  1  0
 78 82  1  0
 78 77  1  0
 79 78  2  0
 82 81  1  0
 84 82  1  0
 84 85  1  0
 84 83  1  0
 86 89  1  1
 86 87  1  0
 88 86  1  0
M  ISO  4   7 100  19 100  48 101  49 101
M  END
>  <TORSDO>  (67) 
F 17

>  <SCORE>  (67) 
-15.886

>  <name>  (67) 
67

>  <ligand_id>  (67) 
67

>  <original_smiles>  (67) 
[H]c1c([H])c([H])c2c(c1[H])C([H])([H])C([H])([H])C([H])([H])C2([H])N([H])C(=O)C1([H])N(C(=O)C([H])(N([H])C(=O)C([H])(N([H])C([H])([H])[H])C([H])([H])[H])C(C([H])([H])[H])(C([H])([H])[H])C([H])([H])[H])C([H])([H])c2c([H])c(OC([H])([H])c3c([H])c([H])c([H])c(C4([H])N(C(=O)N5C([H])([H])C([H])([H])C([H])([H])C([H])(n6nc(-c7c([H])c([H])c(Oc8c([H])c([H])c(F)c([H])c8F)c([H])c7[H])c(C(=O)N([H])[H])c6N([H])[H])C5([H])[H])C([H])([H])C4([H])C([H])([H])[H])c3[H])c([H])c([H])c2C1([H])[H]

>  <smiles>  (67) 
[H]c1c([H])c([H])c2c(c1[H])C([H])([H])C([H])([H])C([H])([H])C2([H])N([H])C(=O)C1([H])N(C(=O)C([H])(N([H])C(=O)C([H])(N([H])C([H])([H])[H])C([H])([H])[H])C(C([H])([H])[H])(C([H])([H])[H])C([H])([H])[H])C([H])([H])c2c([H])c(OC([H])([H])c3c([H])c([H])c([H])c(C4([H])N(C(=O)N5C([H])([H])C([H])([H])C([H])([H])C([H])(n6nc(-c7c([H])c([H])c(Oc8c([H])c([H])c(F)c([H])c8F)c([H])c7[H])c(C(=O)N([H])[H])c6N([H])[H])C5([H])[H])C([H])([H])C4([H])C([H])([H])[H])c3[H])c([H])c([H])c2C1([H])[H]

$$$$
68:0:0
     RDKit          3D

 98104  0  0  1  0  0  0  0  0999 V2000
  -29.6920  -20.2470   18.0600 C   0  0  0  0  0  3  0  0  0  0  0  0
  -29.8830  -18.7530   17.2420 C   0  0  0  0  0  0  0  0  0  0  0  0
  -30.1520  -17.4240   17.7830 N   0  0  0  0  0  0  0  0  0  0  0  0
  -29.7830  -18.8330   16.0170 O   0  0  0  0  0  0  0  0  0  0  0  0
  -30.2520  -17.4090   18.7880 H   0  0  0  0  0  0  0  0  0  0  0  0
  -30.2590  -15.9290   17.1330 C   0  0  0  0  0  2  0  0  0  0  0  0
  -30.8350  -13.9040   21.2760 C   0  0  2  0  0  0  0  0  0  0  0  0
  -32.2730  -13.8830   20.7700 C   0  0  0  0  0  1  0  0  0  0  0  0
  -31.4510  -15.3460   19.6570 C   0  0  0  0  0 15  0  0  0  0  0  0
  -29.4940  -15.5060   19.9410 C   0  0  0  0  0  1  0  0  0  0  0  0
  -28.5530  -14.5290   21.1480 C   0  0  0  0  0  2  0  0  0  0  0  0
  -29.5190  -13.3610   22.1130 C   0  0  0  0  0  1  0  0  0  0  0  0
  -31.1820  -13.1290   21.8690 N   0  0  0  0  0  1  0  0  0  0  0  0
  -30.9790  -15.1230   21.9960 O   0  0  0  0  0  1  0  0  0  0  0  0
  -30.6720  -11.6700   17.9370 C   0  0  0  0  0  2  0  0  0  0  0  0
  -29.1900  -11.8200   18.1550 C   0  0  0  0  0  2  0  0  0  0  0  0
  -30.0950  -14.1980   17.6680 C   0  0  0  0  0  3  0  0  0  0  0  0
  -31.0310  -13.0710   18.3930 C   0  0  2  0  0  0  0  0  0  0  0  0
  -29.2390  -13.2530   18.6640 C   0  0  1  0  0  0  0  0  0  0  0  0
  -30.3290  -13.1630   19.8190 N   0  0  0  0  0  2  0  0  0  0  0  0
  -26.0700  -14.7310   20.6030 C   0  0  0  0  0  0  0  0  0  0  0  0
  -24.9990  -13.8860   20.7050 C   0  0  0  0  0  0  0  0  0  0  0  0
  -25.5350  -12.5750   20.9030 C   0  0  0  0  0  0  0  0  0  0  0  0
  -27.1960  -13.9880   20.8550 N   0  0  0  0  0  0  0  0  0  0  0  0
  -26.8660  -12.6590   21.0020 N   0  0  0  0  0  0  0  0  0  0  0  0
  -24.8380  -11.2690   21.0080 C   0  0  0  0  0  0  0  0  0  0  0  0
  -25.0810  -10.3570   22.0610 C   0  0  0  0  0  3  0  0  0  0  0  0
  -24.3590   -9.1440   22.1520 C   0  0  0  0  0  3  0  0  0  0  0  0
  -23.3730   -8.8280   21.1880 C   0  0  0  0  0  0  0  0  0  0  0  0
  -23.1430   -9.7270   20.1330 C   0  0  0  0  0  3  0  0  0  0  0  0
  -23.8650  -10.9310   20.0430 C   0  0  0  0  0  3  0  0  0  0  0  0
  -22.6440   -7.6600   21.1790 O   0  0  0  0  0  0  0  0  0  0  0  0
  -22.3070   -7.0030   22.3360 C   0  0  0  0  0  0  0  0  0  0  0  0
  -21.5350   -7.6170   23.3470 C   0  0  0  0  0  3  0  0  0  0  0  0
  -21.1620   -6.8850   24.4930 C   0  0  0  0  0  3  0  0  0  0  0  0
  -21.5420   -5.5360   24.6230 C   0  0  0  0  0  0  0  0  0  0  0  0
  -22.3010   -4.9190   23.6150 C   0  0  0  0  0  3  0  0  0  0  0  0
  -22.6820   -5.6490   22.4750 C   0  0  0  0  0  0  0  0  0  0  0  0
  -23.3960   -5.0380   21.5000 F   0  0  0  0  0  0  0  0  0  0  0  0
  -21.1790   -4.8330   25.7220 F   0  0  0  0  0  0  0  0  0  0  0  0
  -23.5550  -14.2820   20.6010 C   0  0  0  0  0  0  0  0  0  0  0  0
  -22.6810  -13.6260   21.3610 N   0  0  0  0  0  0  0  0  0  0  0  0
  -23.2080  -15.2240   19.8920 O   0  0  0  0  0  0  0  0  0  0  0  0
  -22.9830  -12.8710   21.9590 H   0  0  0  0  0  0  0  0  0  0  0  0
  -21.7000  -13.8710   21.3530 H   0  0  0  0  0  0  0  0  0  0  0  0
  -26.1960  -16.0930   20.3810 N   0  0  0  0  0  0  0  0  0  0  0  0
  -25.4060  -16.6890   20.1660 H   0  0  0  0  0  0  0  0  0  0  0  0
  -27.0840  -16.5760   20.3630 H   0  0  0  0  0  0  0  0  0  0  0  0
  -29.1770  -21.6390   17.3760 N   0  0  0  0  0  4  0  0  0  0  0  0
  -29.3900  -21.5170   16.3980 H   0  0  0  0  0  0  0  0  0  0  0  0
  -28.1690  -21.6070   17.3940 H   0  0  0  0  0  0  0  0  0  0  0  0
  -29.6240  -23.1770   17.7040 C   0  0  0  0  0  3  0  0  0  0  0  0
  -28.6010  -24.5870   17.7960 C   0  0  0  0  0  3  0  0  0  0  0  0
  -28.8190  -26.1440   18.2020 O   0  0  0  0  0  0  0  0  0  0  0  0
  -24.6510  -30.7660   22.5620 C   0  0  0  0  0  0  0  0  0  0  0  0
  -27.7110  -27.0580   18.5120 C   0  0  0  0  0  0  0  0  0  0  0  0
  -23.6170  -29.5770   20.6820 C   0  0  0  0  0  3  0  0  0  0  0  0
  -25.2120  -28.5180   18.9730 C   0  0  0  0  0  0  0  0  0  0  0  0
  -26.1330  -30.1520   20.5920 C   0  0  0  0  0  2  0  0  0  0  0  0
  -26.3640  -28.9420   19.6500 C   0  0  0  0  0  0  0  0  0  0  0  0
  -27.6150  -28.2210   19.4170 C   0  0  0  0  0  3  0  0  0  0  0  0
  -26.5010  -26.7710   17.8600 C   0  0  0  0  0  3  0  0  0  0  0  0
  -25.2950  -27.4500   18.0790 C   0  0  0  0  0  3  0  0  0  0  0  0
  -23.8940  -29.2360   19.2010 C   0  0  0  0  0  2  0  0  0  0  0  0
  -24.8200  -30.1820   21.3350 N   0  0  0  0  0  0  0  0  0  0  0  0
  -23.5410  -30.7980   23.1220 O   0  0  0  0  0  0  0  0  0  0  0  0
  -23.0920  -28.3150   21.4140 C   0  0  0  0  0  0  0  0  0  0  0  0
  -21.7750  -28.0460   21.3140 N   0  0  0  0  0  0  0  0  0  0  0  0
  -23.8690  -27.5900   22.0400 O   0  0  0  0  0  0  0  0  0  0  0  0
  -21.1970  -28.6930   20.7970 H   0  0  0  0  0  0  0  0  0  0  0  0
  -18.5670  -26.3950   21.6330 C   0  0  0  0  0  0  0  0  0  0  0  0
  -21.0930  -26.8830   21.8880 C   0  0  0  0  0  3  0  0  0  0  0  0
  -21.3180  -25.6220   21.0220 C   0  0  0  0  0  2  0  0  0  0  0  0
  -20.2090  -25.3940   19.9890 C   0  0  0  0  0  2  0  0  0  0  0  0
  -18.8530  -25.2440   20.6820 C   0  0  0  0  0  2  0  0  0  0  0  0
  -19.6170  -27.1750   22.1860 C   0  0  0  0  0  0  0  0  0  0  0  0
  -19.2920  -28.2510   23.0380 C   0  0  0  0  0  3  0  0  0  0  0  0
  -17.9500  -28.5500   23.3420 C   0  0  0  0  0  3  0  0  0  0  0  0
  -16.9150  -27.7660   22.8020 C   0  0  0  0  0  3  0  0  0  0  0  0
  -17.2250  -26.6900   21.9530 C   0  0  0  0  0  3  0  0  0  0  0  0
  -25.8350  -31.4370   23.3180 C   0  0  0  0  0  3  0  0  0  0  0  0
  -25.3720  -32.7460   23.8100 N   0  0  0  0  0  0  0  0  0  0  0  0
  -25.7560  -33.9310   23.3200 C   0  0  0  0  0  0  0  0  0  0  0  0
  -26.6010  -34.0380   22.4250 O   0  0  0  0  0  0  0  0  0  0  0  0
  -24.6360  -32.7280   24.5020 H   0  0  0  0  0  0  0  0  0  0  0  0
  -24.0230  -35.7190   22.9550 C   0  0  0  0  0  1  0  0  0  0  0  0
  -25.1060  -35.1970   23.9130 C   0  0  0  0  0  3  0  0  0  0  0  0
  -26.9870  -35.9600   25.2940 C   0  0  0  0  0  1  0  0  0  0  0  0
  -26.0740  -36.2770   24.2000 N   0  0  0  0  0  0  0  0  0  0  0  0
  -25.5920  -37.1420   24.4320 H   0  0  0  0  0  0  0  0  0  0  0  0
  -26.3760  -30.5640   24.5170 C   0  0  1  0  0  0  0  0  0  0  0  0
  -25.2750  -30.1130   25.5060 C   0  0  0  0  0  1  0  0  0  0  0  0
  -27.0880  -29.2930   23.9980 C   0  0  0  0  0  1  0  0  0  0  0  0
  -27.4330  -31.3650   25.3120 C   0  0  0  0  0  1  0  0  0  0  0  0
  -28.7770  -19.9060   19.2740 C   0  0  0  0  0  2  0  0  0  0  0  0
  -29.3580  -22.1750   20.3330 C   0  0  0  0  0  1  0  0  0  0  0  0
  -27.9390  -20.5050   21.5950 C   0  0  0  0  0  1  0  0  0  0  0  0
  -28.3120  -21.0540   20.2040 C   0  0  0  0  0  3  0  0  0  0  0  0
  1 95  1  0
  2  3  1  0
  2  1  1  0
  3  5  1  0
  4  2  2  0
  6  3  1  0
  7 13  1  0
  7 14  1  0
  7 12  1  6
  8  7  1  0
 10 11  1  0
 15 16  1  0
 17  6  1  0
 17 18  1  0
 17 19  1  0
 18 15  1  1
 18 19  1  0
 18 20  1  0
 19 16  1  1
 19 20  1  0
 21 22  2  0
 21 24  1  0
 22 23  1  0
 23 25  2  0
 23 26  1  0
 24 25  1  0
 24 11  1  0
 26 27  1  0
 27 28  2  0
 29 28  1  0
 30 29  2  0
 31 30  1  0
 31 26  2  0
 32 29  1  0
 32 33  1  0
 33 38  2  0
 33 34  1  0
 34 35  2  0
 35 36  1  0
 36 40  1  0
 37 36  2  0
 38 37  1  0
 39 38  1  0
 41 22  1  0
 41 42  1  0
 42 44  1  0
 43 41  2  0
 45 42  1  0
 46 21  1  0
 47 46  1  0
 48 46  1  0
 49 51  1  0
 49 52  1  0
 49  1  1  0
 50 49  1  0
 52 53  2  0
 53 54  1  0
 54 56  1  0
 55 66  2  0
 56 61  1  0
 57 65  1  0
 57 67  1  0
 58 64  1  0
 58 60  1  0
 59 65  1  0
 60 59  1  0
 61 60  2  0
 62 63  1  0
 62 56  2  0
 63 58  2  0
 64 57  1  0
 65 55  1  0
 67 69  2  0
 68 67  1  0
 70 68  1  0
 71 80  2  0
 71 76  1  0
 72 68  1  0
 72 76  1  0
 73 72  1  0
 74 75  1  0
 74 73  1  0
 75 71  1  0
 76 77  2  0
 77 78  1  0
 79 78  2  0
 80 79  1  0
 81 55  1  0
 81 82  1  0
 81 91  1  0
 82 85  1  0
 83 82  1  0
 83 87  1  0
 84 83  2  0
 87 86  1  0
 87 89  1  0
 89 90  1  0
 89 88  1  0
 91 94  1  1
 91 92  1  0
 93 91  1  0
 95 98  1  0
 98 96  1  0
 98 97  1  0
M  ISO  4   7 100  20 100  53 101  54 101
M  END
>  <TORSDO>  (68) 
F 23

>  <SCORE>  (68) 
-4.424

>  <name>  (68) 
68

>  <ligand_id>  (68) 
68

>  <original_smiles>  (68) 
[H]c1c([H])c([H])c2c(c1[H])C([H])([H])C([H])([H])C([H])([H])C2([H])N([H])C(=O)C1([H])N(C(=O)C([H])(N([H])C(=O)C([H])(N([H])C([H])([H])[H])C([H])([H])[H])C(C([H])([H])[H])(C([H])([H])[H])C([H])([H])[H])C([H])([H])c2c([H])c(OC([H])([H])C([H])([H])[N+]([H])([H])C([H])(C(=O)N([H])C([H])([H])C3([H])C4([H])N(C(=O)N5C([H])([H])C([H])([H])C([H])([H])C([H])(n6nc(-c7c([H])c([H])c(Oc8c([H])c([H])c(F)c([H])c8F)c([H])c7[H])c(C(=O)N([H])[H])c6N([H])[H])C5([H])[H])C3([H])C([H])([H])C4([H])[H])C([H])([H])C([H])(C([H])([H])[H])C([H])([H])[H])c([H])c([H])c2C1([H])[H]

>  <smiles>  (68) 
[H]c1c([H])c([H])c2c(c1[H])C([H])([H])C([H])([H])C([H])([H])C2([H])N([H])C(=O)C1([H])N(C(=O)C([H])(N([H])C(=O)C([H])(N([H])C([H])([H])[H])C([H])([H])[H])C(C([H])([H])[H])(C([H])([H])[H])C([H])([H])[H])C([H])([H])c2c([H])c(OC([H])([H])C([H])([H])[N+]([H])([H])C([H])(C(=O)N([H])C([H])([H])C3([H])C4([H])N(C(=O)N5C([H])([H])C([H])([H])C([H])([H])C([H])(n6nc(-c7c([H])c([H])c(Oc8c([H])c([H])c(F)c([H])c8F)c([H])c7[H])c(C(=O)N([H])[H])c6N([H])[H])C5([H])[H])C3([H])C([H])([H])C4([H])[H])C([H])([H])C([H])(C([H])([H])[H])C([H])([H])[H])c([H])c([H])c2C1([H])[H]

$$$$
69:0:0
     RDKit          3D

 92101  0  0  1  0  0  0  0  0999 V2000
  -28.1340  -22.6320   20.7820 C   0  0  0  0  0  0  0  0  0  0  0  0
  -28.8190  -21.4800   20.7940 N   0  0  0  0  0  0  0  0  0  0  0  0
  -26.9020  -22.6640   20.7690 O   0  0  0  0  0  0  0  0  0  0  0  0
  -29.8290  -21.5210   20.8080 H   0  0  0  0  0  0  0  0  0  0  0  0
  -28.9400  -23.9330   20.7360 C   0  0  0  0  0  2  0  0  0  0  0  0
  -28.4170  -25.0220   21.6960 C   0  0  0  0  0  2  0  0  0  0  0  0
  -29.0000  -26.4080   21.3810 C   0  0  0  0  0  2  0  0  0  0  0  0
  -28.4650  -26.8600   20.1420 O   0  0  0  0  0  0  0  0  0  0  0  0
  -24.5780  -31.9630   23.2770 C   0  0  0  0  0  0  0  0  0  0  0  0
  -27.2880  -27.5640   20.2200 C   0  0  0  0  0  0  0  0  0  0  0  0
  -23.3880  -30.5460   21.6320 C   0  0  0  0  0  3  0  0  0  0  0  0
  -24.8630  -29.0040   20.2320 C   0  0  0  0  0  0  0  0  0  0  0  0
  -25.9090  -30.9260   21.4470 C   0  0  0  0  0  2  0  0  0  0  0  0
  -26.0080  -29.5530   20.8240 C   0  0  0  0  0  0  0  0  0  0  0  0
  -27.2230  -28.8390   20.8190 C   0  0  0  0  0  3  0  0  0  0  0  0
  -26.1330  -27.0170   19.6290 C   0  0  0  0  0  3  0  0  0  0  0  0
  -24.9170  -27.7300   19.6370 C   0  0  0  0  0  3  0  0  0  0  0  0
  -23.6120  -29.8530   20.2600 C   0  0  0  0  0  2  0  0  0  0  0  0
  -24.6420  -31.1600   22.1780 N   0  0  0  0  0  0  0  0  0  0  0  0
  -23.4920  -32.2320   23.8120 O   0  0  0  0  0  0  0  0  0  0  0  0
  -22.7380  -29.5280   22.5950 C   0  0  0  0  0  0  0  0  0  0  0  0
  -21.4140  -29.3450   22.4650 N   0  0  0  0  0  0  0  0  0  0  0  0
  -23.4200  -28.9060   23.4140 O   0  0  0  0  0  0  0  0  0  0  0  0
  -20.9260  -29.9060   21.7800 H   0  0  0  0  0  0  0  0  0  0  0  0
  -18.0380  -28.1560   22.9560 C   0  0  0  0  0  0  0  0  0  0  0  0
  -20.5960  -28.4080   23.2340 C   0  0  0  0  0  3  0  0  0  0  0  0
  -20.6950  -26.9760   22.6580 C   0  0  0  0  0  2  0  0  0  0  0  0
  -19.5920  -26.6540   21.6420 C   0  0  0  0  0  2  0  0  0  0  0  0
  -18.2100  -26.8040   22.2840 C   0  0  0  0  0  2  0  0  0  0  0  0
  -19.1580  -28.9150   23.3890 C   0  0  0  0  0  0  0  0  0  0  0  0
  -18.9430  -30.1780   23.9800 C   0  0  0  0  0  3  0  0  0  0  0  0
  -17.6410  -30.6850   24.1420 C   0  0  0  0  0  3  0  0  0  0  0  0
  -16.5350  -29.9250   23.7260 C   0  0  0  0  0  3  0  0  0  0  0  0
  -16.7340  -28.6620   23.1400 C   0  0  0  0  0  3  0  0  0  0  0  0
  -25.8590  -32.6010   23.9020 C   0  0  0  0  0  3  0  0  0  0  0  0
  -26.3660  -31.8440   25.1900 C   0  0  1  0  0  0  0  0  0  0  0  0
  -25.2700  -31.6170   26.2560 C   0  0  0  0  0  1  0  0  0  0  0  0
  -26.9530  -30.4630   24.8160 C   0  0  0  0  0  1  0  0  0  0  0  0
  -27.5110  -32.6480   25.8520 C   0  0  0  0  0  1  0  0  0  0  0  0
  -25.5490  -34.0030   24.2090 N   0  0  0  0  0  0  0  0  0  0  0  0
  -25.8910  -35.0450   23.4390 C   0  0  0  0  0  0  0  0  0  0  0  0
  -26.5740  -34.9250   22.4160 O   0  0  0  0  0  0  0  0  0  0  0  0
  -24.9440  -34.1690   25.0000 H   0  0  0  0  0  0  0  0  0  0  0  0
  -24.1690  -36.8310   23.0310 C   0  0  0  0  0  1  0  0  0  0  0  0
  -25.3980  -36.4390   23.8680 C   0  0  0  0  0  3  0  0  0  0  0  0
  -27.5230  -37.3320   24.7140 C   0  0  0  0  0  1  0  0  0  0  0  0
  -26.4330  -37.4890   23.7550 N   0  0  0  0  0  0  0  0  0  0  0  0
  -26.0260  -38.4120   23.8860 H   0  0  0  0  0  0  0  0  0  0  0  0
  -28.2030  -20.1580   20.6940 C   0  0  0  0  0  2  0  0  0  0  0  0
  -30.8700  -14.5280   20.1880 C   0  0  0  0  0  0  0  0  0  0  0  0
  -30.5560  -12.3350   19.1330 C   0  0  0  0  0  2  0  0  0  0  0  0
  -29.5900  -12.5120   17.9430 C   0  0  0  0  0  2  0  0  0  0  0  0
  -28.1190  -12.4000   18.3990 C   0  0  0  0  0  2  0  0  0  0  0  0
  -27.8040  -13.2520   19.6600 C   0  0  0  0  0  3  0  0  0  0  0  0
  -28.8910  -13.0510   20.7420 C   0  0  0  0  0  2  0  0  0  0  0  0
  -30.1910  -13.3520   20.1270 N   0  0  0  0  0  0  0  0  0  0  0  0
  -32.0600  -14.6120   19.8600 O   0  0  0  0  0  0  0  0  0  0  0  0
  -30.4280  -18.9130   19.9790 C   0  0  0  0  0  2  0  0  0  0  0  0
  -30.3040  -16.5110   18.8660 C   0  0  0  0  0  2  0  0  0  0  0  0
  -29.4140  -16.3470   21.1200 C   0  0  0  0  0  2  0  0  0  0  0  0
  -29.6510  -17.8280   19.2140 C   0  0  0  0  0  3  0  0  0  0  0  0
  -28.8490  -17.6090   20.4740 C   0  0  0  0  0  3  0  0  0  0  0  0
  -29.2220  -19.0360   20.9260 C   0  0  0  0  0  3  0  0  0  0  0  0
  -30.0890  -15.6230   20.0280 N   0  0  0  0  0  0  0  0  0  0  0  0
  -25.4210  -13.8570   20.4220 C   0  0  0  0  0  0  0  0  0  0  0  0
  -24.3570  -13.0850   20.8060 C   0  0  0  0  0  0  0  0  0  0  0  0
  -24.8130  -11.7330   20.7550 C   0  0  0  0  0  0  0  0  0  0  0  0
  -26.4600  -12.9770   20.1680 N   0  0  0  0  0  0  0  0  0  0  0  0
  -26.1000  -11.6940   20.4260 N   0  0  0  0  0  0  0  0  0  0  0  0
  -24.0870  -10.4720   20.9470 C   0  0  0  0  0  0  0  0  0  0  0  0
  -24.5030   -9.5230   21.9060 C   0  0  0  0  0  3  0  0  0  0  0  0
  -23.7820   -8.3230   22.0830 C   0  0  0  0  0  3  0  0  0  0  0  0
  -22.6270   -8.0670   21.3060 C   0  0  0  0  0  0  0  0  0  0  0  0
  -22.2280   -9.0070   20.3420 C   0  0  0  0  0  3  0  0  0  0  0  0
  -22.9480  -10.2000   20.1600 C   0  0  0  0  0  3  0  0  0  0  0  0
  -21.8740   -6.9220   21.3950 O   0  0  0  0  0  0  0  0  0  0  0  0
  -21.7610   -6.2250   22.5720 C   0  0  0  0  0  0  0  0  0  0  0  0
  -21.2580   -6.8260   23.7470 C   0  0  0  0  0  3  0  0  0  0  0  0
  -21.0950   -6.0570   24.9170 C   0  0  0  0  0  3  0  0  0  0  0  0
  -21.4210   -4.6880   24.9100 C   0  0  0  0  0  0  0  0  0  0  0  0
  -21.9160   -4.0860   23.7390 C   0  0  0  0  0  3  0  0  0  0  0  0
  -22.0830   -4.8530   22.5730 C   0  0  0  0  0  0  0  0  0  0  0  0
  -22.5410   -4.2670   21.4410 F   0  0  0  0  0  0  0  0  0  0  0  0
  -21.2580   -3.9440   26.0290 F   0  0  0  0  0  0  0  0  0  0  0  0
  -22.9660  -13.5650   21.1080 C   0  0  0  0  0  0  0  0  0  0  0  0
  -22.2480  -12.8710   21.9850 N   0  0  0  0  0  0  0  0  0  0  0  0
  -22.5230  -14.5950   20.6030 O   0  0  0  0  0  0  0  0  0  0  0  0
  -22.6090  -12.0360   22.4240 H   0  0  0  0  0  0  0  0  0  0  0  0
  -21.3180  -13.1870   22.2240 H   0  0  0  0  0  0  0  0  0  0  0  0
  -25.5840  -15.2260   20.2430 N   0  0  0  0  0  0  0  0  0  0  0  0
  -24.8200  -15.8800   20.3640 H   0  0  0  0  0  0  0  0  0  0  0  0
  -26.4260  -15.6570   19.8860 H   0  0  0  0  0  0  0  0  0  0  0  0
  1  2  1  0
  2  4  1  0
  3  1  2  0
  5  1  1  0
  5  6  1  0
  7  6  1  0
  8 10  1  0
  8  7  1  0
  9 20  2  0
 10 15  1  0
 11 19  1  0
 11 21  1  0
 12 18  1  0
 12 14  1  0
 13 19  1  0
 14 13  1  0
 15 14  2  0
 16 17  1  0
 16 10  2  0
 17 12  2  0
 18 11  1  0
 19  9  1  0
 21 23  2  0
 22 21  1  0
 24 22  1  0
 25 34  2  0
 25 30  1  0
 26 22  1  0
 26 30  1  0
 27 26  1  0
 28 29  1  0
 28 27  1  0
 29 25  1  0
 30 31  2  0
 31 32  1  0
 33 32  2  0
 34 33  1  0
 35  9  1  0
 35 40  1  0
 35 36  1  0
 36 39  1  1
 36 37  1  0
 38 36  1  0
 40 43  1  0
 41 45  1  0
 41 40  1  0
 42 41  2  0
 45 44  1  0
 47 45  1  0
 47 48  1  0
 47 46  1  0
 49  2  1  0
 51 56  1  0
 52 53  1  0
 52 51  1  0
 54 53  1  0
 54 68  1  0
 54 55  1  0
 56 50  1  0
 56 55  1  0
 57 50  2  0
 58 63  1  0
 59 64  1  0
 61 59  1  0
 61 58  1  0
 61 62  1  0
 62 63  1  0
 62 60  1  0
 63 49  1  0
 64 50  1  0
 64 60  1  0
 65 66  2  0
 66 85  1  0
 67 66  1  0
 67 70  1  0
 68 65  1  0
 68 69  1  0
 69 67  2  0
 70 71  1  0
 71 72  2  0
 73 76  1  0
 73 72  1  0
 74 73  2  0
 75 74  1  0
 75 70  2  0
 76 77  1  0
 77 82  2  0
 77 78  1  0
 78 79  2  0
 80 79  1  0
 80 84  1  0
 81 80  2  0
 82 81  1  0
 83 82  1  0
 85 86  1  0
 86 89  1  0
 86 88  1  0
 87 85  2  0
 90 91  1  0
 90 65  1  0
 92 90  1  0
M  ISO  4   7 101   8 101  50 100  64 100
M  END
>  <TORSDO>  (69) 
F 20

>  <SCORE>  (69) 
-13.757

>  <name>  (69) 
69

>  <ligand_id>  (69) 
69

>  <original_smiles>  (69) 
[H]c1c([H])c([H])c2c(c1[H])C([H])([H])C([H])([H])C([H])([H])C2([H])N([H])C(=O)C1([H])N(C(=O)C([H])(N([H])C(=O)C([H])(N([H])C([H])([H])[H])C([H])([H])[H])C(C([H])([H])[H])(C([H])([H])[H])C([H])([H])[H])C([H])([H])c2c([H])c(OC([H])([H])C([H])([H])C([H])([H])C(=O)N([H])C([H])([H])C3([H])C([H])([H])C4([H])C([H])([H])N(C(=O)N5C([H])([H])C([H])([H])C([H])([H])C([H])(n6nc(-c7c([H])c([H])c(Oc8c([H])c([H])c(F)c([H])c8F)c([H])c7[H])c(C(=O)N([H])[H])c6N([H])[H])C5([H])[H])C([H])([H])C34[H])c([H])c([H])c2C1([H])[H]

>  <smiles>  (69) 
[H]c1c([H])c([H])c2c(c1[H])C([H])([H])C([H])([H])C([H])([H])C2([H])N([H])C(=O)C1([H])N(C(=O)C([H])(N([H])C(=O)C([H])(N([H])C([H])([H])[H])C([H])([H])[H])C(C([H])([H])[H])(C([H])([H])[H])C([H])([H])[H])C([H])([H])c2c([H])c(OC([H])([H])C([H])([H])C([H])([H])C(=O)N([H])C([H])([H])C3([H])C([H])([H])C4([H])C([H])([H])N(C(=O)N5C([H])([H])C([H])([H])C([H])([H])C([H])(n6nc(-c7c([H])c([H])c(Oc8c([H])c([H])c(F)c([H])c8F)c([H])c7[H])c(C(=O)N([H])[H])c6N([H])[H])C5([H])[H])C([H])([H])C34[H])c([H])c([H])c2C1([H])[H]

$$$$
70:0:0
     RDKit          3D

 97106  0  0  1  0  0  0  0  0999 V2000
  -28.7890  -23.6620   20.5960 C   0  0  0  0  0  3  0  0  0  0  0  0
  -28.8010  -22.1790   19.8880 C   0  0  0  0  0  2  0  0  0  0  0  0
  -30.7430  -19.4620   18.6740 C   0  0  0  0  0  2  0  0  0  0  0  0
  -30.3740  -17.9430   18.5920 C   0  0  0  0  0  2  0  0  0  0  0  0
  -30.5390  -19.9330   20.1350 C   0  0  0  0  0  3  0  0  0  0  0  0
  -30.2960  -17.4320   20.0540 C   0  0  0  0  0  3  0  0  0  0  0  0
  -29.8800  -18.7470   20.8610 C   0  0  0  0  0  3  0  0  0  0  0  0
  -29.3780  -20.8520   20.6450 C   0  0  0  0  0  3  0  0  0  0  0  0
  -28.6320  -19.5450   20.5820 N   0  0  0  0  0  4  0  0  0  0  0  0
  -27.9300  -19.4410   21.2960 H   0  0  0  0  0  0  0  0  0  0  0  0
  -28.2540  -19.3620   19.6680 H   0  0  0  0  0  0  0  0  0  0  0  0
  -30.5430  -14.8080   20.1250 C   0  0  0  0  0  0  0  0  0  0  0  0
  -30.2830  -12.5360   19.1220 C   0  0  0  0  0  2  0  0  0  0  0  0
  -29.3280  -12.6490   17.9170 C   0  0  0  0  0  2  0  0  0  0  0  0
  -27.8570  -12.5090   18.3650 C   0  0  0  0  0  2  0  0  0  0  0  0
  -27.5230  -13.3440   19.6310 C   0  0  0  0  0  3  0  0  0  0  0  0
  -28.6170  -13.2320   20.7160 C   0  0  0  0  0  2  0  0  0  0  0  0
  -29.8940  -13.5920   20.0850 N   0  0  0  0  0  0  0  0  0  0  0  0
  -31.7310  -14.8610   19.7890 O   0  0  0  0  0  0  0  0  0  0  0  0
  -29.8140  -15.9880   20.2990 N   0  0  0  0  0  0  0  0  0  0  0  0
  -28.8370  -15.8780   20.5320 H   0  0  0  0  0  0  0  0  0  0  0  0
  -25.1530  -13.9130   20.4230 C   0  0  0  0  0  0  0  0  0  0  0  0
  -24.1040  -13.1330   20.8190 C   0  0  0  0  0  0  0  0  0  0  0  0
  -24.5720  -11.7840   20.7740 C   0  0  0  0  0  0  0  0  0  0  0  0
  -26.1960  -13.0430   20.1570 N   0  0  0  0  0  0  0  0  0  0  0  0
  -25.8580  -11.7540   20.4340 N   0  0  0  0  0  0  0  0  0  0  0  0
  -23.8570  -10.5190   20.9790 C   0  0  0  0  0  0  0  0  0  0  0  0
  -24.3090   -9.5560   21.9050 C   0  0  0  0  0  3  0  0  0  0  0  0
  -23.5920   -8.3570   22.1000 C   0  0  0  0  0  3  0  0  0  0  0  0
  -22.4050   -8.1110   21.3720 C   0  0  0  0  0  0  0  0  0  0  0  0
  -21.9710   -9.0620   20.4300 C   0  0  0  0  0  3  0  0  0  0  0  0
  -22.6900  -10.2530   20.2340 C   0  0  0  0  0  3  0  0  0  0  0  0
  -21.6570   -6.9640   21.4770 O   0  0  0  0  0  0  0  0  0  0  0  0
  -21.6270   -6.2270   22.6330 C   0  0  0  0  0  0  0  0  0  0  0  0
  -21.1990   -6.7790   23.8590 C   0  0  0  0  0  3  0  0  0  0  0  0
  -21.1190   -5.9670   25.0070 C   0  0  0  0  0  3  0  0  0  0  0  0
  -21.4520   -4.6010   24.9310 C   0  0  0  0  0  0  0  0  0  0  0  0
  -21.8690   -4.0470   23.7090 C   0  0  0  0  0  3  0  0  0  0  0  0
  -21.9530   -4.8580   22.5630 C   0  0  0  0  0  0  0  0  0  0  0  0
  -22.3370   -4.3120   21.3840 F   0  0  0  0  0  0  0  0  0  0  0  0
  -21.3650   -3.8190   26.0320 F   0  0  0  0  0  0  0  0  0  0  0  0
  -22.7090  -13.6030   21.1200 C   0  0  0  0  0  0  0  0  0  0  0  0
  -22.0020  -12.9090   22.0040 N   0  0  0  0  0  0  0  0  0  0  0  0
  -22.2590  -14.6290   20.6090 O   0  0  0  0  0  0  0  0  0  0  0  0
  -22.3800  -12.0850   22.4490 H   0  0  0  0  0  0  0  0  0  0  0  0
  -21.0670  -13.2060   22.2430 H   0  0  0  0  0  0  0  0  0  0  0  0
  -25.3030  -15.2870   20.2400 N   0  0  0  0  0  0  0  0  0  0  0  0
  -24.5180  -15.9200   20.3530 H   0  0  0  0  0  0  0  0  0  0  0  0
  -26.1160  -15.7330   19.8390 H   0  0  0  0  0  0  0  0  0  0  0  0
  -30.1860  -24.0860   21.1150 C   0  0  0  0  0  2  0  0  0  0  0  0
  -30.2620  -24.2410   22.6500 C   0  0  0  0  0  2  0  0  0  0  0  0
  -29.4280  -25.3410   23.1680 N   0  0  0  0  0  4  0  0  0  0  0  0
  -29.8900  -26.2260   23.0440 H   0  0  0  0  0  0  0  0  0  0  0  0
  -29.2710  -25.2040   24.1520 H   0  0  0  0  0  0  0  0  0  0  0  0
  -28.5350  -25.3760   22.7090 H   0  0  0  0  0  0  0  0  0  0  0  0
  -28.0750  -24.9100   19.8310 C   0  0  0  0  0  2  0  0  0  0  0  0
  -28.2260  -26.3590   20.2520 O   0  0  0  0  0  0  0  0  0  0  0  0
  -24.5800  -31.8950   23.2440 C   0  0  0  0  0  0  0  0  0  0  0  0
  -27.1480  -27.2820   20.1560 C   0  0  0  0  0  0  0  0  0  0  0  0
  -23.3700  -30.5150   21.5930 C   0  0  0  0  0  3  0  0  0  0  0  0
  -24.8140  -28.9700   20.1460 C   0  0  0  0  0  0  0  0  0  0  0  0
  -25.9200  -30.7900   21.4390 C   0  0  0  0  0  2  0  0  0  0  0  0
  -25.9850  -29.4160   20.7730 C   0  0  0  0  0  0  0  0  0  0  0  0
  -27.1470  -28.5770   20.7810 C   0  0  0  0  0  3  0  0  0  0  0  0
  -25.9660  -26.9310   19.4630 C   0  0  0  0  0  3  0  0  0  0  0  0
  -24.8120  -27.7370   19.4800 C   0  0  0  0  0  3  0  0  0  0  0  0
  -23.5890  -29.8620   20.2020 C   0  0  0  0  0  2  0  0  0  0  0  0
  -24.6410  -31.0890   22.1440 N   0  0  0  0  0  0  0  0  0  0  0  0
  -23.4980  -32.1750   23.7790 O   0  0  0  0  0  0  0  0  0  0  0  0
  -22.7030  -29.4920   22.5440 C   0  0  0  0  0  0  0  0  0  0  0  0
  -21.3750  -29.3240   22.4230 N   0  0  0  0  0  0  0  0  0  0  0  0
  -23.3800  -28.8580   23.3570 O   0  0  0  0  0  0  0  0  0  0  0  0
  -20.8860  -29.8860   21.7400 H   0  0  0  0  0  0  0  0  0  0  0  0
  -17.9900  -28.1450   22.9360 C   0  0  0  0  0  0  0  0  0  0  0  0
  -20.5520  -28.3880   23.1920 C   0  0  0  0  0  3  0  0  0  0  0  0
  -20.6430  -26.9590   22.6090 C   0  0  0  0  0  2  0  0  0  0  0  0
  -19.5340  -26.6520   21.5970 C   0  0  0  0  0  2  0  0  0  0  0  0
  -18.1550  -26.8020   22.2470 C   0  0  0  0  0  2  0  0  0  0  0  0
  -19.1150  -28.8970   23.3660 C   0  0  0  0  0  0  0  0  0  0  0  0
  -18.9070  -30.1580   23.9690 C   0  0  0  0  0  3  0  0  0  0  0  0
  -17.6050  -30.6640   24.1460 C   0  0  0  0  0  3  0  0  0  0  0  0
  -16.4940  -29.9090   23.7330 C   0  0  0  0  0  3  0  0  0  0  0  0
  -16.6870  -28.6510   23.1330 C   0  0  0  0  0  3  0  0  0  0  0  0
  -25.8650  -32.5190   23.8660 C   0  0  0  0  0  3  0  0  0  0  0  0
  -25.5690  -33.9210   24.1890 N   0  0  0  0  0  0  0  0  0  0  0  0
  -25.9070  -34.9690   23.4260 C   0  0  0  0  0  0  0  0  0  0  0  0
  -26.5700  -34.8540   22.3920 O   0  0  0  0  0  0  0  0  0  0  0  0
  -24.9860  -34.0860   24.9970 H   0  0  0  0  0  0  0  0  0  0  0  0
  -24.1950  -36.7770   23.0640 C   0  0  0  0  0  1  0  0  0  0  0  0
  -25.4310  -36.3640   23.8810 C   0  0  0  0  0  3  0  0  0  0  0  0
  -27.5690  -37.2330   24.7160 C   0  0  0  0  0  1  0  0  0  0  0  0
  -26.4730  -37.4080   23.7670 N   0  0  0  0  0  0  0  0  0  0  0  0
  -26.0720  -38.3320   23.9110 H   0  0  0  0  0  0  0  0  0  0  0  0
  -26.3740  -31.7510   25.1500 C   0  0  1  0  0  0  0  0  0  0  0  0
  -25.2760  -31.5290   26.2150 C   0  0  0  0  0  1  0  0  0  0  0  0
  -26.9500  -30.3650   24.7800 C   0  0  0  0  0  1  0  0  0  0  0  0
  -27.5270  -32.5420   25.8110 C   0  0  0  0  0  1  0  0  0  0  0  0
  1 56  1  0
  1 50  1  0
  2  1  1  0
  4  3  1  0
  4  6  1  0
  5  3  1  0
  5  8  1  0
  5  7  1  0
  6 20  1  0
  6  7  1  0
  7  9  1  0
  8  2  1  0
  9  8  1  0
  9 10  1  0
 11  9  1  0
 12 20  1  0
 13 18  1  0
 14 15  1  0
 14 13  1  0
 16 15  1  0
 16 25  1  0
 16 17  1  0
 18 12  1  0
 18 17  1  0
 19 12  2  0
 20 21  1  0
 22 23  2  0
 23 42  1  0
 24 23  1  0
 24 27  1  0
 25 22  1  0
 25 26  1  0
 26 24  2  0
 27 28  1  0
 28 29  2  0
 30 33  1  0
 30 29  1  0
 31 30  2  0
 32 31  1  0
 32 27  2  0
 33 34  1  0
 34 35  1  0
 35 36  2  0
 37 36  1  0
 37 41  1  0
 38 37  2  0
 39 34  2  0
 39 38  1  0
 40 39  1  0
 42 43  1  0
 43 46  1  0
 43 45  1  0
 44 42  2  0
 47 48  1  0
 47 22  1  0
 49 47  1  0
 50 51  1  0
 51 52  1  0
 52 54  1  0
 53 52  1  0
 55 52  1  0
 56 57  1  0
 58 69  2  0
 59 57  1  0
 59 64  1  0
 60 68  1  0
 60 70  1  0
 61 67  1  0
 61 63  1  0
 62 68  1  0
 63 64  2  0
 63 62  1  0
 65 66  1  0
 65 59  2  0
 66 61  2  0
 67 60  1  0
 68 58  1  0
 70 72  2  0
 71 70  1  0
 73 71  1  0
 74 83  2  0
 74 79  1  0
 75 71  1  0
 75 79  1  0
 76 75  1  0
 77 78  1  0
 77 76  1  0
 78 74  1  0
 79 80  2  0
 80 81  1  0
 82 81  2  0
 83 82  1  0
 84 58  1  0
 84 85  1  0
 84 94  1  0
 85 88  1  0
 86 90  1  0
 86 85  1  0
 87 86  2  0
 90 89  1  0
 92 90  1  0
 92 93  1  0
 92 91  1  0
 94 97  1  1
 94 95  1  0
 96 94  1  0
M  ISO  4  12 100  20 100  56 101  57 101
M  END
>  <TORSDO>  (70) 
F 22

>  <SCORE>  (70) 
-13.438

>  <name>  (70) 
70

>  <ligand_id>  (70) 
70

>  <original_smiles>  (70) 
[H]c1c([H])c([H])c2c(c1[H])C([H])([H])C([H])([H])C([H])([H])C2([H])N([H])C(=O)C1([H])N(C(=O)C([H])(N([H])C(=O)C([H])(N([H])C([H])([H])[H])C([H])([H])[H])C(C([H])([H])[H])(C([H])([H])[H])C([H])([H])[H])C([H])([H])c2c([H])c(OC([H])([H])C([H])(C([H])([H])C([H])([H])[N+]([H])([H])[H])C([H])([H])C3([H])C4([H])C([H])([H])C([H])([H])C([H])(N([H])C(=O)N5C([H])([H])C([H])([H])C([H])([H])C([H])(n6nc(-c7c([H])c([H])c(Oc8c([H])c([H])c(F)c([H])c8F)c([H])c7[H])c(C(=O)N([H])[H])c6N([H])[H])C5([H])[H])C4([H])[N+]3([H])[H])c([H])c([H])c2C1([H])[H]

>  <smiles>  (70) 
[H]c1c([H])c([H])c2c(c1[H])C([H])([H])C([H])([H])C([H])([H])C2([H])N([H])C(=O)C1([H])N(C(=O)C([H])(N([H])C(=O)C([H])(N([H])C([H])([H])[H])C([H])([H])[H])C(C([H])([H])[H])(C([H])([H])[H])C([H])([H])[H])C([H])([H])c2c([H])c(OC([H])([H])C([H])(C([H])([H])C([H])([H])[N+]([H])([H])[H])C([H])([H])C3([H])C4([H])C([H])([H])C([H])([H])C([H])(N([H])C(=O)N5C([H])([H])C([H])([H])C([H])([H])C([H])(n6nc(-c7c([H])c([H])c(Oc8c([H])c([H])c(F)c([H])c8F)c([H])c7[H])c(C(=O)N([H])[H])c6N([H])[H])C5([H])[H])C4([H])[N+]3([H])[H])c([H])c([H])c2C1([H])[H]

$$$$
71:0:0
     RDKit          3D

 93102  0  0  1  0  0  0  0  0999 V2000
  -28.7110  -21.2140   20.2000 N   0  0  0  0  0  4  0  0  0  0  0  0
  -27.7340  -20.9700   20.1560 H   0  0  0  0  0  0  0  0  0  0  0  0
  -29.0250  -21.3230   19.2500 H   0  0  0  0  0  0  0  0  0  0  0  0
  -29.4710  -20.0260   20.7960 C   0  0  0  0  0  2  0  0  0  0  0  0
  -30.0620  -19.2460   17.8180 C   0  0  0  0  0  2  0  0  0  0  0  0
  -29.2350  -17.3870   17.8200 C   0  0  0  0  0  2  0  0  0  0  0  0
  -31.3970  -17.6210   19.3130 C   0  0  0  0  0  2  0  0  0  0  0  0
  -30.6980  -17.8570   17.9630 C   0  0  0  0  0  3  0  0  0  0  0  0
  -28.9320  -18.6350   18.6770 C   0  0  0  0  0  3  0  0  0  0  0  0
  -29.2000  -18.5440   20.2050 C   0  0  0  0  0  3  0  0  0  0  0  0
  -30.3590  -17.4270   20.4690 C   0  0  0  0  0  3  0  0  0  0  0  0
  -30.6810  -14.7970   20.5290 C   0  0  0  0  0  0  0  0  0  0  0  0
  -30.4610  -12.5510   19.4950 C   0  0  0  0  0  2  0  0  0  0  0  0
  -29.5460  -12.6480   18.2570 C   0  0  0  0  0  2  0  0  0  0  0  0
  -28.0690  -12.4730   18.6650 C   0  0  0  0  0  2  0  0  0  0  0  0
  -27.6740  -13.3550   19.8810 C   0  0  0  0  0  3  0  0  0  0  0  0
  -28.7160  -13.2690   21.0170 C   0  0  0  0  0  2  0  0  0  0  0  0
  -30.0220  -13.5990   20.4380 N   0  0  0  0  0  0  0  0  0  0  0  0
  -31.8960  -14.8350   20.3290 O   0  0  0  0  0  0  0  0  0  0  0  0
  -29.9310  -15.9570   20.5980 N   0  0  0  0  0  0  0  0  0  0  0  0
  -28.9420  -15.8050   20.7140 H   0  0  0  0  0  0  0  0  0  0  0  0
  -25.2710  -13.9250   20.5760 C   0  0  0  0  0  0  0  0  0  0  0  0
  -24.2070  -13.1400   20.9280 C   0  0  0  0  0  0  0  0  0  0  0  0
  -24.6830  -11.7940   20.9050 C   0  0  0  0  0  0  0  0  0  0  0  0
  -26.3270  -13.0560   20.3540 N   0  0  0  0  0  0  0  0  0  0  0  0
  -25.9800  -11.7690   20.6190 N   0  0  0  0  0  0  0  0  0  0  0  0
  -23.9660  -10.5250   21.0830 C   0  0  0  0  0  0  0  0  0  0  0  0
  -24.3900   -9.5610   22.0240 C   0  0  0  0  0  3  0  0  0  0  0  0
  -23.6710   -8.3570   22.1890 C   0  0  0  0  0  3  0  0  0  0  0  0
  -22.5160   -8.1080   21.4120 C   0  0  0  0  0  0  0  0  0  0  0  0
  -22.1120   -9.0590   20.4590 C   0  0  0  0  0  3  0  0  0  0  0  0
  -22.8320  -10.2550   20.2920 C   0  0  0  0  0  3  0  0  0  0  0  0
  -21.7700   -6.9560   21.4850 O   0  0  0  0  0  0  0  0  0  0  0  0
  -21.7000   -6.2160   22.6380 C   0  0  0  0  0  0  0  0  0  0  0  0
  -21.2210   -6.7660   23.8490 C   0  0  0  0  0  3  0  0  0  0  0  0
  -21.1010   -5.9520   24.9920 C   0  0  0  0  0  3  0  0  0  0  0  0
  -21.4480   -4.5890   24.9270 C   0  0  0  0  0  0  0  0  0  0  0  0
  -21.9180   -4.0380   23.7220 C   0  0  0  0  0  3  0  0  0  0  0  0
  -22.0410   -4.8500   22.5800 C   0  0  0  0  0  0  0  0  0  0  0  0
  -22.4750   -4.3100   21.4160 F   0  0  0  0  0  0  0  0  0  0  0  0
  -21.3240   -3.8050   26.0230 F   0  0  0  0  0  0  0  0  0  0  0  0
  -22.8010  -13.6050   21.1720 C   0  0  0  0  0  0  0  0  0  0  0  0
  -22.0600  -12.9000   22.0220 N   0  0  0  0  0  0  0  0  0  0  0  0
  -22.3640  -14.6260   20.6430 O   0  0  0  0  0  0  0  0  0  0  0  0
  -22.4240  -12.0740   22.4730 H   0  0  0  0  0  0  0  0  0  0  0  0
  -21.1160  -13.1940   22.2260 H   0  0  0  0  0  0  0  0  0  0  0  0
  -25.4230  -15.2970   20.3980 N   0  0  0  0  0  0  0  0  0  0  0  0
  -24.6400  -15.9360   20.4880 H   0  0  0  0  0  0  0  0  0  0  0  0
  -26.2580  -15.7450   20.0440 H   0  0  0  0  0  0  0  0  0  0  0  0
  -28.8120  -22.5750   20.8870 C   0  0  0  0  0  2  0  0  0  0  0  0
  -28.4270  -23.8970   20.0560 C   0  0  0  0  0  3  0  0  0  0  0  0
  -28.2510  -25.2660   20.8690 C   0  0  0  0  0  3  0  0  0  0  0  0
  -28.3270  -26.5890   20.2070 O   0  0  0  0  0  0  0  0  0  0  0  0
  -24.5760  -31.9640   23.2610 C   0  0  0  0  0  0  0  0  0  0  0  0
  -27.1990  -27.4160   20.2220 C   0  0  0  0  0  0  0  0  0  0  0  0
  -23.3720  -30.5550   21.6270 C   0  0  0  0  0  3  0  0  0  0  0  0
  -24.8250  -29.0000   20.2090 C   0  0  0  0  0  0  0  0  0  0  0  0
  -25.9070  -30.8900   21.4310 C   0  0  0  0  0  2  0  0  0  0  0  0
  -25.9920  -29.5070   20.7950 C   0  0  0  0  0  0  0  0  0  0  0  0
  -27.1870  -28.7280   20.7850 C   0  0  0  0  0  3  0  0  0  0  0  0
  -26.0130  -26.9490   19.6230 C   0  0  0  0  0  3  0  0  0  0  0  0
  -24.8370  -27.7260   19.6130 C   0  0  0  0  0  3  0  0  0  0  0  0
  -23.5850  -29.8700   20.2510 C   0  0  0  0  0  2  0  0  0  0  0  0
  -24.6370  -31.1550   22.1640 N   0  0  0  0  0  0  0  0  0  0  0  0
  -23.4920  -32.2380   23.7990 O   0  0  0  0  0  0  0  0  0  0  0  0
  -22.7160  -29.5420   22.5940 C   0  0  0  0  0  0  0  0  0  0  0  0
  -21.3940  -29.3450   22.4570 N   0  0  0  0  0  0  0  0  0  0  0  0
  -23.3960  -28.9340   23.4240 O   0  0  0  0  0  0  0  0  0  0  0  0
  -20.9030  -29.8880   21.7600 H   0  0  0  0  0  0  0  0  0  0  0  0
  -18.0320  -28.1000   22.9300 C   0  0  0  0  0  0  0  0  0  0  0  0
  -20.5810  -28.4050   23.2290 C   0  0  0  0  0  3  0  0  0  0  0  0
  -20.7140  -26.9670   22.6750 C   0  0  0  0  0  2  0  0  0  0  0  0
  -19.6310  -26.6130   21.6510 C   0  0  0  0  0  2  0  0  0  0  0  0
  -18.2380  -26.7450   22.2740 C   0  0  0  0  0  2  0  0  0  0  0  0
  -19.1320  -28.8860   23.3640 C   0  0  0  0  0  0  0  0  0  0  0  0
  -18.8840  -30.1530   23.9360 C   0  0  0  0  0  3  0  0  0  0  0  0
  -17.5700  -30.6340   24.0780 C   0  0  0  0  0  3  0  0  0  0  0  0
  -16.4830  -29.8460   23.6600 C   0  0  0  0  0  3  0  0  0  0  0  0
  -16.7150  -28.5810   23.0920 C   0  0  0  0  0  3  0  0  0  0  0  0
  -25.8570  -32.6030   23.8800 C   0  0  0  0  0  3  0  0  0  0  0  0
  -25.5470  -34.0050   24.1940 N   0  0  0  0  0  0  0  0  0  0  0  0
  -25.8910  -35.0510   23.4300 C   0  0  0  0  0  0  0  0  0  0  0  0
  -26.5700  -34.9370   22.4070 O   0  0  0  0  0  0  0  0  0  0  0  0
  -24.9460  -34.1680   24.9880 H   0  0  0  0  0  0  0  0  0  0  0  0
  -24.1810  -36.8530   23.0330 C   0  0  0  0  0  1  0  0  0  0  0  0
  -25.4030  -36.4450   23.8710 C   0  0  0  0  0  3  0  0  0  0  0  0
  -27.5250  -37.3230   24.7420 C   0  0  0  0  0  1  0  0  0  0  0  0
  -26.4440  -37.4920   23.7740 N   0  0  0  0  0  0  0  0  0  0  0  0
  -26.0400  -38.4150   23.9070 H   0  0  0  0  0  0  0  0  0  0  0  0
  -26.3700  -31.8460   25.1650 C   0  0  1  0  0  0  0  0  0  0  0  0
  -25.2740  -31.6170   26.2320 C   0  0  0  0  0  1  0  0  0  0  0  0
  -26.9590  -30.4670   24.7900 C   0  0  0  0  0  1  0  0  0  0  0  0
  -27.5160  -32.6500   25.8260 C   0  0  0  0  0  1  0  0  0  0  0  0
  1  4  1  0
  1 50  1  0
  2  1  1  0
  3  1  1  0
  6  8  1  0
  6  9  1  0
  7 11  1  0
  8  5  1  0
  8  7  1  0
  9  5  1  0
  9 10  1  0
 10 11  1  0
 10  4  1  0
 11 20  1  0
 12 20  1  0
 13 18  1  0
 14 15  1  0
 14 13  1  0
 16 15  1  0
 16 25  1  0
 16 17  1  0
 18 12  1  0
 18 17  1  0
 19 12  2  0
 20 21  1  0
 22 23  2  0
 23 42  1  0
 24 23  1  0
 24 27  1  0
 25 22  1  0
 25 26  1  0
 26 24  2  0
 27 28  1  0
 28 29  2  0
 30 33  1  0
 30 29  1  0
 31 30  2  0
 32 31  1  0
 32 27  2  0
 33 34  1  0
 34 35  1  0
 35 36  2  0
 37 36  1  0
 37 41  1  0
 38 37  2  0
 39 34  2  0
 39 38  1  0
 40 39  1  0
 42 43  1  0
 43 46  1  0
 43 45  1  0
 44 42  2  0
 47 48  1  0
 47 22  1  0
 49 47  1  0
 51 52  2  0
 51 50  1  0
 53 55  1  0
 53 52  1  0
 54 65  2  0
 55 60  1  0
 56 64  1  0
 56 66  1  0
 57 63  1  0
 57 59  1  0
 58 64  1  0
 59 58  1  0
 60 59  2  0
 61 55  2  0
 62 61  1  0
 62 57  2  0
 63 56  1  0
 64 54  1  0
 66 68  2  0
 67 66  1  0
 69 67  1  0
 70 79  2  0
 70 75  1  0
 71 67  1  0
 71 75  1  0
 72 71  1  0
 73 74  1  0
 73 72  1  0
 74 70  1  0
 75 76  2  0
 76 77  1  0
 78 77  2  0
 79 78  1  0
 80 54  1  0
 80 81  1  0
 80 90  1  0
 81 84  1  0
 82 86  1  0
 82 81  1  0
 83 82  2  0
 86 85  1  0
 88 86  1  0
 88 89  1  0
 88 87  1  0
 90 93  1  1
 90 91  1  0
 92 90  1  0
M  ISO  4  12 100  20 100  52 101  53 101
M  END
>  <TORSDO>  (71) 
F 21

>  <SCORE>  (71) 
-13.246

>  <name>  (71) 
71

>  <ligand_id>  (71) 
71

>  <original_smiles>  (71) 
[H]c1c([H])c([H])c2c(c1[H])C([H])([H])C([H])([H])C([H])([H])C2([H])N([H])C(=O)C1([H])N(C(=O)C([H])(N([H])C(=O)C([H])(N([H])C([H])([H])[H])C([H])([H])[H])C(C([H])([H])[H])(C([H])([H])[H])C([H])([H])[H])C([H])([H])c2c([H])c(OC([H])([H])C([H])([H])C([H])([H])[N+]([H])([H])C([H])([H])C3([H])C([H])(N([H])C(=O)N4C([H])([H])C([H])([H])C([H])([H])C([H])(n5nc(-c6c([H])c([H])c(Oc7c([H])c([H])c(F)c([H])c7F)c([H])c6[H])c(C(=O)N([H])[H])c5N([H])[H])C4([H])[H])C([H])([H])C4([H])C([H])([H])C3([H])C4([H])[H])c([H])c([H])c2C1([H])[H]

>  <smiles>  (71) 
[H]c1c([H])c([H])c2c(c1[H])C([H])([H])C([H])([H])C([H])([H])C2([H])N([H])C(=O)C1([H])N(C(=O)C([H])(N([H])C(=O)C([H])(N([H])C([H])([H])[H])C([H])([H])[H])C(C([H])([H])[H])(C([H])([H])[H])C([H])([H])[H])C([H])([H])c2c([H])c(OC([H])([H])C([H])([H])C([H])([H])[N+]([H])([H])C([H])([H])C3([H])C([H])(N([H])C(=O)N4C([H])([H])C([H])([H])C([H])([H])C([H])(n5nc(-c6c([H])c([H])c(Oc7c([H])c([H])c(F)c([H])c7F)c([H])c6[H])c(C(=O)N([H])[H])c5N([H])[H])C4([H])[H])C([H])([H])C4([H])C([H])([H])C3([H])C4([H])[H])c([H])c([H])c2C1([H])[H]

$$$$
72:0:0
     RDKit          3D

101110  0  0  1  0  0  0  0  0999 V2000
  -32.0720  -18.0840   19.4610 C   0  0  0  0  0  3  0  0  0  0  0  0
  -32.0940  -19.1830   18.5880 C   0  0  0  0  0  3  0  0  0  0  0  0
  -30.2840  -19.1310   20.7280 C   0  0  0  0  0  3  0  0  0  0  0  0
  -30.3150  -20.2620   19.8720 C   0  0  0  0  0  0  0  0  0  0  0  0
  -31.1800  -18.0430   20.5530 C   0  0  0  0  0  0  0  0  0  0  0  0
  -31.2390  -20.2820   18.7980 C   0  0  0  0  0  0  0  0  0  0  0  0
  -31.3550  -21.4780   17.8680 C   0  0  0  0  0  1  0  0  0  0  0  0
  -27.9110  -21.2030   20.2840 C   0  0  0  0  0  2  0  0  0  0  0  0
  -29.3950  -21.4290   20.1510 C   0  0  0  0  0  3  0  0  0  0  0  0
  -28.4470  -21.9970   19.1050 C   0  0  0  0  0  3  0  0  0  0  0  0
  -28.1060  -23.4580   19.0920 C   0  0  0  0  0  0  0  0  0  0  0  0
  -28.9460  -24.2350   18.3920 N   0  0  0  0  0  0  0  0  0  0  0  0
  -27.0660  -23.8910   19.5890 O   0  0  0  0  0  0  0  0  0  0  0  0
  -29.7850  -23.7960   18.0350 H   0  0  0  0  0  0  0  0  0  0  0  0
  -28.6410  -25.5670   17.8560 C   0  0  0  0  0  2  0  0  0  0  0  0
  -29.0980  -26.7560   18.7360 C   0  0  0  0  0  2  0  0  0  0  0  0
  -28.4340  -26.9040   19.9930 O   0  0  0  0  0  0  0  0  0  0  0  0
  -24.6130  -31.9700   23.2360 C   0  0  0  0  0  0  0  0  0  0  0  0
  -27.2710  -27.6400   20.0010 C   0  0  0  0  0  0  0  0  0  0  0  0
  -23.4030  -30.5910   21.5780 C   0  0  0  0  0  3  0  0  0  0  0  0
  -24.8550  -29.1060   20.1000 C   0  0  0  0  0  0  0  0  0  0  0  0
  -25.9240  -30.9820   21.3610 C   0  0  0  0  0  2  0  0  0  0  0  0
  -26.0150  -29.6300   20.6860 C   0  0  0  0  0  0  0  0  0  0  0  0
  -27.2250  -28.8980   20.6440 C   0  0  0  0  0  3  0  0  0  0  0  0
  -26.0880  -27.1210   19.4360 C   0  0  0  0  0  3  0  0  0  0  0  0
  -24.8850  -27.8490   19.4770 C   0  0  0  0  0  3  0  0  0  0  0  0
  -23.6000  -29.9460   20.1810 C   0  0  0  0  0  2  0  0  0  0  0  0
  -24.6650  -31.1950   22.1160 N   0  0  0  0  0  0  0  0  0  0  0  0
  -23.5360  -32.2190   23.7950 O   0  0  0  0  0  0  0  0  0  0  0  0
  -22.7750  -29.5410   22.5230 C   0  0  0  0  0  0  0  0  0  0  0  0
  -21.4520  -29.3410   22.4030 N   0  0  0  0  0  0  0  0  0  0  0  0
  -23.4750  -28.9070   23.3170 O   0  0  0  0  0  0  0  0  0  0  0  0
  -20.9460  -29.9040   21.7330 H   0  0  0  0  0  0  0  0  0  0  0  0
  -18.1000  -28.0910   22.9080 C   0  0  0  0  0  0  0  0  0  0  0  0
  -20.6570  -28.3760   23.1620 C   0  0  0  0  0  3  0  0  0  0  0  0
  -20.7710  -26.9590   22.5550 C   0  0  0  0  0  2  0  0  0  0  0  0
  -19.6630  -26.6440   21.5450 C   0  0  0  0  0  2  0  0  0  0  0  0
  -18.2850  -26.7590   22.2030 C   0  0  0  0  0  2  0  0  0  0  0  0
  -19.2130  -28.8580   23.3440 C   0  0  0  0  0  0  0  0  0  0  0  0
  -18.9850  -30.1070   23.9610 C   0  0  0  0  0  3  0  0  0  0  0  0
  -17.6760  -30.5910   24.1460 C   0  0  0  0  0  3  0  0  0  0  0  0
  -16.5780  -29.8210   23.7290 C   0  0  0  0  0  3  0  0  0  0  0  0
  -16.7900  -28.5730   23.1160 C   0  0  0  0  0  3  0  0  0  0  0  0
  -25.9000  -32.6000   23.8540 C   0  0  0  0  0  3  0  0  0  0  0  0
  -26.4260  -31.8270   25.1250 C   0  0  1  0  0  0  0  0  0  0  0  0
  -25.3380  -31.5840   26.1960 C   0  0  0  0  0  1  0  0  0  0  0  0
  -27.0130  -30.4510   24.7290 C   0  0  0  0  0  1  0  0  0  0  0  0
  -27.5780  -32.6230   25.7820 C   0  0  0  0  0  1  0  0  0  0  0  0
  -25.5930  -33.9990   24.1830 N   0  0  0  0  0  0  0  0  0  0  0  0
  -25.9240  -35.0500   23.4200 C   0  0  0  0  0  0  0  0  0  0  0  0
  -26.5930  -34.9460   22.3880 O   0  0  0  0  0  0  0  0  0  0  0  0
  -24.9950  -34.1570   24.9810 H   0  0  0  0  0  0  0  0  0  0  0  0
  -24.1940  -36.8420   23.0670 C   0  0  0  0  0  1  0  0  0  0  0  0
  -25.4360  -36.4380   23.8780 C   0  0  0  0  0  3  0  0  0  0  0  0
  -27.5690  -37.3240   24.7120 C   0  0  0  0  0  1  0  0  0  0  0  0
  -26.4690  -37.4910   23.7650 N   0  0  0  0  0  0  0  0  0  0  0  0
  -26.0630  -38.4110   23.9110 H   0  0  0  0  0  0  0  0  0  0  0  0
  -31.2830  -16.8690   21.5450 C   0  0  0  0  0  3  0  0  0  0  0  0
  -31.1910  -14.6370   20.3930 C   0  0  0  0  0  0  0  0  0  0  0  0
  -30.8160  -12.4630   19.2870 C   0  0  0  0  0  2  0  0  0  0  0  0
  -29.8940  -12.6170   18.0620 C   0  0  0  0  0  2  0  0  0  0  0  0
  -28.4140  -12.5310   18.4820 C   0  0  0  0  0  2  0  0  0  0  0  0
  -28.0790  -13.4490   19.6870 C   0  0  0  0  0  3  0  0  0  0  0  0
  -29.1110  -13.2680   20.8200 C   0  0  0  0  0  2  0  0  0  0  0  0
  -30.4520  -13.5040   20.2580 N   0  0  0  0  0  0  0  0  0  0  0  0
  -32.3020  -14.7700   19.8790 O   0  0  0  0  0  0  0  0  0  0  0  0
  -30.6230  -15.6280   21.1010 N   0  0  0  0  0  0  0  0  0  0  0  0
  -29.6630  -15.4830   21.3760 H   0  0  0  0  0  0  0  0  0  0  0  0
  -25.7130  -14.1590   20.4090 C   0  0  0  0  0  0  0  0  0  0  0  0
  -24.6090  -13.4320   20.7610 C   0  0  0  0  0  0  0  0  0  0  0  0
  -25.0030  -12.0600   20.7020 C   0  0  0  0  0  0  0  0  0  0  0  0
  -26.7140  -13.2330   20.1600 N   0  0  0  0  0  0  0  0  0  0  0  0
  -26.2900  -11.9640   20.3930 N   0  0  0  0  0  0  0  0  0  0  0  0
  -24.2180  -10.8310   20.8650 C   0  0  0  0  0  0  0  0  0  0  0  0
  -24.5890   -9.8330   21.7930 C   0  0  0  0  0  3  0  0  0  0  0  0
  -23.8050   -8.6690   21.9430 C   0  0  0  0  0  3  0  0  0  0  0  0
  -22.6370   -8.4940   21.1650 C   0  0  0  0  0  0  0  0  0  0  0  0
  -22.2850   -9.4800   20.2260 C   0  0  0  0  0  3  0  0  0  0  0  0
  -23.0680  -10.6350   20.0740 C   0  0  0  0  0  3  0  0  0  0  0  0
  -21.8280   -7.3840   21.2250 O   0  0  0  0  0  0  0  0  0  0  0  0
  -21.7080   -6.6440   22.3740 C   0  0  0  0  0  0  0  0  0  0  0  0
  -21.2450   -7.2090   23.5820 C   0  0  0  0  0  3  0  0  0  0  0  0
  -21.0710   -6.3960   24.7190 C   0  0  0  0  0  3  0  0  0  0  0  0
  -21.3490   -5.0180   24.6490 C   0  0  0  0  0  0  0  0  0  0  0  0
  -21.8060   -4.4510   23.4460 C   0  0  0  0  0  3  0  0  0  0  0  0
  -21.9820   -5.2610   22.3110 C   0  0  0  0  0  0  0  0  0  0  0  0
  -22.4010   -4.7070   21.1490 F   0  0  0  0  0  0  0  0  0  0  0  0
  -21.1750   -4.2350   25.7390 F   0  0  0  0  0  0  0  0  0  0  0  0
  -23.2360  -13.9710   21.0430 C   0  0  0  0  0  0  0  0  0  0  0  0
  -22.4760  -13.2940   21.8980 N   0  0  0  0  0  0  0  0  0  0  0  0
  -22.8470  -15.0250   20.5410 O   0  0  0  0  0  0  0  0  0  0  0  0
  -22.8020  -12.4390   22.3250 H   0  0  0  0  0  0  0  0  0  0  0  0
  -21.5530  -13.6370   22.1280 H   0  0  0  0  0  0  0  0  0  0  0  0
  -25.9470  -15.5230   20.2580 N   0  0  0  0  0  0  0  0  0  0  0  0
  -25.2150  -16.2150   20.3740 H   0  0  0  0  0  0  0  0  0  0  0  0
  -26.8150  -15.9200   19.9200 H   0  0  0  0  0  0  0  0  0  0  0  0
  -30.8770  -17.2280   22.9960 C   0  0  0  0  0  2  0  0  0  0  0  0
  -31.3820  -16.2570   23.9850 N   0  0  0  0  0  4  0  0  0  0  0  0
  -31.0180  -15.3370   23.8190 H   0  0  0  0  0  0  0  0  0  0  0  0
  -31.1060  -16.5400   24.9080 H   0  0  0  0  0  0  0  0  0  0  0  0
  -32.3850  -16.2180   23.9600 H   0  0  0  0  0  0  0  0  0  0  0  0
  1  5  1  0
  2  6  1  0
  2  1  2  0
  4  3  1  0
  5  3  2  0
  5 58  1  0
  6  4  2  0
  7  6  1  0
  9  4  1  0
  9  8  1  0
 10 11  1  0
 10  9  1  0
 10  8  1  0
 11 13  2  0
 12 11  1  0
 14 12  1  0
 15 12  1  0
 15 16  1  0
 16 17  1  0
 17 19  1  0
 18 29  2  0
 19 24  1  0
 20 28  1  0
 20 30  1  0
 21 27  1  0
 21 23  1  0
 22 28  1  0
 23 22  1  0
 24 23  2  0
 25 26  1  0
 25 19  2  0
 26 21  2  0
 27 20  1  0
 28 18  1  0
 30 32  2  0
 31 30  1  0
 33 31  1  0
 34 43  2  0
 34 39  1  0
 35 31  1  0
 35 39  1  0
 36 35  1  0
 37 38  1  0
 37 36  1  0
 38 34  1  0
 39 40  2  0
 40 41  1  0
 42 41  2  0
 43 42  1  0
 44 18  1  0
 44 49  1  0
 44 45  1  0
 45 48  1  1
 45 46  1  0
 47 45  1  0
 49 52  1  0
 50 54  1  0
 50 49  1  0
 51 50  2  0
 54 53  1  0
 56 54  1  0
 56 57  1  0
 56 55  1  0
 58 97  1  0
 59 67  1  0
 60 65  1  0
 61 62  1  0
 61 60  1  0
 63 62  1  0
 63 72  1  0
 63 64  1  0
 65 59  1  0
 65 64  1  0
 66 59  2  0
 67 68  1  0
 67 58  1  0
 69 70  2  0
 70 89  1  0
 71 70  1  0
 71 74  1  0
 72 73  1  0
 72 69  1  0
 73 71  2  0
 74 75  1  0
 75 76  2  0
 77 80  1  0
 77 76  1  0
 78 77  2  0
 79 78  1  0
 79 74  2  0
 80 81  1  0
 81 82  1  0
 82 83  2  0
 84 83  1  0
 84 88  1  0
 85 84  2  0
 86 81  2  0
 86 85  1  0
 87 86  1  0
 89 90  1  0
 90 93  1  0
 90 92  1  0
 91 89  2  0
 94 95  1  0
 94 69  1  0
 96 94  1  0
 97 98  1  0
 98100  1  0
 99 98  1  0
101 98  1  0
M  ISO  4  16 101  17 101  59 100  67 100
M  END
>  <TORSDO>  (72) 
F 23

>  <SCORE>  (72) 
-10.895

>  <name>  (72) 
72

>  <ligand_id>  (72) 
72

>  <original_smiles>  (72) 
[H]c1c([H])c([H])c2c(c1[H])C([H])([H])C([H])([H])C([H])([H])C2([H])N([H])C(=O)C1([H])N(C(=O)C([H])(N([H])C(=O)C([H])(N([H])C([H])([H])[H])C([H])([H])[H])C(C([H])([H])[H])(C([H])([H])[H])C([H])([H])[H])C([H])([H])c2c([H])c(OC([H])([H])C([H])([H])N([H])C(=O)C3([H])C([H])([H])C3([H])c3c([H])c(C([H])(N([H])C(=O)N4C([H])([H])C([H])([H])C([H])([H])C([H])(n5nc(-c6c([H])c([H])c(Oc7c([H])c([H])c(F)c([H])c7F)c([H])c6[H])c(C(=O)N([H])[H])c5N([H])[H])C4([H])[H])C([H])([H])[N+]([H])([H])[H])c([H])c([H])c3C([H])([H])[H])c([H])c([H])c2C1([H])[H]

>  <smiles>  (72) 
[H]c1c([H])c([H])c2c(c1[H])C([H])([H])C([H])([H])C([H])([H])C2([H])N([H])C(=O)C1([H])N(C(=O)C([H])(N([H])C(=O)C([H])(N([H])C([H])([H])[H])C([H])([H])[H])C(C([H])([H])[H])(C([H])([H])[H])C([H])([H])[H])C([H])([H])c2c([H])c(OC([H])([H])C([H])([H])N([H])C(=O)C3([H])C([H])([H])C3([H])c3c([H])c(C([H])(N([H])C(=O)N4C([H])([H])C([H])([H])C([H])([H])C([H])(n5nc(-c6c([H])c([H])c(Oc7c([H])c([H])c(F)c([H])c7F)c([H])c6[H])c(C(=O)N([H])[H])c5N([H])[H])C4([H])[H])C([H])([H])[N+]([H])([H])[H])c([H])c([H])c3C([H])([H])[H])c([H])c([H])c2C1([H])[H]

$$$$
73:0:0
     RDKit          3D

 98106  0  0  1  0  0  0  0  0999 V2000
  -29.6050  -21.2880   20.6300 C   0  0  0  0  0  3  0  0  0  0  0  0
  -32.9100  -19.3160   20.0640 C   0  0  0  0  0  3  0  0  0  0  0  0
  -32.4910  -17.9780   20.0550 C   0  0  0  0  0  3  0  0  0  0  0  0
  -30.1920  -18.7210   20.2920 C   0  0  0  0  0  3  0  0  0  0  0  0
  -31.9920  -20.3740   20.2090 C   0  0  0  0  0  0  0  0  0  0  0  0
  -30.6000  -20.1030   20.3410 C   0  0  0  0  0  0  0  0  0  0  0  0
  -31.1230  -17.6380   20.1520 C   0  0  0  0  0  0  0  0  0  0  0  0
  -32.5600  -21.7860   20.2500 C   0  0  0  0  0  1  0  0  0  0  0  0
  -31.4040  -15.1210   19.8310 C   0  0  0  0  0  0  0  0  0  0  0  0
  -31.1020  -12.8160   18.9720 C   0  0  0  0  0  2  0  0  0  0  0  0
  -30.1270  -12.8450   17.7770 C   0  0  0  0  0  2  0  0  0  0  0  0
  -28.6700  -12.7310   18.2660 C   0  0  0  0  0  2  0  0  0  0  0  0
  -28.3520  -13.7090   19.4290 C   0  0  0  0  0  3  0  0  0  0  0  0
  -29.4450  -13.6710   20.5210 C   0  0  0  0  0  2  0  0  0  0  0  0
  -30.7360  -13.9290   19.8690 N   0  0  0  0  0  0  0  0  0  0  0  0
  -32.5350  -15.1900   19.3440 O   0  0  0  0  0  0  0  0  0  0  0  0
  -30.6990  -16.2430   20.1690 N   0  0  0  0  0  0  0  0  0  0  0  0
  -29.7370  -16.0730   20.4180 H   0  0  0  0  0  0  0  0  0  0  0  0
  -26.0370  -14.3840   20.3170 C   0  0  0  0  0  0  0  0  0  0  0  0
  -24.9590  -13.6440   20.7220 C   0  0  0  0  0  0  0  0  0  0  0  0
  -25.3540  -12.2750   20.6070 C   0  0  0  0  0  0  0  0  0  0  0  0
  -27.0230  -13.4690   19.9840 N   0  0  0  0  0  0  0  0  0  0  0  0
  -26.6200  -12.1930   20.2170 N   0  0  0  0  0  0  0  0  0  0  0  0
  -24.5810  -11.0400   20.7880 C   0  0  0  0  0  0  0  0  0  0  0  0
  -24.9420  -10.0770   21.7570 C   0  0  0  0  0  3  0  0  0  0  0  0
  -24.1720   -8.9060   21.9250 C   0  0  0  0  0  3  0  0  0  0  0  0
  -23.0250   -8.6900   21.1230 C   0  0  0  0  0  0  0  0  0  0  0  0
  -22.6830   -9.6400   20.1460 C   0  0  0  0  0  3  0  0  0  0  0  0
  -23.4540  -10.8020   19.9760 C   0  0  0  0  0  3  0  0  0  0  0  0
  -22.2310   -7.5710   21.1990 O   0  0  0  0  0  0  0  0  0  0  0  0
  -22.0100   -6.9250   22.3890 C   0  0  0  0  0  0  0  0  0  0  0  0
  -21.3920   -7.5680   23.4830 C   0  0  0  0  0  3  0  0  0  0  0  0
  -21.1210   -6.8460   24.6640 C   0  0  0  0  0  3  0  0  0  0  0  0
  -21.4570   -5.4830   24.7480 C   0  0  0  0  0  0  0  0  0  0  0  0
  -22.0690   -4.8390   23.6580 C   0  0  0  0  0  3  0  0  0  0  0  0
  -22.3410   -5.5580   22.4800 C   0  0  0  0  0  0  0  0  0  0  0  0
  -22.9100   -4.9270   21.4250 F   0  0  0  0  0  0  0  0  0  0  0  0
  -21.1910   -4.7870   25.8780 F   0  0  0  0  0  0  0  0  0  0  0  0
  -23.6050  -14.1710   21.0990 C   0  0  0  0  0  0  0  0  0  0  0  0
  -22.8980  -13.4720   21.9810 N   0  0  0  0  0  0  0  0  0  0  0  0
  -23.1850  -15.2360   20.6490 O   0  0  0  0  0  0  0  0  0  0  0  0
  -23.2500  -12.6080   22.3650 H   0  0  0  0  0  0  0  0  0  0  0  0
  -21.9910  -13.8050   22.2740 H   0  0  0  0  0  0  0  0  0  0  0  0
  -26.2560  -15.7520   20.1840 N   0  0  0  0  0  0  0  0  0  0  0  0
  -25.5200  -16.4300   20.3480 H   0  0  0  0  0  0  0  0  0  0  0  0
  -27.0860  -16.1610   19.7740 H   0  0  0  0  0  0  0  0  0  0  0  0
  -28.7480  -21.0330   21.8980 C   0  0  0  0  0  2  0  0  0  0  0  0
  -29.4800  -21.2990   23.1530 N   0  0  0  0  0  4  0  0  0  0  0  0
  -30.3050  -20.7290   23.2200 H   0  0  0  0  0  0  0  0  0  0  0  0
  -28.8930  -21.0980   23.9410 H   0  0  0  0  0  0  0  0  0  0  0  0
  -29.7540  -22.2640   23.2120 H   0  0  0  0  0  0  0  0  0  0  0  0
  -28.7020  -21.7640   19.4250 C   0  0  0  0  0  2  0  0  0  0  0  0
  -28.9260  -23.1480   18.8670 N   0  0  0  0  0  4  0  0  0  0  0  0
  -29.9110  -23.3100   18.7260 H   0  0  0  0  0  0  0  0  0  0  0  0
  -28.5260  -23.1030   17.9410 H   0  0  0  0  0  0  0  0  0  0  0  0
  -28.2900  -24.3490   19.5290 C   0  0  0  0  0  2  0  0  0  0  0  0
  -28.3060  -25.6410   18.6230 C   0  0  0  0  0  2  0  0  0  0  0  0
  -28.2250  -26.9440   19.2690 O   0  0  0  0  0  0  0  0  0  0  0  0
  -24.6110  -31.7330   23.1430 C   0  0  0  0  0  0  0  0  0  0  0  0
  -27.0380  -27.6580   19.3880 C   0  0  0  0  0  0  0  0  0  0  0  0
  -23.2930  -30.5060   21.4470 C   0  0  0  0  0  3  0  0  0  0  0  0
  -24.6440  -29.1560   19.7470 C   0  0  0  0  0  0  0  0  0  0  0  0
  -25.7990  -30.9090   21.1040 C   0  0  0  0  0  2  0  0  0  0  0  0
  -25.8410  -29.6170   20.3050 C   0  0  0  0  0  0  0  0  0  0  0  0
  -27.0350  -28.8750   20.1230 C   0  0  0  0  0  3  0  0  0  0  0  0
  -25.8160  -27.2210   18.8300 C   0  0  0  0  0  3  0  0  0  0  0  0
  -24.6290  -27.9620   19.0060 C   0  0  0  0  0  3  0  0  0  0  0  0
  -23.4020  -29.9900   19.9850 C   0  0  0  0  0  2  0  0  0  0  0  0
  -24.5910  -31.0610   21.9550 N   0  0  0  0  0  0  0  0  0  0  0  0
  -23.5700  -31.9260   23.7890 O   0  0  0  0  0  0  0  0  0  0  0  0
  -22.7240  -29.3740   22.3320 C   0  0  0  0  0  0  0  0  0  0  0  0
  -21.4080  -29.1280   22.2210 N   0  0  0  0  0  0  0  0  0  0  0  0
  -23.4630  -28.7230   23.0760 O   0  0  0  0  0  0  0  0  0  0  0  0
  -20.8680  -29.7140   21.5990 H   0  0  0  0  0  0  0  0  0  0  0  0
  -18.1350  -27.6510   22.6270 C   0  0  0  0  0  0  0  0  0  0  0  0
  -20.6650  -28.0830   22.9270 C   0  0  0  0  0  3  0  0  0  0  0  0
  -20.8750  -26.7040   22.2600 C   0  0  0  0  0  2  0  0  0  0  0  0
  -19.8020  -26.3650   21.2210 C   0  0  0  0  0  2  0  0  0  0  0  0
  -18.4120  -26.3640   21.8650 C   0  0  0  0  0  2  0  0  0  0  0  0
  -19.1920  -28.4650   23.1110 C   0  0  0  0  0  0  0  0  0  0  0  0
  -18.8790  -29.6680   23.7800 C   0  0  0  0  0  3  0  0  0  0  0  0
  -17.5400  -30.0580   23.9720 C   0  0  0  0  0  3  0  0  0  0  0  0
  -16.4970  -29.2390   23.5060 C   0  0  0  0  0  3  0  0  0  0  0  0
  -16.7950  -28.0380   22.8380 C   0  0  0  0  0  3  0  0  0  0  0  0
  -25.9340  -32.3120   23.7330 C   0  0  0  0  0  3  0  0  0  0  0  0
  -25.6580  -33.6850   24.1800 N   0  0  0  0  0  0  0  0  0  0  0  0
  -25.9760  -34.7870   23.4890 C   0  0  0  0  0  0  0  0  0  0  0  0
  -26.6040  -34.7560   22.4280 O   0  0  0  0  0  0  0  0  0  0  0  0
  -25.1000  -33.7850   25.0150 H   0  0  0  0  0  0  0  0  0  0  0  0
  -24.2590  -36.6190   23.3430 C   0  0  0  0  0  1  0  0  0  0  0  0
  -25.5250  -36.1420   24.0700 C   0  0  0  0  0  3  0  0  0  0  0  0
  -27.6980  -36.9450   24.8840 C   0  0  0  0  0  1  0  0  0  0  0  0
  -26.5660  -37.1910   23.9940 N   0  0  0  0  0  0  0  0  0  0  0  0
  -26.1760  -38.1020   24.2200 H   0  0  0  0  0  0  0  0  0  0  0  0
  -26.5170  -31.4500   24.9190 C   0  0  1  0  0  0  0  0  0  0  0  0
  -25.4860  -31.1390   26.0300 C   0  0  0  0  0  1  0  0  0  0  0  0
  -27.0650  -30.1030   24.3940 C   0  0  0  0  0  1  0  0  0  0  0  0
  -27.7110  -32.1880   25.5680 C   0  0  0  0  0  1  0  0  0  0  0  0
  1 52  1  0
  1 47  1  0
  2  5  1  0
  3  2  2  0
  3  7  1  0
  4  6  1  0
  5  8  1  0
  5  6  2  0
  6  1  1  0
  7 17  1  0
  7  4  2  0
  9 15  1  0
  9 17  1  0
 10 15  1  0
 11 12  1  0
 11 10  1  0
 13 12  1  0
 13 22  1  0
 13 14  1  0
 15 14  1  0
 16  9  2  0
 17 18  1  0
 19 20  2  0
 20 39  1  0
 21 20  1  0
 21 24  1  0
 22 23  1  0
 22 19  1  0
 23 21  2  0
 24 25  1  0
 25 26  2  0
 27 30  1  0
 27 26  1  0
 28 27  2  0
 29 28  1  0
 29 24  2  0
 30 31  1  0
 31 36  2  0
 31 32  1  0
 32 33  2  0
 33 34  1  0
 34 38  1  0
 35 34  2  0
 36 35  1  0
 37 36  1  0
 39 40  1  0
 40 43  1  0
 40 42  1  0
 41 39  2  0
 44 19  1  0
 44 45  1  0
 46 44  1  0
 47 48  1  0
 48 51  1  0
 48 49  1  0
 48 50  1  0
 53 52  1  0
 53 56  1  0
 54 53  1  0
 55 53  1  0
 57 58  1  0
 57 56  1  0
 58 60  1  0
 59 70  2  0
 60 65  1  0
 61 69  1  0
 61 71  1  0
 62 68  1  0
 62 64  1  0
 63 69  1  0
 64 63  1  0
 65 64  2  0
 66 67  1  0
 66 60  2  0
 67 62  2  0
 68 61  1  0
 69 59  1  0
 71 73  2  0
 72 71  1  0
 74 72  1  0
 75 84  2  0
 75 80  1  0
 76 72  1  0
 76 80  1  0
 77 76  1  0
 78 79  1  0
 78 77  1  0
 79 75  1  0
 80 81  2  0
 81 82  1  0
 83 82  2  0
 84 83  1  0
 85 59  1  0
 85 86  1  0
 85 95  1  0
 86 89  1  0
 87 91  1  0
 87 86  1  0
 88 87  2  0
 91 90  1  0
 93 91  1  0
 93 94  1  0
 93 92  1  0
 95 98  1  1
 95 96  1  0
 97 95  1  0
M  ISO  4   9 100  17 100  57 101  58 101
M  END
>  <TORSDO>  (73) 
F 23

>  <SCORE>  (73) 
-11.337

>  <name>  (73) 
73

>  <ligand_id>  (73) 
73

>  <original_smiles>  (73) 
[H]c1c([H])c([H])c2c(c1[H])C([H])([H])C([H])([H])C([H])([H])C2([H])N([H])C(=O)C1([H])N(C(=O)C([H])(N([H])C(=O)C([H])(N([H])C([H])([H])[H])C([H])([H])[H])C(C([H])([H])[H])(C([H])([H])[H])C([H])([H])[H])C([H])([H])c2c([H])c(OC([H])([H])C([H])([H])[N+]([H])([H])C([H])([H])C([H])(c3c([H])c(N([H])C(=O)N4C([H])([H])C([H])([H])C([H])([H])C([H])(n5nc(-c6c([H])c([H])c(Oc7c([H])c([H])c(F)c([H])c7F)c([H])c6[H])c(C(=O)N([H])[H])c5N([H])[H])C4([H])[H])c([H])c([H])c3C([H])([H])[H])C([H])([H])[N+]([H])([H])[H])c([H])c([H])c2C1([H])[H]

>  <smiles>  (73) 
[H]c1c([H])c([H])c2c(c1[H])C([H])([H])C([H])([H])C([H])([H])C2([H])N([H])C(=O)C1([H])N(C(=O)C([H])(N([H])C(=O)C([H])(N([H])C([H])([H])[H])C([H])([H])[H])C(C([H])([H])[H])(C([H])([H])[H])C([H])([H])[H])C([H])([H])c2c([H])c(OC([H])([H])C([H])([H])[N+]([H])([H])C([H])([H])C([H])(c3c([H])c(N([H])C(=O)N4C([H])([H])C([H])([H])C([H])([H])C([H])(n5nc(-c6c([H])c([H])c(Oc7c([H])c([H])c(F)c([H])c7F)c([H])c6[H])c(C(=O)N([H])[H])c5N([H])[H])C4([H])[H])c([H])c([H])c3C([H])([H])[H])C([H])([H])[N+]([H])([H])[H])c([H])c([H])c2C1([H])[H]

$$$$
74:0:0
     RDKit          3D

 97 96  0  0  1  0  0  0  0  0999 V2000
  -26.5150  -15.9880   18.4520 C   0  0  0  0  0  3  0  0  0  0  0  0
  -26.4410  -14.2520   18.6870 N   0  0  0  0  0  0  0  0  0  0  0  0
  -26.0080  -14.2470   19.6010 H   0  0  0  0  0  0  0  0  0  0  0  0
  -25.7020  -13.9920   18.0530 H   0  0  0  0  0  0  0  0  0  0  0  0
  -29.1960  -11.1020   19.0550 C   0  0  0  0  0  1  0  0  0  0  0  0
  -30.6470  -14.3590   19.6070 C   0  0  0  0  0  2  0  0  0  0  0  0
  -29.1490  -12.5530   18.7500 C   0  0  0  0  0  3  0  0  0  0  0  0
  -28.9360  -12.5050   19.6190 C   0  0  0  0  0  1  0  0  0  0  0  0
  -30.1050  -14.5130   20.3910 C   0  0  0  0  0  3  0  0  0  0  0  0
  -27.4860  -12.7610   18.6750 C   0  0  0  0  0  1  0  0  0  0  0  0
  -30.8320  -15.0340   21.7560 C   0  0  0  0  0  2  0  0  0  0  0  0
  -31.9150  -13.1010   21.6910 C   0  0  0  0  0  0  0  0  0  0  0  0
  -31.4840  -12.1690   19.2570 C   0  0  0  0  0 15  0  0  0  0  0  0
  -30.8190  -13.4580   17.5760 C   0  0  0  0  0 15  0  0  0  0  0  0
  -28.9350  -14.7500   18.2830 C   0  0  0  0  0 15  0  0  0  0  0  0
  -27.9380  -14.2440   20.6830 C   0  0  0  0  0  1  0  0  0  0  0  0
  -29.2380  -12.9620   21.8700 C   0  0  0  0  0 15  0  0  0  0  0  0
  -30.8890  -12.3510   21.0850 N   0  0  0  0  0  1  0  0  0  0  0  0
  -32.9850  -13.4520   21.1730 O   0  0  0  0  0  0  0  0  0  0  0  0
  -31.5000  -14.0040   22.5370 N   0  0  0  0  0  0  0  0  0  0  0  0
  -32.2190  -14.3550   23.1510 H   0  0  0  0  0  0  0  0  0  0  0  0
  -25.5230  -14.0960   21.2420 C   0  0  0  0  0  0  0  0  0  0  0  0
  -24.5240  -13.2040   21.3680 C   0  0  0  0  0  0  0  0  0  0  0  0
  -25.0390  -11.8940   21.1840 C   0  0  0  0  0  0  0  0  0  0  0  0
  -26.6470  -13.4330   21.0250 N   0  0  0  0  0  0  0  0  0  0  0  0
  -26.3510  -12.0470   21.0380 N   0  0  0  0  0  0  0  0  0  0  0  0
  -24.3230  -10.5860   21.1490 C   0  0  0  0  0  0  0  0  0  0  0  0
  -24.6290   -9.5180   22.0240 C   0  0  0  0  0  3  0  0  0  0  0  0
  -23.8240   -8.3520   22.0600 C   0  0  0  0  0  3  0  0  0  0  0  0
  -22.6920   -8.2340   21.2160 C   0  0  0  0  0  0  0  0  0  0  0  0
  -22.4140   -9.2760   20.3140 C   0  0  0  0  0  3  0  0  0  0  0  0
  -23.2210  -10.4300   20.2770 C   0  0  0  0  0  3  0  0  0  0  0  0
  -21.8590   -7.1390   21.1690 O   0  0  0  0  0  0  0  0  0  0  0  0
  -21.5930   -6.3770   22.2800 C   0  0  0  0  0  0  0  0  0  0  0  0
  -21.0060   -6.9250   23.4410 C   0  0  0  0  0  3  0  0  0  0  0  0
  -20.6900   -6.0910   24.5330 C   0  0  0  0  0  3  0  0  0  0  0  0
  -20.9490   -4.7100   24.4640 C   0  0  0  0  0  0  0  0  0  0  0  0
  -21.5230   -4.1590   23.3050 C   0  0  0  0  0  3  0  0  0  0  0  0
  -21.8400   -4.9900   22.2150 C   0  0  0  0  0  0  0  0  0  0  0  0
  -22.3720   -4.4480   21.0930 F   0  0  0  0  0  0  0  0  0  0  0  0
  -20.6410   -3.9080   25.5110 F   0  0  0  0  0  0  0  0  0  0  0  0
  -23.1410  -13.6350   21.6110 C   0  0  0  0  0  0  0  0  0  0  0  0
  -22.4200  -12.8850   22.4220 N   0  0  0  0  0  0  0  0  0  0  0  0
  -22.7470  -14.7080   21.1610 O   0  0  0  0  0  0  0  0  0  0  0  0
  -22.7900  -12.0340   22.8240 H   0  0  0  0  0  0  0  0  0  0  0  0
  -21.4770  -13.1650   22.6430 H   0  0  0  0  0  0  0  0  0  0  0  0
  -25.5800  -15.4660   21.1930 N   0  0  0  0  0  0  0  0  0  0  0  0
  -24.7110  -15.9080   21.4850 H   0  0  0  0  0  0  0  0  0  0  0  0
  -26.3600  -15.8810   21.6890 H   0  0  0  0  0  0  0  0  0  0  0  0
  -27.0930  -17.5010   19.3480 C   0  0  0  0  0  3  0  0  0  0  0  0
  -27.3010  -19.2800   18.8940 C   0  0  0  0  0  2  0  0  0  0  0  0
  -27.4170  -20.7180   19.7930 N   0  0  0  0  0  4  0  0  0  0  0  0
  -27.9950  -20.4860   20.5850 H   0  0  0  0  0  0  0  0  0  0  0  0
  -26.4940  -20.8260   20.1810 H   0  0  0  0  0  0  0  0  0  0  0  0
  -27.9030  -22.2940   19.3710 C   0  0  0  0  0  3  0  0  0  0  0  0
  -27.6750  -23.9360   20.1750 C   0  0  0  0  0  3  0  0  0  0  0  0
  -28.2520  -25.5320   20.0860 O   0  0  0  0  0  0  0  0  0  0  0  0
  -24.8360  -31.6090   23.3190 C   0  0  0  0  0  0  0  0  0  0  0  0
  -27.4220  -26.7700   20.1550 C   0  0  0  0  0  0  0  0  0  0  0  0
  -23.7430  -30.2590   21.5960 C   0  0  0  0  0  3  0  0  0  0  0  0
  -25.2430  -28.7370   20.1650 C   0  0  0  0  0  0  0  0  0  0  0  0
  -26.3250  -30.4540   21.5880 C   0  0  0  0  0  2  0  0  0  0  0  0
  -26.4120  -29.0680   20.8600 C   0  0  0  0  0  0  0  0  0  0  0  0
  -27.5190  -28.0940   20.8430 C   0  0  0  0  0  3  0  0  0  0  0  0
  -26.2580  -26.6500   19.3990 C   0  0  0  0  0  3  0  0  0  0  0  0
  -25.1950  -27.5580   19.4220 C   0  0  0  0  0  3  0  0  0  0  0  0
  -24.0370  -29.6630   20.2020 C   0  0  0  0  0  2  0  0  0  0  0  0
  -24.9920  -30.8020   22.2190 N   0  0  0  0  0  0  0  0  0  0  0  0
  -23.7150  -31.8660   23.7900 O   0  0  0  0  0  0  0  0  0  0  0  0
  -23.0330  -29.2010   22.4820 C   0  0  0  0  0  0  0  0  0  0  0  0
  -21.7180  -28.9950   22.2770 N   0  0  0  0  0  0  0  0  0  0  0  0
  -23.6710  -28.5730   23.3310 O   0  0  0  0  0  0  0  0  0  0  0  0
  -21.2560  -29.5580   21.5770 H   0  0  0  0  0  0  0  0  0  0  0  0
  -18.3560  -27.6560   22.5490 C   0  0  0  0  0  0  0  0  0  0  0  0
  -20.8830  -28.0130   22.9770 C   0  0  0  0  0  3  0  0  0  0  0  0
  -21.0740  -26.5950   22.3880 C   0  0  0  0  0  2  0  0  0  0  0  0
  -20.0500  -26.2500   21.3020 C   0  0  0  0  0  2  0  0  0  0  0  0
  -18.6270  -26.3290   21.8590 C   0  0  0  0  0  2  0  0  0  0  0  0
  -19.4160  -28.4530   23.0590 C   0  0  0  0  0  0  0  0  0  0  0  0
  -19.1070  -29.6910   23.6640 C   0  0  0  0  0  3  0  0  0  0  0  0
  -17.7750  -30.1350   23.7590 C   0  0  0  0  0  3  0  0  0  0  0  0
  -16.7300  -29.3350   23.2610 C   0  0  0  0  0  3  0  0  0  0  0  0
  -17.0220  -28.0970   22.6630 C   0  0  0  0  0  3  0  0  0  0  0  0
  -26.0560  -32.2630   24.0290 C   0  0  0  0  0  3  0  0  0  0  0  0
  -25.6790  -33.6410   24.3970 N   0  0  0  0  0  0  0  0  0  0  0  0
  -26.0310  -34.7420   23.7200 C   0  0  0  0  0  0  0  0  0  0  0  0
  -26.7690  -34.7060   22.7310 O   0  0  0  0  0  0  0  0  0  0  0  0
  -25.0260  -33.7400   25.1600 H   0  0  0  0  0  0  0  0  0  0  0  0
  -24.2890  -36.5250   23.3430 C   0  0  0  0  0  1  0  0  0  0  0  0
  -25.4810  -36.0970   24.2130 C   0  0  0  0  0  3  0  0  0  0  0  0
  -27.5310  -36.9860   25.2350 C   0  0  0  0  0  1  0  0  0  0  0  0
  -26.4930  -37.1770   24.2260 N   0  0  0  0  0  0  0  0  0  0  0  0
  -26.0560  -38.0790   24.3870 H   0  0  0  0  0  0  0  0  0  0  0  0
  -26.5170  -31.4720   25.3150 C   0  0  1  0  0  0  0  0  0  0  0  0
  -25.3730  -31.1830   26.3170 C   0  0  0  0  0  1  0  0  0  0  0  0
  -27.1530  -30.1150   24.9330 C   0  0  0  0  0  1  0  0  0  0  0  0
  -27.6110  -32.2750   26.0560 C   0  0  0  0  0  1  0  0  0  0  0  0
  1  2  1  0
  1 50  2  0
  2  3  1  0
  4  2  1  0
  6  9  2  0
  7  5  1  0
  7  8  1  0
  9 11  1  0
 10  7  1  0
 11 20  1  0
 12 20  1  0
 16 25  1  0
 18 12  1  0
 19 12  2  0
 20 21  1  0
 22 23  2  0
 23 42  1  0
 24 23  1  0
 25 26  1  0
 25 22  1  0
 26 24  2  0
 27 24  1  0
 27 28  1  0
 28 29  2  0
 30 29  1  0
 31 30  2  0
 32 31  1  0
 32 27  2  0
 33 30  1  0
 33 34  1  0
 34 35  1  0
 35 36  2  0
 37 36  1  0
 37 41  1  0
 38 37  2  0
 39 34  2  0
 39 38  1  0
 40 39  1  0
 42 43  1  0
 43 46  1  0
 43 45  1  0
 44 42  2  0
 47 22  1  0
 47 48  1  0
 47 49  1  0
 51 50  1  0
 51 52  1  0
 52 54  1  0
 52 53  1  0
 55 52  1  0
 55 56  2  0
 57 59  1  0
 57 56  1  0
 58 69  2  0
 59 64  1  0
 60 68  1  0
 60 70  1  0
 61 67  1  0
 61 63  1  0
 62 68  1  0
 63 62  1  0
 64 63  2  0
 65 66  1  0
 65 59  2  0
 66 61  2  0
 67 60  1  0
 68 58  1  0
 70 72  2  0
 71 70  1  0
 73 71  1  0
 74 83  2  0
 74 79  1  0
 75 71  1  0
 75 79  1  0
 76 75  1  0
 77 78  1  0
 77 76  1  0
 78 74  1  0
 79 80  2  0
 80 81  1  0
 82 81  2  0
 83 82  1  0
 84 58  1  0
 84 85  1  0
 84 94  1  0
 85 88  1  0
 86 90  1  0
 86 85  1  0
 87 86  2  0
 90 89  1  0
 90 92  1  0
 92 93  1  0
 92 91  1  0
 94 97  1  1
 94 95  1  0
 96 94  1  0
M  ISO  4  12 100  20 100  56 101  57 101
M  END
>  <TORSDO>  (74) 
F 24

>  <SCORE>  (74) 
-9.122

>  <name>  (74) 
74

>  <ligand_id>  (74) 
74

>  <original_smiles>  (74) 
[H]c1c([H])c([H])c2c(c1[H])C([H])([H])C([H])([H])C([H])([H])C2([H])N([H])C(=O)C1([H])N(C(=O)C([H])(N([H])C(=O)C([H])(N([H])C([H])([H])[H])C([H])([H])[H])C(C([H])([H])[H])(C([H])([H])[H])C([H])([H])[H])C([H])([H])c2c([H])c(OC([H])([H])C([H])([H])[N+]([H])([H])C([H])([H])C([H])([H])C([H])([H])[N+]([H])([H])C3([H])C4([H])C([H])([H])C([H])(C([H])([H])N([H])C(=O)N5C([H])([H])C([H])([H])C([H])([H])C([H])(n6nc(-c7c([H])c([H])c(Oc8c([H])c([H])c(F)c([H])c8F)c([H])c7[H])c(C(=O)N([H])[H])c6N([H])[H])C5([H])[H])C3([H])C4([H])[H])c([H])c([H])c2C1([H])[H]

>  <smiles>  (74) 
[H]c1c([H])c([H])c2c(c1[H])C([H])([H])C([H])([H])C([H])([H])C2([H])N([H])C(=O)C1([H])N(C(=O)C([H])(N([H])C(=O)C([H])(N([H])C([H])([H])[H])C([H])([H])[H])C(C([H])([H])[H])(C([H])([H])[H])C([H])([H])[H])C([H])([H])c2c([H])c(OC([H])([H])C([H])([H])[N+]([H])([H])C([H])([H])C([H])([H])C([H])([H])[N+]([H])([H])C3([H])C4([H])C([H])([H])C([H])(C([H])([H])N([H])C(=O)N5C([H])([H])C([H])([H])C([H])([H])C([H])(n6nc(-c7c([H])c([H])c(Oc8c([H])c([H])c(F)c([H])c8F)c([H])c7[H])c(C(=O)N([H])[H])c6N([H])[H])C5([H])[H])C3([H])C4([H])[H])c([H])c([H])c2C1([H])[H]

$$$$
75:0:0
     RDKit          3D

 93102  0  0  1  0  0  0  0  0999 V2000
  -28.2780  -21.0580   19.9590 C   0  0  0  0  0  2  0  0  0  0  0  0
  -30.7450  -18.1850   18.6120 C   0  0  0  0  0  2  0  0  0  0  0  0
  -30.1810  -22.2350   20.0610 C   0  0  0  0  0  2  0  0  0  0  0  0
  -31.6450  -20.2790   19.6280 C   0  0  0  0  0  2  0  0  0  0  0  0
  -28.7120  -22.6510   20.3940 C   0  0  0  0  0  3  0  0  0  0  0  0
  -29.3340  -19.7840   20.3950 C   0  0  0  0  0  3  0  0  0  0  0  0
  -29.6470  -18.1250   19.7090 C   0  0  0  0  0  3  0  0  0  0  0  0
  -31.2360  -19.6070   18.3000 C   0  0  0  0  0  3  0  0  0  0  0  0
  -30.4710  -20.7660   20.3540 N   0  0  0  0  0  0  0  0  0  0  0  0
  -30.3950  -15.2890   20.1990 C   0  0  0  0  0  0  0  0  0  0  0  0
  -30.3610  -12.8320   19.3850 C   0  0  0  0  0  2  0  0  0  0  0  0
  -29.4470  -12.6700   18.1460 C   0  0  0  0  0  2  0  0  0  0  0  0
  -27.9910  -12.4090   18.5770 C   0  0  0  0  0  2  0  0  0  0  0  0
  -27.5490  -13.3560   19.7250 C   0  0  0  0  0  3  0  0  0  0  0  0
  -28.6020  -13.4850   20.8460 C   0  0  0  0  0  2  0  0  0  0  0  0
  -29.8390  -13.9770   20.2150 N   0  0  0  0  0  0  0  0  0  0  0  0
  -31.5990  -15.2860   19.9060 O   0  0  0  0  0  0  0  0  0  0  0  0
  -29.6280  -16.5580   20.3070 N   0  0  0  0  0  0  0  0  0  0  0  0
  -28.7080  -16.3490   20.6710 H   0  0  0  0  0  0  0  0  0  0  0  0
  -25.1840  -13.9090   20.4910 C   0  0  0  0  0  0  0  0  0  0  0  0
  -24.1240  -13.1330   20.8670 C   0  0  0  0  0  0  0  0  0  0  0  0
  -24.5910  -11.7810   20.8330 C   0  0  0  0  0  0  0  0  0  0  0  0
  -26.2250  -13.0350   20.2410 N   0  0  0  0  0  0  0  0  0  0  0  0
  -25.8830  -11.7490   20.5140 N   0  0  0  0  0  0  0  0  0  0  0  0
  -23.8650  -10.5190   21.0260 C   0  0  0  0  0  0  0  0  0  0  0  0
  -24.3000   -9.5500   21.9550 C   0  0  0  0  0  3  0  0  0  0  0  0
  -23.5700   -8.3540   22.1350 C   0  0  0  0  0  3  0  0  0  0  0  0
  -22.3940   -8.1200   21.3880 C   0  0  0  0  0  0  0  0  0  0  0  0
  -21.9790   -9.0770   20.4470 C   0  0  0  0  0  3  0  0  0  0  0  0
  -22.7080  -10.2640   20.2620 C   0  0  0  0  0  3  0  0  0  0  0  0
  -21.6330   -6.9790   21.4790 O   0  0  0  0  0  0  0  0  0  0  0  0
  -21.5850   -6.2380   22.6310 C   0  0  0  0  0  0  0  0  0  0  0  0
  -21.1540   -6.7920   23.8580 C   0  0  0  0  0  3  0  0  0  0  0  0
  -21.0540   -5.9760   25.0010 C   0  0  0  0  0  3  0  0  0  0  0  0
  -21.3740   -4.6070   24.9220 C   0  0  0  0  0  0  0  0  0  0  0  0
  -21.7960   -4.0530   23.7020 C   0  0  0  0  0  3  0  0  0  0  0  0
  -21.8990   -4.8650   22.5580 C   0  0  0  0  0  0  0  0  0  0  0  0
  -22.2870   -4.3200   21.3800 F   0  0  0  0  0  0  0  0  0  0  0  0
  -21.2690   -3.8210   26.0200 F   0  0  0  0  0  0  0  0  0  0  0  0
  -22.7260  -13.6110   21.1400 C   0  0  0  0  0  0  0  0  0  0  0  0
  -21.9990  -12.9190   22.0090 N   0  0  0  0  0  0  0  0  0  0  0  0
  -22.2910  -14.6360   20.6160 O   0  0  0  0  0  0  0  0  0  0  0  0
  -22.3620  -12.0880   22.4510 H   0  0  0  0  0  0  0  0  0  0  0  0
  -21.0630  -13.2270   22.2380 H   0  0  0  0  0  0  0  0  0  0  0  0
  -25.3430  -15.2800   20.3120 N   0  0  0  0  0  0  0  0  0  0  0  0
  -24.5690  -15.9260   20.4080 H   0  0  0  0  0  0  0  0  0  0  0  0
  -26.1870  -15.7200   19.9680 H   0  0  0  0  0  0  0  0  0  0  0  0
  -32.3370  -19.5990   17.3190 N   0  0  0  0  0  4  0  0  0  0  0  0
  -33.1430  -19.1040   17.6560 H   0  0  0  0  0  0  0  0  0  0  0  0
  -32.6210  -20.5370   17.0990 H   0  0  0  0  0  0  0  0  0  0  0  0
  -32.0400  -19.1740   16.4600 H   0  0  0  0  0  0  0  0  0  0  0  0
  -28.0200  -24.2610   19.9110 C   0  0  0  0  0  2  0  0  0  0  0  0
  -28.1880  -25.8560   20.3140 O   0  0  0  0  0  0  0  0  0  0  0  0
  -24.6260  -31.8620   23.2450 C   0  0  0  0  0  0  0  0  0  0  0  0
  -27.1810  -26.9620   20.2330 C   0  0  0  0  0  0  0  0  0  0  0  0
  -23.4340  -30.4590   21.6100 C   0  0  0  0  0  3  0  0  0  0  0  0
  -24.8820  -28.8470   20.1950 C   0  0  0  0  0  0  0  0  0  0  0  0
  -26.0020  -30.6600   21.4730 C   0  0  0  0  0  2  0  0  0  0  0  0
  -26.0690  -29.2480   20.8170 C   0  0  0  0  0  0  0  0  0  0  0  0
  -27.2090  -28.3230   20.8180 C   0  0  0  0  0  3  0  0  0  0  0  0
  -25.9660  -26.7170   19.5560 C   0  0  0  0  0  3  0  0  0  0  0  0
  -24.8540  -27.6010   19.5450 C   0  0  0  0  0  3  0  0  0  0  0  0
  -23.6640  -29.7700   20.2370 C   0  0  0  0  0  2  0  0  0  0  0  0
  -24.7090  -31.0210   22.1620 N   0  0  0  0  0  0  0  0  0  0  0  0
  -23.5370  -32.1560   23.7630 O   0  0  0  0  0  0  0  0  0  0  0  0
  -22.7350  -29.4720   22.5810 C   0  0  0  0  0  0  0  0  0  0  0  0
  -21.4060  -29.3060   22.4460 N   0  0  0  0  0  0  0  0  0  0  0  0
  -23.3980  -28.8530   23.4160 O   0  0  0  0  0  0  0  0  0  0  0  0
  -20.9300  -29.8510   21.7420 H   0  0  0  0  0  0  0  0  0  0  0  0
  -18.0200  -28.1020   22.9440 C   0  0  0  0  0  0  0  0  0  0  0  0
  -20.5780  -28.3750   23.2200 C   0  0  0  0  0  3  0  0  0  0  0  0
  -20.6870  -26.9400   22.6560 C   0  0  0  0  0  2  0  0  0  0  0  0
  -19.5910  -26.6070   21.6380 C   0  0  0  0  0  2  0  0  0  0  0  0
  -18.2050  -26.7510   22.2730 C   0  0  0  0  0  2  0  0  0  0  0  0
  -19.1350  -28.8720   23.3740 C   0  0  0  0  0  0  0  0  0  0  0  0
  -18.9070  -30.1340   23.9650 C   0  0  0  0  0  3  0  0  0  0  0  0
  -17.5990  -30.6270   24.1290 C   0  0  0  0  0  3  0  0  0  0  0  0
  -16.4990  -29.8550   23.7150 C   0  0  0  0  0  3  0  0  0  0  0  0
  -16.7120  -28.5950   23.1280 C   0  0  0  0  0  3  0  0  0  0  0  0
  -25.8970  -32.5020   23.8800 C   0  0  0  0  0  3  0  0  0  0  0  0
  -26.3890  -31.7470   25.1800 C   0  0  1  0  0  0  0  0  0  0  0  0
  -25.2810  -31.5330   26.2370 C   0  0  0  0  0  1  0  0  0  0  0  0
  -26.9690  -30.3600   24.8260 C   0  0  0  0  0  1  0  0  0  0  0  0
  -27.5400  -32.5440   25.8420 C   0  0  0  0  0  1  0  0  0  0  0  0
  -25.5850  -33.9060   24.2020 N   0  0  0  0  0  0  0  0  0  0  0  0
  -25.9150  -34.9590   23.4430 C   0  0  0  0  0  0  0  0  0  0  0  0
  -26.5780  -34.8520   22.4080 O   0  0  0  0  0  0  0  0  0  0  0  0
  -24.9910  -34.0610   25.0030 H   0  0  0  0  0  0  0  0  0  0  0  0
  -24.1840  -36.7580   23.1120 C   0  0  0  0  0  1  0  0  0  0  0  0
  -25.4370  -36.3520   23.9030 C   0  0  0  0  0  3  0  0  0  0  0  0
  -27.5840  -37.2450   24.6970 C   0  0  0  0  0  1  0  0  0  0  0  0
  -26.4680  -37.4050   23.7670 N   0  0  0  0  0  0  0  0  0  0  0  0
  -26.0650  -38.3260   23.9110 H   0  0  0  0  0  0  0  0  0  0  0  0
  1  5  1  0
  2  7  1  0
  3  9  1  0
  3  5  1  0
  5 52  1  0
  6  1  1  0
  7 18  1  0
  7  6  1  0
  8 48  1  0
  8  2  1  0
  8  4  1  0
  9  4  1  0
  9  6  1  0
 10 16  1  0
 10 18  1  0
 11 16  1  0
 12 13  1  0
 12 11  1  0
 14 13  1  0
 14 23  1  0
 14 15  1  0
 16 15  1  0
 17 10  2  0
 18 19  1  0
 20 21  2  0
 21 40  1  0
 22 21  1  0
 22 25  1  0
 23 20  1  0
 23 24  1  0
 24 22  2  0
 25 26  1  0
 26 27  2  0
 28 31  1  0
 28 27  1  0
 29 28  2  0
 30 29  1  0
 30 25  2  0
 31 32  1  0
 32 33  1  0
 33 34  2  0
 35 34  1  0
 35 39  1  0
 36 35  2  0
 37 32  2  0
 37 36  1  0
 38 37  1  0
 40 41  1  0
 41 44  1  0
 41 43  1  0
 42 40  2  0
 45 46  1  0
 45 20  1  0
 47 45  1  0
 48 49  1  0
 50 48  1  0
 51 48  1  0
 52 53  1  0
 54 65  2  0
 55 53  1  0
 55 60  1  0
 56 64  1  0
 56 66  1  0
 57 63  1  0
 57 59  1  0
 58 64  1  0
 59 60  2  0
 59 58  1  0
 61 55  2  0
 62 61  1  0
 62 57  2  0
 63 56  1  0
 64 54  1  0
 66 68  2  0
 67 66  1  0
 69 67  1  0
 70 79  2  0
 70 75  1  0
 71 67  1  0
 71 75  1  0
 72 71  1  0
 73 74  1  0
 73 72  1  0
 74 70  1  0
 75 76  2  0
 76 77  1  0
 78 77  2  0
 79 78  1  0
 80 54  1  0
 80 85  1  0
 80 81  1  0
 81 84  1  1
 81 82  1  0
 83 81  1  0
 85 88  1  0
 86 90  1  0
 86 85  1  0
 87 86  2  0
 90 89  1  0
 92 90  1  0
 92 93  1  0
 92 91  1  0
M  ISO  4  10 100  18 100  52 101  53 101
M  END
>  <TORSDO>  (75) 
F 18

>  <SCORE>  (75) 
-16.496

>  <name>  (75) 
75

>  <ligand_id>  (75) 
75

>  <original_smiles>  (75) 
[H]c1c([H])c([H])c2c(c1[H])C([H])([H])C([H])([H])C([H])([H])C2([H])N([H])C(=O)C1([H])N(C(=O)C([H])(N([H])C(=O)C([H])(N([H])C([H])([H])[H])C([H])([H])[H])C(C([H])([H])[H])(C([H])([H])[H])C([H])([H])[H])C([H])([H])c2c([H])c(OC([H])([H])C3([H])C([H])([H])N4C([H])([H])C([H])([N+]([H])([H])[H])C([H])([H])C([H])(N([H])C(=O)N5C([H])([H])C([H])([H])C([H])([H])C([H])(n6nc(-c7c([H])c([H])c(Oc8c([H])c([H])c(F)c([H])c8F)c([H])c7[H])c(C(=O)N([H])[H])c6N([H])[H])C5([H])[H])C4([H])C3([H])[H])c([H])c([H])c2C1([H])[H]

>  <smiles>  (75) 
[H]c1c([H])c([H])c2c(c1[H])C([H])([H])C([H])([H])C([H])([H])C2([H])N([H])C(=O)C1([H])N(C(=O)C([H])(N([H])C(=O)C([H])(N([H])C([H])([H])[H])C([H])([H])[H])C(C([H])([H])[H])(C([H])([H])[H])C([H])([H])[H])C([H])([H])c2c([H])c(OC([H])([H])C3([H])C([H])([H])N4C([H])([H])C([H])([N+]([H])([H])[H])C([H])([H])C([H])(N([H])C(=O)N5C([H])([H])C([H])([H])C([H])([H])C([H])(n6nc(-c7c([H])c([H])c(Oc8c([H])c([H])c(F)c([H])c8F)c([H])c7[H])c(C(=O)N([H])[H])c6N([H])[H])C5([H])[H])C4([H])C3([H])[H])c([H])c([H])c2C1([H])[H]

$$$$
76:0:0
     RDKit          3D

 91 99  0  0  1  0  0  0  0  0999 V2000
  -29.4220  -22.4570   18.9030 C   0  0  0  0  0  0  0  0  0  0  0  0
  -29.8900  -23.3120   19.8210 N   0  0  0  0  0  0  0  0  0  0  0  0
  -28.6590  -22.8040   18.0000 O   0  0  0  0  0  0  0  0  0  0  0  0
  -30.4930  -22.9200   20.5330 H   0  0  0  0  0  0  0  0  0  0  0  0
  -29.1290  -19.9320   18.4860 C   0  0  0  0  0  2  0  0  0  0  0  0
  -29.9940  -21.0750   18.9920 C   0  0  0  0  0  3  0  0  0  0  0  0
  -29.3870  -20.0700   19.9640 C   0  0  0  0  0  3  0  0  0  0  0  0
  -30.2430  -19.0440   20.6910 C   0  0  0  0  0  2  0  0  0  0  0  0
  -29.5950  -17.6460   20.7490 C   0  0  0  0  0  2  0  0  0  0  0  0
  -30.4320  -16.6560   21.5810 C   0  0  0  0  0  2  0  0  0  0  0  0
  -30.6820  -14.3910   20.5560 C   0  0  0  0  0  0  0  0  0  0  0  0
  -30.3990  -12.3040   19.2820 C   0  0  0  0  0  2  0  0  0  0  0  0
  -29.4420  -12.5560   18.0990 C   0  0  0  0  0  2  0  0  0  0  0  0
  -27.9710  -12.4050   18.5320 C   0  0  0  0  0  2  0  0  0  0  0  0
  -27.6460  -13.2020   19.8260 C   0  0  0  0  0  3  0  0  0  0  0  0
  -28.6930  -12.8930   20.9140 C   0  0  0  0  0  2  0  0  0  0  0  0
  -30.0240  -13.2210   20.3670 N   0  0  0  0  0  0  0  0  0  0  0  0
  -31.7530  -14.6690   20.0010 O   0  0  0  0  0  0  0  0  0  0  0  0
  -30.0390  -15.2680   21.3410 N   0  0  0  0  0  0  0  0  0  0  0  0
  -29.1780  -14.9400   21.7590 H   0  0  0  0  0  0  0  0  0  0  0  0
  -25.2420  -13.8200   20.5090 C   0  0  0  0  0  0  0  0  0  0  0  0
  -24.1730  -13.0480   20.8780 C   0  0  0  0  0  0  0  0  0  0  0  0
  -24.6340  -11.6970   20.8540 C   0  0  0  0  0  0  0  0  0  0  0  0
  -26.2900  -12.9380   20.2930 N   0  0  0  0  0  0  0  0  0  0  0  0
  -25.9260  -11.6560   20.5510 N   0  0  0  0  0  0  0  0  0  0  0  0
  -23.9110  -10.4350   21.0460 C   0  0  0  0  0  0  0  0  0  0  0  0
  -24.3530   -9.4670   21.9750 C   0  0  0  0  0  3  0  0  0  0  0  0
  -23.6310   -8.2680   22.1570 C   0  0  0  0  0  3  0  0  0  0  0  0
  -22.4520   -8.0320   21.4110 C   0  0  0  0  0  0  0  0  0  0  0  0
  -22.0300   -8.9880   20.4700 C   0  0  0  0  0  3  0  0  0  0  0  0
  -22.7520  -10.1780   20.2870 C   0  0  0  0  0  3  0  0  0  0  0  0
  -21.6980   -6.8890   21.5030 O   0  0  0  0  0  0  0  0  0  0  0  0
  -21.6630   -6.1400   22.6510 C   0  0  0  0  0  0  0  0  0  0  0  0
  -21.2500   -6.6870   23.8850 C   0  0  0  0  0  3  0  0  0  0  0  0
  -21.1640   -5.8630   25.0270 C   0  0  0  0  0  3  0  0  0  0  0  0
  -21.4810   -4.4950   24.9330 C   0  0  0  0  0  0  0  0  0  0  0  0
  -21.8860   -3.9480   23.7010 C   0  0  0  0  0  3  0  0  0  0  0  0
  -21.9730   -4.7670   22.5640 C   0  0  0  0  0  0  0  0  0  0  0  0
  -22.3430   -4.2320   21.3750 F   0  0  0  0  0  0  0  0  0  0  0  0
  -21.3880   -3.7000   26.0230 F   0  0  0  0  0  0  0  0  0  0  0  0
  -22.7760  -13.5240   21.1510 C   0  0  0  0  0  0  0  0  0  0  0  0
  -22.0520  -12.8350   22.0230 N   0  0  0  0  0  0  0  0  0  0  0  0
  -22.3360  -14.5480   20.6250 O   0  0  0  0  0  0  0  0  0  0  0  0
  -22.4230  -12.0080   22.4720 H   0  0  0  0  0  0  0  0  0  0  0  0
  -21.1160  -13.1400   22.2490 H   0  0  0  0  0  0  0  0  0  0  0  0
  -25.3990  -15.1920   20.3250 N   0  0  0  0  0  0  0  0  0  0  0  0
  -24.6340  -15.8420   20.4650 H   0  0  0  0  0  0  0  0  0  0  0  0
  -26.2530  -15.6470   20.0270 H   0  0  0  0  0  0  0  0  0  0  0  0
  -29.8010  -24.7790   19.8000 C   0  0  0  0  0  2  0  0  0  0  0  0
  -28.3760  -25.3600   19.7260 C   0  0  0  0  0  2  0  0  0  0  0  0
  -28.3970  -26.7370   20.1180 O   0  0  0  0  0  0  0  0  0  0  0  0
  -24.5840  -31.8750   23.2440 C   0  0  0  0  0  0  0  0  0  0  0  0
  -27.2030  -27.4330   20.1350 C   0  0  0  0  0  0  0  0  0  0  0  0
  -23.3640  -30.4830   21.6040 C   0  0  0  0  0  3  0  0  0  0  0  0
  -24.8050  -28.9380   20.1800 C   0  0  0  0  0  0  0  0  0  0  0  0
  -25.8920  -30.8320   21.3990 C   0  0  0  0  0  2  0  0  0  0  0  0
  -25.9700  -29.4610   20.7560 C   0  0  0  0  0  0  0  0  0  0  0  0
  -27.1700  -28.7150   20.7310 C   0  0  0  0  0  3  0  0  0  0  0  0
  -26.0110  -26.9160   19.5750 C   0  0  0  0  0  3  0  0  0  0  0  0
  -24.8180  -27.6600   19.5980 C   0  0  0  0  0  3  0  0  0  0  0  0
  -23.5660  -29.8010   20.2270 C   0  0  0  0  0  2  0  0  0  0  0  0
  -24.6320  -31.0780   22.1410 N   0  0  0  0  0  0  0  0  0  0  0  0
  -23.5050  -32.1520   23.7890 O   0  0  0  0  0  0  0  0  0  0  0  0
  -22.7120  -29.4650   22.5660 C   0  0  0  0  0  0  0  0  0  0  0  0
  -21.3870  -29.2840   22.4390 N   0  0  0  0  0  0  0  0  0  0  0  0
  -23.3940  -28.8370   23.3800 O   0  0  0  0  0  0  0  0  0  0  0  0
  -20.8980  -29.8380   21.7520 H   0  0  0  0  0  0  0  0  0  0  0  0
  -18.0100  -28.1100   22.9490 C   0  0  0  0  0  0  0  0  0  0  0  0
  -20.5710  -28.3470   23.2100 C   0  0  0  0  0  3  0  0  0  0  0  0
  -20.6630  -26.9180   22.6250 C   0  0  0  0  0  2  0  0  0  0  0  0
  -19.5530  -26.6080   21.6160 C   0  0  0  0  0  2  0  0  0  0  0  0
  -18.1760  -26.7620   22.2660 C   0  0  0  0  0  2  0  0  0  0  0  0
  -19.1370  -28.8610   23.3780 C   0  0  0  0  0  0  0  0  0  0  0  0
  -18.9320  -30.1240   23.9740 C   0  0  0  0  0  3  0  0  0  0  0  0
  -17.6320  -30.6350   24.1480 C   0  0  0  0  0  3  0  0  0  0  0  0
  -16.5200  -29.8810   23.7390 C   0  0  0  0  0  3  0  0  0  0  0  0
  -16.7100  -28.6200   23.1440 C   0  0  0  0  0  3  0  0  0  0  0  0
  -25.8760  -32.5010   23.8590 C   0  0  0  0  0  3  0  0  0  0  0  0
  -25.5740  -33.8990   24.1890 N   0  0  0  0  0  0  0  0  0  0  0  0
  -25.9060  -34.9500   23.4270 C   0  0  0  0  0  0  0  0  0  0  0  0
  -26.5700  -34.8430   22.3920 O   0  0  0  0  0  0  0  0  0  0  0  0
  -24.9850  -34.0570   24.9940 H   0  0  0  0  0  0  0  0  0  0  0  0
  -24.1830  -36.7470   23.0780 C   0  0  0  0  0  1  0  0  0  0  0  0
  -25.4240  -36.3390   23.8860 C   0  0  0  0  0  3  0  0  0  0  0  0
  -27.5650  -37.2140   24.7130 C   0  0  0  0  0  1  0  0  0  0  0  0
  -26.4600  -37.3880   23.7730 N   0  0  0  0  0  0  0  0  0  0  0  0
  -26.0580  -38.3100   23.9240 H   0  0  0  0  0  0  0  0  0  0  0  0
  -26.3930  -31.7300   25.1350 C   0  0  1  0  0  0  0  0  0  0  0  0
  -25.3030  -31.5000   26.2070 C   0  0  0  0  0  1  0  0  0  0  0  0
  -26.9700  -30.3500   24.7430 C   0  0  0  0  0  1  0  0  0  0  0  0
  -27.5470  -32.5200   25.7970 C   0  0  0  0  0  1  0  0  0  0  0  0
  1  2  1  0
  2  4  1  0
  3  1  2  0
  5  6  1  0
  5  7  1  0
  6  1  1  0
  6  7  1  0
  7  8  1  0
  8  9  1  0
  9 10  1  0
 11 19  1  0
 12 17  1  0
 13 14  1  0
 13 12  1  0
 15 14  1  0
 15 24  1  0
 15 16  1  0
 17 11  1  0
 17 16  1  0
 18 11  2  0
 19 10  1  0
 19 20  1  0
 21 22  2  0
 22 41  1  0
 23 22  1  0
 23 26  1  0
 24 21  1  0
 24 25  1  0
 25 23  2  0
 26 27  1  0
 27 28  2  0
 29 32  1  0
 29 28  1  0
 30 29  2  0
 31 30  1  0
 31 26  2  0
 32 33  1  0
 33 34  1  0
 34 35  2  0
 36 35  1  0
 36 40  1  0
 37 36  2  0
 38 33  2  0
 38 37  1  0
 39 38  1  0
 41 42  1  0
 42 45  1  0
 42 44  1  0
 43 41  2  0
 46 47  1  0
 46 21  1  0
 48 46  1  0
 49  2  1  0
 50 49  1  0
 50 51  1  0
 51 53  1  0
 52 63  2  0
 53 58  1  0
 54 62  1  0
 54 64  1  0
 55 61  1  0
 55 57  1  0
 56 62  1  0
 57 56  1  0
 58 57  2  0
 59 60  1  0
 59 53  2  0
 60 55  2  0
 61 54  1  0
 62 52  1  0
 64 66  2  0
 65 64  1  0
 67 65  1  0
 68 77  2  0
 68 73  1  0
 69 65  1  0
 69 73  1  0
 70 69  1  0
 71 72  1  0
 71 70  1  0
 72 68  1  0
 73 74  2  0
 74 75  1  0
 76 75  2  0
 77 76  1  0
 78 52  1  0
 78 79  1  0
 78 88  1  0
 79 82  1  0
 80 84  1  0
 80 79  1  0
 81 80  2  0
 84 83  1  0
 86 84  1  0
 86 87  1  0
 86 85  1  0
 88 91  1  1
 88 89  1  0
 90 88  1  0
M  ISO  4  11 100  19 100  50 101  51 101
M  END
>  <TORSDO>  (76) 
F 22

>  <SCORE>  (76) 
-13.149

>  <name>  (76) 
76

>  <ligand_id>  (76) 
76

>  <original_smiles>  (76) 
[H]c1c([H])c([H])c2c(c1[H])C([H])([H])C([H])([H])C([H])([H])C2([H])N([H])C(=O)C1([H])N(C(=O)C([H])(N([H])C(=O)C([H])(N([H])C([H])([H])[H])C([H])([H])[H])C(C([H])([H])[H])(C([H])([H])[H])C([H])([H])[H])C([H])([H])c2c([H])c(OC([H])([H])C([H])([H])N([H])C(=O)C3([H])C([H])([H])C3([H])C([H])([H])C([H])([H])C([H])([H])N([H])C(=O)N3C([H])([H])C([H])([H])C([H])([H])C([H])(n4nc(-c5c([H])c([H])c(Oc6c([H])c([H])c(F)c([H])c6F)c([H])c5[H])c(C(=O)N([H])[H])c4N([H])[H])C3([H])[H])c([H])c([H])c2C1([H])[H]

>  <smiles>  (76) 
[H]c1c([H])c([H])c2c(c1[H])C([H])([H])C([H])([H])C([H])([H])C2([H])N([H])C(=O)C1([H])N(C(=O)C([H])(N([H])C(=O)C([H])(N([H])C([H])([H])[H])C([H])([H])[H])C(C([H])([H])[H])(C([H])([H])[H])C([H])([H])[H])C([H])([H])c2c([H])c(OC([H])([H])C([H])([H])N([H])C(=O)C3([H])C([H])([H])C3([H])C([H])([H])C([H])([H])C([H])([H])N([H])C(=O)N3C([H])([H])C([H])([H])C([H])([H])C([H])(n4nc(-c5c([H])c([H])c(Oc6c([H])c([H])c(F)c([H])c6F)c([H])c5[H])c(C(=O)N([H])[H])c4N([H])[H])C3([H])[H])c([H])c([H])c2C1([H])[H]

$$$$
77:0:0
     RDKit          3D

 94102  0  0  1  0  0  0  0  0999 V2000
  -29.2450  -20.5890   20.8640 C   0  0  0  0  0  3  0  0  0  0  0  0
  -32.5300  -20.6610   22.9300 C   0  0  0  0  0  3  0  0  0  0  0  0
  -31.6340  -20.4990   21.8490 C   0  0  0  0  0  3  0  0  0  0  0  0
  -32.0900  -21.2200   24.1440 C   0  0  0  0  0  3  0  0  0  0  0  0
  -29.8470  -21.4440   23.2070 C   0  0  0  0  0  3  0  0  0  0  0  0
  -30.2700  -20.8620   21.9810 C   0  0  0  0  0  0  0  0  0  0  0  0
  -30.7530  -21.6300   24.2730 C   0  0  0  0  0  0  0  0  0  0  0  0
  -30.3300  -22.1930   25.4310 F   0  0  0  0  0  0  0  0  0  0  0  0
  -28.9060  -21.9230   20.0570 N   0  0  0  0  0  4  0  0  0  0  0  0
  -29.5910  -21.9860   19.3190 H   0  0  0  0  0  0  0  0  0  0  0  0
  -28.0310  -21.7320   19.5870 H   0  0  0  0  0  0  0  0  0  0  0  0
  -28.7770  -23.3870   20.6820 C   0  0  0  0  0  3  0  0  0  0  0  0
  -28.1740  -24.7210   19.8360 C   0  0  0  0  0  3  0  0  0  0  0  0
  -28.2440  -26.2310   20.2560 O   0  0  0  0  0  0  0  0  0  0  0  0
  -24.5840  -31.8960   23.2160 C   0  0  0  0  0  0  0  0  0  0  0  0
  -27.1710  -27.1980   20.1540 C   0  0  0  0  0  0  0  0  0  0  0  0
  -23.3870  -30.5130   21.5650 C   0  0  0  0  0  3  0  0  0  0  0  0
  -24.8410  -28.9430   20.1400 C   0  0  0  0  0  0  0  0  0  0  0  0
  -25.9420  -30.7670   21.4190 C   0  0  0  0  0  2  0  0  0  0  0  0
  -26.0170  -29.3830   20.7540 C   0  0  0  0  0  0  0  0  0  0  0  0
  -27.1810  -28.5220   20.7550 C   0  0  0  0  0  3  0  0  0  0  0  0
  -25.9710  -26.8720   19.4830 C   0  0  0  0  0  3  0  0  0  0  0  0
  -24.8270  -27.7000   19.4960 C   0  0  0  0  0  3  0  0  0  0  0  0
  -23.6120  -29.8360   20.1880 C   0  0  0  0  0  2  0  0  0  0  0  0
  -24.6570  -31.0780   22.1220 N   0  0  0  0  0  0  0  0  0  0  0  0
  -23.4970  -32.1930   23.7350 O   0  0  0  0  0  0  0  0  0  0  0  0
  -22.6990  -29.5060   22.5200 C   0  0  0  0  0  0  0  0  0  0  0  0
  -21.3720  -29.3340   22.3820 N   0  0  0  0  0  0  0  0  0  0  0  0
  -23.3630  -28.8750   23.3450 O   0  0  0  0  0  0  0  0  0  0  0  0
  -20.8890  -29.8930   21.6930 H   0  0  0  0  0  0  0  0  0  0  0  0
  -17.9910  -28.1280   22.8700 C   0  0  0  0  0  0  0  0  0  0  0  0
  -20.5490  -28.3920   23.1480 C   0  0  0  0  0  3  0  0  0  0  0  0
  -20.6550  -26.9620   22.5710 C   0  0  0  0  0  2  0  0  0  0  0  0
  -19.5570  -26.6410   21.5520 C   0  0  0  0  0  2  0  0  0  0  0  0
  -18.1720  -26.7800   22.1900 C   0  0  0  0  0  2  0  0  0  0  0  0
  -19.1070  -28.8910   23.3030 C   0  0  0  0  0  0  0  0  0  0  0  0
  -18.8850  -30.1530   23.8980 C   0  0  0  0  0  3  0  0  0  0  0  0
  -17.5790  -30.6510   24.0620 C   0  0  0  0  0  3  0  0  0  0  0  0
  -16.4760  -29.8850   23.6470 C   0  0  0  0  0  3  0  0  0  0  0  0
  -16.6820  -28.6270   23.0560 C   0  0  0  0  0  3  0  0  0  0  0  0
  -25.8610  -32.5310   23.8450 C   0  0  0  0  0  3  0  0  0  0  0  0
  -25.5520  -33.9300   24.1800 N   0  0  0  0  0  0  0  0  0  0  0  0
  -25.8930  -34.9870   23.4310 C   0  0  0  0  0  0  0  0  0  0  0  0
  -26.5640  -34.8840   22.4010 O   0  0  0  0  0  0  0  0  0  0  0  0
  -24.9480  -34.0820   24.9730 H   0  0  0  0  0  0  0  0  0  0  0  0
  -24.1830  -36.7980   23.0780 C   0  0  0  0  0  1  0  0  0  0  0  0
  -25.4160  -36.3770   23.8930 C   0  0  0  0  0  3  0  0  0  0  0  0
  -27.5510  -37.2320   24.7500 C   0  0  0  0  0  1  0  0  0  0  0  0
  -26.4540  -37.4270   23.8050 N   0  0  0  0  0  0  0  0  0  0  0  0
  -26.0510  -38.3450   23.9800 H   0  0  0  0  0  0  0  0  0  0  0  0
  -26.3650  -31.7610   25.1270 C   0  0  1  0  0  0  0  0  0  0  0  0
  -25.2580  -31.5130   26.1820 C   0  0  0  0  0  1  0  0  0  0  0  0
  -26.9540  -30.3820   24.7530 C   0  0  0  0  0  1  0  0  0  0  0  0
  -27.5280  -32.5480   25.7860 C   0  0  0  0  0  1  0  0  0  0  0  0
  -29.4820  -19.0790   20.1070 C   0  0  0  0  0  2  0  0  0  0  0  0
  -29.9580  -17.6330   20.8530 C   0  0  0  0  0  2  0  0  0  0  0  0
  -30.5000  -14.9850   20.1980 C   0  0  0  0  0  0  0  0  0  0  0  0
  -30.3550  -12.6560   19.1870 C   0  0  0  0  0  2  0  0  0  0  0  0
  -29.3780  -12.6050   17.9870 C   0  0  0  0  0  2  0  0  0  0  0  0
  -27.9370  -12.3790   18.4790 C   0  0  0  0  0  2  0  0  0  0  0  0
  -27.5600  -13.3130   19.6550 C   0  0  0  0  0  3  0  0  0  0  0  0
  -28.6480  -13.3190   20.7500 C   0  0  0  0  0  2  0  0  0  0  0  0
  -29.8940  -13.7370   20.0990 N   0  0  0  0  0  0  0  0  0  0  0  0
  -31.7100  -15.0630   19.9640 O   0  0  0  0  0  0  0  0  0  0  0  0
  -29.7040  -16.1490   20.3560 N   0  0  0  0  0  0  0  0  0  0  0  0
  -28.7210  -15.9210   20.3040 H   0  0  0  0  0  0  0  0  0  0  0  0
  -25.1930  -13.8790   20.4540 C   0  0  0  0  0  0  0  0  0  0  0  0
  -24.1460  -13.0930   20.8410 C   0  0  0  0  0  0  0  0  0  0  0  0
  -24.6220  -11.7460   20.7970 C   0  0  0  0  0  0  0  0  0  0  0  0
  -26.2390  -13.0090   20.1890 N   0  0  0  0  0  0  0  0  0  0  0  0
  -25.9040  -11.7220   20.4630 N   0  0  0  0  0  0  0  0  0  0  0  0
  -23.9110  -10.4780   20.9920 C   0  0  0  0  0  0  0  0  0  0  0  0
  -24.3540   -9.5170   21.9270 C   0  0  0  0  0  3  0  0  0  0  0  0
  -23.6400   -8.3140   22.1110 C   0  0  0  0  0  3  0  0  0  0  0  0
  -22.4690   -8.0630   21.3570 C   0  0  0  0  0  0  0  0  0  0  0  0
  -22.0470   -9.0110   20.4080 C   0  0  0  0  0  3  0  0  0  0  0  0
  -22.7630  -10.2060   20.2230 C   0  0  0  0  0  3  0  0  0  0  0  0
  -21.7220   -6.9140   21.4510 O   0  0  0  0  0  0  0  0  0  0  0  0
  -21.6640   -6.1870   22.6130 C   0  0  0  0  0  0  0  0  0  0  0  0
  -21.1880   -6.7470   23.8200 C   0  0  0  0  0  3  0  0  0  0  0  0
  -21.0770   -5.9440   24.9730 C   0  0  0  0  0  3  0  0  0  0  0  0
  -21.4380   -4.5840   24.9240 C   0  0  0  0  0  0  0  0  0  0  0  0
  -21.9090   -4.0240   23.7230 C   0  0  0  0  0  3  0  0  0  0  0  0
  -22.0210   -4.8240   22.5720 C   0  0  0  0  0  0  0  0  0  0  0  0
  -22.4560   -4.2740   21.4110 F   0  0  0  0  0  0  0  0  0  0  0  0
  -21.3270   -3.8100   26.0300 F   0  0  0  0  0  0  0  0  0  0  0  0
  -22.7500  -13.5530   21.1440 C   0  0  0  0  0  0  0  0  0  0  0  0
  -22.0470  -12.8390   22.0140 N   0  0  0  0  0  0  0  0  0  0  0  0
  -22.2950  -14.5840   20.6490 O   0  0  0  0  0  0  0  0  0  0  0  0
  -22.4310  -12.0010   22.4280 H   0  0  0  0  0  0  0  0  0  0  0  0
  -21.1160  -13.1270   22.2770 H   0  0  0  0  0  0  0  0  0  0  0  0
  -25.3320  -15.2540   20.2750 N   0  0  0  0  0  0  0  0  0  0  0  0
  -24.5330  -15.8730   20.3890 H   0  0  0  0  0  0  0  0  0  0  0  0
  -26.1390  -15.7140   19.8740 H   0  0  0  0  0  0  0  0  0  0  0  0
  1 55  1  0
  1  6  1  0
  2  4  1  0
  3  6  1  0
  3  2  2  0
  4  7  2  0
  5  7  1  0
  6  5  2  0
  7  8  1  0
  9 12  1  0
  9  1  1  0
 10  9  1  0
 11  9  1  0
 13 14  1  0
 13 12  2  0
 15 26  2  0
 16 14  1  0
 16 21  1  0
 17 25  1  0
 17 27  1  0
 18 24  1  0
 18 20  1  0
 19 25  1  0
 20 21  2  0
 20 19  1  0
 22 23  1  0
 22 16  2  0
 23 18  2  0
 24 17  1  0
 25 15  1  0
 27 29  2  0
 28 27  1  0
 30 28  1  0
 31 40  2  0
 31 36  1  0
 32 28  1  0
 32 36  1  0
 33 32  1  0
 34 35  1  0
 34 33  1  0
 35 31  1  0
 36 37  2  0
 37 38  1  0
 39 38  2  0
 40 39  1  0
 41 15  1  0
 41 42  1  0
 41 51  1  0
 42 45  1  0
 43 47  1  0
 43 42  1  0
 44 43  2  0
 47 46  1  0
 49 47  1  0
 49 50  1  0
 49 48  1  0
 51 54  1  1
 51 52  1  0
 53 51  1  0
 55 56  1  0
 57 65  1  0
 58 63  1  0
 59 60  1  0
 59 58  1  0
 61 60  1  0
 61 70  1  0
 61 62  1  0
 63 57  1  0
 63 62  1  0
 64 57  2  0
 65 56  1  0
 66 65  1  0
 67 68  2  0
 68 87  1  0
 69 68  1  0
 69 72  1  0
 70 67  1  0
 70 71  1  0
 71 69  2  0
 72 73  1  0
 73 74  2  0
 75 78  1  0
 75 74  1  0
 76 75  2  0
 77 76  1  0
 77 72  2  0
 78 79  1  0
 79 80  1  0
 80 81  2  0
 82 81  1  0
 82 86  1  0
 83 82  2  0
 84 79  2  0
 84 83  1  0
 85 84  1  0
 87 88  1  0
 88 91  1  0
 88 90  1  0
 89 87  2  0
 92 93  1  0
 92 67  1  0
 94 92  1  0
M  ISO  4  13 101  14 101  57 100  65 100
M  END
>  <TORSDO>  (77) 
F 22

>  <SCORE>  (77) 
-14.862

>  <name>  (77) 
77

>  <ligand_id>  (77) 
77

>  <original_smiles>  (77) 
[H]c1c([H])c([H])c2c(c1[H])C([H])([H])C([H])([H])C([H])([H])C2([H])N([H])C(=O)C1([H])N(C(=O)C([H])(N([H])C(=O)C([H])(N([H])C([H])([H])[H])C([H])([H])[H])C(C([H])([H])[H])(C([H])([H])[H])C([H])([H])[H])C([H])([H])c2c([H])c(OC([H])([H])C([H])([H])[N+]([H])([H])C([H])(c3c([H])c([H])c([H])c(F)c3[H])C([H])([H])C([H])([H])N([H])C(=O)N3C([H])([H])C([H])([H])C([H])([H])C([H])(n4nc(-c5c([H])c([H])c(Oc6c([H])c([H])c(F)c([H])c6F)c([H])c5[H])c(C(=O)N([H])[H])c4N([H])[H])C3([H])[H])c([H])c([H])c2C1([H])[H]

>  <smiles>  (77) 
[H]c1c([H])c([H])c2c(c1[H])C([H])([H])C([H])([H])C([H])([H])C2([H])N([H])C(=O)C1([H])N(C(=O)C([H])(N([H])C(=O)C([H])(N([H])C([H])([H])[H])C([H])([H])[H])C(C([H])([H])[H])(C([H])([H])[H])C([H])([H])[H])C([H])([H])c2c([H])c(OC([H])([H])C([H])([H])[N+]([H])([H])C([H])(c3c([H])c([H])c([H])c(F)c3[H])C([H])([H])C([H])([H])N([H])C(=O)N3C([H])([H])C([H])([H])C([H])([H])C([H])(n4nc(-c5c([H])c([H])c(Oc6c([H])c([H])c(F)c([H])c6F)c([H])c5[H])c(C(=O)N([H])[H])c4N([H])[H])C3([H])[H])c([H])c([H])c2C1([H])[H]

$$$$
78:0:0
     RDKit          3D

 92101  0  0  1  0  0  0  0  0999 V2000
  -28.5530  -22.1550   19.9870 N   0  0  0  0  0  4  0  0  0  0  0  0
  -27.6430  -21.9700   20.3790 H   0  0  0  0  0  0  0  0  0  0  0  0
  -28.4080  -22.1920   18.9900 H   0  0  0  0  0  0  0  0  0  0  0  0
  -30.6660  -14.9030   19.9530 C   0  0  0  0  0  0  0  0  0  0  0  0
  -30.4070  -12.6070   18.9700 C   0  0  0  0  0  2  0  0  0  0  0  0
  -29.4050  -12.6280   17.7960 C   0  0  0  0  0  2  0  0  0  0  0  0
  -27.9690  -12.4290   18.3150 C   0  0  0  0  0  2  0  0  0  0  0  0
  -27.6450  -13.3260   19.5420 C   0  0  0  0  0  3  0  0  0  0  0  0
  -28.7700  -13.3080   20.5990 C   0  0  0  0  0  2  0  0  0  0  0  0
  -30.0070  -13.6850   19.9100 N   0  0  0  0  0  0  0  0  0  0  0  0
  -31.8510  -14.9200   19.5990 O   0  0  0  0  0  0  0  0  0  0  0  0
  -28.8150  -19.6960   21.1180 C   0  0  0  0  0  2  0  0  0  0  0  0
  -29.7850  -19.9530   19.0150 C   0  0  0  0  0  2  0  0  0  0  0  0
  -29.3090  -16.9020   21.0170 C   0  0  0  0  0  2  0  0  0  0  0  0
  -30.1970  -17.1980   18.8960 C   0  0  0  0  0  2  0  0  0  0  0  0
  -29.7680  -18.4290   20.9570 C   0  0  0  0  0  3  0  0  0  0  0  0
  -30.3820  -18.6010   19.5910 C   0  0  0  0  0  3  0  0  0  0  0  0
  -29.4180  -20.8750   20.2410 C   0  0  0  0  0  3  0  0  0  0  0  0
  -29.9400  -16.1130   19.9040 N   0  0  0  0  0  0  0  0  0  0  0  0
  -25.3180  -13.8750   20.4550 C   0  0  0  0  0  0  0  0  0  0  0  0
  -24.2790  -13.0850   20.8660 C   0  0  0  0  0  0  0  0  0  0  0  0
  -24.7430  -11.7370   20.7610 C   0  0  0  0  0  0  0  0  0  0  0  0
  -26.3430  -13.0090   20.1180 N   0  0  0  0  0  0  0  0  0  0  0  0
  -26.0110  -11.7150   20.3660 N   0  0  0  0  0  0  0  0  0  0  0  0
  -24.0310  -10.4660   20.9530 C   0  0  0  0  0  0  0  0  0  0  0  0
  -24.4800   -9.4980   21.8770 C   0  0  0  0  0  3  0  0  0  0  0  0
  -23.7660   -8.2950   22.0580 C   0  0  0  0  0  3  0  0  0  0  0  0
  -22.5870   -8.0490   21.3140 C   0  0  0  0  0  0  0  0  0  0  0  0
  -22.1560   -9.0060   20.3780 C   0  0  0  0  0  3  0  0  0  0  0  0
  -22.8710  -10.2010   20.1960 C   0  0  0  0  0  3  0  0  0  0  0  0
  -21.8410   -6.8990   21.4070 O   0  0  0  0  0  0  0  0  0  0  0  0
  -21.7500   -6.1930   22.5800 C   0  0  0  0  0  0  0  0  0  0  0  0
  -21.2490   -6.7770   23.7630 C   0  0  0  0  0  3  0  0  0  0  0  0
  -21.1050   -5.9960   24.9270 C   0  0  0  0  0  3  0  0  0  0  0  0
  -21.4520   -4.6320   24.9080 C   0  0  0  0  0  0  0  0  0  0  0  0
  -21.9460   -4.0480   23.7290 C   0  0  0  0  0  3  0  0  0  0  0  0
  -22.0900   -4.8260   22.5670 C   0  0  0  0  0  0  0  0  0  0  0  0
  -22.5460   -4.2530   21.4260 F   0  0  0  0  0  0  0  0  0  0  0  0
  -21.3070   -3.8790   26.0250 F   0  0  0  0  0  0  0  0  0  0  0  0
  -22.9020  -13.5480   21.2400 C   0  0  0  0  0  0  0  0  0  0  0  0
  -22.2340  -12.8290   22.1340 N   0  0  0  0  0  0  0  0  0  0  0  0
  -22.4300  -14.5850   20.7760 O   0  0  0  0  0  0  0  0  0  0  0  0
  -22.6300  -11.9910   22.5350 H   0  0  0  0  0  0  0  0  0  0  0  0
  -21.3110  -13.1200   22.4240 H   0  0  0  0  0  0  0  0  0  0  0  0
  -25.4690  -15.2510   20.3130 N   0  0  0  0  0  0  0  0  0  0  0  0
  -24.7130  -15.9000   20.4950 H   0  0  0  0  0  0  0  0  0  0  0  0
  -26.2990  -15.6990   19.9450 H   0  0  0  0  0  0  0  0  0  0  0  0
  -28.9730  -23.6010   20.4250 C   0  0  0  0  0  3  0  0  0  0  0  0
  -29.8740  -24.9190   22.4780 C   0  0  0  0  0  1  0  0  0  0  0  0
  -29.2170  -23.6300   21.9570 C   0  0  0  0  0  2  0  0  0  0  0  0
  -27.9900  -24.8530   19.9790 C   0  0  0  0  0  2  0  0  0  0  0  0
  -28.2610  -26.3410   20.2090 O   0  0  0  0  0  0  0  0  0  0  0  0
  -24.6250  -31.8970   23.2510 C   0  0  0  0  0  0  0  0  0  0  0  0
  -27.1890  -27.2780   20.1490 C   0  0  0  0  0  0  0  0  0  0  0  0
  -23.4130  -30.5190   21.6040 C   0  0  0  0  0  3  0  0  0  0  0  0
  -24.8510  -28.9730   20.1530 C   0  0  0  0  0  0  0  0  0  0  0  0
  -25.9600  -30.8070   21.4210 C   0  0  0  0  0  2  0  0  0  0  0  0
  -26.0310  -29.4270   20.7570 C   0  0  0  0  0  0  0  0  0  0  0  0
  -27.2020  -28.5930   20.7410 C   0  0  0  0  0  3  0  0  0  0  0  0
  -25.9850  -26.9110   19.5030 C   0  0  0  0  0  3  0  0  0  0  0  0
  -24.8360  -27.7260   19.5130 C   0  0  0  0  0  3  0  0  0  0  0  0
  -23.6210  -29.8590   20.2160 C   0  0  0  0  0  2  0  0  0  0  0  0
  -24.6870  -31.0930   22.1480 N   0  0  0  0  0  0  0  0  0  0  0  0
  -23.5430  -32.1760   23.7900 O   0  0  0  0  0  0  0  0  0  0  0  0
  -22.7440  -29.4990   22.5570 C   0  0  0  0  0  0  0  0  0  0  0  0
  -21.4170  -29.3210   22.4270 N   0  0  0  0  0  0  0  0  0  0  0  0
  -23.4190  -28.8710   23.3760 O   0  0  0  0  0  0  0  0  0  0  0  0
  -20.9300  -29.8810   21.7420 H   0  0  0  0  0  0  0  0  0  0  0  0
  -18.0400  -28.1140   22.9190 C   0  0  0  0  0  0  0  0  0  0  0  0
  -20.5990  -28.3780   23.1910 C   0  0  0  0  0  3  0  0  0  0  0  0
  -20.7030  -26.9500   22.6060 C   0  0  0  0  0  2  0  0  0  0  0  0
  -19.6030  -26.6310   21.5890 C   0  0  0  0  0  2  0  0  0  0  0  0
  -18.2200  -26.7690   22.2340 C   0  0  0  0  0  2  0  0  0  0  0  0
  -19.1570  -28.8760   23.3540 C   0  0  0  0  0  0  0  0  0  0  0  0
  -18.9350  -30.1330   23.9550 C   0  0  0  0  0  3  0  0  0  0  0  0
  -17.6290  -30.6300   24.1250 C   0  0  0  0  0  3  0  0  0  0  0  0
  -16.5270  -29.8660   23.7060 C   0  0  0  0  0  3  0  0  0  0  0  0
  -16.7330  -28.6100   23.1090 C   0  0  0  0  0  3  0  0  0  0  0  0
  -25.9100  -32.5230   23.8750 C   0  0  0  0  0  3  0  0  0  0  0  0
  -26.4120  -31.7550   25.1590 C   0  0  1  0  0  0  0  0  0  0  0  0
  -25.3090  -31.5330   26.2220 C   0  0  0  0  0  1  0  0  0  0  0  0
  -26.9850  -30.3700   24.7820 C   0  0  0  0  0  1  0  0  0  0  0  0
  -27.5660  -32.5420   25.8230 C   0  0  0  0  0  1  0  0  0  0  0  0
  -25.6130  -33.9260   24.1980 N   0  0  0  0  0  0  0  0  0  0  0  0
  -25.9290  -34.9720   23.4230 C   0  0  0  0  0  0  0  0  0  0  0  0
  -26.5710  -34.8560   22.3750 O   0  0  0  0  0  0  0  0  0  0  0  0
  -25.0380  -34.0910   25.0130 H   0  0  0  0  0  0  0  0  0  0  0  0
  -24.1840  -36.7590   23.1180 C   0  0  0  0  0  1  0  0  0  0  0  0
  -25.4590  -36.3670   23.8800 C   0  0  0  0  0  3  0  0  0  0  0  0
  -27.6230  -37.2700   24.6090 C   0  0  0  0  0  1  0  0  0  0  0  0
  -26.4840  -37.4200   23.7080 N   0  0  0  0  0  0  0  0  0  0  0  0
  -26.0830  -38.3410   23.8550 H   0  0  0  0  0  0  0  0  0  0  0  0
  1  2  1  0
  1 48  1  0
  3  1  1  0
  5 10  1  0
  6  7  1  0
  6  5  1  0
  8  7  1  0
  8 23  1  0
  8  9  1  0
 10  4  1  0
 10  9  1  0
 11  4  2  0
 13 17  1  0
 13 18  1  0
 15 19  1  0
 16 14  1  0
 16 12  1  0
 17 15  1  0
 17 16  1  0
 18  1  1  0
 18 12  1  0
 19  4  1  0
 19 14  1  0
 20 21  2  0
 21 40  1  0
 22 21  1  0
 22 25  1  0
 23 24  1  0
 23 20  1  0
 24 22  2  0
 25 26  1  0
 26 27  2  0
 28 31  1  0
 28 27  1  0
 29 28  2  0
 30 29  1  0
 30 25  2  0
 31 32  1  0
 32 33  1  0
 33 34  2  0
 35 34  1  0
 35 39  1  0
 36 35  2  0
 37 32  2  0
 37 36  1  0
 38 37  1  0
 40 41  1  0
 41 44  1  0
 41 43  1  0
 42 40  2  0
 45 20  1  0
 45 46  1  0
 47 45  1  0
 48 51  1  0
 48 50  1  0
 50 49  1  0
 51 52  1  0
 53 64  2  0
 54 52  1  0
 54 59  1  0
 55 63  1  0
 55 65  1  0
 56 62  1  0
 56 58  1  0
 57 63  1  0
 58 57  1  0
 59 58  2  0
 60 61  1  0
 60 54  2  0
 61 56  2  0
 62 55  1  0
 63 53  1  0
 65 67  2  0
 66 65  1  0
 68 66  1  0
 69 78  2  0
 69 74  1  0
 70 66  1  0
 70 74  1  0
 71 70  1  0
 72 73  1  0
 72 71  1  0
 73 69  1  0
 74 75  2  0
 75 76  1  0
 77 76  2  0
 78 77  1  0
 79 53  1  0
 79 84  1  0
 79 80  1  0
 80 83  1  1
 80 81  1  0
 82 80  1  0
 84 87  1  0
 85 89  1  0
 85 84  1  0
 86 85  2  0
 89 88  1  0
 91 92  1  0
 91 89  1  0
 91 90  1  0
M  ISO  4   4 100  19 100  51 101  52 101
M  END
>  <TORSDO>  (78) 
F 19

>  <SCORE>  (78) 
-13.840

>  <name>  (78) 
78

>  <ligand_id>  (78) 
78

>  <original_smiles>  (78) 
[H]c1c([H])c([H])c2c(c1[H])C([H])([H])C([H])([H])C([H])([H])C2([H])N([H])C(=O)C1([H])N(C(=O)C([H])(N([H])C(=O)C([H])(N([H])C([H])([H])[H])C([H])([H])[H])C(C([H])([H])[H])(C([H])([H])[H])C([H])([H])[H])C([H])([H])c2c([H])c(OC([H])([H])C([H])(C([H])([H])C([H])([H])[H])[N+]([H])([H])C3([H])C([H])([H])C4([H])C([H])([H])N(C(=O)N5C([H])([H])C([H])([H])C([H])([H])C([H])(n6nc(-c7c([H])c([H])c(Oc8c([H])c([H])c(F)c([H])c8F)c([H])c7[H])c(C(=O)N([H])[H])c6N([H])[H])C5([H])[H])C([H])([H])C4([H])C3([H])[H])c([H])c([H])c2C1([H])[H]

>  <smiles>  (78) 
[H]c1c([H])c([H])c2c(c1[H])C([H])([H])C([H])([H])C([H])([H])C2([H])N([H])C(=O)C1([H])N(C(=O)C([H])(N([H])C(=O)C([H])(N([H])C([H])([H])[H])C([H])([H])[H])C(C([H])([H])[H])(C([H])([H])[H])C([H])([H])[H])C([H])([H])c2c([H])c(OC([H])([H])C([H])(C([H])([H])C([H])([H])[H])[N+]([H])([H])C3([H])C([H])([H])C4([H])C([H])([H])N(C(=O)N5C([H])([H])C([H])([H])C([H])([H])C([H])(n6nc(-c7c([H])c([H])c(Oc8c([H])c([H])c(F)c([H])c8F)c([H])c7[H])c(C(=O)N([H])[H])c6N([H])[H])C5([H])[H])C([H])([H])C4([H])C3([H])[H])c([H])c([H])c2C1([H])[H]

$$$$
79:0:0
     RDKit          3D

 93101  0  0  1  0  0  0  0  0999 V2000
  -29.3450  -20.9780   19.4800 C   0  0  0  0  0  2  0  0  0  0  0  0
  -31.8570  -18.9120   22.5420 C   0  0  0  0  0  3  0  0  0  0  0  0
  -31.1200  -20.0610   22.8090 C   0  0  0  0  0  3  0  0  0  0  0  0
  -31.6730  -18.2520   21.3250 C   0  0  0  0  0  3  0  0  0  0  0  0
  -30.2680  -20.6070   21.8350 C   0  0  0  0  0  0  0  0  0  0  0  0
  -30.8020  -18.7230   20.3100 C   0  0  0  0  0  0  0  0  0  0  0  0
  -30.1800  -20.0700   20.5070 C   0  0  0  0  0  0  0  0  0  0  0  0
  -29.4080  -21.7560   22.3400 C   0  0  0  0  0  1  0  0  0  0  0  0
  -30.6670  -17.6160   19.1640 C   0  0  0  0  0  2  0  0  0  0  0  0
  -31.3280  -15.0150   19.5860 C   0  0  0  0  0  0  0  0  0  0  0  0
  -31.1430  -12.5950   18.9720 C   0  0  0  0  0  2  0  0  0  0  0  0
  -30.1760  -12.4680   17.7730 C   0  0  0  0  0  2  0  0  0  0  0  0
  -28.7120  -12.3830   18.2550 C   0  0  0  0  0  2  0  0  0  0  0  0
  -28.3690  -13.4500   19.3290 C   0  0  0  0  0  3  0  0  0  0  0  0
  -29.4520  -13.5250   20.4260 C   0  0  0  0  0  2  0  0  0  0  0  0
  -30.7310  -13.7840   19.7530 N   0  0  0  0  0  0  0  0  0  0  0  0
  -32.5100  -15.0810   19.2340 O   0  0  0  0  0  0  0  0  0  0  0  0
  -30.4990  -16.1360   19.5950 N   0  0  0  0  0  0  0  0  0  0  0  0
  -29.5550  -15.9110   19.8650 H   0  0  0  0  0  0  0  0  0  0  0  0
  -26.0730  -14.2180   20.1790 C   0  0  0  0  0  0  0  0  0  0  0  0
  -24.9730  -13.5230   20.6030 C   0  0  0  0  0  0  0  0  0  0  0  0
  -25.3320  -12.1410   20.5460 C   0  0  0  0  0  0  0  0  0  0  0  0
  -27.0350  -13.2630   19.8870 N   0  0  0  0  0  0  0  0  0  0  0  0
  -26.5990  -12.0090   20.1730 N   0  0  0  0  0  0  0  0  0  0  0  0
  -24.5220  -10.9360   20.7680 C   0  0  0  0  0  0  0  0  0  0  0  0
  -24.8790   -9.9750   21.7380 C   0  0  0  0  0  3  0  0  0  0  0  0
  -24.0730   -8.8350   21.9450 C   0  0  0  0  0  3  0  0  0  0  0  0
  -22.8950   -8.6490   21.1820 C   0  0  0  0  0  0  0  0  0  0  0  0
  -22.5580   -9.5970   20.2000 C   0  0  0  0  0  3  0  0  0  0  0  0
  -23.3650  -10.7290   19.9920 C   0  0  0  0  0  3  0  0  0  0  0  0
  -22.0650   -7.5590   21.2960 O   0  0  0  0  0  0  0  0  0  0  0  0
  -21.8880   -6.9120   22.4920 C   0  0  0  0  0  0  0  0  0  0  0  0
  -21.4090   -7.5830   23.6380 C   0  0  0  0  0  3  0  0  0  0  0  0
  -21.1760   -6.8650   24.8280 C   0  0  0  0  0  3  0  0  0  0  0  0
  -21.4120   -5.4780   24.8730 C   0  0  0  0  0  0  0  0  0  0  0  0
  -21.8840   -4.8080   23.7300 C   0  0  0  0  0  3  0  0  0  0  0  0
  -22.1190   -5.5230   22.5420 C   0  0  0  0  0  0  0  0  0  0  0  0
  -22.5540   -4.8680   21.4400 F   0  0  0  0  0  0  0  0  0  0  0  0
  -21.1800   -4.7870   26.0130 F   0  0  0  0  0  0  0  0  0  0  0  0
  -23.6320  -14.1040   20.9450 C   0  0  0  0  0  0  0  0  0  0  0  0
  -22.9090  -13.4780   21.8680 N   0  0  0  0  0  0  0  0  0  0  0  0
  -23.2380  -15.1470   20.4260 O   0  0  0  0  0  0  0  0  0  0  0  0
  -23.2420  -12.6330   22.3080 H   0  0  0  0  0  0  0  0  0  0  0  0
  -22.0090  -13.8500   22.1360 H   0  0  0  0  0  0  0  0  0  0  0  0
  -26.3260  -15.5740   19.9940 N   0  0  0  0  0  0  0  0  0  0  0  0
  -25.6060  -16.2700   20.1480 H   0  0  0  0  0  0  0  0  0  0  0  0
  -27.1660  -15.9640   19.5880 H   0  0  0  0  0  0  0  0  0  0  0  0
  -29.5320  -22.5240   19.3630 N   0  0  0  0  0  4  0  0  0  0  0  0
  -30.4310  -22.7380   19.7630 H   0  0  0  0  0  0  0  0  0  0  0  0
  -29.6440  -22.6530   18.3710 H   0  0  0  0  0  0  0  0  0  0  0  0
  -28.5220  -23.6420   19.7910 C   0  0  0  0  0  2  0  0  0  0  0  0
  -28.4740  -25.0760   18.9960 C   0  0  0  0  0  2  0  0  0  0  0  0
  -28.3460  -26.4620   19.6010 O   0  0  0  0  0  0  0  0  0  0  0  0
  -24.7130  -31.6720   23.1030 C   0  0  0  0  0  0  0  0  0  0  0  0
  -27.2060  -27.3070   19.6140 C   0  0  0  0  0  0  0  0  0  0  0  0
  -23.4410  -30.3720   21.4310 C   0  0  0  0  0  3  0  0  0  0  0  0
  -24.8320  -28.9270   19.8270 C   0  0  0  0  0  0  0  0  0  0  0  0
  -25.9670  -30.7170   21.1450 C   0  0  0  0  0  2  0  0  0  0  0  0
  -26.0240  -29.3790   20.4010 C   0  0  0  0  0  0  0  0  0  0  0  0
  -27.2080  -28.5810   20.2870 C   0  0  0  0  0  3  0  0  0  0  0  0
  -25.9890  -26.9200   19.0160 C   0  0  0  0  0  3  0  0  0  0  0  0
  -24.8180  -27.7080   19.1240 C   0  0  0  0  0  3  0  0  0  0  0  0
  -23.5940  -29.7910   19.9980 C   0  0  0  0  0  2  0  0  0  0  0  0
  -24.7290  -30.9360   21.9500 N   0  0  0  0  0  0  0  0  0  0  0  0
  -23.6570  -31.9000   23.7100 O   0  0  0  0  0  0  0  0  0  0  0  0
  -22.8320  -29.2890   22.3540 C   0  0  0  0  0  0  0  0  0  0  0  0
  -21.5080  -29.0760   22.2550 N   0  0  0  0  0  0  0  0  0  0  0  0
  -23.5500  -28.6440   23.1240 O   0  0  0  0  0  0  0  0  0  0  0  0
  -20.9800  -29.6570   21.6190 H   0  0  0  0  0  0  0  0  0  0  0  0
  -18.2000  -27.6860   22.7130 C   0  0  0  0  0  0  0  0  0  0  0  0
  -20.7420  -28.0710   22.9930 C   0  0  0  0  0  3  0  0  0  0  0  0
  -20.9170  -26.6650   22.3720 C   0  0  0  0  0  2  0  0  0  0  0  0
  -19.8330  -26.3210   21.3460 C   0  0  0  0  0  2  0  0  0  0  0  0
  -18.4460  -26.3700   21.9940 C   0  0  0  0  0  2  0  0  0  0  0  0
  -19.2770  -28.4920   23.1700 C   0  0  0  0  0  0  0  0  0  0  0  0
  -18.9910  -29.7210   23.8010 C   0  0  0  0  0  3  0  0  0  0  0  0
  -17.6620  -30.1450   23.9840 C   0  0  0  0  0  3  0  0  0  0  0  0
  -16.6000  -29.3360   23.5450 C   0  0  0  0  0  3  0  0  0  0  0  0
  -16.8690  -28.1100   22.9130 C   0  0  0  0  0  3  0  0  0  0  0  0
  -26.0190  -32.2810   23.7020 C   0  0  0  0  0  3  0  0  0  0  0  0
  -25.7110  -33.6460   24.1570 N   0  0  0  0  0  0  0  0  0  0  0  0
  -26.0320  -34.7610   23.4900 C   0  0  0  0  0  0  0  0  0  0  0  0
  -26.6880  -34.7500   22.4450 O   0  0  0  0  0  0  0  0  0  0  0  0
  -25.1270  -33.7290   24.9770 H   0  0  0  0  0  0  0  0  0  0  0  0
  -24.3030  -36.5830   23.3180 C   0  0  0  0  0  1  0  0  0  0  0  0
  -25.5510  -36.1050   24.0750 C   0  0  0  0  0  3  0  0  0  0  0  0
  -27.6980  -36.9100   24.9560 C   0  0  0  0  0  1  0  0  0  0  0  0
  -26.5830  -37.1640   24.0460 N   0  0  0  0  0  0  0  0  0  0  0  0
  -26.1800  -38.0650   24.2860 H   0  0  0  0  0  0  0  0  0  0  0  0
  -26.6130  -31.4240   24.8870 C   0  0  1  0  0  0  0  0  0  0  0  0
  -25.5880  -31.0940   25.9980 C   0  0  0  0  0  1  0  0  0  0  0  0
  -27.1830  -30.0850   24.3650 C   0  0  0  0  0  1  0  0  0  0  0  0
  -27.7900  -32.1830   25.5430 C   0  0  0  0  0  1  0  0  0  0  0  0
  1  7  1  0
  2  3  1  0
  4  2  2  0
  5  8  1  0
  5  3  2  0
  6  7  2  0
  6  4  1  0
  7  5  1  0
  9 18  1  0
  9  6  1  0
 10 18  1  0
 10 16  1  0
 11 16  1  0
 12 13  1  0
 12 11  1  0
 14 13  1  0
 14 23  1  0
 14 15  1  0
 16 15  1  0
 17 10  2  0
 18 19  1  0
 20 21  2  0
 21 40  1  0
 22 21  1  0
 22 25  1  0
 23 24  1  0
 23 20  1  0
 24 22  2  0
 25 26  1  0
 26 27  2  0
 28 31  1  0
 28 27  1  0
 29 28  2  0
 30 29  1  0
 30 25  2  0
 31 32  1  0
 32 37  2  0
 32 33  1  0
 33 34  2  0
 34 35  1  0
 35 39  1  0
 36 35  2  0
 37 36  1  0
 38 37  1  0
 40 41  1  0
 41 44  1  0
 41 43  1  0
 42 40  2  0
 45 46  1  0
 45 20  1  0
 47 45  1  0
 48  1  1  0
 48 49  1  0
 48 51  1  0
 50 48  1  0
 52 53  1  0
 52 51  1  0
 53 55  1  0
 54 65  2  0
 55 60  1  0
 56 64  1  0
 56 66  1  0
 57 63  1  0
 57 59  1  0
 58 64  1  0
 59 58  1  0
 60 59  2  0
 61 62  1  0
 61 55  2  0
 62 57  2  0
 63 56  1  0
 64 54  1  0
 66 68  2  0
 67 66  1  0
 69 67  1  0
 70 79  2  0
 70 75  1  0
 71 67  1  0
 71 75  1  0
 72 71  1  0
 73 74  1  0
 73 72  1  0
 74 70  1  0
 75 76  2  0
 76 77  1  0
 78 77  2  0
 79 78  1  0
 80 54  1  0
 80 81  1  0
 80 90  1  0
 81 84  1  0
 82 86  1  0
 82 81  1  0
 83 82  2  0
 86 85  1  0
 88 86  1  0
 88 89  1  0
 88 87  1  0
 90 93  1  1
 90 91  1  0
 92 90  1  0
M  ISO  4  10 100  18 100  52 101  53 101
M  END
>  <TORSDO>  (79) 
F 21

>  <SCORE>  (79) 
-12.145

>  <name>  (79) 
79

>  <ligand_id>  (79) 
79

>  <original_smiles>  (79) 
[H]c1c([H])c(C([H])([H])[H])c(C([H])([H])[N+]([H])([H])C([H])([H])C([H])([H])Oc2c([H])c([H])c3c(c2[H])C([H])([H])N(C(=O)C([H])(N([H])C(=O)C([H])(N([H])C([H])([H])[H])C([H])([H])[H])C(C([H])([H])[H])(C([H])([H])[H])C([H])([H])[H])C([H])(C(=O)N([H])C2([H])c4c([H])c([H])c([H])c([H])c4C([H])([H])C([H])([H])C2([H])[H])C3([H])[H])c(C([H])([H])N([H])C(=O)N2C([H])([H])C([H])([H])C([H])([H])C([H])(n3nc(-c4c([H])c([H])c(Oc5c([H])c([H])c(F)c([H])c5F)c([H])c4[H])c(C(=O)N([H])[H])c3N([H])[H])C2([H])[H])c1[H]

>  <smiles>  (79) 
[H]c1c([H])c(C([H])([H])[H])c(C([H])([H])[N+]([H])([H])C([H])([H])C([H])([H])Oc2c([H])c([H])c3c(c2[H])C([H])([H])N(C(=O)C([H])(N([H])C(=O)C([H])(N([H])C([H])([H])[H])C([H])([H])[H])C(C([H])([H])[H])(C([H])([H])[H])C([H])([H])[H])C([H])(C(=O)N([H])C2([H])c4c([H])c([H])c([H])c([H])c4C([H])([H])C([H])([H])C2([H])[H])C3([H])[H])c(C([H])([H])N([H])C(=O)N2C([H])([H])C([H])([H])C([H])([H])C([H])(n3nc(-c4c([H])c([H])c(Oc5c([H])c([H])c(F)c([H])c5F)c([H])c4[H])c(C(=O)N([H])[H])c3N([H])[H])C2([H])[H])c1[H]

$$$$
80:0:0
     RDKit          3D

 94103  0  0  1  0  0  0  0  0999 V2000
  -28.1350  -19.7080   20.5950 C   0  0  0  0  0  2  0  0  0  0  0  0
  -29.1940  -21.8610   19.6780 C   0  0  0  0  0  3  0  0  0  0  0  0
  -29.6510  -19.2610   20.5450 C   0  0  0  0  0  3  0  0  0  0  0  0
  -27.9330  -21.2500   20.2180 C   0  0  0  0  0  3  0  0  0  0  0  0
  -30.2510  -20.6350   19.8760 C   0  0  0  0  0  3  0  0  0  0  0  0
  -28.8380  -23.2440   20.5130 C   0  0  0  0  0  3  0  0  0  0  0  0
  -27.9590  -22.3080   21.2740 N   0  0  0  0  0  4  0  0  0  0  0  0
  -28.3990  -22.0040   22.1260 H   0  0  0  0  0  0  0  0  0  0  0  0
  -27.0500  -22.6900   21.4770 H   0  0  0  0  0  0  0  0  0  0  0  0
  -31.5270  -21.0710   20.4770 N   0  0  0  0  0  4  0  0  0  0  0  0
  -31.4280  -21.3440   21.4370 H   0  0  0  0  0  0  0  0  0  0  0  0
  -31.9080  -21.8450   19.9630 H   0  0  0  0  0  0  0  0  0  0  0  0
  -32.2030  -20.3300   20.4350 H   0  0  0  0  0  0  0  0  0  0  0  0
  -30.1580  -17.7360   19.9500 C   0  0  0  0  0  2  0  0  0  0  0  0
  -30.6150  -15.0420   20.2640 C   0  0  0  0  0  0  0  0  0  0  0  0
  -30.4740  -12.6940   19.3160 C   0  0  0  0  0  2  0  0  0  0  0  0
  -29.5390  -12.6620   18.0840 C   0  0  0  0  0  2  0  0  0  0  0  0
  -28.0790  -12.4450   18.5210 C   0  0  0  0  0  2  0  0  0  0  0  0
  -27.6780  -13.3570   19.7090 C   0  0  0  0  0  3  0  0  0  0  0  0
  -28.7370  -13.3690   20.8330 C   0  0  0  0  0  2  0  0  0  0  0  0
  -30.0070  -13.7850   20.2240 N   0  0  0  0  0  0  0  0  0  0  0  0
  -31.8040  -15.0920   19.9340 O   0  0  0  0  0  0  0  0  0  0  0  0
  -29.8710  -16.2490   20.4450 N   0  0  0  0  0  0  0  0  0  0  0  0
  -28.9200  -16.0880   20.7450 H   0  0  0  0  0  0  0  0  0  0  0  0
  -25.2930  -13.9200   20.4470 C   0  0  0  0  0  0  0  0  0  0  0  0
  -24.2360  -13.1380   20.8210 C   0  0  0  0  0  0  0  0  0  0  0  0
  -24.7110  -11.7900   20.7970 C   0  0  0  0  0  0  0  0  0  0  0  0
  -26.3430  -13.0480   20.2100 N   0  0  0  0  0  0  0  0  0  0  0  0
  -26.0020  -11.7630   20.4870 N   0  0  0  0  0  0  0  0  0  0  0  0
  -23.9930  -10.5240   20.9930 C   0  0  0  0  0  0  0  0  0  0  0  0
  -24.4260   -9.5670   21.9370 C   0  0  0  0  0  3  0  0  0  0  0  0
  -23.7060   -8.3660   22.1220 C   0  0  0  0  0  3  0  0  0  0  0  0
  -22.5400   -8.1140   21.3610 C   0  0  0  0  0  0  0  0  0  0  0  0
  -22.1260   -9.0590   20.4060 C   0  0  0  0  0  3  0  0  0  0  0  0
  -22.8470  -10.2510   20.2200 C   0  0  0  0  0  3  0  0  0  0  0  0
  -21.7930   -6.9640   21.4540 O   0  0  0  0  0  0  0  0  0  0  0  0
  -21.7360   -6.2350   22.6140 C   0  0  0  0  0  0  0  0  0  0  0  0
  -21.2770   -6.7960   23.8250 C   0  0  0  0  0  3  0  0  0  0  0  0
  -21.1680   -5.9910   24.9770 C   0  0  0  0  0  3  0  0  0  0  0  0
  -21.5080   -4.6270   24.9190 C   0  0  0  0  0  0  0  0  0  0  0  0
  -21.9600   -4.0650   23.7130 C   0  0  0  0  0  3  0  0  0  0  0  0
  -22.0700   -4.8670   22.5620 C   0  0  0  0  0  0  0  0  0  0  0  0
  -22.4860   -4.3140   21.3970 F   0  0  0  0  0  0  0  0  0  0  0  0
  -21.3960   -3.8520   26.0240 F   0  0  0  0  0  0  0  0  0  0  0  0
  -22.8350  -13.6070   21.0870 C   0  0  0  0  0  0  0  0  0  0  0  0
  -22.1110  -12.9100   21.9550 N   0  0  0  0  0  0  0  0  0  0  0  0
  -22.3910  -14.6260   20.5610 O   0  0  0  0  0  0  0  0  0  0  0  0
  -22.4820  -12.0860   22.4050 H   0  0  0  0  0  0  0  0  0  0  0  0
  -21.1700  -13.2060   22.1760 H   0  0  0  0  0  0  0  0  0  0  0  0
  -25.4460  -15.2900   20.2600 N   0  0  0  0  0  0  0  0  0  0  0  0
  -24.6730  -15.9370   20.3650 H   0  0  0  0  0  0  0  0  0  0  0  0
  -26.2790  -15.7280   19.8900 H   0  0  0  0  0  0  0  0  0  0  0  0
  -28.0270  -24.6520   19.9900 C   0  0  0  0  0  2  0  0  0  0  0  0
  -28.2600  -26.1720   20.3090 O   0  0  0  0  0  0  0  0  0  0  0  0
  -24.6100  -31.8890   23.2290 C   0  0  0  0  0  0  0  0  0  0  0  0
  -27.2160  -27.1740   20.2060 C   0  0  0  0  0  0  0  0  0  0  0  0
  -23.4250  -30.4970   21.5760 C   0  0  0  0  0  3  0  0  0  0  0  0
  -24.8880  -28.9300   20.1550 C   0  0  0  0  0  0  0  0  0  0  0  0
  -25.9810  -30.7610   21.4370 C   0  0  0  0  0  2  0  0  0  0  0  0
  -26.0620  -29.3700   20.7800 C   0  0  0  0  0  0  0  0  0  0  0  0
  -27.2240  -28.5070   20.7930 C   0  0  0  0  0  3  0  0  0  0  0  0
  -26.0210  -26.8500   19.5230 C   0  0  0  0  0  3  0  0  0  0  0  0
  -24.8830  -27.6850   19.5090 C   0  0  0  0  0  3  0  0  0  0  0  0
  -23.6590  -29.8260   20.1970 C   0  0  0  0  0  2  0  0  0  0  0  0
  -24.6920  -31.0720   22.1350 N   0  0  0  0  0  0  0  0  0  0  0  0
  -23.5190  -32.1720   23.7490 O   0  0  0  0  0  0  0  0  0  0  0  0
  -22.7400  -29.4870   22.5300 C   0  0  0  0  0  0  0  0  0  0  0  0
  -21.4120  -29.3190   22.3960 N   0  0  0  0  0  0  0  0  0  0  0  0
  -23.4060  -28.8550   23.3540 O   0  0  0  0  0  0  0  0  0  0  0  0
  -20.9310  -29.8780   21.7060 H   0  0  0  0  0  0  0  0  0  0  0  0
  -18.0220  -28.1410   22.8950 C   0  0  0  0  0  0  0  0  0  0  0  0
  -20.5840  -28.3810   23.1590 C   0  0  0  0  0  3  0  0  0  0  0  0
  -20.6720  -26.9540   22.5690 C   0  0  0  0  0  2  0  0  0  0  0  0
  -19.5650  -26.6510   21.5540 C   0  0  0  0  0  2  0  0  0  0  0  0
  -18.1870  -26.7990   22.2020 C   0  0  0  0  0  2  0  0  0  0  0  0
  -19.1480  -28.8920   23.3290 C   0  0  0  0  0  0  0  0  0  0  0  0
  -18.9380  -30.1470   23.9390 C   0  0  0  0  0  3  0  0  0  0  0  0
  -17.6370  -30.6540   24.1170 C   0  0  0  0  0  3  0  0  0  0  0  0
  -16.5270  -29.9020   23.6970 C   0  0  0  0  0  3  0  0  0  0  0  0
  -16.7200  -28.6480   23.0910 C   0  0  0  0  0  3  0  0  0  0  0  0
  -25.8820  -32.5250   23.8680 C   0  0  0  0  0  3  0  0  0  0  0  0
  -26.3740  -31.7620   25.1600 C   0  0  1  0  0  0  0  0  0  0  0  0
  -25.2620  -31.5390   26.2120 C   0  0  0  0  0  1  0  0  0  0  0  0
  -26.9570  -30.3790   24.7940 C   0  0  0  0  0  1  0  0  0  0  0  0
  -27.5150  -32.5580   25.8350 C   0  0  0  0  0  1  0  0  0  0  0  0
  -25.5690  -33.9270   24.1910 N   0  0  0  0  0  0  0  0  0  0  0  0
  -25.9040  -34.9800   23.4330 C   0  0  0  0  0  0  0  0  0  0  0  0
  -26.5750  -34.8730   22.4040 O   0  0  0  0  0  0  0  0  0  0  0  0
  -24.9720  -34.0830   24.9900 H   0  0  0  0  0  0  0  0  0  0  0  0
  -24.1780  -36.7770   23.0770 C   0  0  0  0  0  1  0  0  0  0  0  0
  -25.4190  -36.3710   23.8880 C   0  0  0  0  0  3  0  0  0  0  0  0
  -27.5510  -37.2600   24.7200 C   0  0  0  0  0  1  0  0  0  0  0  0
  -26.4530  -37.4230   23.7710 N   0  0  0  0  0  0  0  0  0  0  0  0
  -26.0470  -38.3440   23.9110 H   0  0  0  0  0  0  0  0  0  0  0  0
  2  5  1  0
  2  4  1  0
  2  6  1  0
  3  1  1  0
  4  1  1  0
  4  7  1  0
  5 10  1  0
  5  3  1  0
  6  7  1  0
  7  9  1  0
  7  8  1  0
 10 11  1  0
 12 10  1  0
 13 10  1  0
 14 23  1  0
 14  3  1  0
 15 23  1  0
 16 21  1  0
 17 18  1  0
 17 16  1  0
 18 19  1  0
 19 28  1  0
 19 20  1  0
 21 15  1  0
 21 20  1  0
 22 15  2  0
 23 24  1  0
 25 26  2  0
 26 45  1  0
 27 26  1  0
 27 30  1  0
 28 25  1  0
 28 29  1  0
 29 27  2  0
 30 31  1  0
 31 32  2  0
 33 36  1  0
 33 32  1  0
 34 33  2  0
 35 34  1  0
 35 30  2  0
 36 37  1  0
 37 38  1  0
 38 39  2  0
 40 39  1  0
 40 44  1  0
 41 40  2  0
 42 37  2  0
 42 41  1  0
 43 42  1  0
 45 46  1  0
 46 49  1  0
 46 48  1  0
 47 45  2  0
 50 51  1  0
 50 25  1  0
 52 50  1  0
 53 54  1  0
 53  6  1  0
 55 66  2  0
 55 81  1  0
 56 54  1  0
 56 61  1  0
 57 65  1  0
 57 67  1  0
 58 64  1  0
 58 60  1  0
 59 65  1  0
 60 61  2  0
 60 59  1  0
 62 56  2  0
 63 62  1  0
 63 58  2  0
 64 57  1  0
 65 55  1  0
 67 69  2  0
 68 67  1  0
 68 72  1  0
 70 68  1  0
 71 80  2  0
 71 76  1  0
 72 76  1  0
 73 72  1  0
 74 75  1  0
 74 73  1  0
 75 71  1  0
 76 77  2  0
 77 78  1  0
 79 78  2  0
 80 79  1  0
 81 86  1  0
 81 82  1  0
 82 85  1  1
 82 83  1  0
 84 82  1  0
 86 89  1  0
 87 91  1  0
 87 86  1  0
 88 87  2  0
 90 91  1  0
 93 91  1  0
 93 94  1  0
 93 92  1  0
M  ISO  4  15 100  23 100  53 101  54 101
M  END
>  <TORSDO>  (80) 
F 19

>  <SCORE>  (80) 
-15.668

>  <name>  (80) 
80

>  <ligand_id>  (80) 
80

>  <original_smiles>  (80) 
[H]c1c([H])c([H])c2c(c1[H])C([H])([H])C([H])([H])C([H])([H])C2([H])N([H])C(=O)C1([H])N(C(=O)C([H])(N([H])C(=O)C([H])(N([H])C([H])([H])[H])C([H])([H])[H])C(C([H])([H])[H])(C([H])([H])[H])C([H])([H])[H])C([H])([H])c2c([H])c(OC([H])([H])C3([H])C4([H])C([H])([N+]([H])([H])[H])C([H])(C([H])([H])N([H])C(=O)N5C([H])([H])C([H])([H])C([H])([H])C([H])(n6nc(-c7c([H])c([H])c(Oc8c([H])c([H])c(F)c([H])c8F)c([H])c7[H])c(C(=O)N([H])[H])c6N([H])[H])C5([H])[H])C([H])([H])C4([H])[N+]3([H])[H])c([H])c([H])c2C1([H])[H]

>  <smiles>  (80) 
[H]c1c([H])c([H])c2c(c1[H])C([H])([H])C([H])([H])C([H])([H])C2([H])N([H])C(=O)C1([H])N(C(=O)C([H])(N([H])C(=O)C([H])(N([H])C([H])([H])[H])C([H])([H])[H])C(C([H])([H])[H])(C([H])([H])[H])C([H])([H])[H])C([H])([H])c2c([H])c(OC([H])([H])C3([H])C4([H])C([H])([N+]([H])([H])[H])C([H])(C([H])([H])N([H])C(=O)N5C([H])([H])C([H])([H])C([H])([H])C([H])(n6nc(-c7c([H])c([H])c(Oc8c([H])c([H])c(F)c([H])c8F)c([H])c7[H])c(C(=O)N([H])[H])c6N([H])[H])C5([H])[H])C([H])([H])C4([H])[N+]3([H])[H])c([H])c([H])c2C1([H])[H]

$$$$
81:0:0
     RDKit          3D

 98107  0  0  1  0  0  0  0  0999 V2000
  -29.7790  -18.8800   21.3890 C   0  0  0  0  0  2  0  0  0  0  0  0
  -32.0580  -19.2000   20.1700 C   0  0  0  0  0  2  0  0  0  0  0  0
  -31.0770  -20.3070   23.0950 C   0  0  0  0  0  2  0  0  0  0  0  0
  -30.0410  -20.3020   21.9560 C   0  0  0  0  0  3  0  0  0  0  0  0
  -32.1280  -20.5570   20.9010 C   0  0  0  0  0  3  0  0  0  0  0  0
  -31.0460  -18.1870   20.8000 C   0  0  0  0  0  3  0  0  0  0  0  0
  -30.7050  -21.1230   20.8440 C   0  0  0  0  0  3  0  0  0  0  0  0
  -32.4560  -20.3580   22.4020 C   0  0  0  0  0  3  0  0  0  0  0  0
  -29.5770  -23.3170   20.6100 C   0  0  0  0  0  0  0  0  0  0  0  0
  -30.6320  -22.5800   20.9840 N   0  0  0  0  0  0  0  0  0  0  0  0
  -28.5040  -22.8020   20.2840 O   0  0  0  0  0  0  0  0  0  0  0  0
  -31.4840  -23.0810   21.1910 H   0  0  0  0  0  0  0  0  0  0  0  0
  -29.7680  -24.8400   20.5630 C   0  0  0  0  0  2  0  0  0  0  0  0
  -28.6120  -25.5590   19.8440 C   0  0  0  0  0  2  0  0  0  0  0  0
  -28.7030  -26.9830   19.9790 O   0  0  0  0  0  0  0  0  0  0  0  0
  -24.7290  -31.8260   23.3050 C   0  0  0  0  0  0  0  0  0  0  0  0
  -27.5090  -27.6730   19.9710 C   0  0  0  0  0  0  0  0  0  0  0  0
  -23.5640  -30.4780   21.5890 C   0  0  0  0  0  3  0  0  0  0  0  0
  -25.0640  -29.0880   20.0700 C   0  0  0  0  0  0  0  0  0  0  0  0
  -26.0740  -30.9420   21.4060 C   0  0  0  0  0  2  0  0  0  0  0  0
  -26.2040  -29.6160   20.6870 C   0  0  0  0  0  0  0  0  0  0  0  0
  -27.4290  -28.9160   20.6360 C   0  0  0  0  0  3  0  0  0  0  0  0
  -26.3530  -27.1710   19.3270 C   0  0  0  0  0  3  0  0  0  0  0  0
  -25.1330  -27.8650   19.3850 C   0  0  0  0  0  3  0  0  0  0  0  0
  -23.7910  -29.8960   20.1710 C   0  0  0  0  0  2  0  0  0  0  0  0
  -24.8070  -31.0940   22.1580 N   0  0  0  0  0  0  0  0  0  0  0  0
  -23.6420  -32.0270   23.8650 O   0  0  0  0  0  0  0  0  0  0  0  0
  -22.9600  -29.3770   22.4890 C   0  0  0  0  0  0  0  0  0  0  0  0
  -21.6530  -29.1150   22.3180 N   0  0  0  0  0  0  0  0  0  0  0  0
  -23.6620  -28.7640   23.2980 O   0  0  0  0  0  0  0  0  0  0  0  0
  -21.1470  -29.6660   21.6400 H   0  0  0  0  0  0  0  0  0  0  0  0
  -18.3540  -27.6830   22.6600 C   0  0  0  0  0  0  0  0  0  0  0  0
  -20.8780  -28.0990   23.0290 C   0  0  0  0  0  3  0  0  0  0  0  0
  -21.0960  -26.6990   22.4090 C   0  0  0  0  0  2  0  0  0  0  0  0
  -20.0510  -26.3400   21.3490 C   0  0  0  0  0  2  0  0  0  0  0  0
  -18.6430  -26.3720   21.9480 C   0  0  0  0  0  2  0  0  0  0  0  0
  -19.4040  -28.5010   23.1540 C   0  0  0  0  0  0  0  0  0  0  0  0
  -19.0820  -29.7270   23.7760 C   0  0  0  0  0  3  0  0  0  0  0  0
  -17.7420  -30.1350   23.9110 C   0  0  0  0  0  3  0  0  0  0  0  0
  -16.7060  -29.3150   23.4340 C   0  0  0  0  0  3  0  0  0  0  0  0
  -17.0120  -28.0900   22.8140 C   0  0  0  0  0  3  0  0  0  0  0  0
  -25.9960  -32.4670   23.9540 C   0  0  0  0  0  3  0  0  0  0  0  0
  -25.6790  -33.8700   24.2500 N   0  0  0  0  0  0  0  0  0  0  0  0
  -26.0260  -34.9070   23.4760 C   0  0  0  0  0  0  0  0  0  0  0  0
  -26.7190  -34.7840   22.4630 O   0  0  0  0  0  0  0  0  0  0  0  0
  -25.0680  -34.0410   25.0350 H   0  0  0  0  0  0  0  0  0  0  0  0
  -24.3000  -36.6850   23.0460 C   0  0  0  0  0  1  0  0  0  0  0  0
  -25.5240  -36.3020   23.8940 C   0  0  0  0  0  3  0  0  0  0  0  0
  -27.6260  -37.2230   24.7670 C   0  0  0  0  0  1  0  0  0  0  0  0
  -26.5560  -37.3570   23.7830 N   0  0  0  0  0  0  0  0  0  0  0  0
  -26.1420  -38.2790   23.8870 H   0  0  0  0  0  0  0  0  0  0  0  0
  -26.4750  -31.7150   25.2550 C   0  0  1  0  0  0  0  0  0  0  0  0
  -25.3500  -31.4850   26.2910 C   0  0  0  0  0  1  0  0  0  0  0  0
  -27.0780  -30.3370   24.8980 C   0  0  0  0  0  1  0  0  0  0  0  0
  -27.5990  -32.5240   25.9440 C   0  0  0  0  0  1  0  0  0  0  0  0
  -33.3340  -21.4090   22.9560 N   0  0  0  0  0  4  0  0  0  0  0  0
  -32.9090  -22.3170   22.9290 H   0  0  0  0  0  0  0  0  0  0  0  0
  -34.2010  -21.4460   22.4460 H   0  0  0  0  0  0  0  0  0  0  0  0
  -33.5600  -21.1990   23.9130 H   0  0  0  0  0  0  0  0  0  0  0  0
  -30.6850  -17.1250   19.7360 C   0  0  0  0  0  2  0  0  0  0  0  0
  -30.9660  -14.6870   19.8880 C   0  0  0  0  0  0  0  0  0  0  0  0
  -30.5890  -12.4520   18.9510 C   0  0  0  0  0  2  0  0  0  0  0  0
  -29.6010  -12.5720   17.7750 C   0  0  0  0  0  2  0  0  0  0  0  0
  -28.1520  -12.4550   18.2820 C   0  0  0  0  0  2  0  0  0  0  0  0
  -27.8610  -13.3860   19.4910 C   0  0  0  0  0  3  0  0  0  0  0  0
  -28.9710  -13.2880   20.5630 C   0  0  0  0  0  2  0  0  0  0  0  0
  -30.2670  -13.5230   19.9080 N   0  0  0  0  0  0  0  0  0  0  0  0
  -32.0800  -14.7760   19.3690 O   0  0  0  0  0  0  0  0  0  0  0  0
  -30.3000  -15.7990   20.2490 N   0  0  0  0  0  0  0  0  0  0  0  0
  -29.3790  -15.6850   20.6450 H   0  0  0  0  0  0  0  0  0  0  0  0
  -25.5300  -14.0180   20.3780 C   0  0  0  0  0  0  0  0  0  0  0  0
  -24.4740  -13.2570   20.8010 C   0  0  0  0  0  0  0  0  0  0  0  0
  -24.9030  -11.8980   20.7050 C   0  0  0  0  0  0  0  0  0  0  0  0
  -26.5390  -13.1240   20.0550 N   0  0  0  0  0  0  0  0  0  0  0  0
  -26.1690  -11.8420   20.3090 N   0  0  0  0  0  0  0  0  0  0  0  0
  -24.1650  -10.6450   20.9120 C   0  0  0  0  0  0  0  0  0  0  0  0
  -24.5910   -9.6840   21.8560 C   0  0  0  0  0  3  0  0  0  0  0  0
  -23.8540   -8.4960   22.0510 C   0  0  0  0  0  3  0  0  0  0  0  0
  -22.6760   -8.2600   21.3020 C   0  0  0  0  0  0  0  0  0  0  0  0
  -22.2700   -9.2090   20.3480 C   0  0  0  0  0  3  0  0  0  0  0  0
  -23.0070  -10.3890   20.1510 C   0  0  0  0  0  3  0  0  0  0  0  0
  -21.9110   -7.1240   21.4060 O   0  0  0  0  0  0  0  0  0  0  0  0
  -21.8140   -6.4270   22.5830 C   0  0  0  0  0  0  0  0  0  0  0  0
  -21.2750   -7.0070   23.7510 C   0  0  0  0  0  3  0  0  0  0  0  0
  -21.1300   -6.2330   24.9210 C   0  0  0  0  0  3  0  0  0  0  0  0
  -21.5130   -4.8790   24.9210 C   0  0  0  0  0  0  0  0  0  0  0  0
  -22.0450   -4.2970   23.7570 C   0  0  0  0  0  3  0  0  0  0  0  0
  -22.1920   -5.0680   22.5900 C   0  0  0  0  0  0  0  0  0  0  0  0
  -22.6860   -4.4970   21.4650 F   0  0  0  0  0  0  0  0  0  0  0  0
  -21.3670   -4.1330   26.0410 F   0  0  0  0  0  0  0  0  0  0  0  0
  -23.1090  -13.7530   21.1800 C   0  0  0  0  0  0  0  0  0  0  0  0
  -22.4270  -13.0480   22.0750 N   0  0  0  0  0  0  0  0  0  0  0  0
  -22.6580  -14.8010   20.7170 O   0  0  0  0  0  0  0  0  0  0  0  0
  -22.8050  -12.2000   22.4710 H   0  0  0  0  0  0  0  0  0  0  0  0
  -21.5130  -13.3610   22.3710 H   0  0  0  0  0  0  0  0  0  0  0  0
  -25.7110  -15.3890   20.2230 N   0  0  0  0  0  0  0  0  0  0  0  0
  -24.9670  -16.0560   20.3960 H   0  0  0  0  0  0  0  0  0  0  0  0
  -26.5460  -15.8190   19.8430 H   0  0  0  0  0  0  0  0  0  0  0  0
  2  6  1  0
  4  1  1  0
  4  3  1  0
  5  2  1  0
  5  8  1  0
  6 60  1  0
  6  1  1  0
  7  5  1  0
  7 10  1  0
  7  4  1  0
  8 56  1  0
  8  3  1  0
  9 10  1  0
 10 12  1  0
 11  9  2  0
 13  9  1  0
 14 15  1  0
 14 13  1  0
 16 27  2  0
 17 15  1  0
 17 22  1  0
 18 26  1  0
 18 28  1  0
 19 25  1  0
 19 21  1  0
 20 26  1  0
 21 20  1  0
 22 21  2  0
 23 24  1  0
 23 17  2  0
 24 19  2  0
 25 18  1  0
 26 16  1  0
 28 30  2  0
 29 28  1  0
 31 29  1  0
 32 41  2  0
 32 37  1  0
 33 29  1  0
 33 37  1  0
 34 33  1  0
 35 36  1  0
 35 34  1  0
 36 32  1  0
 37 38  2  0
 38 39  1  0
 40 39  2  0
 41 40  1  0
 42 16  1  0
 42 43  1  0
 42 52  1  0
 43 46  1  0
 44 48  1  0
 44 43  1  0
 45 44  2  0
 48 47  1  0
 50 51  1  0
 50 48  1  0
 50 49  1  0
 52 55  1  1
 52 53  1  0
 54 52  1  0
 56 59  1  0
 57 56  1  0
 58 56  1  0
 60 69  1  0
 61 67  1  0
 61 69  1  0
 62 67  1  0
 63 64  1  0
 63 62  1  0
 65 64  1  0
 65 74  1  0
 65 66  1  0
 67 66  1  0
 68 61  2  0
 69 70  1  0
 71 72  2  0
 72 91  1  0
 73 72  1  0
 73 76  1  0
 74 75  1  0
 74 71  1  0
 75 73  2  0
 76 77  1  0
 77 78  2  0
 79 82  1  0
 79 78  1  0
 80 79  2  0
 81 80  1  0
 81 76  2  0
 82 83  1  0
 83 88  2  0
 83 84  1  0
 84 85  2  0
 86 85  1  0
 86 90  1  0
 87 86  2  0
 88 87  1  0
 89 88  1  0
 91 92  1  0
 92 95  1  0
 92 94  1  0
 93 91  2  0
 96 71  1  0
 96 97  1  0
 98 96  1  0
M  ISO  4  14 101  15 101  61 100  69 100
M  END
>  <TORSDO>  (81) 
F 21

>  <SCORE>  (81) 
-12.935

>  <name>  (81) 
81

>  <ligand_id>  (81) 
81

>  <original_smiles>  (81) 
[H]c1c([H])c([H])c2c(c1[H])C([H])([H])C([H])([H])C([H])([H])C2([H])N([H])C(=O)C1([H])N(C(=O)C([H])(N([H])C(=O)C([H])(N([H])C([H])([H])[H])C([H])([H])[H])C(C([H])([H])[H])(C([H])([H])[H])C([H])([H])[H])C([H])([H])c2c([H])c(OC([H])([H])C([H])([H])C(=O)N([H])C3([H])C4([H])C([H])([H])C([H])(C([H])([H])N([H])C(=O)N5C([H])([H])C([H])([H])C([H])([H])C([H])(n6nc(-c7c([H])c([H])c(Oc8c([H])c([H])c(F)c([H])c8F)c([H])c7[H])c(C(=O)N([H])[H])c6N([H])[H])C5([H])[H])C([H])([H])C3([H])C([H])([N+]([H])([H])[H])C4([H])[H])c([H])c([H])c2C1([H])[H]

>  <smiles>  (81) 
[H]c1c([H])c([H])c2c(c1[H])C([H])([H])C([H])([H])C([H])([H])C2([H])N([H])C(=O)C1([H])N(C(=O)C([H])(N([H])C(=O)C([H])(N([H])C([H])([H])[H])C([H])([H])[H])C(C([H])([H])[H])(C([H])([H])[H])C([H])([H])[H])C([H])([H])c2c([H])c(OC([H])([H])C([H])([H])C(=O)N([H])C3([H])C4([H])C([H])([H])C([H])(C([H])([H])N([H])C(=O)N5C([H])([H])C([H])([H])C([H])([H])C([H])(n6nc(-c7c([H])c([H])c(Oc8c([H])c([H])c(F)c([H])c8F)c([H])c7[H])c(C(=O)N([H])[H])c6N([H])[H])C5([H])[H])C([H])([H])C3([H])C([H])([N+]([H])([H])[H])C4([H])[H])c([H])c([H])c2C1([H])[H]

$$$$
82:0:0
     RDKit          3D

 92100  0  0  1  0  0  0  0  0999 V2000
  -29.9680  -21.9120   21.8530 C   0  0  0  0  0  3  0  0  0  0  0  0
  -29.2080  -20.5780   20.0180 C   0  0  0  0  0  3  0  0  0  0  0  0
  -29.3020  -21.9430   20.6110 C   0  0  0  0  0  0  0  0  0  0  0  0
  -30.5530  -20.7410   22.4060 C   0  0  0  0  0  0  0  0  0  0  0  0
  -29.7040  -19.2880   20.6040 C   0  0  0  0  0  0  0  0  0  0  0  0
  -30.4500  -19.4460   21.8010 C   0  0  0  0  0  0  0  0  0  0  0  0
  -31.3570  -20.9720   23.6770 C   0  0  0  0  0  1  0  0  0  0  0  0
  -31.1920  -18.2420   22.4020 C   0  0  0  0  0  1  0  0  0  0  0  0
  -28.9730  -23.4550   19.9630 C   0  0  0  0  0  2  0  0  0  0  0  0
  -28.0700  -24.7650   20.5970 C   0  0  0  0  0  2  0  0  0  0  0  0
  -28.2580  -26.3240   20.3990 O   0  0  0  0  0  0  0  0  0  0  0  0
  -24.5650  -32.0600   23.4010 C   0  0  0  0  0  0  0  0  0  0  0  0
  -27.1810  -27.2970   20.4070 C   0  0  0  0  0  0  0  0  0  0  0  0
  -23.3890  -30.6390   21.7650 C   0  0  0  0  0  3  0  0  0  0  0  0
  -24.8460  -29.0460   20.3810 C   0  0  0  0  0  0  0  0  0  0  0  0
  -25.9450  -30.9080   21.6180 C   0  0  0  0  0  2  0  0  0  0  0  0
  -26.0230  -29.5020   20.9840 C   0  0  0  0  0  0  0  0  0  0  0  0
  -27.1900  -28.6420   20.9790 C   0  0  0  0  0  3  0  0  0  0  0  0
  -25.9670  -26.9510   19.7740 C   0  0  0  0  0  3  0  0  0  0  0  0
  -24.8280  -27.7810   19.7730 C   0  0  0  0  0  3  0  0  0  0  0  0
  -23.6220  -29.9440   20.3970 C   0  0  0  0  0  2  0  0  0  0  0  0
  -24.6530  -31.2290   22.3140 N   0  0  0  0  0  0  0  0  0  0  0  0
  -23.4740  -32.3400   23.9140 O   0  0  0  0  0  0  0  0  0  0  0  0
  -22.7100  -29.6420   22.7370 C   0  0  0  0  0  0  0  0  0  0  0  0
  -21.3980  -29.4030   22.5590 N   0  0  0  0  0  0  0  0  0  0  0  0
  -23.3710  -29.0800   23.6150 O   0  0  0  0  0  0  0  0  0  0  0  0
  -20.9190  -29.9180   21.8330 H   0  0  0  0  0  0  0  0  0  0  0  0
  -18.0730  -28.0020   22.9230 C   0  0  0  0  0  0  0  0  0  0  0  0
  -20.5870  -28.4550   23.3250 C   0  0  0  0  0  3  0  0  0  0  0  0
  -20.8130  -27.0030   22.8390 C   0  0  0  0  0  2  0  0  0  0  0  0
  -19.8010  -26.5490   21.7810 C   0  0  0  0  0  2  0  0  0  0  0  0
  -18.3760  -26.6350   22.3320 C   0  0  0  0  0  2  0  0  0  0  0  0
  -19.1090  -28.8610   23.3720 C   0  0  0  0  0  0  0  0  0  0  0  0
  -18.7700  -30.1320   23.8850 C   0  0  0  0  0  3  0  0  0  0  0  0
  -17.4260  -30.5450   23.9520 C   0  0  0  0  0  3  0  0  0  0  0  0
  -16.4030  -29.6900   23.5110 C   0  0  0  0  0  3  0  0  0  0  0  0
  -16.7260  -28.4170   23.0060 C   0  0  0  0  0  3  0  0  0  0  0  0
  -25.8290  -32.7210   24.0300 C   0  0  0  0  0  3  0  0  0  0  0  0
  -26.3030  -32.0100   25.3610 C   0  0  1  0  0  0  0  0  0  0  0  0
  -25.1750  -31.8080   26.4020 C   0  0  0  0  0  1  0  0  0  0  0  0
  -26.9090  -30.6240   25.0560 C   0  0  0  0  0  1  0  0  0  0  0  0
  -27.4220  -32.8450   26.0280 C   0  0  0  0  0  1  0  0  0  0  0  0
  -25.5170  -34.1340   24.3010 N   0  0  0  0  0  0  0  0  0  0  0  0
  -25.8670  -35.1610   23.5120 C   0  0  0  0  0  0  0  0  0  0  0  0
  -26.5540  -35.0170   22.4990 O   0  0  0  0  0  0  0  0  0  0  0  0
  -24.9320  -34.3180   25.1030 H   0  0  0  0  0  0  0  0  0  0  0  0
  -24.1740  -36.9650   23.0480 C   0  0  0  0  0  1  0  0  0  0  0  0
  -25.3810  -36.5680   23.9150 C   0  0  0  0  0  3  0  0  0  0  0  0
  -27.4900  -37.4660   24.8040 C   0  0  0  0  0  1  0  0  0  0  0  0
  -26.4300  -37.6070   23.8110 N   0  0  0  0  0  0  0  0  0  0  0  0
  -26.0280  -38.5360   23.9050 H   0  0  0  0  0  0  0  0  0  0  0  0
  -29.4910  -17.7670   19.9530 C   0  0  0  0  0  3  0  0  0  0  0  0
  -30.5280  -15.2340   20.6380 C   0  0  0  0  0  0  0  0  0  0  0  0
  -30.5720  -12.8400   19.8620 C   0  0  0  0  0  2  0  0  0  0  0  0
  -29.7120  -12.7600   18.5820 C   0  0  0  0  0  2  0  0  0  0  0  0
  -28.2340  -12.5100   18.9380 C   0  0  0  0  0  2  0  0  0  0  0  0
  -27.7380  -13.3950   20.1120 C   0  0  0  0  0  3  0  0  0  0  0  0
  -28.7340  -13.5260   21.2720 C   0  0  0  0  0  2  0  0  0  0  0  0
  -30.0230  -13.9420   20.7000 N   0  0  0  0  0  0  0  0  0  0  0  0
  -31.7330  -15.3610   20.3840 O   0  0  0  0  0  0  0  0  0  0  0  0
  -29.6280  -16.3380   20.6540 N   0  0  0  0  0  0  0  0  0  0  0  0
  -28.7370  -16.0380   21.0110 H   0  0  0  0  0  0  0  0  0  0  0  0
  -25.3160  -13.9340   20.7330 C   0  0  0  0  0  0  0  0  0  0  0  0
  -24.2580  -13.1370   21.0510 C   0  0  0  0  0  0  0  0  0  0  0  0
  -24.7560  -11.7960   21.0320 C   0  0  0  0  0  0  0  0  0  0  0  0
  -26.3890  -13.0770   20.5410 N   0  0  0  0  0  0  0  0  0  0  0  0
  -26.0580  -11.7850   20.7820 N   0  0  0  0  0  0  0  0  0  0  0  0
  -24.0560  -10.5180   21.1730 C   0  0  0  0  0  0  0  0  0  0  0  0
  -24.4440   -9.5700   22.1450 C   0  0  0  0  0  3  0  0  0  0  0  0
  -23.7430   -8.3530   22.2760 C   0  0  0  0  0  3  0  0  0  0  0  0
  -22.6390   -8.0760   21.4320 C   0  0  0  0  0  0  0  0  0  0  0  0
  -22.2720   -9.0150   20.4510 C   0  0  0  0  0  3  0  0  0  0  0  0
  -22.9760  -10.2220   20.3200 C   0  0  0  0  0  3  0  0  0  0  0  0
  -21.9120   -6.9100   21.4730 O   0  0  0  0  0  0  0  0  0  0  0  0
  -21.7590   -6.1970   22.6340 C   0  0  0  0  0  0  0  0  0  0  0  0
  -21.1130   -6.7410   23.7660 C   0  0  0  0  0  3  0  0  0  0  0  0
  -20.9170   -5.9480   24.9140 C   0  0  0  0  0  3  0  0  0  0  0  0
  -21.3520   -4.6090   24.9280 C   0  0  0  0  0  0  0  0  0  0  0  0
  -21.9860   -4.0620   23.7990 C   0  0  0  0  0  3  0  0  0  0  0  0
  -22.1830   -4.8540   22.6540 C   0  0  0  0  0  0  0  0  0  0  0  0
  -22.7770   -4.3150   21.5620 F   0  0  0  0  0  0  0  0  0  0  0  0
  -21.1570   -3.8430   26.0280 F   0  0  0  0  0  0  0  0  0  0  0  0
  -22.8370  -13.5760   21.2640 C   0  0  0  0  0  0  0  0  0  0  0  0
  -22.0860  -12.8530   22.0850 N   0  0  0  0  0  0  0  0  0  0  0  0
  -22.4010  -14.6000   20.7380 O   0  0  0  0  0  0  0  0  0  0  0  0
  -22.4480  -12.0280   22.5370 H   0  0  0  0  0  0  0  0  0  0  0  0
  -21.1350  -13.1350   22.2680 H   0  0  0  0  0  0  0  0  0  0  0  0
  -25.4420  -15.3160   20.5730 N   0  0  0  0  0  0  0  0  0  0  0  0
  -24.6330  -15.9210   20.6630 H   0  0  0  0  0  0  0  0  0  0  0  0
  -26.2670  -15.7980   20.2460 H   0  0  0  0  0  0  0  0  0  0  0  0
  -27.7280  -16.6590   18.3860 C   0  0  0  0  0  1  0  0  0  0  0  0
  -28.0450  -17.7770   19.3870 C   0  0  0  0  0  2  0  0  0  0  0  0
  1  4  1  0
  2  5  2  0
  2  3  1  0
  3  1  2  0
  4  7  1  0
  5  6  1  0
  6  8  1  0
  6  4  2  0
  9 10  1  0
  9  3  1  0
 11 13  1  0
 11 10  1  0
 12 23  2  0
 13 18  1  0
 14 22  1  0
 14 24  1  0
 15 21  1  0
 15 17  1  0
 16 22  1  0
 17 16  1  0
 18 17  2  0
 19 13  2  0
 20 19  1  0
 20 15  2  0
 21 14  1  0
 22 12  1  0
 24 26  2  0
 25 24  1  0
 27 25  1  0
 28 37  2  0
 28 33  1  0
 29 25  1  0
 29 33  1  0
 30 29  1  0
 31 32  1  0
 31 30  1  0
 32 28  1  0
 33 34  2  0
 34 35  1  0
 36 35  2  0
 37 36  1  0
 38 12  1  0
 38 43  1  0
 38 39  1  0
 39 42  1  1
 39 40  1  0
 41 39  1  0
 43 46  1  0
 44 48  1  0
 44 43  1  0
 45 44  2  0
 48 47  1  0
 50 51  1  0
 50 48  1  0
 50 49  1  0
 52 92  1  0
 52  5  1  0
 52 61  1  0
 53 61  1  0
 53 59  1  0
 54 59  1  0
 55 56  1  0
 55 54  1  0
 57 56  1  0
 57 66  1  0
 57 58  1  0
 59 58  1  0
 60 53  2  0
 61 62  1  0
 63 64  2  0
 64 83  1  0
 65 64  1  0
 65 68  1  0
 66 63  1  0
 66 67  1  0
 67 65  2  0
 68 69  1  0
 69 70  2  0
 71 74  1  0
 71 70  1  0
 72 71  2  0
 73 72  1  0
 73 68  2  0
 74 75  1  0
 75 80  2  0
 75 76  1  0
 76 77  2  0
 77 78  1  0
 78 82  1  0
 79 78  2  0
 80 79  1  0
 81 80  1  0
 83 84  1  0
 84 87  1  0
 84 86  1  0
 85 83  2  0
 88 89  1  0
 88 63  1  0
 90 88  1  0
 91 92  1  0
M  ISO  4  10 101  11 101  53 100  61 100
M  END
>  <TORSDO>  (82) 
F 20

>  <SCORE>  (82) 
-13.989

>  <name>  (82) 
82

>  <ligand_id>  (82) 
82

>  <original_smiles>  (82) 
[H]c1c([H])c([H])c2c(c1[H])C([H])([H])C([H])([H])C([H])([H])C2([H])N([H])C(=O)C1([H])N(C(=O)C([H])(N([H])C(=O)C([H])(N([H])C([H])([H])[H])C([H])([H])[H])C(C([H])([H])[H])(C([H])([H])[H])C([H])([H])[H])C([H])([H])c2c([H])c(OC([H])([H])C([H])([H])c3c([H])c(C([H])([H])[H])c(C([H])([H])[H])c(C([H])(N([H])C(=O)N4C([H])([H])C([H])([H])C([H])([H])C([H])(n5nc(-c6c([H])c([H])c(Oc7c([H])c([H])c(F)c([H])c7F)c([H])c6[H])c(C(=O)N([H])[H])c5N([H])[H])C4([H])[H])C([H])([H])C([H])([H])[H])c3[H])c([H])c([H])c2C1([H])[H]

>  <smiles>  (82) 
[H]c1c([H])c([H])c2c(c1[H])C([H])([H])C([H])([H])C([H])([H])C2([H])N([H])C(=O)C1([H])N(C(=O)C([H])(N([H])C(=O)C([H])(N([H])C([H])([H])[H])C([H])([H])[H])C(C([H])([H])[H])(C([H])([H])[H])C([H])([H])[H])C([H])([H])c2c([H])c(OC([H])([H])C([H])([H])c3c([H])c(C([H])([H])[H])c(C([H])([H])[H])c(C([H])(N([H])C(=O)N4C([H])([H])C([H])([H])C([H])([H])C([H])(n5nc(-c6c([H])c([H])c(Oc7c([H])c([H])c(F)c([H])c7F)c([H])c6[H])c(C(=O)N([H])[H])c5N([H])[H])C4([H])[H])C([H])([H])C([H])([H])[H])c3[H])c([H])c([H])c2C1([H])[H]

$$$$
83:0:0
     RDKit          3D

 93103  0  0  1  0  0  0  0  0999 V2000
  -29.1590  -19.7140   20.2220 N   0  0  1  0  0  4  0  0  0  0  0  0
  -29.7920  -19.7510   19.4410 H   0  0  0  0  0  0  0  0  0  0  0  0
  -28.1580  -20.1520   17.2650 C   0  0  0  0  0  2  0  0  0  0  0  0
  -28.3270  -18.6450   17.4030 C   0  0  0  0  0  2  0  0  0  0  0  0
  -26.1920  -19.2240   18.4810 C   0  0  0  0  0  2  0  0  0  0  0  0
  -27.2490  -20.3470   18.4670 C   0  0  2  0  0  0  0  0  0  0  0  0
  -27.5040  -18.4550   18.6830 C   0  0  1  0  0  0  0  0  0  0  0  0
  -27.7470  -19.5730   19.7270 C   0  0  0  0  0  3  0  0  0  0  0  0
  -29.3390  -21.0550   20.9560 C   0  0  0  0  0  3  0  0  0  0  0  0
  -29.0580  -22.4160   20.1330 C   0  0  0  0  0  3  0  0  0  0  0  0
  -29.2180  -23.8850   20.7490 C   0  0  0  0  0  3  0  0  0  0  0  0
  -28.3170  -25.0100   20.0580 C   0  0  0  0  0  3  0  0  0  0  0  0
  -28.4670  -26.4540   20.3610 O   0  0  0  0  0  0  0  0  0  0  0  0
  -24.6130  -31.8410   23.2110 C   0  0  0  0  0  0  0  0  0  0  0  0
  -27.3360  -27.2870   20.2510 C   0  0  0  0  0  0  0  0  0  0  0  0
  -23.4570  -30.4210   21.5460 C   0  0  0  0  0  3  0  0  0  0  0  0
  -24.9550  -28.8730   20.1660 C   0  0  0  0  0  0  0  0  0  0  0  0
  -25.9920  -30.7600   21.4240 C   0  0  0  0  0  2  0  0  0  0  0  0
  -26.0990  -29.3760   20.7940 C   0  0  0  0  0  0  0  0  0  0  0  0
  -27.2920  -28.5950   20.8280 C   0  0  0  0  0  3  0  0  0  0  0  0
  -26.1690  -26.8440   19.5830 C   0  0  0  0  0  3  0  0  0  0  0  0
  -24.9910  -27.6140   19.5460 C   0  0  0  0  0  3  0  0  0  0  0  0
  -23.7100  -29.7320   20.1780 C   0  0  0  0  0  2  0  0  0  0  0  0
  -24.7040  -31.0260   22.1170 N   0  0  0  0  0  0  0  0  0  0  0  0
  -23.5180  -32.1150   23.7240 O   0  0  0  0  0  0  0  0  0  0  0  0
  -22.7760  -29.4120   22.5010 C   0  0  0  0  0  0  0  0  0  0  0  0
  -21.4520  -29.2310   22.3550 N   0  0  0  0  0  0  0  0  0  0  0  0
  -23.4420  -28.7920   23.3340 O   0  0  0  0  0  0  0  0  0  0  0  0
  -20.9800  -29.7520   21.6280 H   0  0  0  0  0  0  0  0  0  0  0  0
  -18.0430  -28.1410   22.9170 C   0  0  0  0  0  0  0  0  0  0  0  0
  -20.6170  -28.3120   23.1330 C   0  0  0  0  0  3  0  0  0  0  0  0
  -20.6490  -26.8880   22.5390 C   0  0  0  0  0  2  0  0  0  0  0  0
  -19.5200  -26.6370   21.5310 C   0  0  0  0  0  2  0  0  0  0  0  0
  -18.1600  -26.7980   22.2180 C   0  0  0  0  0  2  0  0  0  0  0  0
  -19.1950  -28.8600   23.3340 C   0  0  0  0  0  0  0  0  0  0  0  0
  -19.0260  -30.1210   23.9480 C   0  0  0  0  0  3  0  0  0  0  0  0
  -17.7410  -30.6560   24.1580 C   0  0  0  0  0  3  0  0  0  0  0  0
  -16.6060  -29.9320   23.7540 C   0  0  0  0  0  3  0  0  0  0  0  0
  -16.7560  -28.6780   23.1380 C   0  0  0  0  0  3  0  0  0  0  0  0
  -25.8810  -32.4860   23.8510 C   0  0  0  0  0  3  0  0  0  0  0  0
  -25.5560  -33.8840   24.1680 N   0  0  0  0  0  0  0  0  0  0  0  0
  -25.8930  -34.9350   23.4080 C   0  0  0  0  0  0  0  0  0  0  0  0
  -26.5800  -34.8310   22.3890 O   0  0  0  0  0  0  0  0  0  0  0  0
  -24.9440  -34.0380   24.9570 H   0  0  0  0  0  0  0  0  0  0  0  0
  -24.1450  -36.7080   23.0340 C   0  0  0  0  0  1  0  0  0  0  0  0
  -25.3900  -36.3210   23.8490 C   0  0  0  0  0  3  0  0  0  0  0  0
  -27.5110  -37.2490   24.6770 C   0  0  0  0  0  1  0  0  0  0  0  0
  -26.4100  -37.3850   23.7260 N   0  0  0  0  0  0  0  0  0  0  0  0
  -25.9900  -38.3020   23.8560 H   0  0  0  0  0  0  0  0  0  0  0  0
  -26.3780  -31.7260   25.1440 C   0  0  1  0  0  0  0  0  0  0  0  0
  -25.2640  -31.4900   26.1910 C   0  0  0  0  0  1  0  0  0  0  0  0
  -26.9770  -30.3470   24.7790 C   0  0  0  0  0  1  0  0  0  0  0  0
  -27.5040  -32.5350   25.8310 C   0  0  0  0  0  1  0  0  0  0  0  0
  -29.5470  -18.4330   21.0030 C   0  0  0  0  0  3  0  0  0  0  0  0
  -29.9330  -17.1040   20.1630 C   0  0  0  0  0  3  0  0  0  0  0  0
  -30.8570  -14.6570   20.4550 C   0  0  0  0  0  0  0  0  0  0  0  0
  -30.6620  -12.3740   19.4720 C   0  0  0  0  0  2  0  0  0  0  0  0
  -29.7550  -12.4860   18.2240 C   0  0  0  0  0  2  0  0  0  0  0  0
  -28.2760  -12.3200   18.6200 C   0  0  0  0  0  2  0  0  0  0  0  0
  -27.8870  -13.2460   19.8010 C   0  0  0  0  0  3  0  0  0  0  0  0
  -28.9050  -13.1330   20.9600 C   0  0  0  0  0  2  0  0  0  0  0  0
  -30.2430  -13.4300   20.4250 N   0  0  0  0  0  0  0  0  0  0  0  0
  -31.9960  -14.8020   20.0050 O   0  0  0  0  0  0  0  0  0  0  0  0
  -30.0760  -15.7360   20.8180 N   0  0  0  0  0  0  0  0  0  0  0  0
  -29.2410  -15.4490   21.3090 H   0  0  0  0  0  0  0  0  0  0  0  0
  -25.5090  -13.9230   20.4910 C   0  0  0  0  0  0  0  0  0  0  0  0
  -24.4130  -13.1920   20.8480 C   0  0  0  0  0  0  0  0  0  0  0  0
  -24.8260  -11.8220   20.8140 C   0  0  0  0  0  0  0  0  0  0  0  0
  -26.5220  -13.0080   20.2630 N   0  0  0  0  0  0  0  0  0  0  0  0
  -26.1160  -11.7390   20.5170 N   0  0  0  0  0  0  0  0  0  0  0  0
  -24.0550  -10.5870   20.9850 C   0  0  0  0  0  0  0  0  0  0  0  0
  -24.4510   -9.5850   21.9000 C   0  0  0  0  0  3  0  0  0  0  0  0
  -23.6810   -8.4130   22.0580 C   0  0  0  0  0  3  0  0  0  0  0  0
  -22.4970   -8.2330   21.3030 C   0  0  0  0  0  0  0  0  0  0  0  0
  -22.1210   -9.2200   20.3730 C   0  0  0  0  0  3  0  0  0  0  0  0
  -22.8940  -10.3830   20.2140 C   0  0  0  0  0  3  0  0  0  0  0  0
  -21.7000   -7.1170   21.3750 O   0  0  0  0  0  0  0  0  0  0  0  0
  -21.6260   -6.3580   22.5140 C   0  0  0  0  0  0  0  0  0  0  0  0
  -21.2090   -6.9020   23.7490 C   0  0  0  0  0  3  0  0  0  0  0  0
  -21.0880   -6.0700   24.8780 C   0  0  0  0  0  3  0  0  0  0  0  0
  -21.3630   -4.6940   24.7730 C   0  0  0  0  0  0  0  0  0  0  0  0
  -21.7670   -4.1490   23.5430 C   0  0  0  0  0  3  0  0  0  0  0  0
  -21.8950   -4.9790   22.4140 C   0  0  0  0  0  0  0  0  0  0  0  0
  -22.2680   -4.4450   21.2260 F   0  0  0  0  0  0  0  0  0  0  0  0
  -21.2320   -3.8900   25.8540 F   0  0  0  0  0  0  0  0  0  0  0  0
  -23.0270  -13.7110   21.1020 C   0  0  0  0  0  0  0  0  0  0  0  0
  -22.2700  -13.0450   21.9660 N   0  0  0  0  0  0  0  0  0  0  0  0
  -22.6280  -14.7500   20.5740 O   0  0  0  0  0  0  0  0  0  0  0  0
  -22.6120  -12.2110   22.4220 H   0  0  0  0  0  0  0  0  0  0  0  0
  -21.3330  -13.3620   22.1680 H   0  0  0  0  0  0  0  0  0  0  0  0
  -25.7290  -15.2830   20.3060 N   0  0  0  0  0  0  0  0  0  0  0  0
  -24.9820  -15.9670   20.3550 H   0  0  0  0  0  0  0  0  0  0  0  0
  -26.5870  -15.6610   19.9270 H   0  0  0  0  0  0  0  0  0  0  0  0
  1  9  1  0
  1 54  1  0
  1  2  1  6
  3  4  1  0
  7  5  1  1
  6  3  1  6
  6  5  1  0
  6  7  1  0
  6  8  1  0
  7  4  1  0
  7  8  1  0
  8  1  1  0
 10 11  1  0
 10  9  2  0
 12 13  1  0
 12 11  2  0
 14 25  2  0
 15 13  1  0
 15 20  1  0
 16 24  1  0
 16 26  1  0
 17 23  1  0
 17 19  1  0
 18 24  1  0
 19 20  2  0
 19 18  1  0
 21 15  2  0
 22 21  1  0
 22 17  2  0
 23 16  1  0
 24 14  1  0
 26 28  2  0
 27 26  1  0
 29 27  1  0
 30 39  2  0
 30 35  1  0
 31 27  1  0
 31 35  1  0
 32 31  1  0
 33 34  1  0
 33 32  1  0
 34 30  1  0
 35 36  2  0
 36 37  1  0
 38 37  2  0
 39 38  1  0
 40 14  1  0
 40 41  1  0
 40 50  1  0
 41 44  1  0
 42 46  1  0
 42 41  1  0
 43 42  2  0
 46 45  1  0
 48 46  1  0
 48 49  1  0
 48 47  1  0
 50 53  1  1
 50 51  1  0
 52 50  1  0
 55 64  1  0
 55 54  2  0
 56 64  1  0
 57 62  1  0
 58 59  1  0
 58 57  1  0
 60 59  1  0
 60 69  1  0
 60 61  1  0
 62 56  1  0
 62 61  1  0
 63 56  2  0
 64 65  1  0
 66 67  2  0
 67 86  1  0
 68 67  1  0
 68 71  1  0
 69 66  1  0
 69 70  1  0
 70 68  2  0
 71 72  1  0
 72 73  2  0
 74 77  1  0
 74 73  1  0
 75 74  2  0
 76 75  1  0
 76 71  2  0
 77 78  1  0
 78 79  1  0
 79 80  2  0
 81 80  1  0
 81 85  1  0
 82 81  2  0
 83 78  2  0
 83 82  1  0
 84 83  1  0
 86 87  1  0
 87 90  1  0
 87 89  1  0
 88 86  2  0
 91 92  1  0
 91 66  1  0
 93 91  1  0
M  ISO  4  12 101  13 101  56 100  64 100
M  END
>  <TORSDO>  (83) 
F 23

>  <SCORE>  (83) 
-12.615

>  <name>  (83) 
83

>  <ligand_id>  (83) 
83

>  <original_smiles>  (83) 
[H]c1c([H])c([H])c2c(c1[H])C([H])([H])C([H])([H])C([H])([H])C2([H])N([H])C(=O)C1([H])N(C(=O)C([H])(N([H])C(=O)C([H])(N([H])C([H])([H])[H])C([H])([H])[H])C(C([H])([H])[H])(C([H])([H])[H])C([H])([H])[H])C([H])([H])c2c([H])c(OC([H])([H])C([H])([H])C([H])([H])C([H])([H])[N+]([H])(C([H])([H])C([H])([H])N([H])C(=O)N3C([H])([H])C([H])([H])C([H])([H])C([H])(n4nc(-c5c([H])c([H])c(Oc6c([H])c([H])c(F)c([H])c6F)c([H])c5[H])c(C(=O)N([H])[H])c4N([H])[H])C3([H])[H])C3([H])C4([H])C([H])([H])C([H])([H])C3([H])C4([H])[H])c([H])c([H])c2C1([H])[H]

>  <smiles>  (83) 
[H]c1c([H])c([H])c2c(c1[H])C([H])([H])C([H])([H])C([H])([H])C2([H])N([H])C(=O)C1([H])N(C(=O)C([H])(N([H])C(=O)C([H])(N([H])C([H])([H])[H])C([H])([H])[H])C(C([H])([H])[H])(C([H])([H])[H])C([H])([H])[H])C([H])([H])c2c([H])c(OC([H])([H])C([H])([H])C([H])([H])C([H])([H])[N+]([H])(C([H])([H])C([H])([H])N([H])C(=O)N3C([H])([H])C([H])([H])C([H])([H])C([H])(n4nc(-c5c([H])c([H])c(Oc6c([H])c([H])c(F)c([H])c6F)c([H])c5[H])c(C(=O)N([H])[H])c4N([H])[H])C3([H])[H])C3([H])C4([H])C([H])([H])C([H])([H])C3([H])C4([H])[H])c([H])c([H])c2C1([H])[H]

$$$$
84:0:0
     RDKit          3D

 95105  0  0  1  0  0  0  0  0999 V2000
  -30.2410  -21.4630   21.4770 C   0  0  0  0  0  2  0  0  0  0  0  0
  -32.0410  -19.6290   21.8170 C   0  0  0  0  0  2  0  0  0  0  0  0
  -30.5620  -19.9470   21.6200 C   0  0  0  0  0  3  0  0  0  0  0  0
  -31.0270  -17.6610   20.5010 C   0  0  0  0  0  3  0  0  0  0  0  0
  -32.1930  -18.6590   20.6470 C   0  0  2  0  0  0  0  0  0  0  0  0
  -30.3650  -19.0600   20.3840 C   0  0  1  0  0  0  0  0  0  0  0  0
  -31.5270  -19.3160   19.5260 N   0  0  0  0  0  4  0  0  0  0  0  0
  -31.5360  -18.7660   18.6830 H   0  0  0  0  0  0  0  0  0  0  0  0
  -31.7750  -20.2800   19.3750 H   0  0  0  0  0  0  0  0  0  0  0  0
  -30.7340  -16.6800   21.6610 C   0  0  0  0  0  2  0  0  0  0  0  0
  -30.7180  -14.4490   20.5080 C   0  0  0  0  0  0  0  0  0  0  0  0
  -30.3490  -12.3510   19.2650 C   0  0  0  0  0  2  0  0  0  0  0  0
  -29.4030  -12.5880   18.0710 C   0  0  0  0  0  2  0  0  0  0  0  0
  -27.9310  -12.4530   18.5090 C   0  0  0  0  0  2  0  0  0  0  0  0
  -27.6100  -13.2750   19.7870 C   0  0  0  0  0  3  0  0  0  0  0  0
  -28.6670  -13.0200   20.8850 C   0  0  0  0  0  2  0  0  0  0  0  0
  -29.9960  -13.3120   20.3190 N   0  0  0  0  0  0  0  0  0  0  0  0
  -31.8160  -14.6420   19.9800 O   0  0  0  0  0  0  0  0  0  0  0  0
  -30.1320  -15.4030   21.2500 N   0  0  0  0  0  0  0  0  0  0  0  0
  -29.2230  -15.1810   21.6260 H   0  0  0  0  0  0  0  0  0  0  0  0
  -25.2100  -13.8910   20.4860 C   0  0  0  0  0  0  0  0  0  0  0  0
  -24.1410  -13.1230   20.8610 C   0  0  0  0  0  0  0  0  0  0  0  0
  -24.6000  -11.7700   20.8420 C   0  0  0  0  0  0  0  0  0  0  0  0
  -26.2560  -13.0070   20.2650 N   0  0  0  0  0  0  0  0  0  0  0  0
  -25.8910  -11.7260   20.5350 N   0  0  0  0  0  0  0  0  0  0  0  0
  -23.8720  -10.5100   21.0400 C   0  0  0  0  0  0  0  0  0  0  0  0
  -24.3140   -9.5400   21.9670 C   0  0  0  0  0  3  0  0  0  0  0  0
  -23.5870   -8.3450   22.1530 C   0  0  0  0  0  3  0  0  0  0  0  0
  -22.4030   -8.1120   21.4120 C   0  0  0  0  0  0  0  0  0  0  0  0
  -21.9790   -9.0720   20.4750 C   0  0  0  0  0  3  0  0  0  0  0  0
  -22.7070  -10.2580   20.2880 C   0  0  0  0  0  3  0  0  0  0  0  0
  -21.6460   -6.9700   21.5090 O   0  0  0  0  0  0  0  0  0  0  0  0
  -21.6240   -6.2150   22.6540 C   0  0  0  0  0  0  0  0  0  0  0  0
  -21.2460   -6.7620   23.9010 C   0  0  0  0  0  3  0  0  0  0  0  0
  -21.1710   -5.9340   25.0390 C   0  0  0  0  0  3  0  0  0  0  0  0
  -21.4620   -4.5610   24.9320 C   0  0  0  0  0  0  0  0  0  0  0  0
  -21.8350   -4.0130   23.6910 C   0  0  0  0  0  3  0  0  0  0  0  0
  -21.9110   -4.8390   22.5550 C   0  0  0  0  0  0  0  0  0  0  0  0
  -22.2490   -4.3020   21.3570 F   0  0  0  0  0  0  0  0  0  0  0  0
  -21.3820   -3.7640   26.0230 F   0  0  0  0  0  0  0  0  0  0  0  0
  -22.7440  -13.6050   21.1290 C   0  0  0  0  0  0  0  0  0  0  0  0
  -22.0140  -12.9160   21.9990 N   0  0  0  0  0  0  0  0  0  0  0  0
  -22.3070  -14.6260   20.6000 O   0  0  0  0  0  0  0  0  0  0  0  0
  -22.3780  -12.0900   22.4490 H   0  0  0  0  0  0  0  0  0  0  0  0
  -21.0760  -13.2220   22.2190 H   0  0  0  0  0  0  0  0  0  0  0  0
  -25.3790  -15.2600   20.2980 N   0  0  0  0  0  0  0  0  0  0  0  0
  -24.6130  -15.9180   20.3970 H   0  0  0  0  0  0  0  0  0  0  0  0
  -26.2340  -15.6930   19.9680 H   0  0  0  0  0  0  0  0  0  0  0  0
  -28.7570  -21.7990   21.1870 C   0  0  0  0  0  2  0  0  0  0  0  0
  -28.3830  -23.1860   21.5630 N   0  0  0  0  0  4  0  0  0  0  0  0
  -28.8050  -23.4050   22.4530 H   0  0  0  0  0  0  0  0  0  0  0  0
  -27.3850  -23.1800   21.7160 H   0  0  0  0  0  0  0  0  0  0  0  0
  -28.6800  -24.2670   20.5820 C   0  0  0  0  0  2  0  0  0  0  0  0
  -28.3600  -25.6610   21.1720 C   0  0  0  0  0  2  0  0  0  0  0  0
  -28.3900  -26.7140   20.1950 O   0  0  0  0  0  0  0  0  0  0  0  0
  -24.5920  -31.8990   23.2520 C   0  0  0  0  0  0  0  0  0  0  0  0
  -27.2410  -27.4680   20.1770 C   0  0  0  0  0  0  0  0  0  0  0  0
  -23.3870  -30.4910   21.6130 C   0  0  0  0  0  3  0  0  0  0  0  0
  -24.8420  -28.9530   20.1890 C   0  0  0  0  0  0  0  0  0  0  0  0
  -25.9110  -30.8610   21.4100 C   0  0  0  0  0  2  0  0  0  0  0  0
  -25.9990  -29.4880   20.7750 C   0  0  0  0  0  0  0  0  0  0  0  0
  -27.2030  -28.7500   20.7690 C   0  0  0  0  0  3  0  0  0  0  0  0
  -26.0740  -26.9450   19.5850 C   0  0  0  0  0  3  0  0  0  0  0  0
  -24.8740  -27.6800   19.5920 C   0  0  0  0  0  3  0  0  0  0  0  0
  -23.5950  -29.8080   20.2350 C   0  0  0  0  0  2  0  0  0  0  0  0
  -24.6480  -31.0990   22.1490 N   0  0  0  0  0  0  0  0  0  0  0  0
  -23.5110  -32.1680   23.7920 O   0  0  0  0  0  0  0  0  0  0  0  0
  -22.7390  -29.4720   22.5770 C   0  0  0  0  0  0  0  0  0  0  0  0
  -21.4150  -29.2840   22.4470 N   0  0  0  0  0  0  0  0  0  0  0  0
  -23.4240  -28.8500   23.3930 O   0  0  0  0  0  0  0  0  0  0  0  0
  -20.9250  -29.8330   21.7550 H   0  0  0  0  0  0  0  0  0  0  0  0
  -18.0440  -28.0770   22.9320 C   0  0  0  0  0  0  0  0  0  0  0  0
  -20.6000  -28.3470   23.2190 C   0  0  0  0  0  3  0  0  0  0  0  0
  -20.7140  -26.9140   22.6490 C   0  0  0  0  0  2  0  0  0  0  0  0
  -19.6180  -26.5810   21.6320 C   0  0  0  0  0  2  0  0  0  0  0  0
  -18.2310  -26.7240   22.2670 C   0  0  0  0  0  2  0  0  0  0  0  0
  -19.1580  -28.8460   23.3630 C   0  0  0  0  0  0  0  0  0  0  0  0
  -18.9290  -30.1130   23.9440 C   0  0  0  0  0  3  0  0  0  0  0  0
  -17.6220  -30.6090   24.1000 C   0  0  0  0  0  3  0  0  0  0  0  0
  -16.5230  -29.8370   23.6830 C   0  0  0  0  0  3  0  0  0  0  0  0
  -16.7350  -28.5730   23.1030 C   0  0  0  0  0  3  0  0  0  0  0  0
  -25.8780  -32.5310   23.8710 C   0  0  0  0  0  3  0  0  0  0  0  0
  -25.5710  -33.9310   24.1970 N   0  0  0  0  0  0  0  0  0  0  0  0
  -25.9080  -34.9800   23.4350 C   0  0  0  0  0  0  0  0  0  0  0  0
  -26.5830  -34.8720   22.4060 O   0  0  0  0  0  0  0  0  0  0  0  0
  -24.9730  -34.0900   24.9940 H   0  0  0  0  0  0  0  0  0  0  0  0
  -24.1820  -36.7710   23.0630 C   0  0  0  0  0  1  0  0  0  0  0  0
  -25.4200  -36.3710   23.8830 C   0  0  0  0  0  3  0  0  0  0  0  0
  -27.5520  -37.2520   24.7170 C   0  0  0  0  0  1  0  0  0  0  0  0
  -26.4540  -37.4240   23.7700 N   0  0  0  0  0  0  0  0  0  0  0  0
  -26.0490  -38.3440   23.9160 H   0  0  0  0  0  0  0  0  0  0  0  0
  -26.3980  -31.7610   25.1460 C   0  0  1  0  0  0  0  0  0  0  0  0
  -25.3070  -31.5230   26.2160 C   0  0  0  0  0  1  0  0  0  0  0  0
  -26.9780  -30.3840   24.7500 C   0  0  0  0  0  1  0  0  0  0  0  0
  -27.5530  -32.5540   25.8010 C   0  0  0  0  0  1  0  0  0  0  0  0
  3  1  1  0
  3  2  1  0
  4  5  1  0
  4 10  1  0
  5  2  1  1
  6  7  1  0
  6  4  1  6
  6  5  1  0
  6  3  1  0
  7  5  1  0
  8  7  1  0
  9  7  1  0
 11 19  1  0
 12 17  1  0
 13 14  1  0
 13 12  1  0
 15 14  1  0
 15 24  1  0
 15 16  1  0
 17 11  1  0
 17 16  1  0
 18 11  2  0
 19 20  1  0
 19 10  1  0
 21 22  2  0
 22 41  1  0
 23 22  1  0
 23 26  1  0
 24 21  1  0
 24 25  1  0
 25 23  2  0
 26 27  1  0
 27 28  2  0
 29 32  1  0
 29 28  1  0
 30 29  2  0
 31 30  1  0
 31 26  2  0
 32 33  1  0
 33 34  1  0
 34 35  2  0
 36 35  1  0
 36 40  1  0
 37 36  2  0
 38 33  2  0
 38 37  1  0
 39 38  1  0
 41 42  1  0
 42 45  1  0
 42 44  1  0
 43 41  2  0
 46 47  1  0
 46 21  1  0
 48 46  1  0
 49  1  1  0
 49 50  1  0
 50 52  1  0
 50 51  1  0
 53 54  1  0
 53 50  1  0
 55 54  1  0
 56 67  2  0
 57 55  1  0
 57 62  1  0
 58 66  1  0
 58 68  1  0
 59 65  1  0
 59 61  1  0
 60 66  1  0
 61 60  1  0
 62 61  2  0
 63 64  1  0
 63 57  2  0
 64 59  2  0
 65 58  1  0
 66 56  1  0
 68 70  2  0
 69 68  1  0
 71 69  1  0
 72 81  2  0
 72 77  1  0
 73 69  1  0
 73 77  1  0
 74 73  1  0
 75 76  1  0
 75 74  1  0
 76 72  1  0
 77 78  2  0
 78 79  1  0
 80 79  2  0
 81 80  1  0
 82 56  1  0
 82 83  1  0
 82 92  1  0
 83 86  1  0
 84 88  1  0
 84 83  1  0
 85 84  2  0
 88 87  1  0
 90 88  1  0
 90 91  1  0
 90 89  1  0
 92 95  1  1
 92 93  1  0
 94 92  1  0
M  ISO  4  11 100  19 100  54 101  55 101
M  END
>  <TORSDO>  (84) 
F 22

>  <SCORE>  (84) 
-13.476

>  <name>  (84) 
84

>  <ligand_id>  (84) 
84

>  <original_smiles>  (84) 
[H]c1c([H])c([H])c2c(c1[H])C([H])([H])C([H])([H])C([H])([H])C2([H])N([H])C(=O)C1([H])N(C(=O)C([H])(N([H])C(=O)C([H])(N([H])C([H])([H])[H])C([H])([H])[H])C(C([H])([H])[H])(C([H])([H])[H])C([H])([H])[H])C([H])([H])c2c([H])c(OC([H])([H])C([H])([H])[N+]([H])([H])C([H])([H])C([H])([H])C3([H])C([H])([H])C4([H])C([H])(C([H])([H])N([H])C(=O)N5C([H])([H])C([H])([H])C([H])([H])C([H])(n6nc(-c7c([H])c([H])c(Oc8c([H])c([H])c(F)c([H])c8F)c([H])c7[H])c(C(=O)N([H])[H])c6N([H])[H])C5([H])[H])C3([H])[N+]4([H])[H])c([H])c([H])c2C1([H])[H]

>  <smiles>  (84) 
[H]c1c([H])c([H])c2c(c1[H])C([H])([H])C([H])([H])C([H])([H])C2([H])N([H])C(=O)C1([H])N(C(=O)C([H])(N([H])C(=O)C([H])(N([H])C([H])([H])[H])C([H])([H])[H])C(C([H])([H])[H])(C([H])([H])[H])C([H])([H])[H])C([H])([H])c2c([H])c(OC([H])([H])C([H])([H])[N+]([H])([H])C([H])([H])C([H])([H])C3([H])C([H])([H])C4([H])C([H])(C([H])([H])N([H])C(=O)N5C([H])([H])C([H])([H])C([H])([H])C([H])(n6nc(-c7c([H])c([H])c(Oc8c([H])c([H])c(F)c([H])c8F)c([H])c7[H])c(C(=O)N([H])[H])c6N([H])[H])C5([H])[H])C3([H])[N+]4([H])[H])c([H])c([H])c2C1([H])[H]

$$$$
85:0:0
     RDKit          3D

100110  0  0  1  0  0  0  0  0999 V2000
  -30.3200  -19.1270   21.7930 C   0  0  0  0  0  2  0  0  0  0  0  0
  -31.1420  -20.3960   21.5020 C   0  0  0  0  0  3  0  0  0  0  0  0
  -30.9260  -21.0260   20.1010 C   0  0  0  0  0  3  0  0  0  0  0  0
  -30.5340  -18.0040   20.7170 C   0  0  0  0  0  3  0  0  0  0  0  0
  -31.9160  -19.9140   19.6790 C   0  0  0  0  0  3  0  0  0  0  0  0
  -32.6240  -20.1730   21.0570 C   0  0  2  0  0  0  0  0  0  0  0  0
  -33.4480  -19.0220   21.6700 C   0  0  0  0  0  1  0  0  0  0  0  0
  -33.5710  -21.3990   21.1910 C   0  0  0  0  0  1  0  0  0  0  0  0
  -31.2960  -18.5470   19.5480 N   0  0  0  0  0  4  0  0  0  0  0  0
  -30.6740  -18.5510   18.7550 H   0  0  0  0  0  0  0  0  0  0  0  0
  -32.0170  -17.8850   19.3090 H   0  0  0  0  0  0  0  0  0  0  0  0
  -30.6410  -14.6210   19.8250 C   0  0  0  0  0  0  0  0  0  0  0  0
  -30.1170  -12.6300   18.4560 C   0  0  0  0  0  2  0  0  0  0  0  0
  -29.0540  -12.9050   17.3780 C   0  0  0  0  0  2  0  0  0  0  0  0
  -27.6320  -12.7260   17.9440 C   0  0  0  0  0  2  0  0  0  0  0  0
  -27.4350  -13.4650   19.2930 C   0  0  0  0  0  3  0  0  0  0  0  0
  -28.5970  -13.1720   20.2650 C   0  0  0  0  0  2  0  0  0  0  0  0
  -29.8700  -13.5160   19.6100 N   0  0  0  0  0  0  0  0  0  0  0  0
  -31.5520  -14.9410   19.0570 O   0  0  0  0  0  0  0  0  0  0  0  0
  -31.0900  -16.2370   22.6630 C   0  0  0  0  0  0  0  0  0  0  0  0
  -30.2460  -15.0280   22.2890 C   0  0  0  0  0  2  0  0  0  0  0  0
  -31.1780  -16.6470   21.1820 C   0  0  0  0  0  3  0  0  0  0  0  0
  -30.3560  -15.4350   20.8700 N   0  0  0  0  0  0  0  0  0  0  0  0
  -31.5680  -16.6550   23.7210 O   0  0  0  0  0  0  0  0  0  0  0  0
  -25.1140  -14.0040   20.2630 C   0  0  0  0  0  0  0  0  0  0  0  0
  -24.1050  -13.2010   20.7230 C   0  0  0  0  0  0  0  0  0  0  0  0
  -24.5810  -11.8600   20.6100 C   0  0  0  0  0  0  0  0  0  0  0  0
  -26.1400  -13.1480   19.8970 N   0  0  0  0  0  0  0  0  0  0  0  0
  -25.8310  -11.8520   20.1650 N   0  0  0  0  0  0  0  0  0  0  0  0
  -23.9000  -10.5810   20.8470 C   0  0  0  0  0  0  0  0  0  0  0  0
  -24.4000   -9.6390   21.7720 C   0  0  0  0  0  3  0  0  0  0  0  0
  -23.7250   -8.4190   21.9920 C   0  0  0  0  0  3  0  0  0  0  0  0
  -22.5330   -8.1290   21.2890 C   0  0  0  0  0  0  0  0  0  0  0  0
  -22.0470   -9.0610   20.3560 C   0  0  0  0  0  3  0  0  0  0  0  0
  -22.7220  -10.2740   20.1340 C   0  0  0  0  0  3  0  0  0  0  0  0
  -21.8170   -6.9620   21.4230 O   0  0  0  0  0  0  0  0  0  0  0  0
  -21.7830   -6.2720   22.6060 C   0  0  0  0  0  0  0  0  0  0  0  0
  -21.3310   -6.8690   23.8030 C   0  0  0  0  0  3  0  0  0  0  0  0
  -21.2450   -6.1030   24.9830 C   0  0  0  0  0  3  0  0  0  0  0  0
  -21.5990   -4.7410   24.9660 C   0  0  0  0  0  0  0  0  0  0  0  0
  -22.0450   -4.1420   23.7740 C   0  0  0  0  0  3  0  0  0  0  0  0
  -22.1340   -4.9070   22.5970 C   0  0  0  0  0  0  0  0  0  0  0  0
  -22.5440   -4.3220   21.4460 F   0  0  0  0  0  0  0  0  0  0  0  0
  -21.5100   -4.0000   26.0970 F   0  0  0  0  0  0  0  0  0  0  0  0
  -22.7360  -13.6410   21.1510 C   0  0  0  0  0  0  0  0  0  0  0  0
  -22.1150  -12.9260   22.0850 N   0  0  0  0  0  0  0  0  0  0  0  0
  -22.2190  -14.6550   20.6860 O   0  0  0  0  0  0  0  0  0  0  0  0
  -22.5400  -12.1040   22.4900 H   0  0  0  0  0  0  0  0  0  0  0  0
  -21.1980  -13.2060   22.3970 H   0  0  0  0  0  0  0  0  0  0  0  0
  -25.2470  -15.3810   20.1060 N   0  0  0  0  0  0  0  0  0  0  0  0
  -24.5090  -16.0470   20.3070 H   0  0  0  0  0  0  0  0  0  0  0  0
  -26.0640  -15.8210   19.7070 H   0  0  0  0  0  0  0  0  0  0  0  0
  -29.5390  -21.2880   19.4680 C   0  0  0  0  0  2  0  0  0  0  0  0
  -29.3740  -23.8030   19.3720 C   0  0  0  0  0  0  0  0  0  0  0  0
  -29.5240  -22.5970   18.7930 N   0  0  0  0  0  0  0  0  0  0  0  0
  -29.0460  -23.9270   20.5530 O   0  0  0  0  0  0  0  0  0  0  0  0
  -29.7550  -22.5910   17.8070 H   0  0  0  0  0  0  0  0  0  0  0  0
  -29.7010  -25.0520   18.5210 C   0  0  0  0  0  2  0  0  0  0  0  0
  -28.5670  -26.1030   18.4200 C   0  0  0  0  0  2  0  0  0  0  0  0
  -28.3960  -26.9200   19.5890 O   0  0  0  0  0  0  0  0  0  0  0  0
  -24.6750  -31.7040   23.3580 C   0  0  0  0  0  0  0  0  0  0  0  0
  -27.2110  -27.6270   19.7090 C   0  0  0  0  0  0  0  0  0  0  0  0
  -23.4100  -30.4760   21.6240 C   0  0  0  0  0  3  0  0  0  0  0  0
  -24.8080  -29.1060   19.9900 C   0  0  0  0  0  0  0  0  0  0  0  0
  -25.9280  -30.8650   21.3710 C   0  0  0  0  0  2  0  0  0  0  0  0
  -25.9890  -29.5660   20.5920 C   0  0  0  0  0  0  0  0  0  0  0  0
  -27.1870  -28.8250   20.4620 C   0  0  0  0  0  3  0  0  0  0  0  0
  -26.0020  -27.1740   19.1280 C   0  0  0  0  0  3  0  0  0  0  0  0
  -24.8130  -27.9100   19.2570 C   0  0  0  0  0  3  0  0  0  0  0  0
  -23.5660  -29.9450   20.1720 C   0  0  0  0  0  2  0  0  0  0  0  0
  -24.6930  -31.0240   22.1770 N   0  0  0  0  0  0  0  0  0  0  0  0
  -23.6140  -31.9070   23.9650 O   0  0  0  0  0  0  0  0  0  0  0  0
  -22.7980  -29.3520   22.4950 C   0  0  0  0  0  0  0  0  0  0  0  0
  -21.4870  -29.1080   22.3300 N   0  0  0  0  0  0  0  0  0  0  0  0
  -23.5000  -28.7090   23.2790 O   0  0  0  0  0  0  0  0  0  0  0  0
  -20.9770  -29.6910   21.6820 H   0  0  0  0  0  0  0  0  0  0  0  0
  -18.2050  -27.6140   22.5810 C   0  0  0  0  0  0  0  0  0  0  0  0
  -20.7120  -28.0730   23.0130 C   0  0  0  0  0  3  0  0  0  0  0  0
  -20.9690  -26.6810   22.3940 C   0  0  0  0  0  2  0  0  0  0  0  0
  -19.9590  -26.3080   21.3050 C   0  0  0  0  0  2  0  0  0  0  0  0
  -18.5340  -26.3130   21.8680 C   0  0  0  0  0  2  0  0  0  0  0  0
  -19.2280  -28.4500   23.1030 C   0  0  0  0  0  0  0  0  0  0  0  0
  -18.8700  -29.6660   23.7220 C   0  0  0  0  0  3  0  0  0  0  0  0
  -17.5180  -30.0530   23.8220 C   0  0  0  0  0  3  0  0  0  0  0  0
  -16.5110  -29.2170   23.3150 C   0  0  0  0  0  3  0  0  0  0  0  0
  -16.8530  -27.9980   22.7000 C   0  0  0  0  0  3  0  0  0  0  0  0
  -25.9780  -32.2830   23.9900 C   0  0  0  0  0  3  0  0  0  0  0  0
  -26.4920  -31.4470   25.2260 C   0  0  1  0  0  0  0  0  0  0  0  0
  -25.4030  -31.1640   26.2850 C   0  0  0  0  0  1  0  0  0  0  0  0
  -27.0680  -30.0890   24.7630 C   0  0  0  0  0  1  0  0  0  0  0  0
  -27.6480  -32.2020   25.9240 C   0  0  0  0  0  1  0  0  0  0  0  0
  -25.7030  -33.6720   24.3810 N   0  0  0  0  0  0  0  0  0  0  0  0
  -26.0560  -34.7470   23.6670 C   0  0  0  0  0  0  0  0  0  0  0  0
  -26.7140  -34.6740   22.6260 O   0  0  0  0  0  0  0  0  0  0  0  0
  -25.1300  -33.8030   25.2020 H   0  0  0  0  0  0  0  0  0  0  0  0
  -24.3650  -36.5920   23.4030 C   0  0  0  0  0  1  0  0  0  0  0  0
  -25.6030  -36.1270   24.1880 C   0  0  0  0  0  3  0  0  0  0  0  0
  -27.7670  -36.9240   25.0350 C   0  0  0  0  0  1  0  0  0  0  0  0
  -26.6590  -37.1600   24.1130 N   0  0  0  0  0  0  0  0  0  0  0  0
  -26.2750  -38.0820   24.3030 H   0  0  0  0  0  0  0  0  0  0  0  0
  2  1  1  0
  3 53  1  0
  3  2  1  0
  4 22  1  0
  4  1  1  0
  5  3  1  0
  5  6  1  0
  6  8  1  6
  6  2  1  0
  6  7  1  0
  9  5  1  0
  9  4  1  0
 10  9  1  0
 11  9  1  0
 12 23  1  0
 13 18  1  0
 14 15  1  0
 14 13  1  0
 16 15  1  0
 16 28  1  0
 16 17  1  0
 18 12  1  0
 18 17  1  0
 19 12  2  0
 20 24  2  0
 21 20  1  0
 22 20  1  0
 23 22  1  0
 23 21  1  0
 25 26  2  0
 26 45  1  0
 27 26  1  0
 27 30  1  0
 28 29  1  0
 28 25  1  0
 29 27  2  0
 30 31  1  0
 31 32  2  0
 33 36  1  0
 33 32  1  0
 34 33  2  0
 35 34  1  0
 35 30  2  0
 36 37  1  0
 37 38  1  0
 38 39  2  0
 40 39  1  0
 40 44  1  0
 41 40  2  0
 42 37  2  0
 42 41  1  0
 43 42  1  0
 45 46  1  0
 46 49  1  0
 46 48  1  0
 47 45  2  0
 50 25  1  0
 50 51  1  0
 52 50  1  0
 54 56  2  0
 55 54  1  0
 55 53  1  0
 57 55  1  0
 58 54  1  0
 59 58  1  0
 59 60  1  0
 60 62  1  0
 61 72  2  0
 62 67  1  0
 63 71  1  0
 63 73  1  0
 64 70  1  0
 64 66  1  0
 65 71  1  0
 66 65  1  0
 67 66  2  0
 68 69  1  0
 68 62  2  0
 69 64  2  0
 70 63  1  0
 71 61  1  0
 73 75  2  0
 74 73  1  0
 76 74  1  0
 77 86  2  0
 77 82  1  0
 78 74  1  0
 78 82  1  0
 79 78  1  0
 80 81  1  0
 80 79  1  0
 81 77  1  0
 82 83  2  0
 83 84  1  0
 85 84  2  0
 86 85  1  0
 87 61  1  0
 87 92  1  0
 87 88  1  0
 88 91  1  1
 88 89  1  0
 90 88  1  0
 92 95  1  0
 93 97  1  0
 93 92  1  0
 94 93  2  0
 97 96  1  0
 99 97  1  0
 99100  1  0
 99 98  1  0
M  ISO  4  12 100  23 100  59 101  60 101
M  END
>  <TORSDO>  (85) 
F 20

>  <SCORE>  (85) 
-9.424

>  <name>  (85) 
85

>  <ligand_id>  (85) 
85

>  <original_smiles>  (85) 
[H]c1c([H])c([H])c2c(c1[H])C([H])([H])C([H])([H])C([H])([H])C2([H])N([H])C(=O)C1([H])N(C(=O)C([H])(N([H])C(=O)C([H])(N([H])C([H])([H])[H])C([H])([H])[H])C(C([H])([H])[H])(C([H])([H])[H])C([H])([H])[H])C([H])([H])c2c([H])c(OC([H])([H])C([H])([H])C(=O)N([H])C([H])([H])C3([H])C4([H])C([H])([H])C([H])(C5([H])C(=O)C([H])([H])N5C(=O)N5C([H])([H])C([H])([H])C([H])([H])C([H])(n6nc(-c7c([H])c([H])c(Oc8c([H])c([H])c(F)c([H])c8F)c([H])c7[H])c(C(=O)N([H])[H])c6N([H])[H])C5([H])[H])[N+]([H])([H])C3([H])C4(C([H])([H])[H])C([H])([H])[H])c([H])c([H])c2C1([H])[H]

>  <smiles>  (85) 
[H]c1c([H])c([H])c2c(c1[H])C([H])([H])C([H])([H])C([H])([H])C2([H])N([H])C(=O)C1([H])N(C(=O)C([H])(N([H])C(=O)C([H])(N([H])C([H])([H])[H])C([H])([H])[H])C(C([H])([H])[H])(C([H])([H])[H])C([H])([H])[H])C([H])([H])c2c([H])c(OC([H])([H])C([H])([H])C(=O)N([H])C([H])([H])C3([H])C4([H])C([H])([H])C([H])(C5([H])C(=O)C([H])([H])N5C(=O)N5C([H])([H])C([H])([H])C([H])([H])C([H])(n6nc(-c7c([H])c([H])c(Oc8c([H])c([H])c(F)c([H])c8F)c([H])c7[H])c(C(=O)N([H])[H])c6N([H])[H])C5([H])[H])[N+]([H])([H])C3([H])C4(C([H])([H])[H])C([H])([H])[H])c([H])c([H])c2C1([H])[H]

$$$$
86:0:0
     RDKit          3D

 94103  0  0  1  0  0  0  0  0999 V2000
  -26.7580  -20.9160   20.5390 C   0  0  0  0  0  2  0  0  0  0  0  0
  -27.7230  -21.1480   18.2740 C   0  0  0  0  0  2  0  0  0  0  0  0
  -27.2940  -22.3150   20.9050 C   0  0  0  0  0  2  0  0  0  0  0  0
  -28.2500  -22.5460   18.6330 C   0  0  0  0  0  2  0  0  0  0  0  0
  -27.6750  -20.2340   19.5110 C   0  0  0  0  0  3  0  0  0  0  0  0
  -27.4700  -23.2000   19.7210 N   0  0  2  0  0  4  0  0  0  0  0  0
  -26.5450  -23.3820   19.3590 H   0  0  0  0  0  0  0  0  0  0  0  0
  -27.2400  -18.7840   19.1960 C   0  0  0  0  0  2  0  0  0  0  0  0
  -28.2660  -17.7220   19.6300 C   0  0  0  0  0  2  0  0  0  0  0  0
  -29.2940  -17.6730   18.6600 O   0  0  0  0  0  0  0  0  0  0  0  0
  -32.3250  -15.3920   20.0430 C   0  0  0  0  0  0  0  0  0  0  0  0
  -32.4420  -13.0300   20.7310 C   0  0  0  0  0  2  0  0  0  0  0  0
  -31.7540  -12.1400   19.6740 C   0  0  0  0  0  2  0  0  0  0  0  0
  -30.2340  -12.0540   19.9240 C   0  0  0  0  0  2  0  0  0  0  0  0
  -29.5860  -13.4450   20.1490 C   0  0  0  0  0  3  0  0  0  0  0  0
  -30.3950  -14.2410   21.1940 C   0  0  0  0  0  2  0  0  0  0  0  0
  -31.7850  -14.3400   20.7120 N   0  0  0  0  0  0  0  0  0  0  0  0
  -33.4820  -15.4000   19.6090 O   0  0  0  0  0  0  0  0  0  0  0  0
  -31.0070  -17.4710   20.4480 C   0  0  0  0  0  2  0  0  0  0  0  0
  -31.6260  -17.1970   18.4880 C   0  0  0  0  0  2  0  0  0  0  0  0
  -30.5740  -18.0880   19.1230 C   0  0  0  0  0  3  0  0  0  0  0  0
  -31.4380  -16.3180   19.6490 N   0  0  0  0  0  0  0  0  0  0  0  0
  -27.2300  -14.3110   20.7430 C   0  0  0  0  0  0  0  0  0  0  0  0
  -26.0580  -13.6530   21.0070 C   0  0  0  0  0  0  0  0  0  0  0  0
  -26.3620  -12.2590   20.9350 C   0  0  0  0  0  0  0  0  0  0  0  0
  -28.1800  -13.3220   20.5310 N   0  0  0  0  0  0  0  0  0  0  0  0
  -27.6550  -12.0820   20.6960 N   0  0  0  0  0  0  0  0  0  0  0  0
  -25.4870  -11.0800   21.0200 C   0  0  0  0  0  0  0  0  0  0  0  0
  -25.6510  -10.1070   22.0330 C   0  0  0  0  0  3  0  0  0  0  0  0
  -24.7860   -8.9940   22.1050 C   0  0  0  0  0  3  0  0  0  0  0  0
  -23.7410   -8.8440   21.1620 C   0  0  0  0  0  0  0  0  0  0  0  0
  -23.5960   -9.8040   20.1430 C   0  0  0  0  0  3  0  0  0  0  0  0
  -24.4630  -10.9080   20.0690 C   0  0  0  0  0  3  0  0  0  0  0  0
  -22.8730   -7.7780   21.1420 O   0  0  0  0  0  0  0  0  0  0  0  0
  -22.4320   -7.1810   22.2970 C   0  0  0  0  0  0  0  0  0  0  0  0
  -21.7090   -7.8980   23.2740 C   0  0  0  0  0  3  0  0  0  0  0  0
  -21.2090   -7.2330   24.4110 C   0  0  0  0  0  3  0  0  0  0  0  0
  -21.4260   -5.8510   24.5710 C   0  0  0  0  0  0  0  0  0  0  0  0
  -22.1420   -5.1330   23.5970 C   0  0  0  0  0  3  0  0  0  0  0  0
  -22.6410   -5.7960   22.4620 C   0  0  0  0  0  0  0  0  0  0  0  0
  -23.3110   -5.0960   21.5150 F   0  0  0  0  0  0  0  0  0  0  0  0
  -20.9390   -5.2110   25.6590 F   0  0  0  0  0  0  0  0  0  0  0  0
  -24.7080  -14.2760   21.2210 C   0  0  0  0  0  0  0  0  0  0  0  0
  -23.8700  -13.6590   22.0470 N   0  0  0  0  0  0  0  0  0  0  0  0
  -24.4030  -15.3440   20.6930 O   0  0  0  0  0  0  0  0  0  0  0  0
  -24.1280  -12.7970   22.5060 H   0  0  0  0  0  0  0  0  0  0  0  0
  -22.9630  -14.0610   22.2340 H   0  0  0  0  0  0  0  0  0  0  0  0
  -27.5660  -15.6590   20.6510 N   0  0  0  0  0  0  0  0  0  0  0  0
  -26.8900  -16.3990   20.7860 H   0  0  0  0  0  0  0  0  0  0  0  0
  -28.5130  -16.0020   20.5280 H   0  0  0  0  0  0  0  0  0  0  0  0
  -28.0490  -24.5100   20.1290 C   0  0  0  0  0  2  0  0  0  0  0  0
  -28.5280  -25.3920   18.9550 C   0  0  0  0  0  2  0  0  0  0  0  0
  -28.9680  -26.7950   19.4060 C   0  0  0  0  0  2  0  0  0  0  0  0
  -28.4500  -27.7800   18.5240 O   0  0  0  0  0  0  0  0  0  0  0  0
  -24.3000  -31.1840   23.1860 C   0  0  0  0  0  0  0  0  0  0  0  0
  -27.1900  -28.2000   18.8570 C   0  0  0  0  0  0  0  0  0  0  0  0
  -23.1250  -29.9410   21.3960 C   0  0  0  0  0  3  0  0  0  0  0  0
  -24.5950  -29.0830   19.4980 C   0  0  0  0  0  0  0  0  0  0  0  0
  -25.4770  -30.8660   21.0170 C   0  0  0  0  0  2  0  0  0  0  0  0
  -25.7090  -29.7110   20.0680 C   0  0  0  0  0  0  0  0  0  0  0  0
  -27.0110  -29.2730   19.7530 C   0  0  0  0  0  3  0  0  0  0  0  0
  -26.0650  -27.5720   18.2860 C   0  0  0  0  0  3  0  0  0  0  0  0
  -24.7660  -28.0060   18.6080 C   0  0  0  0  0  3  0  0  0  0  0  0
  -23.2370  -29.6260   19.8800 C   0  0  0  0  0  2  0  0  0  0  0  0
  -24.3240  -30.6680   21.9240 N   0  0  0  0  0  0  0  0  0  0  0  0
  -23.2850  -31.1010   23.8920 O   0  0  0  0  0  0  0  0  0  0  0  0
  -22.8270  -28.6260   22.1490 C   0  0  0  0  0  0  0  0  0  0  0  0
  -21.6090  -28.0920   21.9590 N   0  0  0  0  0  0  0  0  0  0  0  0
  -23.6850  -28.0940   22.8590 O   0  0  0  0  0  0  0  0  0  0  0  0
  -20.9610  -28.5930   21.3690 H   0  0  0  0  0  0  0  0  0  0  0  0
  -18.8210  -25.7970   21.9800 C   0  0  0  0  0  0  0  0  0  0  0  0
  -21.1200  -26.8410   22.5340 C   0  0  0  0  0  3  0  0  0  0  0  0
  -21.7350  -25.6190   21.8120 C   0  0  0  0  0  2  0  0  0  0  0  0
  -20.8660  -25.0970   20.6630 C   0  0  0  0  0  2  0  0  0  0  0  0
  -19.4820  -24.6890   21.1780 C   0  0  0  0  0  2  0  0  0  0  0  0
  -19.5890  -26.8160   22.6040 C   0  0  0  0  0  0  0  0  0  0  0  0
  -18.9230  -27.8420   23.3070 C   0  0  0  0  0  3  0  0  0  0  0  0
  -17.5180  -27.8600   23.3970 C   0  0  0  0  0  3  0  0  0  0  0  0
  -16.7630  -26.8410   22.7920 C   0  0  0  0  0  3  0  0  0  0  0  0
  -17.4150  -25.8100   22.0890 C   0  0  0  0  0  3  0  0  0  0  0  0
  -25.5340  -31.9220   23.7930 C   0  0  0  0  0  3  0  0  0  0  0  0
  -25.1130  -33.2900   24.1200 N   0  0  0  0  0  0  0  0  0  0  0  0
  -25.3500  -34.3630   23.3520 C   0  0  0  0  0  0  0  0  0  0  0  0
  -26.0210  -34.3090   22.3170 O   0  0  0  0  0  0  0  0  0  0  0  0
  -24.5140  -33.4000   24.9250 H   0  0  0  0  0  0  0  0  0  0  0  0
  -23.4710  -35.9940   23.0040 C   0  0  0  0  0  1  0  0  0  0  0  0
  -24.7500  -35.7060   23.8040 C   0  0  0  0  0  3  0  0  0  0  0  0
  -26.8120  -36.7760   24.6000 C   0  0  0  0  0  1  0  0  0  0  0  0
  -25.6870  -36.8430   23.6710 N   0  0  0  0  0  0  0  0  0  0  0  0
  -25.2060  -37.7260   23.8190 H   0  0  0  0  0  0  0  0  0  0  0  0
  -26.1280  -31.2010   25.0650 C   0  0  1  0  0  0  0  0  0  0  0  0
  -25.0650  -30.8420   26.1300 C   0  0  0  0  0  1  0  0  0  0  0  0
  -26.8520  -29.8950   24.6620 C   0  0  0  0  0  1  0  0  0  0  0  0
  -27.1870  -32.1070   25.7360 C   0  0  0  0  0  1  0  0  0  0  0  0
  1  3  1  0
  2  4  1  0
  2  5  1  0
  4  6  1  0
  5  8  1  0
  5  1  1  0
  6 51  1  0
  6  3  1  0
  6  7  1  6
  8  9  1  0
 10  9  1  0
 11 17  1  0
 13 14  1  0
 13 12  1  0
 15 14  1  0
 15 26  1  0
 15 16  1  0
 17 12  1  0
 17 16  1  0
 18 11  2  0
 20 21  1  0
 20 22  1  0
 21 10  1  0
 21 19  1  0
 22 11  1  0
 22 19  1  0
 23 24  2  0
 24 43  1  0
 25 24  1  0
 25 28  1  0
 26 27  1  0
 26 23  1  0
 27 25  2  0
 28 29  1  0
 29 30  2  0
 31 30  1  0
 32 31  2  0
 33 32  1  0
 33 28  2  0
 34 31  1  0
 34 35  1  0
 35 40  2  0
 35 36  1  0
 36 37  2  0
 37 38  1  0
 38 42  1  0
 39 38  2  0
 40 39  1  0
 41 40  1  0
 43 44  1  0
 44 47  1  0
 44 46  1  0
 45 43  2  0
 48 23  1  0
 48 49  1  0
 50 48  1  0
 52 53  1  0
 52 51  1  0
 54 56  1  0
 54 53  1  0
 55 66  2  0
 56 61  1  0
 57 65  1  0
 57 67  1  0
 58 64  1  0
 58 60  1  0
 59 65  1  0
 60 59  1  0
 61 60  2  0
 62 63  1  0
 62 56  2  0
 63 58  2  0
 64 57  1  0
 65 55  1  0
 67 69  2  0
 68 67  1  0
 70 68  1  0
 71 80  2  0
 71 76  1  0
 72 68  1  0
 72 76  1  0
 73 72  1  0
 74 75  1  0
 74 73  1  0
 75 71  1  0
 76 77  2  0
 77 78  1  0
 79 78  2  0
 80 79  1  0
 81 55  1  0
 81 82  1  0
 81 91  1  0
 82 85  1  0
 83 87  1  0
 83 82  1  0
 84 83  2  0
 87 86  1  0
 89 87  1  0
 89 90  1  0
 89 88  1  0
 91 94  1  1
 91 92  1  0
 93 91  1  0
M  ISO  4  11 100  22 100  53 101  54 101
M  END
>  <TORSDO>  (86) 
F 22

>  <SCORE>  (86) 
-7.276

>  <name>  (86) 
86

>  <ligand_id>  (86) 
86

>  <original_smiles>  (86) 
[H]c1c([H])c([H])c2c(c1[H])C([H])([H])C([H])([H])C([H])([H])C2([H])N([H])C(=O)C1([H])N(C(=O)C([H])(N([H])C(=O)C([H])(N([H])C([H])([H])[H])C([H])([H])[H])C(C([H])([H])[H])(C([H])([H])[H])C([H])([H])[H])C([H])([H])c2c([H])c(OC([H])([H])C([H])([H])C([H])([H])[N+]3([H])C([H])([H])C([H])([H])C([H])(C([H])([H])C([H])([H])OC4([H])C([H])([H])N(C(=O)N5C([H])([H])C([H])([H])C([H])([H])C([H])(n6nc(-c7c([H])c([H])c(Oc8c([H])c([H])c(F)c([H])c8F)c([H])c7[H])c(C(=O)N([H])[H])c6N([H])[H])C5([H])[H])C4([H])[H])C([H])([H])C3([H])[H])c([H])c([H])c2C1([H])[H]

>  <smiles>  (86) 
[H]c1c([H])c([H])c2c(c1[H])C([H])([H])C([H])([H])C([H])([H])C2([H])N([H])C(=O)C1([H])N(C(=O)C([H])(N([H])C(=O)C([H])(N([H])C([H])([H])[H])C([H])([H])[H])C(C([H])([H])[H])(C([H])([H])[H])C([H])([H])[H])C([H])([H])c2c([H])c(OC([H])([H])C([H])([H])C([H])([H])[N+]3([H])C([H])([H])C([H])([H])C([H])(C([H])([H])C([H])([H])OC4([H])C([H])([H])N(C(=O)N5C([H])([H])C([H])([H])C([H])([H])C([H])(n6nc(-c7c([H])c([H])c(Oc8c([H])c([H])c(F)c([H])c8F)c([H])c7[H])c(C(=O)N([H])[H])c6N([H])[H])C5([H])[H])C4([H])[H])C([H])([H])C3([H])[H])c([H])c([H])c2C1([H])[H]

$$$$
87:0:0
     RDKit          3D

 97106  0  0  1  0  0  0  0  0999 V2000
  -29.0460  -19.7790   16.8860 C   0  0  0  0  0  3  0  0  0  0  0  0
  -28.9460  -21.1600   17.1400 C   0  0  0  0  0  3  0  0  0  0  0  0
  -29.2630  -18.8710   17.9470 C   0  0  0  0  0  3  0  0  0  0  0  0
  -29.1040  -21.6030   18.4630 C   0  0  0  0  0  0  0  0  0  0  0  0
  -29.3840  -20.7220   19.5140 C   0  0  0  0  0  0  0  0  0  0  0  0
  -29.4360  -19.3050   19.2880 C   0  0  0  0  0  0  0  0  0  0  0  0
  -28.9310  -23.0280   18.9190 C   0  0  0  0  0  2  0  0  0  0  0  0
  -29.5110  -21.5370   20.8020 C   0  0  0  0  0  2  0  0  0  0  0  0
  -28.8600  -22.9330   20.4620 C   0  0  0  0  0  3  0  0  0  0  0  0
  -30.6390  -24.8190   20.7610 C   0  0  0  0  0  1  0  0  0  0  0  0
  -29.2730  -24.2620   21.2310 C   0  0  2  0  0  0  0  0  0  0  0  0
  -29.3930  -23.9570   22.6810 N   0  0  0  0  0  4  0  0  0  0  0  0
  -28.5460  -23.5550   23.0520 H   0  0  0  0  0  0  0  0  0  0  0  0
  -29.5750  -24.7970   23.2060 H   0  0  0  0  0  0  0  0  0  0  0  0
  -30.1490  -23.3230   22.8750 H   0  0  0  0  0  0  0  0  0  0  0  0
  -28.1460  -25.3670   21.0670 C   0  0  0  0  0  2  0  0  0  0  0  0
  -28.4270  -26.5960   20.3380 O   0  0  0  0  0  0  0  0  0  0  0  0
  -24.6050  -31.8850   23.2240 C   0  0  0  0  0  0  0  0  0  0  0  0
  -27.3070  -27.4080   20.2310 C   0  0  0  0  0  0  0  0  0  0  0  0
  -23.4290  -30.4640   21.5800 C   0  0  0  0  0  3  0  0  0  0  0  0
  -24.9140  -28.9280   20.1790 C   0  0  0  0  0  0  0  0  0  0  0  0
  -25.9600  -30.8310   21.4120 C   0  0  0  0  0  2  0  0  0  0  0  0
  -26.0650  -29.4550   20.7810 C   0  0  0  0  0  0  0  0  0  0  0  0
  -27.2670  -28.7050   20.8030 C   0  0  0  0  0  3  0  0  0  0  0  0
  -26.1470  -26.9160   19.5930 C   0  0  0  0  0  3  0  0  0  0  0  0
  -24.9540  -27.6610   19.5760 C   0  0  0  0  0  3  0  0  0  0  0  0
  -23.6620  -29.7790   20.2080 C   0  0  0  0  0  2  0  0  0  0  0  0
  -24.6830  -31.0740   22.1310 N   0  0  0  0  0  0  0  0  0  0  0  0
  -23.5160  -32.1550   23.7480 O   0  0  0  0  0  0  0  0  0  0  0  0
  -22.7700  -29.4450   22.5380 C   0  0  0  0  0  0  0  0  0  0  0  0
  -21.4450  -29.2650   22.4080 N   0  0  0  0  0  0  0  0  0  0  0  0
  -23.4500  -28.8190   23.3560 O   0  0  0  0  0  0  0  0  0  0  0  0
  -20.9540  -29.8220   21.7210 H   0  0  0  0  0  0  0  0  0  0  0  0
  -18.0620  -28.1190   22.9420 C   0  0  0  0  0  0  0  0  0  0  0  0
  -20.6270  -28.3310   23.1810 C   0  0  0  0  0  3  0  0  0  0  0  0
  -20.6980  -26.9050   22.5850 C   0  0  0  0  0  2  0  0  0  0  0  0
  -19.5770  -26.6140   21.5830 C   0  0  0  0  0  2  0  0  0  0  0  0
  -18.2070  -26.7750   22.2470 C   0  0  0  0  0  2  0  0  0  0  0  0
  -19.1990  -28.8560   23.3670 C   0  0  0  0  0  0  0  0  0  0  0  0
  -19.0090  -30.1170   23.9740 C   0  0  0  0  0  3  0  0  0  0  0  0
  -17.7150  -30.6380   24.1620 C   0  0  0  0  0  3  0  0  0  0  0  0
  -16.5920  -29.8950   23.7550 C   0  0  0  0  0  3  0  0  0  0  0  0
  -16.7680  -28.6380   23.1500 C   0  0  0  0  0  3  0  0  0  0  0  0
  -25.8790  -32.5320   23.8540 C   0  0  0  0  0  3  0  0  0  0  0  0
  -25.5580  -33.9300   24.1660 N   0  0  0  0  0  0  0  0  0  0  0  0
  -25.8980  -34.9760   23.4020 C   0  0  0  0  0  0  0  0  0  0  0  0
  -26.5860  -34.8670   22.3830 O   0  0  0  0  0  0  0  0  0  0  0  0
  -24.9490  -34.0900   24.9550 H   0  0  0  0  0  0  0  0  0  0  0  0
  -24.1860  -36.7700   22.9810 C   0  0  0  0  0  1  0  0  0  0  0  0
  -25.3960  -36.3660   23.8390 C   0  0  0  0  0  3  0  0  0  0  0  0
  -27.4910  -37.2590   24.7540 C   0  0  0  0  0  1  0  0  0  0  0  0
  -26.4320  -37.4180   23.7600 N   0  0  0  0  0  0  0  0  0  0  0  0
  -26.0200  -38.3390   23.8800 H   0  0  0  0  0  0  0  0  0  0  0  0
  -26.3870  -31.7740   25.1420 C   0  0  1  0  0  0  0  0  0  0  0  0
  -25.2830  -31.5330   26.1960 C   0  0  0  0  0  1  0  0  0  0  0  0
  -26.9900  -30.4010   24.7640 C   0  0  0  0  0  1  0  0  0  0  0  0
  -27.5210  -32.5850   25.8130 C   0  0  0  0  0  1  0  0  0  0  0  0
  -29.5070  -18.2140   20.3860 C   0  0  0  0  0  2  0  0  0  0  0  0
  -30.5240  -17.0330   20.1640 C   0  0  0  0  0  2  0  0  0  0  0  0
  -30.7450  -14.5430   20.3780 C   0  0  0  0  0  0  0  0  0  0  0  0
  -30.3740  -12.3730   19.2790 C   0  0  0  0  0  2  0  0  0  0  0  0
  -29.4260  -12.5850   18.0820 C   0  0  0  0  0  2  0  0  0  0  0  0
  -27.9570  -12.4580   18.5280 C   0  0  0  0  0  2  0  0  0  0  0  0
  -27.6390  -13.2960   19.7950 C   0  0  0  0  0  3  0  0  0  0  0  0
  -28.7160  -13.1140   20.8910 C   0  0  0  0  0  2  0  0  0  0  0  0
  -30.0300  -13.3860   20.2910 N   0  0  0  0  0  0  0  0  0  0  0  0
  -31.9210  -14.6170   20.0230 O   0  0  0  0  0  0  0  0  0  0  0  0
  -30.0470  -15.6840   20.5910 N   0  0  0  0  0  0  0  0  0  0  0  0
  -29.0760  -15.5880   20.8340 H   0  0  0  0  0  0  0  0  0  0  0  0
  -25.2490  -13.9010   20.5330 C   0  0  0  0  0  0  0  0  0  0  0  0
  -24.1810  -13.1290   20.8990 C   0  0  0  0  0  0  0  0  0  0  0  0
  -24.6360  -11.7750   20.8580 C   0  0  0  0  0  0  0  0  0  0  0  0
  -26.2920  -13.0190   20.2900 N   0  0  0  0  0  0  0  0  0  0  0  0
  -25.9260  -11.7360   20.5460 N   0  0  0  0  0  0  0  0  0  0  0  0
  -23.9090  -10.5120   21.0360 C   0  0  0  0  0  0  0  0  0  0  0  0
  -24.3190   -9.5460   21.9820 C   0  0  0  0  0  3  0  0  0  0  0  0
  -23.5860   -8.3530   22.1520 C   0  0  0  0  0  3  0  0  0  0  0  0
  -22.4300   -8.1120   21.3730 C   0  0  0  0  0  0  0  0  0  0  0  0
  -22.0370   -9.0660   20.4170 C   0  0  0  0  0  3  0  0  0  0  0  0
  -22.7710  -10.2510   20.2460 C   0  0  0  0  0  3  0  0  0  0  0  0
  -21.6720   -6.9660   21.4500 O   0  0  0  0  0  0  0  0  0  0  0  0
  -21.5830   -6.2400   22.6110 C   0  0  0  0  0  0  0  0  0  0  0  0
  -21.0650   -6.7980   23.8010 C   0  0  0  0  0  3  0  0  0  0  0  0
  -20.9260   -5.9960   24.9520 C   0  0  0  0  0  3  0  0  0  0  0  0
  -21.2980   -4.6380   24.9120 C   0  0  0  0  0  0  0  0  0  0  0  0
  -21.8070   -4.0800   23.7260 C   0  0  0  0  0  3  0  0  0  0  0  0
  -21.9460   -4.8800   22.5790 C   0  0  0  0  0  0  0  0  0  0  0  0
  -22.4190   -4.3340   21.4310 F   0  0  0  0  0  0  0  0  0  0  0  0
  -21.1560   -3.8630   26.0130 F   0  0  0  0  0  0  0  0  0  0  0  0
  -22.7860  -13.6070   21.1780 C   0  0  0  0  0  0  0  0  0  0  0  0
  -22.0540  -12.9000   22.0310 N   0  0  0  0  0  0  0  0  0  0  0  0
  -22.3520  -14.6430   20.6730 O   0  0  0  0  0  0  0  0  0  0  0  0
  -22.4140  -12.0600   22.4640 H   0  0  0  0  0  0  0  0  0  0  0  0
  -21.1180  -13.2030   22.2600 H   0  0  0  0  0  0  0  0  0  0  0  0
  -25.4230  -15.2720   20.3620 N   0  0  0  0  0  0  0  0  0  0  0  0
  -24.6720  -15.9390   20.4970 H   0  0  0  0  0  0  0  0  0  0  0  0
  -26.2720  -15.7000   20.0210 H   0  0  0  0  0  0  0  0  0  0  0  0
  1  2  2  0
  1  3  1  0
  2  4  1  0
  3  6  2  0
  4  7  1  0
  4  5  2  0
  5  8  1  0
  6  5  1  0
  6 58  1  0
  7  9  1  0
  9  8  1  0
  9 11  1  0
 11 10  1  6
 11 12  1  0
 12 15  1  0
 12 13  1  0
 12 14  1  0
 16 11  1  0
 17 16  1  0
 18 29  2  0
 19 17  1  0
 19 24  1  0
 20 28  1  0
 20 30  1  0
 21 27  1  0
 21 23  1  0
 22 28  1  0
 23 24  2  0
 23 22  1  0
 25 19  2  0
 26 25  1  0
 26 21  2  0
 27 20  1  0
 28 18  1  0
 30 32  2  0
 31 30  1  0
 33 31  1  0
 34 43  2  0
 34 39  1  0
 35 31  1  0
 35 39  1  0
 36 35  1  0
 37 38  1  0
 37 36  1  0
 38 34  1  0
 39 40  2  0
 40 41  1  0
 42 41  2  0
 43 42  1  0
 44 18  1  0
 44 45  1  0
 44 54  1  0
 45 48  1  0
 46 50  1  0
 46 45  1  0
 47 46  2  0
 50 49  1  0
 52 50  1  0
 52 53  1  0
 52 51  1  0
 54 57  1  1
 54 55  1  0
 56 54  1  0
 59 58  1  0
 59 68  1  0
 60 68  1  0
 61 66  1  0
 62 63  1  0
 62 61  1  0
 64 63  1  0
 64 73  1  0
 64 65  1  0
 66 60  1  0
 66 65  1  0
 67 60  2  0
 68 69  1  0
 70 71  2  0
 71 90  1  0
 72 71  1  0
 72 75  1  0
 73 70  1  0
 73 74  1  0
 74 72  2  0
 75 76  1  0
 76 77  2  0
 78 81  1  0
 78 77  1  0
 79 78  2  0
 80 79  1  0
 80 75  2  0
 81 82  1  0
 82 83  1  0
 83 84  2  0
 85 84  1  0
 85 89  1  0
 86 85  2  0
 87 82  2  0
 87 86  1  0
 88 87  1  0
 90 91  1  0
 91 94  1  0
 91 93  1  0
 92 90  2  0
 95 96  1  0
 95 70  1  0
 97 95  1  0
M  ISO  4  16 101  17 101  60 100  68 100
M  END
>  <TORSDO>  (87) 
F 21

>  <SCORE>  (87) 
-14.027

>  <name>  (87) 
87

>  <ligand_id>  (87) 
87

>  <original_smiles>  (87) 
[H]c1c([H])c([H])c2c(c1[H])C([H])([H])C([H])([H])C([H])([H])C2([H])N([H])C(=O)C1([H])N(C(=O)C([H])(N([H])C(=O)C([H])(N([H])C([H])([H])[H])C([H])([H])[H])C(C([H])([H])[H])(C([H])([H])[H])C([H])([H])[H])C([H])([H])c2c([H])c(OC([H])([H])C(C([H])([H])[H])(C3([H])C([H])([H])c4c([H])c([H])c([H])c(C([H])([H])C([H])([H])N([H])C(=O)N5C([H])([H])C([H])([H])C([H])([H])C([H])(n6nc(-c7c([H])c([H])c(Oc8c([H])c([H])c(F)c([H])c8F)c([H])c7[H])c(C(=O)N([H])[H])c6N([H])[H])C5([H])[H])c4C3([H])[H])[N+]([H])([H])[H])c([H])c([H])c2C1([H])[H]

>  <smiles>  (87) 
[H]c1c([H])c([H])c2c(c1[H])C([H])([H])C([H])([H])C([H])([H])C2([H])N([H])C(=O)C1([H])N(C(=O)C([H])(N([H])C(=O)C([H])(N([H])C([H])([H])[H])C([H])([H])[H])C(C([H])([H])[H])(C([H])([H])[H])C([H])([H])[H])C([H])([H])c2c([H])c(OC([H])([H])C(C([H])([H])[H])(C3([H])C([H])([H])c4c([H])c([H])c([H])c(C([H])([H])C([H])([H])N([H])C(=O)N5C([H])([H])C([H])([H])C([H])([H])C([H])(n6nc(-c7c([H])c([H])c(Oc8c([H])c([H])c(F)c([H])c8F)c([H])c7[H])c(C(=O)N([H])[H])c6N([H])[H])C5([H])[H])c4C3([H])[H])[N+]([H])([H])[H])c([H])c([H])c2C1([H])[H]

$$$$
88:0:0
     RDKit          3D

 90 99  0  0  1  0  0  0  0  0999 V2000
  -28.0990  -20.8200   18.0480 C   0  0  0  0  0  2  0  0  0  0  0  0
  -30.2230  -19.7180   18.8970 C   0  0  0  0  0  2  0  0  0  0  0  0
  -27.3380  -20.4270   19.3480 C   0  0  0  0  0  2  0  0  0  0  0  0
  -29.5250  -21.0980   18.6080 C   0  0  0  0  0  3  0  0  0  0  0  0
  -29.2350  -19.0090   19.8450 C   0  0  0  0  0  3  0  0  0  0  0  0
  -29.1640  -21.6940   19.9880 C   0  0  0  0  0  3  0  0  0  0  0  0
  -28.4560  -20.3250   20.3180 N   0  0  1  0  0  4  0  0  0  0  0  0
  -28.1110  -20.2610   21.2640 H   0  0  0  0  0  0  0  0  0  0  0  0
  -28.4370  -23.2590   19.7250 C   0  0  0  0  0  2  0  0  0  0  0  0
  -28.2580  -24.6720   20.6420 C   0  0  0  0  0  2  0  0  0  0  0  0
  -28.3040  -26.1760   20.1920 O   0  0  0  0  0  0  0  0  0  0  0  0
  -24.6250  -31.8510   23.2240 C   0  0  0  0  0  0  0  0  0  0  0  0
  -27.2110  -27.1180   20.2210 C   0  0  0  0  0  0  0  0  0  0  0  0
  -23.4250  -30.4450   21.5910 C   0  0  0  0  0  3  0  0  0  0  0  0
  -24.8740  -28.8560   20.1800 C   0  0  0  0  0  0  0  0  0  0  0  0
  -25.9770  -30.7150   21.4190 C   0  0  0  0  0  2  0  0  0  0  0  0
  -26.0540  -29.3160   20.7780 C   0  0  0  0  0  0  0  0  0  0  0  0
  -27.2250  -28.4660   20.7700 C   0  0  0  0  0  3  0  0  0  0  0  0
  -26.0000  -26.7510   19.6010 C   0  0  0  0  0  3  0  0  0  0  0  0
  -24.8590  -27.5870   19.5760 C   0  0  0  0  0  3  0  0  0  0  0  0
  -23.6460  -29.7540   20.2180 C   0  0  0  0  0  2  0  0  0  0  0  0
  -24.6960  -31.0260   22.1340 N   0  0  0  0  0  0  0  0  0  0  0  0
  -23.5380  -32.1350   23.7520 O   0  0  0  0  0  0  0  0  0  0  0  0
  -22.7470  -29.4440   22.5600 C   0  0  0  0  0  0  0  0  0  0  0  0
  -21.4180  -29.2750   22.4390 N   0  0  0  0  0  0  0  0  0  0  0  0
  -23.4210  -28.8180   23.3840 O   0  0  0  0  0  0  0  0  0  0  0  0
  -20.9310  -29.8310   21.7500 H   0  0  0  0  0  0  0  0  0  0  0  0
  -18.0370  -28.0800   22.9570 C   0  0  0  0  0  0  0  0  0  0  0  0
  -20.5980  -28.3410   23.2140 C   0  0  0  0  0  3  0  0  0  0  0  0
  -20.6950  -26.9070   22.6430 C   0  0  0  0  0  2  0  0  0  0  0  0
  -19.5890  -26.5840   21.6320 C   0  0  0  0  0  2  0  0  0  0  0  0
  -18.2100  -26.7310   22.2810 C   0  0  0  0  0  2  0  0  0  0  0  0
  -19.1580  -28.8430   23.3810 C   0  0  0  0  0  0  0  0  0  0  0  0
  -18.9420  -30.1060   23.9740 C   0  0  0  0  0  3  0  0  0  0  0  0
  -17.6370  -30.6060   24.1480 C   0  0  0  0  0  3  0  0  0  0  0  0
  -16.5310  -29.8410   23.7390 C   0  0  0  0  0  3  0  0  0  0  0  0
  -16.7320  -28.5800   23.1490 C   0  0  0  0  0  3  0  0  0  0  0  0
  -25.9020  -32.4910   23.8490 C   0  0  0  0  0  3  0  0  0  0  0  0
  -26.4120  -31.7300   25.1340 C   0  0  1  0  0  0  0  0  0  0  0  0
  -25.3150  -31.5020   26.2010 C   0  0  0  0  0  1  0  0  0  0  0  0
  -26.9930  -30.3470   24.7600 C   0  0  0  0  0  1  0  0  0  0  0  0
  -27.5620  -32.5260   25.7930 C   0  0  0  0  0  1  0  0  0  0  0  0
  -25.5870  -33.8910   24.1760 N   0  0  0  0  0  0  0  0  0  0  0  0
  -25.9210  -34.9470   23.4230 C   0  0  0  0  0  0  0  0  0  0  0  0
  -26.5920  -34.8440   22.3920 O   0  0  0  0  0  0  0  0  0  0  0  0
  -24.9910  -34.0440   24.9770 H   0  0  0  0  0  0  0  0  0  0  0  0
  -24.1970  -36.7470   23.0700 C   0  0  0  0  0  1  0  0  0  0  0  0
  -25.4360  -36.3360   23.8830 C   0  0  0  0  0  3  0  0  0  0  0  0
  -27.5690  -37.2180   24.7210 C   0  0  0  0  0  1  0  0  0  0  0  0
  -26.4700  -37.3880   23.7750 N   0  0  0  0  0  0  0  0  0  0  0  0
  -26.0650  -38.3090   23.9220 H   0  0  0  0  0  0  0  0  0  0  0  0
  -29.8270  -17.7160   20.7710 C   0  0  0  0  0  2  0  0  0  0  0  0
  -30.4970  -14.9960   20.3440 C   0  0  0  0  0  0  0  0  0  0  0  0
  -30.4220  -12.6350   19.3920 C   0  0  0  0  0  2  0  0  0  0  0  0
  -29.4890  -12.5640   18.1600 C   0  0  0  0  0  2  0  0  0  0  0  0
  -28.0260  -12.3400   18.5910 C   0  0  0  0  0  2  0  0  0  0  0  0
  -27.6060  -13.2670   19.7610 C   0  0  0  0  0  3  0  0  0  0  0  0
  -28.6580  -13.2940   20.8880 C   0  0  0  0  0  2  0  0  0  0  0  0
  -29.9210  -13.7280   20.2730 N   0  0  0  0  0  0  0  0  0  0  0  0
  -31.7140  -15.0730   20.1430 O   0  0  0  0  0  0  0  0  0  0  0  0
  -29.6730  -16.1600   20.4390 N   0  0  0  0  0  0  0  0  0  0  0  0
  -28.7020  -15.8880   20.4380 H   0  0  0  0  0  0  0  0  0  0  0  0
  -25.2210  -13.8380   20.4880 C   0  0  0  0  0  0  0  0  0  0  0  0
  -24.1590  -13.0600   20.8570 C   0  0  0  0  0  0  0  0  0  0  0  0
  -24.6310  -11.7110   20.8370 C   0  0  0  0  0  0  0  0  0  0  0  0
  -26.2690  -12.9640   20.2570 N   0  0  0  0  0  0  0  0  0  0  0  0
  -25.9240  -11.6800   20.5350 N   0  0  0  0  0  0  0  0  0  0  0  0
  -23.9090  -10.4470   21.0280 C   0  0  0  0  0  0  0  0  0  0  0  0
  -24.3410   -9.4840   21.9680 C   0  0  0  0  0  3  0  0  0  0  0  0
  -23.6180   -8.2850   22.1460 C   0  0  0  0  0  3  0  0  0  0  0  0
  -22.4500   -8.0400   21.3860 C   0  0  0  0  0  0  0  0  0  0  0  0
  -22.0380   -8.9910   20.4360 C   0  0  0  0  0  3  0  0  0  0  0  0
  -22.7620  -10.1810   20.2560 C   0  0  0  0  0  3  0  0  0  0  0  0
  -21.6980   -6.8930   21.4760 O   0  0  0  0  0  0  0  0  0  0  0  0
  -21.6480   -6.1530   22.6300 C   0  0  0  0  0  0  0  0  0  0  0  0
  -21.2160   -6.7100   23.8530 C   0  0  0  0  0  3  0  0  0  0  0  0
  -21.1130   -5.8960   25.0000 C   0  0  0  0  0  3  0  0  0  0  0  0
  -21.4330   -4.5280   24.9230 C   0  0  0  0  0  0  0  0  0  0  0  0
  -21.8580   -3.9700   23.7050 C   0  0  0  0  0  3  0  0  0  0  0  0
  -21.9630   -4.7800   22.5600 C   0  0  0  0  0  0  0  0  0  0  0  0
  -22.3530   -4.2350   21.3830 F   0  0  0  0  0  0  0  0  0  0  0  0
  -21.3270   -3.7440   26.0220 F   0  0  0  0  0  0  0  0  0  0  0  0
  -22.7570  -13.5320   21.1110 C   0  0  0  0  0  0  0  0  0  0  0  0
  -22.0230  -12.8360   21.9730 N   0  0  0  0  0  0  0  0  0  0  0  0
  -22.3210  -14.5520   20.5820 O   0  0  0  0  0  0  0  0  0  0  0  0
  -22.3900  -12.0110   22.4240 H   0  0  0  0  0  0  0  0  0  0  0  0
  -21.0820  -13.1340   22.1860 H   0  0  0  0  0  0  0  0  0  0  0  0
  -25.3750  -15.2090   20.3000 N   0  0  0  0  0  0  0  0  0  0  0  0
  -24.5930  -15.8480   20.3900 H   0  0  0  0  0  0  0  0  0  0  0  0
  -26.1980  -15.6460   19.9100 H   0  0  0  0  0  0  0  0  0  0  0  0
  1  3  1  0
  2  5  1  0
  3  7  1  0
  4  1  1  0
  4  2  1  0
  4  6  1  0
  5  7  1  0
  5 52  1  0
  6  9  1  0
  6  7  1  0
  7  8  1  1
  9 10  1  0
 11 13  1  0
 11 10  1  0
 12 23  2  0
 13 18  1  0
 14 22  1  0
 14 24  1  0
 15 21  1  0
 15 17  1  0
 16 22  1  0
 17 16  1  0
 18 17  2  0
 19 13  2  0
 20 19  1  0
 20 15  2  0
 21 14  1  0
 22 12  1  0
 24 26  2  0
 25 24  1  0
 27 25  1  0
 28 37  2  0
 28 33  1  0
 29 25  1  0
 29 33  1  0
 30 29  1  0
 31 32  1  0
 31 30  1  0
 32 28  1  0
 33 34  2  0
 34 35  1  0
 36 35  2  0
 37 36  1  0
 38 12  1  0
 38 43  1  0
 38 39  1  0
 39 42  1  1
 39 40  1  0
 41 39  1  0
 43 46  1  0
 44 48  1  0
 44 43  1  0
 45 44  2  0
 48 47  1  0
 50 48  1  0
 50 51  1  0
 50 49  1  0
 53 61  1  0
 54 59  1  0
 55 56  1  0
 55 54  1  0
 57 56  1  0
 57 66  1  0
 57 58  1  0
 59 53  1  0
 59 58  1  0
 60 53  2  0
 61 52  1  0
 62 61  1  0
 63 64  2  0
 64 83  1  0
 65 64  1  0
 65 68  1  0
 66 63  1  0
 66 67  1  0
 67 65  2  0
 68 69  1  0
 69 70  2  0
 71 74  1  0
 71 70  1  0
 72 71  2  0
 73 72  1  0
 73 68  2  0
 74 75  1  0
 75 76  1  0
 76 77  2  0
 78 77  1  0
 78 82  1  0
 79 78  2  0
 80 75  2  0
 80 79  1  0
 81 80  1  0
 83 84  1  0
 84 87  1  0
 84 86  1  0
 85 83  2  0
 88 89  1  0
 88 63  1  0
 90 88  1  0
M  ISO  4  10 101  11 101  53 100  61 100
M  END
>  <TORSDO>  (88) 
F 19

>  <SCORE>  (88) 
-15.807

>  <name>  (88) 
88

>  <ligand_id>  (88) 
88

>  <original_smiles>  (88) 
[H]c1c([H])c([H])c2c(c1[H])C([H])([H])C([H])([H])C([H])([H])C2([H])N([H])C(=O)C1([H])N(C(=O)C([H])(N([H])C(=O)C([H])(N([H])C([H])([H])[H])C([H])([H])[H])C(C([H])([H])[H])(C([H])([H])[H])C([H])([H])[H])C([H])([H])c2c([H])c(OC([H])([H])C([H])([H])C3([H])C4([H])C([H])([H])C([H])([H])[N+]3([H])C([H])(C([H])([H])N([H])C(=O)N3C([H])([H])C([H])([H])C([H])([H])C([H])(n5nc(-c6c([H])c([H])c(Oc7c([H])c([H])c(F)c([H])c7F)c([H])c6[H])c(C(=O)N([H])[H])c5N([H])[H])C3([H])[H])C4([H])[H])c([H])c([H])c2C1([H])[H]

>  <smiles>  (88) 
[H]c1c([H])c([H])c2c(c1[H])C([H])([H])C([H])([H])C([H])([H])C2([H])N([H])C(=O)C1([H])N(C(=O)C([H])(N([H])C(=O)C([H])(N([H])C([H])([H])[H])C([H])([H])[H])C(C([H])([H])[H])(C([H])([H])[H])C([H])([H])[H])C([H])([H])c2c([H])c(OC([H])([H])C([H])([H])C3([H])C4([H])C([H])([H])C([H])([H])[N+]3([H])C([H])(C([H])([H])N([H])C(=O)N3C([H])([H])C([H])([H])C([H])([H])C([H])(n5nc(-c6c([H])c([H])c(Oc7c([H])c([H])c(F)c([H])c7F)c([H])c6[H])c(C(=O)N([H])[H])c5N([H])[H])C3([H])[H])C4([H])[H])c([H])c([H])c2C1([H])[H]

$$$$
89:0:0
     RDKit          3D

 94103  0  0  1  0  0  0  0  0999 V2000
  -33.1050  -20.1870   21.0170 C   0  0  0  0  0  3  0  0  0  0  0  0
  -32.3750  -18.9910   21.1430 C   0  0  0  0  0  3  0  0  0  0  0  0
  -32.4950  -21.4200   21.3170 C   0  0  0  0  0  3  0  0  0  0  0  0
  -30.4280  -20.2560   21.8800 C   0  0  0  0  0  3  0  0  0  0  0  0
  -31.0310  -19.0150   21.5710 C   0  0  0  0  0  0  0  0  0  0  0  0
  -31.1540  -21.4620   21.7520 C   0  0  0  0  0  0  0  0  0  0  0  0
  -29.0360  -17.5460   20.8020 C   0  0  0  0  0  2  0  0  0  0  0  0
  -30.2470  -17.7400   21.6720 C   0  0  0  0  0  3  0  0  0  0  0  0
  -30.2800  -16.7200   20.5490 C   0  0  0  0  0  3  0  0  0  0  0  0
  -30.7910  -14.3590   20.1380 C   0  0  0  0  0  0  0  0  0  0  0  0
  -30.3890  -12.2610   18.9180 C   0  0  0  0  0  2  0  0  0  0  0  0
  -29.3930  -12.5500   17.7730 C   0  0  0  0  0  2  0  0  0  0  0  0
  -27.9370  -12.4420   18.2690 C   0  0  0  0  0  2  0  0  0  0  0  0
  -27.6900  -13.2340   19.5800 C   0  0  0  0  0  3  0  0  0  0  0  0
  -28.7860  -12.9140   20.6230 C   0  0  0  0  0  2  0  0  0  0  0  0
  -30.0990  -13.1970   20.0130 N   0  0  0  0  0  0  0  0  0  0  0  0
  -31.8550  -14.5880   19.5540 O   0  0  0  0  0  0  0  0  0  0  0  0
  -30.1360  -15.3200   20.7990 N   0  0  0  0  0  0  0  0  0  0  0  0
  -29.2970  -15.0270   21.2750 H   0  0  0  0  0  0  0  0  0  0  0  0
  -25.3360  -13.8880   20.3960 C   0  0  0  0  0  0  0  0  0  0  0  0
  -24.2670  -13.1320   20.8030 C   0  0  0  0  0  0  0  0  0  0  0  0
  -24.6970  -11.7720   20.7300 C   0  0  0  0  0  0  0  0  0  0  0  0
  -26.3500  -12.9870   20.1090 N   0  0  0  0  0  0  0  0  0  0  0  0
  -25.9690  -11.7080   20.3630 N   0  0  0  0  0  0  0  0  0  0  0  0
  -23.9530  -10.5220   20.9340 C   0  0  0  0  0  0  0  0  0  0  0  0
  -24.3830   -9.5510   21.8640 C   0  0  0  0  0  3  0  0  0  0  0  0
  -23.6420   -8.3640   22.0550 C   0  0  0  0  0  3  0  0  0  0  0  0
  -22.4570   -8.1420   21.3150 C   0  0  0  0  0  0  0  0  0  0  0  0
  -22.0450   -9.1020   20.3750 C   0  0  0  0  0  3  0  0  0  0  0  0
  -22.7860  -10.2790   20.1810 C   0  0  0  0  0  3  0  0  0  0  0  0
  -21.6870   -7.0080   21.4160 O   0  0  0  0  0  0  0  0  0  0  0  0
  -21.6110   -6.2900   22.5830 C   0  0  0  0  0  0  0  0  0  0  0  0
  -21.1450   -6.8680   23.7840 C   0  0  0  0  0  3  0  0  0  0  0  0
  -21.0180   -6.0760   24.9440 C   0  0  0  0  0  3  0  0  0  0  0  0
  -21.3460   -4.7080   24.9010 C   0  0  0  0  0  0  0  0  0  0  0  0
  -21.8040   -4.1300   23.7040 C   0  0  0  0  0  3  0  0  0  0  0  0
  -21.9330   -4.9190   22.5470 C   0  0  0  0  0  0  0  0  0  0  0  0
  -22.3560   -4.3530   21.3910 F   0  0  0  0  0  0  0  0  0  0  0  0
  -21.2170   -3.9450   26.0110 F   0  0  0  0  0  0  0  0  0  0  0  0
  -22.8950  -13.6330   21.1480 C   0  0  0  0  0  0  0  0  0  0  0  0
  -22.1920  -12.9360   22.0340 N   0  0  0  0  0  0  0  0  0  0  0  0
  -22.4560  -14.6780   20.6680 O   0  0  0  0  0  0  0  0  0  0  0  0
  -22.5600  -12.0900   22.4430 H   0  0  0  0  0  0  0  0  0  0  0  0
  -21.2720  -13.2530   22.3070 H   0  0  0  0  0  0  0  0  0  0  0  0
  -25.5220  -15.2560   20.2310 N   0  0  0  0  0  0  0  0  0  0  0  0
  -24.7750  -15.9260   20.3770 H   0  0  0  0  0  0  0  0  0  0  0  0
  -26.3660  -15.6790   19.8630 H   0  0  0  0  0  0  0  0  0  0  0  0
  -30.5110  -22.8000   22.0950 C   0  0  0  0  0  2  0  0  0  0  0  0
  -29.7760  -23.3650   20.9440 N   0  0  0  0  0  4  0  0  0  0  0  0
  -28.9250  -22.8370   20.8350 H   0  0  0  0  0  0  0  0  0  0  0  0
  -30.3360  -23.2180   20.1190 H   0  0  0  0  0  0  0  0  0  0  0  0
  -29.4720  -24.8130   21.0790 C   0  0  0  0  0  2  0  0  0  0  0  0
  -28.4950  -25.3350   20.0100 C   0  0  0  0  0  2  0  0  0  0  0  0
  -28.4830  -26.7630   20.0950 O   0  0  0  0  0  0  0  0  0  0  0  0
  -24.5790  -31.8130   23.1780 C   0  0  0  0  0  0  0  0  0  0  0  0
  -27.2800  -27.4350   20.0730 C   0  0  0  0  0  0  0  0  0  0  0  0
  -23.3990  -30.4370   21.4930 C   0  0  0  0  0  3  0  0  0  0  0  0
  -24.8760  -28.9230   20.0680 C   0  0  0  0  0  0  0  0  0  0  0  0
  -25.9240  -30.8060   21.3380 C   0  0  0  0  0  2  0  0  0  0  0  0
  -26.0210  -29.4460   20.6810 C   0  0  0  0  0  0  0  0  0  0  0  0
  -27.2240  -28.7090   20.6780 C   0  0  0  0  0  3  0  0  0  0  0  0
  -26.1190  -26.9240   19.4460 C   0  0  0  0  0  3  0  0  0  0  0  0
  -24.9200  -27.6610   19.4490 C   0  0  0  0  0  3  0  0  0  0  0  0
  -23.6300  -29.7780   20.1070 C   0  0  0  0  0  2  0  0  0  0  0  0
  -24.6520  -31.0320   22.0630 N   0  0  0  0  0  0  0  0  0  0  0  0
  -23.4900  -32.0760   23.7060 O   0  0  0  0  0  0  0  0  0  0  0  0
  -22.7350  -29.4000   22.4270 C   0  0  0  0  0  0  0  0  0  0  0  0
  -21.4090  -29.2360   22.2920 N   0  0  0  0  0  0  0  0  0  0  0  0
  -23.4100  -28.7450   23.2260 O   0  0  0  0  0  0  0  0  0  0  0  0
  -20.9270  -29.8160   21.6200 H   0  0  0  0  0  0  0  0  0  0  0  0
  -18.0160  -28.0950   22.7660 C   0  0  0  0  0  0  0  0  0  0  0  0
  -20.5790  -28.2910   23.0360 C   0  0  0  0  0  3  0  0  0  0  0  0
  -20.6500  -26.8780   22.4120 C   0  0  0  0  0  2  0  0  0  0  0  0
  -19.5370  -26.6110   21.3940 C   0  0  0  0  0  2  0  0  0  0  0  0
  -18.1620  -26.7640   22.0490 C   0  0  0  0  0  2  0  0  0  0  0  0
  -19.1520  -28.8190   23.2160 C   0  0  0  0  0  0  0  0  0  0  0  0
  -18.9620  -30.0670   23.8470 C   0  0  0  0  0  3  0  0  0  0  0  0
  -17.6700  -30.5910   24.0340 C   0  0  0  0  0  3  0  0  0  0  0  0
  -16.5470  -29.8620   23.6030 C   0  0  0  0  0  3  0  0  0  0  0  0
  -16.7220  -28.6160   22.9740 C   0  0  0  0  0  3  0  0  0  0  0  0
  -25.8570  -32.4330   23.8280 C   0  0  0  0  0  3  0  0  0  0  0  0
  -25.5460  -33.8250   24.1740 N   0  0  0  0  0  0  0  0  0  0  0  0
  -25.8910  -34.8870   23.4340 C   0  0  0  0  0  0  0  0  0  0  0  0
  -26.5750  -34.7970   22.4110 O   0  0  0  0  0  0  0  0  0  0  0  0
  -24.9390  -33.9690   24.9680 H   0  0  0  0  0  0  0  0  0  0  0  0
  -24.1770  -36.6890   23.0680 C   0  0  0  0  0  1  0  0  0  0  0  0
  -25.3960  -36.2690   23.9030 C   0  0  0  0  0  3  0  0  0  0  0  0
  -27.5080  -37.1370   24.8050 C   0  0  0  0  0  1  0  0  0  0  0  0
  -26.4340  -37.3200   23.8330 N   0  0  0  0  0  0  0  0  0  0  0  0
  -26.0260  -38.2390   23.9790 H   0  0  0  0  0  0  0  0  0  0  0  0
  -26.3570  -31.6380   25.0960 C   0  0  1  0  0  0  0  0  0  0  0  0
  -25.2500  -31.3810   26.1440 C   0  0  0  0  0  1  0  0  0  0  0  0
  -26.9470  -30.2690   24.6840 C   0  0  0  0  0  1  0  0  0  0  0  0
  -27.4970  -32.4210   25.7890 C   0  0  0  0  0  1  0  0  0  0  0  0
  1  2  2  0
  1  3  1  0
  2  5  1  0
  3  6  2  0
  5  4  2  0
  6  4  1  0
  6 48  1  0
  7  8  1  0
  8  5  1  0
  9 18  1  0
  9  7  1  0
  9  8  1  0
 10 18  1  0
 11 16  1  0
 12 13  1  0
 12 11  1  0
 14 13  1  0
 14 23  1  0
 14 15  1  0
 16 10  1  0
 16 15  1  0
 17 10  2  0
 18 19  1  0
 20 21  2  0
 21 40  1  0
 22 21  1  0
 22 25  1  0
 23 24  1  0
 23 20  1  0
 24 22  2  0
 25 26  1  0
 26 27  2  0
 28 31  1  0
 28 27  1  0
 29 28  2  0
 30 29  1  0
 30 25  2  0
 31 32  1  0
 32 33  1  0
 33 34  2  0
 35 34  1  0
 35 39  1  0
 36 35  2  0
 37 32  2  0
 37 36  1  0
 38 37  1  0
 40 41  1  0
 41 44  1  0
 41 43  1  0
 42 40  2  0
 45 46  1  0
 45 20  1  0
 47 45  1  0
 49 52  1  0
 49 48  1  0
 50 49  1  0
 51 49  1  0
 53 54  1  0
 53 52  1  0
 55 66  2  0
 56 54  1  0
 56 61  1  0
 57 65  1  0
 57 67  1  0
 58 64  1  0
 58 60  1  0
 59 65  1  0
 60 59  1  0
 61 60  2  0
 62 63  1  0
 62 56  2  0
 63 58  2  0
 64 57  1  0
 65 55  1  0
 67 69  2  0
 68 67  1  0
 70 68  1  0
 71 80  2  0
 71 76  1  0
 72 68  1  0
 72 76  1  0
 73 72  1  0
 74 75  1  0
 74 73  1  0
 75 71  1  0
 76 77  2  0
 77 78  1  0
 79 78  2  0
 80 79  1  0
 81 55  1  0
 81 82  1  0
 81 91  1  0
 82 85  1  0
 83 87  1  0
 83 82  1  0
 84 83  2  0
 87 86  1  0
 89 87  1  0
 89 90  1  0
 89 88  1  0
 91 94  1  1
 91 92  1  0
 93 91  1  0
M  ISO  4  10 100  18 100  53 101  54 101
M  END
>  <TORSDO>  (89) 
F 21

>  <SCORE>  (89) 
-13.534

>  <name>  (89) 
89

>  <ligand_id>  (89) 
89

>  <original_smiles>  (89) 
[H]c1c([H])c([H])c2c(c1[H])C([H])([H])C([H])([H])C([H])([H])C2([H])N([H])C(=O)C1([H])N(C(=O)C([H])(N([H])C(=O)C([H])(N([H])C([H])([H])[H])C([H])([H])[H])C(C([H])([H])[H])(C([H])([H])[H])C([H])([H])[H])C([H])([H])c2c([H])c(OC([H])([H])C([H])([H])[N+]([H])([H])C([H])([H])c3c([H])c([H])c([H])c(C4([H])C([H])([H])C4([H])N([H])C(=O)N4C([H])([H])C([H])([H])C([H])([H])C([H])(n5nc(-c6c([H])c([H])c(Oc7c([H])c([H])c(F)c([H])c7F)c([H])c6[H])c(C(=O)N([H])[H])c5N([H])[H])C4([H])[H])c3[H])c([H])c([H])c2C1([H])[H]

>  <smiles>  (89) 
[H]c1c([H])c([H])c2c(c1[H])C([H])([H])C([H])([H])C([H])([H])C2([H])N([H])C(=O)C1([H])N(C(=O)C([H])(N([H])C(=O)C([H])(N([H])C([H])([H])[H])C([H])([H])[H])C(C([H])([H])[H])(C([H])([H])[H])C([H])([H])[H])C([H])([H])c2c([H])c(OC([H])([H])C([H])([H])[N+]([H])([H])C([H])([H])c3c([H])c([H])c([H])c(C4([H])C([H])([H])C4([H])N([H])C(=O)N4C([H])([H])C([H])([H])C([H])([H])C([H])(n5nc(-c6c([H])c([H])c(Oc7c([H])c([H])c(F)c([H])c7F)c([H])c6[H])c(C(=O)N([H])[H])c5N([H])[H])C4([H])[H])c3[H])c([H])c([H])c2C1([H])[H]

$$$$
90:0:0
     RDKit          3D

 92101  0  0  1  0  0  0  0  0999 V2000
  -29.8270  -22.4720   21.0750 C   0  0  0  0  0  3  0  0  0  0  0  0
  -29.8820  -23.8380   20.7000 C   0  0  0  0  0  3  0  0  0  0  0  0
  -28.2460  -23.4310   18.9750 C   0  0  0  0  0  3  0  0  0  0  0  0
  -28.9740  -21.5510   20.4150 C   0  0  0  0  0  0  0  0  0  0  0  0
  -29.0790  -24.3450   19.6550 C   0  0  0  0  0  0  0  0  0  0  0  0
  -28.1920  -22.0600   19.3420 C   0  0  0  0  0  0  0  0  0  0  0  0
  -27.2340  -21.1510   18.5910 C   0  0  0  0  0  1  0  0  0  0  0  0
  -29.7120  -19.4460   21.8850 C   0  0  0  0  0  2  0  0  0  0  0  0
  -28.7320  -20.1320   20.9560 C   0  0  0  0  0  3  0  0  0  0  0  0
  -29.3490  -18.7600   20.5880 C   0  0  0  0  0  3  0  0  0  0  0  0
  -30.4500  -18.4290   19.5770 C   0  0  0  0  0  2  0  0  0  0  0  0
  -31.4230  -17.2790   20.0140 C   0  0  0  0  0  2  0  0  0  0  0  0
  -31.5290  -14.7700   19.7930 C   0  0  0  0  0  0  0  0  0  0  0  0
  -31.1670  -12.4740   18.9600 C   0  0  0  0  0  2  0  0  0  0  0  0
  -30.2010  -12.5230   17.7590 C   0  0  0  0  0  2  0  0  0  0  0  0
  -28.7380  -12.4570   18.2400 C   0  0  0  0  0  2  0  0  0  0  0  0
  -28.4400  -13.4660   19.3810 C   0  0  0  0  0  3  0  0  0  0  0  0
  -29.5200  -13.4030   20.4840 C   0  0  0  0  0  2  0  0  0  0  0  0
  -30.8280  -13.6030   19.8440 N   0  0  0  0  0  0  0  0  0  0  0  0
  -32.6670  -14.8260   19.3220 O   0  0  0  0  0  0  0  0  0  0  0  0
  -30.8640  -15.9040   20.1210 N   0  0  0  0  0  0  0  0  0  0  0  0
  -29.9260  -15.8000   20.4800 H   0  0  0  0  0  0  0  0  0  0  0  0
  -26.1300  -14.2250   20.2150 C   0  0  0  0  0  0  0  0  0  0  0  0
  -25.0310  -13.5220   20.6320 C   0  0  0  0  0  0  0  0  0  0  0  0
  -25.3970  -12.1420   20.5680 C   0  0  0  0  0  0  0  0  0  0  0  0
  -27.0980  -13.2770   19.9270 N   0  0  0  0  0  0  0  0  0  0  0  0
  -26.6650  -12.0190   20.1980 N   0  0  0  0  0  0  0  0  0  0  0  0
  -24.5950  -10.9300   20.7820 C   0  0  0  0  0  0  0  0  0  0  0  0
  -24.9480   -9.9760   21.7600 C   0  0  0  0  0  3  0  0  0  0  0  0
  -24.1510   -8.8270   21.9610 C   0  0  0  0  0  3  0  0  0  0  0  0
  -22.9870   -8.6260   21.1820 C   0  0  0  0  0  0  0  0  0  0  0  0
  -22.6530   -9.5690   20.1930 C   0  0  0  0  0  3  0  0  0  0  0  0
  -23.4500  -10.7080   19.9910 C   0  0  0  0  0  3  0  0  0  0  0  0
  -22.1670   -7.5290   21.2890 O   0  0  0  0  0  0  0  0  0  0  0  0
  -21.9630   -6.8980   22.4890 C   0  0  0  0  0  0  0  0  0  0  0  0
  -21.4410   -7.5780   23.6110 C   0  0  0  0  0  3  0  0  0  0  0  0
  -21.1810   -6.8740   24.8040 C   0  0  0  0  0  3  0  0  0  0  0  0
  -21.4330   -5.4910   24.8760 C   0  0  0  0  0  0  0  0  0  0  0  0
  -21.9490   -4.8100   23.7580 C   0  0  0  0  0  3  0  0  0  0  0  0
  -22.2090   -5.5110   22.5670 C   0  0  0  0  0  0  0  0  0  0  0  0
  -22.6860   -4.8470   21.4880 F   0  0  0  0  0  0  0  0  0  0  0  0
  -21.1770   -4.8130   26.0180 F   0  0  0  0  0  0  0  0  0  0  0  0
  -23.6840  -14.0900   20.9750 C   0  0  0  0  0  0  0  0  0  0  0  0
  -22.9610  -13.4460   21.8850 N   0  0  0  0  0  0  0  0  0  0  0  0
  -23.2850  -15.1400   20.4730 O   0  0  0  0  0  0  0  0  0  0  0  0
  -23.2950  -12.5980   22.3150 H   0  0  0  0  0  0  0  0  0  0  0  0
  -22.0590  -13.8090   22.1580 H   0  0  0  0  0  0  0  0  0  0  0  0
  -26.3780  -15.5830   20.0370 N   0  0  0  0  0  0  0  0  0  0  0  0
  -25.6530  -16.2790   20.1580 H   0  0  0  0  0  0  0  0  0  0  0  0
  -27.2330  -15.9660   19.6540 H   0  0  0  0  0  0  0  0  0  0  0  0
  -29.2110  -25.8110   19.1870 C   0  0  0  0  0  2  0  0  0  0  0  0
  -28.8610  -26.8490   20.1350 O   0  0  0  0  0  0  0  0  0  0  0  0
  -24.6300  -31.7500   23.1480 C   0  0  0  0  0  0  0  0  0  0  0  0
  -27.6400  -27.5080   20.0710 C   0  0  0  0  0  0  0  0  0  0  0  0
  -23.5720  -30.3300   21.4220 C   0  0  0  0  0  3  0  0  0  0  0  0
  -25.1650  -28.9100   20.0200 C   0  0  0  0  0  0  0  0  0  0  0  0
  -26.0840  -30.8230   21.3420 C   0  0  0  0  0  2  0  0  0  0  0  0
  -26.2700  -29.4720   20.6710 C   0  0  0  0  0  0  0  0  0  0  0  0
  -27.5040  -28.7760   20.6970 C   0  0  0  0  0  3  0  0  0  0  0  0
  -26.5060  -26.9630   19.4250 C   0  0  0  0  0  3  0  0  0  0  0  0
  -25.2800  -27.6570   19.3960 C   0  0  0  0  0  3  0  0  0  0  0  0
  -23.8760  -29.7010   20.0360 C   0  0  0  0  0  2  0  0  0  0  0  0
  -24.7770  -30.9820   22.0300 N   0  0  0  0  0  0  0  0  0  0  0  0
  -23.5140  -31.9500   23.6480 O   0  0  0  0  0  0  0  0  0  0  0  0
  -22.9390  -29.2500   22.3290 C   0  0  0  0  0  0  0  0  0  0  0  0
  -21.6200  -29.0410   22.1830 N   0  0  0  0  0  0  0  0  0  0  0  0
  -23.6310  -28.6060   23.1210 O   0  0  0  0  0  0  0  0  0  0  0  0
  -21.1200  -29.6150   21.5180 H   0  0  0  0  0  0  0  0  0  0  0  0
  -18.2680  -27.7690   22.6370 C   0  0  0  0  0  0  0  0  0  0  0  0
  -20.8240  -28.0450   22.9000 C   0  0  0  0  0  3  0  0  0  0  0  0
  -20.9400  -26.6540   22.2360 C   0  0  0  0  0  2  0  0  0  0  0  0
  -19.8310  -26.3770   21.2150 C   0  0  0  0  0  2  0  0  0  0  0  0
  -18.4560  -26.4630   21.8830 C   0  0  0  0  0  2  0  0  0  0  0  0
  -19.3810  -28.5180   23.1020 C   0  0  0  0  0  0  0  0  0  0  0  0
  -19.1520  -29.7410   23.7700 C   0  0  0  0  0  3  0  0  0  0  0  0
  -17.8430  -30.2160   23.9760 C   0  0  0  0  0  3  0  0  0  0  0  0
  -16.7450  -29.4630   23.5260 C   0  0  0  0  0  3  0  0  0  0  0  0
  -16.9580  -28.2410   22.8640 C   0  0  0  0  0  3  0  0  0  0  0  0
  -25.8520  -32.4360   23.8350 C   0  0  0  0  0  3  0  0  0  0  0  0
  -26.3420  -31.6790   25.1310 C   0  0  1  0  0  0  0  0  0  0  0  0
  -25.2080  -31.3710   26.1360 C   0  0  0  0  0  1  0  0  0  0  0  0
  -27.0170  -30.3380   24.7580 C   0  0  0  0  0  1  0  0  0  0  0  0
  -27.4100  -32.5250   25.8620 C   0  0  0  0  0  1  0  0  0  0  0  0
  -25.4630  -33.8160   24.1560 N   0  0  0  0  0  0  0  0  0  0  0  0
  -25.7870  -34.8870   23.4200 C   0  0  0  0  0  0  0  0  0  0  0  0
  -26.5150  -34.8210   22.4250 O   0  0  0  0  0  0  0  0  0  0  0  0
  -24.8220  -33.9380   24.9260 H   0  0  0  0  0  0  0  0  0  0  0  0
  -23.9980  -36.6010   22.9870 C   0  0  0  0  0  1  0  0  0  0  0  0
  -25.2140  -36.2490   23.8580 C   0  0  0  0  0  3  0  0  0  0  0  0
  -27.2620  -37.2260   24.7990 C   0  0  0  0  0  1  0  0  0  0  0  0
  -26.2020  -37.3500   23.8010 N   0  0  0  0  0  0  0  0  0  0  0  0
  -25.7470  -38.2480   23.9320 H   0  0  0  0  0  0  0  0  0  0  0  0
  2  1  1  0
  3  6  2  0
  3  5  1  0
  4  1  2  0
  5  2  2  0
  6  4  1  0
  7  6  1  0
  9  4  1  0
  9  8  1  0
 10 11  1  0
 10  9  1  0
 10  8  1  0
 11 12  1  0
 12 21  1  0
 13 19  1  0
 13 21  1  0
 14 19  1  0
 15 16  1  0
 15 14  1  0
 17 16  1  0
 17 26  1  0
 17 18  1  0
 19 18  1  0
 20 13  2  0
 21 22  1  0
 23 24  2  0
 24 43  1  0
 25 24  1  0
 25 28  1  0
 26 27  1  0
 26 23  1  0
 27 25  2  0
 28 29  1  0
 29 30  2  0
 31 34  1  0
 31 30  1  0
 32 31  2  0
 33 32  1  0
 33 28  2  0
 34 35  1  0
 35 40  2  0
 35 36  1  0
 36 37  2  0
 37 38  1  0
 38 42  1  0
 39 38  2  0
 40 39  1  0
 41 40  1  0
 43 44  1  0
 44 47  1  0
 44 46  1  0
 45 43  2  0
 48 49  1  0
 48 23  1  0
 50 48  1  0
 51  5  1  0
 51 52  1  0
 53 64  2  0
 54 52  1  0
 54 59  1  0
 55 63  1  0
 55 65  1  0
 56 62  1  0
 56 58  1  0
 57 63  1  0
 58 59  2  0
 58 57  1  0
 60 54  2  0
 61 60  1  0
 61 56  2  0
 62 55  1  0
 63 53  1  0
 65 67  2  0
 66 65  1  0
 68 66  1  0
 69 78  2  0
 69 74  1  0
 70 66  1  0
 70 74  1  0
 71 70  1  0
 72 73  1  0
 72 71  1  0
 73 69  1  0
 74 75  2  0
 75 76  1  0
 77 76  2  0
 78 77  1  0
 79 53  1  0
 79 84  1  0
 79 80  1  0
 80 83  1  1
 80 81  1  0
 82 80  1  0
 84 87  1  0
 85 89  1  0
 85 84  1  0
 86 85  2  0
 89 88  1  0
 91 89  1  0
 91 92  1  0
 91 90  1  0
M  ISO  4  13 100  21 100  51 101  52 101
M  END
>  <TORSDO>  (90) 
F 20

>  <SCORE>  (90) 
-12.076

>  <name>  (90) 
90

>  <ligand_id>  (90) 
90

>  <original_smiles>  (90) 
[H]c1c([H])c([H])c2c(c1[H])C([H])([H])C([H])([H])C([H])([H])C2([H])N([H])C(=O)C1([H])N(C(=O)C([H])(N([H])C(=O)C([H])(N([H])C([H])([H])[H])C([H])([H])[H])C(C([H])([H])[H])(C([H])([H])[H])C([H])([H])[H])C([H])([H])c2c([H])c(OC([H])([H])c3c([H])c([H])c(C4([H])C([H])([H])C4([H])C([H])([H])C([H])([H])N([H])C(=O)N4C([H])([H])C([H])([H])C([H])([H])C([H])(n5nc(-c6c([H])c([H])c(Oc7c([H])c([H])c(F)c([H])c7F)c([H])c6[H])c(C(=O)N([H])[H])c5N([H])[H])C4([H])[H])c(C([H])([H])[H])c3[H])c([H])c([H])c2C1([H])[H]

>  <smiles>  (90) 
[H]c1c([H])c([H])c2c(c1[H])C([H])([H])C([H])([H])C([H])([H])C2([H])N([H])C(=O)C1([H])N(C(=O)C([H])(N([H])C(=O)C([H])(N([H])C([H])([H])[H])C([H])([H])[H])C(C([H])([H])[H])(C([H])([H])[H])C([H])([H])[H])C([H])([H])c2c([H])c(OC([H])([H])c3c([H])c([H])c(C4([H])C([H])([H])C4([H])C([H])([H])C([H])([H])N([H])C(=O)N4C([H])([H])C([H])([H])C([H])([H])C([H])(n5nc(-c6c([H])c([H])c(Oc7c([H])c([H])c(F)c([H])c7F)c([H])c6[H])c(C(=O)N([H])[H])c5N([H])[H])C4([H])[H])c(C([H])([H])[H])c3[H])c([H])c([H])c2C1([H])[H]

$$$$
91:0:0
     RDKit          3D

 89 98  0  0  1  0  0  0  0  0999 V2000
  -29.0750  -22.8390   20.0380 C   0  0  0  0  0  0  0  0  0  0  0  0
  -28.6940  -19.0430   18.2090 C   0  0  0  0  0  2  0  0  0  0  0  0
  -27.7000  -19.4260   19.3170 C   0  0  0  0  0  2  0  0  0  0  0  0
  -30.3140  -20.6940   19.2370 C   0  0  0  0  0  2  0  0  0  0  0  0
  -30.0560  -19.1410   18.9320 C   0  0  0  0  0  3  0  0  0  0  0  0
  -28.6750  -19.8100   20.4360 C   0  0  0  0  0  3  0  0  0  0  0  0
  -29.7800  -18.4340   20.2720 C   0  0  0  0  0  3  0  0  0  0  0  0
  -29.1990  -21.3130   20.0300 N   0  0  0  0  0  0  0  0  0  0  0  0
  -30.1160  -23.3790   19.6490 O   0  0  0  0  0  0  0  0  0  0  0  0
  -30.3400  -15.4500   20.0740 C   0  0  0  0  0  0  0  0  0  0  0  0
  -30.3280  -12.9940   19.1600 C   0  0  0  0  0  2  0  0  0  0  0  0
  -29.3610  -12.7540   17.9710 C   0  0  0  0  0  2  0  0  0  0  0  0
  -27.9390  -12.4470   18.4720 C   0  0  0  0  0  2  0  0  0  0  0  0
  -27.5200  -13.3900   19.6280 C   0  0  0  0  0  3  0  0  0  0  0  0
  -28.6150  -13.5630   20.7030 C   0  0  0  0  0  2  0  0  0  0  0  0
  -29.7900  -14.1260   20.0150 N   0  0  0  0  0  0  0  0  0  0  0  0
  -31.5570  -15.4420   19.8260 O   0  0  0  0  0  0  0  0  0  0  0  0
  -29.5700  -16.7390   20.2170 N   0  0  0  0  0  0  0  0  0  0  0  0
  -28.5940  -16.5120   20.3480 H   0  0  0  0  0  0  0  0  0  0  0  0
  -25.1880  -13.9050   20.5100 C   0  0  0  0  0  0  0  0  0  0  0  0
  -24.1500  -13.1110   20.9080 C   0  0  0  0  0  0  0  0  0  0  0  0
  -24.6250  -11.7650   20.8230 C   0  0  0  0  0  0  0  0  0  0  0  0
  -26.2240  -13.0460   20.1950 N   0  0  0  0  0  0  0  0  0  0  0  0
  -25.9020  -11.7500   20.4530 N   0  0  0  0  0  0  0  0  0  0  0  0
  -23.9140  -10.4940   21.0140 C   0  0  0  0  0  0  0  0  0  0  0  0
  -24.3690   -9.5210   21.9320 C   0  0  0  0  0  3  0  0  0  0  0  0
  -23.6540   -8.3180   22.1140 C   0  0  0  0  0  3  0  0  0  0  0  0
  -22.4690   -8.0780   21.3790 C   0  0  0  0  0  0  0  0  0  0  0  0
  -22.0320   -9.0390   20.4490 C   0  0  0  0  0  3  0  0  0  0  0  0
  -22.7480  -10.2340   20.2660 C   0  0  0  0  0  3  0  0  0  0  0  0
  -21.7230   -6.9270   21.4710 O   0  0  0  0  0  0  0  0  0  0  0  0
  -21.6750   -6.1920   22.6280 C   0  0  0  0  0  0  0  0  0  0  0  0
  -21.1980   -6.7390   23.8390 C   0  0  0  0  0  3  0  0  0  0  0  0
  -21.0990   -5.9270   24.9870 C   0  0  0  0  0  3  0  0  0  0  0  0
  -21.4690   -4.5700   24.9250 C   0  0  0  0  0  0  0  0  0  0  0  0
  -21.9380   -4.0220   23.7180 C   0  0  0  0  0  3  0  0  0  0  0  0
  -22.0400   -4.8310   22.5730 C   0  0  0  0  0  0  0  0  0  0  0  0
  -22.4730   -4.2930   21.4070 F   0  0  0  0  0  0  0  0  0  0  0  0
  -21.3680   -3.7880   26.0250 F   0  0  0  0  0  0  0  0  0  0  0  0
  -22.7630  -13.5720   21.2460 C   0  0  0  0  0  0  0  0  0  0  0  0
  -22.0770  -12.8560   22.1290 N   0  0  0  0  0  0  0  0  0  0  0  0
  -22.2990  -14.6040   20.7620 O   0  0  0  0  0  0  0  0  0  0  0  0
  -22.4680  -12.0220   22.5420 H   0  0  0  0  0  0  0  0  0  0  0  0
  -21.1480  -13.1470   22.3970 H   0  0  0  0  0  0  0  0  0  0  0  0
  -25.3280  -15.2810   20.3560 N   0  0  0  0  0  0  0  0  0  0  0  0
  -24.5550  -15.9170   20.5150 H   0  0  0  0  0  0  0  0  0  0  0  0
  -26.1390  -15.7360   19.9590 H   0  0  0  0  0  0  0  0  0  0  0  0
  -27.9220  -24.1510   20.3560 C   0  0  0  0  0  2  0  0  0  0  0  0
  -28.1780  -25.8160   20.2500 O   0  0  0  0  0  0  0  0  0  0  0  0
  -24.6400  -31.8850   23.2210 C   0  0  0  0  0  0  0  0  0  0  0  0
  -27.1720  -26.9410   20.2230 C   0  0  0  0  0  0  0  0  0  0  0  0
  -23.4400  -30.4830   21.5930 C   0  0  0  0  0  3  0  0  0  0  0  0
  -24.8790  -28.8600   20.1790 C   0  0  0  0  0  0  0  0  0  0  0  0
  -26.0080  -30.6770   21.4380 C   0  0  0  0  0  2  0  0  0  0  0  0
  -26.0750  -29.2570   20.7900 C   0  0  0  0  0  0  0  0  0  0  0  0
  -27.2140  -28.3220   20.7820 C   0  0  0  0  0  3  0  0  0  0  0  0
  -25.9430  -26.7100   19.5640 C   0  0  0  0  0  3  0  0  0  0  0  0
  -24.8420  -27.6070   19.5440 C   0  0  0  0  0  3  0  0  0  0  0  0
  -23.6650  -29.7900   20.2210 C   0  0  0  0  0  2  0  0  0  0  0  0
  -24.7190  -31.0440   22.1370 N   0  0  0  0  0  0  0  0  0  0  0  0
  -23.5520  -32.1780   23.7440 O   0  0  0  0  0  0  0  0  0  0  0  0
  -22.7440  -29.4960   22.5680 C   0  0  0  0  0  0  0  0  0  0  0  0
  -21.4150  -29.3280   22.4450 N   0  0  0  0  0  0  0  0  0  0  0  0
  -23.4110  -28.8810   23.4050 O   0  0  0  0  0  0  0  0  0  0  0  0
  -20.9290  -29.8740   21.7480 H   0  0  0  0  0  0  0  0  0  0  0  0
  -18.0380  -28.1010   22.9640 C   0  0  0  0  0  0  0  0  0  0  0  0
  -20.5960  -28.3920   23.2240 C   0  0  0  0  0  3  0  0  0  0  0  0
  -20.7080  -26.9540   22.6630 C   0  0  0  0  0  2  0  0  0  0  0  0
  -19.6090  -26.6140   21.6510 C   0  0  0  0  0  2  0  0  0  0  0  0
  -18.2260  -26.7500   22.2950 C   0  0  0  0  0  2  0  0  0  0  0  0
  -19.1490  -28.8780   23.3860 C   0  0  0  0  0  0  0  0  0  0  0  0
  -18.9180  -30.1380   23.9780 C   0  0  0  0  0  3  0  0  0  0  0  0
  -17.6070  -30.6240   24.1480 C   0  0  0  0  0  3  0  0  0  0  0  0
  -16.5100  -29.8460   23.7390 C   0  0  0  0  0  3  0  0  0  0  0  0
  -16.7260  -28.5860   23.1540 C   0  0  0  0  0  3  0  0  0  0  0  0
  -25.9120  -32.5330   23.8480 C   0  0  0  0  0  3  0  0  0  0  0  0
  -25.5900  -33.9320   24.1870 N   0  0  0  0  0  0  0  0  0  0  0  0
  -25.8940  -34.9960   23.4310 C   0  0  0  0  0  0  0  0  0  0  0  0
  -26.5350  -34.9040   22.3820 O   0  0  0  0  0  0  0  0  0  0  0  0
  -25.0140  -34.0750   25.0030 H   0  0  0  0  0  0  0  0  0  0  0  0
  -24.1400  -36.7820   23.1500 C   0  0  0  0  0  1  0  0  0  0  0  0
  -25.4120  -36.3810   23.9130 C   0  0  0  0  0  3  0  0  0  0  0  0
  -27.5630  -37.2900   24.6760 C   0  0  0  0  0  1  0  0  0  0  0  0
  -26.4320  -37.4440   23.7660 N   0  0  0  0  0  0  0  0  0  0  0  0
  -26.0200  -38.3590   23.9250 H   0  0  0  0  0  0  0  0  0  0  0  0
  -26.4240  -31.7720   25.1340 C   0  0  1  0  0  0  0  0  0  0  0  0
  -25.3290  -31.5390   26.2010 C   0  0  0  0  0  1  0  0  0  0  0  0
  -27.0110  -30.3920   24.7600 C   0  0  0  0  0  1  0  0  0  0  0  0
  -27.5720  -32.5720   25.7940 C   0  0  0  0  0  1  0  0  0  0  0  0
  1 48  1  0
  2  3  1  0
  4  8  1  0
  5  2  1  0
  5  4  1  0
  5  7  1  0
  6  3  1  0
  7 18  1  0
  7  6  1  0
  8  1  1  0
  8  6  1  0
  9  1  2  0
 10 18  1  0
 11 16  1  0
 12 13  1  0
 12 11  1  0
 14 13  1  0
 14 23  1  0
 14 15  1  0
 16 10  1  0
 16 15  1  0
 17 10  2  0
 18 19  1  0
 20 21  2  0
 21 40  1  0
 22 21  1  0
 22 25  1  0
 23 24  1  0
 23 20  1  0
 24 22  2  0
 25 26  1  0
 26 27  2  0
 28 31  1  0
 28 27  1  0
 29 28  2  0
 30 29  1  0
 30 25  2  0
 31 32  1  0
 32 33  1  0
 33 34  2  0
 35 34  1  0
 35 39  1  0
 36 35  2  0
 37 32  2  0
 37 36  1  0
 38 37  1  0
 40 41  1  0
 41 44  1  0
 41 43  1  0
 42 40  2  0
 45 20  1  0
 45 46  1  0
 47 45  1  0
 49 48  1  0
 50 61  2  0
 51 49  1  0
 51 56  1  0
 52 60  1  0
 52 62  1  0
 53 59  1  0
 53 55  1  0
 54 60  1  0
 55 54  1  0
 56 55  2  0
 57 51  2  0
 58 57  1  0
 58 53  2  0
 59 52  1  0
 60 50  1  0
 62 64  2  0
 63 62  1  0
 65 63  1  0
 66 75  2  0
 66 71  1  0
 67 63  1  0
 67 71  1  0
 68 67  1  0
 69 70  1  0
 69 68  1  0
 70 66  1  0
 71 72  2  0
 72 73  1  0
 74 73  2  0
 75 74  1  0
 76 50  1  0
 76 77  1  0
 76 86  1  0
 77 80  1  0
 78 82  1  0
 78 77  1  0
 79 78  2  0
 82 81  1  0
 84 82  1  0
 84 85  1  0
 84 83  1  0
 86 89  1  1
 86 87  1  0
 88 86  1  0
M  ISO  4  10 100  18 100  48 101  49 101
M  END
>  <TORSDO>  (91) 
F 17

>  <SCORE>  (91) 
-16.853

>  <name>  (91) 
91

>  <ligand_id>  (91) 
91

>  <original_smiles>  (91) 
[H]c1c([H])c([H])c2c(c1[H])C([H])([H])C([H])([H])C([H])([H])C2([H])N([H])C(=O)C1([H])N(C(=O)C([H])(N([H])C(=O)C([H])(N([H])C([H])([H])[H])C([H])([H])[H])C(C([H])([H])[H])(C([H])([H])[H])C([H])([H])[H])C([H])([H])c2c([H])c(OC([H])([H])C(=O)N3C([H])([H])C4([H])C([H])([H])C([H])([H])C3([H])C4([H])N([H])C(=O)N3C([H])([H])C([H])([H])C([H])([H])C([H])(n4nc(-c5c([H])c([H])c(Oc6c([H])c([H])c(F)c([H])c6F)c([H])c5[H])c(C(=O)N([H])[H])c4N([H])[H])C3([H])[H])c([H])c([H])c2C1([H])[H]

>  <smiles>  (91) 
[H]c1c([H])c([H])c2c(c1[H])C([H])([H])C([H])([H])C([H])([H])C2([H])N([H])C(=O)C1([H])N(C(=O)C([H])(N([H])C(=O)C([H])(N([H])C([H])([H])[H])C([H])([H])[H])C(C([H])([H])[H])(C([H])([H])[H])C([H])([H])[H])C([H])([H])c2c([H])c(OC([H])([H])C(=O)N3C([H])([H])C4([H])C([H])([H])C([H])([H])C3([H])C4([H])N([H])C(=O)N3C([H])([H])C([H])([H])C([H])([H])C([H])(n4nc(-c5c([H])c([H])c(Oc6c([H])c([H])c(F)c([H])c6F)c([H])c5[H])c(C(=O)N([H])[H])c4N([H])[H])C3([H])[H])c([H])c([H])c2C1([H])[H]

$$$$
92:0:0
     RDKit          3D

 97107  0  0  1  0  0  0  0  0999 V2000
  -30.1960  -18.5170   19.5220 C   0  0  0  0  0  3  0  0  0  0  0  0
  -31.1040  -17.9330   21.7020 C   0  0  0  0  0  3  0  0  0  0  0  0
  -30.1010  -19.9060   19.9450 C   0  0  0  0  0  0  0  0  0  0  0  0
  -30.5350  -20.2730   21.2080 C   0  0  0  0  0  0  0  0  0  0  0  0
  -31.0030  -19.2930   22.1150 C   0  0  0  0  0  0  0  0  0  0  0  0
  -30.7350  -17.4900   20.4030 C   0  0  0  0  0  0  0  0  0  0  0  0
  -29.5780  -21.1980   19.2350 C   0  0  0  0  0  2  0  0  0  0  0  0
  -30.4340  -21.7910   21.4290 C   0  0  0  0  0  2  0  0  0  0  0  0
  -31.4180  -23.0050   19.3350 C   0  0  0  0  0  2  0  0  0  0  0  0
  -29.7350  -24.0830   19.9810 C   0  0  0  0  0  3  0  0  0  0  0  0
  -30.5700  -24.1180   18.6990 C   0  0  0  0  0  3  0  0  0  0  0  0
  -30.1420  -22.4660   20.0460 C   0  0  1  0  0  0  0  0  0  0  0  0
  -31.3400  -19.6780   23.5460 C   0  0  0  0  0  1  0  0  0  0  0  0
  -31.4910  -14.9280   20.3640 C   0  0  0  0  0  0  0  0  0  0  0  0
  -31.3250  -12.5340   19.6270 C   0  0  0  0  0  2  0  0  0  0  0  0
  -30.4560  -12.4650   18.3510 C   0  0  0  0  0  2  0  0  0  0  0  0
  -28.9550  -12.4050   18.7000 C   0  0  0  0  0  2  0  0  0  0  0  0
  -28.5440  -13.4490   19.7720 C   0  0  0  0  0  3  0  0  0  0  0  0
  -29.5260  -13.4520   20.9610 C   0  0  0  0  0  2  0  0  0  0  0  0
  -30.8660  -13.7010   20.4120 N   0  0  0  0  0  0  0  0  0  0  0  0
  -32.7110  -14.9970   20.1780 O   0  0  0  0  0  0  0  0  0  0  0  0
  -30.6450  -16.0190   20.2020 N   0  0  0  0  0  0  0  0  0  0  0  0
  -29.6870  -15.7040   20.1940 H   0  0  0  0  0  0  0  0  0  0  0  0
  -26.1840  -14.2480   20.3750 C   0  0  0  0  0  0  0  0  0  0  0  0
  -25.0410  -13.5670   20.7000 C   0  0  0  0  0  0  0  0  0  0  0  0
  -25.3930  -12.1810   20.6990 C   0  0  0  0  0  0  0  0  0  0  0  0
  -27.1610  -13.2810   20.1990 N   0  0  0  0  0  0  0  0  0  0  0  0
  -26.6900  -12.0340   20.4560 N   0  0  0  0  0  0  0  0  0  0  0  0
  -24.5570  -10.9850   20.8580 C   0  0  0  0  0  0  0  0  0  0  0  0
  -24.8690   -9.9860   21.8050 C   0  0  0  0  0  3  0  0  0  0  0  0
  -24.0390   -8.8540   21.9510 C   0  0  0  0  0  3  0  0  0  0  0  0
  -22.8800   -8.7170   21.1510 C   0  0  0  0  0  0  0  0  0  0  0  0
  -22.5890   -9.7020   20.1910 C   0  0  0  0  0  3  0  0  0  0  0  0
  -23.4180  -10.8250   20.0440 C   0  0  0  0  0  3  0  0  0  0  0  0
  -22.0300   -7.6390   21.2050 O   0  0  0  0  0  0  0  0  0  0  0  0
  -21.8660   -6.9100   22.3540 C   0  0  0  0  0  0  0  0  0  0  0  0
  -21.4250   -7.5030   23.5580 C   0  0  0  0  0  3  0  0  0  0  0  0
  -21.2050   -6.7020   24.6980 C   0  0  0  0  0  3  0  0  0  0  0  0
  -21.4160   -5.3120   24.6330 C   0  0  0  0  0  0  0  0  0  0  0  0
  -21.8510   -4.7200   23.4340 C   0  0  0  0  0  3  0  0  0  0  0  0
  -22.0730   -5.5170   22.2980 C   0  0  0  0  0  0  0  0  0  0  0  0
  -22.4700   -4.9380   21.1380 F   0  0  0  0  0  0  0  0  0  0  0  0
  -21.1980   -4.5410   25.7240 F   0  0  0  0  0  0  0  0  0  0  0  0
  -23.6770  -14.1620   20.8970 C   0  0  0  0  0  0  0  0  0  0  0  0
  -22.8610  -13.5540   21.7510 N   0  0  0  0  0  0  0  0  0  0  0  0
  -23.3410  -15.2000   20.3270 O   0  0  0  0  0  0  0  0  0  0  0  0
  -23.1450  -12.7100   22.2300 H   0  0  0  0  0  0  0  0  0  0  0  0
  -21.9440  -13.9360   21.9290 H   0  0  0  0  0  0  0  0  0  0  0  0
  -26.4690  -15.5960   20.1930 N   0  0  0  0  0  0  0  0  0  0  0  0
  -25.7500  -16.3090   20.2560 H   0  0  0  0  0  0  0  0  0  0  0  0
  -27.3480  -15.9580   19.8500 H   0  0  0  0  0  0  0  0  0  0  0  0
  -31.2950  -25.3820   18.4370 N   0  0  0  0  0  4  0  0  0  0  0  0
  -31.8050  -25.7050   19.2370 H   0  0  0  0  0  0  0  0  0  0  0  0
  -30.6490  -26.1050   18.1670 H   0  0  0  0  0  0  0  0  0  0  0  0
  -31.9490  -25.2650   17.6810 H   0  0  0  0  0  0  0  0  0  0  0  0
  -28.3660  -24.9260   20.0210 C   0  0  0  0  0  2  0  0  0  0  0  0
  -28.4960  -26.4220   20.1840 O   0  0  0  0  0  0  0  0  0  0  0  0
  -24.6240  -31.7540   23.2460 C   0  0  0  0  0  0  0  0  0  0  0  0
  -27.3630  -27.2700   20.1360 C   0  0  0  0  0  0  0  0  0  0  0  0
  -23.4700  -30.3580   21.5700 C   0  0  0  0  0  3  0  0  0  0  0  0
  -24.9690  -28.8600   20.1280 C   0  0  0  0  0  0  0  0  0  0  0  0
  -26.0060  -30.7230   21.4230 C   0  0  0  0  0  2  0  0  0  0  0  0
  -26.1200  -29.3570   20.7480 C   0  0  0  0  0  0  0  0  0  0  0  0
  -27.3180  -28.5710   20.7420 C   0  0  0  0  0  3  0  0  0  0  0  0
  -26.1830  -26.8410   19.4880 C   0  0  0  0  0  3  0  0  0  0  0  0
  -25.0020  -27.6120   19.4890 C   0  0  0  0  0  3  0  0  0  0  0  0
  -23.7130  -29.7120   20.1800 C   0  0  0  0  0  2  0  0  0  0  0  0
  -24.7180  -30.9630   22.1370 N   0  0  0  0  0  0  0  0  0  0  0  0
  -23.5290  -32.0000   23.7730 O   0  0  0  0  0  0  0  0  0  0  0  0
  -22.8200  -29.3090   22.5050 C   0  0  0  0  0  0  0  0  0  0  0  0
  -21.5080  -29.0730   22.3330 N   0  0  0  0  0  0  0  0  0  0  0  0
  -23.4950  -28.7130   23.3490 O   0  0  0  0  0  0  0  0  0  0  0  0
  -21.0180  -29.6100   21.6310 H   0  0  0  0  0  0  0  0  0  0  0  0
  -18.1910  -27.6700   22.6610 C   0  0  0  0  0  0  0  0  0  0  0  0
  -20.7080  -28.0950   23.0730 C   0  0  0  0  0  3  0  0  0  0  0  0
  -20.9310  -26.6650   22.5290 C   0  0  0  0  0  2  0  0  0  0  0  0
  -19.9120  -26.2580   21.4600 C   0  0  0  0  0  2  0  0  0  0  0  0
  -18.4900  -26.3240   22.0210 C   0  0  0  0  0  2  0  0  0  0  0  0
  -19.2340  -28.5060   23.1420 C   0  0  0  0  0  0  0  0  0  0  0  0
  -18.9040  -29.7620   23.6960 C   0  0  0  0  0  3  0  0  0  0  0  0
  -17.5640  -30.1850   23.7770 C   0  0  0  0  0  3  0  0  0  0  0  0
  -16.5330  -29.3450   23.3180 C   0  0  0  0  0  3  0  0  0  0  0  0
  -16.8480  -28.0910   22.7650 C   0  0  0  0  0  3  0  0  0  0  0  0
  -25.8850  -32.4030   23.8940 C   0  0  0  0  0  3  0  0  0  0  0  0
  -26.3880  -31.6390   25.1800 C   0  0  1  0  0  0  0  0  0  0  0  0
  -25.2780  -31.3940   26.2280 C   0  0  0  0  0  1  0  0  0  0  0  0
  -26.9940  -30.2700   24.7960 C   0  0  0  0  0  1  0  0  0  0  0  0
  -27.5160  -32.4480   25.8610 C   0  0  0  0  0  1  0  0  0  0  0  0
  -25.5530  -33.7970   24.2200 N   0  0  0  0  0  0  0  0  0  0  0  0
  -25.8670  -34.8540   23.4600 C   0  0  0  0  0  0  0  0  0  0  0  0
  -26.5350  -34.7610   22.4260 O   0  0  0  0  0  0  0  0  0  0  0  0
  -24.9630  -33.9460   25.0260 H   0  0  0  0  0  0  0  0  0  0  0  0
  -24.1020  -36.6080   23.1140 C   0  0  0  0  0  1  0  0  0  0  0  0
  -25.3580  -36.2340   23.9190 C   0  0  0  0  0  3  0  0  0  0  0  0
  -27.4770  -37.1680   24.7310 C   0  0  0  0  0  1  0  0  0  0  0  0
  -26.3670  -37.3070   23.7900 N   0  0  0  0  0  0  0  0  0  0  0  0
  -25.9450  -38.2190   23.9320 H   0  0  0  0  0  0  0  0  0  0  0  0
  1  3  2  0
  1  6  1  0
  2  5  1  0
  3  4  1  0
  4  8  1  0
  4  5  2  0
  5 13  1  0
  6  2  2  0
  7  3  1  0
 12  9  1  6
 10 56  1  0
 10 12  1  0
 11 52  1  0
 11  9  1  0
 11 10  1  0
 12  7  1  0
 12  8  1  0
 14 20  1  0
 15 20  1  0
 16 17  1  0
 16 15  1  0
 18 17  1  0
 18 27  1  0
 18 19  1  0
 20 19  1  0
 21 14  2  0
 22 14  1  0
 22  6  1  0
 23 22  1  0
 24 25  2  0
 25 44  1  0
 26 25  1  0
 26 29  1  0
 27 24  1  0
 27 28  1  0
 28 26  2  0
 29 30  1  0
 30 31  2  0
 32 35  1  0
 32 31  1  0
 33 32  2  0
 34 33  1  0
 34 29  2  0
 35 36  1  0
 36 37  1  0
 37 38  2  0
 39 38  1  0
 39 43  1  0
 40 39  2  0
 41 36  2  0
 41 40  1  0
 42 41  1  0
 44 45  1  0
 45 48  1  0
 45 47  1  0
 46 44  2  0
 49 50  1  0
 49 24  1  0
 51 49  1  0
 52 53  1  0
 54 52  1  0
 55 52  1  0
 56 57  1  0
 58 69  2  0
 59 57  1  0
 59 64  1  0
 60 68  1  0
 60 70  1  0
 61 67  1  0
 61 63  1  0
 62 68  1  0
 63 62  1  0
 64 63  2  0
 65 66  1  0
 65 59  2  0
 66 61  2  0
 67 60  1  0
 68 58  1  0
 70 72  2  0
 71 70  1  0
 73 71  1  0
 74 83  2  0
 74 79  1  0
 75 71  1  0
 75 79  1  0
 76 75  1  0
 77 78  1  0
 77 76  1  0
 78 74  1  0
 79 80  2  0
 80 81  1  0
 82 81  2  0
 83 82  1  0
 84 58  1  0
 84 89  1  0
 84 85  1  0
 85 88  1  1
 85 86  1  0
 87 85  1  0
 89 92  1  0
 90 94  1  0
 90 89  1  0
 91 90  2  0
 94 93  1  0
 96 94  1  0
 96 97  1  0
 96 95  1  0
M  ISO  4  14 100  22 100  56 101  57 101
M  END
>  <TORSDO>  (92) 
F 18

>  <SCORE>  (92) 
-14.040

>  <name>  (92) 
92

>  <ligand_id>  (92) 
92

>  <original_smiles>  (92) 
[H]c1c([H])c([H])c2c(c1[H])C([H])([H])C([H])([H])C([H])([H])C2([H])N([H])C(=O)C1([H])N(C(=O)C([H])(N([H])C(=O)C([H])(N([H])C([H])([H])[H])C([H])([H])[H])C(C([H])([H])[H])(C([H])([H])[H])C([H])([H])[H])C([H])([H])c2c([H])c(OC([H])([H])C3([H])C4(C([H])([H])c5c([H])c(N([H])C(=O)N6C([H])([H])C([H])([H])C([H])([H])C([H])(n7nc(-c8c([H])c([H])c(Oc9c([H])c([H])c(F)c([H])c9F)c([H])c8[H])c(C(=O)N([H])[H])c7N([H])[H])C6([H])[H])c([H])c(C([H])([H])[H])c5C4([H])[H])C([H])([H])C3([H])[N+]([H])([H])[H])c([H])c([H])c2C1([H])[H]

>  <smiles>  (92) 
[H]c1c([H])c([H])c2c(c1[H])C([H])([H])C([H])([H])C([H])([H])C2([H])N([H])C(=O)C1([H])N(C(=O)C([H])(N([H])C(=O)C([H])(N([H])C([H])([H])[H])C([H])([H])[H])C(C([H])([H])[H])(C([H])([H])[H])C([H])([H])[H])C([H])([H])c2c([H])c(OC([H])([H])C3([H])C4(C([H])([H])c5c([H])c(N([H])C(=O)N6C([H])([H])C([H])([H])C([H])([H])C([H])(n7nc(-c8c([H])c([H])c(Oc9c([H])c([H])c(F)c([H])c9F)c([H])c8[H])c(C(=O)N([H])[H])c7N([H])[H])C6([H])[H])c([H])c(C([H])([H])[H])c5C4([H])[H])C([H])([H])C3([H])[N+]([H])([H])[H])c([H])c([H])c2C1([H])[H]

$$$$
93:0:0
     RDKit          3D

 91100  0  0  1  0  0  0  0  0999 V2000
  -28.0070  -22.3460   18.6490 C   0  0  0  0  0  2  0  0  0  0  0  0
  -27.7830  -19.5760   19.4060 C   0  0  0  0  0  2  0  0  0  0  0  0
  -28.4310  -20.8590   18.7940 C   0  0  0  0  0  3  0  0  0  0  0  0
  -28.6950  -21.2060   20.3240 C   0  0  0  0  0  3  0  0  0  0  0  0
  -28.8830  -22.8680   19.7710 C   0  0  0  0  0  3  0  0  0  0  0  0
  -28.9920  -19.4320   20.3210 C   0  0  1  0  0  0  0  0  0  0  0  0
  -28.6000  -18.9970   21.6820 N   0  0  0  0  0  4  0  0  0  0  0  0
  -27.8710  -19.5740   22.0610 H   0  0  0  0  0  0  0  0  0  0  0  0
  -29.3830  -19.0690   22.3070 H   0  0  0  0  0  0  0  0  0  0  0  0
  -28.2870  -18.0450   21.7000 H   0  0  0  0  0  0  0  0  0  0  0  0
  -28.2730  -24.4290   20.3800 C   0  0  0  0  0  2  0  0  0  0  0  0
  -28.4400  -26.0040   20.0010 O   0  0  0  0  0  0  0  0  0  0  0  0
  -24.6650  -31.7370   23.0800 C   0  0  0  0  0  0  0  0  0  0  0  0
  -27.3780  -27.0310   20.0060 C   0  0  0  0  0  0  0  0  0  0  0  0
  -23.5180  -30.3360   21.4110 C   0  0  0  0  0  3  0  0  0  0  0  0
  -25.0180  -28.8060   19.9730 C   0  0  0  0  0  0  0  0  0  0  0  0
  -26.0730  -30.6410   21.2750 C   0  0  0  0  0  2  0  0  0  0  0  0
  -26.1890  -29.2480   20.6010 C   0  0  0  0  0  0  0  0  0  0  0  0
  -27.3670  -28.3830   20.5910 C   0  0  0  0  0  3  0  0  0  0  0  0
  -26.1750  -26.7260   19.3320 C   0  0  0  0  0  3  0  0  0  0  0  0
  -25.0330  -27.5630   19.3180 C   0  0  0  0  0  3  0  0  0  0  0  0
  -23.7710  -29.6820   20.0250 C   0  0  0  0  0  2  0  0  0  0  0  0
  -24.7720  -30.9310   21.9760 N   0  0  0  0  0  0  0  0  0  0  0  0
  -23.5670  -31.9840   23.6030 O   0  0  0  0  0  0  0  0  0  0  0  0
  -22.8530  -29.3010   22.3550 C   0  0  0  0  0  0  0  0  0  0  0  0
  -21.5250  -29.1200   22.2400 N   0  0  0  0  0  0  0  0  0  0  0  0
  -23.5380  -28.6630   23.1590 O   0  0  0  0  0  0  0  0  0  0  0  0
  -21.0240  -29.6940   21.5740 H   0  0  0  0  0  0  0  0  0  0  0  0
  -18.1650  -27.8670   22.7650 C   0  0  0  0  0  0  0  0  0  0  0  0
  -20.7250  -28.1460   22.9910 C   0  0  0  0  0  3  0  0  0  0  0  0
  -20.8290  -26.7370   22.3630 C   0  0  0  0  0  2  0  0  0  0  0  0
  -19.7110  -26.4450   21.3560 C   0  0  0  0  0  2  0  0  0  0  0  0
  -18.3410  -26.5490   22.0300 C   0  0  0  0  0  2  0  0  0  0  0  0
  -19.2840  -28.6260   23.1990 C   0  0  0  0  0  0  0  0  0  0  0  0
  -19.0640  -29.8640   23.8390 C   0  0  0  0  0  3  0  0  0  0  0  0
  -17.7560  -30.3440   24.0500 C   0  0  0  0  0  3  0  0  0  0  0  0
  -16.6520  -29.5800   23.6330 C   0  0  0  0  0  3  0  0  0  0  0  0
  -16.8590  -28.3440   22.9940 C   0  0  0  0  0  3  0  0  0  0  0  0
  -25.9150  -32.4030   23.7300 C   0  0  0  0  0  3  0  0  0  0  0  0
  -26.4490  -31.6170   24.9920 C   0  0  1  0  0  0  0  0  0  0  0  0
  -25.3570  -31.3180   26.0470 C   0  0  0  0  0  1  0  0  0  0  0  0
  -27.0780  -30.2680   24.5750 C   0  0  0  0  0  1  0  0  0  0  0  0
  -27.5700  -32.4310   25.6790 C   0  0  0  0  0  1  0  0  0  0  0  0
  -25.5510  -33.7800   24.1050 N   0  0  0  0  0  0  0  0  0  0  0  0
  -25.8350  -34.8730   23.3830 C   0  0  0  0  0  0  0  0  0  0  0  0
  -26.4960  -34.8280   22.3420 O   0  0  0  0  0  0  0  0  0  0  0  0
  -24.9560  -33.8820   24.9140 H   0  0  0  0  0  0  0  0  0  0  0  0
  -24.0330  -36.6130   23.1240 C   0  0  0  0  0  1  0  0  0  0  0  0
  -25.3060  -36.2280   23.8950 C   0  0  0  0  0  3  0  0  0  0  0  0
  -27.4180  -37.1770   24.7170 C   0  0  0  0  0  1  0  0  0  0  0  0
  -26.2970  -37.3240   23.7930 N   0  0  0  0  0  0  0  0  0  0  0  0
  -25.8570  -38.2240   23.9690 H   0  0  0  0  0  0  0  0  0  0  0  0
  -30.0450  -18.1120   19.7830 C   0  0  0  0  0  2  0  0  0  0  0  0
  -30.5990  -15.2440   19.7770 C   0  0  0  0  0  0  0  0  0  0  0  0
  -30.4970  -12.8160   18.8910 C   0  0  0  0  0  2  0  0  0  0  0  0
  -29.4930  -12.6660   17.7210 C   0  0  0  0  0  2  0  0  0  0  0  0
  -28.0650  -12.4270   18.2460 C   0  0  0  0  0  2  0  0  0  0  0  0
  -27.7170  -13.3570   19.4400 C   0  0  0  0  0  3  0  0  0  0  0  0
  -28.8460  -13.4560   20.4850 C   0  0  0  0  0  2  0  0  0  0  0  0
  -30.0350  -13.9440   19.7750 N   0  0  0  0  0  0  0  0  0  0  0  0
  -31.7860  -15.2760   19.4290 O   0  0  0  0  0  0  0  0  0  0  0  0
  -29.8250  -16.4800   19.9700 N   0  0  0  0  0  0  0  0  0  0  0  0
  -28.8650  -16.2450   20.1650 H   0  0  0  0  0  0  0  0  0  0  0  0
  -25.4310  -13.9080   20.4260 C   0  0  0  0  0  0  0  0  0  0  0  0
  -24.3930  -13.1270   20.8500 C   0  0  0  0  0  0  0  0  0  0  0  0
  -24.8310  -11.7740   20.7070 C   0  0  0  0  0  0  0  0  0  0  0  0
  -26.4310  -13.0330   20.0430 N   0  0  0  0  0  0  0  0  0  0  0  0
  -26.0890  -11.7390   20.2770 N   0  0  0  0  0  0  0  0  0  0  0  0
  -24.1010  -10.5130   20.8940 C   0  0  0  0  0  0  0  0  0  0  0  0
  -24.5210   -9.5450   21.8320 C   0  0  0  0  0  3  0  0  0  0  0  0
  -23.7860   -8.3530   22.0080 C   0  0  0  0  0  3  0  0  0  0  0  0
  -22.6170   -8.1200   21.2450 C   0  0  0  0  0  0  0  0  0  0  0  0
  -22.2160   -9.0770   20.2960 C   0  0  0  0  0  3  0  0  0  0  0  0
  -22.9520  -10.2600   20.1180 C   0  0  0  0  0  3  0  0  0  0  0  0
  -21.8550   -6.9800   21.3300 O   0  0  0  0  0  0  0  0  0  0  0  0
  -21.6940   -6.3070   22.5150 C   0  0  0  0  0  0  0  0  0  0  0  0
  -21.1260   -6.9250   23.6510 C   0  0  0  0  0  3  0  0  0  0  0  0
  -20.9140   -6.1770   24.8260 C   0  0  0  0  0  3  0  0  0  0  0  0
  -21.2620   -4.8140   24.8660 C   0  0  0  0  0  0  0  0  0  0  0  0
  -21.8230   -4.1950   23.7350 C   0  0  0  0  0  3  0  0  0  0  0  0
  -22.0360   -4.9410   22.5610 C   0  0  0  0  0  0  0  0  0  0  0  0
  -22.5570   -4.3350   21.4670 F   0  0  0  0  0  0  0  0  0  0  0  0
  -21.0530   -4.0930   25.9930 F   0  0  0  0  0  0  0  0  0  0  0  0
  -23.0330  -13.6070   21.2620 C   0  0  0  0  0  0  0  0  0  0  0  0
  -22.3730  -12.8830   22.1580 N   0  0  0  0  0  0  0  0  0  0  0  0
  -22.5720  -14.6620   20.8270 O   0  0  0  0  0  0  0  0  0  0  0  0
  -22.7630  -12.0280   22.5260 H   0  0  0  0  0  0  0  0  0  0  0  0
  -21.4650  -13.1870   22.4760 H   0  0  0  0  0  0  0  0  0  0  0  0
  -25.6000  -15.2840   20.3090 N   0  0  0  0  0  0  0  0  0  0  0  0
  -24.8360  -15.9220   20.5020 H   0  0  0  0  0  0  0  0  0  0  0  0
  -26.3550  -15.7210   19.7980 H   0  0  0  0  0  0  0  0  0  0  0  0
  1  5  1  0
  2  6  1  0
  3  1  1  0
  3  2  1  0
  3  4  1  0
  5  4  1  0
  5 11  1  0
  6  4  1  0
  6  7  1  0
  7 10  1  0
  7  8  1  0
  7  9  1  0
 12 14  1  0
 12 11  1  0
 13 24  2  0
 13 39  1  0
 14 19  1  0
 15 23  1  0
 15 25  1  0
 16 22  1  0
 16 18  1  0
 17 23  1  0
 18 17  1  0
 19 18  2  0
 20 14  2  0
 21 20  1  0
 21 16  2  0
 22 15  1  0
 23 13  1  0
 25 27  2  0
 26 25  1  0
 26 30  1  0
 28 26  1  0
 29 38  2  0
 29 34  1  0
 30 34  1  0
 31 30  1  0
 32 33  1  0
 32 31  1  0
 33 29  1  0
 34 35  2  0
 35 36  1  0
 37 36  2  0
 38 37  1  0
 39 44  1  0
 39 40  1  0
 40 43  1  1
 40 41  1  0
 42 40  1  0
 44 47  1  0
 45 49  1  0
 45 44  1  0
 46 45  2  0
 48 49  1  0
 51 49  1  0
 51 52  1  0
 51 50  1  0
 53 62  1  0
  6 53  1  6
 54 62  1  0
 55 60  1  0
 56 57  1  0
 56 55  1  0
 57 58  1  0
 58 67  1  0
 58 59  1  0
 60 54  1  0
 60 59  1  0
 61 54  2  0
 62 63  1  0
 64 65  2  0
 65 84  1  0
 66 65  1  0
 66 69  1  0
 67 68  1  0
 67 64  1  0
 68 66  2  0
 69 70  1  0
 70 71  2  0
 72 75  1  0
 72 71  1  0
 73 72  2  0
 74 73  1  0
 74 69  2  0
 75 76  1  0
 76 81  2  0
 76 77  1  0
 77 78  2  0
 78 79  1  0
 79 83  1  0
 80 79  2  0
 81 80  1  0
 82 81  1  0
 84 85  1  0
 85 88  1  0
 85 87  1  0
 86 84  2  0
 89 64  1  0
 89 90  1  0
 91 89  1  0
M  ISO  4  11 101  12 101  54 100  62 100
M  END
>  <TORSDO>  (93) 
F 19

>  <SCORE>  (93) 
-14.030

>  <name>  (93) 
93

>  <ligand_id>  (93) 
93

>  <original_smiles>  (93) 
[H]c1c([H])c([H])c2c(c1[H])C([H])([H])C([H])([H])C([H])([H])C2([H])N([H])C(=O)C1([H])N(C(=O)C([H])(N([H])C(=O)C([H])(N([H])C([H])([H])[H])C([H])([H])[H])C(C([H])([H])[H])(C([H])([H])[H])C([H])([H])[H])C([H])([H])c2c([H])c(OC([H])([H])C3([H])C([H])([H])C4([H])C([H])([H])C(C([H])([H])N([H])C(=O)N5C([H])([H])C([H])([H])C([H])([H])C([H])(n6nc(-c7c([H])c([H])c(Oc8c([H])c([H])c(F)c([H])c8F)c([H])c7[H])c(C(=O)N([H])[H])c6N([H])[H])C5([H])[H])([N+]([H])([H])[H])C34[H])c([H])c([H])c2C1([H])[H]

>  <smiles>  (93) 
[H]c1c([H])c([H])c2c(c1[H])C([H])([H])C([H])([H])C([H])([H])C2([H])N([H])C(=O)C1([H])N(C(=O)C([H])(N([H])C(=O)C([H])(N([H])C([H])([H])[H])C([H])([H])[H])C(C([H])([H])[H])(C([H])([H])[H])C([H])([H])[H])C([H])([H])c2c([H])c(OC([H])([H])C3([H])C([H])([H])C4([H])C([H])([H])C(C([H])([H])N([H])C(=O)N5C([H])([H])C([H])([H])C([H])([H])C([H])(n6nc(-c7c([H])c([H])c(Oc8c([H])c([H])c(F)c([H])c8F)c([H])c7[H])c(C(=O)N([H])[H])c6N([H])[H])C5([H])[H])([N+]([H])([H])[H])C34[H])c([H])c([H])c2C1([H])[H]

$$$$
94:0:0
     RDKit          3D

 93 95  0  0  1  0  0  0  0  0999 V2000
  -23.8980  -25.9400   19.8550 C   0  0  0  0  0  2  0  0  0  0  0  0
  -25.4000  -25.1050   19.7800 N   0  0  0  0  0  2  0  0  0  0  0  0
  -23.1790  -25.3130   19.0830 O   0  0  0  0  0  1  0  0  0  0  0  0
  -25.0340  -24.9020   18.8570 H   0  0  0  0  0  0  0  0  0  0  0  0
  -27.3950  -22.0600   21.0840 C   0  0  0  0  0  2  0  0  0  0  0  0
  -26.8870  -20.9540   19.0240 C   0  0  0  0  0  2  0  0  0  0  0  0
  -26.3700  -22.2000   19.9360 C   0  0  0  0  0  3  0  0  0  0  0  0
  -28.6680  -21.8000   20.2850 C   0  0  0  0  0  3  0  0  0  0  0  0
  -28.4430  -20.6440   19.3150 C   0  0  0  0  0  3  0  0  0  0  0  0
  -28.6700  -22.7990   19.1130 C   0  0  0  0  0  1  0  0  0  0  0  0
  -26.6940  -23.6200   19.3140 C   0  0  0  0  0  1  0  0  0  0  0  0
  -29.7710  -21.0800   18.4910 C   0  0  0  0  0  1  0  0  0  0  0  0
  -32.7080  -18.8750   18.0790 C   0  0  0  0  0  0  0  0  0  0  0  0
  -34.0750  -16.5750   17.1380 C   0  0  0  0  0  2  0  0  0  0  0  0
  -33.3360  -15.5820   16.1670 C   0  0  0  0  0  2  0  0  0  0  0  0
  -32.3340  -14.7050   16.9270 C   0  0  0  0  0  2  0  0  0  0  0  0
  -31.6860  -15.5460   18.0400 C   0  0  0  0  0  3  0  0  0  0  0  0
  -32.6660  -16.3060   18.9370 C   0  0  0  0  0  2  0  0  0  0  0  0
  -33.1060  -17.4050   18.0790 N   0  0  0  0  0  0  0  0  0  0  0  0
  -33.7580  -19.3070   17.4950 O   0  0  0  0  0  0  0  0  0  0  0  0
  -31.3040  -19.7520   18.5720 N   0  0  0  0  0  2  0  0  0  0  0  0
  -30.9200  -19.0600   19.2010 H   0  0  0  0  0  0  0  0  0  0  0  0
  -29.5040  -15.3670   19.2250 C   0  0  0  0  0  0  0  0  0  0  0  0
  -28.9140  -14.3610   19.9230 C   0  0  0  0  0  0  0  0  0  0  0  0
  -29.8610  -13.2890   19.9550 C   0  0  0  0  0  0  0  0  0  0  0  0
  -30.7300  -14.8660   18.8490 N   0  0  0  0  0  0  0  0  0  0  0  0
  -30.9900  -13.6420   19.3560 N   0  0  0  0  0  0  0  0  0  0  0  0
  -29.7270  -11.9220   20.4520 C   0  0  0  0  0  0  0  0  0  0  0  0
  -30.8290  -11.2150   20.9790 C   0  0  0  0  0  3  0  0  0  0  0  0
  -30.6640   -9.9040   21.4720 C   0  0  0  0  0  3  0  0  0  0  0  0
  -29.3880   -9.2920   21.4420 C   0  0  0  0  0  0  0  0  0  0  0  0
  -28.3000   -9.9920   20.8910 C   0  0  0  0  0  3  0  0  0  0  0  0
  -28.4670  -11.2950   20.3970 C   0  0  0  0  0  3  0  0  0  0  0  0
  -29.1350   -8.0150   21.8800 O   0  0  0  0  0  0  0  0  0  0  0  0
  -30.0920   -7.2750   22.5220 C   0  0  0  0  0  0  0  0  0  0  0  0
  -31.2630   -7.8660   23.0470 C   0  0  0  0  0  3  0  0  0  0  0  0
  -32.1880   -7.0780   23.7620 C   0  0  0  0  0  3  0  0  0  0  0  0
  -31.9400   -5.7070   23.9610 C   0  0  0  0  0  0  0  0  0  0  0  0
  -30.7710   -5.1190   23.4440 C   0  0  0  0  0  3  0  0  0  0  0  0
  -29.8500   -5.9030   22.7280 C   0  0  0  0  0  0  0  0  0  0  0  0
  -28.7150   -5.3380   22.2490 F   0  0  0  0  0  0  0  0  0  0  0  0
  -32.8230   -4.9520   24.6560 F   0  0  0  0  0  0  0  0  0  0  0  0
  -27.5060  -14.3610   20.4260 C   0  0  0  0  0  0  0  0  0  0  0  0
  -27.2530  -13.6690   21.5290 N   0  0  0  0  0  0  0  0  0  0  0  0
  -26.6320  -15.0220   19.8660 O   0  0  0  0  0  0  0  0  0  0  0  0
  -27.9790  -13.1460   21.9950 H   0  0  0  0  0  0  0  0  0  0  0  0
  -26.3180  -13.6610   21.9140 H   0  0  0  0  0  0  0  0  0  0  0  0
  -29.0970  -16.6430   18.8360 N   0  0  0  0  0  0  0  0  0  0  0  0
  -28.1290  -16.9110   18.9740 H   0  0  0  0  0  0  0  0  0  0  0  0
  -29.5080  -17.0880   18.0270 H   0  0  0  0  0  0  0  0  0  0  0  0
  -22.5920  -27.5480   20.5650 C   0  0  0  0  0 15  0  0  0  0  0  0
  -22.9550  -29.3080   22.5090 C   0  0  0  0  0 15  0  0  0  0  0  0
  -25.2950  -28.9230   22.8320 O   0  0  0  0  0  1  0  0  0  0  0  0
  -24.4800  -31.5310   22.8450 C   0  0  0  0  0  0  0  0  0  0  0  0
  -26.4740  -28.1610   22.0460 C   0  0  0  0  0  3  0  0  0  0  0  0
  -24.3300  -29.0580   20.8970 C   0  0  0  0  0  2  0  0  0  0  0  0
  -25.9390  -28.8740   19.6570 C   0  0  0  0  0  3  0  0  0  0  0  0
  -26.0350  -31.0400   21.0160 C   0  0  0  0  0  2  0  0  0  0  0  0
  -26.6690  -29.7380   20.5530 C   0  0  0  0  0  3  0  0  0  0  0  0
  -27.3870  -29.0800   21.5440 C   0  0  0  0  0  2  0  0  0  0  0  0
  -26.4050  -27.1020   21.0310 C   0  0  0  0  0  2  0  0  0  0  0  0
  -26.0780  -27.4850   19.7300 C   0  0  0  0  0  2  0  0  0  0  0  0
  -24.5670  -29.1760   19.4340 C   0  0  0  0  0  2  0  0  0  0  0  0
  -24.7290  -30.7400   21.5730 N   0  0  0  0  0  0  0  0  0  0  0  0
  -23.3390  -31.7550   23.3200 O   0  0  0  0  0  0  0  0  0  0  0  0
  -23.8560  -27.1770   22.5670 C   0  0  0  0  0  2  0  0  0  0  0  0
  -22.4410  -27.1580   23.2240 N   0  0  0  0  0  0  0  0  0  0  0  0
  -24.3470  -27.0490   23.6750 O   0  0  0  0  0  1  0  0  0  0  0  0
  -22.6190  -26.7250   24.1230 H   0  0  0  0  0  0  0  0  0  0  0  0
  -18.2580  -28.0840   22.8250 C   0  0  0  0  0  0  0  0  0  0  0  0
  -20.8450  -27.4620   23.1670 C   0  0  0  0  0  3  0  0  0  0  0  0
  -20.3840  -26.1780   22.5380 C   0  0  0  0  0  2  0  0  0  0  0  0
  -19.3310  -26.3100   21.4540 C   0  0  0  0  0  2  0  0  0  0  0  0
  -18.0760  -26.7570   22.1310 C   0  0  0  0  0  2  0  0  0  0  0  0
  -19.5670  -28.5590   23.2530 C   0  0  0  0  0  0  0  0  0  0  0  0
  -19.4690  -29.8540   23.8760 C   0  0  0  0  0  3  0  0  0  0  0  0
  -18.2230  -30.5530   24.0570 C   0  0  0  0  0  3  0  0  0  0  0  0
  -16.9940  -30.0080   23.6480 C   0  0  0  0  0  3  0  0  0  0  0  0
  -17.0290  -28.7620   23.0230 C   0  0  0  0  0  3  0  0  0  0  0  0
  -25.5180  -32.3000   23.8520 C   0  0  0  0  0  3  0  0  0  0  0  0
  -25.7280  -31.7100   25.3440 C   0  0  1  0  0  0  0  0  0  0  0  0
  -24.4190  -31.3740   26.1050 C   0  0  0  0  0  1  0  0  0  0  0  0
  -26.5980  -30.4420   25.3450 C   0  0  0  0  0  1  0  0  0  0  0  0
  -26.5190  -32.7140   26.2390 C   0  0  0  0  0  1  0  0  0  0  0  0
  -25.0780  -33.7160   24.0680 N   0  0  0  0  0  0  0  0  0  0  0  0
  -25.6040  -34.8040   23.4840 C   0  0  0  0  0  0  0  0  0  0  0  0
  -26.5060  -34.7120   22.6520 O   0  0  0  0  0  0  0  0  0  0  0  0
  -24.2820  -33.8390   24.6780 H   0  0  0  0  0  0  0  0  0  0  0  0
  -23.9200  -36.5780   22.8510 C   0  0  0  0  0  1  0  0  0  0  0  0
  -25.0400  -36.2060   23.8360 C   0  0  0  0  0  3  0  0  0  0  0  0
  -27.0270  -37.1840   24.9160 C   0  0  0  0  0  1  0  0  0  0  0  0
  -26.0600  -37.2830   23.8260 N   0  0  0  0  0  0  0  0  0  0  0  0
  -25.6200  -38.1980   23.8750 H   0  0  0  0  0  0  0  0  0  0  0  0
  2  1  1  0
  3  1  1  0
  4  2  1  0
  6  9  1  0
  6  7  1  0
  7 11  1  0
  7  5  1  0
  8 10  1  0
  8  5  1  0
  9 12  1  0
  9  8  1  0
 13 21  1  0
 14 19  1  0
 15 16  1  0
 15 14  1  0
 17 16  1  0
 17 26  1  0
 17 18  1  0
 19 13  1  0
 19 18  1  0
 20 13  2  0
 21 22  1  0
 23 24  2  0
 24 25  1  0
 24 43  1  0
 25 28  1  0
 26 23  1  0
 26 27  1  0
 27 25  2  0
 28 29  1  0
 29 30  2  0
 31 30  1  0
 31 34  1  0
 32 31  2  0
 33 28  2  0
 33 32  1  0
 34 35  1  0
 35 40  2  0
 35 36  1  0
 36 37  2  0
 37 38  1  0
 38 42  1  0
 39 38  2  0
 40 39  1  0
 41 40  1  0
 43 44  1  0
 44 47  1  0
 44 46  1  0
 45 43  2  0
 48 49  1  0
 48 23  1  0
 50 48  1  0
 54 65  2  0
 55 53  1  0
 56 64  1  0
 57 63  1  0
 57 62  1  0
 57 59  1  0
 58 64  1  0
 59 58  1  0
 59 60  1  0
 60 55  1  0
 61 55  1  0
 62 61  1  0
 63 56  1  0
 64 54  1  0
 66 67  1  0
 66 68  1  0
 67 69  1  0
 70 79  2  0
 70 75  1  0
 71 67  1  0
 71 75  1  0
 72 71  1  0
 73 74  1  0
 73 72  1  0
 74 70  1  0
 75 76  2  0
 76 77  1  0
 78 77  2  0
 79 78  1  0
 80 54  1  0
 80 85  1  0
 80 81  1  0
 81 83  1  6
 81 82  1  0
 81 84  1  0
 85 88  1  0
 86 90  1  0
 86 85  1  0
 87 86  2  0
 90 89  1  0
 92 90  1  0
 92 93  1  0
 92 91  1  0
M  ISO  4  13 100  21 100  52 101  53 101
M  END
>  <TORSDO>  (94) 
F 19

>  <SCORE>  (94) 
-10.924

>  <name>  (94) 
94

>  <ligand_id>  (94) 
94

>  <original_smiles>  (94) 
[H]c1c([H])c([H])c2c(c1[H])C([H])([H])C([H])([H])C([H])([H])C2([H])N([H])C(=O)C1([H])N(C(=O)C([H])(N([H])C(=O)C([H])(N([H])C([H])([H])[H])C([H])([H])[H])C(C([H])([H])[H])(C([H])([H])[H])C([H])([H])[H])C([H])([H])c2c([H])c(OC([H])([H])C([H])([H])C(=O)N([H])C3([H])C4([H])C([H])([H])C5([H])C([H])(N([H])C(=O)N6C([H])([H])C([H])([H])C([H])([H])C([H])(n7nc(-c8c([H])c([H])c(Oc9c([H])c([H])c(F)c([H])c9F)c([H])c8[H])c(C(=O)N([H])[H])c7N([H])[H])C6([H])[H])C3([H])C5([H])C4([H])[H])c([H])c([H])c2C1([H])[H]

>  <smiles>  (94) 
[H]c1c([H])c([H])c2c(c1[H])C([H])([H])C([H])([H])C([H])([H])C2([H])N([H])C(=O)C1([H])N(C(=O)C([H])(N([H])C(=O)C([H])(N([H])C([H])([H])[H])C([H])([H])[H])C(C([H])([H])[H])(C([H])([H])[H])C([H])([H])[H])C([H])([H])c2c([H])c(OC([H])([H])C([H])([H])C(=O)N([H])C3([H])C4([H])C([H])([H])C5([H])C([H])(N([H])C(=O)N6C([H])([H])C([H])([H])C([H])([H])C([H])(n7nc(-c8c([H])c([H])c(Oc9c([H])c([H])c(F)c([H])c9F)c([H])c8[H])c(C(=O)N([H])[H])c7N([H])[H])C6([H])[H])C3([H])C5([H])C4([H])[H])c([H])c([H])c2C1([H])[H]

$$$$
95:0:0
     RDKit          3D

 91101  0  0  1  0  0  0  0  0999 V2000
  -30.3150  -18.5300   21.4470 C   0  0  0  0  0  0  0  0  0  0  0  0
  -28.1800  -19.1050   20.4100 C   0  0  0  0  0  2  0  0  0  0  0  0
  -30.4020  -17.7860   20.1000 C   0  0  0  0  0  3  0  0  0  0  0  0
  -29.3310  -19.6950   21.2310 C   0  0  1  0  0  0  0  0  0  0  0  0
  -29.3980  -18.9420   19.4990 C   0  0  1  0  0  0  0  0  0  0  0  0
  -29.7470  -20.3970   19.9880 N   0  0  1  0  0  4  0  0  0  0  0  0
  -30.9030  -18.1770   22.4750 O   0  0  0  0  0  0  0  0  0  0  0  0
  -30.7440  -20.5350   19.9930 H   0  0  0  0  0  0  0  0  0  0  0  0
  -30.7650  -15.0340   19.9780 C   0  0  0  0  0  0  0  0  0  0  0  0
  -30.5420  -12.7180   18.9650 C   0  0  0  0  0  2  0  0  0  0  0  0
  -29.5420  -12.7260   17.7860 C   0  0  0  0  0  2  0  0  0  0  0  0
  -28.0910  -12.5510   18.2770 C   0  0  0  0  0  2  0  0  0  0  0  0
  -27.7740  -13.4230   19.5220 C   0  0  0  0  0  3  0  0  0  0  0  0
  -28.8950  -13.3680   20.5800 C   0  0  0  0  0  2  0  0  0  0  0  0
  -30.1340  -13.7920   19.9120 N   0  0  0  0  0  0  0  0  0  0  0  0
  -31.9630  -15.0730   19.6760 O   0  0  0  0  0  0  0  0  0  0  0  0
  -30.0210  -16.2380   20.1420 N   0  0  0  0  0  0  0  0  0  0  0  0
  -29.0460  -16.0650   20.3310 H   0  0  0  0  0  0  0  0  0  0  0  0
  -25.4540  -14.0200   20.4150 C   0  0  0  0  0  0  0  0  0  0  0  0
  -24.3900  -13.2530   20.8070 C   0  0  0  0  0  0  0  0  0  0  0  0
  -24.8210  -11.8950   20.6970 C   0  0  0  0  0  0  0  0  0  0  0  0
  -26.4600  -13.1300   20.0830 N   0  0  0  0  0  0  0  0  0  0  0  0
  -26.0920  -11.8440   20.3130 N   0  0  0  0  0  0  0  0  0  0  0  0
  -24.0730  -10.6410   20.8720 C   0  0  0  0  0  0  0  0  0  0  0  0
  -24.5170   -9.6330   21.7560 C   0  0  0  0  0  3  0  0  0  0  0  0
  -23.7720   -8.4470   21.9220 C   0  0  0  0  0  3  0  0  0  0  0  0
  -22.5670   -8.2580   21.2030 C   0  0  0  0  0  0  0  0  0  0  0  0
  -22.1420   -9.2550   20.3060 C   0  0  0  0  0  3  0  0  0  0  0  0
  -22.8880  -10.4330   20.1400 C   0  0  0  0  0  3  0  0  0  0  0  0
  -21.7900   -7.1270   21.2830 O   0  0  0  0  0  0  0  0  0  0  0  0
  -21.7490   -6.3570   22.4190 C   0  0  0  0  0  0  0  0  0  0  0  0
  -21.3350   -6.8830   23.6630 C   0  0  0  0  0  3  0  0  0  0  0  0
  -21.2460   -6.0390   24.7900 C   0  0  0  0  0  3  0  0  0  0  0  0
  -21.5600   -4.6720   24.6710 C   0  0  0  0  0  0  0  0  0  0  0  0
  -21.9690   -4.1470   23.4330 C   0  0  0  0  0  3  0  0  0  0  0  0
  -22.0620   -4.9870   22.3100 C   0  0  0  0  0  0  0  0  0  0  0  0
  -22.4350   -4.4710   21.1150 F   0  0  0  0  0  0  0  0  0  0  0  0
  -21.4670   -3.8600   25.7500 F   0  0  0  0  0  0  0  0  0  0  0  0
  -23.0200  -13.7480   21.1700 C   0  0  0  0  0  0  0  0  0  0  0  0
  -22.3210  -13.0370   22.0460 N   0  0  0  0  0  0  0  0  0  0  0  0
  -22.5810  -14.8000   20.7080 O   0  0  0  0  0  0  0  0  0  0  0  0
  -22.6870  -12.1840   22.4400 H   0  0  0  0  0  0  0  0  0  0  0  0
  -21.4020  -13.3460   22.3270 H   0  0  0  0  0  0  0  0  0  0  0  0
  -25.6450  -15.3930   20.2850 N   0  0  0  0  0  0  0  0  0  0  0  0
  -24.8980  -16.0590   20.4520 H   0  0  0  0  0  0  0  0  0  0  0  0
  -26.4650  -15.8140   19.8700 H   0  0  0  0  0  0  0  0  0  0  0  0
  -29.0140  -21.7530   19.5000 C   0  0  0  0  0  2  0  0  0  0  0  0
  -30.7690  -23.6980   19.6820 C   0  0  0  0  0  1  0  0  0  0  0  0
  -29.3200  -23.3390   20.0380 C   0  0  0  0  0  3  0  0  0  0  0  0
  -28.3560  -24.6840   19.6270 C   0  0  0  0  0  2  0  0  0  0  0  0
  -28.4960  -26.1910   20.0340 O   0  0  0  0  0  0  0  0  0  0  0  0
  -24.5720  -31.6460   23.0970 C   0  0  0  0  0  0  0  0  0  0  0  0
  -27.4010  -27.1380   19.9630 C   0  0  0  0  0  0  0  0  0  0  0  0
  -23.4590  -30.2560   21.3890 C   0  0  0  0  0  3  0  0  0  0  0  0
  -25.0020  -28.7930   19.9410 C   0  0  0  0  0  0  0  0  0  0  0  0
  -26.0040  -30.6270   21.2910 C   0  0  0  0  0  2  0  0  0  0  0  0
  -26.1490  -29.2630   20.5920 C   0  0  0  0  0  0  0  0  0  0  0  0
  -27.3470  -28.4510   20.5910 C   0  0  0  0  0  3  0  0  0  0  0  0
  -26.2230  -26.7740   19.2740 C   0  0  0  0  0  3  0  0  0  0  0  0
  -25.0530  -27.5650   19.2660 C   0  0  0  0  0  3  0  0  0  0  0  0
  -23.7340  -29.6310   19.9940 C   0  0  0  0  0  2  0  0  0  0  0  0
  -24.6950  -30.8660   21.9790 N   0  0  0  0  0  0  0  0  0  0  0  0
  -23.4680  -31.8720   23.6120 O   0  0  0  0  0  0  0  0  0  0  0  0
  -22.8060  -29.1940   22.3100 C   0  0  0  0  0  0  0  0  0  0  0  0
  -21.4810  -28.9970   22.1760 N   0  0  0  0  0  0  0  0  0  0  0  0
  -23.4920  -28.5490   23.1070 O   0  0  0  0  0  0  0  0  0  0  0  0
  -20.9840  -29.5690   21.5070 H   0  0  0  0  0  0  0  0  0  0  0  0
  -18.1230  -27.7190   22.6460 C   0  0  0  0  0  0  0  0  0  0  0  0
  -20.6810  -28.0090   22.9050 C   0  0  0  0  0  3  0  0  0  0  0  0
  -20.8020  -26.6120   22.2560 C   0  0  0  0  0  2  0  0  0  0  0  0
  -19.6970  -26.3230   21.2360 C   0  0  0  0  0  2  0  0  0  0  0  0
  -18.3180  -26.4110   21.8980 C   0  0  0  0  0  2  0  0  0  0  0  0
  -19.2340  -28.4780   23.1040 C   0  0  0  0  0  0  0  0  0  0  0  0
  -19.0010  -29.7020   23.7670 C   0  0  0  0  0  3  0  0  0  0  0  0
  -17.6900  -30.1710   23.9750 C   0  0  0  0  0  3  0  0  0  0  0  0
  -16.5940  -29.4090   23.5350 C   0  0  0  0  0  3  0  0  0  0  0  0
  -16.8120  -28.1840   22.8780 C   0  0  0  0  0  3  0  0  0  0  0  0
  -25.8140  -32.3120   23.7670 C   0  0  0  0  0  3  0  0  0  0  0  0
  -26.3100  -31.5470   25.0560 C   0  0  1  0  0  0  0  0  0  0  0  0
  -25.1890  -31.2790   26.0870 C   0  0  0  0  0  1  0  0  0  0  0  0
  -26.9400  -30.1840   24.6890 C   0  0  0  0  0  1  0  0  0  0  0  0
  -27.4170  -32.3660   25.7600 C   0  0  0  0  0  1  0  0  0  0  0  0
  -25.4520  -33.6990   24.1030 N   0  0  0  0  0  0  0  0  0  0  0  0
  -25.7510  -34.7700   23.3560 C   0  0  0  0  0  0  0  0  0  0  0  0
  -26.4260  -34.6990   22.3260 O   0  0  0  0  0  0  0  0  0  0  0  0
  -24.8520  -33.8260   24.9040 H   0  0  0  0  0  0  0  0  0  0  0  0
  -23.9520  -36.5010   23.0320 C   0  0  0  0  0  1  0  0  0  0  0  0
  -25.2180  -36.1380   23.8270 C   0  0  0  0  0  3  0  0  0  0  0  0
  -27.3180  -37.1120   24.6470 C   0  0  0  0  0  1  0  0  0  0  0  0
  -26.2070  -37.2310   23.7060 N   0  0  0  0  0  0  0  0  0  0  0  0
  -25.7640  -38.1340   23.8510 H   0  0  0  0  0  0  0  0  0  0  0  0
  1  7  2  0
  3 17  1  0
  3  1  1  0
  4  2  1  1
  4  1  1  0
  5  6  1  0
  5  3  1  0
  5  2  1  1
  5  4  1  0
  6  8  1  1
  6  4  1  0
  9 17  1  0
 10 15  1  0
 11 12  1  0
 11 10  1  0
 13 12  1  0
 13 22  1  0
 13 14  1  0
 15  9  1  0
 15 14  1  0
 16  9  2  0
 17 18  1  0
 19 20  2  0
 20 39  1  0
 21 20  1  0
 21 24  1  0
 22 23  1  0
 22 19  1  0
 23 21  2  0
 24 25  1  0
 25 26  2  0
 27 30  1  0
 27 26  1  0
 28 27  2  0
 29 28  1  0
 29 24  2  0
 30 31  1  0
 31 32  1  0
 32 33  2  0
 34 33  1  0
 34 38  1  0
 35 34  2  0
 36 31  2  0
 36 35  1  0
 37 36  1  0
 39 40  1  0
 40 43  1  0
 40 42  1  0
 41 39  2  0
 44 19  1  0
 44 45  1  0
 46 44  1  0
 47  6  1  0
 47 49  1  0
 49 48  1  0
 50 51  1  0
 50 49  1  0
 52 63  2  0
 53 51  1  0
 53 58  1  0
 54 62  1  0
 54 64  1  0
 55 61  1  0
 55 57  1  0
 56 62  1  0
 57 56  1  0
 58 57  2  0
 59 53  2  0
 60 59  1  0
 60 55  2  0
 61 54  1  0
 62 52  1  0
 64 66  2  0
 65 64  1  0
 67 65  1  0
 68 77  2  0
 68 73  1  0
 69 65  1  0
 69 73  1  0
 70 69  1  0
 71 72  1  0
 71 70  1  0
 72 68  1  0
 73 74  2  0
 74 75  1  0
 76 75  2  0
 77 76  1  0
 78 52  1  0
 78 83  1  0
 78 79  1  0
 79 82  1  1
 79 80  1  0
 81 79  1  0
 83 86  1  0
 84 88  1  0
 84 83  1  0
 85 84  2  0
 88 87  1  0
 90 88  1  0
 90 91  1  0
 90 89  1  0
M  ISO  4   9 100  17 100  50 101  51 101
M  END
>  <TORSDO>  (95) 
F 19

>  <SCORE>  (95) 
-14.586

>  <name>  (95) 
95

>  <ligand_id>  (95) 
95

>  <original_smiles>  (95) 
[H]c1c([H])c([H])c2c(c1[H])C([H])([H])C([H])([H])C([H])([H])C2([H])N([H])C(=O)C1([H])N(C(=O)C([H])(N([H])C(=O)C([H])(N([H])C([H])([H])[H])C([H])([H])[H])C(C([H])([H])[H])(C([H])([H])[H])C([H])([H])[H])C([H])([H])c2c([H])c(OC([H])([H])C([H])(C([H])([H])[H])C([H])([H])[N+]3([H])C4([H])C(=O)C([H])(N([H])C(=O)N5C([H])([H])C([H])([H])C([H])([H])C([H])(n6nc(-c7c([H])c([H])c(Oc8c([H])c([H])c(F)c([H])c8F)c([H])c7[H])c(C(=O)N([H])[H])c6N([H])[H])C5([H])[H])C3([H])C4([H])[H])c([H])c([H])c2C1([H])[H]

>  <smiles>  (95) 
[H]c1c([H])c([H])c2c(c1[H])C([H])([H])C([H])([H])C([H])([H])C2([H])N([H])C(=O)C1([H])N(C(=O)C([H])(N([H])C(=O)C([H])(N([H])C([H])([H])[H])C([H])([H])[H])C(C([H])([H])[H])(C([H])([H])[H])C([H])([H])[H])C([H])([H])c2c([H])c(OC([H])([H])C([H])(C([H])([H])[H])C([H])([H])[N+]3([H])C4([H])C(=O)C([H])(N([H])C(=O)N5C([H])([H])C([H])([H])C([H])([H])C([H])(n6nc(-c7c([H])c([H])c(Oc8c([H])c([H])c(F)c([H])c8F)c([H])c7[H])c(C(=O)N([H])[H])c6N([H])[H])C5([H])[H])C3([H])C4([H])[H])c([H])c([H])c2C1([H])[H]

$$$$
96:0:0
     RDKit          3D

 96105  0  0  1  0  0  0  0  0999 V2000
  -30.2300  -22.0220   20.0260 C   0  0  0  0  0  2  0  0  0  0  0  0
  -29.5830  -22.3650   17.6250 C   0  0  0  0  0  2  0  0  0  0  0  0
  -30.7290  -23.4780   20.0760 C   0  0  0  0  0  2  0  0  0  0  0  0
  -30.1000  -23.8170   17.7330 C   0  0  0  0  0  2  0  0  0  0  0  0
  -30.3050  -21.4120   18.6080 C   0  0  0  0  0  3  0  0  0  0  0  0
  -29.9840  -24.3380   19.1220 N   0  0  2  0  0  4  0  0  0  0  0  0
  -29.0140  -24.2730   19.3920 H   0  0  0  0  0  0  0  0  0  0  0  0
  -29.7350  -19.9670   18.5530 C   0  0  0  0  0  2  0  0  0  0  0  0
  -30.5800  -19.0110   19.3030 N   0  0  0  0  0  4  0  0  0  0  0  0
  -31.5010  -19.0060   18.8900 H   0  0  0  0  0  0  0  0  0  0  0  0
  -30.6650  -19.3460   20.2480 H   0  0  0  0  0  0  0  0  0  0  0  0
  -30.0840  -17.6140   19.3520 C   0  0  0  0  0  2  0  0  0  0  0  0
  -31.0560  -14.3080   19.9040 C   0  0  0  0  0  0  0  0  0  0  0  0
  -30.5940  -12.2270   18.6610 C   0  0  0  0  0  2  0  0  0  0  0  0
  -29.5830  -12.5130   17.5310 C   0  0  0  0  0  2  0  0  0  0  0  0
  -28.1330  -12.4230   18.0480 C   0  0  0  0  0  2  0  0  0  0  0  0
  -27.9150  -13.2250   19.3590 C   0  0  0  0  0  3  0  0  0  0  0  0
  -29.0160  -12.8810   20.3800 C   0  0  0  0  0  2  0  0  0  0  0  0
  -30.3160  -13.1750   19.7550 N   0  0  0  0  0  0  0  0  0  0  0  0
  -32.1360  -14.4720   19.3270 O   0  0  0  0  0  0  0  0  0  0  0  0
  -30.5450  -16.9740   21.8020 C   0  0  0  0  0  0  0  0  0  0  0  0
  -30.1730  -15.5000   21.9210 C   0  0  0  0  0  2  0  0  0  0  0  0
  -30.9150  -16.7630   20.3320 C   0  0  0  0  0  3  0  0  0  0  0  0
  -30.4270  -15.3630   20.4690 N   0  0  0  0  0  0  0  0  0  0  0  0
  -30.5140  -17.9480   22.5560 O   0  0  0  0  0  0  0  0  0  0  0  0
  -25.5830  -13.9270   20.2010 C   0  0  0  0  0  0  0  0  0  0  0  0
  -24.5080  -13.1950   20.6290 C   0  0  0  0  0  0  0  0  0  0  0  0
  -24.9150  -11.8260   20.5720 C   0  0  0  0  0  0  0  0  0  0  0  0
  -26.5790  -13.0060   19.9100 N   0  0  0  0  0  0  0  0  0  0  0  0
  -26.1830  -11.7390   20.1870 N   0  0  0  0  0  0  0  0  0  0  0  0
  -24.1580  -10.5910   20.8080 C   0  0  0  0  0  0  0  0  0  0  0  0
  -24.5750   -9.6360   21.7620 C   0  0  0  0  0  3  0  0  0  0  0  0
  -23.8200   -8.4620   21.9770 C   0  0  0  0  0  3  0  0  0  0  0  0
  -22.6340   -8.2370   21.2380 C   0  0  0  0  0  0  0  0  0  0  0  0
  -22.2360   -9.1780   20.2720 C   0  0  0  0  0  3  0  0  0  0  0  0
  -22.9910  -10.3430   20.0550 C   0  0  0  0  0  3  0  0  0  0  0  0
  -21.8530   -7.1140   21.3620 O   0  0  0  0  0  0  0  0  0  0  0  0
  -21.7520   -6.4320   22.5480 C   0  0  0  0  0  0  0  0  0  0  0  0
  -21.3100   -7.0600   23.7330 C   0  0  0  0  0  3  0  0  0  0  0  0
  -21.1570   -6.3050   24.9140 C   0  0  0  0  0  3  0  0  0  0  0  0
  -21.4380   -4.9260   24.9110 C   0  0  0  0  0  0  0  0  0  0  0  0
  -21.8740   -4.2980   23.7310 C   0  0  0  0  0  3  0  0  0  0  0  0
  -22.0290   -5.0510   22.5530 C   0  0  0  0  0  0  0  0  0  0  0  0
  -22.4290   -4.4390   21.4120 F   0  0  0  0  0  0  0  0  0  0  0  0
  -21.2870   -4.1970   26.0410 F   0  0  0  0  0  0  0  0  0  0  0  0
  -23.1460  -13.7240   20.9800 C   0  0  0  0  0  0  0  0  0  0  0  0
  -22.4570  -13.0710   21.9090 N   0  0  0  0  0  0  0  0  0  0  0  0
  -22.7070  -14.7510   20.4660 O   0  0  0  0  0  0  0  0  0  0  0  0
  -22.8260  -12.2370   22.3410 H   0  0  0  0  0  0  0  0  0  0  0  0
  -21.5480  -13.4100   22.1920 H   0  0  0  0  0  0  0  0  0  0  0  0
  -25.7940  -15.2890   20.0160 N   0  0  0  0  0  0  0  0  0  0  0  0
  -25.0530  -15.9680   20.1510 H   0  0  0  0  0  0  0  0  0  0  0  0
  -26.6330  -15.6850   19.6170 H   0  0  0  0  0  0  0  0  0  0  0  0
  -30.3330  -25.7820   19.2440 C   0  0  0  0  0  2  0  0  0  0  0  0
  -29.1130  -26.6960   19.0230 C   0  0  0  0  0  2  0  0  0  0  0  0
  -28.3380  -26.6790   20.2140 O   0  0  0  0  0  0  0  0  0  0  0  0
  -24.5200  -31.8580   23.2240 C   0  0  0  0  0  0  0  0  0  0  0  0
  -27.1840  -27.4180   20.1760 C   0  0  0  0  0  0  0  0  0  0  0  0
  -23.3210  -30.4490   21.5790 C   0  0  0  0  0  3  0  0  0  0  0  0
  -24.7830  -28.9000   20.1720 C   0  0  0  0  0  0  0  0  0  0  0  0
  -25.8440  -30.8080   21.3950 C   0  0  0  0  0  2  0  0  0  0  0  0
  -25.9330  -29.4320   20.7700 C   0  0  0  0  0  0  0  0  0  0  0  0
  -27.1350  -28.6920   20.7820 C   0  0  0  0  0  3  0  0  0  0  0  0
  -26.0200  -26.8870   19.5840 C   0  0  0  0  0  3  0  0  0  0  0  0
  -24.8200  -27.6230   19.5810 C   0  0  0  0  0  3  0  0  0  0  0  0
  -23.5370  -29.7560   20.2050 C   0  0  0  0  0  2  0  0  0  0  0  0
  -24.5790  -31.0530   22.1240 N   0  0  0  0  0  0  0  0  0  0  0  0
  -23.4380  -32.1380   23.7550 O   0  0  0  0  0  0  0  0  0  0  0  0
  -22.6590  -29.4390   22.5410 C   0  0  0  0  0  0  0  0  0  0  0  0
  -21.3360  -29.2570   22.4000 N   0  0  0  0  0  0  0  0  0  0  0  0
  -23.3330  -28.8200   23.3680 O   0  0  0  0  0  0  0  0  0  0  0  0
  -20.8530  -29.8120   21.7080 H   0  0  0  0  0  0  0  0  0  0  0  0
  -17.9550  -28.0690   22.8570 C   0  0  0  0  0  0  0  0  0  0  0  0
  -20.5090  -28.3260   23.1660 C   0  0  0  0  0  3  0  0  0  0  0  0
  -20.6170  -26.8890   22.6030 C   0  0  0  0  0  2  0  0  0  0  0  0
  -19.5310  -26.5600   21.5750 C   0  0  0  0  0  2  0  0  0  0  0  0
  -18.1400  -26.7130   22.1980 C   0  0  0  0  0  2  0  0  0  0  0  0
  -19.0680  -28.8330   23.2980 C   0  0  0  0  0  0  0  0  0  0  0  0
  -18.8430  -30.1030   23.8720 C   0  0  0  0  0  3  0  0  0  0  0  0
  -17.5380  -30.6090   24.0120 C   0  0  0  0  0  3  0  0  0  0  0  0
  -16.4390  -29.8420   23.5900 C   0  0  0  0  0  3  0  0  0  0  0  0
  -16.6480  -28.5740   23.0190 C   0  0  0  0  0  3  0  0  0  0  0  0
  -25.8070  -32.4840   23.8490 C   0  0  0  0  0  3  0  0  0  0  0  0
  -25.5070  -33.8860   24.1710 N   0  0  0  0  0  0  0  0  0  0  0  0
  -25.8670  -34.9310   23.4130 C   0  0  0  0  0  0  0  0  0  0  0  0
  -26.5570  -34.8180   22.3980 O   0  0  0  0  0  0  0  0  0  0  0  0
  -24.8950  -34.0500   24.9560 H   0  0  0  0  0  0  0  0  0  0  0  0
  -24.1710  -36.7430   23.0050 C   0  0  0  0  0  1  0  0  0  0  0  0
  -25.3810  -36.3260   23.8540 C   0  0  0  0  0  3  0  0  0  0  0  0
  -27.5030  -37.1820   24.7460 C   0  0  0  0  0  1  0  0  0  0  0  0
  -26.4290  -37.3670   23.7730 N   0  0  0  0  0  0  0  0  0  0  0  0
  -26.0300  -38.2900   23.9130 H   0  0  0  0  0  0  0  0  0  0  0  0
  -26.3160  -31.7150   25.1290 C   0  0  1  0  0  0  0  0  0  0  0  0
  -25.2180  -31.4850   26.1920 C   0  0  0  0  0  1  0  0  0  0  0  0
  -26.8970  -30.3350   24.7400 C   0  0  0  0  0  1  0  0  0  0  0  0
  -27.4680  -32.5070   25.7940 C   0  0  0  0  0  1  0  0  0  0  0  0
  1  3  1  0
  2  4  1  0
  2  5  1  0
  4  6  1  0
  5  8  1  0
  5  1  1  0
  6 54  1  0
  6  7  1  1
  6  3  1  0
  8  9  1  0
  9 12  1  0
  9 11  1  0
 10  9  1  0
 13 24  1  0
 14 19  1  0
 15 16  1  0
 15 14  1  0
 17 16  1  0
 17 29  1  0
 17 18  1  0
 19 13  1  0
 19 18  1  0
 20 13  2  0
 21 22  1  0
 21 25  2  0
 23 12  1  0
 23 24  1  0
 23 21  1  0
 24 22  1  0
 26 27  2  0
 27 46  1  0
 28 27  1  0
 28 31  1  0
 29 30  1  0
 29 26  1  0
 30 28  2  0
 31 32  1  0
 32 33  2  0
 34 37  1  0
 34 33  1  0
 35 34  2  0
 36 35  1  0
 36 31  2  0
 37 38  1  0
 38 43  2  0
 38 39  1  0
 39 40  2  0
 41 40  1  0
 41 45  1  0
 42 41  2  0
 43 42  1  0
 44 43  1  0
 46 47  1  0
 47 50  1  0
 47 49  1  0
 48 46  2  0
 51 52  1  0
 51 26  1  0
 53 51  1  0
 55 54  1  0
 55 56  1  0
 57 68  2  0
 58 56  1  0
 58 63  1  0
 59 67  1  0
 59 69  1  0
 60 66  1  0
 60 62  1  0
 61 67  1  0
 62 63  2  0
 62 61  1  0
 64 58  2  0
 65 64  1  0
 65 60  2  0
 66 59  1  0
 67 57  1  0
 69 71  2  0
 70 69  1  0
 72 70  1  0
 73 82  2  0
 73 78  1  0
 74 70  1  0
 74 78  1  0
 75 74  1  0
 76 77  1  0
 76 75  1  0
 77 73  1  0
 78 79  2  0
 79 80  1  0
 81 80  2  0
 82 81  1  0
 83 57  1  0
 83 84  1  0
 83 93  1  0
 84 87  1  0
 85 89  1  0
 85 84  1  0
 86 85  2  0
 89 88  1  0
 91 89  1  0
 91 92  1  0
 91 90  1  0
 93 96  1  1
 93 94  1  0
 95 93  1  0
M  ISO  4  13 100  24 100  55 101  56 101
M  END
>  <TORSDO>  (96) 
F 21

>  <SCORE>  (96) 
-12.785

>  <name>  (96) 
96

>  <ligand_id>  (96) 
96

>  <original_smiles>  (96) 
[H]c1c([H])c([H])c2c(c1[H])C([H])([H])C([H])([H])C([H])([H])C2([H])N([H])C(=O)C1([H])N(C(=O)C([H])(N([H])C(=O)C([H])(N([H])C([H])([H])[H])C([H])([H])[H])C(C([H])([H])[H])(C([H])([H])[H])C([H])([H])[H])C([H])([H])c2c([H])c(OC([H])([H])C([H])([H])[N+]3([H])C([H])([H])C([H])([H])C([H])(C([H])([H])[N+]([H])([H])C([H])([H])C4([H])C(=O)C([H])([H])N4C(=O)N4C([H])([H])C([H])([H])C([H])([H])C([H])(n5nc(-c6c([H])c([H])c(Oc7c([H])c([H])c(F)c([H])c7F)c([H])c6[H])c(C(=O)N([H])[H])c5N([H])[H])C4([H])[H])C([H])([H])C3([H])[H])c([H])c([H])c2C1([H])[H]

>  <smiles>  (96) 
[H]c1c([H])c([H])c2c(c1[H])C([H])([H])C([H])([H])C([H])([H])C2([H])N([H])C(=O)C1([H])N(C(=O)C([H])(N([H])C(=O)C([H])(N([H])C([H])([H])[H])C([H])([H])[H])C(C([H])([H])[H])(C([H])([H])[H])C([H])([H])[H])C([H])([H])c2c([H])c(OC([H])([H])C([H])([H])[N+]3([H])C([H])([H])C([H])([H])C([H])(C([H])([H])[N+]([H])([H])C([H])([H])C4([H])C(=O)C([H])([H])N4C(=O)N4C([H])([H])C([H])([H])C([H])([H])C([H])(n5nc(-c6c([H])c([H])c(Oc7c([H])c([H])c(F)c([H])c7F)c([H])c6[H])c(C(=O)N([H])[H])c5N([H])[H])C4([H])[H])C([H])([H])C3([H])[H])c([H])c([H])c2C1([H])[H]

$$$$
97:0:0
     RDKit          3D

 87 96  0  0  1  0  0  0  0  0999 V2000
  -28.9220  -22.1730   21.8600 C   0  0  0  0  0  2  0  0  0  0  0  0
  -30.2590  -22.3640   20.4110 C   0  0  0  0  0  2  0  0  0  0  0  0
  -28.3370  -21.1190   19.7160 C   0  0  0  0  0  2  0  0  0  0  0  0
  -29.8870  -21.0650   21.2630 C   0  0  0  0  0  3  0  0  0  0  0  0
  -29.1010  -19.8620   20.5610 C   0  0  0  0  0  3  0  0  0  0  0  0
  -28.7290  -22.6240   20.3860 C   0  0  1  0  0  0  0  0  0  0  0  0
  -29.9280  -18.3060   20.0840 C   0  0  0  0  0  2  0  0  0  0  0  0
  -30.4180  -15.3760   20.2010 C   0  0  0  0  0  0  0  0  0  0  0  0
  -30.3770  -12.9310   19.3100 C   0  0  0  0  0  2  0  0  0  0  0  0
  -29.4380  -12.7270   18.0930 C   0  0  0  0  0  2  0  0  0  0  0  0
  -27.9990  -12.4450   18.5590 C   0  0  0  0  0  2  0  0  0  0  0  0
  -27.5650  -13.3980   19.6990 C   0  0  0  0  0  3  0  0  0  0  0  0
  -28.6330  -13.5490   20.8060 C   0  0  0  0  0  2  0  0  0  0  0  0
  -29.8470  -14.0680   20.1570 N   0  0  0  0  0  0  0  0  0  0  0  0
  -31.6260  -15.3690   19.9220 O   0  0  0  0  0  0  0  0  0  0  0  0
  -29.6720  -16.6600   20.3490 N   0  0  0  0  0  0  0  0  0  0  0  0
  -28.7070  -16.4720   20.5780 H   0  0  0  0  0  0  0  0  0  0  0  0
  -25.2080  -13.9370   20.5020 C   0  0  0  0  0  0  0  0  0  0  0  0
  -24.1560  -13.1520   20.8830 C   0  0  0  0  0  0  0  0  0  0  0  0
  -24.6290  -11.8040   20.8350 C   0  0  0  0  0  0  0  0  0  0  0  0
  -26.2490  -13.0690   20.2320 N   0  0  0  0  0  0  0  0  0  0  0  0
  -25.9160  -11.7790   20.5000 N   0  0  0  0  0  0  0  0  0  0  0  0
  -23.9110  -10.5360   21.0280 C   0  0  0  0  0  0  0  0  0  0  0  0
  -24.3560   -9.5670   21.9530 C   0  0  0  0  0  3  0  0  0  0  0  0
  -23.6340   -8.3680   22.1360 C   0  0  0  0  0  3  0  0  0  0  0  0
  -22.4530   -8.1290   21.3920 C   0  0  0  0  0  0  0  0  0  0  0  0
  -22.0280   -9.0880   20.4550 C   0  0  0  0  0  3  0  0  0  0  0  0
  -22.7520  -10.2780   20.2710 C   0  0  0  0  0  3  0  0  0  0  0  0
  -21.7010   -6.9830   21.4850 O   0  0  0  0  0  0  0  0  0  0  0  0
  -21.6610   -6.2400   22.6370 C   0  0  0  0  0  0  0  0  0  0  0  0
  -21.2260   -6.7890   23.8630 C   0  0  0  0  0  3  0  0  0  0  0  0
  -21.1330   -5.9720   25.0080 C   0  0  0  0  0  3  0  0  0  0  0  0
  -21.4650   -4.6060   24.9270 C   0  0  0  0  0  0  0  0  0  0  0  0
  -21.8940   -4.0570   23.7060 C   0  0  0  0  0  3  0  0  0  0  0  0
  -21.9880   -4.8710   22.5640 C   0  0  0  0  0  0  0  0  0  0  0  0
  -22.3810   -4.3300   21.3850 F   0  0  0  0  0  0  0  0  0  0  0  0
  -21.3690   -3.8190   26.0230 F   0  0  0  0  0  0  0  0  0  0  0  0
  -22.7610  -13.6210   21.1750 C   0  0  0  0  0  0  0  0  0  0  0  0
  -22.0480  -12.9180   22.0480 N   0  0  0  0  0  0  0  0  0  0  0  0
  -22.3130  -14.6470   20.6660 O   0  0  0  0  0  0  0  0  0  0  0  0
  -22.4240  -12.0880   22.4820 H   0  0  0  0  0  0  0  0  0  0  0  0
  -21.1120  -13.2140   22.2850 H   0  0  0  0  0  0  0  0  0  0  0  0
  -25.3560  -15.3110   20.3310 N   0  0  0  0  0  0  0  0  0  0  0  0
  -24.5820  -15.9530   20.4580 H   0  0  0  0  0  0  0  0  0  0  0  0
  -26.1810  -15.7560   19.9530 H   0  0  0  0  0  0  0  0  0  0  0  0
  -27.9660  -24.2490   20.0080 C   0  0  0  0  0  2  0  0  0  0  0  0
  -28.1770  -25.8660   20.3260 O   0  0  0  0  0  0  0  0  0  0  0  0
  -24.6360  -31.8930   23.2380 C   0  0  0  0  0  0  0  0  0  0  0  0
  -27.1770  -26.9800   20.2370 C   0  0  0  0  0  0  0  0  0  0  0  0
  -23.4370  -30.4910   21.6070 C   0  0  0  0  0  3  0  0  0  0  0  0
  -24.8810  -28.8760   20.1870 C   0  0  0  0  0  0  0  0  0  0  0  0
  -26.0040  -30.6920   21.4570 C   0  0  0  0  0  2  0  0  0  0  0  0
  -26.0710  -29.2770   20.8060 C   0  0  0  0  0  0  0  0  0  0  0  0
  -27.2100  -28.3500   20.8080 C   0  0  0  0  0  3  0  0  0  0  0  0
  -25.9580  -26.7380   19.5630 C   0  0  0  0  0  3  0  0  0  0  0  0
  -24.8500  -27.6260   19.5460 C   0  0  0  0  0  3  0  0  0  0  0  0
  -23.6640  -29.8000   20.2350 C   0  0  0  0  0  2  0  0  0  0  0  0
  -24.7150  -31.0530   22.1540 N   0  0  0  0  0  0  0  0  0  0  0  0
  -23.5480  -32.1860   23.7590 O   0  0  0  0  0  0  0  0  0  0  0  0
  -22.7420  -29.5010   22.5810 C   0  0  0  0  0  0  0  0  0  0  0  0
  -21.4120  -29.3370   22.4570 N   0  0  0  0  0  0  0  0  0  0  0  0
  -23.4070  -28.8830   23.4140 O   0  0  0  0  0  0  0  0  0  0  0  0
  -20.9260  -29.8870   21.7620 H   0  0  0  0  0  0  0  0  0  0  0  0
  -18.0310  -28.1200   22.9700 C   0  0  0  0  0  0  0  0  0  0  0  0
  -20.5900  -28.4040   23.2360 C   0  0  0  0  0  3  0  0  0  0  0  0
  -20.7000  -26.9660   22.6750 C   0  0  0  0  0  2  0  0  0  0  0  0
  -19.6030  -26.6280   21.6610 C   0  0  0  0  0  2  0  0  0  0  0  0
  -18.2190  -26.7680   22.3020 C   0  0  0  0  0  2  0  0  0  0  0  0
  -19.1450  -28.8940   23.3940 C   0  0  0  0  0  0  0  0  0  0  0  0
  -18.9140  -30.1570   23.9820 C   0  0  0  0  0  3  0  0  0  0  0  0
  -17.6040  -30.6470   24.1470 C   0  0  0  0  0  3  0  0  0  0  0  0
  -16.5070  -29.8710   23.7360 C   0  0  0  0  0  3  0  0  0  0  0  0
  -16.7200  -28.6090   23.1540 C   0  0  0  0  0  3  0  0  0  0  0  0
  -25.9090  -32.5370   23.8650 C   0  0  0  0  0  3  0  0  0  0  0  0
  -25.5950  -33.9390   24.1940 N   0  0  0  0  0  0  0  0  0  0  0  0
  -25.9160  -34.9970   23.4380 C   0  0  0  0  0  0  0  0  0  0  0  0
  -26.5720  -34.8960   22.3980 O   0  0  0  0  0  0  0  0  0  0  0  0
  -25.0090  -34.0910   25.0030 H   0  0  0  0  0  0  0  0  0  0  0  0
  -24.1800  -36.7940   23.1260 C   0  0  0  0  0  1  0  0  0  0  0  0
  -25.4390  -36.3870   23.9060 C   0  0  0  0  0  3  0  0  0  0  0  0
  -27.5880  -37.2810   24.6930 C   0  0  0  0  0  1  0  0  0  0  0  0
  -26.4670  -37.4430   23.7700 N   0  0  0  0  0  0  0  0  0  0  0  0
  -26.0610  -38.3620   23.9210 H   0  0  0  0  0  0  0  0  0  0  0  0
  -26.4160  -31.7780   25.1550 C   0  0  1  0  0  0  0  0  0  0  0  0
  -25.3160  -31.5570   26.2190 C   0  0  0  0  0  1  0  0  0  0  0  0
  -26.9970  -30.3940   24.7900 C   0  0  0  0  0  1  0  0  0  0  0  0
  -27.5640  -32.5770   25.8140 C   0  0  0  0  0  1  0  0  0  0  0  0
  3  6  1  0
  3  5  1  0
  4  2  1  0
  4  1  1  0
  5  7  1  0
  5  4  1  0
  6 46  1  1
  6  2  1  0
  6  1  1  0
  7 16  1  0
  8 16  1  0
  9 14  1  0
 10 11  1  0
 10  9  1  0
 12 11  1  0
 12 21  1  0
 12 13  1  0
 14  8  1  0
 14 13  1  0
 15  8  2  0
 16 17  1  0
 18 19  2  0
 19 38  1  0
 20 19  1  0
 20 23  1  0
 21 22  1  0
 21 18  1  0
 22 20  2  0
 23 24  1  0
 24 25  2  0
 26 29  1  0
 26 25  1  0
 27 26  2  0
 28 27  1  0
 28 23  2  0
 29 30  1  0
 30 31  1  0
 31 32  2  0
 33 32  1  0
 33 37  1  0
 34 33  2  0
 35 30  2  0
 35 34  1  0
 36 35  1  0
 38 39  1  0
 39 42  1  0
 39 41  1  0
 40 38  2  0
 43 44  1  0
 43 18  1  0
 45 43  1  0
 46 47  1  0
 48 59  2  0
 49 47  1  0
 49 54  1  0
 50 58  1  0
 50 60  1  0
 51 57  1  0
 51 53  1  0
 52 58  1  0
 53 54  2  0
 53 52  1  0
 55 49  2  0
 56 55  1  0
 56 51  2  0
 57 50  1  0
 58 48  1  0
 60 62  2  0
 61 60  1  0
 63 61  1  0
 64 73  2  0
 64 69  1  0
 65 61  1  0
 65 69  1  0
 66 65  1  0
 67 68  1  0
 67 66  1  0
 68 64  1  0
 69 70  2  0
 70 71  1  0
 72 71  2  0
 73 72  1  0
 74 48  1  0
 74 75  1  0
 74 84  1  0
 75 78  1  0
 76 80  1  0
 76 75  1  0
 77 76  2  0
 80 79  1  0
 82 80  1  0
 82 83  1  0
 82 81  1  0
 84 87  1  1
 84 85  1  0
 86 84  1  0
M  ISO  4   8 100  16 100  46 101  47 101
M  END
>  <TORSDO>  (97) 
F 18

>  <SCORE>  (97) 
-16.800

>  <name>  (97) 
97

>  <ligand_id>  (97) 
97

>  <original_smiles>  (97) 
[H]c1c([H])c([H])c2c(c1[H])C([H])([H])C([H])([H])C([H])([H])C2([H])N([H])C(=O)C1([H])N(C(=O)C([H])(N([H])C(=O)C([H])(N([H])C([H])([H])[H])C([H])([H])[H])C(C([H])([H])[H])(C([H])([H])[H])C([H])([H])[H])C([H])([H])c2c([H])c(OC([H])([H])C34C([H])([H])C([H])(C([H])([H])N([H])C(=O)N5C([H])([H])C([H])([H])C([H])([H])C([H])(n6nc(-c7c([H])c([H])c(Oc8c([H])c([H])c(F)c([H])c8F)c([H])c7[H])c(C(=O)N([H])[H])c6N([H])[H])C5([H])[H])C([H])(C3([H])[H])C4([H])[H])c([H])c([H])c2C1([H])[H]

>  <smiles>  (97) 
[H]c1c([H])c([H])c2c(c1[H])C([H])([H])C([H])([H])C([H])([H])C2([H])N([H])C(=O)C1([H])N(C(=O)C([H])(N([H])C(=O)C([H])(N([H])C([H])([H])[H])C([H])([H])[H])C(C([H])([H])[H])(C([H])([H])[H])C([H])([H])[H])C([H])([H])c2c([H])c(OC([H])([H])C34C([H])([H])C([H])(C([H])([H])N([H])C(=O)N5C([H])([H])C([H])([H])C([H])([H])C([H])(n6nc(-c7c([H])c([H])c(Oc8c([H])c([H])c(F)c([H])c8F)c([H])c7[H])c(C(=O)N([H])[H])c6N([H])[H])C5([H])[H])C([H])(C3([H])[H])C4([H])[H])c([H])c([H])c2C1([H])[H]

$$$$
