0:0:0
     RDKit          3D

 90 95  0  0  1  0  0  0  0  0999 V2000
  -28.8040  -21.3820   19.7790 C   0  0  0  0  0  1  0  0  0  0  0  0
  -31.4730  -19.9200   21.8910 C   0  0  0  0  0  2  0  0  0  0  0  0
  -32.1740  -19.4490   20.6290 C   0  0  0  0  0  2  0  0  0  0  0  0
  -29.9900  -19.6230   21.6400 C   0  0  0  0  0  2  0  0  0  0  0  0
  -31.1760  -19.8090   19.5330 C   0  0  0  0  0  2  0  0  0  0  0  0
  -29.7700  -19.5370   20.1100 C   0  0  0  0  0  3  0  0  0  0  0  0
  -30.4090  -16.1580   19.8700 C   0  0  0  0  0  0  0  0  0  0  0  0
  -30.5870  -13.5080   19.1140 C   0  0  0  0  0  2  0  0  0  0  0  0
  -29.7100  -12.8960   17.9740 C   0  0  0  0  0  2  0  0  0  0  0  0
  -28.3250  -12.4780   18.4850 C   0  0  0  0  0  2  0  0  0  0  0  0
  -27.7910  -13.5120   19.4940 C   0  0  0  0  0  3  0  0  0  0  0  0
  -28.8290  -14.0060   20.5390 C   0  0  0  0  0  2  0  0  0  0  0  0
  -29.9080  -14.7340   19.8000 N   0  0  0  0  0  0  0  0  0  0  0  0
  -31.6500  -16.0040   19.7700 O   0  0  0  0  0  0  0  0  0  0  0  0
  -29.6790  -17.6390   19.8690 N   0  0  0  0  0  0  0  0  0  0  0  0
  -28.6960  -17.4210   19.7760 H   0  0  0  0  0  0  0  0  0  0  0  0
  -25.4790  -14.0260   20.3770 C   0  0  0  0  0  0  0  0  0  0  0  0
  -24.4280  -13.2490   20.7670 C   0  0  0  0  0  0  0  0  0  0  0  0
  -24.8830  -11.8960   20.6900 C   0  0  0  0  0  0  0  0  0  0  0  0
  -26.5030  -13.1530   20.0720 N   0  0  0  0  0  0  0  0  0  0  0  0
  -26.1640  -11.8590   20.3240 N   0  0  0  0  0  0  0  0  0  0  0  0
  -24.1450  -10.6370   20.8830 C   0  0  0  0  0  0  0  0  0  0  0  0
  -24.5670   -9.6640   21.8150 C   0  0  0  0  0  3  0  0  0  0  0  0
  -23.8240   -8.4780   21.9990 C   0  0  0  0  0  3  0  0  0  0  0  0
  -22.6430   -8.2560   21.2510 C   0  0  0  0  0  0  0  0  0  0  0  0
  -22.2400   -9.2160   20.3060 C   0  0  0  0  0  3  0  0  0  0  0  0
  -22.9840  -10.3940   20.1190 C   0  0  0  0  0  3  0  0  0  0  0  0
  -21.8730   -7.1220   21.3450 O   0  0  0  0  0  0  0  0  0  0  0  0
  -21.7900   -6.3990   22.5090 C   0  0  0  0  0  0  0  0  0  0  0  0
  -21.2970   -6.9660   23.7040 C   0  0  0  0  0  3  0  0  0  0  0  0
  -21.1670   -6.1690   24.8590 C   0  0  0  0  0  3  0  0  0  0  0  0
  -21.5180   -4.8060   24.8190 C   0  0  0  0  0  0  0  0  0  0  0  0
  -22.0050   -4.2390   23.6270 C   0  0  0  0  0  3  0  0  0  0  0  0
  -22.1370   -5.0330   22.4750 C   0  0  0  0  0  0  0  0  0  0  0  0
  -22.5860   -4.4760   21.3250 F   0  0  0  0  0  0  0  0  0  0  0  0
  -21.3850   -4.0380   25.9260 F   0  0  0  0  0  0  0  0  0  0  0  0
  -23.0460  -13.7360   21.0880 C   0  0  0  0  0  0  0  0  0  0  0  0
  -22.3460  -13.0490   21.9820 N   0  0  0  0  0  0  0  0  0  0  0  0
  -22.5990  -14.7640   20.5810 O   0  0  0  0  0  0  0  0  0  0  0  0
  -22.7240  -12.2200   22.4150 H   0  0  0  0  0  0  0  0  0  0  0  0
  -21.4180  -13.3550   22.2380 H   0  0  0  0  0  0  0  0  0  0  0  0
  -25.6480  -15.4000   20.2190 N   0  0  0  0  0  0  0  0  0  0  0  0
  -24.8940  -16.0630   20.3610 H   0  0  0  0  0  0  0  0  0  0  0  0
  -26.4850  -15.8240   19.8420 H   0  0  0  0  0  0  0  0  0  0  0  0
  -27.4420  -20.9300   19.4440 N   0  0  0  0  0  4  0  0  0  0  0  0
  -26.9340  -20.6950   20.2790 H   0  0  0  0  0  0  0  0  0  0  0  0
  -27.4780  -20.1200   18.8530 H   0  0  0  0  0  0  0  0  0  0  0  0
  -26.9320  -21.6460   18.9590 H   0  0  0  0  0  0  0  0  0  0  0  0
  -28.4760  -23.3660   20.4350 C   0  0  0  0  0 15  0  0  0  0  0  0
  -28.3850  -25.2520   20.1800 O   0  0  0  0  0  1  0  0  0  0  0  0
  -24.7320  -31.8170   23.0770 C   0  0  0  0  0  0  0  0  0  0  0  0
  -27.3930  -26.5440   20.2110 C   0  0  0  0  0  0  0  0  0  0  0  0
  -23.6150  -30.3910   21.4210 C   0  0  0  0  0  3  0  0  0  0  0  0
  -25.1200  -28.7050   20.0750 C   0  0  0  0  0  0  0  0  0  0  0  0
  -26.2060  -30.4980   21.3920 C   0  0  0  0  0  2  0  0  0  0  0  0
  -26.3020  -29.0330   20.7480 C   0  0  0  0  0  0  0  0  0  0  0  0
  -27.4140  -27.9940   20.7670 C   0  0  0  0  0  3  0  0  0  0  0  0
  -26.1680  -26.4910   19.4800 C   0  0  0  0  0  3  0  0  0  0  0  0
  -25.1070  -27.4620   19.4150 C   0  0  0  0  0  3  0  0  0  0  0  0
  -23.9120  -29.6720   20.0700 C   0  0  0  0  0  2  0  0  0  0  0  0
  -24.8760  -30.9420   22.0150 N   0  0  0  0  0  0  0  0  0  0  0  0
  -23.6170  -32.1130   23.5450 O   0  0  0  0  0  0  0  0  0  0  0  0
  -22.8620  -29.4280   22.3820 C   0  0  0  0  0  0  0  0  0  0  0  0
  -21.5290  -29.2870   22.2400 N   0  0  0  0  0  0  0  0  0  0  0  0
  -23.4970  -28.8020   23.2340 O   0  0  0  0  0  0  0  0  0  0  0  0
  -21.0620  -29.8420   21.5360 H   0  0  0  0  0  0  0  0  0  0  0  0
  -18.1300  -28.0780   22.7160 C   0  0  0  0  0  0  0  0  0  0  0  0
  -20.6890  -28.3480   22.9970 C   0  0  0  0  0  3  0  0  0  0  0  0
  -20.7930  -26.9190   22.4150 C   0  0  0  0  0  2  0  0  0  0  0  0
  -19.6990  -26.6050   21.3870 C   0  0  0  0  0  2  0  0  0  0  0  0
  -18.3120  -26.7400   22.0210 C   0  0  0  0  0  2  0  0  0  0  0  0
  -19.2440  -28.8400   23.1600 C   0  0  0  0  0  0  0  0  0  0  0  0
  -19.0120  -30.0900   23.7750 C   0  0  0  0  0  3  0  0  0  0  0  0
  -17.7030  -30.5780   23.9480 C   0  0  0  0  0  3  0  0  0  0  0  0
  -16.6050  -29.8140   23.5170 C   0  0  0  0  0  3  0  0  0  0  0  0
  -16.8200  -28.5660   22.9060 C   0  0  0  0  0  3  0  0  0  0  0  0
  -25.9570  -32.4980   23.7590 C   0  0  0  0  0  3  0  0  0  0  0  0
  -26.4300  -31.7470   25.0660 C   0  0  1  0  0  0  0  0  0  0  0  0
  -25.2930  -31.4860   26.0840 C   0  0  0  0  0  1  0  0  0  0  0  0
  -27.0680  -30.3820   24.7260 C   0  0  0  0  0  1  0  0  0  0  0  0
  -27.5290  -32.5730   25.7740 C   0  0  0  0  0  1  0  0  0  0  0  0
  -25.5920  -33.8900   24.0990 N   0  0  0  0  0  0  0  0  0  0  0  0
  -25.9190  -34.9760   23.3840 C   0  0  0  0  0  0  0  0  0  0  0  0
  -26.6080  -34.9120   22.3650 O   0  0  0  0  0  0  0  0  0  0  0  0
  -24.9800  -34.0110   24.8920 H   0  0  0  0  0  0  0  0  0  0  0  0
  -24.1690  -36.7620   23.0530 C   0  0  0  0  0  1  0  0  0  0  0  0
  -25.4030  -36.3490   23.8700 C   0  0  0  0  0  3  0  0  0  0  0  0
  -27.5010  -37.2640   24.7680 C   0  0  0  0  0  1  0  0  0  0  0  0
  -26.4200  -37.4230   23.7980 N   0  0  0  0  0  0  0  0  0  0  0  0
  -25.9950  -38.3340   23.9430 H   0  0  0  0  0  0  0  0  0  0  0  0
  3  2  1  0
  4  2  1  0
  5  6  1  0
  5  3  1  0
  6  4  1  0
  8 13  1  0
  9 10  1  0
  9  8  1  0
 11 10  1  0
 11 20  1  0
 11 12  1  0
 13  7  1  0
 13 12  1  0
 14  7  2  0
 15  7  1  0
 15  6  1  0
 16 15  1  0
 17 18  2  0
 18 37  1  0
 19 18  1  0
 19 22  1  0
 20 21  1  0
 20 17  1  0
 21 19  2  0
 22 23  1  0
 23 24  2  0
 25 28  1  0
 25 24  1  0
 26 25  2  0
 27 26  1  0
 27 22  2  0
 28 29  1  0
 29 30  1  0
 30 31  2  0
 32 31  1  0
 32 36  1  0
 33 32  2  0
 34 29  2  0
 34 33  1  0
 35 34  1  0
 37 38  1  0
 38 41  1  0
 38 40  1  0
 39 37  2  0
 42 43  1  0
 42 17  1  0
 44 42  1  0
 45  1  1  0
 45 46  1  0
 47 45  1  0
 48 45  1  0
 50 52  1  0
 51 62  2  0
 52 57  1  0
 53 61  1  0
 53 63  1  0
 54 56  1  0
 55 61  1  0
 56 57  2  0
 56 55  1  0
 58 52  2  0
 59 58  1  0
 59 54  2  0
 60 54  1  0
 60 53  1  0
 61 51  1  0
 63 65  2  0
 64 63  1  0
 66 64  1  0
 67 76  2  0
 67 72  1  0
 68 64  1  0
 68 72  1  0
 69 68  1  0
 70 71  1  0
 70 69  1  0
 71 67  1  0
 72 73  2  0
 73 74  1  0
 75 74  2  0
 76 75  1  0
 77 51  1  0
 77 82  1  0
 77 78  1  0
 78 81  1  1
 78 79  1  0
 80 78  1  0
 82 85  1  0
 83 87  1  0
 83 82  1  0
 84 83  2  0
 87 86  1  0
 89 87  1  0
 89 90  1  0
 89 88  1  0
M  ISO  4   7 100  15 100  49 101  50 101
M  END
>  <TORSDO>  (1) 
F 19

>  <SCORE>  (1) 
-16.323

>  <name>  (1) 
0

>  <ligand_id>  (1) 
0

>  <original_smiles>  (1) 
[H]c1c([H])c([H])c2c(c1[H])C([H])([H])C([H])([H])C([H])([H])C2([H])N([H])C(=O)C1([H])N(C(=O)C([H])(N([H])C(=O)C([H])(N([H])C([H])([H])[H])C([H])([H])[H])C(C([H])([H])[H])(C([H])([H])[H])C([H])([H])[H])C([H])([H])c2c([H])c(OC([H])([H])C([H])(C3(N([H])C(=O)N4C([H])([H])C([H])([H])C([H])([H])C([H])(n5nc(-c6c([H])c([H])c(Oc7c([H])c([H])c(F)c([H])c7F)c([H])c6[H])c(C(=O)N([H])[H])c5N([H])[H])C4([H])[H])C([H])([H])C([H])([H])C([H])([H])C3([H])[H])[N+]([H])([H])[H])c([H])c([H])c2C1([H])[H]

>  <smiles>  (1) 
[H]c1c([H])c([H])c2c(c1[H])C([H])([H])C([H])([H])C([H])([H])C2([H])N([H])C(=O)C1([H])N(C(=O)C([H])(N([H])C(=O)C([H])(N([H])C([H])([H])[H])C([H])([H])[H])C(C([H])([H])[H])(C([H])([H])[H])C([H])([H])[H])C([H])([H])c2c([H])c(OC([H])([H])C([H])(C3(N([H])C(=O)N4C([H])([H])C([H])([H])C([H])([H])C([H])(n5nc(-c6c([H])c([H])c(Oc7c([H])c([H])c(F)c([H])c7F)c([H])c6[H])c(C(=O)N([H])[H])c5N([H])[H])C4([H])[H])C([H])([H])C([H])([H])C([H])([H])C3([H])[H])[N+]([H])([H])[H])c([H])c([H])c2C1([H])[H]

$$$$
1:0:0
     RDKit          3D

 92100  0  0  1  0  0  0  0  0999 V2000
  -27.3470  -21.6200   19.9010 C   0  0  0  0  0  3  0  0  0  0  0  0
  -26.7790  -24.0670   19.9160 C   0  0  0  0  0  3  0  0  0  0  0  0
  -28.9860  -23.3080   20.4590 C   0  0  0  0  0  3  0  0  0  0  0  0
  -26.4430  -22.6980   19.7210 C   0  0  0  0  0  0  0  0  0  0  0  0
  -28.6780  -21.7830   20.3340 C   0  0  0  0  0  0  0  0  0  0  0  0
  -28.0750  -24.5520   20.2320 C   0  0  0  0  0  0  0  0  0  0  0  0
  -25.0170  -22.3500   19.3350 C   0  0  0  0  0  1  0  0  0  0  0  0
  -28.2780  -26.0950   20.3170 O   0  0  0  0  0  0  0  0  0  0  0  0
  -24.7600  -32.1040   23.3740 C   0  0  0  0  0  0  0  0  0  0  0  0
  -27.2970  -27.2410   20.2740 C   0  0  0  0  0  0  0  0  0  0  0  0
  -23.5710  -30.7470   21.7020 C   0  0  0  0  0  3  0  0  0  0  0  0
  -25.0230  -29.1720   20.2460 C   0  0  0  0  0  0  0  0  0  0  0  0
  -26.1400  -30.9330   21.5860 C   0  0  0  0  0  2  0  0  0  0  0  0
  -26.2030  -29.5330   20.9070 C   0  0  0  0  0  0  0  0  0  0  0  0
  -27.3280  -28.5820   20.9130 C   0  0  0  0  0  3  0  0  0  0  0  0
  -26.1230  -27.0940   19.4980 C   0  0  0  0  0  3  0  0  0  0  0  0
  -25.0100  -27.9730   19.5200 C   0  0  0  0  0  3  0  0  0  0  0  0
  -23.8080  -30.0980   20.3100 C   0  0  0  0  0  2  0  0  0  0  0  0
  -24.8450  -31.2890   22.2730 N   0  0  0  0  0  0  0  0  0  0  0  0
  -23.6680  -32.3910   23.8930 O   0  0  0  0  0  0  0  0  0  0  0  0
  -22.8680  -29.7330   22.6400 C   0  0  0  0  0  0  0  0  0  0  0  0
  -21.5440  -29.5490   22.4800 N   0  0  0  0  0  0  0  0  0  0  0  0
  -23.5210  -29.1120   23.4820 O   0  0  0  0  0  0  0  0  0  0  0  0
  -21.0680  -30.1010   21.7800 H   0  0  0  0  0  0  0  0  0  0  0  0
  -18.1630  -28.3090   22.9280 C   0  0  0  0  0  0  0  0  0  0  0  0
  -20.7170  -28.5930   23.2260 C   0  0  0  0  0  3  0  0  0  0  0  0
  -20.8370  -27.1710   22.6300 C   0  0  0  0  0  2  0  0  0  0  0  0
  -19.7500  -26.8560   21.5970 C   0  0  0  0  0  2  0  0  0  0  0  0
  -18.3600  -26.9750   22.2270 C   0  0  0  0  0  2  0  0  0  0  0  0
  -19.2690  -29.0750   23.3830 C   0  0  0  0  0  0  0  0  0  0  0  0
  -19.0280  -30.3210   24.0020 C   0  0  0  0  0  3  0  0  0  0  0  0
  -17.7150  -30.8020   24.1670 C   0  0  0  0  0  3  0  0  0  0  0  0
  -16.6240  -30.0330   23.7250 C   0  0  0  0  0  3  0  0  0  0  0  0
  -16.8490  -28.7880   23.1120 C   0  0  0  0  0  3  0  0  0  0  0  0
  -26.0300  -32.7300   24.0260 C   0  0  0  0  0  3  0  0  0  0  0  0
  -25.7410  -34.1470   24.3150 N   0  0  0  0  0  0  0  0  0  0  0  0
  -26.0960  -35.1770   23.5360 C   0  0  0  0  0  0  0  0  0  0  0  0
  -26.7650  -35.0360   22.5090 O   0  0  0  0  0  0  0  0  0  0  0  0
  -25.1490  -34.3320   25.1100 H   0  0  0  0  0  0  0  0  0  0  0  0
  -24.4010  -37.0000   23.1530 C   0  0  0  0  0  1  0  0  0  0  0  0
  -25.6420  -36.5890   23.9630 C   0  0  0  0  0  3  0  0  0  0  0  0
  -27.7930  -37.4670   24.7640 C   0  0  0  0  0  1  0  0  0  0  0  0
  -26.6950  -37.6180   23.8120 N   0  0  0  0  0  0  0  0  0  0  0  0
  -26.3070  -38.5500   23.9240 H   0  0  0  0  0  0  0  0  0  0  0  0
  -26.4760  -31.9880   25.3470 C   0  0  1  0  0  0  0  0  0  0  0  0
  -25.3330  -31.7990   26.3710 C   0  0  0  0  0  1  0  0  0  0  0  0
  -27.0560  -30.5910   25.0310 C   0  0  0  0  0  1  0  0  0  0  0  0
  -27.6080  -32.7860   26.0370 C   0  0  0  0  0  1  0  0  0  0  0  0
  -29.4510  -20.2630   20.8150 C   0  0  0  0  0  3  0  0  0  0  0  0
  -30.7620  -20.5980   21.5530 C   0  0  0  0  0  2  0  0  0  0  0  0
  -30.5340  -21.3160   22.8230 N   0  0  0  0  0  4  0  0  0  0  0  0
  -29.9690  -22.1310   22.6700 H   0  0  0  0  0  0  0  0  0  0  0  0
  -31.4110  -21.6010   23.2200 H   0  0  0  0  0  0  0  0  0  0  0  0
  -30.0680  -20.7250   23.4890 H   0  0  0  0  0  0  0  0  0  0  0  0
  -29.7010  -18.6260   20.0580 C   0  0  0  0  0  2  0  0  0  0  0  0
  -29.7260  -17.0400   20.5500 O   0  0  0  0  0  0  0  0  0  0  0  0
  -30.6200  -15.6540   20.1990 C   0  0  0  0  0  0  0  0  0  0  0  0
  -30.5750  -13.1740   19.3420 C   0  0  0  0  0  2  0  0  0  0  0  0
  -29.6580  -13.0040   18.1020 C   0  0  0  0  0  2  0  0  0  0  0  0
  -28.2100  -12.7200   18.5360 C   0  0  0  0  0  2  0  0  0  0  0  0
  -27.7530  -13.6670   19.6760 C   0  0  0  0  0  3  0  0  0  0  0  0
  -28.7910  -13.8220   20.8070 C   0  0  0  0  0  2  0  0  0  0  0  0
  -30.0380  -14.2930   20.2000 N   0  0  0  0  0  0  0  0  0  0  0  0
  -31.8000  -15.7060   19.8310 O   0  0  0  0  0  0  0  0  0  0  0  0
  -25.3850  -14.1840   20.4540 C   0  0  0  0  0  0  0  0  0  0  0  0
  -24.3360  -13.3910   20.8230 C   0  0  0  0  0  0  0  0  0  0  0  0
  -24.8180  -12.0460   20.7740 C   0  0  0  0  0  0  0  0  0  0  0  0
  -26.4340  -13.3240   20.1880 N   0  0  0  0  0  0  0  0  0  0  0  0
  -26.1070  -12.0310   20.4510 N   0  0  0  0  0  0  0  0  0  0  0  0
  -24.1070  -10.7740   20.9580 C   0  0  0  0  0  0  0  0  0  0  0  0
  -24.5170   -9.8280   21.9220 C   0  0  0  0  0  3  0  0  0  0  0  0
  -23.8010   -8.6220   22.0940 C   0  0  0  0  0  3  0  0  0  0  0  0
  -22.6600   -8.3550   21.3010 C   0  0  0  0  0  0  0  0  0  0  0  0
  -22.2700   -9.2910   20.3250 C   0  0  0  0  0  3  0  0  0  0  0  0
  -22.9860  -10.4860   20.1530 C   0  0  0  0  0  3  0  0  0  0  0  0
  -21.9180   -7.2010   21.3780 O   0  0  0  0  0  0  0  0  0  0  0  0
  -21.7990   -6.5000   22.5520 C   0  0  0  0  0  0  0  0  0  0  0  0
  -21.2130   -7.0680   23.7040 C   0  0  0  0  0  3  0  0  0  0  0  0
  -21.0470   -6.2900   24.8670 C   0  0  0  0  0  3  0  0  0  0  0  0
  -21.4590   -4.9440   24.8780 C   0  0  0  0  0  0  0  0  0  0  0  0
  -22.0370   -4.3750   23.7300 C   0  0  0  0  0  3  0  0  0  0  0  0
  -22.2040   -5.1510   22.5690 C   0  0  0  0  0  0  0  0  0  0  0  0
  -22.7430   -4.5910   21.4590 F   0  0  0  0  0  0  0  0  0  0  0  0
  -21.2930   -4.1930   25.9920 F   0  0  0  0  0  0  0  0  0  0  0  0
  -22.9360  -13.8500   21.1070 C   0  0  0  0  0  0  0  0  0  0  0  0
  -22.2230  -13.1400   21.9730 N   0  0  0  0  0  0  0  0  0  0  0  0
  -22.4850  -14.8750   20.5970 O   0  0  0  0  0  0  0  0  0  0  0  0
  -22.6020  -12.3110   22.4070 H   0  0  0  0  0  0  0  0  0  0  0  0
  -21.2830  -13.4290   22.2070 H   0  0  0  0  0  0  0  0  0  0  0  0
  -25.5340  -15.5590   20.2940 N   0  0  0  0  0  0  0  0  0  0  0  0
  -24.7660  -16.2080   20.4320 H   0  0  0  0  0  0  0  0  0  0  0  0
  -26.3880  -16.0120   19.9920 H   0  0  0  0  0  0  0  0  0  0  0  0
  1  5  1  0
  2  6  2  0
  4  1  2  0
  4  2  1  0
  5  3  2  0
  5 49  1  0
  6  8  1  0
  6  3  1  0
  7  4  1  0
  9 20  2  0
 10  8  1  0
 10 15  1  0
 11 19  1  0
 11 21  1  0
 12 18  1  0
 12 14  1  0
 13 19  1  0
 14 15  2  0
 14 13  1  0
 16 17  1  0
 16 10  2  0
 17 12  2  0
 18 11  1  0
 19  9  1  0
 21 23  2  0
 22 21  1  0
 24 22  1  0
 25 34  2  0
 25 30  1  0
 26 22  1  0
 26 30  1  0
 27 26  1  0
 28 29  1  0
 28 27  1  0
 29 25  1  0
 30 31  2  0
 31 32  1  0
 33 32  2  0
 34 33  1  0
 35  9  1  0
 35 36  1  0
 35 45  1  0
 36 39  1  0
 37 41  1  0
 37 36  1  0
 38 37  2  0
 41 40  1  0
 43 44  1  0
 43 41  1  0
 43 42  1  0
 45 48  1  1
 45 46  1  0
 47 45  1  0
 49 55  1  0
 49 50  1  0
 50 51  1  0
 51 53  1  0
 51 54  1  0
 52 51  1  0
 55 56  1  0
 57 63  1  0
 57 56  1  0
 58 63  1  0
 59 60  1  0
 59 58  1  0
 61 60  1  0
 61 68  1  0
 61 62  1  0
 63 62  1  0
 64 57  2  0
 65 66  2  0
 66 85  1  0
 67 66  1  0
 67 70  1  0
 68 69  1  0
 68 65  1  0
 69 67  2  0
 70 71  1  0
 71 72  2  0
 73 76  1  0
 73 72  1  0
 74 73  2  0
 75 74  1  0
 75 70  2  0
 76 77  1  0
 77 82  2  0
 77 78  1  0
 78 79  2  0
 79 80  1  0
 80 84  1  0
 81 80  2  0
 82 81  1  0
 83 82  1  0
 85 86  1  0
 86 89  1  0
 86 88  1  0
 87 85  2  0
 90 91  1  0
 90 65  1  0
 92 90  1  0
M  ISO  4   6 101   8 101  56 100  57 100
M  END
>  <TORSDO>  (2) 
F 21

>  <SCORE>  (2) 
-15.019

>  <name>  (2) 
1

>  <ligand_id>  (2) 
1

>  <original_smiles>  (2) 
[H]c1c([H])c([H])c2c(c1[H])C([H])([H])C([H])([H])C([H])([H])C2([H])N([H])C(=O)C1([H])N(C(=O)C([H])(N([H])C(=O)C([H])(N([H])C([H])([H])[H])C([H])([H])[H])C(C([H])([H])[H])(C([H])([H])[H])C([H])([H])[H])C([H])([H])c2c([H])c(Oc3c([H])c(C([H])([H])[H])c([H])c(C([H])(C([H])([H])OC(=O)N4C([H])([H])C([H])([H])C([H])([H])C([H])(n5nc(-c6c([H])c([H])c(Oc7c([H])c([H])c(F)c([H])c7F)c([H])c6[H])c(C(=O)N([H])[H])c5N([H])[H])C4([H])[H])C([H])([H])[N+]([H])([H])[H])c3[H])c([H])c([H])c2C1([H])[H]

>  <smiles>  (2) 
[H]c1c([H])c([H])c2c(c1[H])C([H])([H])C([H])([H])C([H])([H])C2([H])N([H])C(=O)C1([H])N(C(=O)C([H])(N([H])C(=O)C([H])(N([H])C([H])([H])[H])C([H])([H])[H])C(C([H])([H])[H])(C([H])([H])[H])C([H])([H])[H])C([H])([H])c2c([H])c(Oc3c([H])c(C([H])([H])[H])c([H])c(C([H])(C([H])([H])OC(=O)N4C([H])([H])C([H])([H])C([H])([H])C([H])(n5nc(-c6c([H])c([H])c(Oc7c([H])c([H])c(F)c([H])c7F)c([H])c6[H])c(C(=O)N([H])[H])c5N([H])[H])C4([H])[H])C([H])([H])[N+]([H])([H])[H])c3[H])c([H])c([H])c2C1([H])[H]

$$$$
2:0:0
     RDKit          3D

 89 99  0  0  1  0  0  0  0  0999 V2000
  -28.9360  -20.6060   20.3100 C   0  0  0  0  0  0  0  0  0  0  0  0
  -29.0980  -21.8680   19.6580 N   0  0  0  0  0  0  0  0  0  0  0  0
  -28.3200  -20.6790   21.3720 O   0  0  0  0  0  0  0  0  0  0  0  0
  -29.5160  -21.8200   18.7310 H   0  0  0  0  0  0  0  0  0  0  0  0
  -30.6690  -15.0900   19.6870 C   0  0  0  0  0  0  0  0  0  0  0  0
  -30.4490  -12.7360   18.7920 C   0  0  0  0  0  2  0  0  0  0  0  0
  -29.4300  -12.6980   17.6340 C   0  0  0  0  0  2  0  0  0  0  0  0
  -28.0030  -12.5040   18.1760 C   0  0  0  0  0  2  0  0  0  0  0  0
  -27.7010  -13.4100   19.4020 C   0  0  0  0  0  3  0  0  0  0  0  0
  -28.8420  -13.4450   20.4370 C   0  0  0  0  0  2  0  0  0  0  0  0
  -30.0440  -13.8440   19.7080 N   0  0  0  0  0  0  0  0  0  0  0  0
  -31.8400  -15.0960   19.3060 O   0  0  0  0  0  0  0  0  0  0  0  0
  -28.4600  -17.7520   21.1430 C   0  0  0  0  0  2  0  0  0  0  0  0
  -30.8600  -17.1420   21.0890 C   0  0  0  0  0  2  0  0  0  0  0  0
  -29.6160  -19.0900   19.9310 C   0  0  0  0  0  3  0  0  0  0  0  0
  -29.8950  -18.3210   21.2600 C   0  0  2  0  0  0  0  0  0  0  0  0
  -29.0800  -17.4610   19.7750 C   0  0  2  0  0  0  0  0  0  0  0  0
  -30.0870  -16.3170   20.1690 N   0  0  0  0  0  0  0  0  0  0  0  0
  -25.4180  -13.9800   20.3930 C   0  0  0  0  0  0  0  0  0  0  0  0
  -24.3780  -13.2080   20.8210 C   0  0  0  0  0  0  0  0  0  0  0  0
  -24.8110  -11.8530   20.6870 C   0  0  0  0  0  0  0  0  0  0  0  0
  -26.4170  -13.1010   20.0130 N   0  0  0  0  0  0  0  0  0  0  0  0
  -26.0680  -11.8100   20.2550 N   0  0  0  0  0  0  0  0  0  0  0  0
  -24.0800  -10.5980   20.8900 C   0  0  0  0  0  0  0  0  0  0  0  0
  -24.5240   -9.6270   21.8140 C   0  0  0  0  0  3  0  0  0  0  0  0
  -23.7940   -8.4360   22.0080 C   0  0  0  0  0  3  0  0  0  0  0  0
  -22.6040   -8.2050   21.2750 C   0  0  0  0  0  0  0  0  0  0  0  0
  -22.1770   -9.1670   20.3430 C   0  0  0  0  0  3  0  0  0  0  0  0
  -22.9080  -10.3510   20.1490 C   0  0  0  0  0  3  0  0  0  0  0  0
  -21.8450   -7.0660   21.3700 O   0  0  0  0  0  0  0  0  0  0  0  0
  -21.7290   -6.3740   22.5500 C   0  0  0  0  0  0  0  0  0  0  0  0
  -21.2140   -6.9750   23.7170 C   0  0  0  0  0  3  0  0  0  0  0  0
  -21.0530   -6.2100   24.8900 C   0  0  0  0  0  3  0  0  0  0  0  0
  -21.3940   -4.8450   24.8930 C   0  0  0  0  0  0  0  0  0  0  0  0
  -21.8980   -4.2420   23.7280 C   0  0  0  0  0  3  0  0  0  0  0  0
  -22.0640   -5.0050   22.5580 C   0  0  0  0  0  0  0  0  0  0  0  0
  -22.5300   -4.4160   21.4320 F   0  0  0  0  0  0  0  0  0  0  0  0
  -21.2330   -4.1080   26.0180 F   0  0  0  0  0  0  0  0  0  0  0  0
  -23.0210  -13.6950   21.2380 C   0  0  0  0  0  0  0  0  0  0  0  0
  -22.3660  -12.9840   22.1460 N   0  0  0  0  0  0  0  0  0  0  0  0
  -22.5530  -14.7420   20.7910 O   0  0  0  0  0  0  0  0  0  0  0  0
  -22.7480  -12.1280   22.5220 H   0  0  0  0  0  0  0  0  0  0  0  0
  -21.4600  -13.3000   22.4630 H   0  0  0  0  0  0  0  0  0  0  0  0
  -25.5960  -15.3540   20.2680 N   0  0  0  0  0  0  0  0  0  0  0  0
  -24.8460  -16.0070   20.4670 H   0  0  0  0  0  0  0  0  0  0  0  0
  -26.4330  -15.7940   19.9100 H   0  0  0  0  0  0  0  0  0  0  0  0
  -29.0280  -23.3660   20.2350 C   0  0  0  0  0  3  0  0  0  0  0  0
  -28.1760  -24.7010   19.6340 C   0  0  0  0  0  3  0  0  0  0  0  0
  -28.3040  -26.2110   20.0430 O   0  0  0  0  0  0  0  0  0  0  0  0
  -24.5260  -31.7420   23.1300 C   0  0  0  0  0  0  0  0  0  0  0  0
  -27.2270  -27.1790   19.9640 C   0  0  0  0  0  0  0  0  0  0  0  0
  -23.3600  -30.3540   21.4550 C   0  0  0  0  0  3  0  0  0  0  0  0
  -24.8490  -28.8630   19.9770 C   0  0  0  0  0  0  0  0  0  0  0  0
  -25.9020  -30.6990   21.2910 C   0  0  0  0  0  2  0  0  0  0  0  0
  -26.0140  -29.3260   20.6020 C   0  0  0  0  0  0  0  0  0  0  0  0
  -27.2030  -28.4990   20.5810 C   0  0  0  0  0  3  0  0  0  0  0  0
  -26.0390  -26.8340   19.2850 C   0  0  0  0  0  3  0  0  0  0  0  0
  -24.8750  -27.6340   19.2990 C   0  0  0  0  0  3  0  0  0  0  0  0
  -23.5970  -29.7240   20.0540 C   0  0  0  0  0  2  0  0  0  0  0  0
  -24.6140  -30.9540   22.0140 N   0  0  0  0  0  0  0  0  0  0  0  0
  -23.4360  -31.9780   23.6740 O   0  0  0  0  0  0  0  0  0  0  0  0
  -22.7230  -29.3010   22.3960 C   0  0  0  0  0  0  0  0  0  0  0  0
  -21.4050  -29.0750   22.2600 N   0  0  0  0  0  0  0  0  0  0  0  0
  -23.4150  -28.6910   23.2140 O   0  0  0  0  0  0  0  0  0  0  0  0
  -20.8930  -29.6320   21.5890 H   0  0  0  0  0  0  0  0  0  0  0  0
  -18.0830  -27.7040   22.7100 C   0  0  0  0  0  0  0  0  0  0  0  0
  -20.6210  -28.0870   23.0070 C   0  0  0  0  0  3  0  0  0  0  0  0
  -20.7960  -26.6680   22.4160 C   0  0  0  0  0  2  0  0  0  0  0  0
  -19.7260  -26.3060   21.3850 C   0  0  0  0  0  2  0  0  0  0  0  0
  -18.3330  -26.3740   22.0160 C   0  0  0  0  0  2  0  0  0  0  0  0
  -19.1560  -28.5160   23.1620 C   0  0  0  0  0  0  0  0  0  0  0  0
  -18.8680  -29.7550   23.7710 C   0  0  0  0  0  3  0  0  0  0  0  0
  -17.5390  -30.1860   23.9340 C   0  0  0  0  0  3  0  0  0  0  0  0
  -16.4780  -29.3730   23.4980 C   0  0  0  0  0  3  0  0  0  0  0  0
  -16.7500  -28.1350   22.8910 C   0  0  0  0  0  3  0  0  0  0  0  0
  -25.7880  -32.4020   23.7640 C   0  0  0  0  0  3  0  0  0  0  0  0
  -25.4490  -33.7960   24.0900 N   0  0  0  0  0  0  0  0  0  0  0  0
  -25.7370  -34.8570   23.3240 C   0  0  0  0  0  0  0  0  0  0  0  0
  -26.3860  -34.7660   22.2770 O   0  0  0  0  0  0  0  0  0  0  0  0
  -24.8780  -33.9400   24.9100 H   0  0  0  0  0  0  0  0  0  0  0  0
  -23.9480  -36.6070   23.0240 C   0  0  0  0  0  1  0  0  0  0  0  0
  -25.2280  -36.2380   23.7900 C   0  0  0  0  0  3  0  0  0  0  0  0
  -27.3600  -37.2030   24.5430 C   0  0  0  0  0  1  0  0  0  0  0  0
  -26.2260  -37.3200   23.6320 N   0  0  0  0  0  0  0  0  0  0  0  0
  -25.7930  -38.2280   23.7760 H   0  0  0  0  0  0  0  0  0  0  0  0
  -26.3070  -31.6490   25.0520 C   0  0  1  0  0  0  0  0  0  0  0  0
  -25.2150  -31.3890   26.1150 C   0  0  0  0  0  1  0  0  0  0  0  0
  -26.9170  -30.2770   24.6790 C   0  0  0  0  0  1  0  0  0  0  0  0
  -27.4280  -32.4740   25.7300 C   0  0  0  0  0  1  0  0  0  0  0  0
  1  3  2  0
  2 47  1  0
  2  1  1  0
  4  2  1  0
  5 11  1  0
  5 18  1  0
  6 11  1  0
  7  8  1  0
  7  6  1  0
  9  8  1  0
  9 22  1  0
  9 10  1  0
 11 10  1  0
 12  5  2  0
 16 13  1  6
 15  1  1  0
 15 16  1  0
 16 14  1  0
 17 15  1  0
 17 18  1  0
 17 13  1  6
 17 16  1  0
 18 14  1  0
 19 20  2  0
 20 39  1  0
 21 20  1  0
 21 24  1  0
 22 23  1  0
 22 19  1  0
 23 21  2  0
 24 25  1  0
 25 26  2  0
 27 30  1  0
 27 26  1  0
 28 27  2  0
 29 28  1  0
 29 24  2  0
 30 31  1  0
 31 36  2  0
 31 32  1  0
 32 33  2  0
 33 34  1  0
 34 38  1  0
 35 34  2  0
 36 35  1  0
 37 36  1  0
 39 40  1  0
 40 43  1  0
 40 42  1  0
 41 39  2  0
 44 19  1  0
 44 45  1  0
 46 44  1  0
 48 49  1  0
 48 47  2  0
 50 61  2  0
 51 49  1  0
 51 56  1  0
 52 60  1  0
 52 62  1  0
 53 59  1  0
 53 55  1  0
 54 60  1  0
 55 54  1  0
 56 55  2  0
 57 58  1  0
 57 51  2  0
 58 53  2  0
 59 52  1  0
 60 50  1  0
 62 64  2  0
 63 62  1  0
 65 63  1  0
 66 75  2  0
 66 71  1  0
 67 63  1  0
 67 71  1  0
 68 67  1  0
 69 70  1  0
 69 68  1  0
 70 66  1  0
 71 72  2  0
 72 73  1  0
 74 73  2  0
 75 74  1  0
 76 50  1  0
 76 77  1  0
 76 86  1  0
 77 80  1  0
 78 82  1  0
 78 77  1  0
 79 78  2  0
 82 81  1  0
 84 85  1  0
 84 82  1  0
 84 83  1  0
 86 89  1  1
 86 87  1  0
 88 86  1  0
M  ISO  4   5 100  18 100  48 101  49 101
M  END
>  <TORSDO>  (3) 
F 18

>  <SCORE>  (3) 
-14.586

>  <name>  (3) 
2

>  <ligand_id>  (3) 
2

>  <original_smiles>  (3) 
[H]c1c([H])c([H])c2c(c1[H])C([H])([H])C([H])([H])C([H])([H])C2([H])N([H])C(=O)C1([H])N(C(=O)C([H])(N([H])C(=O)C([H])(N([H])C([H])([H])[H])C([H])([H])[H])C(C([H])([H])[H])(C([H])([H])[H])C([H])([H])[H])C([H])([H])c2c([H])c(OC([H])([H])C([H])([H])N([H])C(=O)C3([H])C4([H])N(C(=O)N5C([H])([H])C([H])([H])C([H])([H])C([H])(n6nc(-c7c([H])c([H])c(Oc8c([H])c([H])c(F)c([H])c8F)c([H])c7[H])c(C(=O)N([H])[H])c6N([H])[H])C5([H])[H])C([H])([H])C3([H])C4([H])[H])c([H])c([H])c2C1([H])[H]

>  <smiles>  (3) 
[H]c1c([H])c([H])c2c(c1[H])C([H])([H])C([H])([H])C([H])([H])C2([H])N([H])C(=O)C1([H])N(C(=O)C([H])(N([H])C(=O)C([H])(N([H])C([H])([H])[H])C([H])([H])[H])C(C([H])([H])[H])(C([H])([H])[H])C([H])([H])[H])C([H])([H])c2c([H])c(OC([H])([H])C([H])([H])N([H])C(=O)C3([H])C4([H])N(C(=O)N5C([H])([H])C([H])([H])C([H])([H])C([H])(n6nc(-c7c([H])c([H])c(Oc8c([H])c([H])c(F)c([H])c8F)c([H])c7[H])c(C(=O)N([H])[H])c6N([H])[H])C5([H])[H])C([H])([H])C3([H])C4([H])[H])c([H])c([H])c2C1([H])[H]

$$$$
3:0:0
     RDKit          3D

 96105  0  0  1  0  0  0  0  0999 V2000
  -28.0970  -21.2060   21.4670 C   0  0  0  0  0  2  0  0  0  0  0  0
  -28.6490  -22.6090   21.1970 C   0  0  0  0  0  3  0  0  0  0  0  0
  -29.1950  -22.0870   19.9000 C   0  0  0  0  0  3  0  0  0  0  0  0
  -28.2460  -23.4440   19.9840 C   0  0  0  0  0  3  0  0  0  0  0  0
  -28.7210  -20.5450   20.2010 C   0  0  2  0  0  0  0  0  0  0  0  0
  -27.6860  -20.1870   19.1990 N   0  0  0  0  0  4  0  0  0  0  0  0
  -27.1270  -20.9940   18.9790 H   0  0  0  0  0  0  0  0  0  0  0  0
  -27.0660  -19.4660   19.5210 H   0  0  0  0  0  0  0  0  0  0  0  0
  -28.0980  -19.8900   18.3310 H   0  0  0  0  0  0  0  0  0  0  0  0
  -28.5950  -25.0230   19.5950 C   0  0  0  0  0  2  0  0  0  0  0  0
  -28.3530  -26.4000   20.2560 O   0  0  0  0  0  0  0  0  0  0  0  0
  -24.6220  -31.9690   23.1790 C   0  0  0  0  0  0  0  0  0  0  0  0
  -27.2530  -27.3130   20.1180 C   0  0  0  0  0  0  0  0  0  0  0  0
  -23.4250  -30.5570   21.5470 C   0  0  0  0  0  3  0  0  0  0  0  0
  -24.8830  -28.9960   20.1040 C   0  0  0  0  0  0  0  0  0  0  0  0
  -25.9680  -30.8640   21.3600 C   0  0  0  0  0  2  0  0  0  0  0  0
  -26.0550  -29.4730   20.7070 C   0  0  0  0  0  0  0  0  0  0  0  0
  -27.2310  -28.6420   20.7020 C   0  0  0  0  0  3  0  0  0  0  0  0
  -26.0610  -26.9290   19.4700 C   0  0  0  0  0  3  0  0  0  0  0  0
  -24.8990  -27.7380   19.4710 C   0  0  0  0  0  3  0  0  0  0  0  0
  -23.6410  -29.8750   20.1650 C   0  0  0  0  0  2  0  0  0  0  0  0
  -24.6910  -31.1510   22.0850 N   0  0  0  0  0  0  0  0  0  0  0  0
  -23.5380  -32.2420   23.7170 O   0  0  0  0  0  0  0  0  0  0  0  0
  -22.7660  -29.5460   22.5160 C   0  0  0  0  0  0  0  0  0  0  0  0
  -21.4400  -29.3590   22.3960 N   0  0  0  0  0  0  0  0  0  0  0  0
  -23.4500  -28.9290   23.3390 O   0  0  0  0  0  0  0  0  0  0  0  0
  -20.9460  -29.9090   21.7080 H   0  0  0  0  0  0  0  0  0  0  0  0
  -18.0700  -28.1440   22.9420 C   0  0  0  0  0  0  0  0  0  0  0  0
  -20.6340  -28.4130   23.1720 C   0  0  0  0  0  3  0  0  0  0  0  0
  -20.7320  -26.9870   22.5850 C   0  0  0  0  0  2  0  0  0  0  0  0
  -19.6160  -26.6680   21.5840 C   0  0  0  0  0  2  0  0  0  0  0  0
  -18.2430  -26.8020   22.2480 C   0  0  0  0  0  2  0  0  0  0  0  0
  -19.1950  -28.9060   23.3580 C   0  0  0  0  0  0  0  0  0  0  0  0
  -18.9790  -30.1620   23.9650 C   0  0  0  0  0  3  0  0  0  0  0  0
  -17.6760  -30.6560   24.1620 C   0  0  0  0  0  3  0  0  0  0  0  0
  -16.5680  -29.8910   23.7590 C   0  0  0  0  0  3  0  0  0  0  0  0
  -16.7660  -28.6370   23.1540 C   0  0  0  0  0  3  0  0  0  0  0  0
  -25.9010  -32.6170   23.7970 C   0  0  0  0  0  3  0  0  0  0  0  0
  -25.5790  -34.0140   24.1300 N   0  0  0  0  0  0  0  0  0  0  0  0
  -25.9000  -35.0740   23.3750 C   0  0  0  0  0  0  0  0  0  0  0  0
  -26.5670  -34.9790   22.3420 O   0  0  0  0  0  0  0  0  0  0  0  0
  -24.9840  -34.1610   24.9330 H   0  0  0  0  0  0  0  0  0  0  0  0
  -24.1750  -36.8710   23.0160 C   0  0  0  0  0  1  0  0  0  0  0  0
  -25.4040  -36.4560   23.8400 C   0  0  0  0  0  3  0  0  0  0  0  0
  -27.5190  -37.3410   24.7230 C   0  0  0  0  0  1  0  0  0  0  0  0
  -26.4350  -37.5140   23.7580 N   0  0  0  0  0  0  0  0  0  0  0  0
  -26.0210  -38.4310   23.9090 H   0  0  0  0  0  0  0  0  0  0  0  0
  -26.4270  -31.8540   25.0760 C   0  0  1  0  0  0  0  0  0  0  0  0
  -25.3360  -31.6020   26.1430 C   0  0  0  0  0  1  0  0  0  0  0  0
  -27.0310  -30.4830   24.6920 C   0  0  0  0  0  1  0  0  0  0  0  0
  -27.5670  -32.6650   25.7360 C   0  0  0  0  0  1  0  0  0  0  0  0
  -29.6510  -19.1750   20.6000 C   0  0  0  0  0  2  0  0  0  0  0  0
  -29.9570  -17.7740   19.7030 C   0  0  0  0  0  0  0  0  0  0  0  0
  -30.7330  -15.1240   20.1300 C   0  0  0  0  0  0  0  0  0  0  0  0
  -30.6110  -12.7910   19.1850 C   0  0  0  0  0  2  0  0  0  0  0  0
  -29.6420  -12.7510   17.9800 C   0  0  0  0  0  2  0  0  0  0  0  0
  -28.1920  -12.5320   18.4480 C   0  0  0  0  0  2  0  0  0  0  0  0
  -27.8110  -13.4310   19.6540 C   0  0  0  0  0  3  0  0  0  0  0  0
  -28.8990  -13.4390   20.7500 C   0  0  0  0  0  2  0  0  0  0  0  0
  -30.1510  -13.8610   20.1120 N   0  0  0  0  0  0  0  0  0  0  0  0
  -31.9170  -15.2120   19.7910 O   0  0  0  0  0  0  0  0  0  0  0  0
  -29.9400  -16.2920   20.2900 N   0  0  0  0  0  4  0  0  0  0  0  0
  -29.0240  -16.0450   20.6340 H   0  0  0  0  0  0  0  0  0  0  0  0
  -25.4430  -13.9640   20.4690 C   0  0  0  0  0  0  0  0  0  0  0  0
  -24.3990  -13.1680   20.8530 C   0  0  0  0  0  0  0  0  0  0  0  0
  -24.8800  -11.8240   20.7850 C   0  0  0  0  0  0  0  0  0  0  0  0
  -26.4900  -13.1050   20.1840 N   0  0  0  0  0  0  0  0  0  0  0  0
  -26.1630  -11.8110   20.4400 N   0  0  0  0  0  0  0  0  0  0  0  0
  -24.1750  -10.5490   20.9710 C   0  0  0  0  0  0  0  0  0  0  0  0
  -24.6050   -9.5970   21.9210 C   0  0  0  0  0  3  0  0  0  0  0  0
  -23.8960   -8.3880   22.0940 C   0  0  0  0  0  3  0  0  0  0  0  0
  -22.7430   -8.1230   21.3160 C   0  0  0  0  0  0  0  0  0  0  0  0
  -22.3350   -9.0640   20.3550 C   0  0  0  0  0  3  0  0  0  0  0  0
  -23.0440  -10.2640   20.1810 C   0  0  0  0  0  3  0  0  0  0  0  0
  -22.0080   -6.9650   21.3980 O   0  0  0  0  0  0  0  0  0  0  0  0
  -21.9030   -6.2620   22.5710 C   0  0  0  0  0  0  0  0  0  0  0  0
  -21.3350   -6.8300   23.7320 C   0  0  0  0  0  3  0  0  0  0  0  0
  -21.1800   -6.0480   24.8950 C   0  0  0  0  0  3  0  0  0  0  0  0
  -21.5870   -4.7000   24.8970 C   0  0  0  0  0  0  0  0  0  0  0  0
  -22.1470   -4.1310   23.7400 C   0  0  0  0  0  3  0  0  0  0  0  0
  -22.3030   -4.9090   22.5800 C   0  0  0  0  0  0  0  0  0  0  0  0
  -22.8230   -4.3510   21.4620 F   0  0  0  0  0  0  0  0  0  0  0  0
  -21.4310   -3.9480   26.0120 F   0  0  0  0  0  0  0  0  0  0  0  0
  -23.0040  -13.6220   21.1680 C   0  0  0  0  0  0  0  0  0  0  0  0
  -22.3020  -12.8910   22.0260 N   0  0  0  0  0  0  0  0  0  0  0  0
  -22.5470  -14.6600   20.6910 O   0  0  0  0  0  0  0  0  0  0  0  0
  -22.6880  -12.0510   22.4330 H   0  0  0  0  0  0  0  0  0  0  0  0
  -21.3650  -13.1710   22.2770 H   0  0  0  0  0  0  0  0  0  0  0  0
  -25.5810  -15.3380   20.3040 N   0  0  0  0  0  0  0  0  0  0  0  0
  -24.8000  -15.9710   20.4300 H   0  0  0  0  0  0  0  0  0  0  0  0
  -26.3860  -15.7800   19.8780 H   0  0  0  0  0  0  0  0  0  0  0  0
  -31.1910  -18.0030   18.7950 C   0  0  0  0  0  2  0  0  0  0  0  0
  -32.4440  -18.0690   19.5640 N   0  0  0  0  0  4  0  0  0  0  0  0
  -32.4040  -18.7820   20.2710 H   0  0  0  0  0  0  0  0  0  0  0  0
  -33.2260  -18.2560   18.9620 H   0  0  0  0  0  0  0  0  0  0  0  0
  -32.5880  -17.1640   19.9990 H   0  0  0  0  0  0  0  0  0  0  0  0
  2  1  1  0
  3  4  1  0
  3  5  1  0
  3  2  1  0
  4  2  1  0
  5 52  1  1
  5  1  1  0
  6  8  1  0
  6  5  1  0
  7  6  1  0
  9  6  1  0
 10  4  1  0
 10 11  1  0
 12 23  2  0
 12 38  1  0
 13 11  1  0
 13 18  1  0
 14 22  1  0
 14 24  1  0
 15 21  1  0
 15 17  1  0
 16 22  1  0
 17 16  1  0
 18 17  2  0
 19 20  1  0
 19 13  2  0
 20 15  2  0
 21 14  1  0
 22 12  1  0
 24 26  2  0
 25 24  1  0
 25 29  1  0
 27 25  1  0
 28 37  2  0
 28 33  1  0
 29 33  1  0
 30 29  1  0
 31 32  1  0
 31 30  1  0
 32 28  1  0
 33 34  2  0
 34 35  1  0
 36 35  2  0
 37 36  1  0
 38 39  1  0
 38 48  1  0
 39 42  1  0
 40 44  1  0
 40 39  1  0
 41 40  2  0
 43 44  1  0
 46 44  1  0
 46 47  1  0
 46 45  1  0
 48 51  1  1
 48 49  1  0
 50 48  1  0
 53 62  2  0
 53 52  1  0
 54 62  1  0
 55 60  1  0
 56 57  1  0
 56 55  1  0
 57 58  1  0
 58 67  1  0
 58 59  1  0
 60 54  1  0
 60 59  1  0
 61 54  2  0
 62 63  1  0
 64 65  2  0
 65 84  1  0
 66 65  1  0
 66 69  1  0
 67 68  1  0
 67 64  1  0
 68 66  2  0
 69 70  1  0
 70 71  2  0
 72 75  1  0
 72 71  1  0
 73 72  2  0
 74 73  1  0
 74 69  2  0
 75 76  1  0
 76 81  2  0
 76 77  1  0
 77 78  2  0
 78 79  1  0
 79 83  1  0
 80 79  2  0
 81 80  1  0
 82 81  1  0
 84 85  1  0
 85 88  1  0
 85 87  1  0
 86 84  2  0
 89 90  1  0
 89 64  1  0
 91 89  1  0
 92 93  1  0
 92 53  1  0
 93 96  1  0
 93 94  1  0
 95 93  1  0
M  ISO  4  10 101  11 101  54 100  62 100
M  END
>  <TORSDO>  (4) 
F 22

>  <SCORE>  (4) 
-13.768

>  <name>  (4) 
3

>  <ligand_id>  (4) 
3

>  <original_smiles>  (4) 
[H]c1c([H])c([H])c2c(c1[H])C([H])([H])C([H])([H])C([H])([H])C2([H])N([H])C(=O)C1([H])N(C(=O)C([H])(N([H])C(=O)C([H])(N([H])C([H])([H])[H])C([H])([H])[H])C(C([H])([H])[H])(C([H])([H])[H])C([H])([H])[H])C([H])([H])c2c([H])c(OC([H])([H])C3([H])C4([H])C([H])([H])C(C([H])([H])C([H])(N([H])C(=O)N5C([H])([H])C([H])([H])C([H])([H])C([H])(n6nc(-c7c([H])c([H])c(Oc8c([H])c([H])c(F)c([H])c8F)c([H])c7[H])c(C(=O)N([H])[H])c6N([H])[H])C5([H])[H])C([H])([H])[N+]([H])([H])[H])([N+]([H])([H])[H])C34[H])c([H])c([H])c2C1([H])[H]

>  <smiles>  (4) 
[H]c1c([H])c([H])c2c(c1[H])C([H])([H])C([H])([H])C([H])([H])C2([H])N([H])C(=O)C1([H])N(C(=O)C([H])(N([H])C(=O)C([H])(N([H])C([H])([H])[H])C([H])([H])[H])C(C([H])([H])[H])(C([H])([H])[H])C([H])([H])[H])C([H])([H])c2c([H])c(OC([H])([H])C3([H])C4([H])C([H])([H])C(C([H])([H])C([H])(N([H])C(=O)N5C([H])([H])C([H])([H])C([H])([H])C([H])(n6nc(-c7c([H])c([H])c(Oc8c([H])c([H])c(F)c([H])c8F)c([H])c7[H])c(C(=O)N([H])[H])c6N([H])[H])C5([H])[H])C([H])([H])[N+]([H])([H])[H])([N+]([H])([H])[H])C34[H])c([H])c([H])c2C1([H])[H]

$$$$
4:0:0
     RDKit          3D

 89 98  0  0  1  0  0  0  0  0999 V2000
  -28.7320  -22.5630   21.3420 C   0  0  0  0  0  3  0  0  0  0  0  0
  -28.4210  -22.6180   19.0100 C   0  0  0  0  0  3  0  0  0  0  0  0
  -28.5480  -24.0080   21.3840 C   0  0  0  0  0  3  0  0  0  0  0  0
  -28.2370  -24.0510   19.0460 C   0  0  0  0  0  3  0  0  0  0  0  0
  -28.6940  -21.7790   20.1400 C   0  0  0  0  0  0  0  0  0  0  0  0
  -28.2870  -24.8410   20.2370 C   0  0  0  0  0  0  0  0  0  0  0  0
  -27.9460  -19.1910   20.6520 C   0  0  0  0  0  2  0  0  0  0  0  0
  -28.8580  -20.1640   19.9210 C   0  0  0  0  0  3  0  0  0  0  0  0
  -29.4240  -18.8530   20.7130 C   0  0  0  0  0  3  0  0  0  0  0  0
  -30.0320  -17.4830   20.0340 C   0  0  0  0  0  2  0  0  0  0  0  0
  -30.6200  -14.8680   20.1850 C   0  0  0  0  0  0  0  0  0  0  0  0
  -30.3990  -12.6010   19.1110 C   0  0  0  0  0  2  0  0  0  0  0  0
  -29.4250  -12.7160   17.9140 C   0  0  0  0  0  2  0  0  0  0  0  0
  -27.9610  -12.5490   18.3670 C   0  0  0  0  0  2  0  0  0  0  0  0
  -27.6440  -13.3690   19.6460 C   0  0  0  0  0  3  0  0  0  0  0  0
  -28.7370  -13.2290   20.7270 C   0  0  0  0  0  2  0  0  0  0  0  0
  -30.0060  -13.6280   20.1120 N   0  0  0  0  0  0  0  0  0  0  0  0
  -31.7790  -14.9730   19.7730 O   0  0  0  0  0  0  0  0  0  0  0  0
  -29.8570  -16.0070   20.4940 N   0  0  0  0  0  0  0  0  0  0  0  0
  -28.9400  -15.7890   20.8550 H   0  0  0  0  0  0  0  0  0  0  0  0
  -25.2880  -13.9440   20.4580 C   0  0  0  0  0  0  0  0  0  0  0  0
  -24.2290  -13.1700   20.8380 C   0  0  0  0  0  0  0  0  0  0  0  0
  -24.6830  -11.8160   20.7720 C   0  0  0  0  0  0  0  0  0  0  0  0
  -26.3180  -13.0690   20.1700 N   0  0  0  0  0  0  0  0  0  0  0  0
  -25.9650  -11.7800   20.4250 N   0  0  0  0  0  0  0  0  0  0  0  0
  -23.9550  -10.5570   20.9680 C   0  0  0  0  0  0  0  0  0  0  0  0
  -24.3930   -9.5910   21.9020 C   0  0  0  0  0  3  0  0  0  0  0  0
  -23.6650   -8.3940   22.0890 C   0  0  0  0  0  3  0  0  0  0  0  0
  -22.4870   -8.1560   21.3420 C   0  0  0  0  0  0  0  0  0  0  0  0
  -22.0650   -9.1130   20.4030 C   0  0  0  0  0  3  0  0  0  0  0  0
  -22.7910  -10.3010   20.2140 C   0  0  0  0  0  3  0  0  0  0  0  0
  -21.7330   -7.0110   21.4360 O   0  0  0  0  0  0  0  0  0  0  0  0
  -21.6700   -6.2870   22.5980 C   0  0  0  0  0  0  0  0  0  0  0  0
  -21.2300   -6.8590   23.8120 C   0  0  0  0  0  3  0  0  0  0  0  0
  -21.1140   -6.0590   24.9660 C   0  0  0  0  0  3  0  0  0  0  0  0
  -21.4240   -4.6880   24.9060 C   0  0  0  0  0  0  0  0  0  0  0  0
  -21.8540   -4.1130   23.6970 C   0  0  0  0  0  3  0  0  0  0  0  0
  -21.9730   -4.9110   22.5450 C   0  0  0  0  0  0  0  0  0  0  0  0
  -22.3700   -4.3510   21.3760 F   0  0  0  0  0  0  0  0  0  0  0  0
  -21.3050   -3.9160   26.0120 F   0  0  0  0  0  0  0  0  0  0  0  0
  -22.8410  -13.6530   21.1490 C   0  0  0  0  0  0  0  0  0  0  0  0
  -22.1350  -12.9600   22.0330 N   0  0  0  0  0  0  0  0  0  0  0  0
  -22.3960  -14.6840   20.6470 O   0  0  0  0  0  0  0  0  0  0  0  0
  -22.5110  -12.1340   22.4770 H   0  0  0  0  0  0  0  0  0  0  0  0
  -21.2030  -13.2630   22.2740 H   0  0  0  0  0  0  0  0  0  0  0  0
  -25.4460  -15.3190   20.3070 N   0  0  0  0  0  0  0  0  0  0  0  0
  -24.6840  -15.9640   20.4830 H   0  0  0  0  0  0  0  0  0  0  0  0
  -26.2840  -15.7770   19.9780 H   0  0  0  0  0  0  0  0  0  0  0  0
  -28.3100  -26.2990   20.2380 O   0  0  0  0  0  0  0  0  0  0  0  0
  -24.6010  -31.8620   23.2090 C   0  0  0  0  0  0  0  0  0  0  0  0
  -27.1990  -27.1970   20.1960 C   0  0  0  0  0  0  0  0  0  0  0  0
  -23.4040  -30.4600   21.5660 C   0  0  0  0  0  3  0  0  0  0  0  0
  -24.8590  -28.8930   20.1490 C   0  0  0  0  0  0  0  0  0  0  0  0
  -25.9520  -30.7500   21.4010 C   0  0  0  0  0  2  0  0  0  0  0  0
  -26.0300  -29.3590   20.7590 C   0  0  0  0  0  0  0  0  0  0  0  0
  -27.1990  -28.5220   20.7730 C   0  0  0  0  0  3  0  0  0  0  0  0
  -26.0090  -26.8150   19.5440 C   0  0  0  0  0  3  0  0  0  0  0  0
  -24.8580  -27.6320   19.5250 C   0  0  0  0  0  3  0  0  0  0  0  0
  -23.6290  -29.7820   20.1880 C   0  0  0  0  0  2  0  0  0  0  0  0
  -24.6700  -31.0480   22.1130 N   0  0  0  0  0  0  0  0  0  0  0  0
  -23.5170  -32.1450   23.7400 O   0  0  0  0  0  0  0  0  0  0  0  0
  -22.7340  -29.4520   22.5330 C   0  0  0  0  0  0  0  0  0  0  0  0
  -21.4070  -29.2790   22.4120 N   0  0  0  0  0  0  0  0  0  0  0  0
  -23.4130  -28.8270   23.3520 O   0  0  0  0  0  0  0  0  0  0  0  0
  -20.9190  -29.8380   21.7280 H   0  0  0  0  0  0  0  0  0  0  0  0
  -18.0310  -28.0890   22.9280 C   0  0  0  0  0  0  0  0  0  0  0  0
  -20.5920  -28.3380   23.1820 C   0  0  0  0  0  3  0  0  0  0  0  0
  -20.6850  -26.9110   22.5940 C   0  0  0  0  0  2  0  0  0  0  0  0
  -19.5750  -26.6020   21.5830 C   0  0  0  0  0  2  0  0  0  0  0  0
  -18.1970  -26.7480   22.2360 C   0  0  0  0  0  2  0  0  0  0  0  0
  -19.1550  -28.8440   23.3570 C   0  0  0  0  0  0  0  0  0  0  0  0
  -18.9410  -30.1000   23.9630 C   0  0  0  0  0  3  0  0  0  0  0  0
  -17.6390  -30.6020   24.1440 C   0  0  0  0  0  3  0  0  0  0  0  0
  -16.5300  -29.8440   23.7310 C   0  0  0  0  0  3  0  0  0  0  0  0
  -16.7270  -28.5900   23.1260 C   0  0  0  0  0  3  0  0  0  0  0  0
  -25.8810  -32.5000   23.8360 C   0  0  0  0  0  3  0  0  0  0  0  0
  -25.5600  -33.8950   24.1710 N   0  0  0  0  0  0  0  0  0  0  0  0
  -25.8810  -34.9570   23.4190 C   0  0  0  0  0  0  0  0  0  0  0  0
  -26.5420  -34.8630   22.3830 O   0  0  0  0  0  0  0  0  0  0  0  0
  -24.9710  -34.0390   24.9770 H   0  0  0  0  0  0  0  0  0  0  0  0
  -24.1320  -36.7420   23.1010 C   0  0  0  0  0  1  0  0  0  0  0  0
  -25.3870  -36.3390   23.8920 C   0  0  0  0  0  3  0  0  0  0  0  0
  -27.5250  -37.2420   24.6990 C   0  0  0  0  0  1  0  0  0  0  0  0
  -26.4100  -37.4000   23.7720 N   0  0  0  0  0  0  0  0  0  0  0  0
  -25.9960  -38.3150   23.9260 H   0  0  0  0  0  0  0  0  0  0  0  0
  -26.3940  -31.7330   25.1170 C   0  0  1  0  0  0  0  0  0  0  0  0
  -25.2970  -31.4950   26.1800 C   0  0  0  0  0  1  0  0  0  0  0  0
  -26.9840  -30.3580   24.7300 C   0  0  0  0  0  1  0  0  0  0  0  0
  -27.5330  -32.5350   25.7840 C   0  0  0  0  0  1  0  0  0  0  0  0
  1  3  1  0
  2  4  2  0
  2  5  1  0
  4  6  1  0
  5  1  2  0
  6 49  1  0
  6  3  2  0
  7  9  1  0
  8  5  1  0
  8  7  1  0
  8  9  1  0
  9 10  1  0
 10 19  1  0
 11 19  1  0
 12 17  1  0
 13 14  1  0
 13 12  1  0
 15 14  1  0
 15 24  1  0
 15 16  1  0
 17 11  1  0
 17 16  1  0
 18 11  2  0
 19 20  1  0
 21 22  2  0
 22 41  1  0
 23 22  1  0
 23 26  1  0
 24 25  1  0
 24 21  1  0
 25 23  2  0
 26 27  1  0
 27 28  2  0
 29 32  1  0
 29 28  1  0
 30 29  2  0
 31 30  1  0
 31 26  2  0
 32 33  1  0
 33 34  1  0
 34 35  2  0
 36 35  1  0
 36 40  1  0
 37 36  2  0
 38 33  2  0
 38 37  1  0
 39 38  1  0
 41 42  1  0
 42 45  1  0
 42 44  1  0
 43 41  2  0
 46 21  1  0
 46 47  1  0
 48 46  1  0
 50 61  2  0
 51 49  1  0
 51 56  1  0
 52 60  1  0
 52 62  1  0
 53 59  1  0
 53 55  1  0
 54 60  1  0
 55 56  2  0
 55 54  1  0
 57 51  2  0
 58 57  1  0
 58 53  2  0
 59 52  1  0
 60 50  1  0
 62 64  2  0
 63 62  1  0
 65 63  1  0
 66 75  2  0
 66 71  1  0
 67 63  1  0
 67 71  1  0
 68 67  1  0
 69 70  1  0
 69 68  1  0
 70 66  1  0
 71 72  2  0
 72 73  1  0
 74 73  2  0
 75 74  1  0
 76 50  1  0
 76 77  1  0
 76 86  1  0
 77 80  1  0
 78 82  1  0
 78 77  1  0
 79 78  2  0
 82 81  1  0
 84 82  1  0
 84 85  1  0
 84 83  1  0
 86 89  1  1
 86 87  1  0
 88 86  1  0
M  ISO  4   6 101  11 100  19 100  49 101
M  END
>  <TORSDO>  (5) 
F 18

>  <SCORE>  (5) 
-14.345

>  <name>  (5) 
4

>  <ligand_id>  (5) 
4

>  <original_smiles>  (5) 
[H]c1c([H])c([H])c2c(c1[H])C([H])([H])C([H])([H])C([H])([H])C2([H])N([H])C(=O)C1([H])N(C(=O)C([H])(N([H])C(=O)C([H])(N([H])C([H])([H])[H])C([H])([H])[H])C(C([H])([H])[H])(C([H])([H])[H])C([H])([H])[H])C([H])([H])c2c([H])c(Oc3c([H])c([H])c(C4([H])C([H])([H])C4([H])C([H])([H])N([H])C(=O)N4C([H])([H])C([H])([H])C([H])([H])C([H])(n5nc(-c6c([H])c([H])c(Oc7c([H])c([H])c(F)c([H])c7F)c([H])c6[H])c(C(=O)N([H])[H])c5N([H])[H])C4([H])[H])c([H])c3[H])c([H])c([H])c2C1([H])[H]

>  <smiles>  (5) 
[H]c1c([H])c([H])c2c(c1[H])C([H])([H])C([H])([H])C([H])([H])C2([H])N([H])C(=O)C1([H])N(C(=O)C([H])(N([H])C(=O)C([H])(N([H])C([H])([H])[H])C([H])([H])[H])C(C([H])([H])[H])(C([H])([H])[H])C([H])([H])[H])C([H])([H])c2c([H])c(Oc3c([H])c([H])c(C4([H])C([H])([H])C4([H])C([H])([H])N([H])C(=O)N4C([H])([H])C([H])([H])C([H])([H])C([H])(n5nc(-c6c([H])c([H])c(Oc7c([H])c([H])c(F)c([H])c7F)c([H])c6[H])c(C(=O)N([H])[H])c5N([H])[H])C4([H])[H])c([H])c3[H])c([H])c([H])c2C1([H])[H]

$$$$
5:0:0
     RDKit          3D

 88 96  0  0  1  0  0  0  0  0999 V2000
  -29.3180  -19.9940   18.6980 C   0  0  0  0  0  3  0  0  0  0  0  0
  -28.7740  -22.4660   18.6780 C   0  0  0  0  0  3  0  0  0  0  0  0
  -28.8880  -21.2130   20.7300 C   0  0  0  0  0  3  0  0  0  0  0  0
  -29.1000  -21.2360   18.0270 C   0  0  0  0  0  0  0  0  0  0  0  0
  -29.2560  -19.8370   20.0980 C   0  0  0  0  0  0  0  0  0  0  0  0
  -28.6240  -22.6020   20.0750 C   0  0  0  0  0  0  0  0  0  0  0  0
  -29.2150  -21.2450   16.5150 C   0  0  0  0  0  1  0  0  0  0  0  0
  -29.7480  -18.2580   20.7410 C   0  0  0  0  0  2  0  0  0  0  0  0
  -30.3480  -15.3310   20.3170 C   0  0  0  0  0  0  0  0  0  0  0  0
  -30.3580  -12.8740   19.4190 C   0  0  0  0  0  2  0  0  0  0  0  0
  -29.4450  -12.6140   18.1930 C   0  0  0  0  0  2  0  0  0  0  0  0
  -27.9990  -12.3280   18.6340 C   0  0  0  0  0  2  0  0  0  0  0  0
  -27.5300  -13.3010   19.7440 C   0  0  0  0  0  3  0  0  0  0  0  0
  -28.5720  -13.4830   20.8660 C   0  0  0  0  0  2  0  0  0  0  0  0
  -29.7840  -14.0200   20.2200 N   0  0  0  0  0  0  0  0  0  0  0  0
  -31.5820  -15.3100   20.1950 O   0  0  0  0  0  0  0  0  0  0  0  0
  -29.5780  -16.6180   20.3520 N   0  0  0  0  0  0  0  0  0  0  0  0
  -28.5970  -16.4000   20.2610 H   0  0  0  0  0  0  0  0  0  0  0  0
  -25.1540  -13.8510   20.4790 C   0  0  0  0  0  0  0  0  0  0  0  0
  -24.0930  -13.0720   20.8430 C   0  0  0  0  0  0  0  0  0  0  0  0
  -24.5670  -11.7240   20.8280 C   0  0  0  0  0  0  0  0  0  0  0  0
  -26.2030  -12.9800   20.2500 N   0  0  0  0  0  0  0  0  0  0  0  0
  -25.8620  -11.6940   20.5300 N   0  0  0  0  0  0  0  0  0  0  0  0
  -23.8430  -10.4600   21.0180 C   0  0  0  0  0  0  0  0  0  0  0  0
  -24.2660   -9.5000   21.9630 C   0  0  0  0  0  3  0  0  0  0  0  0
  -23.5390   -8.3030   22.1430 C   0  0  0  0  0  3  0  0  0  0  0  0
  -22.3750   -8.0580   21.3770 C   0  0  0  0  0  0  0  0  0  0  0  0
  -21.9710   -9.0070   20.4210 C   0  0  0  0  0  3  0  0  0  0  0  0
  -22.6990  -10.1940   20.2400 C   0  0  0  0  0  3  0  0  0  0  0  0
  -21.6210   -6.9140   21.4640 O   0  0  0  0  0  0  0  0  0  0  0  0
  -21.5600   -6.1790   22.6220 C   0  0  0  0  0  0  0  0  0  0  0  0
  -21.1160   -6.7410   23.8380 C   0  0  0  0  0  3  0  0  0  0  0  0
  -21.0020   -5.9330   24.9870 C   0  0  0  0  0  3  0  0  0  0  0  0
  -21.3220   -4.5640   24.9200 C   0  0  0  0  0  0  0  0  0  0  0  0
  -21.7600   -4.0010   23.7090 C   0  0  0  0  0  3  0  0  0  0  0  0
  -21.8740   -4.8060   22.5620 C   0  0  0  0  0  0  0  0  0  0  0  0
  -22.2760   -4.2550   21.3910 F   0  0  0  0  0  0  0  0  0  0  0  0
  -21.2070   -3.7850   26.0210 F   0  0  0  0  0  0  0  0  0  0  0  0
  -22.6900  -13.5450   21.0890 C   0  0  0  0  0  0  0  0  0  0  0  0
  -21.9530  -12.8530   21.9490 N   0  0  0  0  0  0  0  0  0  0  0  0
  -22.2580  -14.5650   20.5530 O   0  0  0  0  0  0  0  0  0  0  0  0
  -22.3170  -12.0270   22.4020 H   0  0  0  0  0  0  0  0  0  0  0  0
  -21.0120  -13.1530   22.1570 H   0  0  0  0  0  0  0  0  0  0  0  0
  -25.3080  -15.2220   20.2930 N   0  0  0  0  0  0  0  0  0  0  0  0
  -24.5340  -15.8680   20.3940 H   0  0  0  0  0  0  0  0  0  0  0  0
  -26.1480  -15.6660   19.9440 H   0  0  0  0  0  0  0  0  0  0  0  0
  -28.0020  -24.1590   20.6520 C   0  0  0  0  0  2  0  0  0  0  0  0
  -28.2250  -25.7680   20.2640 O   0  0  0  0  0  0  0  0  0  0  0  0
  -24.6240  -31.8220   23.1960 C   0  0  0  0  0  0  0  0  0  0  0  0
  -27.2120  -26.8810   20.2670 C   0  0  0  0  0  0  0  0  0  0  0  0
  -23.4520  -30.4120   21.5560 C   0  0  0  0  0  3  0  0  0  0  0  0
  -24.9180  -28.7860   20.1730 C   0  0  0  0  0  0  0  0  0  0  0  0
  -26.0230  -30.6120   21.4420 C   0  0  0  0  0  2  0  0  0  0  0  0
  -26.1020  -29.1910   20.8030 C   0  0  0  0  0  0  0  0  0  0  0  0
  -27.2470  -28.2630   20.8170 C   0  0  0  0  0  3  0  0  0  0  0  0
  -25.9950  -26.6370   19.5930 C   0  0  0  0  0  3  0  0  0  0  0  0
  -24.8920  -27.5300   19.5450 C   0  0  0  0  0  3  0  0  0  0  0  0
  -23.7010  -29.7140   20.1910 C   0  0  0  0  0  2  0  0  0  0  0  0
  -24.7210  -30.9770   22.1180 N   0  0  0  0  0  0  0  0  0  0  0  0
  -23.5270  -32.1160   23.7000 O   0  0  0  0  0  0  0  0  0  0  0  0
  -22.7430  -29.4260   22.5220 C   0  0  0  0  0  0  0  0  0  0  0  0
  -21.4110  -29.2750   22.3940 N   0  0  0  0  0  0  0  0  0  0  0  0
  -23.3990  -28.7980   23.3560 O   0  0  0  0  0  0  0  0  0  0  0  0
  -20.9340  -29.8330   21.7000 H   0  0  0  0  0  0  0  0  0  0  0  0
  -18.0140  -28.1040   22.9090 C   0  0  0  0  0  0  0  0  0  0  0  0
  -20.5780  -28.3460   23.1650 C   0  0  0  0  0  3  0  0  0  0  0  0
  -20.6620  -26.9130   22.5880 C   0  0  0  0  0  2  0  0  0  0  0  0
  -19.5540  -26.6040   21.5770 C   0  0  0  0  0  2  0  0  0  0  0  0
  -18.1760  -26.7580   22.2250 C   0  0  0  0  0  2  0  0  0  0  0  0
  -19.1410  -28.8570   23.3370 C   0  0  0  0  0  0  0  0  0  0  0  0
  -18.9330  -30.1160   23.9410 C   0  0  0  0  0  3  0  0  0  0  0  0
  -17.6320  -30.6230   24.1190 C   0  0  0  0  0  3  0  0  0  0  0  0
  -16.5200  -29.8700   23.7050 C   0  0  0  0  0  3  0  0  0  0  0  0
  -16.7120  -28.6120   23.1070 C   0  0  0  0  0  3  0  0  0  0  0  0
  -25.8850  -32.4720   23.8420 C   0  0  0  0  0  3  0  0  0  0  0  0
  -25.5600  -33.8750   24.1620 N   0  0  0  0  0  0  0  0  0  0  0  0
  -25.9010  -34.9330   23.4150 C   0  0  0  0  0  0  0  0  0  0  0  0
  -26.5850  -34.8320   22.3920 O   0  0  0  0  0  0  0  0  0  0  0  0
  -24.9550  -34.0260   24.9550 H   0  0  0  0  0  0  0  0  0  0  0  0
  -24.1800  -36.7340   23.0490 C   0  0  0  0  0  1  0  0  0  0  0  0
  -25.4110  -36.3220   23.8710 C   0  0  0  0  0  3  0  0  0  0  0  0
  -27.5360  -37.2100   24.7290 C   0  0  0  0  0  1  0  0  0  0  0  0
  -26.4460  -37.3770   23.7710 N   0  0  0  0  0  0  0  0  0  0  0  0
  -26.0380  -38.2970   23.9110 H   0  0  0  0  0  0  0  0  0  0  0  0
  -26.3710  -31.7210   25.1430 C   0  0  1  0  0  0  0  0  0  0  0  0
  -25.2560  -31.5020   26.1930 C   0  0  0  0  0  1  0  0  0  0  0  0
  -26.9600  -30.3350   24.7940 C   0  0  0  0  0  1  0  0  0  0  0  0
  -27.5100  -32.5230   25.8150 C   0  0  0  0  0  1  0  0  0  0  0  0
  1  5  1  0
  2  6  2  0
  4  2  1  0
  4  1  2  0
  5  3  2  0
  5  8  1  0
  6 47  1  0
  6  3  1  0
  7  4  1  0
  9 17  1  0
 10 15  1  0
 11 12  1  0
 11 10  1  0
 13 12  1  0
 13 22  1  0
 13 14  1  0
 15  9  1  0
 15 14  1  0
 16  9  2  0
 17  8  1  0
 18 17  1  0
 19 20  2  0
 20 39  1  0
 21 20  1  0
 21 24  1  0
 22 19  1  0
 22 23  1  0
 23 21  2  0
 24 25  1  0
 25 26  2  0
 27 30  1  0
 27 26  1  0
 28 27  2  0
 29 28  1  0
 29 24  2  0
 30 31  1  0
 31 32  1  0
 32 33  2  0
 34 33  1  0
 34 38  1  0
 35 34  2  0
 36 31  2  0
 36 35  1  0
 37 36  1  0
 39 40  1  0
 40 43  1  0
 40 42  1  0
 41 39  2  0
 44 45  1  0
 44 19  1  0
 46 44  1  0
 48 50  1  0
 48 47  1  0
 49 60  2  0
 50 55  1  0
 51 59  1  0
 51 61  1  0
 52 58  1  0
 52 54  1  0
 53 59  1  0
 54 55  2  0
 54 53  1  0
 56 50  2  0
 57 56  1  0
 57 52  2  0
 58 51  1  0
 59 49  1  0
 61 63  2  0
 62 61  1  0
 64 62  1  0
 65 74  2  0
 65 70  1  0
 66 62  1  0
 66 70  1  0
 67 66  1  0
 68 69  1  0
 68 67  1  0
 69 65  1  0
 70 71  2  0
 71 72  1  0
 73 72  2  0
 74 73  1  0
 75 49  1  0
 75 76  1  0
 75 85  1  0
 76 79  1  0
 77 81  1  0
 77 76  1  0
 78 77  2  0
 81 80  1  0
 83 81  1  0
 83 84  1  0
 83 82  1  0
 85 88  1  1
 85 86  1  0
 87 85  1  0
M  ISO  4   9 100  17 100  47 101  48 101
M  END
>  <TORSDO>  (6) 
F 18

>  <SCORE>  (6) 
-16.464

>  <name>  (6) 
5

>  <ligand_id>  (6) 
5

>  <original_smiles>  (6) 
[H]c1c([H])c([H])c2c(c1[H])C([H])([H])C([H])([H])C([H])([H])C2([H])N([H])C(=O)C1([H])N(C(=O)C([H])(N([H])C(=O)C([H])(N([H])C([H])([H])[H])C([H])([H])[H])C(C([H])([H])[H])(C([H])([H])[H])C([H])([H])[H])C([H])([H])c2c([H])c(OC([H])([H])c3c([H])c(C([H])([H])[H])c([H])c(C([H])([H])N([H])C(=O)N4C([H])([H])C([H])([H])C([H])([H])C([H])(n5nc(-c6c([H])c([H])c(Oc7c([H])c([H])c(F)c([H])c7F)c([H])c6[H])c(C(=O)N([H])[H])c5N([H])[H])C4([H])[H])c3[H])c([H])c([H])c2C1([H])[H]

>  <smiles>  (6) 
[H]c1c([H])c([H])c2c(c1[H])C([H])([H])C([H])([H])C([H])([H])C2([H])N([H])C(=O)C1([H])N(C(=O)C([H])(N([H])C(=O)C([H])(N([H])C([H])([H])[H])C([H])([H])[H])C(C([H])([H])[H])(C([H])([H])[H])C([H])([H])[H])C([H])([H])c2c([H])c(OC([H])([H])c3c([H])c(C([H])([H])[H])c([H])c(C([H])([H])N([H])C(=O)N4C([H])([H])C([H])([H])C([H])([H])C([H])(n5nc(-c6c([H])c([H])c(Oc7c([H])c([H])c(F)c([H])c7F)c([H])c6[H])c(C(=O)N([H])[H])c5N([H])[H])C4([H])[H])c3[H])c([H])c([H])c2C1([H])[H]

$$$$
6:0:0
     RDKit          3D

 92101  0  0  1  0  0  0  0  0999 V2000
  -30.1660  -20.0910   22.4680 C   0  0  0  0  0  3  0  0  0  0  0  0
  -30.2590  -18.8170   21.8590 C   0  0  0  0  0  3  0  0  0  0  0  0
  -29.5390  -19.8330   19.7730 C   0  0  0  0  0  3  0  0  0  0  0  0
  -29.4240  -21.1480   20.3770 C   0  0  0  0  0  0  0  0  0  0  0  0
  -29.7790  -21.2490   21.7450 C   0  0  0  0  0  0  0  0  0  0  0  0
  -29.9740  -18.6490   20.4880 C   0  0  0  0  0  0  0  0  0  0  0  0
  -28.9880  -22.4290   19.6150 C   0  0  0  0  0  0  0  0  0  0  0  0
  -29.7620  -22.5970   22.4670 C   0  0  0  0  0  2  0  0  0  0  0  0
  -29.8200  -23.8420   21.5430 C   0  0  0  0  0  2  0  0  0  0  0  0
  -28.7800  -23.8050   20.4020 C   0  0  0  0  0  3  0  0  0  0  0  0
  -28.7880  -22.4110   18.3980 O   0  0  0  0  0  0  0  0  0  0  0  0
  -30.2800  -17.2660   19.7810 C   0  0  0  0  0  2  0  0  0  0  0  0
  -30.8560  -14.7840   20.2180 C   0  0  0  0  0  0  0  0  0  0  0  0
  -30.6230  -12.5170   19.2290 C   0  0  0  0  0  2  0  0  0  0  0  0
  -29.6690  -12.6340   18.0190 C   0  0  0  0  0  2  0  0  0  0  0  0
  -28.2090  -12.4590   18.4780 C   0  0  0  0  0  2  0  0  0  0  0  0
  -27.8620  -13.3340   19.7140 C   0  0  0  0  0  3  0  0  0  0  0  0
  -28.9410  -13.2230   20.8150 C   0  0  0  0  0  2  0  0  0  0  0  0
  -30.2310  -13.5610   20.2020 N   0  0  0  0  0  0  0  0  0  0  0  0
  -32.0150  -14.8900   19.8070 O   0  0  0  0  0  0  0  0  0  0  0  0
  -30.0970  -15.9130   20.4470 N   0  0  0  0  0  0  0  0  0  0  0  0
  -29.1860  -15.7500   20.8470 H   0  0  0  0  0  0  0  0  0  0  0  0
  -25.4860  -13.9130   20.4930 C   0  0  0  0  0  0  0  0  0  0  0  0
  -24.4270  -13.1320   20.8720 C   0  0  0  0  0  0  0  0  0  0  0  0
  -24.8890  -11.7820   20.8040 C   0  0  0  0  0  0  0  0  0  0  0  0
  -26.5260  -13.0380   20.2210 N   0  0  0  0  0  0  0  0  0  0  0  0
  -26.1730  -11.7500   20.4680 N   0  0  0  0  0  0  0  0  0  0  0  0
  -24.1650  -10.5150   20.9800 C   0  0  0  0  0  0  0  0  0  0  0  0
  -24.5810   -9.5510   21.9260 C   0  0  0  0  0  3  0  0  0  0  0  0
  -23.8550   -8.3520   22.0930 C   0  0  0  0  0  3  0  0  0  0  0  0
  -22.7000   -8.1060   21.3120 C   0  0  0  0  0  0  0  0  0  0  0  0
  -22.3040   -9.0580   20.3560 C   0  0  0  0  0  3  0  0  0  0  0  0
  -23.0310  -10.2480   20.1880 C   0  0  0  0  0  3  0  0  0  0  0  0
  -21.9470   -6.9590   21.3870 O   0  0  0  0  0  0  0  0  0  0  0  0
  -21.8280   -6.2510   22.5570 C   0  0  0  0  0  0  0  0  0  0  0  0
  -21.2700   -6.8230   23.7210 C   0  0  0  0  0  3  0  0  0  0  0  0
  -21.1020   -6.0400   24.8800 C   0  0  0  0  0  3  0  0  0  0  0  0
  -21.4850   -4.6850   24.8760 C   0  0  0  0  0  0  0  0  0  0  0  0
  -22.0380   -4.1130   23.7170 C   0  0  0  0  0  3  0  0  0  0  0  0
  -22.2060   -4.8940   22.5600 C   0  0  0  0  0  0  0  0  0  0  0  0
  -22.7190   -4.3310   21.4390 F   0  0  0  0  0  0  0  0  0  0  0  0
  -21.3190   -3.9300   25.9870 F   0  0  0  0  0  0  0  0  0  0  0  0
  -23.0360  -13.6040   21.1850 C   0  0  0  0  0  0  0  0  0  0  0  0
  -22.3250  -12.8890   22.0510 N   0  0  0  0  0  0  0  0  0  0  0  0
  -22.5900  -14.6400   20.6940 O   0  0  0  0  0  0  0  0  0  0  0  0
  -22.6980  -12.0480   22.4670 H   0  0  0  0  0  0  0  0  0  0  0  0
  -21.3950  -13.1910   22.3060 H   0  0  0  0  0  0  0  0  0  0  0  0
  -25.6440  -15.2860   20.3370 N   0  0  0  0  0  0  0  0  0  0  0  0
  -24.8720  -15.9320   20.4660 H   0  0  0  0  0  0  0  0  0  0  0  0
  -26.4800  -15.7340   19.9840 H   0  0  0  0  0  0  0  0  0  0  0  0
  -28.7210  -25.1740   19.5330 C   0  0  0  0  0  2  0  0  0  0  0  0
  -28.5590  -26.5380   20.1400 O   0  0  0  0  0  0  0  0  0  0  0  0
  -24.6770  -31.8660   23.1310 C   0  0  0  0  0  0  0  0  0  0  0  0
  -27.4070  -27.3520   20.0520 C   0  0  0  0  0  0  0  0  0  0  0  0
  -23.5210  -30.4780   21.4470 C   0  0  0  0  0  3  0  0  0  0  0  0
  -25.0160  -28.9560   20.0280 C   0  0  0  0  0  0  0  0  0  0  0  0
  -26.0650  -30.8140   21.3250 C   0  0  0  0  0  2  0  0  0  0  0  0
  -26.1710  -29.4480   20.6480 C   0  0  0  0  0  0  0  0  0  0  0  0
  -27.3650  -28.6580   20.6440 C   0  0  0  0  0  3  0  0  0  0  0  0
  -26.2200  -26.9130   19.4210 C   0  0  0  0  0  3  0  0  0  0  0  0
  -25.0440  -27.6940   19.4100 C   0  0  0  0  0  3  0  0  0  0  0  0
  -23.7730  -29.8240   20.0620 C   0  0  0  0  0  2  0  0  0  0  0  0
  -24.7710  -31.0720   22.0230 N   0  0  0  0  0  0  0  0  0  0  0  0
  -23.5790  -32.1240   23.6490 O   0  0  0  0  0  0  0  0  0  0  0  0
  -22.8480  -29.4450   22.3800 C   0  0  0  0  0  0  0  0  0  0  0  0
  -21.5190  -29.2830   22.2490 N   0  0  0  0  0  0  0  0  0  0  0  0
  -23.5190  -28.7930   23.1840 O   0  0  0  0  0  0  0  0  0  0  0  0
  -21.0340  -29.8500   21.5680 H   0  0  0  0  0  0  0  0  0  0  0  0
  -18.1210  -28.1570   22.7770 C   0  0  0  0  0  0  0  0  0  0  0  0
  -20.6920  -28.3330   22.9970 C   0  0  0  0  0  3  0  0  0  0  0  0
  -20.7420  -26.9280   22.3530 C   0  0  0  0  0  2  0  0  0  0  0  0
  -19.6100  -26.6850   21.3530 C   0  0  0  0  0  2  0  0  0  0  0  0
  -18.2460  -26.8380   22.0340 C   0  0  0  0  0  2  0  0  0  0  0  0
  -19.2710  -28.8680   23.2150 C   0  0  0  0  0  0  0  0  0  0  0  0
  -19.1010  -30.1060   23.8700 C   0  0  0  0  0  3  0  0  0  0  0  0
  -17.8140  -30.6330   24.0920 C   0  0  0  0  0  3  0  0  0  0  0  0
  -16.6800  -29.9180   23.6710 C   0  0  0  0  0  3  0  0  0  0  0  0
  -16.8340  -28.6810   23.0200 C   0  0  0  0  0  3  0  0  0  0  0  0
  -25.9420  -32.5050   23.7830 C   0  0  0  0  0  3  0  0  0  0  0  0
  -25.6000  -33.8860   24.1560 N   0  0  0  0  0  0  0  0  0  0  0  0
  -25.9190  -34.9720   23.4400 C   0  0  0  0  0  0  0  0  0  0  0  0
  -26.6040  -34.9200   22.4140 O   0  0  0  0  0  0  0  0  0  0  0  0
  -24.9960  -34.0010   24.9560 H   0  0  0  0  0  0  0  0  0  0  0  0
  -24.1810  -36.7590   23.1090 C   0  0  0  0  0  1  0  0  0  0  0  0
  -25.4000  -36.3340   23.9420 C   0  0  0  0  0  3  0  0  0  0  0  0
  -27.4850  -37.2150   24.8910 C   0  0  0  0  0  1  0  0  0  0  0  0
  -26.4200  -37.4040   23.9100 N   0  0  0  0  0  0  0  0  0  0  0  0
  -25.9950  -38.3120   24.0760 H   0  0  0  0  0  0  0  0  0  0  0  0
  -26.4620  -31.7070   25.0430 C   0  0  1  0  0  0  0  0  0  0  0  0
  -25.3610  -31.4050   26.0850 C   0  0  0  0  0  1  0  0  0  0  0  0
  -27.0830  -30.3570   24.6200 C   0  0  0  0  0  1  0  0  0  0  0  0
  -27.5770  -32.5090   25.7510 C   0  0  0  0  0  1  0  0  0  0  0  0
  2  1  1  0
  3  4  2  0
  3  6  1  0
  4  5  1  0
  5  8  1  0
  5  1  2  0
  6  2  2  0
  7  4  1  0
  7 10  1  0
  9  8  1  0
 10 51  1  0
 10  9  1  0
 11  7  2  0
 12 21  1  0
 12  6  1  0
 13 21  1  0
 14 19  1  0
 15 16  1  0
 15 14  1  0
 17 16  1  0
 17 26  1  0
 17 18  1  0
 19 13  1  0
 19 18  1  0
 20 13  2  0
 21 22  1  0
 23 24  2  0
 24 43  1  0
 25 24  1  0
 25 28  1  0
 26 27  1  0
 26 23  1  0
 27 25  2  0
 28 29  1  0
 29 30  2  0
 31 34  1  0
 31 30  1  0
 32 31  2  0
 33 32  1  0
 33 28  2  0
 34 35  1  0
 35 40  2  0
 35 36  1  0
 36 37  2  0
 38 37  1  0
 38 42  1  0
 39 38  2  0
 40 39  1  0
 41 40  1  0
 43 44  1  0
 44 47  1  0
 44 46  1  0
 45 43  2  0
 48 49  1  0
 48 23  1  0
 50 48  1  0
 51 52  1  0
 53 64  2  0
 54 52  1  0
 54 59  1  0
 55 63  1  0
 55 65  1  0
 56 62  1  0
 56 58  1  0
 57 63  1  0
 58 57  1  0
 59 58  2  0
 60 54  2  0
 61 60  1  0
 61 56  2  0
 62 55  1  0
 63 53  1  0
 65 67  2  0
 66 65  1  0
 68 66  1  0
 69 78  2  0
 69 74  1  0
 70 66  1  0
 70 74  1  0
 71 70  1  0
 72 73  1  0
 72 71  1  0
 73 69  1  0
 74 75  2  0
 75 76  1  0
 77 76  2  0
 78 77  1  0
 79 53  1  0
 79 80  1  0
 79 89  1  0
 80 83  1  0
 81 85  1  0
 81 80  1  0
 82 81  2  0
 85 84  1  0
 87 85  1  0
 87 88  1  0
 87 86  1  0
 89 92  1  1
 89 90  1  0
 91 89  1  0
M  ISO  4  13 100  21 100  51 101  52 101
M  END
>  <TORSDO>  (7) 
F 18

>  <SCORE>  (7) 
-14.031

>  <name>  (7) 
6

>  <ligand_id>  (7) 
6

>  <original_smiles>  (7) 
[H]c1c([H])c([H])c2c(c1[H])C([H])([H])C([H])([H])C([H])([H])C2([H])N([H])C(=O)C1([H])N(C(=O)C([H])(N([H])C(=O)C([H])(N([H])C([H])([H])[H])C([H])([H])[H])C(C([H])([H])[H])(C([H])([H])[H])C([H])([H])[H])C([H])([H])c2c([H])c(OC([H])([H])C3([H])C(=O)c4c([H])c(C([H])([H])N([H])C(=O)N5C([H])([H])C([H])([H])C([H])([H])C([H])(n6nc(-c7c([H])c([H])c(Oc8c([H])c([H])c(F)c([H])c8F)c([H])c7[H])c(C(=O)N([H])[H])c6N([H])[H])C5([H])[H])c([H])c([H])c4C([H])([H])C3([H])[H])c([H])c([H])c2C1([H])[H]

>  <smiles>  (7) 
[H]c1c([H])c([H])c2c(c1[H])C([H])([H])C([H])([H])C([H])([H])C2([H])N([H])C(=O)C1([H])N(C(=O)C([H])(N([H])C(=O)C([H])(N([H])C([H])([H])[H])C([H])([H])[H])C(C([H])([H])[H])(C([H])([H])[H])C([H])([H])[H])C([H])([H])c2c([H])c(OC([H])([H])C3([H])C(=O)c4c([H])c(C([H])([H])N([H])C(=O)N5C([H])([H])C([H])([H])C([H])([H])C([H])(n6nc(-c7c([H])c([H])c(Oc8c([H])c([H])c(F)c([H])c8F)c([H])c7[H])c(C(=O)N([H])[H])c6N([H])[H])C5([H])[H])c([H])c([H])c4C([H])([H])C3([H])[H])c([H])c([H])c2C1([H])[H]

$$$$
7:0:0
     RDKit          3D

 90 99  0  0  1  0  0  0  0  0999 V2000
  -31.0940  -23.9920   20.0470 C   0  0  0  0  0  2  0  0  0  0  0  0
  -29.9970  -24.1810   19.0010 C   0  0  0  0  0  2  0  0  0  0  0  0
  -30.0850  -21.7550   21.0420 C   0  0  0  0  0  2  0  0  0  0  0  0
  -28.1430  -22.4510   19.7620 C   0  0  0  0  0  2  0  0  0  0  0  0
  -30.0760  -23.2920   20.9450 C   0  0  0  0  0  3  0  0  0  0  0  0
  -29.1400  -21.2110   19.9550 C   0  0  0  0  0  3  0  0  0  0  0  0
  -28.9240  -23.7970   20.0500 C   0  0  1  0  0  0  0  0  0  0  0  0
  -28.5900  -19.7280   20.2380 C   0  0  0  0  0  2  0  0  0  0  0  0
  -29.5650  -18.4940   20.6180 C   0  0  0  0  0  2  0  0  0  0  0  0
  -29.6040  -17.1520   19.7410 C   0  0  0  0  0  2  0  0  0  0  0  0
  -30.5060  -14.7320   20.3130 C   0  0  0  0  0  0  0  0  0  0  0  0
  -30.3670  -12.4410   19.3710 C   0  0  0  0  0  2  0  0  0  0  0  0
  -29.4160  -12.5140   18.1570 C   0  0  0  0  0  2  0  0  0  0  0  0
  -27.9420  -12.3610   18.5820 C   0  0  0  0  0  2  0  0  0  0  0  0
  -27.5790  -13.2310   19.8140 C   0  0  0  0  0  3  0  0  0  0  0  0
  -28.6500  -13.1290   20.9250 C   0  0  0  0  0  2  0  0  0  0  0  0
  -29.9420  -13.4810   20.3270 N   0  0  0  0  0  0  0  0  0  0  0  0
  -31.6810  -14.8890   19.9650 O   0  0  0  0  0  0  0  0  0  0  0  0
  -29.6320  -15.7920   20.4230 N   0  0  0  0  0  0  0  0  0  0  0  0
  -28.7180  -15.5010   20.7360 H   0  0  0  0  0  0  0  0  0  0  0  0
  -25.2060  -13.8430   20.5730 C   0  0  0  0  0  0  0  0  0  0  0  0
  -24.1410  -13.0760   20.9530 C   0  0  0  0  0  0  0  0  0  0  0  0
  -24.5930  -11.7220   20.9090 C   0  0  0  0  0  0  0  0  0  0  0  0
  -26.2390  -12.9560   20.3170 N   0  0  0  0  0  0  0  0  0  0  0  0
  -25.8780  -11.6740   20.5860 N   0  0  0  0  0  0  0  0  0  0  0  0
  -23.8620  -10.4650   21.1050 C   0  0  0  0  0  0  0  0  0  0  0  0
  -24.3210   -9.4830   22.0090 C   0  0  0  0  0  3  0  0  0  0  0  0
  -23.5960   -8.2860   22.1920 C   0  0  0  0  0  3  0  0  0  0  0  0
  -22.3960   -8.0670   21.4790 C   0  0  0  0  0  0  0  0  0  0  0  0
  -21.9570   -9.0370   20.5640 C   0  0  0  0  0  3  0  0  0  0  0  0
  -22.6810  -10.2250   20.3760 C   0  0  0  0  0  3  0  0  0  0  0  0
  -21.6380   -6.9240   21.5740 O   0  0  0  0  0  0  0  0  0  0  0  0
  -21.6440   -6.1470   22.7020 C   0  0  0  0  0  0  0  0  0  0  0  0
  -21.3110   -6.6690   23.9700 C   0  0  0  0  0  3  0  0  0  0  0  0
  -21.2680   -5.8190   25.0920 C   0  0  0  0  0  3  0  0  0  0  0  0
  -21.5410   -4.4460   24.9480 C   0  0  0  0  0  0  0  0  0  0  0  0
  -21.8640   -3.9230   23.6840 C   0  0  0  0  0  3  0  0  0  0  0  0
  -21.9130   -4.7700   22.5650 C   0  0  0  0  0  0  0  0  0  0  0  0
  -22.2040   -4.2560   21.3450 F   0  0  0  0  0  0  0  0  0  0  0  0
  -21.4890   -3.6260   26.0240 F   0  0  0  0  0  0  0  0  0  0  0  0
  -22.7510  -13.5590   21.2390 C   0  0  0  0  0  0  0  0  0  0  0  0
  -22.0280  -12.8710   22.1130 N   0  0  0  0  0  0  0  0  0  0  0  0
  -22.3140  -14.5880   20.7220 O   0  0  0  0  0  0  0  0  0  0  0  0
  -22.3850  -12.0370   22.5550 H   0  0  0  0  0  0  0  0  0  0  0  0
  -21.0950  -13.1840   22.3410 H   0  0  0  0  0  0  0  0  0  0  0  0
  -25.3800  -15.2160   20.3960 N   0  0  0  0  0  0  0  0  0  0  0  0
  -24.6120  -15.8710   20.4950 H   0  0  0  0  0  0  0  0  0  0  0  0
  -26.2220  -15.6550   20.0510 H   0  0  0  0  0  0  0  0  0  0  0  0
  -28.0330  -25.0160   20.5890 C   0  0  0  0  0  2  0  0  0  0  0  0
  -28.3040  -26.4280   20.1910 O   0  0  0  0  0  0  0  0  0  0  0  0
  -24.6280  -31.8810   23.2210 C   0  0  0  0  0  0  0  0  0  0  0  0
  -27.2100  -27.3060   20.1650 C   0  0  0  0  0  0  0  0  0  0  0  0
  -23.4140  -30.4770   21.5940 C   0  0  0  0  0  3  0  0  0  0  0  0
  -24.8530  -28.9220   20.1650 C   0  0  0  0  0  0  0  0  0  0  0  0
  -25.9520  -30.7940   21.3920 C   0  0  0  0  0  2  0  0  0  0  0  0
  -26.0250  -29.4100   20.7550 C   0  0  0  0  0  0  0  0  0  0  0  0
  -27.2120  -28.6130   20.7450 C   0  0  0  0  0  3  0  0  0  0  0  0
  -26.0190  -26.8850   19.5320 C   0  0  0  0  0  3  0  0  0  0  0  0
  -24.8510  -27.6650   19.5450 C   0  0  0  0  0  3  0  0  0  0  0  0
  -23.6170  -29.7960   20.2160 C   0  0  0  0  0  2  0  0  0  0  0  0
  -24.6840  -31.0670   22.1260 N   0  0  0  0  0  0  0  0  0  0  0  0
  -23.5480  -32.1600   23.7630 O   0  0  0  0  0  0  0  0  0  0  0  0
  -22.7550  -29.4650   22.5620 C   0  0  0  0  0  0  0  0  0  0  0  0
  -21.4280  -29.2910   22.4450 N   0  0  0  0  0  0  0  0  0  0  0  0
  -23.4390  -28.8390   23.3770 O   0  0  0  0  0  0  0  0  0  0  0  0
  -20.9380  -29.8460   21.7580 H   0  0  0  0  0  0  0  0  0  0  0  0
  -18.0530  -28.0960   22.9620 C   0  0  0  0  0  0  0  0  0  0  0  0
  -20.6120  -28.3590   23.2240 C   0  0  0  0  0  3  0  0  0  0  0  0
  -20.7140  -26.9240   22.6570 C   0  0  0  0  0  2  0  0  0  0  0  0
  -19.6090  -26.5930   21.6480 C   0  0  0  0  0  2  0  0  0  0  0  0
  -18.2300  -26.7420   22.2950 C   0  0  0  0  0  2  0  0  0  0  0  0
  -19.1730  -28.8610   23.3850 C   0  0  0  0  0  0  0  0  0  0  0  0
  -18.9540  -30.1270   23.9700 C   0  0  0  0  0  3  0  0  0  0  0  0
  -17.6480  -30.6290   24.1360 C   0  0  0  0  0  3  0  0  0  0  0  0
  -16.5440  -29.8600   23.7280 C   0  0  0  0  0  3  0  0  0  0  0  0
  -16.7470  -28.5950   23.1480 C   0  0  0  0  0  3  0  0  0  0  0  0
  -25.9140  -32.5150   23.8340 C   0  0  0  0  0  3  0  0  0  0  0  0
  -26.4450  -31.7360   25.0970 C   0  0  1  0  0  0  0  0  0  0  0  0
  -25.3660  -31.4890   26.1770 C   0  0  0  0  0  1  0  0  0  0  0  0
  -27.0260  -30.3620   24.6890 C   0  0  0  0  0  1  0  0  0  0  0  0
  -27.6060  -32.5240   25.7470 C   0  0  0  0  0  1  0  0  0  0  0  0
  -25.6030  -33.9100   24.1790 N   0  0  0  0  0  0  0  0  0  0  0  0
  -25.9240  -34.9710   23.4280 C   0  0  0  0  0  0  0  0  0  0  0  0
  -26.5810  -34.8780   22.3870 O   0  0  0  0  0  0  0  0  0  0  0  0
  -25.0180  -34.0550   24.9880 H   0  0  0  0  0  0  0  0  0  0  0  0
  -24.1820  -36.7570   23.1130 C   0  0  0  0  0  1  0  0  0  0  0  0
  -25.4380  -36.3530   23.9030 C   0  0  0  0  0  3  0  0  0  0  0  0
  -27.5850  -37.2370   24.7000 C   0  0  0  0  0  1  0  0  0  0  0  0
  -26.4630  -37.4120   23.7820 N   0  0  0  0  0  0  0  0  0  0  0  0
  -26.0580  -38.3280   23.9500 H   0  0  0  0  0  0  0  0  0  0  0  0
  2  1  1  0
  2  7  1  0
  4  6  1  0
  4  7  1  0
  5  1  1  0
  5  3  1  0
  6  8  1  0
  6  3  1  0
  7 49  1  1
  7  5  1  0
  8  9  1  0
 10 19  1  0
 10  9  1  0
 11 17  1  0
 11 19  1  0
 12 17  1  0
 13 14  1  0
 13 12  1  0
 15 14  1  0
 15 24  1  0
 15 16  1  0
 17 16  1  0
 18 11  2  0
 19 20  1  0
 21 22  2  0
 22 41  1  0
 23 22  1  0
 23 26  1  0
 24 21  1  0
 24 25  1  0
 25 23  2  0
 26 27  1  0
 27 28  2  0
 29 32  1  0
 29 28  1  0
 30 29  2  0
 31 30  1  0
 31 26  2  0
 32 33  1  0
 33 34  1  0
 34 35  2  0
 36 35  1  0
 36 40  1  0
 37 36  2  0
 38 33  2  0
 38 37  1  0
 39 38  1  0
 41 42  1  0
 42 45  1  0
 42 44  1  0
 43 41  2  0
 46 47  1  0
 46 21  1  0
 48 46  1  0
 50 49  1  0
 51 62  2  0
 52 50  1  0
 52 57  1  0
 53 61  1  0
 53 63  1  0
 54 60  1  0
 54 56  1  0
 55 61  1  0
 56 55  1  0
 57 56  2  0
 58 59  1  0
 58 52  2  0
 59 54  2  0
 60 53  1  0
 61 51  1  0
 63 65  2  0
 64 63  1  0
 66 64  1  0
 67 76  2  0
 67 72  1  0
 68 64  1  0
 68 72  1  0
 69 68  1  0
 70 71  1  0
 70 69  1  0
 71 67  1  0
 72 73  2  0
 73 74  1  0
 75 74  2  0
 76 75  1  0
 77 51  1  0
 77 82  1  0
 77 78  1  0
 78 81  1  1
 78 79  1  0
 80 78  1  0
 82 85  1  0
 83 87  1  0
 83 82  1  0
 84 83  2  0
 87 86  1  0
 89 87  1  0
 89 90  1  0
 89 88  1  0
M  ISO  4  11 100  19 100  49 101  50 101
M  END
>  <TORSDO>  (8) 
F 20

>  <SCORE>  (8) 
-13.763

>  <name>  (8) 
7

>  <ligand_id>  (8) 
7

>  <original_smiles>  (8) 
[H]c1c([H])c([H])c2c(c1[H])C([H])([H])C([H])([H])C([H])([H])C2([H])N([H])C(=O)C1([H])N(C(=O)C([H])(N([H])C(=O)C([H])(N([H])C([H])([H])[H])C([H])([H])[H])C(C([H])([H])[H])(C([H])([H])[H])C([H])([H])[H])C([H])([H])c2c([H])c(OC([H])([H])C34C([H])([H])C([H])([H])C3([H])C([H])([H])C([H])(C([H])([H])C([H])([H])C([H])([H])N([H])C(=O)N3C([H])([H])C([H])([H])C([H])([H])C([H])(n5nc(-c6c([H])c([H])c(Oc7c([H])c([H])c(F)c([H])c7F)c([H])c6[H])c(C(=O)N([H])[H])c5N([H])[H])C3([H])[H])C4([H])[H])c([H])c([H])c2C1([H])[H]

>  <smiles>  (8) 
[H]c1c([H])c([H])c2c(c1[H])C([H])([H])C([H])([H])C([H])([H])C2([H])N([H])C(=O)C1([H])N(C(=O)C([H])(N([H])C(=O)C([H])(N([H])C([H])([H])[H])C([H])([H])[H])C(C([H])([H])[H])(C([H])([H])[H])C([H])([H])[H])C([H])([H])c2c([H])c(OC([H])([H])C34C([H])([H])C([H])([H])C3([H])C([H])([H])C([H])(C([H])([H])C([H])([H])C([H])([H])N([H])C(=O)N3C([H])([H])C([H])([H])C([H])([H])C([H])(n5nc(-c6c([H])c([H])c(Oc7c([H])c([H])c(F)c([H])c7F)c([H])c6[H])c(C(=O)N([H])[H])c5N([H])[H])C3([H])[H])C4([H])[H])c([H])c([H])c2C1([H])[H]

$$$$
8:0:0
     RDKit          3D

 91100  0  0  1  0  0  0  0  0999 V2000
  -28.1640  -18.8290   20.7380 C   0  0  0  0  0  2  0  0  0  0  0  0
  -27.6480  -20.2620   20.3760 C   0  0  0  0  0  2  0  0  0  0  0  0
  -30.6110  -20.7280   21.3670 C   0  0  0  0  0  2  0  0  0  0  0  0
  -30.3470  -22.2550   21.2800 C   0  0  0  0  0  2  0  0  0  0  0  0
  -30.0380  -20.1540   20.0620 C   0  0  0  0  0  3  0  0  0  0  0  0
  -29.5190  -18.6400   20.0400 C   0  0  0  0  0  3  0  0  0  0  0  0
  -28.8260  -21.1320   19.8530 C   0  0  0  0  0  3  0  0  0  0  0  0
  -29.0270  -22.4410   20.6210 N   0  0  2  0  0  4  0  0  0  0  0  0
  -28.3360  -22.4020   21.3570 H   0  0  0  0  0  0  0  0  0  0  0  0
  -30.4600  -17.4070   20.5150 C   0  0  0  0  0  2  0  0  0  0  0  0
  -30.7180  -14.8150   20.1410 C   0  0  0  0  0  0  0  0  0  0  0  0
  -30.4400  -12.5840   19.0530 C   0  0  0  0  0  2  0  0  0  0  0  0
  -29.4580  -12.7140   17.8680 C   0  0  0  0  0  2  0  0  0  0  0  0
  -28.0030  -12.5490   18.3480 C   0  0  0  0  0  2  0  0  0  0  0  0
  -27.6890  -13.3960   19.6110 C   0  0  0  0  0  3  0  0  0  0  0  0
  -28.7880  -13.2540   20.6860 C   0  0  0  0  0  2  0  0  0  0  0  0
  -30.0630  -13.6090   20.0520 N   0  0  0  0  0  0  0  0  0  0  0  0
  -31.8950  -14.9050   19.7820 O   0  0  0  0  0  0  0  0  0  0  0  0
  -29.9830  -15.9560   20.4350 N   0  0  0  0  0  0  0  0  0  0  0  0
  -29.0130  -15.7960   20.6580 H   0  0  0  0  0  0  0  0  0  0  0  0
  -25.3280  -13.9870   20.4210 C   0  0  0  0  0  0  0  0  0  0  0  0
  -24.2730  -13.2120   20.8190 C   0  0  0  0  0  0  0  0  0  0  0  0
  -24.7320  -11.8600   20.7620 C   0  0  0  0  0  0  0  0  0  0  0  0
  -26.3610  -13.1070   20.1430 N   0  0  0  0  0  0  0  0  0  0  0  0
  -26.0110  -11.8230   20.4120 N   0  0  0  0  0  0  0  0  0  0  0  0
  -24.0080  -10.5970   20.9640 C   0  0  0  0  0  0  0  0  0  0  0  0
  -24.4520   -9.6310   21.8930 C   0  0  0  0  0  3  0  0  0  0  0  0
  -23.7270   -8.4340   22.0830 C   0  0  0  0  0  3  0  0  0  0  0  0
  -22.5450   -8.1960   21.3420 C   0  0  0  0  0  0  0  0  0  0  0  0
  -22.1190   -9.1520   20.4030 C   0  0  0  0  0  3  0  0  0  0  0  0
  -22.8450  -10.3400   20.2120 C   0  0  0  0  0  3  0  0  0  0  0  0
  -21.7910   -7.0520   21.4420 O   0  0  0  0  0  0  0  0  0  0  0  0
  -21.7440   -6.3190   22.6010 C   0  0  0  0  0  0  0  0  0  0  0  0
  -21.2870   -6.8740   23.8160 C   0  0  0  0  0  3  0  0  0  0  0  0
  -21.1890   -6.0650   24.9660 C   0  0  0  0  0  3  0  0  0  0  0  0
  -21.5390   -4.7040   24.9040 C   0  0  0  0  0  0  0  0  0  0  0  0
  -21.9910   -4.1490   23.6940 C   0  0  0  0  0  3  0  0  0  0  0  0
  -22.0900   -4.9530   22.5450 C   0  0  0  0  0  0  0  0  0  0  0  0
  -22.5050   -4.4080   21.3760 F   0  0  0  0  0  0  0  0  0  0  0  0
  -21.4390   -3.9260   26.0060 F   0  0  0  0  0  0  0  0  0  0  0  0
  -22.8860  -13.6900   21.1380 C   0  0  0  0  0  0  0  0  0  0  0  0
  -22.1840  -12.9900   22.0210 N   0  0  0  0  0  0  0  0  0  0  0  0
  -22.4350  -14.7200   20.6380 O   0  0  0  0  0  0  0  0  0  0  0  0
  -22.5620  -12.1560   22.4460 H   0  0  0  0  0  0  0  0  0  0  0  0
  -21.2540  -13.2920   22.2750 H   0  0  0  0  0  0  0  0  0  0  0  0
  -25.4880  -15.3580   20.2470 N   0  0  0  0  0  0  0  0  0  0  0  0
  -24.7210  -16.0080   20.3810 H   0  0  0  0  0  0  0  0  0  0  0  0
  -26.3120  -15.7940   19.8540 H   0  0  0  0  0  0  0  0  0  0  0  0
  -28.8330  -23.8060   19.9100 C   0  0  0  0  0  3  0  0  0  0  0  0
  -28.4160  -25.1020   20.7920 C   0  0  0  0  0  3  0  0  0  0  0  0
  -28.5340  -26.5120   20.2860 O   0  0  0  0  0  0  0  0  0  0  0  0
  -24.6550  -31.8870   23.2650 C   0  0  0  0  0  0  0  0  0  0  0  0
  -27.4050  -27.3530   20.2700 C   0  0  0  0  0  0  0  0  0  0  0  0
  -23.5130  -30.4780   21.5880 C   0  0  0  0  0  3  0  0  0  0  0  0
  -25.0220  -28.9460   20.1980 C   0  0  0  0  0  0  0  0  0  0  0  0
  -26.0530  -30.8300   21.4690 C   0  0  0  0  0  2  0  0  0  0  0  0
  -26.1700  -29.4500   20.8220 C   0  0  0  0  0  0  0  0  0  0  0  0
  -27.3680  -28.6690   20.8400 C   0  0  0  0  0  3  0  0  0  0  0  0
  -26.2350  -26.9040   19.6260 C   0  0  0  0  0  3  0  0  0  0  0  0
  -25.0580  -27.6800   19.5880 C   0  0  0  0  0  3  0  0  0  0  0  0
  -23.7730  -29.8070   20.2130 C   0  0  0  0  0  2  0  0  0  0  0  0
  -24.7580  -31.0840   22.1640 N   0  0  0  0  0  0  0  0  0  0  0  0
  -23.5550  -32.1460   23.7730 O   0  0  0  0  0  0  0  0  0  0  0  0
  -22.8400  -29.4510   22.5290 C   0  0  0  0  0  0  0  0  0  0  0  0
  -21.5180  -29.2630   22.3760 N   0  0  0  0  0  0  0  0  0  0  0  0
  -23.5060  -28.8250   23.3570 O   0  0  0  0  0  0  0  0  0  0  0  0
  -21.0370  -29.8210   21.6820 H   0  0  0  0  0  0  0  0  0  0  0  0
  -18.1390  -28.0460   22.8140 C   0  0  0  0  0  0  0  0  0  0  0  0
  -20.6920  -28.3120   23.1220 C   0  0  0  0  0  3  0  0  0  0  0  0
  -20.8090  -26.8890   22.5280 C   0  0  0  0  0  2  0  0  0  0  0  0
  -19.7220  -26.5770   21.4940 C   0  0  0  0  0  2  0  0  0  0  0  0
  -18.3310  -26.7070   22.1220 C   0  0  0  0  0  2  0  0  0  0  0  0
  -19.2480  -28.8070   23.2690 C   0  0  0  0  0  0  0  0  0  0  0  0
  -19.0160  -30.0600   23.8750 C   0  0  0  0  0  3  0  0  0  0  0  0
  -17.7070  -30.5530   24.0320 C   0  0  0  0  0  3  0  0  0  0  0  0
  -16.6120  -29.7900   23.5910 C   0  0  0  0  0  3  0  0  0  0  0  0
  -16.8290  -28.5380   22.9880 C   0  0  0  0  0  3  0  0  0  0  0  0
  -25.9120  -32.5360   23.9230 C   0  0  0  0  0  3  0  0  0  0  0  0
  -26.3830  -31.7890   25.2310 C   0  0  1  0  0  0  0  0  0  0  0  0
  -25.2500  -31.5630   26.2610 C   0  0  0  0  0  1  0  0  0  0  0  0
  -26.9870  -30.4080   24.8870 C   0  0  0  0  0  1  0  0  0  0  0  0
  -27.5020  -32.6010   25.9250 C   0  0  0  0  0  1  0  0  0  0  0  0
  -25.5860  -33.9390   24.2190 N   0  0  0  0  0  0  0  0  0  0  0  0
  -25.9380  -34.9800   23.4550 C   0  0  0  0  0  0  0  0  0  0  0  0
  -26.6390  -34.8620   22.4460 O   0  0  0  0  0  0  0  0  0  0  0  0
  -24.9670  -34.1040   24.9990 H   0  0  0  0  0  0  0  0  0  0  0  0
  -24.2180  -36.7630   23.0170 C   0  0  0  0  0  1  0  0  0  0  0  0
  -25.4340  -36.3750   23.8740 C   0  0  0  0  0  3  0  0  0  0  0  0
  -27.5320  -37.2870   24.7650 C   0  0  0  0  0  1  0  0  0  0  0  0
  -26.4660  -37.4290   23.7760 N   0  0  0  0  0  0  0  0  0  0  0  0
  -26.0520  -38.3510   23.8880 H   0  0  0  0  0  0  0  0  0  0  0  0
  2  1  1  0
  4  3  1  0
  5  3  1  0
  6  5  1  0
  6 10  1  0
  6  1  1  0
  7  5  1  0
  7  2  1  0
  7  8  1  0
  8  4  1  0
  8  9  1  1
 11 19  1  0
 12 17  1  0
 13 14  1  0
 13 12  1  0
 15 14  1  0
 15 24  1  0
 15 16  1  0
 17 11  1  0
 17 16  1  0
 18 11  2  0
 19 10  1  0
 19 20  1  0
 21 22  2  0
 22 41  1  0
 23 22  1  0
 23 26  1  0
 24 25  1  0
 24 21  1  0
 25 23  2  0
 26 27  1  0
 27 28  2  0
 29 32  1  0
 29 28  1  0
 30 29  2  0
 31 30  1  0
 31 26  2  0
 32 33  1  0
 33 34  1  0
 34 35  2  0
 36 35  1  0
 36 40  1  0
 37 36  2  0
 38 33  2  0
 38 37  1  0
 39 38  1  0
 41 42  1  0
 42 45  1  0
 42 44  1  0
 43 41  2  0
 46 47  1  0
 46 21  1  0
 48 46  1  0
 49  8  1  0
 49 50  2  0
 51 50  1  0
 52 63  2  0
 53 51  1  0
 53 58  1  0
 54 62  1  0
 54 64  1  0
 55 61  1  0
 55 57  1  0
 56 62  1  0
 57 58  2  0
 57 56  1  0
 59 53  2  0
 60 59  1  0
 60 55  2  0
 61 54  1  0
 62 52  1  0
 64 66  2  0
 65 64  1  0
 67 65  1  0
 68 77  2  0
 68 73  1  0
 69 65  1  0
 69 73  1  0
 70 69  1  0
 71 72  1  0
 71 70  1  0
 72 68  1  0
 73 74  2  0
 74 75  1  0
 76 75  2  0
 77 76  1  0
 78 52  1  0
 78 83  1  0
 78 79  1  0
 79 82  1  1
 79 80  1  0
 81 79  1  0
 83 86  1  0
 84 88  1  0
 84 83  1  0
 85 84  2  0
 88 87  1  0
 90 88  1  0
 90 91  1  0
 90 89  1  0
M  ISO  4  11 100  19 100  50 101  51 101
M  END
>  <TORSDO>  (9) 
F 19

>  <SCORE>  (9) 
-13.811

>  <name>  (9) 
8

>  <ligand_id>  (9) 
8

>  <original_smiles>  (9) 
[H]c1c([H])c([H])c2c(c1[H])C([H])([H])C([H])([H])C([H])([H])C2([H])N([H])C(=O)C1([H])N(C(=O)C([H])(N([H])C(=O)C([H])(N([H])C([H])([H])[H])C([H])([H])[H])C(C([H])([H])[H])(C([H])([H])[H])C([H])([H])[H])C([H])([H])c2c([H])c(OC([H])([H])C([H])([H])[N+]3([H])C([H])([H])C([H])([H])C4([H])C([H])(C([H])([H])N([H])C(=O)N5C([H])([H])C([H])([H])C([H])([H])C([H])(n6nc(-c7c([H])c([H])c(Oc8c([H])c([H])c(F)c([H])c8F)c([H])c7[H])c(C(=O)N([H])[H])c6N([H])[H])C5([H])[H])C([H])([H])C([H])([H])C43[H])c([H])c([H])c2C1([H])[H]

>  <smiles>  (9) 
[H]c1c([H])c([H])c2c(c1[H])C([H])([H])C([H])([H])C([H])([H])C2([H])N([H])C(=O)C1([H])N(C(=O)C([H])(N([H])C(=O)C([H])(N([H])C([H])([H])[H])C([H])([H])[H])C(C([H])([H])[H])(C([H])([H])[H])C([H])([H])[H])C([H])([H])c2c([H])c(OC([H])([H])C([H])([H])[N+]3([H])C([H])([H])C([H])([H])C4([H])C([H])(C([H])([H])N([H])C(=O)N5C([H])([H])C([H])([H])C([H])([H])C([H])(n6nc(-c7c([H])c([H])c(Oc8c([H])c([H])c(F)c([H])c8F)c([H])c7[H])c(C(=O)N([H])[H])c6N([H])[H])C5([H])[H])C([H])([H])C([H])([H])C43[H])c([H])c([H])c2C1([H])[H]

$$$$
9:0:0
     RDKit          3D

 92100  0  0  1  0  0  0  0  0999 V2000
  -29.7040  -20.6210   19.9730 C   0  0  0  0  0  3  0  0  0  0  0  0
  -30.0820  -18.7250   21.9070 C   0  0  0  0  0  2  0  0  0  0  0  0
  -31.2870  -18.0540   21.2270 C   0  0  0  0  0  2  0  0  0  0  0  0
  -29.4980  -19.0350   20.5220 C   0  0  0  0  0  3  0  0  0  0  0  0
  -30.3700  -17.6640   20.0550 C   0  0  0  0  0  3  0  0  0  0  0  0
  -30.6500  -14.9500   19.9440 C   0  0  0  0  0  0  0  0  0  0  0  0
  -30.4120  -12.6330   18.9500 C   0  0  0  0  0  2  0  0  0  0  0  0
  -29.4040  -12.6550   17.7770 C   0  0  0  0  0  2  0  0  0  0  0  0
  -27.9710  -12.4440   18.2980 C   0  0  0  0  0  2  0  0  0  0  0  0
  -27.6550  -13.3330   19.5290 C   0  0  0  0  0  3  0  0  0  0  0  0
  -28.7830  -13.3040   20.5840 C   0  0  0  0  0  2  0  0  0  0  0  0
  -30.0190  -13.7090   19.9050 N   0  0  0  0  0  0  0  0  0  0  0  0
  -31.8210  -14.9990   19.5480 O   0  0  0  0  0  0  0  0  0  0  0  0
  -29.9400  -16.1510   20.2210 N   0  0  0  0  0  0  0  0  0  0  0  0
  -28.9850  -16.0070   20.5120 H   0  0  0  0  0  0  0  0  0  0  0  0
  -25.3340  -13.9020   20.4420 C   0  0  0  0  0  0  0  0  0  0  0  0
  -24.2920  -13.1220   20.8600 C   0  0  0  0  0  0  0  0  0  0  0  0
  -24.7420  -11.7700   20.7580 C   0  0  0  0  0  0  0  0  0  0  0  0
  -26.3520  -13.0260   20.1070 N   0  0  0  0  0  0  0  0  0  0  0  0
  -26.0100  -11.7360   20.3620 N   0  0  0  0  0  0  0  0  0  0  0  0
  -24.0200  -10.5070   20.9610 C   0  0  0  0  0  0  0  0  0  0  0  0
  -24.4750   -9.5340   21.8790 C   0  0  0  0  0  3  0  0  0  0  0  0
  -23.7520   -8.3380   22.0700 C   0  0  0  0  0  3  0  0  0  0  0  0
  -22.5600   -8.1040   21.3440 C   0  0  0  0  0  0  0  0  0  0  0  0
  -22.1240   -9.0660   20.4150 C   0  0  0  0  0  3  0  0  0  0  0  0
  -22.8470  -10.2540   20.2220 C   0  0  0  0  0  3  0  0  0  0  0  0
  -21.8050   -6.9590   21.4450 O   0  0  0  0  0  0  0  0  0  0  0  0
  -21.7560   -6.2320   22.6060 C   0  0  0  0  0  0  0  0  0  0  0  0
  -21.2930   -6.7910   23.8170 C   0  0  0  0  0  3  0  0  0  0  0  0
  -21.1910   -5.9870   24.9710 C   0  0  0  0  0  3  0  0  0  0  0  0
  -21.5440   -4.6250   24.9130 C   0  0  0  0  0  0  0  0  0  0  0  0
  -22.0000   -4.0650   23.7060 C   0  0  0  0  0  3  0  0  0  0  0  0
  -22.1020   -4.8670   22.5560 C   0  0  0  0  0  0  0  0  0  0  0  0
  -22.5220   -4.3170   21.3900 F   0  0  0  0  0  0  0  0  0  0  0  0
  -21.4400   -3.8510   26.0180 F   0  0  0  0  0  0  0  0  0  0  0  0
  -22.9200  -13.6000   21.2380 C   0  0  0  0  0  0  0  0  0  0  0  0
  -22.2430  -12.8790   22.1230 N   0  0  0  0  0  0  0  0  0  0  0  0
  -22.4610  -14.6470   20.7830 O   0  0  0  0  0  0  0  0  0  0  0  0
  -22.6300  -12.0310   22.5100 H   0  0  0  0  0  0  0  0  0  0  0  0
  -21.3240  -13.1780   22.4190 H   0  0  0  0  0  0  0  0  0  0  0  0
  -25.4920  -15.2770   20.2930 N   0  0  0  0  0  0  0  0  0  0  0  0
  -24.7270  -15.9210   20.4580 H   0  0  0  0  0  0  0  0  0  0  0  0
  -26.3070  -15.7220   19.8940 H   0  0  0  0  0  0  0  0  0  0  0  0
  -28.8770  -21.8580   20.5370 N   0  0  0  0  0  4  0  0  0  0  0  0
  -27.9110  -21.6870   20.3070 H   0  0  0  0  0  0  0  0  0  0  0  0
  -28.9280  -21.7890   21.5410 H   0  0  0  0  0  0  0  0  0  0  0  0
  -29.1890  -23.3850   20.1910 C   0  0  0  0  0  3  0  0  0  0  0  0
  -28.1480  -24.6590   20.5610 C   0  0  0  0  0  3  0  0  0  0  0  0
  -28.4030  -26.1950   20.4110 O   0  0  0  0  0  0  0  0  0  0  0  0
  -24.6490  -31.8750   23.2660 C   0  0  0  0  0  0  0  0  0  0  0  0
  -27.3260  -27.1530   20.3460 C   0  0  0  0  0  0  0  0  0  0  0  0
  -23.4890  -30.4440   21.6290 C   0  0  0  0  0  3  0  0  0  0  0  0
  -24.9770  -28.8670   20.2500 C   0  0  0  0  0  0  0  0  0  0  0  0
  -26.0430  -30.7370   21.4980 C   0  0  0  0  0  2  0  0  0  0  0  0
  -26.1410  -29.3360   20.8710 C   0  0  0  0  0  0  0  0  0  0  0  0
  -27.3160  -28.4960   20.9010 C   0  0  0  0  0  3  0  0  0  0  0  0
  -26.1370  -26.7900   19.6750 C   0  0  0  0  0  3  0  0  0  0  0  0
  -24.9870  -27.6060   19.6370 C   0  0  0  0  0  3  0  0  0  0  0  0
  -23.7390  -29.7510   20.2640 C   0  0  0  0  0  2  0  0  0  0  0  0
  -24.7460  -31.0410   22.1860 N   0  0  0  0  0  0  0  0  0  0  0  0
  -23.5520  -32.1550   23.7720 O   0  0  0  0  0  0  0  0  0  0  0  0
  -22.8070  -29.4420   22.5920 C   0  0  0  0  0  0  0  0  0  0  0  0
  -21.4800  -29.2690   22.4590 N   0  0  0  0  0  0  0  0  0  0  0  0
  -23.4760  -28.8200   23.4220 O   0  0  0  0  0  0  0  0  0  0  0  0
  -20.9990  -29.8250   21.7670 H   0  0  0  0  0  0  0  0  0  0  0  0
  -18.0940  -28.0850   22.9620 C   0  0  0  0  0  0  0  0  0  0  0  0
  -20.6550  -28.3380   23.2310 C   0  0  0  0  0  3  0  0  0  0  0  0
  -20.7500  -26.9040   22.6600 C   0  0  0  0  0  2  0  0  0  0  0  0
  -19.6470  -26.5830   21.6460 C   0  0  0  0  0  2  0  0  0  0  0  0
  -18.2650  -26.7330   22.2880 C   0  0  0  0  0  2  0  0  0  0  0  0
  -19.2150  -28.8450   23.3900 C   0  0  0  0  0  0  0  0  0  0  0  0
  -18.9990  -30.1090   23.9800 C   0  0  0  0  0  3  0  0  0  0  0  0
  -17.6960  -30.6130   24.1460 C   0  0  0  0  0  3  0  0  0  0  0  0
  -16.5900  -29.8510   23.7340 C   0  0  0  0  0  3  0  0  0  0  0  0
  -16.7900  -28.5890   23.1470 C   0  0  0  0  0  3  0  0  0  0  0  0
  -25.9100  -32.5320   23.9040 C   0  0  0  0  0  3  0  0  0  0  0  0
  -25.5820  -33.9350   24.2030 N   0  0  0  0  0  0  0  0  0  0  0  0
  -25.9260  -34.9800   23.4390 C   0  0  0  0  0  0  0  0  0  0  0  0
  -26.6200  -34.8650   22.4240 O   0  0  0  0  0  0  0  0  0  0  0  0
  -24.9710  -34.0980   24.9900 H   0  0  0  0  0  0  0  0  0  0  0  0
  -24.2040  -36.7660   23.0120 C   0  0  0  0  0  1  0  0  0  0  0  0
  -25.4210  -36.3740   23.8650 C   0  0  0  0  0  3  0  0  0  0  0  0
  -27.5270  -37.2760   24.7500 C   0  0  0  0  0  1  0  0  0  0  0  0
  -26.4550  -37.4290   23.7700 N   0  0  0  0  0  0  0  0  0  0  0  0
  -26.0410  -38.3490   23.8950 H   0  0  0  0  0  0  0  0  0  0  0  0
  -26.4010  -31.7930   25.2110 C   0  0  1  0  0  0  0  0  0  0  0  0
  -25.2830  -31.5650   26.2550 C   0  0  0  0  0  1  0  0  0  0  0  0
  -27.0100  -30.4130   24.8650 C   0  0  0  0  0  1  0  0  0  0  0  0
  -27.5270  -32.6130   25.8830 C   0  0  0  0  0  1  0  0  0  0  0  0
  -29.6700  -20.6320   18.4240 C   0  0  0  0  0  2  0  0  0  0  0  0
  -27.9690  -18.9160   17.4600 C   0  0  0  0  0  1  0  0  0  0  0  0
  -28.2920  -20.3890   17.7700 C   0  0  0  0  0  2  0  0  0  0  0  0
  1 90  1  0
  1 44  1  0
  3  2  1  0
  4  1  1  0
  4  2  1  0
  5 14  1  0
  5  4  1  0
  5  3  1  0
  6 14  1  0
  7 12  1  0
  8  9  1  0
  8  7  1  0
 10  9  1  0
 10 19  1  0
 10 11  1  0
 12  6  1  0
 12 11  1  0
 13  6  2  0
 14 15  1  0
 16 17  2  0
 17 36  1  0
 18 17  1  0
 18 21  1  0
 19 20  1  0
 19 16  1  0
 20 18  2  0
 21 22  1  0
 22 23  2  0
 24 27  1  0
 24 23  1  0
 25 24  2  0
 26 25  1  0
 26 21  2  0
 27 28  1  0
 28 29  1  0
 29 30  2  0
 31 30  1  0
 31 35  1  0
 32 31  2  0
 33 28  2  0
 33 32  1  0
 34 33  1  0
 36 37  1  0
 37 40  1  0
 37 39  1  0
 38 36  2  0
 41 16  1  0
 41 42  1  0
 43 41  1  0
 44 46  1  0
 45 44  1  0
 47 44  1  0
 47 48  2  0
 49 48  1  0
 50 61  2  0
 51 49  1  0
 51 56  1  0
 52 60  1  0
 52 62  1  0
 53 59  1  0
 53 55  1  0
 54 60  1  0
 55 56  2  0
 55 54  1  0
 57 51  2  0
 58 57  1  0
 58 53  2  0
 59 52  1  0
 60 50  1  0
 62 64  2  0
 63 62  1  0
 65 63  1  0
 66 75  2  0
 66 71  1  0
 67 63  1  0
 67 71  1  0
 68 67  1  0
 69 70  1  0
 69 68  1  0
 70 66  1  0
 71 72  2  0
 72 73  1  0
 74 73  2  0
 75 74  1  0
 76 50  1  0
 76 77  1  0
 76 86  1  0
 77 80  1  0
 78 82  1  0
 78 77  1  0
 79 78  2  0
 82 81  1  0
 84 82  1  0
 84 85  1  0
 84 83  1  0
 86 89  1  1
 86 87  1  0
 88 86  1  0
 91 92  1  0
 92 90  1  0
M  ISO  4   6 100  14 100  48 101  49 101
M  END
>  <TORSDO>  (10) 
F 22

>  <SCORE>  (10) 
-12.762

>  <name>  (10) 
9

>  <ligand_id>  (10) 
9

>  <original_smiles>  (10) 
[H]c1c([H])c([H])c2c(c1[H])C([H])([H])C([H])([H])C([H])([H])C2([H])N([H])C(=O)C1([H])N(C(=O)C([H])(N([H])C(=O)C([H])(N([H])C([H])([H])[H])C([H])([H])[H])C(C([H])([H])[H])(C([H])([H])[H])C([H])([H])[H])C([H])([H])c2c([H])c(OC([H])([H])C([H])([H])[N+]([H])([H])C([H])(C([H])([H])C([H])([H])C([H])([H])[H])C3([H])C([H])([H])C([H])([H])C3([H])N([H])C(=O)N3C([H])([H])C([H])([H])C([H])([H])C([H])(n4nc(-c5c([H])c([H])c(Oc6c([H])c([H])c(F)c([H])c6F)c([H])c5[H])c(C(=O)N([H])[H])c4N([H])[H])C3([H])[H])c([H])c([H])c2C1([H])[H]

>  <smiles>  (10) 
[H]c1c([H])c([H])c2c(c1[H])C([H])([H])C([H])([H])C([H])([H])C2([H])N([H])C(=O)C1([H])N(C(=O)C([H])(N([H])C(=O)C([H])(N([H])C([H])([H])[H])C([H])([H])[H])C(C([H])([H])[H])(C([H])([H])[H])C([H])([H])[H])C([H])([H])c2c([H])c(OC([H])([H])C([H])([H])[N+]([H])([H])C([H])(C([H])([H])C([H])([H])C([H])([H])[H])C3([H])C([H])([H])C([H])([H])C3([H])N([H])C(=O)N3C([H])([H])C([H])([H])C([H])([H])C([H])(n4nc(-c5c([H])c([H])c(Oc6c([H])c([H])c(F)c([H])c6F)c([H])c5[H])c(C(=O)N([H])[H])c4N([H])[H])C3([H])[H])c([H])c([H])c2C1([H])[H]

$$$$
10:0:0
     RDKit          3D

 90 99  0  0  1  0  0  0  0  0999 V2000
  -28.3930  -19.3040   21.0410 C   0  0  0  0  0  2  0  0  0  0  0  0
  -30.3120  -20.7280   20.7200 C   0  0  0  0  0  2  0  0  0  0  0  0
  -30.6150  -18.1160   21.1320 C   0  0  0  0  0  2  0  0  0  0  0  0
  -29.2340  -18.2740   18.9250 C   0  0  0  0  0  2  0  0  0  0  0  0
  -29.8460  -19.4400   21.4690 C   0  0  0  0  0  3  0  0  0  0  0  0
  -28.5590  -19.5780   19.5540 C   0  0  0  0  0  3  0  0  0  0  0  0
  -29.3490  -20.9570   19.5240 C   0  0  0  0  0  3  0  0  0  0  0  0
  -30.2770  -17.4110   19.7720 C   0  0  0  0  0  3  0  0  0  0  0  0
  -30.7220  -14.8000   19.6930 C   0  0  0  0  0  0  0  0  0  0  0  0
  -30.4990  -12.4490   18.8830 C   0  0  0  0  0  2  0  0  0  0  0  0
  -29.4820  -12.4060   17.7210 C   0  0  0  0  0  2  0  0  0  0  0  0
  -28.0470  -12.2430   18.2600 C   0  0  0  0  0  2  0  0  0  0  0  0
  -27.7310  -13.2300   19.4150 C   0  0  0  0  0  3  0  0  0  0  0  0
  -28.8600  -13.2560   20.4710 C   0  0  0  0  0  2  0  0  0  0  0  0
  -30.1140  -13.5690   19.7700 N   0  0  0  0  0  0  0  0  0  0  0  0
  -31.8680  -14.8980   19.2470 O   0  0  0  0  0  0  0  0  0  0  0  0
  -29.9550  -15.9250   19.9360 N   0  0  0  0  0  0  0  0  0  0  0  0
  -29.0230  -15.7220   20.2640 H   0  0  0  0  0  0  0  0  0  0  0  0
  -25.4430  -13.8600   20.3910 C   0  0  0  0  0  0  0  0  0  0  0  0
  -24.3880  -13.1030   20.8230 C   0  0  0  0  0  0  0  0  0  0  0  0
  -24.7970  -11.7410   20.6840 C   0  0  0  0  0  0  0  0  0  0  0  0
  -26.4270  -12.9610   20.0140 N   0  0  0  0  0  0  0  0  0  0  0  0
  -26.0510  -11.6780   20.2530 N   0  0  0  0  0  0  0  0  0  0  0  0
  -24.0450  -10.4950   20.8830 C   0  0  0  0  0  0  0  0  0  0  0  0
  -24.4620   -9.5200   21.8170 C   0  0  0  0  0  3  0  0  0  0  0  0
  -23.7130   -8.3370   22.0010 C   0  0  0  0  0  3  0  0  0  0  0  0
  -22.5300   -8.1230   21.2540 C   0  0  0  0  0  0  0  0  0  0  0  0
  -22.1320   -9.0860   20.3090 C   0  0  0  0  0  3  0  0  0  0  0  0
  -22.8830  -10.2580   20.1220 C   0  0  0  0  0  3  0  0  0  0  0  0
  -21.7520   -6.9940   21.3480 O   0  0  0  0  0  0  0  0  0  0  0  0
  -21.6010   -6.3220   22.5350 C   0  0  0  0  0  0  0  0  0  0  0  0
  -21.0360   -6.9380   23.6730 C   0  0  0  0  0  3  0  0  0  0  0  0
  -20.8340   -6.1910   24.8510 C   0  0  0  0  0  3  0  0  0  0  0  0
  -21.1860   -4.8280   24.8900 C   0  0  0  0  0  0  0  0  0  0  0  0
  -21.7430   -4.2120   23.7550 C   0  0  0  0  0  3  0  0  0  0  0  0
  -21.9460   -4.9560   22.5810 C   0  0  0  0  0  0  0  0  0  0  0  0
  -22.4630   -4.3510   21.4830 F   0  0  0  0  0  0  0  0  0  0  0  0
  -20.9850   -4.1070   26.0180 F   0  0  0  0  0  0  0  0  0  0  0  0
  -23.0400  -13.6100   21.2470 C   0  0  0  0  0  0  0  0  0  0  0  0
  -22.3730  -12.8980   22.1480 N   0  0  0  0  0  0  0  0  0  0  0  0
  -22.5930  -14.6710   20.8150 O   0  0  0  0  0  0  0  0  0  0  0  0
  -22.7500  -12.0400   22.5200 H   0  0  0  0  0  0  0  0  0  0  0  0
  -21.4720  -13.2200   22.4730 H   0  0  0  0  0  0  0  0  0  0  0  0
  -25.6380  -15.2330   20.2620 N   0  0  0  0  0  0  0  0  0  0  0  0
  -24.9020  -15.9010   20.4680 H   0  0  0  0  0  0  0  0  0  0  0  0
  -26.4530  -15.6600   19.8430 H   0  0  0  0  0  0  0  0  0  0  0  0
  -28.4310  -22.2920   19.6200 C   0  0  0  0  0  2  0  0  0  0  0  0
  -28.9970  -23.8050   19.5890 C   0  0  0  0  0  3  0  0  0  0  0  0
  -27.9110  -24.9840   19.4280 C   0  0  0  0  0  3  0  0  0  0  0  0
  -28.1850  -26.4410   19.6560 O   0  0  0  0  0  0  0  0  0  0  0  0
  -24.5090  -31.6510   23.1220 C   0  0  0  0  0  0  0  0  0  0  0  0
  -27.0760  -27.3210   19.6840 C   0  0  0  0  0  0  0  0  0  0  0  0
  -23.2770  -30.3600   21.4200 C   0  0  0  0  0  3  0  0  0  0  0  0
  -24.7030  -28.9350   19.8490 C   0  0  0  0  0  0  0  0  0  0  0  0
  -25.8120  -30.7080   21.1990 C   0  0  0  0  0  2  0  0  0  0  0  0
  -25.8860  -29.3810   20.4500 C   0  0  0  0  0  0  0  0  0  0  0  0
  -27.0760  -28.5890   20.3580 C   0  0  0  0  0  3  0  0  0  0  0  0
  -25.8620  -26.9460   19.0590 C   0  0  0  0  0  3  0  0  0  0  0  0
  -24.6950  -27.7250   19.1440 C   0  0  0  0  0  3  0  0  0  0  0  0
  -23.4620  -29.7930   19.9900 C   0  0  0  0  0  2  0  0  0  0  0  0
  -24.5530  -30.9210   21.9690 N   0  0  0  0  0  0  0  0  0  0  0  0
  -23.4360  -31.8790   23.7010 O   0  0  0  0  0  0  0  0  0  0  0  0
  -22.6500  -29.2680   22.3210 C   0  0  0  0  0  0  0  0  0  0  0  0
  -21.3280  -29.0600   22.1910 N   0  0  0  0  0  0  0  0  0  0  0  0
  -23.3520  -28.6140   23.0980 O   0  0  0  0  0  0  0  0  0  0  0  0
  -20.8200  -29.6410   21.5380 H   0  0  0  0  0  0  0  0  0  0  0  0
  -17.9900  -27.7380   22.6320 C   0  0  0  0  0  0  0  0  0  0  0  0
  -20.5400  -28.0570   22.9110 C   0  0  0  0  0  3  0  0  0  0  0  0
  -20.6820  -26.6640   22.2570 C   0  0  0  0  0  2  0  0  0  0  0  0
  -19.5860  -26.3660   21.2290 C   0  0  0  0  0  2  0  0  0  0  0  0
  -18.2030  -26.4350   21.8820 C   0  0  0  0  0  2  0  0  0  0  0  0
  -19.0870  -28.5080   23.1020 C   0  0  0  0  0  0  0  0  0  0  0  0
  -18.8340  -29.7270   23.7660 C   0  0  0  0  0  3  0  0  0  0  0  0
  -17.5160  -30.1800   23.9640 C   0  0  0  0  0  3  0  0  0  0  0  0
  -16.4330  -29.4070   23.5110 C   0  0  0  0  0  3  0  0  0  0  0  0
  -16.6710  -28.1870   22.8520 C   0  0  0  0  0  3  0  0  0  0  0  0
  -25.8000  -32.2540   23.7560 C   0  0  0  0  0  3  0  0  0  0  0  0
  -26.3280  -31.4310   24.9950 C   0  0  1  0  0  0  0  0  0  0  0  0
  -25.2450  -31.1530   26.0630 C   0  0  0  0  0  1  0  0  0  0  0  0
  -26.9050  -30.0680   24.5450 C   0  0  0  0  0  1  0  0  0  0  0  0
  -27.4870  -32.1970   25.6760 C   0  0  0  0  0  1  0  0  0  0  0  0
  -25.4990  -33.6380   24.1460 N   0  0  0  0  0  0  0  0  0  0  0  0
  -25.7910  -34.7190   23.4100 C   0  0  0  0  0  0  0  0  0  0  0  0
  -26.4140  -34.6540   22.3450 O   0  0  0  0  0  0  0  0  0  0  0  0
  -24.9400  -33.7630   24.9770 H   0  0  0  0  0  0  0  0  0  0  0  0
  -24.0260  -36.5000   23.2180 C   0  0  0  0  0  1  0  0  0  0  0  0
  -25.3210  -36.0880   23.9380 C   0  0  0  0  0  3  0  0  0  0  0  0
  -27.4880  -36.9820   24.6660 C   0  0  0  0  0  1  0  0  0  0  0  0
  -26.3330  -37.1560   23.7900 N   0  0  0  0  0  0  0  0  0  0  0  0
  -25.9260  -38.0680   23.9820 H   0  0  0  0  0  0  0  0  0  0  0  0
  1  5  1  0
  3  5  1  0
  4  8  1  0
  5  2  1  0
  6  4  1  0
  6  1  1  0
  7  6  1  0
  7 47  1  0
  7  2  1  0
  8 17  1  0
  8  3  1  0
  9 15  1  0
  9 17  1  0
 10 15  1  0
 11 12  1  0
 11 10  1  0
 13 12  1  0
 13 22  1  0
 13 14  1  0
 15 14  1  0
 16  9  2  0
 17 18  1  0
 19 20  2  0
 20 39  1  0
 21 20  1  0
 21 24  1  0
 22 23  1  0
 22 19  1  0
 23 21  2  0
 24 25  1  0
 25 26  2  0
 27 30  1  0
 27 26  1  0
 28 27  2  0
 29 28  1  0
 29 24  2  0
 30 31  1  0
 31 36  2  0
 31 32  1  0
 32 33  2  0
 33 34  1  0
 34 38  1  0
 35 34  2  0
 36 35  1  0
 37 36  1  0
 39 40  1  0
 40 43  1  0
 40 42  1  0
 41 39  2  0
 44 19  1  0
 44 45  1  0
 46 44  1  0
 48 47  1  0
 49 48  2  0
 49 50  1  0
 50 52  1  0
 51 62  2  0
 52 57  1  0
 53 61  1  0
 53 63  1  0
 54 60  1  0
 54 56  1  0
 55 61  1  0
 56 55  1  0
 57 56  2  0
 58 59  1  0
 58 52  2  0
 59 54  2  0
 60 53  1  0
 61 51  1  0
 63 65  2  0
 64 63  1  0
 66 64  1  0
 67 76  2  0
 67 72  1  0
 68 64  1  0
 68 72  1  0
 69 68  1  0
 70 71  1  0
 70 69  1  0
 71 67  1  0
 72 73  2  0
 73 74  1  0
 75 74  2  0
 76 75  1  0
 77 51  1  0
 77 82  1  0
 77 78  1  0
 78 81  1  1
 78 79  1  0
 80 78  1  0
 82 85  1  0
 83 87  1  0
 83 82  1  0
 84 83  2  0
 87 86  1  0
 89 87  1  0
 89 90  1  0
 89 88  1  0
M  ISO  4   9 100  17 100  49 101  50 101
M  END
>  <TORSDO>  (11) 
F 19

>  <SCORE>  (11) 
-12.917

>  <name>  (11) 
10

>  <ligand_id>  (11) 
10

>  <original_smiles>  (11) 
[H]c1c([H])c([H])c2c(c1[H])C([H])([H])C([H])([H])C([H])([H])C2([H])N([H])C(=O)C1([H])N(C(=O)C([H])(N([H])C(=O)C([H])(N([H])C([H])([H])[H])C([H])([H])[H])C(C([H])([H])[H])(C([H])([H])[H])C([H])([H])[H])C([H])([H])c2c([H])c(OC([H])([H])C([H])([H])C([H])([H])C3([H])C([H])([H])C4([H])C([H])([H])C([H])(N([H])C(=O)N5C([H])([H])C([H])([H])C([H])([H])C([H])(n6nc(-c7c([H])c([H])c(Oc8c([H])c([H])c(F)c([H])c8F)c([H])c7[H])c(C(=O)N([H])[H])c6N([H])[H])C5([H])[H])C([H])([H])C3([H])C4([H])[H])c([H])c([H])c2C1([H])[H]

>  <smiles>  (11) 
[H]c1c([H])c([H])c2c(c1[H])C([H])([H])C([H])([H])C([H])([H])C2([H])N([H])C(=O)C1([H])N(C(=O)C([H])(N([H])C(=O)C([H])(N([H])C([H])([H])[H])C([H])([H])[H])C(C([H])([H])[H])(C([H])([H])[H])C([H])([H])[H])C([H])([H])c2c([H])c(OC([H])([H])C([H])([H])C([H])([H])C3([H])C([H])([H])C4([H])C([H])([H])C([H])(N([H])C(=O)N5C([H])([H])C([H])([H])C([H])([H])C([H])(n6nc(-c7c([H])c([H])c(Oc8c([H])c([H])c(F)c([H])c8F)c([H])c7[H])c(C(=O)N([H])[H])c6N([H])[H])C5([H])[H])C([H])([H])C3([H])C4([H])[H])c([H])c([H])c2C1([H])[H]

$$$$
11:0:0
     RDKit          3D

 91 99  0  0  1  0  0  0  0  0999 V2000
  -30.0600  -22.1860   22.3190 C   0  0  0  0  0  3  0  0  0  0  0  0
  -30.1300  -20.9300   21.6580 C   0  0  0  0  0  3  0  0  0  0  0  0
  -29.3550  -23.3030   21.8000 C   0  0  0  0  0  3  0  0  0  0  0  0
  -28.7390  -21.8960   19.9270 C   0  0  0  0  0  3  0  0  0  0  0  0
  -29.4380  -20.6730   20.4450 C   0  0  0  0  0  0  0  0  0  0  0  0
  -28.6970  -23.2570   20.5500 C   0  0  0  0  0  0  0  0  0  0  0  0
  -29.5400  -19.1640   19.7930 C   0  0  0  0  0  0  0  0  0  0  0  0
  -29.0470  -19.0320   18.6700 O   0  0  0  0  0  0  0  0  0  0  0  0
  -30.2430  -17.7420   20.4540 C   0  0  0  0  0  3  0  0  0  0  0  0
  -30.8330  -15.0690   19.9090 C   0  0  0  0  0  0  0  0  0  0  0  0
  -30.6560  -12.7020   19.0200 C   0  0  0  0  0  2  0  0  0  0  0  0
  -29.6960  -12.6950   17.8140 C   0  0  0  0  0  2  0  0  0  0  0  0
  -28.2280  -12.5160   18.2620 C   0  0  0  0  0  2  0  0  0  0  0  0
  -27.8680  -13.4230   19.4700 C   0  0  0  0  0  3  0  0  0  0  0  0
  -28.9660  -13.4290   20.5510 C   0  0  0  0  0  2  0  0  0  0  0  0
  -30.2190  -13.8210   19.8900 N   0  0  0  0  0  0  0  0  0  0  0  0
  -32.0580  -15.1130   19.7430 O   0  0  0  0  0  0  0  0  0  0  0  0
  -30.0540  -16.2610   19.9050 N   0  0  0  0  0  0  0  0  0  0  0  0
  -29.0960  -16.0730   19.6610 H   0  0  0  0  0  0  0  0  0  0  0  0
  -25.5270  -14.0230   20.3100 C   0  0  0  0  0  0  0  0  0  0  0  0
  -24.4710  -13.2610   20.7200 C   0  0  0  0  0  0  0  0  0  0  0  0
  -24.9220  -11.9010   20.6740 C   0  0  0  0  0  0  0  0  0  0  0  0
  -26.5490  -13.1340   20.0210 N   0  0  0  0  0  0  0  0  0  0  0  0
  -26.2020  -11.8540   20.3180 N   0  0  0  0  0  0  0  0  0  0  0  0
  -24.1900  -10.6450   20.8850 C   0  0  0  0  0  0  0  0  0  0  0  0
  -24.6170   -9.6870   21.8340 C   0  0  0  0  0  3  0  0  0  0  0  0
  -23.8800   -8.5000   22.0300 C   0  0  0  0  0  3  0  0  0  0  0  0
  -22.7040   -8.2560   21.2810 C   0  0  0  0  0  0  0  0  0  0  0  0
  -22.2980   -9.2010   20.3210 C   0  0  0  0  0  3  0  0  0  0  0  0
  -23.0350  -10.3820   20.1220 C   0  0  0  0  0  3  0  0  0  0  0  0
  -21.9390   -7.1210   21.3880 O   0  0  0  0  0  0  0  0  0  0  0  0
  -21.8450   -6.4220   22.5670 C   0  0  0  0  0  0  0  0  0  0  0  0
  -21.3890   -7.0290   23.7570 C   0  0  0  0  0  3  0  0  0  0  0  0
  -21.2450   -6.2570   24.9260 C   0  0  0  0  0  3  0  0  0  0  0  0
  -21.5450   -4.8810   24.9070 C   0  0  0  0  0  0  0  0  0  0  0  0
  -21.9960   -4.2770   23.7200 C   0  0  0  0  0  3  0  0  0  0  0  0
  -22.1430   -5.0440   22.5510 C   0  0  0  0  0  0  0  0  0  0  0  0
  -22.5540   -4.4520   21.4050 F   0  0  0  0  0  0  0  0  0  0  0  0
  -21.4000   -4.1390   26.0300 F   0  0  0  0  0  0  0  0  0  0  0  0
  -23.0840  -13.7470   21.0270 C   0  0  0  0  0  0  0  0  0  0  0  0
  -22.3680  -13.0760   21.9190 N   0  0  0  0  0  0  0  0  0  0  0  0
  -22.6380  -14.7680   20.4990 O   0  0  0  0  0  0  0  0  0  0  0  0
  -22.7170  -12.2500   22.3780 H   0  0  0  0  0  0  0  0  0  0  0  0
  -21.4400  -13.4080   22.1530 H   0  0  0  0  0  0  0  0  0  0  0  0
  -25.7160  -15.3920   20.1190 N   0  0  0  0  0  0  0  0  0  0  0  0
  -25.0130  -16.1040   20.2880 H   0  0  0  0  0  0  0  0  0  0  0  0
  -26.5700  -15.7750   19.7390 H   0  0  0  0  0  0  0  0  0  0  0  0
  -30.9590  -16.9630   22.7930 C   0  0  0  0  0  1  0  0  0  0  0  0
  -29.8620  -17.6090   21.9300 C   0  0  0  0  0  2  0  0  0  0  0  0
  -27.8970  -24.6170   19.9990 C   0  0  0  0  0  2  0  0  0  0  0  0
  -28.2110  -26.1260   20.3060 O   0  0  0  0  0  0  0  0  0  0  0  0
  -24.6170  -31.8830   23.1840 C   0  0  0  0  0  0  0  0  0  0  0  0
  -27.2060  -27.1640   20.1630 C   0  0  0  0  0  0  0  0  0  0  0  0
  -23.4240  -30.4790   21.5440 C   0  0  0  0  0  3  0  0  0  0  0  0
  -24.8910  -28.9300   20.0980 C   0  0  0  0  0  0  0  0  0  0  0  0
  -25.9750  -30.7580   21.3870 C   0  0  0  0  0  2  0  0  0  0  0  0
  -26.0580  -29.3660   20.7340 C   0  0  0  0  0  0  0  0  0  0  0  0
  -27.2160  -28.4930   20.7620 C   0  0  0  0  0  3  0  0  0  0  0  0
  -26.0400  -26.8750   19.4240 C   0  0  0  0  0  3  0  0  0  0  0  0
  -24.9030  -27.7090   19.4100 C   0  0  0  0  0  3  0  0  0  0  0  0
  -23.6310  -29.7810   20.1710 C   0  0  0  0  0  2  0  0  0  0  0  0
  -24.6920  -31.0620   22.0920 N   0  0  0  0  0  0  0  0  0  0  0  0
  -23.5310  -32.1660   23.7120 O   0  0  0  0  0  0  0  0  0  0  0  0
  -22.7530  -29.4730   22.5120 C   0  0  0  0  0  0  0  0  0  0  0  0
  -21.4260  -29.2970   22.3820 N   0  0  0  0  0  0  0  0  0  0  0  0
  -23.4280  -28.8490   23.3350 O   0  0  0  0  0  0  0  0  0  0  0  0
  -20.9360  -29.8330   21.6800 H   0  0  0  0  0  0  0  0  0  0  0  0
  -18.0470  -28.1180   22.9120 C   0  0  0  0  0  0  0  0  0  0  0  0
  -20.6080  -28.3570   23.1520 C   0  0  0  0  0  3  0  0  0  0  0  0
  -20.6960  -26.9320   22.5570 C   0  0  0  0  0  2  0  0  0  0  0  0
  -19.5790  -26.6300   21.5530 C   0  0  0  0  0  2  0  0  0  0  0  0
  -18.2050  -26.7770   22.2130 C   0  0  0  0  0  2  0  0  0  0  0  0
  -19.1750  -28.8680   23.3340 C   0  0  0  0  0  0  0  0  0  0  0  0
  -18.9740  -30.1270   23.9420 C   0  0  0  0  0  3  0  0  0  0  0  0
  -17.6740  -30.6330   24.1390 C   0  0  0  0  0  3  0  0  0  0  0  0
  -16.5590  -29.8780   23.7380 C   0  0  0  0  0  3  0  0  0  0  0  0
  -16.7470  -28.6220   23.1290 C   0  0  0  0  0  3  0  0  0  0  0  0
  -25.8940  -32.5200   23.8130 C   0  0  0  0  0  3  0  0  0  0  0  0
  -26.4080  -31.7480   25.0920 C   0  0  1  0  0  0  0  0  0  0  0  0
  -25.3050  -31.5050   26.1480 C   0  0  0  0  0  1  0  0  0  0  0  0
  -27.0020  -30.3720   24.7100 C   0  0  0  0  0  1  0  0  0  0  0  0
  -27.5490  -32.5470   25.7640 C   0  0  0  0  0  1  0  0  0  0  0  0
  -25.5760  -33.9160   24.1520 N   0  0  0  0  0  0  0  0  0  0  0  0
  -25.9000  -34.9820   23.4060 C   0  0  0  0  0  0  0  0  0  0  0  0
  -26.5670  -34.8920   22.3720 O   0  0  0  0  0  0  0  0  0  0  0  0
  -24.9770  -34.0610   24.9520 H   0  0  0  0  0  0  0  0  0  0  0  0
  -24.1640  -36.7710   23.0810 C   0  0  0  0  0  1  0  0  0  0  0  0
  -25.4100  -36.3580   23.8800 C   0  0  0  0  0  3  0  0  0  0  0  0
  -27.5370  -37.2520   24.7160 C   0  0  0  0  0  1  0  0  0  0  0  0
  -26.4330  -37.4180   23.7740 N   0  0  0  0  0  0  0  0  0  0  0  0
  -26.0230  -38.3360   23.9270 H   0  0  0  0  0  0  0  0  0  0  0  0
  2  1  2  0
  3  1  1  0
  4  5  2  0
  4  6  1  0
  5  2  1  0
  6  3  2  0
  7  5  1  0
  7  9  1  0
  8  7  2  0
  9 49  1  0
 11 16  1  0
 12 13  1  0
 12 11  1  0
 14 13  1  0
 14 23  1  0
 14 15  1  0
 16 10  1  0
 16 15  1  0
 17 10  2  0
 18 10  1  0
 18  9  1  0
 19 18  1  0
 20 21  2  0
 21 40  1  0
 22 21  1  0
 22 25  1  0
 23 20  1  0
 23 24  1  0
 24 22  2  0
 25 26  1  0
 26 27  2  0
 28 31  1  0
 28 27  1  0
 29 28  2  0
 30 29  1  0
 30 25  2  0
 31 32  1  0
 32 33  1  0
 33 34  2  0
 35 34  1  0
 35 39  1  0
 36 35  2  0
 37 32  2  0
 37 36  1  0
 38 37  1  0
 40 41  1  0
 41 44  1  0
 41 43  1  0
 42 40  2  0
 45 46  1  0
 45 20  1  0
 47 45  1  0
 49 48  1  0
 50 51  1  0
 50  6  1  0
 52 63  2  0
 53 51  1  0
 53 58  1  0
 54 62  1  0
 54 64  1  0
 55 61  1  0
 55 57  1  0
 56 62  1  0
 57 58  2  0
 57 56  1  0
 59 53  2  0
 60 59  1  0
 60 55  2  0
 61 54  1  0
 62 52  1  0
 64 66  2  0
 65 64  1  0
 67 65  1  0
 68 77  2  0
 68 73  1  0
 69 65  1  0
 69 73  1  0
 70 69  1  0
 71 72  1  0
 71 70  1  0
 72 68  1  0
 73 74  2  0
 74 75  1  0
 76 75  2  0
 77 76  1  0
 78 52  1  0
 78 83  1  0
 78 79  1  0
 79 82  1  1
 79 80  1  0
 81 79  1  0
 83 86  1  0
 84 88  1  0
 84 83  1  0
 85 84  2  0
 88 87  1  0
 90 88  1  0
 90 91  1  0
 90 89  1  0
M  ISO  4  10 100  18 100  50 101  51 101
M  END
>  <TORSDO>  (12) 
F 20

>  <SCORE>  (12) 
-13.854

>  <name>  (12) 
11

>  <ligand_id>  (12) 
11

>  <original_smiles>  (12) 
[H]c1c([H])c(C(=O)C([H])(N([H])C(=O)N2C([H])([H])C([H])([H])C([H])([H])C([H])(n3nc(-c4c([H])c([H])c(Oc5c([H])c([H])c(F)c([H])c5F)c([H])c4[H])c(C(=O)N([H])[H])c3N([H])[H])C2([H])[H])C([H])([H])C([H])([H])[H])c([H])c(C([H])([H])Oc2c([H])c([H])c3c(c2[H])C([H])([H])N(C(=O)C([H])(N([H])C(=O)C([H])(N([H])C([H])([H])[H])C([H])([H])[H])C(C([H])([H])[H])(C([H])([H])[H])C([H])([H])[H])C([H])(C(=O)N([H])C2([H])c4c([H])c([H])c([H])c([H])c4C([H])([H])C([H])([H])C2([H])[H])C3([H])[H])c1[H]

>  <smiles>  (12) 
[H]c1c([H])c(C(=O)C([H])(N([H])C(=O)N2C([H])([H])C([H])([H])C([H])([H])C([H])(n3nc(-c4c([H])c([H])c(Oc5c([H])c([H])c(F)c([H])c5F)c([H])c4[H])c(C(=O)N([H])[H])c3N([H])[H])C2([H])[H])C([H])([H])C([H])([H])[H])c([H])c(C([H])([H])Oc2c([H])c([H])c3c(c2[H])C([H])([H])N(C(=O)C([H])(N([H])C(=O)C([H])(N([H])C([H])([H])[H])C([H])([H])[H])C(C([H])([H])[H])(C([H])([H])[H])C([H])([H])[H])C([H])(C(=O)N([H])C2([H])c4c([H])c([H])c([H])c([H])c4C([H])([H])C([H])([H])C2([H])[H])C3([H])[H])c1[H]

$$$$
12:0:0
     RDKit          3D

 94102  0  0  1  0  0  0  0  0999 V2000
  -29.3790  -21.3210   21.3790 C   0  0  0  0  0  2  0  0  0  0  0  0
  -28.5800  -17.8570   20.0320 C   0  0  0  0  0  2  0  0  0  0  0  0
  -28.1300  -19.2240   20.5650 C   0  0  0  0  0  2  0  0  0  0  0  0
  -30.5220  -19.2230   20.6000 C   0  0  0  0  0  2  0  0  0  0  0  0
  -30.1180  -17.7870   20.1910 C   0  0  2  0  0  0  0  0  0  0  0  0
  -29.3250  -20.1640   20.3520 C   0  0  2  0  0  0  0  0  0  0  0  0
  -30.7930  -17.4260   18.8470 C   0  0  0  0  0  1  0  0  0  0  0  0
  -29.3530  -20.7110   18.9030 C   0  0  0  0  0  1  0  0  0  0  0  0
  -30.5470  -16.7880   21.3070 C   0  0  0  0  0  2  0  0  0  0  0  0
  -30.7710  -14.4490   20.4370 C   0  0  0  0  0  0  0  0  0  0  0  0
  -30.4290  -12.3420   19.2110 C   0  0  0  0  0  2  0  0  0  0  0  0
  -29.4870  -12.5960   18.0170 C   0  0  0  0  0  2  0  0  0  0  0  0
  -28.0120  -12.4710   18.4470 C   0  0  0  0  0  2  0  0  0  0  0  0
  -27.6910  -13.2940   19.7250 C   0  0  0  0  0  3  0  0  0  0  0  0
  -28.7390  -13.0140   20.8240 C   0  0  0  0  0  2  0  0  0  0  0  0
  -30.0720  -13.3000   20.2660 N   0  0  0  0  0  0  0  0  0  0  0  0
  -31.8860  -14.6450   19.9470 O   0  0  0  0  0  0  0  0  0  0  0  0
  -30.1030  -15.4140   21.0840 N   0  0  0  0  0  0  0  0  0  0  0  0
  -29.1930  -15.1640   21.4370 H   0  0  0  0  0  0  0  0  0  0  0  0
  -25.2950  -13.9350   20.4140 C   0  0  0  0  0  0  0  0  0  0  0  0
  -24.2180  -13.1780   20.7900 C   0  0  0  0  0  0  0  0  0  0  0  0
  -24.6660  -11.8210   20.7770 C   0  0  0  0  0  0  0  0  0  0  0  0
  -26.3320  -13.0400   20.1990 N   0  0  0  0  0  0  0  0  0  0  0  0
  -25.9560  -11.7650   20.4740 N   0  0  0  0  0  0  0  0  0  0  0  0
  -23.9290  -10.5670   20.9800 C   0  0  0  0  0  0  0  0  0  0  0  0
  -24.3560   -9.6040   21.9210 C   0  0  0  0  0  3  0  0  0  0  0  0
  -23.6200   -8.4140   22.1110 C   0  0  0  0  0  3  0  0  0  0  0  0
  -22.4430   -8.1790   21.3620 C   0  0  0  0  0  0  0  0  0  0  0  0
  -22.0350   -9.1310   20.4110 C   0  0  0  0  0  3  0  0  0  0  0  0
  -22.7700  -10.3120   20.2170 C   0  0  0  0  0  3  0  0  0  0  0  0
  -21.6810   -7.0400   21.4600 O   0  0  0  0  0  0  0  0  0  0  0  0
  -21.6350   -6.3020   22.6150 C   0  0  0  0  0  0  0  0  0  0  0  0
  -21.2350   -6.8690   23.8450 C   0  0  0  0  0  3  0  0  0  0  0  0
  -21.1360   -6.0570   24.9930 C   0  0  0  0  0  3  0  0  0  0  0  0
  -21.4260   -4.6820   24.9120 C   0  0  0  0  0  0  0  0  0  0  0  0
  -21.8170   -4.1160   23.6860 C   0  0  0  0  0  3  0  0  0  0  0  0
  -21.9190   -4.9250   22.5410 C   0  0  0  0  0  0  0  0  0  0  0  0
  -22.2770   -4.3700   21.3560 F   0  0  0  0  0  0  0  0  0  0  0  0
  -21.3240   -3.9010   26.0120 F   0  0  0  0  0  0  0  0  0  0  0  0
  -22.8230  -13.6710   21.0510 C   0  0  0  0  0  0  0  0  0  0  0  0
  -22.0870  -12.9920   21.9240 N   0  0  0  0  0  0  0  0  0  0  0  0
  -22.3940  -14.6930   20.5180 O   0  0  0  0  0  0  0  0  0  0  0  0
  -22.4450  -12.1660   22.3780 H   0  0  0  0  0  0  0  0  0  0  0  0
  -21.1500  -13.3030   22.1390 H   0  0  0  0  0  0  0  0  0  0  0  0
  -25.4760  -15.3020   20.2190 N   0  0  0  0  0  0  0  0  0  0  0  0
  -24.7170  -15.9700   20.3060 H   0  0  0  0  0  0  0  0  0  0  0  0
  -26.3320  -15.7180   19.8780 H   0  0  0  0  0  0  0  0  0  0  0  0
  -28.3750  -22.3770   21.1300 N   0  0  0  0  0  4  0  0  0  0  0  0
  -27.4530  -22.0120   21.3100 H   0  0  0  0  0  0  0  0  0  0  0  0
  -28.4300  -22.6100   20.1530 H   0  0  0  0  0  0  0  0  0  0  0  0
  -28.6020  -23.5880   21.9490 C   0  0  0  0  0  2  0  0  0  0  0  0
  -27.8570  -24.8300   21.4320 C   0  0  0  0  0  2  0  0  0  0  0  0
  -28.4120  -25.3830   20.1020 C   0  0  0  0  0  2  0  0  0  0  0  0
  -28.4110  -26.8070   20.1010 O   0  0  0  0  0  0  0  0  0  0  0  0
  -24.5710  -31.8810   23.2270 C   0  0  0  0  0  0  0  0  0  0  0  0
  -27.2060  -27.4710   20.1130 C   0  0  0  0  0  0  0  0  0  0  0  0
  -23.3570  -30.4850   21.5830 C   0  0  0  0  0  3  0  0  0  0  0  0
  -24.8030  -28.9540   20.1520 C   0  0  0  0  0  0  0  0  0  0  0  0
  -25.8790  -30.8510   21.3770 C   0  0  0  0  0  2  0  0  0  0  0  0
  -25.9610  -29.4840   20.7330 C   0  0  0  0  0  0  0  0  0  0  0  0
  -27.1650  -28.7500   20.7080 C   0  0  0  0  0  3  0  0  0  0  0  0
  -26.0270  -26.9430   19.5380 C   0  0  0  0  0  3  0  0  0  0  0  0
  -24.8290  -27.6820   19.5560 C   0  0  0  0  0  3  0  0  0  0  0  0
  -23.5600  -29.8110   20.2010 C   0  0  0  0  0  2  0  0  0  0  0  0
  -24.6200  -31.0870   22.1220 N   0  0  0  0  0  0  0  0  0  0  0  0
  -23.4920  -32.1530   23.7720 O   0  0  0  0  0  0  0  0  0  0  0  0
  -22.7120  -29.4600   22.5410 C   0  0  0  0  0  0  0  0  0  0  0  0
  -21.3860  -29.2810   22.4170 N   0  0  0  0  0  0  0  0  0  0  0  0
  -23.3970  -28.8290   23.3490 O   0  0  0  0  0  0  0  0  0  0  0  0
  -20.8950  -29.8470   21.7390 H   0  0  0  0  0  0  0  0  0  0  0  0
  -18.0100  -28.0970   22.9130 C   0  0  0  0  0  0  0  0  0  0  0  0
  -20.5690  -28.3420   23.1840 C   0  0  0  0  0  3  0  0  0  0  0  0
  -20.6650  -26.9140   22.6010 C   0  0  0  0  0  2  0  0  0  0  0  0
  -19.5600  -26.6000   21.5860 C   0  0  0  0  0  2  0  0  0  0  0  0
  -18.1800  -26.7490   22.2300 C   0  0  0  0  0  2  0  0  0  0  0  0
  -19.1330  -28.8510   23.3460 C   0  0  0  0  0  0  0  0  0  0  0  0
  -18.9220  -30.1140   23.9410 C   0  0  0  0  0  3  0  0  0  0  0  0
  -17.6200  -30.6210   24.1090 C   0  0  0  0  0  3  0  0  0  0  0  0
  -16.5110  -29.8630   23.6960 C   0  0  0  0  0  3  0  0  0  0  0  0
  -16.7080  -28.6020   23.1030 C   0  0  0  0  0  3  0  0  0  0  0  0
  -25.8620  -32.5060   23.8460 C   0  0  0  0  0  3  0  0  0  0  0  0
  -25.5590  -33.9040   24.1770 N   0  0  0  0  0  0  0  0  0  0  0  0
  -25.8970  -34.9550   23.4180 C   0  0  0  0  0  0  0  0  0  0  0  0
  -26.5680  -34.8500   22.3890 O   0  0  0  0  0  0  0  0  0  0  0  0
  -24.9680  -34.0620   24.9800 H   0  0  0  0  0  0  0  0  0  0  0  0
  -24.1800  -36.7540   23.0490 C   0  0  0  0  0  1  0  0  0  0  0  0
  -25.4110  -36.3450   23.8730 C   0  0  0  0  0  3  0  0  0  0  0  0
  -27.5440  -37.2130   24.7240 C   0  0  0  0  0  1  0  0  0  0  0  0
  -26.4480  -37.3930   23.7730 N   0  0  0  0  0  0  0  0  0  0  0  0
  -26.0460  -38.3140   23.9250 H   0  0  0  0  0  0  0  0  0  0  0  0
  -26.3810  -31.7300   25.1190 C   0  0  1  0  0  0  0  0  0  0  0  0
  -25.2910  -31.4950   26.1910 C   0  0  0  0  0  1  0  0  0  0  0  0
  -26.9560  -30.3510   24.7180 C   0  0  0  0  0  1  0  0  0  0  0  0
  -27.5370  -32.5180   25.7780 C   0  0  0  0  0  1  0  0  0  0  0  0
  2  5  1  0
  2  3  1  0
  5  7  1  6
  5  4  1  0
  5  9  1  0
  6  8  1  6
  6  3  1  0
  6  4  1  0
  6  1  1  0
 10 18  1  0
 11 16  1  0
 12 13  1  0
 12 11  1  0
 14 13  1  0
 14 23  1  0
 14 15  1  0
 16 10  1  0
 16 15  1  0
 17 10  2  0
 18  9  1  0
 18 19  1  0
 20 21  2  0
 21 40  1  0
 22 21  1  0
 22 25  1  0
 23 20  1  0
 23 24  1  0
 24 22  2  0
 25 26  1  0
 26 27  2  0
 28 31  1  0
 28 27  1  0
 29 28  2  0
 30 29  1  0
 30 25  2  0
 31 32  1  0
 32 33  1  0
 33 34  2  0
 35 34  1  0
 35 39  1  0
 36 35  2  0
 37 32  2  0
 37 36  1  0
 38 37  1  0
 40 41  1  0
 41 44  1  0
 41 43  1  0
 42 40  2  0
 45 46  1  0
 45 20  1  0
 47 45  1  0
 48 49  1  0
 48  1  1  0
 48 51  1  0
 50 48  1  0
 52 51  1  0
 53 52  1  0
 54 53  1  0
 54 56  1  0
 55 66  2  0
 56 61  1  0
 57 65  1  0
 57 67  1  0
 58 64  1  0
 58 60  1  0
 59 65  1  0
 60 59  1  0
 61 60  2  0
 62 63  1  0
 62 56  2  0
 63 58  2  0
 64 57  1  0
 65 55  1  0
 67 69  2  0
 68 67  1  0
 70 68  1  0
 71 80  2  0
 71 76  1  0
 72 68  1  0
 72 76  1  0
 73 72  1  0
 74 75  1  0
 74 73  1  0
 75 71  1  0
 76 77  2  0
 77 78  1  0
 79 78  2  0
 80 79  1  0
 81 55  1  0
 81 82  1  0
 81 91  1  0
 82 85  1  0
 83 87  1  0
 83 82  1  0
 84 83  2  0
 87 86  1  0
 89 87  1  0
 89 90  1  0
 89 88  1  0
 91 94  1  1
 91 92  1  0
 93 91  1  0
M  ISO  4  10 100  18 100  53 101  54 101
M  END
>  <TORSDO>  (13) 
F 22

>  <SCORE>  (13) 
-13.411

>  <name>  (13) 
12

>  <ligand_id>  (13) 
12

>  <original_smiles>  (13) 
[H]c1c([H])c([H])c2c(c1[H])C([H])([H])C([H])([H])C([H])([H])C2([H])N([H])C(=O)C1([H])N(C(=O)C([H])(N([H])C(=O)C([H])(N([H])C([H])([H])[H])C([H])([H])[H])C(C([H])([H])[H])(C([H])([H])[H])C([H])([H])[H])C([H])([H])c2c([H])c(OC([H])([H])C([H])([H])C([H])([H])[N+]([H])([H])C([H])([H])C3(C([H])([H])[H])C([H])([H])C([H])([H])C(C([H])([H])[H])(C([H])([H])N([H])C(=O)N4C([H])([H])C([H])([H])C([H])([H])C([H])(n5nc(-c6c([H])c([H])c(Oc7c([H])c([H])c(F)c([H])c7F)c([H])c6[H])c(C(=O)N([H])[H])c5N([H])[H])C4([H])[H])C3([H])[H])c([H])c([H])c2C1([H])[H]

>  <smiles>  (13) 
[H]c1c([H])c([H])c2c(c1[H])C([H])([H])C([H])([H])C([H])([H])C2([H])N([H])C(=O)C1([H])N(C(=O)C([H])(N([H])C(=O)C([H])(N([H])C([H])([H])[H])C([H])([H])[H])C(C([H])([H])[H])(C([H])([H])[H])C([H])([H])[H])C([H])([H])c2c([H])c(OC([H])([H])C([H])([H])C([H])([H])[N+]([H])([H])C([H])([H])C3(C([H])([H])[H])C([H])([H])C([H])([H])C(C([H])([H])[H])(C([H])([H])N([H])C(=O)N4C([H])([H])C([H])([H])C([H])([H])C([H])(n5nc(-c6c([H])c([H])c(Oc7c([H])c([H])c(F)c([H])c7F)c([H])c6[H])c(C(=O)N([H])[H])c5N([H])[H])C4([H])[H])C3([H])[H])c([H])c([H])c2C1([H])[H]

$$$$
13:0:0
     RDKit          3D

 92 97  0  0  1  0  0  0  0  0999 V2000
  -28.3320  -18.7380   19.0080 C   0  0  0  0  0  0  0  0  0  0  0  0
  -27.7990  -20.1640   19.2030 N   0  0  0  0  0  0  0  0  0  0  0  0
  -29.5610  -18.6910   18.9880 O   0  0  0  0  0  0  0  0  0  0  0  0
  -26.7900  -20.1300   19.1330 H   0  0  0  0  0  0  0  0  0  0  0  0
  -27.5880  -17.0750   18.7990 C   0  0  0  0  0  2  0  0  0  0  0  0
  -27.8950  -15.1570   18.5470 C   0  0  0  0  0  1  0  0  0  0  0  0
  -28.1370  -12.8080   16.7530 C   0  0  0  0  0  2  0  0  0  0  0  0
  -27.9580  -11.9620   19.1340 C   0  0  0  0  0  2  0  0  0  0  0  0
  -28.4840  -11.7890   17.7730 C   0  0  0  0  0  3  0  0  0  0  0  0
  -29.0960  -13.1150   17.9350 C   0  0  0  0  0  3  0  0  0  0  0  0
  -28.6000  -13.4140   19.4490 C   0  0  0  0  0  2  0  0  0  0  0  0
  -30.7910  -13.1580   21.9980 C   0  0  0  0  0  3  0  0  0  0  0  0
  -31.0500  -13.1170   19.7610 C   0  0  0  0  0  1  0  0  0  0  0  0
  -30.2570  -14.9920   19.7210 C   0  0  0  0  0 15  0  0  0  0  0  0
  -28.3290  -15.1830   20.9160 C   0  0  0  0  0 15  0  0  0  0  0  0
  -27.4890  -13.5360   21.6620 C   0  0  0  0  0  2  0  0  0  0  0  0
  -28.4900  -12.0090   21.8220 C   0  0  0  0  0  2  0  0  0  0  0  0
  -30.1920  -12.3660   21.1500 N   0  0  1  0  0  4  0  0  0  0  0  0
  -31.7250  -13.9960   22.0410 O   0  0  0  0  0  1  0  0  0  0  0  0
  -29.8080  -13.6080   21.4110 N   0  0  0  0  0  0  0  0  0  0  0  0
  -29.6980  -14.5570   21.7330 H   0  0  0  0  0  0  0  0  0  0  0  0
  -25.0580  -13.8300   21.2480 C   0  0  0  0  0  0  0  0  0  0  0  0
  -24.0230  -12.9640   21.4130 C   0  0  0  0  0  0  0  0  0  0  0  0
  -24.5620  -11.6430   21.4450 C   0  0  0  0  0  0  0  0  0  0  0  0
  -26.1740  -13.0720   21.3180 N   0  0  0  0  0  0  0  0  0  0  0  0
  -25.8750  -11.7340   21.4090 N   0  0  0  0  0  0  0  0  0  0  0  0
  -23.9030  -10.3270   21.5220 C   0  0  0  0  0  0  0  0  0  0  0  0
  -24.2610   -9.3360   22.4670 C   0  0  0  0  0  3  0  0  0  0  0  0
  -23.5520   -8.1140   22.5320 C   0  0  0  0  0  3  0  0  0  0  0  0
  -22.4700   -7.8710   21.6500 C   0  0  0  0  0  0  0  0  0  0  0  0
  -22.1380   -8.8470   20.6950 C   0  0  0  0  0  3  0  0  0  0  0  0
  -22.8480  -10.0570   20.6280 C   0  0  0  0  0  3  0  0  0  0  0  0
  -21.7380   -6.7080   21.6210 O   0  0  0  0  0  0  0  0  0  0  0  0
  -21.5600   -5.9360   22.7410 C   0  0  0  0  0  0  0  0  0  0  0  0
  -20.8680   -6.4160   23.8740 C   0  0  0  0  0  3  0  0  0  0  0  0
  -20.6460   -5.5650   24.9750 C   0  0  0  0  0  3  0  0  0  0  0  0
  -21.1100   -4.2370   24.9460 C   0  0  0  0  0  0  0  0  0  0  0  0
  -21.7930   -3.7540   23.8130 C   0  0  0  0  0  3  0  0  0  0  0  0
  -22.0130   -4.6010   22.7130 C   0  0  0  0  0  0  0  0  0  0  0  0
  -22.6530   -4.1270   21.6180 F   0  0  0  0  0  0  0  0  0  0  0  0
  -20.8890   -3.4170   25.9990 F   0  0  0  0  0  0  0  0  0  0  0  0
  -22.5960  -13.3700   21.5260 C   0  0  0  0  0  0  0  0  0  0  0  0
  -21.8070  -12.6370   22.2990 N   0  0  0  0  0  0  0  0  0  0  0  0
  -22.2010  -14.4010   20.9860 O   0  0  0  0  0  0  0  0  0  0  0  0
  -22.1490  -11.8260   22.7900 H   0  0  0  0  0  0  0  0  0  0  0  0
  -20.8340  -12.8940   22.4040 H   0  0  0  0  0  0  0  0  0  0  0  0
  -25.1600  -15.2050   21.1440 N   0  0  0  0  0  0  0  0  0  0  0  0
  -24.3490  -15.8150   21.1070 H   0  0  0  0  0  0  0  0  0  0  0  0
  -26.0480  -15.6860   21.1180 H   0  0  0  0  0  0  0  0  0  0  0  0
  -28.3540  -21.7950   19.5320 C   0  0  0  0  0  3  0  0  0  0  0  0
  -27.6530  -23.5660   19.6330 C   0  0  0  0  0  3  0  0  0  0  0  0
  -28.0990  -25.2000   20.0140 O   0  0  0  0  0  0  0  0  0  0  0  0
  -24.5560  -31.4850   22.9710 C   0  0  0  0  0  0  0  0  0  0  0  0
  -27.2240  -26.4470   20.0370 C   0  0  0  0  0  0  0  0  0  0  0  0
  -23.4810  -30.0620   21.2950 C   0  0  0  0  0  3  0  0  0  0  0  0
  -25.0010  -28.4450   19.9620 C   0  0  0  0  0  0  0  0  0  0  0  0
  -26.0660  -30.2210   21.3210 C   0  0  0  0  0  2  0  0  0  0  0  0
  -26.1670  -28.7980   20.6530 C   0  0  0  0  0  0  0  0  0  0  0  0
  -27.2840  -27.8160   20.6730 C   0  0  0  0  0  3  0  0  0  0  0  0
  -26.0290  -26.2940   19.3260 C   0  0  0  0  0  3  0  0  0  0  0  0
  -24.9650  -27.2170   19.2920 C   0  0  0  0  0  3  0  0  0  0  0  0
  -23.7990  -29.3880   19.9390 C   0  0  0  0  0  2  0  0  0  0  0  0
  -24.7230  -30.6200   21.9150 N   0  0  0  0  0  0  0  0  0  0  0  0
  -23.4310  -31.7780   23.4110 O   0  0  0  0  0  0  0  0  0  0  0  0
  -22.7340  -29.0670   22.2250 C   0  0  0  0  0  0  0  0  0  0  0  0
  -21.3920  -28.9990   22.1320 N   0  0  0  0  0  0  0  0  0  0  0  0
  -23.3720  -28.3590   23.0100 O   0  0  0  0  0  0  0  0  0  0  0  0
  -20.9290  -29.6270   21.4910 H   0  0  0  0  0  0  0  0  0  0  0  0
  -17.9430  -28.0320   22.7330 C   0  0  0  0  0  0  0  0  0  0  0  0
  -20.5250  -28.0780   22.8800 C   0  0  0  0  0  3  0  0  0  0  0  0
  -20.4810  -26.6850   22.2100 C   0  0  0  0  0  2  0  0  0  0  0  0
  -19.3100  -26.5210   21.2370 C   0  0  0  0  0  2  0  0  0  0  0  0
  -17.9760  -26.7270   21.9580 C   0  0  0  0  0  2  0  0  0  0  0  0
  -19.1380  -28.6760   23.1530 C   0  0  0  0  0  0  0  0  0  0  0  0
  -19.0470  -29.9030   23.8460 C   0  0  0  0  0  3  0  0  0  0  0  0
  -17.7950  -30.4860   24.1150 C   0  0  0  0  0  3  0  0  0  0  0  0
  -16.6140  -29.8410   23.7030 C   0  0  0  0  0  3  0  0  0  0  0  0
  -16.6910  -28.6140   23.0200 C   0  0  0  0  0  3  0  0  0  0  0  0
  -25.7710  -32.1640   23.6710 C   0  0  0  0  0  3  0  0  0  0  0  0
  -25.3990  -33.5590   23.9830 N   0  0  0  0  0  0  0  0  0  0  0  0
  -25.8020  -34.6370   23.2970 C   0  0  0  0  0  0  0  0  0  0  0  0
  -26.5840  -34.5640   22.3470 O   0  0  0  0  0  0  0  0  0  0  0  0
  -24.7100  -33.6870   24.7090 H   0  0  0  0  0  0  0  0  0  0  0  0
  -24.0950  -36.4280   22.8080 C   0  0  0  0  0  1  0  0  0  0  0  0
  -25.2560  -36.0160   23.7290 C   0  0  0  0  0  3  0  0  0  0  0  0
  -27.2760  -36.9260   24.7910 C   0  0  0  0  0  1  0  0  0  0  0  0
  -26.2800  -37.0840   23.7350 N   0  0  0  0  0  0  0  0  0  0  0  0
  -25.8460  -37.9980   23.8400 H   0  0  0  0  0  0  0  0  0  0  0  0
  -26.2110  -31.4190   24.9920 C   0  0  1  0  0  0  0  0  0  0  0  0
  -25.0590  -31.2000   26.0010 C   0  0  0  0  0  1  0  0  0  0  0  0
  -26.8160  -30.0310   24.6770 C   0  0  0  0  0  1  0  0  0  0  0  0
  -27.3240  -32.2250   25.6980 C   0  0  0  0  0  1  0  0  0  0  0  0
  1  2  1  0
  2 50  1  0
  3  1  2  0
  4  2  1  0
  5  1  1  0
  6  5  1  0
  8 11  1  0
  9  7  1  0
  9 10  1  0
  9  8  1  0
 10  7  1  0
 10 11  1  0
 12 19  1  0
 18 13  1  6
 16 17  1  0
 18 20  1  0
 18 17  1  0
 18 12  1  0
 20 21  1  0
 20 12  1  0
 22 25  1  0
 22 23  2  0
 23 24  1  0
 23 42  1  0
 24 27  1  0
 25 26  1  0
 25 16  1  0
 26 24  2  0
 27 28  1  0
 28 29  2  0
 30 29  1  0
 31 30  2  0
 32 31  1  0
 32 27  2  0
 33 30  1  0
 33 34  1  0
 34 35  1  0
 35 36  2  0
 37 36  1  0
 37 41  1  0
 38 37  2  0
 39 34  2  0
 39 38  1  0
 40 39  1  0
 42 43  1  0
 43 46  1  0
 43 45  1  0
 44 42  2  0
 47 22  1  0
 48 47  1  0
 49 47  1  0
 50 51  2  0
 51 52  1  0
 52 54  1  0
 53 64  2  0
 54 59  1  0
 55 63  1  0
 55 65  1  0
 56 58  1  0
 57 63  1  0
 58 59  2  0
 58 57  1  0
 60 54  2  0
 61 60  1  0
 61 56  2  0
 62 56  1  0
 62 55  1  0
 63 53  1  0
 65 67  2  0
 66 65  1  0
 68 66  1  0
 69 78  2  0
 69 74  1  0
 70 66  1  0
 70 74  1  0
 71 70  1  0
 72 73  1  0
 72 71  1  0
 73 69  1  0
 74 75  2  0
 75 76  1  0
 77 76  2  0
 78 77  1  0
 79 53  1  0
 79 80  1  0
 79 89  1  0
 80 83  1  0
 81 85  1  0
 81 80  1  0
 82 81  2  0
 85 84  1  0
 85 87  1  0
 87 88  1  0
 87 86  1  0
 89 92  1  1
 89 90  1  0
 91 89  1  0
M  ISO  4  12 100  20 100  51 101  52 101
M  END
>  <TORSDO>  (14) 
F 21

>  <SCORE>  (14) 
-10.565

>  <name>  (14) 
13

>  <ligand_id>  (14) 
13

>  <original_smiles>  (14) 
[H]c1c([H])c([H])c2c(c1[H])C([H])([H])C([H])([H])C([H])([H])C2([H])N([H])C(=O)C1([H])N(C(=O)C([H])(N([H])C(=O)C([H])(N([H])C([H])([H])[H])C([H])([H])[H])C(C([H])([H])[H])(C([H])([H])[H])C([H])([H])[H])C([H])([H])c2c([H])c(OC([H])([H])C([H])([H])N([H])C(=O)C([H])([H])C([H])([H])C3(N([H])C(=O)N4C([H])([H])C([H])([H])C([H])([H])C([H])(n5nc(-c6c([H])c([H])c(Oc7c([H])c([H])c(F)c([H])c7F)c([H])c6[H])c(C(=O)N([H])[H])c5N([H])[H])C4([H])[H])C([H])([H])C4([H])C([H])([H])C43[H])c([H])c([H])c2C1([H])[H]

>  <smiles>  (14) 
[H]c1c([H])c([H])c2c(c1[H])C([H])([H])C([H])([H])C([H])([H])C2([H])N([H])C(=O)C1([H])N(C(=O)C([H])(N([H])C(=O)C([H])(N([H])C([H])([H])[H])C([H])([H])[H])C(C([H])([H])[H])(C([H])([H])[H])C([H])([H])[H])C([H])([H])c2c([H])c(OC([H])([H])C([H])([H])N([H])C(=O)C([H])([H])C([H])([H])C3(N([H])C(=O)N4C([H])([H])C([H])([H])C([H])([H])C([H])(n5nc(-c6c([H])c([H])c(Oc7c([H])c([H])c(F)c([H])c7F)c([H])c6[H])c(C(=O)N([H])[H])c5N([H])[H])C4([H])[H])C([H])([H])C4([H])C([H])([H])C43[H])c([H])c([H])c2C1([H])[H]

$$$$
14:0:0
     RDKit          3D

 89 98  0  0  1  0  0  0  0  0999 V2000
  -30.9500  -21.6790   21.2440 C   0  0  0  0  0  2  0  0  0  0  0  0
  -29.8490  -20.6800   21.5770 C   0  0  0  0  0  3  0  0  0  0  0  0
  -29.5670  -22.2330   21.5450 C   0  0  0  0  0  3  0  0  0  0  0  0
  -29.0710  -19.8600   20.5040 C   0  0  0  0  0  3  0  0  0  0  0  0
  -28.5260  -22.5920   20.4690 C   0  0  0  0  0  3  0  0  0  0  0  0
  -28.6640  -21.1880   19.6600 N   0  0  0  0  0  4  0  0  0  0  0  0
  -27.8090  -21.0040   19.1590 H   0  0  0  0  0  0  0  0  0  0  0  0
  -29.3750  -21.3180   18.9580 H   0  0  0  0  0  0  0  0  0  0  0  0
  -29.7770  -18.2840   19.9070 C   0  0  0  0  0  2  0  0  0  0  0  0
  -30.4300  -15.3790   20.1630 C   0  0  0  0  0  0  0  0  0  0  0  0
  -30.4020  -12.9250   19.2920 C   0  0  0  0  0  2  0  0  0  0  0  0
  -29.4720  -12.7130   18.0700 C   0  0  0  0  0  2  0  0  0  0  0  0
  -28.0340  -12.4230   18.5290 C   0  0  0  0  0  2  0  0  0  0  0  0
  -27.5880  -13.3880   19.6560 C   0  0  0  0  0  3  0  0  0  0  0  0
  -28.6460  -13.5470   20.7730 C   0  0  0  0  0  2  0  0  0  0  0  0
  -29.8690  -14.0630   20.1380 N   0  0  0  0  0  0  0  0  0  0  0  0
  -31.6260  -15.3820   19.8390 O   0  0  0  0  0  0  0  0  0  0  0  0
  -29.6790  -16.6560   20.3530 N   0  0  0  0  0  0  0  0  0  0  0  0
  -28.7570  -16.4470   20.7080 H   0  0  0  0  0  0  0  0  0  0  0  0
  -25.2220  -13.9350   20.4290 C   0  0  0  0  0  0  0  0  0  0  0  0
  -24.1680  -13.1530   20.8140 C   0  0  0  0  0  0  0  0  0  0  0  0
  -24.6430  -11.8060   20.7830 C   0  0  0  0  0  0  0  0  0  0  0  0
  -26.2660  -13.0650   20.1790 N   0  0  0  0  0  0  0  0  0  0  0  0
  -25.9310  -11.7780   20.4590 N   0  0  0  0  0  0  0  0  0  0  0  0
  -23.9230  -10.5410   20.9850 C   0  0  0  0  0  0  0  0  0  0  0  0
  -24.3680   -9.5780   21.9180 C   0  0  0  0  0  3  0  0  0  0  0  0
  -23.6460   -8.3800   22.1090 C   0  0  0  0  0  3  0  0  0  0  0  0
  -22.4650   -8.1370   21.3690 C   0  0  0  0  0  0  0  0  0  0  0  0
  -22.0400   -9.0880   20.4240 C   0  0  0  0  0  3  0  0  0  0  0  0
  -22.7630  -10.2770   20.2310 C   0  0  0  0  0  3  0  0  0  0  0  0
  -21.7140   -6.9900   21.4700 O   0  0  0  0  0  0  0  0  0  0  0  0
  -21.6810   -6.2500   22.6250 C   0  0  0  0  0  0  0  0  0  0  0  0
  -21.2670   -6.8060   23.8550 C   0  0  0  0  0  3  0  0  0  0  0  0
  -21.1810   -5.9930   25.0030 C   0  0  0  0  0  3  0  0  0  0  0  0
  -21.5000   -4.6240   24.9200 C   0  0  0  0  0  0  0  0  0  0  0  0
  -21.9060   -4.0670   23.6950 C   0  0  0  0  0  3  0  0  0  0  0  0
  -21.9940   -4.8780   22.5500 C   0  0  0  0  0  0  0  0  0  0  0  0
  -22.3660   -4.3320   21.3670 F   0  0  0  0  0  0  0  0  0  0  0  0
  -21.4110   -3.8400   26.0200 F   0  0  0  0  0  0  0  0  0  0  0  0
  -22.7720  -13.6250   21.0910 C   0  0  0  0  0  0  0  0  0  0  0  0
  -22.0530  -12.9330   21.9660 N   0  0  0  0  0  0  0  0  0  0  0  0
  -22.3280  -14.6460   20.5670 O   0  0  0  0  0  0  0  0  0  0  0  0
  -22.4250  -12.1090   22.4150 H   0  0  0  0  0  0  0  0  0  0  0  0
  -21.1150  -13.2340   22.1910 H   0  0  0  0  0  0  0  0  0  0  0  0
  -25.3730  -15.3060   20.2400 N   0  0  0  0  0  0  0  0  0  0  0  0
  -24.5930  -15.9450   20.3400 H   0  0  0  0  0  0  0  0  0  0  0  0
  -26.1960  -15.7440   19.8470 H   0  0  0  0  0  0  0  0  0  0  0  0
  -28.2120  -24.2850   19.8450 C   0  0  0  0  0  2  0  0  0  0  0  0
  -28.2250  -25.8750   20.3460 O   0  0  0  0  0  0  0  0  0  0  0  0
  -24.6390  -31.8760   23.2100 C   0  0  0  0  0  0  0  0  0  0  0  0
  -27.2150  -26.9780   20.2170 C   0  0  0  0  0  0  0  0  0  0  0  0
  -23.4540  -30.4730   21.5690 C   0  0  0  0  0  3  0  0  0  0  0  0
  -24.9130  -28.8680   20.1510 C   0  0  0  0  0  0  0  0  0  0  0  0
  -26.0210  -30.6840   21.4350 C   0  0  0  0  0  2  0  0  0  0  0  0
  -26.0960  -29.2710   20.7820 C   0  0  0  0  0  0  0  0  0  0  0  0
  -27.2350  -28.3450   20.7960 C   0  0  0  0  0  3  0  0  0  0  0  0
  -26.0060  -26.7370   19.5250 C   0  0  0  0  0  3  0  0  0  0  0  0
  -24.8940  -27.6220   19.5010 C   0  0  0  0  0  3  0  0  0  0  0  0
  -23.6900  -29.7860   20.1960 C   0  0  0  0  0  2  0  0  0  0  0  0
  -24.7260  -31.0390   22.1250 N   0  0  0  0  0  0  0  0  0  0  0  0
  -23.5470  -32.1670   23.7230 O   0  0  0  0  0  0  0  0  0  0  0  0
  -22.7580  -29.4790   22.5360 C   0  0  0  0  0  0  0  0  0  0  0  0
  -21.4250  -29.3220   22.4150 N   0  0  0  0  0  0  0  0  0  0  0  0
  -23.4210  -28.8500   23.3630 O   0  0  0  0  0  0  0  0  0  0  0  0
  -20.9410  -29.8820   21.7270 H   0  0  0  0  0  0  0  0  0  0  0  0
  -18.0360  -28.1350   22.9360 C   0  0  0  0  0  0  0  0  0  0  0  0
  -20.6000  -28.3860   23.1870 C   0  0  0  0  0  3  0  0  0  0  0  0
  -20.6910  -26.9570   22.6060 C   0  0  0  0  0  2  0  0  0  0  0  0
  -19.5820  -26.6440   21.5960 C   0  0  0  0  0  2  0  0  0  0  0  0
  -18.2040  -26.7900   22.2490 C   0  0  0  0  0  2  0  0  0  0  0  0
  -19.1620  -28.8900   23.3620 C   0  0  0  0  0  0  0  0  0  0  0  0
  -18.9500  -30.1480   23.9690 C   0  0  0  0  0  3  0  0  0  0  0  0
  -17.6470  -30.6490   24.1540 C   0  0  0  0  0  3  0  0  0  0  0  0
  -16.5380  -29.8910   23.7400 C   0  0  0  0  0  3  0  0  0  0  0  0
  -16.7330  -28.6350   23.1380 C   0  0  0  0  0  3  0  0  0  0  0  0
  -25.9050  -32.5220   23.8480 C   0  0  0  0  0  3  0  0  0  0  0  0
  -25.5840  -33.9230   24.1730 N   0  0  0  0  0  0  0  0  0  0  0  0
  -25.9170  -34.9830   23.4230 C   0  0  0  0  0  0  0  0  0  0  0  0
  -26.5870  -34.8820   22.3930 O   0  0  0  0  0  0  0  0  0  0  0  0
  -24.9860  -34.0730   24.9720 H   0  0  0  0  0  0  0  0  0  0  0  0
  -24.1860  -36.7820   23.0890 C   0  0  0  0  0  1  0  0  0  0  0  0
  -25.4330  -36.3710   23.8880 C   0  0  0  0  0  3  0  0  0  0  0  0
  -27.5720  -37.2610   24.7060 C   0  0  0  0  0  1  0  0  0  0  0  0
  -26.4640  -37.4270   23.7690 N   0  0  0  0  0  0  0  0  0  0  0  0
  -26.0580  -38.3470   23.9190 H   0  0  0  0  0  0  0  0  0  0  0  0
  -26.4000  -31.7640   25.1410 C   0  0  1  0  0  0  0  0  0  0  0  0
  -25.2910  -31.5440   26.1970 C   0  0  0  0  0  1  0  0  0  0  0  0
  -26.9850  -30.3790   24.7830 C   0  0  0  0  0  1  0  0  0  0  0  0
  -27.5430  -32.5630   25.8110 C   0  0  0  0  0  1  0  0  0  0  0  0
  2  1  1  0
  3  1  1  0
  3  2  1  0
  4  9  1  0
  4  2  1  0
  5 48  1  0
  5  3  1  0
  6  5  1  0
  6  4  1  0
  7  6  1  0
  8  6  1  0
  9 18  1  0
 10 18  1  0
 11 16  1  0
 12 13  1  0
 12 11  1  0
 14 13  1  0
 14 23  1  0
 14 15  1  0
 16 10  1  0
 16 15  1  0
 17 10  2  0
 18 19  1  0
 20 21  2  0
 21 40  1  0
 22 21  1  0
 22 25  1  0
 23 20  1  0
 23 24  1  0
 24 22  2  0
 25 26  1  0
 26 27  2  0
 28 31  1  0
 28 27  1  0
 29 28  2  0
 30 29  1  0
 30 25  2  0
 31 32  1  0
 32 33  1  0
 33 34  2  0
 35 34  1  0
 35 39  1  0
 36 35  2  0
 37 32  2  0
 37 36  1  0
 38 37  1  0
 40 41  1  0
 41 44  1  0
 41 43  1  0
 42 40  2  0
 45 46  1  0
 45 20  1  0
 47 45  1  0
 48 49  1  0
 50 61  2  0
 51 49  1  0
 51 56  1  0
 52 60  1  0
 52 62  1  0
 53 59  1  0
 53 55  1  0
 54 60  1  0
 55 56  2  0
 55 54  1  0
 57 51  2  0
 58 57  1  0
 58 53  2  0
 59 52  1  0
 60 50  1  0
 62 64  2  0
 63 62  1  0
 65 63  1  0
 66 75  2  0
 66 71  1  0
 67 63  1  0
 67 71  1  0
 68 67  1  0
 69 70  1  0
 69 68  1  0
 70 66  1  0
 71 72  2  0
 72 73  1  0
 74 73  2  0
 75 74  1  0
 76 50  1  0
 76 77  1  0
 76 86  1  0
 77 80  1  0
 78 82  1  0
 78 77  1  0
 79 78  2  0
 82 81  1  0
 84 82  1  0
 84 85  1  0
 84 83  1  0
 86 89  1  1
 86 87  1  0
 88 86  1  0
M  ISO  4  10 100  18 100  48 101  49 101
M  END
>  <TORSDO>  (15) 
F 18

>  <SCORE>  (15) 
-16.695

>  <name>  (15) 
14

>  <ligand_id>  (15) 
14

>  <original_smiles>  (15) 
[H]c1c([H])c([H])c2c(c1[H])C([H])([H])C([H])([H])C([H])([H])C2([H])N([H])C(=O)C1([H])N(C(=O)C([H])(N([H])C(=O)C([H])(N([H])C([H])([H])[H])C([H])([H])[H])C(C([H])([H])[H])(C([H])([H])[H])C([H])([H])[H])C([H])([H])c2c([H])c(OC([H])([H])C3([H])C4([H])C([H])([H])C4([H])C([H])(C([H])([H])N([H])C(=O)N4C([H])([H])C([H])([H])C([H])([H])C([H])(n5nc(-c6c([H])c([H])c(Oc7c([H])c([H])c(F)c([H])c7F)c([H])c6[H])c(C(=O)N([H])[H])c5N([H])[H])C4([H])[H])[N+]3([H])[H])c([H])c([H])c2C1([H])[H]

>  <smiles>  (15) 
[H]c1c([H])c([H])c2c(c1[H])C([H])([H])C([H])([H])C([H])([H])C2([H])N([H])C(=O)C1([H])N(C(=O)C([H])(N([H])C(=O)C([H])(N([H])C([H])([H])[H])C([H])([H])[H])C(C([H])([H])[H])(C([H])([H])[H])C([H])([H])[H])C([H])([H])c2c([H])c(OC([H])([H])C3([H])C4([H])C([H])([H])C4([H])C([H])(C([H])([H])N([H])C(=O)N4C([H])([H])C([H])([H])C([H])([H])C([H])(n5nc(-c6c([H])c([H])c(Oc7c([H])c([H])c(F)c([H])c7F)c([H])c6[H])c(C(=O)N([H])[H])c5N([H])[H])C4([H])[H])[N+]3([H])[H])c([H])c([H])c2C1([H])[H]

$$$$
15:0:0
     RDKit          3D

 93103  0  0  1  0  0  0  0  0999 V2000
  -29.0100  -22.8890   19.7400 C   0  0  0  0  0  3  0  0  0  0  0  0
  -28.4700  -18.7200   21.0620 C   0  0  0  0  0  2  0  0  0  0  0  0
  -30.1130  -20.6690   21.3550 C   0  0  0  0  0  2  0  0  0  0  0  0
  -29.9550  -19.0690   21.3180 C   0  0  1  0  0  0  0  0  0  0  0  0
  -28.8710  -19.5970   19.8470 C   0  0  1  0  0  0  0  0  0  0  0  0
  -30.1150  -18.3590   19.9250 C   0  0  0  0  0  3  0  0  0  0  0  0
  -28.9410  -21.2320   20.4730 C   0  0  2  0  0  0  0  0  0  0  0  0
  -27.6880  -21.4600   21.3760 C   0  0  0  0  0  1  0  0  0  0  0  0
  -30.7610  -15.4390   19.7910 C   0  0  0  0  0  0  0  0  0  0  0  0
  -30.6960  -12.9990   18.9180 C   0  0  0  0  0  2  0  0  0  0  0  0
  -29.6920  -12.7900   17.7560 C   0  0  0  0  0  2  0  0  0  0  0  0
  -28.2760  -12.5200   18.2940 C   0  0  0  0  0  2  0  0  0  0  0  0
  -27.8980  -13.4840   19.4470 C   0  0  0  0  0  3  0  0  0  0  0  0
  -29.0200  -13.6310   20.4960 C   0  0  0  0  0  2  0  0  0  0  0  0
  -30.2040  -14.1330   19.7800 N   0  0  0  0  0  0  0  0  0  0  0  0
  -31.9640  -15.4620   19.4910 O   0  0  0  0  0  0  0  0  0  0  0  0
  -29.9700  -16.6780   19.9370 N   0  0  0  0  0  0  0  0  0  0  0  0
  -29.0110  -16.4170   20.1090 H   0  0  0  0  0  0  0  0  0  0  0  0
  -25.5980  -14.0330   20.4040 C   0  0  0  0  0  0  0  0  0  0  0  0
  -24.5580  -13.2510   20.8230 C   0  0  0  0  0  0  0  0  0  0  0  0
  -25.0060  -11.8990   20.7000 C   0  0  0  0  0  0  0  0  0  0  0  0
  -26.6090  -13.1600   20.0450 N   0  0  0  0  0  0  0  0  0  0  0  0
  -26.2690  -11.8670   20.2890 N   0  0  0  0  0  0  0  0  0  0  0  0
  -24.2800  -10.6360   20.8920 C   0  0  0  0  0  0  0  0  0  0  0  0
  -24.6950   -9.6810   21.8460 C   0  0  0  0  0  3  0  0  0  0  0  0
  -23.9670   -8.4860   22.0260 C   0  0  0  0  0  3  0  0  0  0  0  0
  -22.8090   -8.2350   21.2520 C   0  0  0  0  0  0  0  0  0  0  0  0
  -22.4130   -9.1780   20.2880 C   0  0  0  0  0  3  0  0  0  0  0  0
  -23.1420  -10.3660   20.1050 C   0  0  0  0  0  3  0  0  0  0  0  0
  -22.0540   -7.0910   21.3400 O   0  0  0  0  0  0  0  0  0  0  0  0
  -21.8850   -6.4310   22.5300 C   0  0  0  0  0  0  0  0  0  0  0  0
  -21.3120   -7.0610   23.6570 C   0  0  0  0  0  3  0  0  0  0  0  0
  -21.0900   -6.3270   24.8380 C   0  0  0  0  0  3  0  0  0  0  0  0
  -21.4320   -4.9620   24.8950 C   0  0  0  0  0  0  0  0  0  0  0  0
  -21.9970   -4.3320   23.7730 C   0  0  0  0  0  3  0  0  0  0  0  0
  -22.2200   -5.0630   22.5940 C   0  0  0  0  0  0  0  0  0  0  0  0
  -22.7460   -4.4450   21.5090 F   0  0  0  0  0  0  0  0  0  0  0  0
  -21.2120   -4.2550   26.0280 F   0  0  0  0  0  0  0  0  0  0  0  0
  -23.1910  -13.7280   21.2130 C   0  0  0  0  0  0  0  0  0  0  0  0
  -22.5230  -13.0080   22.1060 N   0  0  0  0  0  0  0  0  0  0  0  0
  -22.7280  -14.7750   20.7620 O   0  0  0  0  0  0  0  0  0  0  0  0
  -22.9120  -12.1620   22.4930 H   0  0  0  0  0  0  0  0  0  0  0  0
  -21.6070  -13.3100   22.4110 H   0  0  0  0  0  0  0  0  0  0  0  0
  -25.7580  -15.4080   20.2690 N   0  0  0  0  0  0  0  0  0  0  0  0
  -24.9930  -16.0520   20.4480 H   0  0  0  0  0  0  0  0  0  0  0  0
  -26.5470  -15.8540   19.8230 H   0  0  0  0  0  0  0  0  0  0  0  0
  -30.4660  -23.1590   19.3040 C   0  0  0  0  0  2  0  0  0  0  0  0
  -30.5690  -24.1620   18.2270 N   0  0  0  0  0  4  0  0  0  0  0  0
  -30.0920  -23.8520   17.4010 H   0  0  0  0  0  0  0  0  0  0  0  0
  -31.5340  -24.3080   17.9870 H   0  0  0  0  0  0  0  0  0  0  0  0
  -30.1820  -25.0440   18.5150 H   0  0  0  0  0  0  0  0  0  0  0  0
  -28.2770  -24.4550   20.2900 C   0  0  0  0  0  2  0  0  0  0  0  0
  -28.4450  -26.0620   19.9840 O   0  0  0  0  0  0  0  0  0  0  0  0
  -24.7070  -31.8760   23.0610 C   0  0  0  0  0  0  0  0  0  0  0  0
  -27.3880  -27.1090   20.0040 C   0  0  0  0  0  0  0  0  0  0  0  0
  -23.5480  -30.4620   21.4140 C   0  0  0  0  0  3  0  0  0  0  0  0
  -25.0350  -28.9100   19.9800 C   0  0  0  0  0  0  0  0  0  0  0  0
  -26.1060  -30.7500   21.2610 C   0  0  0  0  0  2  0  0  0  0  0  0
  -26.2140  -29.3480   20.5960 C   0  0  0  0  0  0  0  0  0  0  0  0
  -27.3870  -28.4710   20.5790 C   0  0  0  0  0  3  0  0  0  0  0  0
  -26.1740  -26.8140   19.3480 C   0  0  0  0  0  3  0  0  0  0  0  0
  -25.0380  -27.6630   19.3350 C   0  0  0  0  0  3  0  0  0  0  0  0
  -23.7930  -29.7970   20.0320 C   0  0  0  0  0  2  0  0  0  0  0  0
  -24.8080  -31.0560   21.9660 N   0  0  0  0  0  0  0  0  0  0  0  0
  -23.6120  -32.1310   23.5880 O   0  0  0  0  0  0  0  0  0  0  0  0
  -22.8850  -29.4380   22.3730 C   0  0  0  0  0  0  0  0  0  0  0  0
  -21.5560  -29.2560   22.2670 N   0  0  0  0  0  0  0  0  0  0  0  0
  -23.5740  -28.8090   23.1810 O   0  0  0  0  0  0  0  0  0  0  0  0
  -21.0510  -29.8150   21.5930 H   0  0  0  0  0  0  0  0  0  0  0  0
  -18.1990  -27.9950   22.8170 C   0  0  0  0  0  0  0  0  0  0  0  0
  -20.7600  -28.2920   23.0350 C   0  0  0  0  0  3  0  0  0  0  0  0
  -20.8690  -26.8720   22.4320 C   0  0  0  0  0  2  0  0  0  0  0  0
  -19.7510  -26.5540   21.4330 C   0  0  0  0  0  2  0  0  0  0  0  0
  -18.3810  -26.6630   22.1080 C   0  0  0  0  0  2  0  0  0  0  0  0
  -19.3150  -28.7660   23.2390 C   0  0  0  0  0  0  0  0  0  0  0  0
  -19.0870  -30.0100   23.8670 C   0  0  0  0  0  3  0  0  0  0  0  0
  -17.7770  -30.4840   24.0730 C   0  0  0  0  0  3  0  0  0  0  0  0
  -16.6770  -29.7100   23.6650 C   0  0  0  0  0  3  0  0  0  0  0  0
  -16.8890  -28.4660   23.0430 C   0  0  0  0  0  3  0  0  0  0  0  0
  -25.9630  -32.5490   23.6960 C   0  0  0  0  0  3  0  0  0  0  0  0
  -26.5040  -31.7770   24.9620 C   0  0  1  0  0  0  0  0  0  0  0  0
  -25.4200  -31.4910   26.0280 C   0  0  0  0  0  1  0  0  0  0  0  0
  -27.1300  -30.4220   24.5600 C   0  0  0  0  0  1  0  0  0  0  0  0
  -27.6280  -32.5990   25.6350 C   0  0  0  0  0  1  0  0  0  0  0  0
  -25.6010  -33.9290   24.0600 N   0  0  0  0  0  0  0  0  0  0  0  0
  -25.8910  -35.0160   23.3340 C   0  0  0  0  0  0  0  0  0  0  0  0
  -26.5550  -34.9650   22.2950 O   0  0  0  0  0  0  0  0  0  0  0  0
  -25.0060  -34.0400   24.8690 H   0  0  0  0  0  0  0  0  0  0  0  0
  -24.1030  -36.7690   23.0550 C   0  0  0  0  0  1  0  0  0  0  0  0
  -25.3670  -36.3770   23.8370 C   0  0  0  0  0  3  0  0  0  0  0  0
  -27.4790  -37.3160   24.6700 C   0  0  0  0  0  1  0  0  0  0  0  0
  -26.3640  -37.4680   23.7390 N   0  0  0  0  0  0  0  0  0  0  0  0
  -25.9290  -38.3690   23.9100 H   0  0  0  0  0  0  0  0  0  0  0  0
  1 47  1  0
  1 52  1  0
  1  7  1  0
  4  2  1  1
  4  3  1  0
  5  6  1  0
  5  7  1  0
  5  2  1  6
  5  4  1  0
  6 17  1  0
  6  4  1  0
  7  3  1  0
  7  8  1  1
  9 17  1  0
 10 15  1  0
 11 12  1  0
 11 10  1  0
 13 12  1  0
 13 22  1  0
 13 14  1  0
 15  9  1  0
 15 14  1  0
 16  9  2  0
 17 18  1  0
 19 20  2  0
 20 39  1  0
 21 20  1  0
 21 24  1  0
 22 23  1  0
 22 19  1  0
 23 21  2  0
 24 25  1  0
 25 26  2  0
 27 30  1  0
 27 26  1  0
 28 27  2  0
 29 28  1  0
 29 24  2  0
 30 31  1  0
 31 36  2  0
 31 32  1  0
 32 33  2  0
 33 34  1  0
 34 38  1  0
 35 34  2  0
 36 35  1  0
 37 36  1  0
 39 40  1  0
 40 43  1  0
 40 42  1  0
 41 39  2  0
 44 19  1  0
 44 45  1  0
 46 44  1  0
 48 51  1  0
 48 47  1  0
 49 48  1  0
 50 48  1  0
 53 55  1  0
 53 52  1  0
 54 65  2  0
 55 60  1  0
 56 64  1  0
 56 66  1  0
 57 63  1  0
 57 59  1  0
 58 64  1  0
 59 58  1  0
 60 59  2  0
 61 55  2  0
 62 61  1  0
 62 57  2  0
 63 56  1  0
 64 54  1  0
 66 68  2  0
 67 66  1  0
 69 67  1  0
 70 79  2  0
 70 75  1  0
 71 67  1  0
 71 75  1  0
 72 71  1  0
 73 74  1  0
 73 72  1  0
 74 70  1  0
 75 76  2  0
 76 77  1  0
 78 77  2  0
 79 78  1  0
 80 54  1  0
 80 85  1  0
 80 81  1  0
 81 84  1  1
 81 82  1  0
 83 81  1  0
 85 88  1  0
 86 90  1  0
 86 85  1  0
 87 86  2  0
 90 89  1  0
 92 90  1  0
 92 93  1  0
 92 91  1  0
M  ISO  4   9 100  17 100  52 101  53 101
M  END
>  <TORSDO>  (16) 
F 20

>  <SCORE>  (16) 
-14.189

>  <name>  (16) 
15

>  <ligand_id>  (16) 
15

>  <original_smiles>  (16) 
[H]c1c([H])c([H])c2c(c1[H])C([H])([H])C([H])([H])C([H])([H])C2([H])N([H])C(=O)C1([H])N(C(=O)C([H])(N([H])C(=O)C([H])(N([H])C([H])([H])[H])C([H])([H])[H])C(C([H])([H])[H])(C([H])([H])[H])C([H])([H])[H])C([H])([H])c2c([H])c(OC([H])([H])C([H])(C3(C([H])([H])[H])C([H])([H])C4([H])C([H])([H])C3([H])C4([H])N([H])C(=O)N3C([H])([H])C([H])([H])C([H])([H])C([H])(n4nc(-c5c([H])c([H])c(Oc6c([H])c([H])c(F)c([H])c6F)c([H])c5[H])c(C(=O)N([H])[H])c4N([H])[H])C3([H])[H])C([H])([H])[N+]([H])([H])[H])c([H])c([H])c2C1([H])[H]

>  <smiles>  (16) 
[H]c1c([H])c([H])c2c(c1[H])C([H])([H])C([H])([H])C([H])([H])C2([H])N([H])C(=O)C1([H])N(C(=O)C([H])(N([H])C(=O)C([H])(N([H])C([H])([H])[H])C([H])([H])[H])C(C([H])([H])[H])(C([H])([H])[H])C([H])([H])[H])C([H])([H])c2c([H])c(OC([H])([H])C([H])(C3(C([H])([H])[H])C([H])([H])C4([H])C([H])([H])C3([H])C4([H])N([H])C(=O)N3C([H])([H])C([H])([H])C([H])([H])C([H])(n4nc(-c5c([H])c([H])c(Oc6c([H])c([H])c(F)c([H])c6F)c([H])c5[H])c(C(=O)N([H])[H])c4N([H])[H])C3([H])[H])C([H])([H])[N+]([H])([H])[H])c([H])c([H])c2C1([H])[H]

$$$$
16:0:0
     RDKit          3D

 91 99  0  0  1  0  0  0  0  0999 V2000
  -30.0440  -22.0080   18.7950 C   0  0  0  0  0  3  0  0  0  0  0  0
  -30.6190  -20.8910   18.1440 C   0  0  0  0  0  0  0  0  0  0  0  0
  -29.5060  -21.9570   20.0900 C   0  0  0  0  0  0  0  0  0  0  0  0
  -30.6060  -19.5820   18.7190 C   0  0  0  0  0  0  0  0  0  0  0  0
  -29.5560  -20.5800   20.7010 C   0  0  0  0  0  0  0  0  0  0  0  0
  -30.0790  -19.3420   20.0250 C   0  0  0  0  0  0  0  0  0  0  0  0
  -31.3700  -21.1670   16.8390 C   0  0  0  0  0  1  0  0  0  0  0  0
  -31.2720  -18.4510   17.9330 C   0  0  0  0  0  1  0  0  0  0  0  0
  -29.1180  -20.4290   22.1590 C   0  0  0  0  0  1  0  0  0  0  0  0
  -29.0900  -23.4390   20.7400 C   0  0  0  0  0  3  0  0  0  0  0  0
  -28.6370  -24.8530   19.8900 C   0  0  0  0  0  3  0  0  0  0  0  0
  -28.5810  -26.3530   20.3510 O   0  0  0  0  0  0  0  0  0  0  0  0
  -24.7710  -31.9070   23.2860 C   0  0  0  0  0  0  0  0  0  0  0  0
  -27.4930  -27.3010   20.2110 C   0  0  0  0  0  0  0  0  0  0  0  0
  -23.6310  -30.5290   21.5900 C   0  0  0  0  0  3  0  0  0  0  0  0
  -25.1360  -29.0140   20.1460 C   0  0  0  0  0  0  0  0  0  0  0  0
  -26.1820  -30.8390   21.4840 C   0  0  0  0  0  2  0  0  0  0  0  0
  -26.2890  -29.4640   20.7980 C   0  0  0  0  0  0  0  0  0  0  0  0
  -27.4620  -28.6250   20.8120 C   0  0  0  0  0  3  0  0  0  0  0  0
  -26.3200  -26.9570   19.5070 C   0  0  0  0  0  3  0  0  0  0  0  0
  -25.1650  -27.7760   19.4780 C   0  0  0  0  0  3  0  0  0  0  0  0
  -23.8950  -29.8930   20.1930 C   0  0  0  0  0  2  0  0  0  0  0  0
  -24.8800  -31.1200   22.1720 N   0  0  0  0  0  0  0  0  0  0  0  0
  -23.6720  -32.1530   23.8030 O   0  0  0  0  0  0  0  0  0  0  0  0
  -22.9540  -29.4840   22.5190 C   0  0  0  0  0  0  0  0  0  0  0  0
  -21.6370  -29.2740   22.3540 N   0  0  0  0  0  0  0  0  0  0  0  0
  -23.6230  -28.8680   23.3530 O   0  0  0  0  0  0  0  0  0  0  0  0
  -21.1590  -29.8270   21.6600 H   0  0  0  0  0  0  0  0  0  0  0  0
  -18.2880  -27.9300   22.7190 C   0  0  0  0  0  0  0  0  0  0  0  0
  -20.8230  -28.2990   23.0870 C   0  0  0  0  0  3  0  0  0  0  0  0
  -21.0050  -26.8780   22.5060 C   0  0  0  0  0  2  0  0  0  0  0  0
  -19.9570  -26.5180   21.4480 C   0  0  0  0  0  2  0  0  0  0  0  0
  -18.5460  -26.6000   22.0360 C   0  0  0  0  0  2  0  0  0  0  0  0
  -19.3570  -28.7360   23.1970 C   0  0  0  0  0  0  0  0  0  0  0  0
  -19.0580  -29.9780   23.7950 C   0  0  0  0  0  3  0  0  0  0  0  0
  -17.7260  -30.4240   23.9070 C   0  0  0  0  0  3  0  0  0  0  0  0
  -16.6730  -29.6170   23.4420 C   0  0  0  0  0  3  0  0  0  0  0  0
  -16.9540  -28.3690   22.8600 C   0  0  0  0  0  3  0  0  0  0  0  0
  -26.0270  -32.5490   23.9530 C   0  0  0  0  0  3  0  0  0  0  0  0
  -26.4750  -31.8140   25.2760 C   0  0  1  0  0  0  0  0  0  0  0  0
  -25.3320  -31.6160   26.3000 C   0  0  0  0  0  1  0  0  0  0  0  0
  -27.0570  -30.4200   24.9540 C   0  0  0  0  0  1  0  0  0  0  0  0
  -27.6020  -32.6210   25.9640 C   0  0  0  0  0  1  0  0  0  0  0  0
  -25.7130  -33.9570   24.2430 N   0  0  0  0  0  0  0  0  0  0  0  0
  -26.0770  -34.9960   23.4780 C   0  0  0  0  0  0  0  0  0  0  0  0
  -26.7820  -34.8670   22.4730 O   0  0  0  0  0  0  0  0  0  0  0  0
  -25.1100  -34.1280   25.0340 H   0  0  0  0  0  0  0  0  0  0  0  0
  -24.3830  -36.7980   23.0250 C   0  0  0  0  0  1  0  0  0  0  0  0
  -25.5870  -36.3980   23.8920 C   0  0  0  0  0  3  0  0  0  0  0  0
  -27.6920  -37.2840   24.8020 C   0  0  0  0  0  1  0  0  0  0  0  0
  -26.6350  -37.4400   23.8030 N   0  0  0  0  0  0  0  0  0  0  0  0
  -26.2330  -38.3690   23.9120 H   0  0  0  0  0  0  0  0  0  0  0  0
  -30.3430  -17.8340   20.7090 C   0  0  0  0  0  2  0  0  0  0  0  0
  -30.8450  -15.1550   20.0460 C   0  0  0  0  0  0  0  0  0  0  0  0
  -30.6730  -12.8140   19.0500 C   0  0  0  0  0  2  0  0  0  0  0  0
  -29.7040  -12.7730   17.8450 C   0  0  0  0  0  2  0  0  0  0  0  0
  -28.2520  -12.5580   18.3120 C   0  0  0  0  0  2  0  0  0  0  0  0
  -27.8730  -13.5020   19.4840 C   0  0  0  0  0  3  0  0  0  0  0  0
  -28.9540  -13.5060   20.5880 C   0  0  0  0  0  2  0  0  0  0  0  0
  -30.2180  -13.9140   19.9520 N   0  0  0  0  0  0  0  0  0  0  0  0
  -32.0570  -15.1990   19.8170 O   0  0  0  0  0  0  0  0  0  0  0  0
  -30.0820  -16.3500   20.1930 N   0  0  0  0  0  0  0  0  0  0  0  0
  -29.0990  -16.1440   20.1450 H   0  0  0  0  0  0  0  0  0  0  0  0
  -25.5160  -14.1170   20.2670 C   0  0  0  0  0  0  0  0  0  0  0  0
  -24.4500  -13.3570   20.6670 C   0  0  0  0  0  0  0  0  0  0  0  0
  -24.8980  -12.0010   20.6350 C   0  0  0  0  0  0  0  0  0  0  0  0
  -26.5420  -13.2220   20.0120 N   0  0  0  0  0  0  0  0  0  0  0  0
  -26.1820  -11.9440   20.3000 N   0  0  0  0  0  0  0  0  0  0  0  0
  -24.1620  -10.7490   20.8460 C   0  0  0  0  0  0  0  0  0  0  0  0
  -24.5750   -9.7970   21.8030 C   0  0  0  0  0  3  0  0  0  0  0  0
  -23.8380   -8.6090   22.0010 C   0  0  0  0  0  3  0  0  0  0  0  0
  -22.6710   -8.3650   21.2390 C   0  0  0  0  0  0  0  0  0  0  0  0
  -22.2760   -9.3030   20.2680 C   0  0  0  0  0  3  0  0  0  0  0  0
  -23.0170  -10.4800   20.0700 C   0  0  0  0  0  3  0  0  0  0  0  0
  -21.9100   -7.2260   21.3400 O   0  0  0  0  0  0  0  0  0  0  0  0
  -21.8100   -6.5260   22.5150 C   0  0  0  0  0  0  0  0  0  0  0  0
  -21.2940   -7.1130   23.6900 C   0  0  0  0  0  3  0  0  0  0  0  0
  -21.1480   -6.3400   24.8590 C   0  0  0  0  0  3  0  0  0  0  0  0
  -21.5070   -4.9790   24.8540 C   0  0  0  0  0  0  0  0  0  0  0  0
  -22.0170   -4.3900   23.6830 C   0  0  0  0  0  3  0  0  0  0  0  0
  -22.1650   -5.1610   22.5160 C   0  0  0  0  0  0  0  0  0  0  0  0
  -22.6360   -4.5810   21.3870 F   0  0  0  0  0  0  0  0  0  0  0  0
  -21.3580   -4.2350   25.9740 F   0  0  0  0  0  0  0  0  0  0  0  0
  -23.0620  -13.8520   20.9590 C   0  0  0  0  0  0  0  0  0  0  0  0
  -22.3430  -13.1760   21.8470 N   0  0  0  0  0  0  0  0  0  0  0  0
  -22.6230  -14.8770   20.4350 O   0  0  0  0  0  0  0  0  0  0  0  0
  -22.7040  -12.3500   22.2980 H   0  0  0  0  0  0  0  0  0  0  0  0
  -21.4120  -13.4920   22.0860 H   0  0  0  0  0  0  0  0  0  0  0  0
  -25.6850  -15.4880   20.0720 N   0  0  0  0  0  0  0  0  0  0  0  0
  -24.9050  -16.1350   20.1620 H   0  0  0  0  0  0  0  0  0  0  0  0
  -26.5110  -15.9260   19.6870 H   0  0  0  0  0  0  0  0  0  0  0  0
  1  3  1  0
  2  4  1  0
  2  1  2  0
  3  5  2  0
  3 10  1  0
  4  6  2  0
  5  9  1  0
  6  5  1  0
  6 53  1  0
  7  2  1  0
  8  4  1  0
 11 12  1  0
 11 10  2  0
 13 24  2  0
 14 12  1  0
 14 19  1  0
 15 23  1  0
 15 25  1  0
 16 22  1  0
 16 18  1  0
 17 23  1  0
 18 19  2  0
 18 17  1  0
 20 14  2  0
 21 20  1  0
 21 16  2  0
 22 15  1  0
 23 13  1  0
 25 27  2  0
 26 25  1  0
 28 26  1  0
 29 38  2  0
 29 34  1  0
 30 26  1  0
 30 34  1  0
 31 30  1  0
 32 33  1  0
 32 31  1  0
 33 29  1  0
 34 35  2  0
 35 36  1  0
 37 36  2  0
 38 37  1  0
 39 13  1  0
 39 44  1  0
 39 40  1  0
 40 43  1  1
 40 41  1  0
 42 40  1  0
 44 47  1  0
 45 49  1  0
 45 44  1  0
 46 45  2  0
 49 48  1  0
 51 49  1  0
 51 52  1  0
 51 50  1  0
 54 62  1  0
 55 60  1  0
 56 57  1  0
 56 55  1  0
 58 57  1  0
 58 67  1  0
 58 59  1  0
 60 54  1  0
 60 59  1  0
 61 54  2  0
 62 53  1  0
 63 62  1  0
 64 65  2  0
 65 84  1  0
 66 65  1  0
 66 69  1  0
 67 64  1  0
 67 68  1  0
 68 66  2  0
 69 70  1  0
 70 71  2  0
 72 75  1  0
 72 71  1  0
 73 72  2  0
 74 73  1  0
 74 69  2  0
 75 76  1  0
 76 81  2  0
 76 77  1  0
 77 78  2  0
 79 78  1  0
 79 83  1  0
 80 79  2  0
 81 80  1  0
 82 81  1  0
 84 85  1  0
 85 88  1  0
 85 87  1  0
 86 84  2  0
 89 90  1  0
 89 64  1  0
 91 89  1  0
M  ISO  4  11 101  12 101  54 100  62 100
M  END
>  <TORSDO>  (17) 
F 19

>  <SCORE>  (17) 
-13.719

>  <name>  (17) 
16

>  <ligand_id>  (17) 
16

>  <original_smiles>  (17) 
[H]c1c([H])c([H])c2c(c1[H])C([H])([H])C([H])([H])C([H])([H])C2([H])N([H])C(=O)C1([H])N(C(=O)C([H])(N([H])C(=O)C([H])(N([H])C([H])([H])[H])C([H])([H])[H])C(C([H])([H])[H])(C([H])([H])[H])C([H])([H])[H])C([H])([H])c2c([H])c(OC([H])([H])C([H])([H])c3c([H])c(C([H])([H])[H])c(C([H])([H])[H])c(C([H])([H])N([H])C(=O)N4C([H])([H])C([H])([H])C([H])([H])C([H])(n5nc(-c6c([H])c([H])c(Oc7c([H])c([H])c(F)c([H])c7F)c([H])c6[H])c(C(=O)N([H])[H])c5N([H])[H])C4([H])[H])c3C([H])([H])[H])c([H])c([H])c2C1([H])[H]

>  <smiles>  (17) 
[H]c1c([H])c([H])c2c(c1[H])C([H])([H])C([H])([H])C([H])([H])C2([H])N([H])C(=O)C1([H])N(C(=O)C([H])(N([H])C(=O)C([H])(N([H])C([H])([H])[H])C([H])([H])[H])C(C([H])([H])[H])(C([H])([H])[H])C([H])([H])[H])C([H])([H])c2c([H])c(OC([H])([H])C([H])([H])c3c([H])c(C([H])([H])[H])c(C([H])([H])[H])c(C([H])([H])N([H])C(=O)N4C([H])([H])C([H])([H])C([H])([H])C([H])(n5nc(-c6c([H])c([H])c(Oc7c([H])c([H])c(F)c([H])c7F)c([H])c6[H])c(C(=O)N([H])[H])c5N([H])[H])C4([H])[H])c3C([H])([H])[H])c([H])c([H])c2C1([H])[H]

$$$$
17:0:0
     RDKit          3D

 90100  0  0  1  0  0  0  0  0999 V2000
  -27.3750  -21.3430   18.8710 C   0  0  0  0  0  2  0  0  0  0  0  0
  -28.3130  -20.4180   19.0860 C   0  0  0  0  0  3  0  0  0  0  0  0
  -28.4820  -18.9500   18.8020 C   0  0  0  0  0  2  0  0  0  0  0  0
  -27.4620  -22.3940   19.9130 C   0  0  0  0  0  3  0  0  0  0  0  0
  -29.3230  -20.5750   20.1680 C   0  0  0  0  0  3  0  0  0  0  0  0
  -28.6670  -22.0010   20.7380 C   0  0  0  0  0  3  0  0  0  0  0  0
  -29.0220  -18.9010   20.2670 C   0  0  0  0  0  3  0  0  0  0  0  0
  -28.4940  -23.5130   20.0540 C   0  0  0  0  0  3  0  0  0  0  0  0
  -27.9360  -24.7900   20.7700 N   0  0  0  0  0  0  0  0  0  0  0  0
  -26.9200  -24.7540   20.7750 H   0  0  0  0  0  0  0  0  0  0  0  0
  -28.2760  -26.2120   20.1710 O   0  0  0  0  0  0  0  0  0  0  0  0
  -24.6180  -31.8730   23.2130 C   0  0  0  0  0  0  0  0  0  0  0  0
  -27.2120  -27.1760   20.1960 C   0  0  0  0  0  0  0  0  0  0  0  0
  -23.4250  -30.4690   21.5780 C   0  0  0  0  0  3  0  0  0  0  0  0
  -24.8790  -28.8930   20.1620 C   0  0  0  0  0  0  0  0  0  0  0  0
  -25.9750  -30.7460   21.4110 C   0  0  0  0  0  2  0  0  0  0  0  0
  -26.0540  -29.3500   20.7740 C   0  0  0  0  0  0  0  0  0  0  0  0
  -27.2240  -28.5010   20.7830 C   0  0  0  0  0  3  0  0  0  0  0  0
  -26.0200  -26.8180   19.5390 C   0  0  0  0  0  3  0  0  0  0  0  0
  -24.8710  -27.6380   19.5300 C   0  0  0  0  0  3  0  0  0  0  0  0
  -23.6470  -29.7860   20.2020 C   0  0  0  0  0  2  0  0  0  0  0  0
  -24.6930  -31.0520   22.1210 N   0  0  0  0  0  0  0  0  0  0  0  0
  -23.5310  -32.1550   23.7380 O   0  0  0  0  0  0  0  0  0  0  0  0
  -22.7500  -29.4630   22.5440 C   0  0  0  0  0  0  0  0  0  0  0  0
  -21.4200  -29.2950   22.4250 N   0  0  0  0  0  0  0  0  0  0  0  0
  -23.4240  -28.8340   23.3650 O   0  0  0  0  0  0  0  0  0  0  0  0
  -20.9320  -29.8540   21.7390 H   0  0  0  0  0  0  0  0  0  0  0  0
  -18.0430  -28.0790   22.9280 C   0  0  0  0  0  0  0  0  0  0  0  0
  -20.6030  -28.3510   23.1900 C   0  0  0  0  0  3  0  0  0  0  0  0
  -20.7140  -26.9210   22.6070 C   0  0  0  0  0  2  0  0  0  0  0  0
  -19.6040  -26.5930   21.6040 C   0  0  0  0  0  2  0  0  0  0  0  0
  -18.2280  -26.7240   22.2650 C   0  0  0  0  0  2  0  0  0  0  0  0
  -19.1600  -28.8490   23.3490 C   0  0  0  0  0  0  0  0  0  0  0  0
  -18.9360  -30.1140   23.9380 C   0  0  0  0  0  3  0  0  0  0  0  0
  -17.6280  -30.6070   24.1080 C   0  0  0  0  0  3  0  0  0  0  0  0
  -16.5270  -29.8340   23.7000 C   0  0  0  0  0  3  0  0  0  0  0  0
  -16.7350  -28.5720   23.1140 C   0  0  0  0  0  3  0  0  0  0  0  0
  -25.8940  -32.5160   23.8380 C   0  0  0  0  0  3  0  0  0  0  0  0
  -25.5780  -33.9150   24.1600 N   0  0  0  0  0  0  0  0  0  0  0  0
  -25.9090  -34.9710   23.4040 C   0  0  0  0  0  0  0  0  0  0  0  0
  -26.5810  -34.8680   22.3740 O   0  0  0  0  0  0  0  0  0  0  0  0
  -24.9850  -34.0670   24.9640 H   0  0  0  0  0  0  0  0  0  0  0  0
  -24.1830  -36.7680   23.0470 C   0  0  0  0  0  1  0  0  0  0  0  0
  -25.4210  -36.3590   23.8600 C   0  0  0  0  0  3  0  0  0  0  0  0
  -27.5520  -37.2460   24.7020 C   0  0  0  0  0  1  0  0  0  0  0  0
  -26.4550  -37.4130   23.7530 N   0  0  0  0  0  0  0  0  0  0  0  0
  -26.0480  -38.3340   23.8930 H   0  0  0  0  0  0  0  0  0  0  0  0
  -26.4030  -31.7550   25.1240 C   0  0  1  0  0  0  0  0  0  0  0  0
  -25.3040  -31.5280   26.1880 C   0  0  0  0  0  1  0  0  0  0  0  0
  -26.9870  -30.3730   24.7530 C   0  0  0  0  0  1  0  0  0  0  0  0
  -27.5500  -32.5540   25.7870 C   0  0  0  0  0  1  0  0  0  0  0  0
  -30.0860  -17.6350   20.5430 C   0  0  0  0  0  2  0  0  0  0  0  0
  -30.5160  -14.9410   20.3380 C   0  0  0  0  0  0  0  0  0  0  0  0
  -30.3970  -12.6060   19.3770 C   0  0  0  0  0  2  0  0  0  0  0  0
  -29.4640  -12.5980   18.1440 C   0  0  0  0  0  2  0  0  0  0  0  0
  -28.0030  -12.3770   18.5790 C   0  0  0  0  0  2  0  0  0  0  0  0
  -27.5970  -13.2900   19.7670 C   0  0  0  0  0  3  0  0  0  0  0  0
  -28.6520  -13.2860   20.8920 C   0  0  0  0  0  2  0  0  0  0  0  0
  -29.9250  -13.6870   20.2850 N   0  0  0  0  0  0  0  0  0  0  0  0
  -31.7180  -15.0220   20.0630 O   0  0  0  0  0  0  0  0  0  0  0  0
  -29.7230  -16.1030   20.5030 N   0  0  0  0  0  0  0  0  0  0  0  0
  -28.7480  -15.9010   20.6670 H   0  0  0  0  0  0  0  0  0  0  0  0
  -25.2190  -13.8580   20.5180 C   0  0  0  0  0  0  0  0  0  0  0  0
  -24.1610  -13.0770   20.8910 C   0  0  0  0  0  0  0  0  0  0  0  0
  -24.6310  -11.7280   20.8520 C   0  0  0  0  0  0  0  0  0  0  0  0
  -26.2630  -12.9840   20.2690 N   0  0  0  0  0  0  0  0  0  0  0  0
  -25.9210  -11.6990   20.5390 N   0  0  0  0  0  0  0  0  0  0  0  0
  -23.9120  -10.4610   21.0420 C   0  0  0  0  0  0  0  0  0  0  0  0
  -24.3510   -9.4940   21.9730 C   0  0  0  0  0  3  0  0  0  0  0  0
  -23.6290   -8.2940   22.1510 C   0  0  0  0  0  3  0  0  0  0  0  0
  -22.4560   -8.0520   21.3990 C   0  0  0  0  0  0  0  0  0  0  0  0
  -22.0380   -9.0070   20.4570 C   0  0  0  0  0  3  0  0  0  0  0  0
  -22.7580  -10.2000   20.2770 C   0  0  0  0  0  3  0  0  0  0  0  0
  -21.7070   -6.9040   21.4840 O   0  0  0  0  0  0  0  0  0  0  0  0
  -21.6600   -6.1600   22.6350 C   0  0  0  0  0  0  0  0  0  0  0  0
  -21.2200   -6.7090   23.8590 C   0  0  0  0  0  3  0  0  0  0  0  0
  -21.1210   -5.8910   25.0020 C   0  0  0  0  0  3  0  0  0  0  0  0
  -21.4520   -4.5250   24.9220 C   0  0  0  0  0  0  0  0  0  0  0  0
  -21.8830   -3.9760   23.7010 C   0  0  0  0  0  3  0  0  0  0  0  0
  -21.9840   -4.7910   22.5610 C   0  0  0  0  0  0  0  0  0  0  0  0
  -22.3810   -4.2510   21.3830 F   0  0  0  0  0  0  0  0  0  0  0  0
  -21.3500   -3.7370   26.0190 F   0  0  0  0  0  0  0  0  0  0  0  0
  -22.7630  -13.5480   21.1660 C   0  0  0  0  0  0  0  0  0  0  0  0
  -22.0400  -12.8440   22.0290 N   0  0  0  0  0  0  0  0  0  0  0  0
  -22.3210  -14.5740   20.6500 O   0  0  0  0  0  0  0  0  0  0  0  0
  -22.4150  -12.0130   22.4640 H   0  0  0  0  0  0  0  0  0  0  0  0
  -21.1020  -13.1410   22.2600 H   0  0  0  0  0  0  0  0  0  0  0  0
  -25.3770  -15.2290   20.3380 N   0  0  0  0  0  0  0  0  0  0  0  0
  -24.6060  -15.8810   20.4400 H   0  0  0  0  0  0  0  0  0  0  0  0
  -26.2090  -15.6610   19.9580 H   0  0  0  0  0  0  0  0  0  0  0  0
  1  2  1  0
  2  3  1  0
  2  5  1  0
  3  7  1  0
  4  1  1  0
  4  8  1  0
  4  6  1  0
  5  7  1  0
  5  6  1  0
  7 52  1  0
  8  6  1  0
  8  9  1  0
  9 10  1  0
 11 13  1  0
 11  9  1  0
 12 23  2  0
 12 38  1  0
 13 18  1  0
 14 22  1  0
 14 24  1  0
 15 21  1  0
 15 17  1  0
 16 22  1  0
 17 18  2  0
 17 16  1  0
 19 13  2  0
 20 19  1  0
 20 15  2  0
 21 14  1  0
 22 12  1  0
 24 26  2  0
 25 24  1  0
 25 29  1  0
 27 25  1  0
 28 37  2  0
 28 33  1  0
 29 33  1  0
 30 29  1  0
 31 32  1  0
 31 30  1  0
 32 28  1  0
 33 34  2  0
 34 35  1  0
 36 35  2  0
 37 36  1  0
 38 39  1  0
 38 48  1  0
 39 42  1  0
 40 44  1  0
 40 39  1  0
 41 40  2  0
 43 44  1  0
 46 44  1  0
 46 47  1  0
 46 45  1  0
 48 51  1  1
 48 49  1  0
 50 48  1  0
 53 61  1  0
 54 59  1  0
 55 56  1  0
 55 54  1  0
 56 57  1  0
 57 66  1  0
 57 58  1  0
 59 53  1  0
 59 58  1  0
 60 53  2  0
 61 52  1  0
 61 62  1  0
 63 64  2  0
 64 83  1  0
 65 64  1  0
 65 68  1  0
 66 63  1  0
 66 67  1  0
 67 65  2  0
 68 69  1  0
 69 70  2  0
 71 74  1  0
 71 70  1  0
 72 71  2  0
 73 72  1  0
 73 68  2  0
 74 75  1  0
 75 76  1  0
 76 77  2  0
 78 77  1  0
 78 82  1  0
 79 78  2  0
 80 75  2  0
 80 79  1  0
 81 80  1  0
 83 84  1  0
 84 87  1  0
 84 86  1  0
 85 83  2  0
 88 89  1  0
 88 63  1  0
 90 88  1  0
M  ISO  4   9 101  11 101  53 100  61 100
M  END
>  <TORSDO>  (18) 
F 18

>  <SCORE>  (18) 
-14.713

>  <name>  (18) 
17

>  <ligand_id>  (18) 
17

>  <original_smiles>  (18) 
[H]C1=C2C([H])([H])C([H])(C([H])([H])N([H])C(=O)N3C([H])([H])C([H])([H])C([H])([H])C([H])(n4nc(-c5c([H])c([H])c(Oc6c([H])c([H])c(F)c([H])c6F)c([H])c5[H])c(C(=O)N([H])[H])c4N([H])[H])C3([H])[H])C2([H])C2([H])C1([H])C2([H])N([H])Oc1c([H])c([H])c2c(c1[H])C([H])([H])N(C(=O)C([H])(N([H])C(=O)C([H])(N([H])C([H])([H])[H])C([H])([H])[H])C(C([H])([H])[H])(C([H])([H])[H])C([H])([H])[H])C([H])(C(=O)N([H])C1([H])c3c([H])c([H])c([H])c([H])c3C([H])([H])C([H])([H])C1([H])[H])C2([H])[H]

>  <smiles>  (18) 
[H]C1=C2C([H])([H])C([H])(C([H])([H])N([H])C(=O)N3C([H])([H])C([H])([H])C([H])([H])C([H])(n4nc(-c5c([H])c([H])c(Oc6c([H])c([H])c(F)c([H])c6F)c([H])c5[H])c(C(=O)N([H])[H])c4N([H])[H])C3([H])[H])C2([H])C2([H])C1([H])C2([H])N([H])Oc1c([H])c([H])c2c(c1[H])C([H])([H])N(C(=O)C([H])(N([H])C(=O)C([H])(N([H])C([H])([H])[H])C([H])([H])[H])C(C([H])([H])[H])(C([H])([H])[H])C([H])([H])[H])C([H])(C(=O)N([H])C1([H])c3c([H])c([H])c([H])c([H])c3C([H])([H])C([H])([H])C1([H])[H])C2([H])[H]

$$$$
18:0:0
     RDKit          3D

 90 99  0  0  1  0  0  0  0  0999 V2000
  -29.0210  -22.8970   20.1420 N   0  0  0  0  0  4  0  0  0  0  0  0
  -28.1680  -22.6690   20.6310 H   0  0  0  0  0  0  0  0  0  0  0  0
  -28.8380  -22.7930   19.1560 H   0  0  0  0  0  0  0  0  0  0  0  0
  -30.0290  -21.8650   20.5020 C   0  0  0  0  0  2  0  0  0  0  0  0
  -29.3280  -19.2780   20.8850 C   0  0  0  0  0  3  0  0  0  0  0  0
  -30.5310  -19.2510   20.0220 C   0  0  0  0  0  3  0  0  0  0  0  0
  -29.8370  -17.9300   20.4000 C   0  0  0  0  0  3  0  0  0  0  0  0
  -29.6050  -20.4760   19.9950 C   0  0  0  0  0  3  0  0  0  0  0  0
  -30.5120  -16.8930   21.3040 C   0  0  0  0  0  2  0  0  0  0  0  0
  -30.7220  -14.4940   20.5280 C   0  0  0  0  0  0  0  0  0  0  0  0
  -30.4190  -12.3360   19.3630 C   0  0  0  0  0  2  0  0  0  0  0  0
  -29.5000  -12.5330   18.1410 C   0  0  0  0  0  2  0  0  0  0  0  0
  -28.0190  -12.4010   18.5450 C   0  0  0  0  0  2  0  0  0  0  0  0
  -27.6610  -13.2520   19.7940 C   0  0  0  0  0  3  0  0  0  0  0  0
  -28.6950  -13.0380   20.9230 C   0  0  0  0  0  2  0  0  0  0  0  0
  -30.0330  -13.3290   20.3790 N   0  0  0  0  0  0  0  0  0  0  0  0
  -31.8400  -14.6760   20.0390 O   0  0  0  0  0  0  0  0  0  0  0  0
  -30.0620  -15.4950   21.1430 N   0  0  0  0  0  0  0  0  0  0  0  0
  -29.1470  -15.2680   21.5030 H   0  0  0  0  0  0  0  0  0  0  0  0
  -25.2490  -13.8760   20.4410 C   0  0  0  0  0  0  0  0  0  0  0  0
  -24.1710  -13.1130   20.8010 C   0  0  0  0  0  0  0  0  0  0  0  0
  -24.6280  -11.7590   20.8040 C   0  0  0  0  0  0  0  0  0  0  0  0
  -26.2960  -12.9880   20.2480 N   0  0  0  0  0  0  0  0  0  0  0  0
  -25.9250  -11.7120   20.5230 N   0  0  0  0  0  0  0  0  0  0  0  0
  -23.8950  -10.5020   21.0010 C   0  0  0  0  0  0  0  0  0  0  0  0
  -24.3120   -9.5460   21.9520 C   0  0  0  0  0  3  0  0  0  0  0  0
  -23.5800   -8.3520   22.1350 C   0  0  0  0  0  3  0  0  0  0  0  0
  -22.4170   -8.1090   21.3670 C   0  0  0  0  0  0  0  0  0  0  0  0
  -22.0190   -9.0540   20.4050 C   0  0  0  0  0  3  0  0  0  0  0  0
  -22.7520  -10.2380   20.2200 C   0  0  0  0  0  3  0  0  0  0  0  0
  -21.6580   -6.9670   21.4590 O   0  0  0  0  0  0  0  0  0  0  0  0
  -21.5960   -6.2350   22.6180 C   0  0  0  0  0  0  0  0  0  0  0  0
  -21.1670   -6.8050   23.8370 C   0  0  0  0  0  3  0  0  0  0  0  0
  -21.0530   -6.0000   24.9880 C   0  0  0  0  0  3  0  0  0  0  0  0
  -21.3530   -4.6260   24.9210 C   0  0  0  0  0  0  0  0  0  0  0  0
  -21.7740   -4.0560   23.7060 C   0  0  0  0  0  3  0  0  0  0  0  0
  -21.8910   -4.8590   22.5570 C   0  0  0  0  0  0  0  0  0  0  0  0
  -22.2770   -4.2990   21.3850 F   0  0  0  0  0  0  0  0  0  0  0  0
  -21.2360   -3.8510   26.0230 F   0  0  0  0  0  0  0  0  0  0  0  0
  -22.7690  -13.5980   21.0360 C   0  0  0  0  0  0  0  0  0  0  0  0
  -22.0220  -12.9200   21.8990 N   0  0  0  0  0  0  0  0  0  0  0  0
  -22.3440  -14.6130   20.4870 O   0  0  0  0  0  0  0  0  0  0  0  0
  -22.3760  -12.0990   22.3670 H   0  0  0  0  0  0  0  0  0  0  0  0
  -21.0800  -13.2270   22.0950 H   0  0  0  0  0  0  0  0  0  0  0  0
  -25.4210  -15.2440   20.2430 N   0  0  0  0  0  0  0  0  0  0  0  0
  -24.6550  -15.9020   20.3230 H   0  0  0  0  0  0  0  0  0  0  0  0
  -26.2820  -15.6740   19.9240 H   0  0  0  0  0  0  0  0  0  0  0  0
  -29.3580  -24.3310   20.3970 C   0  0  0  0  0  2  0  0  0  0  0  0
  -28.2310  -25.2560   19.8680 C   0  0  0  0  0  2  0  0  0  0  0  0
  -28.3620  -26.6660   20.1600 O   0  0  0  0  0  0  0  0  0  0  0  0
  -24.5680  -31.8800   23.2110 C   0  0  0  0  0  0  0  0  0  0  0  0
  -27.1960  -27.4210   20.1170 C   0  0  0  0  0  0  0  0  0  0  0  0
  -23.3540  -30.4780   21.5770 C   0  0  0  0  0  3  0  0  0  0  0  0
  -24.8000  -28.9470   20.1420 C   0  0  0  0  0  0  0  0  0  0  0  0
  -25.8820  -30.8310   21.3680 C   0  0  0  0  0  2  0  0  0  0  0  0
  -25.9640  -29.4600   20.7270 C   0  0  0  0  0  0  0  0  0  0  0  0
  -27.1620  -28.7050   20.7160 C   0  0  0  0  0  3  0  0  0  0  0  0
  -26.0090  -26.9420   19.5060 C   0  0  0  0  0  3  0  0  0  0  0  0
  -24.8180  -27.6860   19.5280 C   0  0  0  0  0  3  0  0  0  0  0  0
  -23.5560  -29.8040   20.1960 C   0  0  0  0  0  2  0  0  0  0  0  0
  -24.6210  -31.0780   22.1100 N   0  0  0  0  0  0  0  0  0  0  0  0
  -23.4900  -32.1520   23.7560 O   0  0  0  0  0  0  0  0  0  0  0  0
  -22.7090  -29.4550   22.5400 C   0  0  0  0  0  0  0  0  0  0  0  0
  -21.3820  -29.2750   22.4220 N   0  0  0  0  0  0  0  0  0  0  0  0
  -23.3980  -28.8270   23.3490 O   0  0  0  0  0  0  0  0  0  0  0  0
  -20.8870  -29.8360   21.7420 H   0  0  0  0  0  0  0  0  0  0  0  0
  -18.0090  -28.0920   22.9470 C   0  0  0  0  0  0  0  0  0  0  0  0
  -20.5700  -28.3390   23.1970 C   0  0  0  0  0  3  0  0  0  0  0  0
  -20.6610  -26.9090   22.6180 C   0  0  0  0  0  2  0  0  0  0  0  0
  -19.5490  -26.5930   21.6130 C   0  0  0  0  0  2  0  0  0  0  0  0
  -18.1740  -26.7430   22.2680 C   0  0  0  0  0  2  0  0  0  0  0  0
  -19.1340  -28.8480   23.3700 C   0  0  0  0  0  0  0  0  0  0  0  0
  -18.9260  -30.1120   23.9640 C   0  0  0  0  0  3  0  0  0  0  0  0
  -17.6250  -30.6190   24.1400 C   0  0  0  0  0  3  0  0  0  0  0  0
  -16.5140  -29.8600   23.7330 C   0  0  0  0  0  3  0  0  0  0  0  0
  -16.7070  -28.5980   23.1430 C   0  0  0  0  0  3  0  0  0  0  0  0
  -25.8570  -32.5120   23.8220 C   0  0  0  0  0  3  0  0  0  0  0  0
  -25.5440  -33.9050   24.1660 N   0  0  0  0  0  0  0  0  0  0  0  0
  -25.8650  -34.9640   23.4110 C   0  0  0  0  0  0  0  0  0  0  0  0
  -26.5270  -34.8720   22.3730 O   0  0  0  0  0  0  0  0  0  0  0  0
  -24.9530  -34.0490   24.9700 H   0  0  0  0  0  0  0  0  0  0  0  0
  -24.1260  -36.7510   23.0830 C   0  0  0  0  0  1  0  0  0  0  0  0
  -25.3750  -36.3460   23.8830 C   0  0  0  0  0  3  0  0  0  0  0  0
  -27.5130  -37.2310   24.7040 C   0  0  0  0  0  1  0  0  0  0  0  0
  -26.4020  -37.4050   23.7710 N   0  0  0  0  0  0  0  0  0  0  0  0
  -25.9930  -38.3210   23.9320 H   0  0  0  0  0  0  0  0  0  0  0  0
  -26.3930  -31.7320   25.0860 C   0  0  1  0  0  0  0  0  0  0  0  0
  -25.3130  -31.4790   26.1630 C   0  0  0  0  0  1  0  0  0  0  0  0
  -26.9790  -30.3620   24.6720 C   0  0  0  0  0  1  0  0  0  0  0  0
  -27.5450  -32.5280   25.7420 C   0  0  0  0  0  1  0  0  0  0  0  0
  1 48  1  0
  1  4  1  0
  1  2  1  0
  3  1  1  0
  6  7  1  0
  6  5  1  0
  7  5  1  0
  7  9  1  0
  8  6  1  0
  8  4  1  0
  8  5  1  0
 10 18  1  0
 11 16  1  0
 12 13  1  0
 12 11  1  0
 13 14  1  0
 14 23  1  0
 14 15  1  0
 16 10  1  0
 16 15  1  0
 17 10  2  0
 18  9  1  0
 18 19  1  0
 20 21  2  0
 21 22  1  0
 21 40  1  0
 22 25  1  0
 23 20  1  0
 23 24  1  0
 24 22  2  0
 25 26  1  0
 26 27  2  0
 28 31  1  0
 28 27  1  0
 29 28  2  0
 30 29  1  0
 30 25  2  0
 31 32  1  0
 32 33  1  0
 33 34  2  0
 35 34  1  0
 35 39  1  0
 36 35  2  0
 37 32  2  0
 37 36  1  0
 38 37  1  0
 40 41  1  0
 41 44  1  0
 41 43  1  0
 42 40  2  0
 45 46  1  0
 45 20  1  0
 47 45  1  0
 49 50  1  0
 49 48  1  0
 51 62  2  0
 51 77  1  0
 52 50  1  0
 52 57  1  0
 53 61  1  0
 53 63  1  0
 54 60  1  0
 54 56  1  0
 55 61  1  0
 56 55  1  0
 57 56  2  0
 58 59  1  0
 58 52  2  0
 59 54  2  0
 60 53  1  0
 61 51  1  0
 63 65  2  0
 64 63  1  0
 64 68  1  0
 66 64  1  0
 67 76  2  0
 67 72  1  0
 68 72  1  0
 69 68  1  0
 70 71  1  0
 70 69  1  0
 71 67  1  0
 72 73  2  0
 73 74  1  0
 75 74  2  0
 76 75  1  0
 77 78  1  0
 77 87  1  0
 78 81  1  0
 79 83  1  0
 79 78  1  0
 80 79  2  0
 82 83  1  0
 85 83  1  0
 85 86  1  0
 85 84  1  0
 87 90  1  1
 87 88  1  0
 89 87  1  0
M  ISO  4  10 100  18 100  49 101  50 101
M  END
>  <TORSDO>  (19) 
F 21

>  <SCORE>  (19) 
-13.265

>  <name>  (19) 
18

>  <ligand_id>  (19) 
18

>  <original_smiles>  (19) 
[H]c1c([H])c([H])c2c(c1[H])C([H])([H])C([H])([H])C([H])([H])C2([H])N([H])C(=O)C1([H])N(C(=O)C([H])(N([H])C(=O)C([H])(N([H])C([H])([H])[H])C([H])([H])[H])C(C([H])([H])[H])(C([H])([H])[H])C([H])([H])[H])C([H])([H])c2c([H])c(OC([H])([H])C([H])([H])[N+]([H])([H])C([H])([H])C3([H])C4([H])C([H])(C([H])([H])N([H])C(=O)N5C([H])([H])C([H])([H])C([H])([H])C([H])(n6nc(-c7c([H])c([H])c(Oc8c([H])c([H])c(F)c([H])c8F)c([H])c7[H])c(C(=O)N([H])[H])c6N([H])[H])C5([H])[H])C43[H])c([H])c([H])c2C1([H])[H]

>  <smiles>  (19) 
[H]c1c([H])c([H])c2c(c1[H])C([H])([H])C([H])([H])C([H])([H])C2([H])N([H])C(=O)C1([H])N(C(=O)C([H])(N([H])C(=O)C([H])(N([H])C([H])([H])[H])C([H])([H])[H])C(C([H])([H])[H])(C([H])([H])[H])C([H])([H])[H])C([H])([H])c2c([H])c(OC([H])([H])C([H])([H])[N+]([H])([H])C([H])([H])C3([H])C4([H])C([H])(C([H])([H])N([H])C(=O)N5C([H])([H])C([H])([H])C([H])([H])C([H])(n6nc(-c7c([H])c([H])c(Oc8c([H])c([H])c(F)c([H])c8F)c([H])c7[H])c(C(=O)N([H])[H])c6N([H])[H])C5([H])[H])C43[H])c([H])c([H])c2C1([H])[H]

$$$$
19:0:0
     RDKit          3D

 88 98  0  0  1  0  0  0  0  0999 V2000
  -29.0350  -20.2990   18.8400 C   0  0  0  0  0  2  0  0  0  0  0  0
  -29.2520  -22.2590   21.5230 C   0  0  0  0  0  2  0  0  0  0  0  0
  -28.4140  -21.3830   19.8220 C   0  0  0  0  0  3  0  0  0  0  0  0
  -30.1420  -19.3520   19.4890 C   0  0  0  0  0  3  0  0  0  0  0  0
  -28.8920  -20.7490   21.1370 C   0  0  0  0  0  3  0  0  0  0  0  0
  -29.9800  -19.5310   20.9950 C   0  0  0  0  0  3  0  0  0  0  0  0
  -28.8380  -22.9780   20.1750 C   0  0  0  0  0  3  0  0  0  0  0  0
  -30.3210  -18.0310   20.3810 C   0  0  0  0  0  3  0  0  0  0  0  0
  -30.4920  -15.2570   20.2690 C   0  0  0  0  0  0  0  0  0  0  0  0
  -30.4160  -12.8500   19.3730 C   0  0  0  0  0  2  0  0  0  0  0  0
  -29.4800  -12.6870   18.1510 C   0  0  0  0  0  2  0  0  0  0  0  0
  -28.0340  -12.4280   18.6100 C   0  0  0  0  0  2  0  0  0  0  0  0
  -27.6020  -13.3810   19.7520 C   0  0  0  0  0  3  0  0  0  0  0  0
  -28.6640  -13.5070   20.8640 C   0  0  0  0  0  2  0  0  0  0  0  0
  -29.8950  -13.9800   20.2150 N   0  0  0  0  0  0  0  0  0  0  0  0
  -31.7090  -15.2530   20.0440 O   0  0  0  0  0  0  0  0  0  0  0  0
  -29.7690  -16.5290   20.3700 N   0  0  0  0  0  0  0  0  0  0  0  0
  -28.7690  -16.4340   20.4780 H   0  0  0  0  0  0  0  0  0  0  0  0
  -25.2380  -13.9250   20.5440 C   0  0  0  0  0  0  0  0  0  0  0  0
  -24.1840  -13.1380   20.9160 C   0  0  0  0  0  0  0  0  0  0  0  0
  -24.6570  -11.7900   20.8600 C   0  0  0  0  0  0  0  0  0  0  0  0
  -26.2810  -13.0580   20.2750 N   0  0  0  0  0  0  0  0  0  0  0  0
  -25.9450  -11.7670   20.5330 N   0  0  0  0  0  0  0  0  0  0  0  0
  -23.9380  -10.5210   21.0400 C   0  0  0  0  0  0  0  0  0  0  0  0
  -24.3680   -9.5530   21.9720 C   0  0  0  0  0  3  0  0  0  0  0  0
  -23.6460   -8.3510   22.1410 C   0  0  0  0  0  3  0  0  0  0  0  0
  -22.4800   -8.1110   21.3760 C   0  0  0  0  0  0  0  0  0  0  0  0
  -22.0690   -9.0690   20.4330 C   0  0  0  0  0  3  0  0  0  0  0  0
  -22.7920  -10.2610   20.2620 C   0  0  0  0  0  3  0  0  0  0  0  0
  -21.7300   -6.9620   21.4540 O   0  0  0  0  0  0  0  0  0  0  0  0
  -21.6510   -6.2310   22.6130 C   0  0  0  0  0  0  0  0  0  0  0  0
  -21.1440   -6.7850   23.8090 C   0  0  0  0  0  3  0  0  0  0  0  0
  -21.0140   -5.9810   24.9580 C   0  0  0  0  0  3  0  0  0  0  0  0
  -21.3800   -4.6220   24.9120 C   0  0  0  0  0  0  0  0  0  0  0  0
  -21.8810   -4.0670   23.7210 C   0  0  0  0  0  3  0  0  0  0  0  0
  -22.0120   -4.8700   22.5740 C   0  0  0  0  0  0  0  0  0  0  0  0
  -22.4750   -4.3250   21.4230 F   0  0  0  0  0  0  0  0  0  0  0  0
  -21.2490   -3.8460   26.0130 F   0  0  0  0  0  0  0  0  0  0  0  0
  -22.7880  -13.6050   21.2060 C   0  0  0  0  0  0  0  0  0  0  0  0
  -22.0730  -12.8980   22.0750 N   0  0  0  0  0  0  0  0  0  0  0  0
  -22.3400  -14.6320   20.6980 O   0  0  0  0  0  0  0  0  0  0  0  0
  -22.4510  -12.0670   22.5070 H   0  0  0  0  0  0  0  0  0  0  0  0
  -21.1380  -13.1930   22.3140 H   0  0  0  0  0  0  0  0  0  0  0  0
  -25.3900  -15.2990   20.3830 N   0  0  0  0  0  0  0  0  0  0  0  0
  -24.6160  -15.9430   20.5070 H   0  0  0  0  0  0  0  0  0  0  0  0
  -26.2210  -15.7480   20.0220 H   0  0  0  0  0  0  0  0  0  0  0  0
  -27.8920  -24.4670   20.0910 C   0  0  0  0  0  2  0  0  0  0  0  0
  -28.1930  -26.0490   20.2360 O   0  0  0  0  0  0  0  0  0  0  0  0
  -24.6490  -31.9000   23.2900 C   0  0  0  0  0  0  0  0  0  0  0  0
  -27.1720  -27.1120   20.1940 C   0  0  0  0  0  0  0  0  0  0  0  0
  -23.4350  -30.5250   21.6470 C   0  0  0  0  0  3  0  0  0  0  0  0
  -24.8660  -28.9480   20.1930 C   0  0  0  0  0  0  0  0  0  0  0  0
  -25.9960  -30.7550   21.4720 C   0  0  0  0  0  2  0  0  0  0  0  0
  -26.0590  -29.3590   20.8010 C   0  0  0  0  0  0  0  0  0  0  0  0
  -27.2100  -28.4610   20.7790 C   0  0  0  0  0  3  0  0  0  0  0  0
  -25.9480  -26.8360   19.5440 C   0  0  0  0  0  3  0  0  0  0  0  0
  -24.8310  -27.7040   19.5450 C   0  0  0  0  0  3  0  0  0  0  0  0
  -23.6470  -29.8620   20.2600 C   0  0  0  0  0  2  0  0  0  0  0  0
  -24.7140  -31.0850   22.1910 N   0  0  0  0  0  0  0  0  0  0  0  0
  -23.5650  -32.1840   23.8260 O   0  0  0  0  0  0  0  0  0  0  0  0
  -22.7540  -29.5140   22.6070 C   0  0  0  0  0  0  0  0  0  0  0  0
  -21.4270  -29.3340   22.4750 N   0  0  0  0  0  0  0  0  0  0  0  0
  -23.4250  -28.8950   23.4360 O   0  0  0  0  0  0  0  0  0  0  0  0
  -20.9380  -29.8860   21.7840 H   0  0  0  0  0  0  0  0  0  0  0  0
  -18.0590  -28.0770   22.9530 C   0  0  0  0  0  0  0  0  0  0  0  0
  -20.6110  -28.3860   23.2420 C   0  0  0  0  0  3  0  0  0  0  0  0
  -20.7420  -26.9530   22.6750 C   0  0  0  0  0  2  0  0  0  0  0  0
  -19.6550  -26.6070   21.6510 C   0  0  0  0  0  2  0  0  0  0  0  0
  -18.2650  -26.7300   22.2820 C   0  0  0  0  0  2  0  0  0  0  0  0
  -19.1600  -28.8610   23.3910 C   0  0  0  0  0  0  0  0  0  0  0  0
  -18.9110  -30.1190   23.9810 C   0  0  0  0  0  3  0  0  0  0  0  0
  -17.5950  -30.5940   24.1380 C   0  0  0  0  0  3  0  0  0  0  0  0
  -16.5100  -29.8080   23.7150 C   0  0  0  0  0  3  0  0  0  0  0  0
  -16.7420  -28.5510   23.1290 C   0  0  0  0  0  3  0  0  0  0  0  0
  -25.9290  -32.5310   23.9160 C   0  0  0  0  0  3  0  0  0  0  0  0
  -25.6290  -33.9370   24.2370 N   0  0  0  0  0  0  0  0  0  0  0  0
  -25.9520  -34.9850   23.4670 C   0  0  0  0  0  0  0  0  0  0  0  0
  -26.5980  -34.8690   22.4220 O   0  0  0  0  0  0  0  0  0  0  0  0
  -25.0510  -34.1000   25.0480 H   0  0  0  0  0  0  0  0  0  0  0  0
  -24.2220  -36.7890   23.1540 C   0  0  0  0  0  1  0  0  0  0  0  0
  -25.4870  -36.3820   23.9260 C   0  0  0  0  0  3  0  0  0  0  0  0
  -27.6470  -37.2730   24.6840 C   0  0  0  0  0  1  0  0  0  0  0  0
  -26.5200  -37.4290   23.7690 N   0  0  0  0  0  0  0  0  0  0  0  0
  -26.1210  -38.3530   23.9100 H   0  0  0  0  0  0  0  0  0  0  0  0
  -26.4250  -31.7710   25.2090 C   0  0  1  0  0  0  0  0  0  0  0  0
  -25.3200  -31.5630   26.2720 C   0  0  0  0  0  1  0  0  0  0  0  0
  -26.9940  -30.3810   24.8480 C   0  0  0  0  0  1  0  0  0  0  0  0
  -27.5790  -32.5620   25.8690 C   0  0  0  0  0  1  0  0  0  0  0  0
  3  1  1  0
  3  7  1  0
  3  5  1  0
  4  1  1  0
  4  8  1  0
  4  6  1  0
  5  2  1  0
  6  5  1  0
  7  2  1  0
  8  6  1  0
  9 17  1  0
 10 15  1  0
 11 12  1  0
 11 10  1  0
 12 13  1  0
 13 22  1  0
 13 14  1  0
 15  9  1  0
 15 14  1  0
 16  9  2  0
 17  8  1  0
 17 18  1  0
 19 20  2  0
 20 39  1  0
 21 20  1  0
 21 24  1  0
 22 23  1  0
 22 19  1  0
 23 21  2  0
 24 25  1  0
 25 26  2  0
 27 30  1  0
 27 26  1  0
 28 27  2  0
 29 28  1  0
 29 24  2  0
 30 31  1  0
 31 32  1  0
 32 33  2  0
 34 33  1  0
 34 38  1  0
 35 34  2  0
 36 31  2  0
 36 35  1  0
 37 36  1  0
 39 40  1  0
 40 43  1  0
 40 42  1  0
 41 39  2  0
 44 45  1  0
 44 19  1  0
 46 44  1  0
 47  7  1  0
 47 48  1  0
 49 60  2  0
 49 75  1  0
 50 48  1  0
 50 55  1  0
 51 59  1  0
 51 61  1  0
 52 58  1  0
 52 54  1  0
 53 59  1  0
 54 53  1  0
 55 54  2  0
 56 57  1  0
 56 50  2  0
 57 52  2  0
 58 51  1  0
 59 49  1  0
 61 63  2  0
 62 61  1  0
 62 66  1  0
 64 62  1  0
 65 74  2  0
 65 70  1  0
 66 70  1  0
 67 66  1  0
 68 69  1  0
 68 67  1  0
 69 65  1  0
 70 71  2  0
 71 72  1  0
 73 72  2  0
 74 73  1  0
 75 76  1  0
 75 85  1  0
 76 79  1  0
 77 81  1  0
 77 76  1  0
 78 77  2  0
 80 81  1  0
 83 84  1  0
 83 81  1  0
 83 82  1  0
 85 88  1  1
 85 86  1  0
 87 85  1  0
M  ISO  4   9 100  17 100  47 101  48 101
M  END
>  <TORSDO>  (20) 
F 17

>  <SCORE>  (20) 
-15.684

>  <name>  (20) 
19

>  <ligand_id>  (20) 
19

>  <original_smiles>  (20) 
[H]c1c([H])c([H])c2c(c1[H])C([H])([H])C([H])([H])C([H])([H])C2([H])N([H])C(=O)C1([H])N(C(=O)C([H])(N([H])C(=O)C([H])(N([H])C([H])([H])[H])C([H])([H])[H])C(C([H])([H])[H])(C([H])([H])[H])C([H])([H])[H])C([H])([H])c2c([H])c(OC([H])([H])C3([H])C([H])([H])C4([H])C3([H])C([H])([H])C3([H])C([H])(N([H])C(=O)N5C([H])([H])C([H])([H])C([H])([H])C([H])(n6nc(-c7c([H])c([H])c(Oc8c([H])c([H])c(F)c([H])c8F)c([H])c7[H])c(C(=O)N([H])[H])c6N([H])[H])C5([H])[H])C34[H])c([H])c([H])c2C1([H])[H]

>  <smiles>  (20) 
[H]c1c([H])c([H])c2c(c1[H])C([H])([H])C([H])([H])C([H])([H])C2([H])N([H])C(=O)C1([H])N(C(=O)C([H])(N([H])C(=O)C([H])(N([H])C([H])([H])[H])C([H])([H])[H])C(C([H])([H])[H])(C([H])([H])[H])C([H])([H])[H])C([H])([H])c2c([H])c(OC([H])([H])C3([H])C([H])([H])C4([H])C3([H])C([H])([H])C3([H])C([H])(N([H])C(=O)N5C([H])([H])C([H])([H])C([H])([H])C([H])(n6nc(-c7c([H])c([H])c(Oc8c([H])c([H])c(F)c([H])c8F)c([H])c7[H])c(C(=O)N([H])[H])c6N([H])[H])C5([H])[H])C34[H])c([H])c([H])c2C1([H])[H]

$$$$
20:0:0
     RDKit          3D

 91100  0  0  1  0  0  0  0  0999 V2000
  -30.0250  -18.6230   21.0230 C   0  0  0  0  0  0  0  0  0  0  0  0
  -30.0050  -19.9270   20.5630 N   0  0  0  0  0  0  0  0  0  0  0  0
  -29.5050  -18.3340   22.1020 O   0  0  0  0  0  0  0  0  0  0  0  0
  -30.4310  -20.0550   19.6550 H   0  0  0  0  0  0  0  0  0  0  0  0
  -30.7680  -14.8710   20.3100 C   0  0  0  0  0  0  0  0  0  0  0  0
  -30.5410  -12.5640   19.3840 C   0  0  0  0  0  2  0  0  0  0  0  0
  -29.6190  -12.5350   18.1470 C   0  0  0  0  0  2  0  0  0  0  0  0
  -28.1370  -12.4160   18.5650 C   0  0  0  0  0  2  0  0  0  0  0  0
  -27.7370  -13.3220   19.7620 C   0  0  0  0  0  3  0  0  0  0  0  0
  -28.8010  -13.3340   20.8820 C   0  0  0  0  0  2  0  0  0  0  0  0
  -30.0900  -13.6680   20.2610 N   0  0  0  0  0  0  0  0  0  0  0  0
  -31.9970  -14.8670   20.2330 O   0  0  0  0  0  0  0  0  0  0  0  0
  -31.3140  -17.0760   17.5370 C   0  0  0  0  0  2  0  0  0  0  0  0
  -29.2910  -16.1600   18.8730 C   0  0  0  0  0  2  0  0  0  0  0  0
  -30.7560  -17.4640   20.1980 C   0  0  0  0  0  3  0  0  0  0  0  0
  -29.8930  -17.2620   18.0070 C   0  0  0  0  0  3  0  0  0  0  0  0
  -30.9840  -17.9250   18.7480 C   0  0  0  0  0  3  0  0  0  0  0  0
  -30.0810  -16.0780   20.1300 N   0  0  0  0  0  0  0  0  0  0  0  0
  -25.3440  -13.9070   20.4640 C   0  0  0  0  0  0  0  0  0  0  0  0
  -24.2790  -13.1270   20.8210 C   0  0  0  0  0  0  0  0  0  0  0  0
  -24.7570  -11.7820   20.8180 C   0  0  0  0  0  0  0  0  0  0  0  0
  -26.3980  -13.0310   20.2580 N   0  0  0  0  0  0  0  0  0  0  0  0
  -26.0540  -11.7510   20.5370 N   0  0  0  0  0  0  0  0  0  0  0  0
  -24.0440  -10.5150   21.0060 C   0  0  0  0  0  0  0  0  0  0  0  0
  -24.4670   -9.5640   21.9610 C   0  0  0  0  0  3  0  0  0  0  0  0
  -23.7530   -8.3610   22.1380 C   0  0  0  0  0  3  0  0  0  0  0  0
  -22.6010   -8.0990   21.3600 C   0  0  0  0  0  0  0  0  0  0  0  0
  -22.1970   -9.0370   20.3940 C   0  0  0  0  0  3  0  0  0  0  0  0
  -22.9130  -10.2320   20.2150 C   0  0  0  0  0  3  0  0  0  0  0  0
  -21.8590   -6.9470   21.4460 O   0  0  0  0  0  0  0  0  0  0  0  0
  -21.7900   -6.2210   22.6090 C   0  0  0  0  0  0  0  0  0  0  0  0
  -21.3140   -6.7860   23.8120 C   0  0  0  0  0  3  0  0  0  0  0  0
  -21.1930   -5.9870   24.9670 C   0  0  0  0  0  3  0  0  0  0  0  0
  -21.5370   -4.6220   24.9180 C   0  0  0  0  0  0  0  0  0  0  0  0
  -22.0060   -4.0580   23.7190 C   0  0  0  0  0  3  0  0  0  0  0  0
  -22.1290   -4.8540   22.5670 C   0  0  0  0  0  0  0  0  0  0  0  0
  -22.5610   -4.2990   21.4090 F   0  0  0  0  0  0  0  0  0  0  0  0
  -21.4140   -3.8520   26.0240 F   0  0  0  0  0  0  0  0  0  0  0  0
  -22.8710  -13.5930   21.0570 C   0  0  0  0  0  0  0  0  0  0  0  0
  -22.1330  -12.9010   21.9180 N   0  0  0  0  0  0  0  0  0  0  0  0
  -22.4320  -14.6060   20.5140 O   0  0  0  0  0  0  0  0  0  0  0  0
  -22.4990  -12.0800   22.3780 H   0  0  0  0  0  0  0  0  0  0  0  0
  -21.1890  -13.1960   22.1210 H   0  0  0  0  0  0  0  0  0  0  0  0
  -25.4980  -15.2780   20.2750 N   0  0  0  0  0  0  0  0  0  0  0  0
  -24.7270  -15.9310   20.3760 H   0  0  0  0  0  0  0  0  0  0  0  0
  -26.3650  -15.7270   20.0140 H   0  0  0  0  0  0  0  0  0  0  0  0
  -29.5300  -21.2060   21.2220 C   0  0  0  0  0  3  0  0  0  0  0  0
  -29.2960  -22.4940   20.2860 C   0  0  0  0  0  3  0  0  0  0  0  0
  -29.0840  -23.9570   20.9260 C   0  0  0  0  0  3  0  0  0  0  0  0
  -28.3150  -25.0710   20.0670 C   0  0  0  0  0  3  0  0  0  0  0  0
  -28.3900  -26.5190   20.4250 O   0  0  0  0  0  0  0  0  0  0  0  0
  -24.6000  -31.9440   23.2900 C   0  0  0  0  0  0  0  0  0  0  0  0
  -27.2680  -27.3680   20.3010 C   0  0  0  0  0  0  0  0  0  0  0  0
  -23.4250  -30.5390   21.6320 C   0  0  0  0  0  3  0  0  0  0  0  0
  -24.9030  -28.9910   20.2310 C   0  0  0  0  0  0  0  0  0  0  0  0
  -25.9680  -30.8550   21.4980 C   0  0  0  0  0  2  0  0  0  0  0  0
  -26.0580  -29.4760   20.8540 C   0  0  0  0  0  0  0  0  0  0  0  0
  -27.2400  -28.6740   20.8860 C   0  0  0  0  0  3  0  0  0  0  0  0
  -26.0970  -26.9530   19.6250 C   0  0  0  0  0  3  0  0  0  0  0  0
  -24.9260  -27.7360   19.6050 C   0  0  0  0  0  3  0  0  0  0  0  0
  -23.6630  -29.8620   20.2570 C   0  0  0  0  0  2  0  0  0  0  0  0
  -24.6810  -31.1300   22.1960 N   0  0  0  0  0  0  0  0  0  0  0  0
  -23.5070  -32.2230   23.8040 O   0  0  0  0  0  0  0  0  0  0  0  0
  -22.7460  -29.5240   22.5840 C   0  0  0  0  0  0  0  0  0  0  0  0
  -21.4230  -29.3400   22.4300 N   0  0  0  0  0  0  0  0  0  0  0  0
  -23.4100  -28.9040   23.4190 O   0  0  0  0  0  0  0  0  0  0  0  0
  -20.9470  -29.8900   21.7300 H   0  0  0  0  0  0  0  0  0  0  0  0
  -18.0400  -28.1350   22.8740 C   0  0  0  0  0  0  0  0  0  0  0  0
  -20.5920  -28.4040   23.1910 C   0  0  0  0  0  3  0  0  0  0  0  0
  -20.7100  -26.9690   22.6250 C   0  0  0  0  0  2  0  0  0  0  0  0
  -19.6290  -26.6380   21.5910 C   0  0  0  0  0  2  0  0  0  0  0  0
  -18.2340  -26.7840   22.2070 C   0  0  0  0  0  2  0  0  0  0  0  0
  -19.1490  -28.9040   23.3210 C   0  0  0  0  0  0  0  0  0  0  0  0
  -18.9150  -30.1690   23.9020 C   0  0  0  0  0  3  0  0  0  0  0  0
  -17.6060  -30.6660   24.0410 C   0  0  0  0  0  3  0  0  0  0  0  0
  -16.5120  -29.8950   23.6110 C   0  0  0  0  0  3  0  0  0  0  0  0
  -16.7300  -28.6320   23.0340 C   0  0  0  0  0  3  0  0  0  0  0  0
  -25.8720  -32.5780   23.9290 C   0  0  0  0  0  3  0  0  0  0  0  0
  -26.3560  -31.8280   25.2310 C   0  0  1  0  0  0  0  0  0  0  0  0
  -25.2350  -31.6130   26.2760 C   0  0  0  0  0  1  0  0  0  0  0  0
  -26.9440  -30.4410   24.8810 C   0  0  0  0  0  1  0  0  0  0  0  0
  -27.4930  -32.6290   25.9050 C   0  0  0  0  0  1  0  0  0  0  0  0
  -25.5640  -33.9840   24.2300 N   0  0  0  0  0  0  0  0  0  0  0  0
  -25.9100  -35.0230   23.4570 C   0  0  0  0  0  0  0  0  0  0  0  0
  -26.5910  -34.8980   22.4360 O   0  0  0  0  0  0  0  0  0  0  0  0
  -24.9630  -34.1550   25.0230 H   0  0  0  0  0  0  0  0  0  0  0  0
  -24.1930  -36.8160   23.0500 C   0  0  0  0  0  1  0  0  0  0  0  0
  -25.4210  -36.4200   23.8850 C   0  0  0  0  0  3  0  0  0  0  0  0
  -27.5450  -37.3110   24.7330 C   0  0  0  0  0  1  0  0  0  0  0  0
  -26.4590  -37.4680   23.7700 N   0  0  0  0  0  0  0  0  0  0  0  0
  -26.0530  -38.3910   23.8970 H   0  0  0  0  0  0  0  0  0  0  0  0
  1  3  2  0
  2  1  1  0
  2 47  1  0
  4  2  1  0
  6 11  1  0
  7  8  1  0
  7  6  1  0
  9  8  1  0
  9 22  1  0
  9 10  1  0
 11  5  1  0
 11 10  1  0
 12  5  2  0
 14 18  1  0
 15  1  1  0
 16 13  1  0
 16 17  1  0
 16 14  1  0
 17 13  1  0
 17 15  1  0
 18 15  1  0
 18  5  1  0
 19 20  2  0
 20 39  1  0
 21 20  1  0
 21 24  1  0
 22 19  1  0
 22 23  1  0
 23 21  2  0
 24 25  1  0
 25 26  2  0
 27 30  1  0
 27 26  1  0
 28 27  2  0
 29 28  1  0
 29 24  2  0
 30 31  1  0
 31 32  1  0
 32 33  2  0
 34 33  1  0
 34 38  1  0
 35 34  2  0
 36 31  2  0
 36 35  1  0
 37 36  1  0
 39 40  1  0
 40 43  1  0
 40 42  1  0
 41 39  2  0
 44 45  1  0
 44 19  1  0
 46 44  1  0
 48 49  1  0
 48 47  2  0
 50 51  1  0
 50 49  2  0
 52 63  2  0
 53 51  1  0
 53 58  1  0
 54 62  1  0
 54 64  1  0
 55 61  1  0
 55 57  1  0
 56 62  1  0
 57 58  2  0
 57 56  1  0
 59 53  2  0
 60 59  1  0
 60 55  2  0
 61 54  1  0
 62 52  1  0
 64 66  2  0
 65 64  1  0
 67 65  1  0
 68 77  2  0
 68 73  1  0
 69 65  1  0
 69 73  1  0
 70 69  1  0
 71 72  1  0
 71 70  1  0
 72 68  1  0
 73 74  2  0
 74 75  1  0
 76 75  2  0
 77 76  1  0
 78 52  1  0
 78 83  1  0
 78 79  1  0
 79 82  1  1
 79 80  1  0
 81 79  1  0
 83 86  1  0
 84 88  1  0
 84 83  1  0
 85 84  2  0
 88 87  1  0
 90 88  1  0
 90 91  1  0
 90 89  1  0
M  ISO  4   5 100  18 100  50 101  51 101
M  END
>  <TORSDO>  (21) 
F 20

>  <SCORE>  (21) 
-12.595

>  <name>  (21) 
20

>  <ligand_id>  (21) 
20

>  <original_smiles>  (21) 
[H]c1c([H])c([H])c2c(c1[H])C([H])([H])C([H])([H])C([H])([H])C2([H])N([H])C(=O)C1([H])N(C(=O)C([H])(N([H])C(=O)C([H])(N([H])C([H])([H])[H])C([H])([H])[H])C(C([H])([H])[H])(C([H])([H])[H])C([H])([H])[H])C([H])([H])c2c([H])c(OC([H])([H])C([H])([H])C([H])([H])C([H])([H])N([H])C(=O)C3([H])N(C(=O)N4C([H])([H])C([H])([H])C([H])([H])C([H])(n5nc(-c6c([H])c([H])c(Oc7c([H])c([H])c(F)c([H])c7F)c([H])c6[H])c(C(=O)N([H])[H])c5N([H])[H])C4([H])[H])C([H])([H])C4([H])C([H])([H])C34[H])c([H])c([H])c2C1([H])[H]

>  <smiles>  (21) 
[H]c1c([H])c([H])c2c(c1[H])C([H])([H])C([H])([H])C([H])([H])C2([H])N([H])C(=O)C1([H])N(C(=O)C([H])(N([H])C(=O)C([H])(N([H])C([H])([H])[H])C([H])([H])[H])C(C([H])([H])[H])(C([H])([H])[H])C([H])([H])[H])C([H])([H])c2c([H])c(OC([H])([H])C([H])([H])C([H])([H])C([H])([H])N([H])C(=O)C3([H])N(C(=O)N4C([H])([H])C([H])([H])C([H])([H])C([H])(n5nc(-c6c([H])c([H])c(Oc7c([H])c([H])c(F)c([H])c7F)c([H])c6[H])c(C(=O)N([H])[H])c5N([H])[H])C4([H])[H])C([H])([H])C4([H])C([H])([H])C34[H])c([H])c([H])c2C1([H])[H]

$$$$
21:0:0
     RDKit          3D

 91101  0  0  1  0  0  0  0  0999 V2000
  -28.4450  -21.8280   20.3990 N   0  0  0  0  0  4  0  0  0  0  0  0
  -27.9890  -21.6230   21.2770 H   0  0  0  0  0  0  0  0  0  0  0  0
  -27.7560  -21.6390   19.6880 H   0  0  0  0  0  0  0  0  0  0  0  0
  -29.5730  -20.7490   20.2110 C   0  0  0  0  0  2  0  0  0  0  0  0
  -30.5320  -15.0860   19.8860 C   0  0  0  0  0  0  0  0  0  0  0  0
  -30.2220  -12.7630   18.8970 C   0  0  0  0  0  2  0  0  0  0  0  0
  -29.2010  -12.7520   17.7350 C   0  0  0  0  0  2  0  0  0  0  0  0
  -27.7850  -12.4990   18.2840 C   0  0  0  0  0  2  0  0  0  0  0  0
  -27.4750  -13.3890   19.5190 C   0  0  0  0  0  3  0  0  0  0  0  0
  -28.6320  -13.4300   20.5490 C   0  0  0  0  0  2  0  0  0  0  0  0
  -29.8460  -13.8590   19.8410 N   0  0  0  0  0  0  0  0  0  0  0  0
  -31.6510  -15.0760   19.3590 O   0  0  0  0  0  0  0  0  0  0  0  0
  -29.7160  -16.8170   21.6060 C   0  0  0  0  0  2  0  0  0  0  0  0
  -30.2070  -18.3020   21.5010 C   0  0  1  0  0  0  0  0  0  0  0  0
  -29.4390  -19.0620   20.3870 C   0  0  0  0  0  3  0  0  0  0  0  0
  -30.3100  -17.7940   19.7070 C   0  0  1  0  0  0  0  0  0  0  0  0
  -31.4900  -18.3320   20.5880 C   0  0  2  0  0  0  0  0  0  0  0  0
  -32.6690  -17.4630   21.0800 C   0  0  0  0  0  1  0  0  0  0  0  0
  -32.2470  -19.5820   20.0300 C   0  0  0  0  0  1  0  0  0  0  0  0
  -29.9450  -16.3580   20.2250 N   0  0  0  0  0  0  0  0  0  0  0  0
  -25.1740  -13.9180   20.5030 C   0  0  0  0  0  0  0  0  0  0  0  0
  -24.1420  -13.1210   20.9240 C   0  0  0  0  0  0  0  0  0  0  0  0
  -24.5980  -11.7740   20.7880 C   0  0  0  0  0  0  0  0  0  0  0  0
  -26.1880  -13.0530   20.1240 N   0  0  0  0  0  0  0  0  0  0  0  0
  -25.8540  -11.7570   20.3570 N   0  0  0  0  0  0  0  0  0  0  0  0
  -23.8790  -10.5060   20.9780 C   0  0  0  0  0  0  0  0  0  0  0  0
  -24.3480   -9.5180   21.8700 C   0  0  0  0  0  3  0  0  0  0  0  0
  -23.6280   -8.3160   22.0530 C   0  0  0  0  0  3  0  0  0  0  0  0
  -22.4230   -8.0980   21.3430 C   0  0  0  0  0  0  0  0  0  0  0  0
  -21.9730   -9.0720   20.4340 C   0  0  0  0  0  3  0  0  0  0  0  0
  -22.6960  -10.2630   20.2520 C   0  0  0  0  0  3  0  0  0  0  0  0
  -21.6700   -6.9510   21.4410 O   0  0  0  0  0  0  0  0  0  0  0  0
  -21.6210   -6.2150   22.5970 C   0  0  0  0  0  0  0  0  0  0  0  0
  -21.1980   -6.7760   23.8230 C   0  0  0  0  0  3  0  0  0  0  0  0
  -21.1000   -5.9660   24.9720 C   0  0  0  0  0  3  0  0  0  0  0  0
  -21.4160   -4.5950   24.8950 C   0  0  0  0  0  0  0  0  0  0  0  0
  -21.8290   -4.0330   23.6760 C   0  0  0  0  0  3  0  0  0  0  0  0
  -21.9300   -4.8400   22.5290 C   0  0  0  0  0  0  0  0  0  0  0  0
  -22.3120   -4.2900   21.3510 F   0  0  0  0  0  0  0  0  0  0  0  0
  -21.3120   -3.8140   25.9960 F   0  0  0  0  0  0  0  0  0  0  0  0
  -22.7810  -13.5890   21.3420 C   0  0  0  0  0  0  0  0  0  0  0  0
  -22.1410  -12.8690   22.2620 N   0  0  0  0  0  0  0  0  0  0  0  0
  -22.2940  -14.6260   20.8970 O   0  0  0  0  0  0  0  0  0  0  0  0
  -22.5480  -12.0290   22.6430 H   0  0  0  0  0  0  0  0  0  0  0  0
  -21.2330  -13.1670   22.5870 H   0  0  0  0  0  0  0  0  0  0  0  0
  -25.3310  -15.2940   20.3780 N   0  0  0  0  0  0  0  0  0  0  0  0
  -24.5780  -15.9460   20.5780 H   0  0  0  0  0  0  0  0  0  0  0  0
  -26.1560  -15.7440   19.9980 H   0  0  0  0  0  0  0  0  0  0  0  0
  -28.8230  -23.3770   20.4010 C   0  0  0  0  0  3  0  0  0  0  0  0
  -27.7760  -24.6520   20.0790 C   0  0  0  0  0  3  0  0  0  0  0  0
  -28.1160  -26.1680   20.2150 O   0  0  0  0  0  0  0  0  0  0  0  0
  -24.6030  -31.8830   23.2560 C   0  0  0  0  0  0  0  0  0  0  0  0
  -27.0900  -27.1770   20.1520 C   0  0  0  0  0  0  0  0  0  0  0  0
  -23.3760  -30.5000   21.6280 C   0  0  0  0  0  3  0  0  0  0  0  0
  -24.7920  -28.9470   20.1550 C   0  0  0  0  0  0  0  0  0  0  0  0
  -25.9250  -30.7590   21.4280 C   0  0  0  0  0  2  0  0  0  0  0  0
  -25.9790  -29.3730   20.7620 C   0  0  0  0  0  0  0  0  0  0  0  0
  -27.1300  -28.4990   20.7560 C   0  0  0  0  0  3  0  0  0  0  0  0
  -25.8820  -26.8620   19.4920 C   0  0  0  0  0  3  0  0  0  0  0  0
  -24.7540  -27.7060   19.5080 C   0  0  0  0  0  3  0  0  0  0  0  0
  -23.5740  -29.8540   20.2320 C   0  0  0  0  0  2  0  0  0  0  0  0
  -24.6550  -31.0690   22.1590 N   0  0  0  0  0  0  0  0  0  0  0  0
  -23.5270  -32.1690   23.8050 O   0  0  0  0  0  0  0  0  0  0  0  0
  -22.7150  -29.4790   22.5870 C   0  0  0  0  0  0  0  0  0  0  0  0
  -21.3880  -29.2980   22.4700 N   0  0  0  0  0  0  0  0  0  0  0  0
  -23.3960  -28.8580   23.4050 O   0  0  0  0  0  0  0  0  0  0  0  0
  -20.9020  -29.8600   21.7870 H   0  0  0  0  0  0  0  0  0  0  0  0
  -18.0180  -28.0810   22.9780 C   0  0  0  0  0  0  0  0  0  0  0  0
  -20.5730  -28.3550   23.2370 C   0  0  0  0  0  3  0  0  0  0  0  0
  -20.6850  -26.9300   22.6540 C   0  0  0  0  0  2  0  0  0  0  0  0
  -19.5810  -26.6020   21.6480 C   0  0  0  0  0  2  0  0  0  0  0  0
  -18.2000  -26.7350   22.2980 C   0  0  0  0  0  2  0  0  0  0  0  0
  -19.1330  -28.8500   23.4020 C   0  0  0  0  0  0  0  0  0  0  0  0
  -18.9080  -30.1090   24.0010 C   0  0  0  0  0  3  0  0  0  0  0  0
  -17.6020  -30.5980   24.1820 C   0  0  0  0  0  3  0  0  0  0  0  0
  -16.5010  -29.8230   23.7780 C   0  0  0  0  0  3  0  0  0  0  0  0
  -16.7090  -28.5680   23.1780 C   0  0  0  0  0  3  0  0  0  0  0  0
  -25.8910  -32.5120   23.8660 C   0  0  0  0  0  3  0  0  0  0  0  0
  -26.4230  -31.7330   25.1330 C   0  0  1  0  0  0  0  0  0  0  0  0
  -25.3440  -31.4810   26.2150 C   0  0  0  0  0  1  0  0  0  0  0  0
  -27.0040  -30.3610   24.7260 C   0  0  0  0  0  1  0  0  0  0  0  0
  -27.5900  -32.5190   25.7820 C   0  0  0  0  0  1  0  0  0  0  0  0
  -25.5920  -33.9080   24.2200 N   0  0  0  0  0  0  0  0  0  0  0  0
  -25.8800  -34.9690   23.4560 C   0  0  0  0  0  0  0  0  0  0  0  0
  -26.5080  -34.8780   22.3990 O   0  0  0  0  0  0  0  0  0  0  0  0
  -25.0430  -34.0550   25.0530 H   0  0  0  0  0  0  0  0  0  0  0  0
  -24.1150  -36.7460   23.2090 C   0  0  0  0  0  1  0  0  0  0  0  0
  -25.4050  -36.3510   23.9460 C   0  0  0  0  0  3  0  0  0  0  0  0
  -27.5730  -37.2510   24.6690 C   0  0  0  0  0  1  0  0  0  0  0  0
  -26.4190  -37.4170   23.7860 N   0  0  0  0  0  0  0  0  0  0  0  0
  -26.0110  -38.3300   23.9730 H   0  0  0  0  0  0  0  0  0  0  0  0
  1 49  1  0
  1  2  1  0
  3  1  1  0
  4  1  1  0
  5 20  1  0
  6 11  1  0
  7  8  1  0
  7  6  1  0
  9  8  1  0
  9 24  1  0
  9 10  1  0
 11  5  1  0
 11 10  1  0
 12  5  2  0
 14 13  1  1
 15  4  1  0
 15 14  1  0
 16 20  1  0
 16 15  1  1
 16 17  1  0
 16 14  1  0
 17 18  1  1
 17 14  1  0
 19 17  1  0
 20 13  1  0
 21 22  2  0
 22 41  1  0
 23 22  1  0
 23 26  1  0
 24 25  1  0
 24 21  1  0
 25 23  2  0
 26 27  1  0
 27 28  2  0
 29 32  1  0
 29 28  1  0
 30 29  2  0
 31 30  1  0
 31 26  2  0
 32 33  1  0
 33 34  1  0
 34 35  2  0
 36 35  1  0
 36 40  1  0
 37 36  2  0
 38 33  2  0
 38 37  1  0
 39 38  1  0
 41 42  1  0
 42 45  1  0
 42 44  1  0
 43 41  2  0
 46 21  1  0
 46 47  1  0
 48 46  1  0
 50 51  1  0
 50 49  2  0
 52 63  2  0
 53 51  1  0
 53 58  1  0
 54 62  1  0
 54 64  1  0
 55 61  1  0
 55 57  1  0
 56 62  1  0
 57 56  1  0
 58 57  2  0
 59 60  1  0
 59 53  2  0
 60 55  2  0
 61 54  1  0
 62 52  1  0
 64 66  2  0
 65 64  1  0
 67 65  1  0
 68 77  2  0
 68 73  1  0
 69 65  1  0
 69 73  1  0
 70 69  1  0
 71 72  1  0
 71 70  1  0
 72 68  1  0
 73 74  2  0
 74 75  1  0
 76 75  2  0
 77 76  1  0
 78 52  1  0
 78 83  1  0
 78 79  1  0
 79 82  1  1
 79 80  1  0
 81 79  1  0
 83 86  1  0
 84 88  1  0
 84 83  1  0
 85 84  2  0
 88 87  1  0
 90 88  1  0
 90 91  1  0
 90 89  1  0
M  ISO  4   5 100  20 100  50 101  51 101
M  END
>  <TORSDO>  (22) 
F 19

>  <SCORE>  (22) 
-13.893

>  <name>  (22) 
21

>  <ligand_id>  (22) 
21

>  <original_smiles>  (22) 
[H]c1c([H])c([H])c2c(c1[H])C([H])([H])C([H])([H])C([H])([H])C2([H])N([H])C(=O)C1([H])N(C(=O)C([H])(N([H])C(=O)C([H])(N([H])C([H])([H])[H])C([H])([H])[H])C(C([H])([H])[H])(C([H])([H])[H])C([H])([H])[H])C([H])([H])c2c([H])c(OC([H])([H])C([H])([H])[N+]([H])([H])C([H])([H])C3([H])C4([H])N(C(=O)N5C([H])([H])C([H])([H])C([H])([H])C([H])(n6nc(-c7c([H])c([H])c(Oc8c([H])c([H])c(F)c([H])c8F)c([H])c7[H])c(C(=O)N([H])[H])c6N([H])[H])C5([H])[H])C([H])([H])C3([H])C4(C([H])([H])[H])C([H])([H])[H])c([H])c([H])c2C1([H])[H]

>  <smiles>  (22) 
[H]c1c([H])c([H])c2c(c1[H])C([H])([H])C([H])([H])C([H])([H])C2([H])N([H])C(=O)C1([H])N(C(=O)C([H])(N([H])C(=O)C([H])(N([H])C([H])([H])[H])C([H])([H])[H])C(C([H])([H])[H])(C([H])([H])[H])C([H])([H])[H])C([H])([H])c2c([H])c(OC([H])([H])C([H])([H])[N+]([H])([H])C([H])([H])C3([H])C4([H])N(C(=O)N5C([H])([H])C([H])([H])C([H])([H])C([H])(n6nc(-c7c([H])c([H])c(Oc8c([H])c([H])c(F)c([H])c8F)c([H])c7[H])c(C(=O)N([H])[H])c6N([H])[H])C5([H])[H])C([H])([H])C3([H])C4(C([H])([H])[H])C([H])([H])[H])c([H])c([H])c2C1([H])[H]

$$$$
22:0:0
     RDKit          3D

 94103  0  0  1  0  0  0  0  0999 V2000
  -26.9080  -20.1730   19.9410 C   0  0  0  0  0  2  0  0  0  0  0  0
  -27.6340  -18.8450   19.5650 C   0  0  0  0  0  2  0  0  0  0  0  0
  -29.2090  -21.8610   18.5860 C   0  0  0  0  0  2  0  0  0  0  0  0
  -27.5840  -22.7230   20.0300 C   0  0  0  0  0  2  0  0  0  0  0  0
  -29.2500  -20.7130   19.7590 C   0  0  0  0  0  3  0  0  0  0  0  0
  -28.7250  -23.3260   19.1810 C   0  0  0  0  0  3  0  0  0  0  0  0
  -27.9340  -21.2290   20.4480 C   0  0  2  0  0  0  0  0  0  0  0  0
  -29.1560  -18.9950   19.7790 C   0  0  1  0  0  0  0  0  0  0  0  0
  -29.4900  -18.5510   21.2350 C   0  0  0  0  0  1  0  0  0  0  0  0
  -28.0080  -21.2050   21.9240 N   0  0  0  0  0  4  0  0  0  0  0  0
  -27.1240  -21.4440   22.3380 H   0  0  0  0  0  0  0  0  0  0  0  0
  -28.6980  -21.8510   22.2600 H   0  0  0  0  0  0  0  0  0  0  0  0
  -28.2610  -20.2830   22.2370 H   0  0  0  0  0  0  0  0  0  0  0  0
  -28.3100  -24.7160   18.3020 C   0  0  0  0  0  2  0  0  0  0  0  0
  -28.3450  -26.2290   18.7010 O   0  0  0  0  0  0  0  0  0  0  0  0
  -24.6910  -31.2690   22.6210 C   0  0  0  0  0  0  0  0  0  0  0  0
  -27.2370  -27.1470   18.7970 C   0  0  0  0  0  0  0  0  0  0  0  0
  -23.4370  -30.0530   20.8840 C   0  0  0  0  0  3  0  0  0  0  0  0
  -24.8470  -28.7710   19.1510 C   0  0  0  0  0  0  0  0  0  0  0  0
  -25.9600  -30.4680   20.5940 C   0  0  0  0  0  2  0  0  0  0  0  0
  -26.0450  -29.1830   19.7480 C   0  0  0  0  0  0  0  0  0  0  0  0
  -27.2340  -28.3870   19.5610 C   0  0  0  0  0  3  0  0  0  0  0  0
  -26.0060  -26.8420   18.1750 C   0  0  0  0  0  3  0  0  0  0  0  0
  -24.8410  -27.6190   18.3490 C   0  0  0  0  0  3  0  0  0  0  0  0
  -23.5890  -29.5900   19.4090 C   0  0  0  0  0  2  0  0  0  0  0  0
  -24.7200  -30.6130   21.4200 N   0  0  0  0  0  0  0  0  0  0  0  0
  -23.6360  -31.4210   23.2550 O   0  0  0  0  0  0  0  0  0  0  0  0
  -22.8800  -28.8850   21.7350 C   0  0  0  0  0  0  0  0  0  0  0  0
  -21.5550  -28.6600   21.6710 N   0  0  0  0  0  0  0  0  0  0  0  0
  -23.6370  -28.1920   22.4200 O   0  0  0  0  0  0  0  0  0  0  0  0
  -20.9950  -29.2810   21.1030 H   0  0  0  0  0  0  0  0  0  0  0  0
  -18.2840  -27.1810   22.1640 C   0  0  0  0  0  0  0  0  0  0  0  0
  -20.8320  -27.5810   22.3530 C   0  0  0  0  0  3  0  0  0  0  0  0
  -20.9940  -26.2400   21.6000 C   0  0  0  0  0  2  0  0  0  0  0  0
  -19.8640  -25.9640   20.6040 C   0  0  0  0  0  2  0  0  0  0  0  0
  -18.5090  -25.9390   21.3180 C   0  0  0  0  0  2  0  0  0  0  0  0
  -19.3740  -27.9590   22.6350 C   0  0  0  0  0  0  0  0  0  0  0  0
  -19.1060  -29.1210   23.3900 C   0  0  0  0  0  3  0  0  0  0  0  0
  -17.7800  -29.5050   23.6770 C   0  0  0  0  0  3  0  0  0  0  0  0
  -16.7060  -28.7250   23.2130 C   0  0  0  0  0  3  0  0  0  0  0  0
  -16.9600  -27.5640   22.4650 C   0  0  0  0  0  3  0  0  0  0  0  0
  -25.9830  -31.8830   23.2470 C   0  0  0  0  0  3  0  0  0  0  0  0
  -26.6590  -30.9370   24.3150 C   0  0  1  0  0  0  0  0  0  0  0  0
  -25.6890  -30.4390   25.4120 C   0  0  0  0  0  1  0  0  0  0  0  0
  -27.2760  -29.6940   23.6340 C   0  0  0  0  0  1  0  0  0  0  0  0
  -27.8210  -31.6850   25.0110 C   0  0  0  0  0  1  0  0  0  0  0  0
  -25.6130  -33.1690   23.8620 N   0  0  0  0  0  0  0  0  0  0  0  0
  -25.8590  -34.3700   23.3250 C   0  0  0  0  0  0  0  0  0  0  0  0
  -26.4890  -34.5160   22.2740 O   0  0  0  0  0  0  0  0  0  0  0  0
  -25.0480  -33.1200   24.6960 H   0  0  0  0  0  0  0  0  0  0  0  0
  -24.0450  -36.1150   23.3880 C   0  0  0  0  0  1  0  0  0  0  0  0
  -25.3250  -35.6090   24.0730 C   0  0  0  0  0  3  0  0  0  0  0  0
  -27.4410  -36.4110   25.0280 C   0  0  0  0  0  1  0  0  0  0  0  0
  -26.3060  -36.7140   24.1590 N   0  0  0  0  0  0  0  0  0  0  0  0
  -25.8640  -37.5640   24.4970 H   0  0  0  0  0  0  0  0  0  0  0  0
  -30.0290  -17.7780   18.9720 C   0  0  0  0  0  2  0  0  0  0  0  0
  -30.7760  -15.0980   19.2820 C   0  0  0  0  0  0  0  0  0  0  0  0
  -30.7170  -12.6370   18.6840 C   0  0  0  0  0  2  0  0  0  0  0  0
  -29.6870  -12.4010   17.5540 C   0  0  0  0  0  2  0  0  0  0  0  0
  -28.2820  -12.1890   18.1490 C   0  0  0  0  0  2  0  0  0  0  0  0
  -27.9260  -13.2620   19.2130 C   0  0  0  0  0  3  0  0  0  0  0  0
  -29.0660  -13.4580   20.2330 C   0  0  0  0  0  2  0  0  0  0  0  0
  -30.2630  -13.8190   19.4690 N   0  0  0  0  0  0  0  0  0  0  0  0
  -31.9420  -15.1850   18.8780 O   0  0  0  0  0  0  0  0  0  0  0  0
  -29.9150  -16.2330   19.3490 N   0  0  0  0  0  0  0  0  0  0  0  0
  -28.9880  -15.9820   19.6580 H   0  0  0  0  0  0  0  0  0  0  0  0
  -25.7020  -13.9080   20.3010 C   0  0  0  0  0  0  0  0  0  0  0  0
  -24.6510  -13.1600   20.7620 C   0  0  0  0  0  0  0  0  0  0  0  0
  -25.0310  -11.7930   20.5890 C   0  0  0  0  0  0  0  0  0  0  0  0
  -26.6500  -12.9960   19.8670 N   0  0  0  0  0  0  0  0  0  0  0  0
  -26.2670  -11.7170   20.1080 N   0  0  0  0  0  0  0  0  0  0  0  0
  -24.2650  -10.5590   20.7960 C   0  0  0  0  0  0  0  0  0  0  0  0
  -24.6910   -9.5710   21.7110 C   0  0  0  0  0  3  0  0  0  0  0  0
  -23.9290   -8.3990   21.9070 C   0  0  0  0  0  3  0  0  0  0  0  0
  -22.7270   -8.2080   21.1870 C   0  0  0  0  0  0  0  0  0  0  0  0
  -22.3180   -9.1840   20.2610 C   0  0  0  0  0  3  0  0  0  0  0  0
  -23.0820  -10.3460   20.0630 C   0  0  0  0  0  3  0  0  0  0  0  0
  -21.9280   -7.0940   21.2970 O   0  0  0  0  0  0  0  0  0  0  0  0
  -21.7910   -6.4200   22.4830 C   0  0  0  0  0  0  0  0  0  0  0  0
  -21.3000   -7.0540   23.6460 C   0  0  0  0  0  3  0  0  0  0  0  0
  -21.1040   -6.3080   24.8240 C   0  0  0  0  0  3  0  0  0  0  0  0
  -21.3940   -4.9290   24.8440 C   0  0  0  0  0  0  0  0  0  0  0  0
  -21.8750   -4.2960   23.6860 C   0  0  0  0  0  3  0  0  0  0  0  0
  -22.0730   -5.0390   22.5090 C   0  0  0  0  0  0  0  0  0  0  0  0
  -22.5190   -4.4190   21.3900 F   0  0  0  0  0  0  0  0  0  0  0  0
  -21.2010   -4.2100   25.9750 F   0  0  0  0  0  0  0  0  0  0  0  0
  -23.3270  -13.6850   21.2380 C   0  0  0  0  0  0  0  0  0  0  0  0
  -22.6850  -12.9830   22.1690 N   0  0  0  0  0  0  0  0  0  0  0  0
  -22.8760  -14.7510   20.8250 O   0  0  0  0  0  0  0  0  0  0  0  0
  -23.0610  -12.1160   22.5240 H   0  0  0  0  0  0  0  0  0  0  0  0
  -21.8020  -13.3200   22.5240 H   0  0  0  0  0  0  0  0  0  0  0  0
  -25.9180  -15.2770   20.1890 N   0  0  0  0  0  0  0  0  0  0  0  0
  -25.2010  -15.9520   20.4310 H   0  0  0  0  0  0  0  0  0  0  0  0
  -26.7160  -15.7020   19.7380 H   0  0  0  0  0  0  0  0  0  0  0  0
  1  7  1  0
  2  8  1  0
  2  1  1  0
  3  6  1  0
  4  7  1  0
  5  3  1  0
  5  8  1  0
  5  7  1  0
  6 14  1  0
  6  4  1  0
  7 10  1  1
  8  9  1  1
 10 13  1  0
 10 12  1  0
 10 11  1  0
 14 15  1  0
 15 17  1  0
 16 27  2  0
 17 22  1  0
 18 26  1  0
 18 28  1  0
 19 25  1  0
 19 21  1  0
 20 26  1  0
 21 20  1  0
 22 21  2  0
 23 24  1  0
 23 17  2  0
 24 19  2  0
 25 18  1  0
 26 16  1  0
 28 30  2  0
 29 28  1  0
 31 29  1  0
 32 41  2  0
 32 37  1  0
 33 29  1  0
 33 37  1  0
 34 33  1  0
 35 36  1  0
 35 34  1  0
 36 32  1  0
 37 38  2  0
 38 39  1  0
 40 39  2  0
 41 40  1  0
 42 16  1  0
 42 47  1  0
 42 43  1  0
 43 46  1  1
 43 44  1  0
 45 43  1  0
 47 50  1  0
 48 47  1  0
 48 52  1  0
 49 48  2  0
 52 51  1  0
 52 54  1  0
 54 55  1  0
 54 53  1  0
 56 65  1  0
 56  8  1  0
 57 65  1  0
 57 63  1  0
 58 63  1  0
 59 60  1  0
 59 58  1  0
 61 60  1  0
 61 70  1  0
 61 62  1  0
 63 62  1  0
 64 57  2  0
 65 66  1  0
 67 68  2  0
 68 87  1  0
 69 68  1  0
 69 72  1  0
 70 71  1  0
 70 67  1  0
 71 69  2  0
 72 73  1  0
 73 74  2  0
 75 78  1  0
 75 74  1  0
 76 75  2  0
 77 76  1  0
 77 72  2  0
 78 79  1  0
 79 84  2  0
 79 80  1  0
 80 81  2  0
 81 82  1  0
 82 86  1  0
 83 82  2  0
 84 83  1  0
 85 84  1  0
 87 88  1  0
 88 91  1  0
 88 90  1  0
 89 87  2  0
 92 67  1  0
 92 93  1  0
 94 92  1  0
M  ISO  4  14 101  15 101  57 100  65 100
M  END
>  <TORSDO>  (23) 
F 19

>  <SCORE>  (23) 
-11.817

>  <name>  (23) 
22

>  <ligand_id>  (23) 
22

>  <original_smiles>  (23) 
[H]c1c([H])c([H])c2c(c1[H])C([H])([H])C([H])([H])C([H])([H])C2([H])N([H])C(=O)C1([H])N(C(=O)C([H])(N([H])C(=O)C([H])(N([H])C([H])([H])[H])C([H])([H])[H])C(C([H])([H])[H])(C([H])([H])[H])C([H])([H])[H])C([H])([H])c2c([H])c(OC([H])([H])C3([H])C([H])([H])C4([H])C(C([H])([H])[H])(C([H])([H])N([H])C(=O)N5C([H])([H])C([H])([H])C([H])([H])C([H])(n6nc(-c7c([H])c([H])c(Oc8c([H])c([H])c(F)c([H])c8F)c([H])c7[H])c(C(=O)N([H])[H])c6N([H])[H])C5([H])[H])C([H])([H])C([H])([H])C4([N+]([H])([H])[H])C3([H])[H])c([H])c([H])c2C1([H])[H]

>  <smiles>  (23) 
[H]c1c([H])c([H])c2c(c1[H])C([H])([H])C([H])([H])C([H])([H])C2([H])N([H])C(=O)C1([H])N(C(=O)C([H])(N([H])C(=O)C([H])(N([H])C([H])([H])[H])C([H])([H])[H])C(C([H])([H])[H])(C([H])([H])[H])C([H])([H])[H])C([H])([H])c2c([H])c(OC([H])([H])C3([H])C([H])([H])C4([H])C(C([H])([H])[H])(C([H])([H])N([H])C(=O)N5C([H])([H])C([H])([H])C([H])([H])C([H])(n6nc(-c7c([H])c([H])c(Oc8c([H])c([H])c(F)c([H])c8F)c([H])c7[H])c(C(=O)N([H])[H])c6N([H])[H])C5([H])[H])C([H])([H])C([H])([H])C4([N+]([H])([H])[H])C3([H])[H])c([H])c([H])c2C1([H])[H]

$$$$
23:0:0
     RDKit          3D

 90 99  0  0  1  0  0  0  0  0999 V2000
  -29.1390  -21.3750   17.6820 C   0  0  0  0  0  2  0  0  0  0  0  0
  -29.3630  -18.9570   18.5530 C   0  0  0  0  0  2  0  0  0  0  0  0
  -27.9730  -21.7450   18.5980 C   0  0  0  0  0  2  0  0  0  0  0  0
  -29.9140  -20.3920   18.5260 C   0  0  0  0  0  3  0  0  0  0  0  0
  -29.2490  -18.9450   20.0740 C   0  0  0  0  0  3  0  0  0  0  0  0
  -29.5910  -20.6110   20.0180 C   0  0  0  0  0  3  0  0  0  0  0  0
  -28.5610  -21.8370   19.9560 N   0  0  1  0  0  4  0  0  0  0  0  0
  -27.8200  -21.6460   20.6170 H   0  0  0  0  0  0  0  0  0  0  0  0
  -30.1250  -17.6660   20.7120 C   0  0  0  0  0  2  0  0  0  0  0  0
  -30.5320  -14.9580   20.4630 C   0  0  0  0  0  0  0  0  0  0  0  0
  -30.4230  -12.6090   19.5290 C   0  0  0  0  0  2  0  0  0  0  0  0
  -29.5110  -12.5600   18.2830 C   0  0  0  0  0  2  0  0  0  0  0  0
  -28.0390  -12.3550   18.6900 C   0  0  0  0  0  2  0  0  0  0  0  0
  -27.6090  -13.2880   19.8530 C   0  0  0  0  0  3  0  0  0  0  0  0
  -28.6440  -13.3070   20.9950 C   0  0  0  0  0  2  0  0  0  0  0  0
  -29.9260  -13.7080   20.4020 N   0  0  0  0  0  0  0  0  0  0  0  0
  -31.7460  -15.0210   20.2480 O   0  0  0  0  0  0  0  0  0  0  0  0
  -29.7540  -16.1400   20.5570 N   0  0  0  0  0  0  0  0  0  0  0  0
  -28.7660  -15.9510   20.6210 H   0  0  0  0  0  0  0  0  0  0  0  0
  -25.2110  -13.8550   20.5430 C   0  0  0  0  0  0  0  0  0  0  0  0
  -24.1440  -13.0750   20.8940 C   0  0  0  0  0  0  0  0  0  0  0  0
  -24.6200  -11.7280   20.8850 C   0  0  0  0  0  0  0  0  0  0  0  0
  -26.2650  -12.9840   20.3290 N   0  0  0  0  0  0  0  0  0  0  0  0
  -25.9180  -11.6980   20.6030 N   0  0  0  0  0  0  0  0  0  0  0  0
  -23.8990  -10.4600   21.0670 C   0  0  0  0  0  0  0  0  0  0  0  0
  -24.3210   -9.4990   22.0110 C   0  0  0  0  0  3  0  0  0  0  0  0
  -23.5980   -8.2990   22.1820 C   0  0  0  0  0  3  0  0  0  0  0  0
  -22.4380   -8.0520   21.4090 C   0  0  0  0  0  0  0  0  0  0  0  0
  -22.0350   -9.0030   20.4560 C   0  0  0  0  0  3  0  0  0  0  0  0
  -22.7580  -10.1940   20.2830 C   0  0  0  0  0  3  0  0  0  0  0  0
  -21.6870   -6.9040   21.4900 O   0  0  0  0  0  0  0  0  0  0  0  0
  -21.6270   -6.1640   22.6430 C   0  0  0  0  0  0  0  0  0  0  0  0
  -21.1810   -6.7190   23.8630 C   0  0  0  0  0  3  0  0  0  0  0  0
  -21.0680   -5.9050   25.0080 C   0  0  0  0  0  3  0  0  0  0  0  0
  -21.3900   -4.5360   24.9340 C   0  0  0  0  0  0  0  0  0  0  0  0
  -21.8270   -3.9800   23.7190 C   0  0  0  0  0  3  0  0  0  0  0  0
  -21.9430   -4.7920   22.5760 C   0  0  0  0  0  0  0  0  0  0  0  0
  -22.3450   -4.2470   21.4030 F   0  0  0  0  0  0  0  0  0  0  0  0
  -21.2750   -3.7510   26.0300 F   0  0  0  0  0  0  0  0  0  0  0  0
  -22.7390  -13.5450   21.1260 C   0  0  0  0  0  0  0  0  0  0  0  0
  -21.9960  -12.8490   21.9800 N   0  0  0  0  0  0  0  0  0  0  0  0
  -22.3080  -14.5640   20.5870 O   0  0  0  0  0  0  0  0  0  0  0  0
  -22.3570  -12.0240   22.4370 H   0  0  0  0  0  0  0  0  0  0  0  0
  -21.0500  -13.1440   22.1790 H   0  0  0  0  0  0  0  0  0  0  0  0
  -25.3670  -15.2260   20.3560 N   0  0  0  0  0  0  0  0  0  0  0  0
  -24.5870  -15.8690   20.4390 H   0  0  0  0  0  0  0  0  0  0  0  0
  -26.2070  -15.6680   20.0050 H   0  0  0  0  0  0  0  0  0  0  0  0
  -28.9980  -23.3490   20.2400 C   0  0  0  0  0  3  0  0  0  0  0  0
  -27.9820  -24.6810   19.9780 C   0  0  0  0  0  3  0  0  0  0  0  0
  -28.2390  -26.1990   20.2230 O   0  0  0  0  0  0  0  0  0  0  0  0
  -24.6150  -31.8750   23.2340 C   0  0  0  0  0  0  0  0  0  0  0  0
  -27.1760  -27.1750   20.1650 C   0  0  0  0  0  0  0  0  0  0  0  0
  -23.4060  -30.4850   21.5980 C   0  0  0  0  0  3  0  0  0  0  0  0
  -24.8440  -28.9160   20.1600 C   0  0  0  0  0  0  0  0  0  0  0  0
  -25.9600  -30.7510   21.4190 C   0  0  0  0  0  2  0  0  0  0  0  0
  -26.0280  -29.3610   20.7620 C   0  0  0  0  0  0  0  0  0  0  0  0
  -27.1930  -28.5070   20.7490 C   0  0  0  0  0  3  0  0  0  0  0  0
  -25.9620  -26.8310   19.5280 C   0  0  0  0  0  3  0  0  0  0  0  0
  -24.8230  -27.6640   19.5290 C   0  0  0  0  0  3  0  0  0  0  0  0
  -23.6170  -29.8120   20.2170 C   0  0  0  0  0  2  0  0  0  0  0  0
  -24.6810  -31.0580   22.1380 N   0  0  0  0  0  0  0  0  0  0  0  0
  -23.5320  -32.1590   23.7680 O   0  0  0  0  0  0  0  0  0  0  0  0
  -22.7310  -29.4750   22.5620 C   0  0  0  0  0  0  0  0  0  0  0  0
  -21.4050  -29.2930   22.4330 N   0  0  0  0  0  0  0  0  0  0  0  0
  -23.4050  -28.8570   23.3910 O   0  0  0  0  0  0  0  0  0  0  0  0
  -20.9170  -29.8420   21.7390 H   0  0  0  0  0  0  0  0  0  0  0  0
  -18.0360  -28.0440   22.9040 C   0  0  0  0  0  0  0  0  0  0  0  0
  -20.5870  -28.3540   23.2060 C   0  0  0  0  0  3  0  0  0  0  0  0
  -20.7210  -26.9150   22.6550 C   0  0  0  0  0  2  0  0  0  0  0  0
  -19.6400  -26.5590   21.6300 C   0  0  0  0  0  2  0  0  0  0  0  0
  -18.2450  -26.6890   22.2490 C   0  0  0  0  0  2  0  0  0  0  0  0
  -19.1350  -28.8330   23.3390 C   0  0  0  0  0  0  0  0  0  0  0  0
  -18.8840  -30.0990   23.9100 C   0  0  0  0  0  3  0  0  0  0  0  0
  -17.5670  -30.5760   24.0540 C   0  0  0  0  0  3  0  0  0  0  0  0
  -16.4820  -29.7860   23.6330 C   0  0  0  0  0  3  0  0  0  0  0  0
  -16.7190  -28.5230   23.0640 C   0  0  0  0  0  3  0  0  0  0  0  0
  -25.8960  -32.5110   23.8550 C   0  0  0  0  0  3  0  0  0  0  0  0
  -26.4070  -31.7430   25.1360 C   0  0  1  0  0  0  0  0  0  0  0  0
  -25.3120  -31.5190   26.2060 C   0  0  0  0  0  1  0  0  0  0  0  0
  -26.9820  -30.3610   24.7540 C   0  0  0  0  0  1  0  0  0  0  0  0
  -27.5630  -32.5350   25.7920 C   0  0  0  0  0  1  0  0  0  0  0  0
  -25.5870  -33.9120   24.1860 N   0  0  0  0  0  0  0  0  0  0  0  0
  -25.9140  -34.9660   23.4280 C   0  0  0  0  0  0  0  0  0  0  0  0
  -26.5720  -34.8640   22.3890 O   0  0  0  0  0  0  0  0  0  0  0  0
  -25.0050  -34.0640   24.9970 H   0  0  0  0  0  0  0  0  0  0  0  0
  -24.1830  -36.7640   23.1030 C   0  0  0  0  0  1  0  0  0  0  0  0
  -25.4360  -36.3570   23.8950 C   0  0  0  0  0  3  0  0  0  0  0  0
  -27.5840  -37.2390   24.6920 C   0  0  0  0  0  1  0  0  0  0  0  0
  -26.4680  -37.4080   23.7660 N   0  0  0  0  0  0  0  0  0  0  0  0
  -26.0670  -38.3300   23.9170 H   0  0  0  0  0  0  0  0  0  0  0  0
  1  3  1  0
  2  5  1  0
  3  7  1  0
  4  1  1  0
  4  2  1  0
  4  6  1  0
  5  9  1  0
  6  7  1  0
  6  5  1  0
  7 48  1  0
  7  8  1  1
 10 18  1  0
 11 16  1  0
 12 13  1  0
 12 11  1  0
 14 13  1  0
 14 23  1  0
 14 15  1  0
 16 10  1  0
 16 15  1  0
 17 10  2  0
 18 19  1  0
 18  9  1  0
 20 21  2  0
 21 40  1  0
 22 21  1  0
 22 25  1  0
 23 20  1  0
 23 24  1  0
 24 22  2  0
 25 26  1  0
 26 27  2  0
 28 31  1  0
 28 27  1  0
 29 28  2  0
 30 29  1  0
 30 25  2  0
 31 32  1  0
 32 33  1  0
 33 34  2  0
 35 34  1  0
 35 39  1  0
 36 35  2  0
 37 32  2  0
 37 36  1  0
 38 37  1  0
 40 41  1  0
 41 44  1  0
 41 43  1  0
 42 40  2  0
 45 46  1  0
 45 20  1  0
 47 45  1  0
 49 50  1  0
 49 48  2  0
 51 62  2  0
 52 50  1  0
 52 57  1  0
 53 61  1  0
 53 63  1  0
 54 60  1  0
 54 56  1  0
 55 61  1  0
 56 55  1  0
 57 56  2  0
 58 59  1  0
 58 52  2  0
 59 54  2  0
 60 53  1  0
 61 51  1  0
 63 65  2  0
 64 63  1  0
 66 64  1  0
 67 76  2  0
 67 72  1  0
 68 64  1  0
 68 72  1  0
 69 68  1  0
 70 71  1  0
 70 69  1  0
 71 67  1  0
 72 73  2  0
 73 74  1  0
 75 74  2  0
 76 75  1  0
 77 51  1  0
 77 82  1  0
 77 78  1  0
 78 81  1  1
 78 79  1  0
 80 78  1  0
 82 85  1  0
 83 87  1  0
 83 82  1  0
 84 83  2  0
 87 86  1  0
 89 87  1  0
 89 90  1  0
 89 88  1  0
M  ISO  4  10 100  18 100  49 101  50 101
M  END
>  <TORSDO>  (24) 
F 19

>  <SCORE>  (24) 
-14.962

>  <name>  (24) 
23

>  <ligand_id>  (24) 
23

>  <original_smiles>  (24) 
[H]c1c([H])c([H])c2c(c1[H])C([H])([H])C([H])([H])C([H])([H])C2([H])N([H])C(=O)C1([H])N(C(=O)C([H])(N([H])C(=O)C([H])(N([H])C([H])([H])[H])C([H])([H])[H])C(C([H])([H])[H])(C([H])([H])[H])C([H])([H])[H])C([H])([H])c2c([H])c(OC([H])([H])C([H])([H])[N+]3([H])C([H])([H])C([H])([H])C4([H])C([H])([H])C([H])(C([H])([H])N([H])C(=O)N5C([H])([H])C([H])([H])C([H])([H])C([H])(n6nc(-c7c([H])c([H])c(Oc8c([H])c([H])c(F)c([H])c8F)c([H])c7[H])c(C(=O)N([H])[H])c6N([H])[H])C5([H])[H])C43[H])c([H])c([H])c2C1([H])[H]

>  <smiles>  (24) 
[H]c1c([H])c([H])c2c(c1[H])C([H])([H])C([H])([H])C([H])([H])C2([H])N([H])C(=O)C1([H])N(C(=O)C([H])(N([H])C(=O)C([H])(N([H])C([H])([H])[H])C([H])([H])[H])C(C([H])([H])[H])(C([H])([H])[H])C([H])([H])[H])C([H])([H])c2c([H])c(OC([H])([H])C([H])([H])[N+]3([H])C([H])([H])C([H])([H])C4([H])C([H])([H])C([H])(C([H])([H])N([H])C(=O)N5C([H])([H])C([H])([H])C([H])([H])C([H])(n6nc(-c7c([H])c([H])c(Oc8c([H])c([H])c(F)c([H])c8F)c([H])c7[H])c(C(=O)N([H])[H])c6N([H])[H])C5([H])[H])C43[H])c([H])c([H])c2C1([H])[H]

$$$$
24:0:0
     RDKit          3D

 89 99  0  0  1  0  0  0  0  0999 V2000
  -29.7630  -18.6910   20.5230 C   0  0  0  0  0  0  0  0  0  0  0  0
  -30.2080  -17.2620   20.4880 N   0  0  0  0  0  2  0  0  0  0  0  0
  -30.4010  -15.6450   20.2800 C   0  0  0  0  0  0  0  0  0  0  0  0
  -30.3020  -13.1070   19.5150 C   0  0  0  0  0  2  0  0  0  0  0  0
  -29.4550  -12.7300   18.2740 C   0  0  0  0  0  2  0  0  0  0  0  0
  -28.0320  -12.3770   18.7080 C   0  0  0  0  0  2  0  0  0  0  0  0
  -27.5050  -13.3910   19.7510 C   0  0  0  0  0  3  0  0  0  0  0  0
  -28.5070  -13.7790   20.8670 C   0  0  0  0  0  2  0  0  0  0  0  0
  -29.7150  -14.3500   20.2270 N   0  0  0  0  0  0  0  0  0  0  0  0
  -31.5940  -15.3510   20.1090 O   0  0  0  0  0  0  0  0  0  0  0  0
  -25.1380  -13.8840   20.5020 C   0  0  0  0  0  0  0  0  0  0  0  0
  -24.0840  -13.0910   20.8570 C   0  0  0  0  0  0  0  0  0  0  0  0
  -24.5730  -11.7480   20.8360 C   0  0  0  0  0  0  0  0  0  0  0  0
  -26.1950  -13.0280   20.2690 N   0  0  0  0  0  0  0  0  0  0  0  0
  -25.8710  -11.7350   20.5410 N   0  0  0  0  0  0  0  0  0  0  0  0
  -23.8570  -10.4760   21.0190 C   0  0  0  0  0  0  0  0  0  0  0  0
  -24.2750   -9.5190   21.9680 C   0  0  0  0  0  3  0  0  0  0  0  0
  -23.5530   -8.3180   22.1430 C   0  0  0  0  0  3  0  0  0  0  0  0
  -22.3970   -8.0660   21.3650 C   0  0  0  0  0  0  0  0  0  0  0  0
  -21.9980   -9.0110   20.4040 C   0  0  0  0  0  3  0  0  0  0  0  0
  -22.7210  -10.2040   20.2290 C   0  0  0  0  0  3  0  0  0  0  0  0
  -21.6480   -6.9150   21.4470 O   0  0  0  0  0  0  0  0  0  0  0  0
  -21.5710   -6.1860   22.6070 C   0  0  0  0  0  0  0  0  0  0  0  0
  -21.0790   -6.7440   23.8070 C   0  0  0  0  0  3  0  0  0  0  0  0
  -20.9520   -5.9400   24.9580 C   0  0  0  0  0  3  0  0  0  0  0  0
  -21.3080   -4.5800   24.9090 C   0  0  0  0  0  0  0  0  0  0  0  0
  -21.7930   -4.0210   23.7140 C   0  0  0  0  0  3  0  0  0  0  0  0
  -21.9220   -4.8220   22.5660 C   0  0  0  0  0  0  0  0  0  0  0  0
  -22.3700   -4.2740   21.4110 F   0  0  0  0  0  0  0  0  0  0  0  0
  -21.1800   -3.8040   26.0120 F   0  0  0  0  0  0  0  0  0  0  0  0
  -22.6780  -13.5530   21.0980 C   0  0  0  0  0  0  0  0  0  0  0  0
  -21.9450  -12.8610   21.9610 N   0  0  0  0  0  0  0  0  0  0  0  0
  -22.2390  -14.5660   20.5560 O   0  0  0  0  0  0  0  0  0  0  0  0
  -22.3130  -12.0420   22.4250 H   0  0  0  0  0  0  0  0  0  0  0  0
  -21.0000  -13.1530   22.1630 H   0  0  0  0  0  0  0  0  0  0  0  0
  -25.2840  -15.2560   20.3230 N   0  0  0  0  0  0  0  0  0  0  0  0
  -24.5140  -15.9070   20.4370 H   0  0  0  0  0  0  0  0  0  0  0  0
  -26.1460  -15.7020   20.0340 H   0  0  0  0  0  0  0  0  0  0  0  0
  -32.4880  -19.1090   19.6240 C   0  0  0  0  0  2  0  0  0  0  0  0
  -30.9540  -19.4740   21.1380 C   0  0  0  0  0  3  0  0  0  0  0  0
  -31.8610  -20.3720   20.2330 C   0  0  2  0  0  0  0  0  0  0  0  0
  -32.3950  -18.8740   21.1540 C   0  0  1  0  0  0  0  0  0  0  0  0
  -32.9550  -20.3200   21.3520 C   0  0  2  0  0  0  0  0  0  0  0  0
  -32.6670  -21.0900   22.6660 C   0  0  0  0  0  1  0  0  0  0  0  0
  -34.4370  -20.6060   20.9970 C   0  0  0  0  0  1  0  0  0  0  0  0
  -28.6780  -20.2130   20.1620 C   0  0  0  0  0  3  0  0  0  0  0  0
  -28.8480  -22.1370   20.4070 C   0  0  0  0  0  3  0  0  0  0  0  0
  -27.9030  -23.8150   20.2050 C   0  0  0  0  0  3  0  0  0  0  0  0
  -28.1010  -25.5500   20.3990 O   0  0  0  0  0  0  0  0  0  0  0  0
  -24.6440  -31.8690   23.2630 C   0  0  0  0  0  0  0  0  0  0  0  0
  -27.1420  -26.7640   20.3230 C   0  0  0  0  0  0  0  0  0  0  0  0
  -23.4540  -30.4680   21.6300 C   0  0  0  0  0  3  0  0  0  0  0  0
  -24.8950  -28.8030   20.2360 C   0  0  0  0  0  0  0  0  0  0  0  0
  -26.0330  -30.5950   21.5210 C   0  0  0  0  0  2  0  0  0  0  0  0
  -26.0890  -29.1590   20.8750 C   0  0  0  0  0  0  0  0  0  0  0  0
  -27.1980  -28.1660   20.8860 C   0  0  0  0  0  3  0  0  0  0  0  0
  -25.9170  -26.6130   19.6280 C   0  0  0  0  0  3  0  0  0  0  0  0
  -24.8470  -27.5560   19.5910 C   0  0  0  0  0  3  0  0  0  0  0  0
  -23.6950  -29.7630   20.2640 C   0  0  0  0  0  2  0  0  0  0  0  0
  -24.7340  -31.0110   22.1900 N   0  0  0  0  0  0  0  0  0  0  0  0
  -23.5500  -32.1800   23.7650 O   0  0  0  0  0  0  0  0  0  0  0  0
  -22.7280  -29.5010   22.6040 C   0  0  0  0  0  0  0  0  0  0  0  0
  -21.3960  -29.3490   22.4680 N   0  0  0  0  0  0  0  0  0  0  0  0
  -23.3730  -28.8850   23.4550 O   0  0  0  0  0  0  0  0  0  0  0  0
  -20.9220  -29.8960   21.7630 H   0  0  0  0  0  0  0  0  0  0  0  0
  -18.0010  -28.1490   22.9630 C   0  0  0  0  0  0  0  0  0  0  0  0
  -20.5600  -28.4210   23.2440 C   0  0  0  0  0  3  0  0  0  0  0  0
  -20.6650  -26.9810   22.6900 C   0  0  0  0  0  2  0  0  0  0  0  0
  -19.5720  -26.6450   21.6690 C   0  0  0  0  0  2  0  0  0  0  0  0
  -18.1840  -26.7940   22.2980 C   0  0  0  0  0  2  0  0  0  0  0  0
  -19.1160  -28.9190   23.3920 C   0  0  0  0  0  0  0  0  0  0  0  0
  -18.8870  -30.1820   23.9790 C   0  0  0  0  0  3  0  0  0  0  0  0
  -17.5790  -30.6780   24.1360 C   0  0  0  0  0  3  0  0  0  0  0  0
  -16.4790  -29.9080   23.7200 C   0  0  0  0  0  3  0  0  0  0  0  0
  -16.6920  -28.6440   23.1400 C   0  0  0  0  0  3  0  0  0  0  0  0
  -25.9080  -32.5160   23.9050 C   0  0  0  0  0  3  0  0  0  0  0  0
  -26.3870  -31.7720   25.2130 C   0  0  1  0  0  0  0  0  0  0  0  0
  -25.2700  -31.5740   26.2650 C   0  0  0  0  0  1  0  0  0  0  0  0
  -26.9610  -30.3760   24.8780 C   0  0  0  0  0  1  0  0  0  0  0  0
  -27.5350  -32.5660   25.8780 C   0  0  0  0  0  1  0  0  0  0  0  0
  -25.5960  -33.9250   24.2190 N   0  0  0  0  0  0  0  0  0  0  0  0
  -25.9220  -34.9760   23.4580 C   0  0  0  0  0  0  0  0  0  0  0  0
  -26.5760  -34.8660   22.4170 O   0  0  0  0  0  0  0  0  0  0  0  0
  -25.0140  -34.0840   25.0290 H   0  0  0  0  0  0  0  0  0  0  0  0
  -24.1880  -36.7770   23.1450 C   0  0  0  0  0  1  0  0  0  0  0  0
  -25.4530  -36.3740   23.9180 C   0  0  0  0  0  3  0  0  0  0  0  0
  -27.6090  -37.2720   24.6780 C   0  0  0  0  0  1  0  0  0  0  0  0
  -26.4820  -37.4250   23.7620 N   0  0  0  0  0  0  0  0  0  0  0  0
  -26.0780  -38.3460   23.9080 H   0  0  0  0  0  0  0  0  0  0  0  0
  2  1  1  0
  3  2  1  0
  4  9  1  0
  5  6  1  0
  5  4  1  0
  7  6  1  0
  7 14  1  0
  7  8  1  0
  9  3  1  0
  9  8  1  0
 10  3  2  0
 11 12  2  0
 12 31  1  0
 13 12  1  0
 13 16  1  0
 14 11  1  0
 14 15  1  0
 15 13  2  0
 16 17  1  0
 17 18  2  0
 19 22  1  0
 19 18  1  0
 20 19  2  0
 21 20  1  0
 21 16  2  0
 22 23  1  0
 23 24  1  0
 24 25  2  0
 26 25  1  0
 26 30  1  0
 27 26  2  0
 28 23  2  0
 28 27  1  0
 29 28  1  0
 31 32  1  0
 32 35  1  0
 32 34  1  0
 33 31  2  0
 36 37  1  0
 36 11  1  0
 38 36  1  0
 40  1  1  0
 40 42  1  0
 41 39  1  6
 41 40  1  0
 41 42  1  0
 41 43  1  0
 42 39  1  6
 42 43  1  0
 43 44  1  1
 45 43  1  0
 46 47  1  0
 46  1  2  0
 48 49  1  0
 48 47  2  0
 50 61  2  0
 51 49  1  0
 51 56  1  0
 52 60  1  0
 52 62  1  0
 53 59  1  0
 53 55  1  0
 54 60  1  0
 55 56  2  0
 55 54  1  0
 57 51  2  0
 58 57  1  0
 58 53  2  0
 59 52  1  0
 60 50  1  0
 62 64  2  0
 63 62  1  0
 65 63  1  0
 66 75  2  0
 66 71  1  0
 67 63  1  0
 67 71  1  0
 68 67  1  0
 69 70  1  0
 69 68  1  0
 70 66  1  0
 71 72  2  0
 72 73  1  0
 74 73  2  0
 75 74  1  0
 76 50  1  0
 76 81  1  0
 76 77  1  0
 77 80  1  1
 77 78  1  0
 79 77  1  0
 81 84  1  0
 82 86  1  0
 82 81  1  0
 83 82  2  0
 86 85  1  0
 88 89  1  0
 88 86  1  0
 88 87  1  0
M  ISO  4   2 100   3 100  48 101  49 101
M  END
>  <TORSDO>  (25) 
F 20

>  <SCORE>  (25) 
-15.713

>  <name>  (25) 
24

>  <ligand_id>  (25) 
24

>  <original_smiles>  (25) 
[H]c1c([H])c([H])c2c(c1[H])C([H])([H])C([H])([H])C([H])([H])C2([H])N([H])C(=O)C1([H])N(C(=O)C([H])(N([H])C(=O)C([H])(N([H])C([H])([H])[H])C([H])([H])[H])C(C([H])([H])[H])(C([H])([H])[H])C([H])([H])[H])C([H])([H])c2c([H])c(OC([H])([H])C([H])([H])C([H])([H])C(=NC(=O)N3C([H])([H])C([H])([H])C([H])([H])C([H])(n4nc(-c5c([H])c([H])c(Oc6c([H])c([H])c(F)c([H])c6F)c([H])c5[H])c(C(=O)N([H])[H])c4N([H])[H])C3([H])[H])C3([H])C4([H])C([H])([H])C3([H])C4(C([H])([H])[H])C([H])([H])[H])c([H])c([H])c2C1([H])[H]

>  <smiles>  (25) 
[H]c1c([H])c([H])c2c(c1[H])C([H])([H])C([H])([H])C([H])([H])C2([H])N([H])C(=O)C1([H])N(C(=O)C([H])(N([H])C(=O)C([H])(N([H])C([H])([H])[H])C([H])([H])[H])C(C([H])([H])[H])(C([H])([H])[H])C([H])([H])[H])C([H])([H])c2c([H])c(OC([H])([H])C([H])([H])C([H])([H])C(=NC(=O)N3C([H])([H])C([H])([H])C([H])([H])C([H])(n4nc(-c5c([H])c([H])c(Oc6c([H])c([H])c(F)c([H])c6F)c([H])c5[H])c(C(=O)N([H])[H])c4N([H])[H])C3([H])[H])C3([H])C4([H])C([H])([H])C3([H])C4(C([H])([H])[H])C([H])([H])[H])c([H])c([H])c2C1([H])[H]

$$$$
25:0:0
     RDKit          3D

 91100  0  0  1  0  0  0  0  0999 V2000
  -28.8790  -22.5190   21.8980 C   0  0  0  0  0  3  0  0  0  0  0  0
  -29.2340  -21.3160   22.5740 C   0  0  0  0  0  3  0  0  0  0  0  0
  -28.8870  -21.1730   19.9050 C   0  0  0  0  0  3  0  0  0  0  0  0
  -28.6540  -22.5920   20.5090 C   0  0  0  0  0  0  0  0  0  0  0  0
  -29.4250  -20.0360   21.9680 C   0  0  0  0  0  0  0  0  0  0  0  0
  -29.2890  -19.8190   20.5710 C   0  0  0  0  0  0  0  0  0  0  0  0
  -29.8130  -18.8780   22.8710 C   0  0  0  0  0  1  0  0  0  0  0  0
  -28.0400  -24.1340   19.8830 C   0  0  0  0  0  2  0  0  0  0  0  0
  -28.2010  -25.7420   20.3130 O   0  0  0  0  0  0  0  0  0  0  0  0
  -24.6670  -31.8190   23.1660 C   0  0  0  0  0  0  0  0  0  0  0  0
  -27.2220  -26.8810   20.1870 C   0  0  0  0  0  0  0  0  0  0  0  0
  -23.4840  -30.4280   21.5160 C   0  0  0  0  0  3  0  0  0  0  0  0
  -24.9400  -28.8060   20.1080 C   0  0  0  0  0  0  0  0  0  0  0  0
  -26.0560  -30.6080   21.4060 C   0  0  0  0  0  2  0  0  0  0  0  0
  -26.1230  -29.1930   20.7500 C   0  0  0  0  0  0  0  0  0  0  0  0
  -27.2530  -28.2500   20.7680 C   0  0  0  0  0  3  0  0  0  0  0  0
  -26.0150  -26.6650   19.4810 C   0  0  0  0  0  3  0  0  0  0  0  0
  -24.9160  -27.5640   19.4530 C   0  0  0  0  0  3  0  0  0  0  0  0
  -23.7270  -29.7390   20.1430 C   0  0  0  0  0  2  0  0  0  0  0  0
  -24.7570  -30.9800   22.0820 N   0  0  0  0  0  0  0  0  0  0  0  0
  -23.5730  -32.1180   23.6720 O   0  0  0  0  0  0  0  0  0  0  0  0
  -22.7690  -29.4410   22.4760 C   0  0  0  0  0  0  0  0  0  0  0  0
  -21.4350  -29.3030   22.3520 N   0  0  0  0  0  0  0  0  0  0  0  0
  -23.4220  -28.7990   23.3020 O   0  0  0  0  0  0  0  0  0  0  0  0
  -20.9620  -29.8730   21.6640 H   0  0  0  0  0  0  0  0  0  0  0  0
  -18.0320  -28.1400   22.8470 C   0  0  0  0  0  0  0  0  0  0  0  0
  -20.5950  -28.3760   23.1170 C   0  0  0  0  0  3  0  0  0  0  0  0
  -20.6800  -26.9430   22.5400 C   0  0  0  0  0  2  0  0  0  0  0  0
  -19.5770  -26.6370   21.5210 C   0  0  0  0  0  2  0  0  0  0  0  0
  -18.1960  -26.7940   22.1620 C   0  0  0  0  0  2  0  0  0  0  0  0
  -19.1590  -28.8900   23.2810 C   0  0  0  0  0  0  0  0  0  0  0  0
  -18.9500  -30.1490   23.8840 C   0  0  0  0  0  3  0  0  0  0  0  0
  -17.6490  -30.6600   24.0550 C   0  0  0  0  0  3  0  0  0  0  0  0
  -16.5380  -29.9080   23.6340 C   0  0  0  0  0  3  0  0  0  0  0  0
  -16.7310  -28.6500   23.0360 C   0  0  0  0  0  3  0  0  0  0  0  0
  -25.9330  -32.4560   23.8140 C   0  0  0  0  0  3  0  0  0  0  0  0
  -26.4570  -31.6520   25.0690 C   0  0  1  0  0  0  0  0  0  0  0  0
  -25.3680  -31.3790   26.1330 C   0  0  0  0  0  1  0  0  0  0  0  0
  -27.0470  -30.2880   24.6460 C   0  0  0  0  0  1  0  0  0  0  0  0
  -27.6050  -32.4340   25.7500 C   0  0  0  0  0  1  0  0  0  0  0  0
  -25.5980  -33.8380   24.2040 N   0  0  0  0  0  0  0  0  0  0  0  0
  -25.9110  -34.9330   23.5000 C   0  0  0  0  0  0  0  0  0  0  0  0
  -26.5730  -34.8880   22.4600 O   0  0  0  0  0  0  0  0  0  0  0  0
  -25.0050  -33.9460   25.0140 H   0  0  0  0  0  0  0  0  0  0  0  0
  -24.1500  -36.7200   23.2650 C   0  0  0  0  0  1  0  0  0  0  0  0
  -25.4140  -36.2950   24.0290 C   0  0  0  0  0  3  0  0  0  0  0  0
  -27.5570  -37.1760   24.8470 C   0  0  0  0  0  1  0  0  0  0  0  0
  -26.4280  -37.3690   23.9400 N   0  0  0  0  0  0  0  0  0  0  0  0
  -26.0130  -38.2750   24.1400 H   0  0  0  0  0  0  0  0  0  0  0  0
  -29.7280  -18.2160   19.9340 C   0  0  0  0  0  0  0  0  0  0  0  0
  -30.4120  -15.3310   20.3510 C   0  0  0  0  0  0  0  0  0  0  0  0
  -30.4380  -12.8480   19.5490 C   0  0  0  0  0  2  0  0  0  0  0  0
  -29.5470  -12.5950   18.3060 C   0  0  0  0  0  2  0  0  0  0  0  0
  -28.0970  -12.3050   18.7290 C   0  0  0  0  0  2  0  0  0  0  0  0
  -27.6120  -13.2840   19.8260 C   0  0  0  0  0  3  0  0  0  0  0  0
  -28.6380  -13.4840   20.9650 C   0  0  0  0  0  2  0  0  0  0  0  0
  -29.8690  -14.0050   20.3470 N   0  0  0  0  0  0  0  0  0  0  0  0
  -31.6210  -15.3260   20.0740 O   0  0  0  0  0  0  0  0  0  0  0  0
  -29.6450  -16.6130   20.4720 N   0  0  0  0  0  4  0  0  0  0  0  0
  -28.7120  -16.4120   20.7980 H   0  0  0  0  0  0  0  0  0  0  0  0
  -25.2380  -13.8260   20.5750 C   0  0  0  0  0  0  0  0  0  0  0  0
  -24.1740  -13.0440   20.9260 C   0  0  0  0  0  0  0  0  0  0  0  0
  -24.6410  -11.6940   20.8760 C   0  0  0  0  0  0  0  0  0  0  0  0
  -26.2820  -12.9550   20.3220 N   0  0  0  0  0  0  0  0  0  0  0  0
  -25.9350  -11.6650   20.5720 N   0  0  0  0  0  0  0  0  0  0  0  0
  -23.9110  -10.4300   21.0400 C   0  0  0  0  0  0  0  0  0  0  0  0
  -24.3650   -9.4210   21.9180 C   0  0  0  0  0  3  0  0  0  0  0  0
  -23.6310   -8.2250   22.0750 C   0  0  0  0  0  3  0  0  0  0  0  0
  -22.4290   -8.0290   21.3550 C   0  0  0  0  0  0  0  0  0  0  0  0
  -21.9940   -9.0270   20.4650 C   0  0  0  0  0  3  0  0  0  0  0  0
  -22.7280  -10.2140   20.3050 C   0  0  0  0  0  3  0  0  0  0  0  0
  -21.6650   -6.8890   21.4240 O   0  0  0  0  0  0  0  0  0  0  0  0
  -21.6860   -6.0750   22.5280 C   0  0  0  0  0  0  0  0  0  0  0  0
  -21.4020   -6.5650   23.8220 C   0  0  0  0  0  3  0  0  0  0  0  0
  -21.3660   -5.6790   24.9180 C   0  0  0  0  0  3  0  0  0  0  0  0
  -21.6040   -4.3060   24.7220 C   0  0  0  0  0  0  0  0  0  0  0  0
  -21.8820   -3.8150   23.4340 C   0  0  0  0  0  3  0  0  0  0  0  0
  -21.9190   -4.6970   22.3400 C   0  0  0  0  0  0  0  0  0  0  0  0
  -22.1660   -4.2160   21.0980 F   0  0  0  0  0  0  0  0  0  0  0  0
  -21.5620   -3.4540   25.7730 F   0  0  0  0  0  0  0  0  0  0  0  0
  -22.7750  -13.5190   21.1890 C   0  0  0  0  0  0  0  0  0  0  0  0
  -22.0400  -12.8180   22.0440 N   0  0  0  0  0  0  0  0  0  0  0  0
  -22.3430  -14.5480   20.6710 O   0  0  0  0  0  0  0  0  0  0  0  0
  -22.4030  -11.9880   22.4880 H   0  0  0  0  0  0  0  0  0  0  0  0
  -21.1000  -13.1190   22.2610 H   0  0  0  0  0  0  0  0  0  0  0  0
  -25.3990  -15.2000   20.4190 N   0  0  0  0  0  0  0  0  0  0  0  0
  -24.6240  -15.8440   20.5340 H   0  0  0  0  0  0  0  0  0  0  0  0
  -26.2330  -15.6460   20.0610 H   0  0  0  0  0  0  0  0  0  0  0  0
  -30.0050  -19.0190   17.4220 C   0  0  0  0  0  2  0  0  0  0  0  0
  -30.0940  -17.5130   17.4190 C   0  0  0  0  0  2  0  0  0  0  0  0
  -29.2780  -18.2190   18.4820 C   0  0  0  0  0  3  0  0  0  0  0  0
  1  2  1  0
  3  4  1  0
  3  6  2  0
  4  1  2  0
  5  2  2  0
  5  7  1  0
  6  5  1  0
  8  9  1  0
  8  4  1  0
 10 21  2  0
 11  9  1  0
 11 16  1  0
 12 20  1  0
 12 22  1  0
 13 19  1  0
 13 15  1  0
 14 20  1  0
 15 16  2  0
 15 14  1  0
 17 11  2  0
 18 17  1  0
 18 13  2  0
 19 12  1  0
 20 10  1  0
 22 24  2  0
 23 22  1  0
 25 23  1  0
 26 35  2  0
 26 31  1  0
 27 23  1  0
 27 31  1  0
 28 27  1  0
 29 30  1  0
 29 28  1  0
 30 26  1  0
 31 32  2  0
 32 33  1  0
 34 33  2  0
 35 34  1  0
 36 10  1  0
 36 41  1  0
 36 37  1  0
 37 40  1  1
 37 38  1  0
 39 37  1  0
 41 44  1  0
 42 46  1  0
 42 41  1  0
 43 42  2  0
 46 45  1  0
 48 46  1  0
 48 49  1  0
 48 47  1  0
 50 59  2  3
 50  6  1  0
 51 59  1  0
 52 57  1  0
 53 54  1  0
 53 52  1  0
 55 54  1  0
 55 64  1  0
 55 56  1  0
 57 51  1  0
 57 56  1  0
 58 51  2  0
 59 60  1  0
 61 62  2  0
 62 81  1  0
 63 62  1  0
 63 66  1  0
 64 65  1  0
 64 61  1  0
 65 63  2  0
 66 67  1  0
 67 68  2  0
 69 72  1  0
 69 68  1  0
 70 69  2  0
 71 70  1  0
 71 66  2  0
 72 73  1  0
 73 74  1  0
 74 75  2  0
 76 75  1  0
 76 80  1  0
 77 76  2  0
 78 73  2  0
 78 77  1  0
 79 78  1  0
 81 82  1  0
 82 85  1  0
 82 84  1  0
 83 81  2  0
 86 87  1  0
 86 61  1  0
 88 86  1  0
 89 91  1  0
 90 89  1  0
 90 91  1  0
 91 50  1  0
M  ISO  4   8 101   9 101  51 100  59 100
M  END
>  <TORSDO>  (26) 
F 19

>  <SCORE>  (26) 
-13.201

>  <name>  (26) 
25

>  <ligand_id>  (26) 
25

>  <original_smiles>  (26) 
[H]c1c([H])c([H])c2c(c1[H])C([H])([H])C([H])([H])C([H])([H])C2([H])N([H])C(=O)C1([H])N(C(=O)C([H])(N([H])C(=O)C([H])(N([H])C([H])([H])[H])C([H])([H])[H])C(C([H])([H])[H])(C([H])([H])[H])C([H])([H])[H])C([H])([H])c2c([H])c(OC([H])([H])c3c([H])c([H])c(C([H])([H])[H])c(C([H])(N([H])C(=O)N4C([H])([H])C([H])([H])C([H])([H])C([H])(n5nc(-c6c([H])c([H])c(Oc7c([H])c([H])c(F)c([H])c7F)c([H])c6[H])c(C(=O)N([H])[H])c5N([H])[H])C4([H])[H])C4([H])C([H])([H])C4([H])[H])c3[H])c([H])c([H])c2C1([H])[H]

>  <smiles>  (26) 
[H]c1c([H])c([H])c2c(c1[H])C([H])([H])C([H])([H])C([H])([H])C2([H])N([H])C(=O)C1([H])N(C(=O)C([H])(N([H])C(=O)C([H])(N([H])C([H])([H])[H])C([H])([H])[H])C(C([H])([H])[H])(C([H])([H])[H])C([H])([H])[H])C([H])([H])c2c([H])c(OC([H])([H])c3c([H])c([H])c(C([H])([H])[H])c(C([H])(N([H])C(=O)N4C([H])([H])C([H])([H])C([H])([H])C([H])(n5nc(-c6c([H])c([H])c(Oc7c([H])c([H])c(F)c([H])c7F)c([H])c6[H])c(C(=O)N([H])[H])c5N([H])[H])C4([H])[H])C4([H])C([H])([H])C4([H])[H])c3[H])c([H])c([H])c2C1([H])[H]

$$$$
26:0:0
     RDKit          3D

 95103  0  0  1  0  0  0  0  0999 V2000
  -29.5810  -22.4910   22.1510 C   0  0  0  0  0  2  0  0  0  0  0  0
  -29.7870  -22.1860   19.6900 C   0  0  0  0  0  2  0  0  0  0  0  0
  -30.1820  -23.9070   22.0230 C   0  0  0  0  0  2  0  0  0  0  0  0
  -30.3960  -23.6010   19.5740 C   0  0  0  0  0  2  0  0  0  0  0  0
  -30.1280  -21.5560   21.0530 C   0  0  0  0  0  3  0  0  0  0  0  0
  -29.9480  -24.4960   20.6730 N   0  0  2  0  0  4  0  0  0  0  0  0
  -28.9500  -24.5920   20.5500 H   0  0  0  0  0  0  0  0  0  0  0  0
  -29.6710  -20.0750   21.2020 C   0  0  0  0  0  2  0  0  0  0  0  0
  -30.8470  -19.1830   21.3490 N   0  0  0  0  0  4  0  0  0  0  0  0
  -31.3270  -19.4920   22.1810 H   0  0  0  0  0  0  0  0  0  0  0  0
  -31.4700  -19.3260   20.5720 H   0  0  0  0  0  0  0  0  0  0  0  0
  -30.6260  -17.7270   21.5300 C   0  0  0  0  0  2  0  0  0  0  0  0
  -30.6270  -17.2860   18.9680 C   0  0  0  0  0  1  0  0  0  0  0  0
  -29.9590  -16.9990   20.3350 C   0  0  0  0  0  3  0  0  0  0  0  0
  -30.6280  -14.5240   20.3550 C   0  0  0  0  0  0  0  0  0  0  0  0
  -30.3620  -12.3580   19.2320 C   0  0  0  0  0  2  0  0  0  0  0  0
  -29.4100  -12.5750   18.0390 C   0  0  0  0  0  2  0  0  0  0  0  0
  -27.9360  -12.4370   18.4670 C   0  0  0  0  0  2  0  0  0  0  0  0
  -27.5990  -13.2620   19.7350 C   0  0  0  0  0  3  0  0  0  0  0  0
  -28.6600  -13.0330   20.8380 C   0  0  0  0  0  2  0  0  0  0  0  0
  -29.9850  -13.3300   20.2690 N   0  0  0  0  0  0  0  0  0  0  0  0
  -31.7880  -14.7010   19.9800 O   0  0  0  0  0  0  0  0  0  0  0  0
  -29.8020  -15.5570   20.6130 N   0  0  0  0  0  0  0  0  0  0  0  0
  -28.8810  -15.2770   20.9110 H   0  0  0  0  0  0  0  0  0  0  0  0
  -25.2050  -13.8760   20.4510 C   0  0  0  0  0  0  0  0  0  0  0  0
  -24.1380  -13.1040   20.8310 C   0  0  0  0  0  0  0  0  0  0  0  0
  -24.6030  -11.7550   20.8110 C   0  0  0  0  0  0  0  0  0  0  0  0
  -26.2490  -12.9930   20.2230 N   0  0  0  0  0  0  0  0  0  0  0  0
  -25.8900  -11.7130   20.4960 N   0  0  0  0  0  0  0  0  0  0  0  0
  -23.8810  -10.4890   21.0150 C   0  0  0  0  0  0  0  0  0  0  0  0
  -24.3240   -9.5290   21.9510 C   0  0  0  0  0  3  0  0  0  0  0  0
  -23.6050   -8.3280   22.1380 C   0  0  0  0  0  3  0  0  0  0  0  0
  -22.4290   -8.0810   21.3890 C   0  0  0  0  0  0  0  0  0  0  0  0
  -22.0050   -9.0330   20.4460 C   0  0  0  0  0  3  0  0  0  0  0  0
  -22.7240  -10.2250   20.2550 C   0  0  0  0  0  3  0  0  0  0  0  0
  -21.6790   -6.9340   21.4900 O   0  0  0  0  0  0  0  0  0  0  0  0
  -21.6500   -6.1920   22.6430 C   0  0  0  0  0  0  0  0  0  0  0  0
  -21.2350   -6.7430   23.8750 C   0  0  0  0  0  3  0  0  0  0  0  0
  -21.1510   -5.9260   25.0200 C   0  0  0  0  0  3  0  0  0  0  0  0
  -21.4690   -4.5560   24.9340 C   0  0  0  0  0  0  0  0  0  0  0  0
  -21.8770   -4.0050   23.7070 C   0  0  0  0  0  3  0  0  0  0  0  0
  -21.9640   -4.8200   22.5650 C   0  0  0  0  0  0  0  0  0  0  0  0
  -22.3350   -4.2760   21.3790 F   0  0  0  0  0  0  0  0  0  0  0  0
  -21.3830   -3.7690   26.0310 F   0  0  0  0  0  0  0  0  0  0  0  0
  -22.7380  -13.5810   21.1010 C   0  0  0  0  0  0  0  0  0  0  0  0
  -22.0110  -12.8860   21.9710 N   0  0  0  0  0  0  0  0  0  0  0  0
  -22.2920  -14.6010   20.5750 O   0  0  0  0  0  0  0  0  0  0  0  0
  -22.3810  -12.0610   22.4220 H   0  0  0  0  0  0  0  0  0  0  0  0
  -21.0690  -13.1800   22.1890 H   0  0  0  0  0  0  0  0  0  0  0  0
  -25.3670  -15.2450   20.2600 N   0  0  0  0  0  0  0  0  0  0  0  0
  -24.6020  -15.9030   20.3580 H   0  0  0  0  0  0  0  0  0  0  0  0
  -26.2060  -15.6790   19.8920 H   0  0  0  0  0  0  0  0  0  0  0  0
  -30.4910  -25.8760   20.5420 C   0  0  0  0  0  2  0  0  0  0  0  0
  -29.4440  -26.9260   20.9380 C   0  0  0  0  0  2  0  0  0  0  0  0
  -28.3590  -26.7090   20.0490 O   0  0  0  0  0  0  0  0  0  0  0  0
  -24.5720  -31.8950   23.2520 C   0  0  0  0  0  0  0  0  0  0  0  0
  -27.2360  -27.4920   20.1490 C   0  0  0  0  0  0  0  0  0  0  0  0
  -23.3670  -30.4930   21.6030 C   0  0  0  0  0  3  0  0  0  0  0  0
  -24.8280  -28.9630   20.1780 C   0  0  0  0  0  0  0  0  0  0  0  0
  -25.8890  -30.8660   21.4060 C   0  0  0  0  0  2  0  0  0  0  0  0
  -25.9800  -29.4960   20.7690 C   0  0  0  0  0  0  0  0  0  0  0  0
  -27.1880  -28.7670   20.7630 C   0  0  0  0  0  3  0  0  0  0  0  0
  -26.0700  -26.9740   19.5550 C   0  0  0  0  0  3  0  0  0  0  0  0
  -24.8630  -27.6960   19.5700 C   0  0  0  0  0  3  0  0  0  0  0  0
  -23.5800  -29.8140   20.2230 C   0  0  0  0  0  2  0  0  0  0  0  0
  -24.6270  -31.0980   22.1450 N   0  0  0  0  0  0  0  0  0  0  0  0
  -23.4910  -32.1590   23.7920 O   0  0  0  0  0  0  0  0  0  0  0  0
  -22.7220  -29.4660   22.5600 C   0  0  0  0  0  0  0  0  0  0  0  0
  -21.3990  -29.2780   22.4280 N   0  0  0  0  0  0  0  0  0  0  0  0
  -23.4080  -28.8410   23.3730 O   0  0  0  0  0  0  0  0  0  0  0  0
  -20.9080  -29.8360   21.7450 H   0  0  0  0  0  0  0  0  0  0  0  0
  -18.0270  -28.0800   22.9180 C   0  0  0  0  0  0  0  0  0  0  0  0
  -20.5840  -28.3360   23.1950 C   0  0  0  0  0  3  0  0  0  0  0  0
  -20.6860  -26.9070   22.6130 C   0  0  0  0  0  2  0  0  0  0  0  0
  -19.5870  -26.5890   21.5960 C   0  0  0  0  0  2  0  0  0  0  0  0
  -18.2040  -26.7320   22.2380 C   0  0  0  0  0  2  0  0  0  0  0  0
  -19.1450  -28.8390   23.3520 C   0  0  0  0  0  0  0  0  0  0  0  0
  -18.9260  -30.1020   23.9450 C   0  0  0  0  0  3  0  0  0  0  0  0
  -17.6210  -30.6050   24.1080 C   0  0  0  0  0  3  0  0  0  0  0  0
  -16.5170  -29.8410   23.6930 C   0  0  0  0  0  3  0  0  0  0  0  0
  -16.7210  -28.5800   23.1030 C   0  0  0  0  0  3  0  0  0  0  0  0
  -25.8600  -32.5240   23.8720 C   0  0  0  0  0  3  0  0  0  0  0  0
  -25.5530  -33.9240   24.1940 N   0  0  0  0  0  0  0  0  0  0  0  0
  -25.8990  -34.9700   23.4350 C   0  0  0  0  0  0  0  0  0  0  0  0
  -26.5800  -34.8600   22.4110 O   0  0  0  0  0  0  0  0  0  0  0  0
  -24.9520  -34.0860   24.9890 H   0  0  0  0  0  0  0  0  0  0  0  0
  -24.1860  -36.7690   23.0420 C   0  0  0  0  0  1  0  0  0  0  0  0
  -25.4100  -36.3640   23.8780 C   0  0  0  0  0  3  0  0  0  0  0  0
  -27.5340  -37.2330   24.7480 C   0  0  0  0  0  1  0  0  0  0  0  0
  -26.4520  -37.4090   23.7830 N   0  0  0  0  0  0  0  0  0  0  0  0
  -26.0500  -38.3320   23.9220 H   0  0  0  0  0  0  0  0  0  0  0  0
  -26.3750  -31.7560   25.1490 C   0  0  1  0  0  0  0  0  0  0  0  0
  -25.2820  -31.5190   26.2160 C   0  0  0  0  0  1  0  0  0  0  0  0
  -26.9590  -30.3790   24.7570 C   0  0  0  0  0  1  0  0  0  0  0  0
  -27.5250  -32.5500   25.8100 C   0  0  0  0  0  1  0  0  0  0  0  0
  2  5  1  0
  3  1  1  0
  4  2  1  0
  4  6  1  0
  5  8  1  0
  5  1  1  0
  6  3  1  0
  6  7  1  6
  8  9  1  0
  9 12  1  0
  9 10  1  0
 11  9  1  0
 14 13  1  0
 14 23  1  0
 14 12  1  0
 15 23  1  0
 16 21  1  0
 17 18  1  0
 17 16  1  0
 19 18  1  0
 19 28  1  0
 19 20  1  0
 21 15  1  0
 21 20  1  0
 22 15  2  0
 23 24  1  0
 25 26  2  0
 26 45  1  0
 27 26  1  0
 27 30  1  0
 28 25  1  0
 28 29  1  0
 29 27  2  0
 30 31  1  0
 31 32  2  0
 33 36  1  0
 33 32  1  0
 34 33  2  0
 35 34  1  0
 35 30  2  0
 36 37  1  0
 37 38  1  0
 38 39  2  0
 40 39  1  0
 40 44  1  0
 41 40  2  0
 42 37  2  0
 42 41  1  0
 43 42  1  0
 45 46  1  0
 46 49  1  0
 46 48  1  0
 47 45  2  0
 50 51  1  0
 50 25  1  0
 52 50  1  0
 53  6  1  0
 53 54  1  0
 55 57  1  0
 55 54  1  0
 56 67  2  0
 57 62  1  0
 58 66  1  0
 58 68  1  0
 59 65  1  0
 59 61  1  0
 60 66  1  0
 61 60  1  0
 62 61  2  0
 63 64  1  0
 63 57  2  0
 64 59  2  0
 65 58  1  0
 66 56  1  0
 68 70  2  0
 69 68  1  0
 71 69  1  0
 72 81  2  0
 72 77  1  0
 73 69  1  0
 73 77  1  0
 74 73  1  0
 75 76  1  0
 75 74  1  0
 76 72  1  0
 77 78  2  0
 78 79  1  0
 80 79  2  0
 81 80  1  0
 82 56  1  0
 82 83  1  0
 82 92  1  0
 83 86  1  0
 84 88  1  0
 84 83  1  0
 85 84  2  0
 88 87  1  0
 90 88  1  0
 90 91  1  0
 90 89  1  0
 92 95  1  1
 92 93  1  0
 94 92  1  0
M  ISO  4  15 100  23 100  54 101  55 101
M  END
>  <TORSDO>  (27) 
F 22

>  <SCORE>  (27) 
-13.257

>  <name>  (27) 
26

>  <ligand_id>  (27) 
26

>  <original_smiles>  (27) 
[H]c1c([H])c([H])c2c(c1[H])C([H])([H])C([H])([H])C([H])([H])C2([H])N([H])C(=O)C1([H])N(C(=O)C([H])(N([H])C(=O)C([H])(N([H])C([H])([H])[H])C([H])([H])[H])C(C([H])([H])[H])(C([H])([H])[H])C([H])([H])[H])C([H])([H])c2c([H])c(OC([H])([H])C([H])([H])[N+]3([H])C([H])([H])C([H])([H])C([H])(C([H])([H])[N+]([H])([H])C([H])([H])C([H])(N([H])C(=O)N4C([H])([H])C([H])([H])C([H])([H])C([H])(n5nc(-c6c([H])c([H])c(Oc7c([H])c([H])c(F)c([H])c7F)c([H])c6[H])c(C(=O)N([H])[H])c5N([H])[H])C4([H])[H])C([H])([H])[H])C([H])([H])C3([H])[H])c([H])c([H])c2C1([H])[H]

>  <smiles>  (27) 
[H]c1c([H])c([H])c2c(c1[H])C([H])([H])C([H])([H])C([H])([H])C2([H])N([H])C(=O)C1([H])N(C(=O)C([H])(N([H])C(=O)C([H])(N([H])C([H])([H])[H])C([H])([H])[H])C(C([H])([H])[H])(C([H])([H])[H])C([H])([H])[H])C([H])([H])c2c([H])c(OC([H])([H])C([H])([H])[N+]3([H])C([H])([H])C([H])([H])C([H])(C([H])([H])[N+]([H])([H])C([H])([H])C([H])(N([H])C(=O)N4C([H])([H])C([H])([H])C([H])([H])C([H])(n5nc(-c6c([H])c([H])c(Oc7c([H])c([H])c(F)c([H])c7F)c([H])c6[H])c(C(=O)N([H])[H])c5N([H])[H])C4([H])[H])C([H])([H])[H])C([H])([H])C3([H])[H])c([H])c([H])c2C1([H])[H]

$$$$
27:0:0
     RDKit          3D

 90 99  0  0  1  0  0  0  0  0999 V2000
  -28.9370  -23.3110   20.3860 C   0  0  0  0  0  0  0  0  0  0  0  0
  -28.6880  -21.9090   20.1370 N   0  0  0  0  0  0  0  0  0  0  0  0
  -30.0080  -23.6360   20.9030 O   0  0  0  0  0  0  0  0  0  0  0  0
  -27.7640  -21.7630   19.7510 H   0  0  0  0  0  0  0  0  0  0  0  0
  -30.5890  -18.5840   21.5380 C   0  0  0  0  0  2  0  0  0  0  0  0
  -31.0270  -20.7560   20.0820 C   0  0  0  0  0  2  0  0  0  0  0  0
  -28.9610  -19.0720   19.8470 C   0  0  0  0  0  2  0  0  0  0  0  0
  -30.4870  -20.1340   21.3420 C   0  0  0  0  0  3  0  0  0  0  0  0
  -30.0290  -17.8580   20.2730 C   0  0  0  0  0  3  0  0  0  0  0  0
  -29.5250  -20.5580   20.2350 C   0  0  2  0  0  0  0  0  0  0  0  0
  -30.5170  -15.0830   20.2560 C   0  0  0  0  0  0  0  0  0  0  0  0
  -30.4220  -12.7070   19.3400 C   0  0  0  0  0  2  0  0  0  0  0  0
  -29.4830  -12.6190   18.1130 C   0  0  0  0  0  2  0  0  0  0  0  0
  -28.0280  -12.3870   18.5610 C   0  0  0  0  0  2  0  0  0  0  0  0
  -27.6140  -13.3220   19.7250 C   0  0  0  0  0  3  0  0  0  0  0  0
  -28.6760  -13.3760   20.8440 C   0  0  0  0  0  2  0  0  0  0  0  0
  -29.9310  -13.8110   20.2200 N   0  0  0  0  0  0  0  0  0  0  0  0
  -31.7190  -15.1380   19.9770 O   0  0  0  0  0  0  0  0  0  0  0  0
  -29.7360  -16.2830   20.4000 N   0  0  0  0  0  0  0  0  0  0  0  0
  -28.7650  -16.0740   20.5880 H   0  0  0  0  0  0  0  0  0  0  0  0
  -25.2400  -13.8790   20.4930 C   0  0  0  0  0  0  0  0  0  0  0  0
  -24.1840  -13.0970   20.8670 C   0  0  0  0  0  0  0  0  0  0  0  0
  -24.6550  -11.7490   20.8250 C   0  0  0  0  0  0  0  0  0  0  0  0
  -26.2860  -13.0090   20.2380 N   0  0  0  0  0  0  0  0  0  0  0  0
  -25.9450  -11.7220   20.5040 N   0  0  0  0  0  0  0  0  0  0  0  0
  -23.9360  -10.4820   21.0120 C   0  0  0  0  0  0  0  0  0  0  0  0
  -24.3620   -9.5220   21.9570 C   0  0  0  0  0  3  0  0  0  0  0  0
  -23.6410   -8.3210   22.1310 C   0  0  0  0  0  3  0  0  0  0  0  0
  -22.4790   -8.0710   21.3630 C   0  0  0  0  0  0  0  0  0  0  0  0
  -22.0730   -9.0200   20.4070 C   0  0  0  0  0  3  0  0  0  0  0  0
  -22.7960  -10.2120   20.2300 C   0  0  0  0  0  3  0  0  0  0  0  0
  -21.7300   -6.9220   21.4470 O   0  0  0  0  0  0  0  0  0  0  0  0
  -21.6490   -6.2000   22.6100 C   0  0  0  0  0  0  0  0  0  0  0  0
  -21.1540   -6.7660   23.8060 C   0  0  0  0  0  3  0  0  0  0  0  0
  -21.0230   -5.9680   24.9600 C   0  0  0  0  0  3  0  0  0  0  0  0
  -21.3760   -4.6060   24.9190 C   0  0  0  0  0  0  0  0  0  0  0  0
  -21.8640   -4.0400   23.7280 C   0  0  0  0  0  3  0  0  0  0  0  0
  -21.9970   -4.8350   22.5760 C   0  0  0  0  0  0  0  0  0  0  0  0
  -22.4480   -4.2800   21.4260 F   0  0  0  0  0  0  0  0  0  0  0  0
  -21.2430   -3.8380   26.0250 F   0  0  0  0  0  0  0  0  0  0  0  0
  -22.7860  -13.5650   21.1490 C   0  0  0  0  0  0  0  0  0  0  0  0
  -22.0700  -12.8640   22.0190 N   0  0  0  0  0  0  0  0  0  0  0  0
  -22.3410  -14.5890   20.6310 O   0  0  0  0  0  0  0  0  0  0  0  0
  -22.4450  -12.0360   22.4570 H   0  0  0  0  0  0  0  0  0  0  0  0
  -21.1330  -13.1600   22.2520 H   0  0  0  0  0  0  0  0  0  0  0  0
  -25.3930  -15.2520   20.3210 N   0  0  0  0  0  0  0  0  0  0  0  0
  -24.6160  -15.8940   20.4340 H   0  0  0  0  0  0  0  0  0  0  0  0
  -26.2230  -15.6980   19.9530 H   0  0  0  0  0  0  0  0  0  0  0  0
  -27.9020  -24.5880   20.0360 C   0  0  0  0  0  2  0  0  0  0  0  0
  -28.2130  -26.1160   20.3080 O   0  0  0  0  0  0  0  0  0  0  0  0
  -24.6280  -31.8980   23.2680 C   0  0  0  0  0  0  0  0  0  0  0  0
  -27.1850  -27.1440   20.2310 C   0  0  0  0  0  0  0  0  0  0  0  0
  -23.4280  -30.5140   21.6200 C   0  0  0  0  0  3  0  0  0  0  0  0
  -24.8740  -28.9340   20.1930 C   0  0  0  0  0  0  0  0  0  0  0  0
  -25.9870  -30.7560   21.4690 C   0  0  0  0  0  2  0  0  0  0  0  0
  -26.0550  -29.3620   20.8110 C   0  0  0  0  0  0  0  0  0  0  0  0
  -27.2110  -28.4840   20.8120 C   0  0  0  0  0  3  0  0  0  0  0  0
  -25.9760  -26.8350   19.5670 C   0  0  0  0  0  3  0  0  0  0  0  0
  -24.8500  -27.6860   19.5550 C   0  0  0  0  0  3  0  0  0  0  0  0
  -23.6530  -29.8430   20.2400 C   0  0  0  0  0  2  0  0  0  0  0  0
  -24.7020  -31.0790   22.1740 N   0  0  0  0  0  0  0  0  0  0  0  0
  -23.5420  -32.1860   23.7930 O   0  0  0  0  0  0  0  0  0  0  0  0
  -22.7390  -29.5090   22.5770 C   0  0  0  0  0  0  0  0  0  0  0  0
  -21.4090  -29.3450   22.4460 N   0  0  0  0  0  0  0  0  0  0  0  0
  -23.4030  -28.8780   23.4040 O   0  0  0  0  0  0  0  0  0  0  0  0
  -20.9290  -29.9060   21.7560 H   0  0  0  0  0  0  0  0  0  0  0  0
  -18.0190  -28.1580   22.9380 C   0  0  0  0  0  0  0  0  0  0  0  0
  -20.5810  -28.4100   23.2120 C   0  0  0  0  0  3  0  0  0  0  0  0
  -20.6770  -26.9790   22.6340 C   0  0  0  0  0  2  0  0  0  0  0  0
  -19.5760  -26.6640   21.6160 C   0  0  0  0  0  2  0  0  0  0  0  0
  -18.1930  -26.8120   22.2560 C   0  0  0  0  0  2  0  0  0  0  0  0
  -19.1410  -28.9160   23.3720 C   0  0  0  0  0  0  0  0  0  0  0  0
  -18.9230  -30.1760   23.9720 C   0  0  0  0  0  3  0  0  0  0  0  0
  -17.6200  -30.6790   24.1400 C   0  0  0  0  0  3  0  0  0  0  0  0
  -16.5140  -29.9200   23.7200 C   0  0  0  0  0  3  0  0  0  0  0  0
  -16.7150  -28.6610   23.1260 C   0  0  0  0  0  3  0  0  0  0  0  0
  -25.9060  -32.5280   23.9020 C   0  0  0  0  0  3  0  0  0  0  0  0
  -25.5990  -33.9290   24.2340 N   0  0  0  0  0  0  0  0  0  0  0  0
  -25.9100  -34.9830   23.4690 C   0  0  0  0  0  0  0  0  0  0  0  0
  -26.5510  -34.8790   22.4200 O   0  0  0  0  0  0  0  0  0  0  0  0
  -25.0280  -34.0830   25.0520 H   0  0  0  0  0  0  0  0  0  0  0  0
  -24.1560  -36.7660   23.1840 C   0  0  0  0  0  1  0  0  0  0  0  0
  -25.4360  -36.3730   23.9400 C   0  0  0  0  0  3  0  0  0  0  0  0
  -27.5970  -37.2810   24.6690 C   0  0  0  0  0  1  0  0  0  0  0  0
  -26.4550  -37.4310   23.7720 N   0  0  0  0  0  0  0  0  0  0  0  0
  -26.0490  -38.3500   23.9280 H   0  0  0  0  0  0  0  0  0  0  0  0
  -26.4050  -31.7560   25.1870 C   0  0  1  0  0  0  0  0  0  0  0  0
  -25.2990  -31.5310   26.2450 C   0  0  0  0  0  1  0  0  0  0  0  0
  -26.9820  -30.3730   24.8090 C   0  0  0  0  0  1  0  0  0  0  0  0
  -27.5540  -32.5450   25.8570 C   0  0  0  0  0  1  0  0  0  0  0  0
  1  3  2  0
  2  1  1  0
  4  2  1  0
  6 10  1  0
  7 10  1  0
  7  9  1  0
  8  6  1  0
  8  5  1  0
  9 19  1  0
  9  5  1  0
 10  2  1  1
 10  8  1  0
 11 19  1  0
 12 17  1  0
 13 14  1  0
 13 12  1  0
 15 14  1  0
 15 24  1  0
 15 16  1  0
 17 11  1  0
 17 16  1  0
 18 11  2  0
 19 20  1  0
 21 22  2  0
 22 41  1  0
 23 22  1  0
 23 26  1  0
 24 21  1  0
 24 25  1  0
 25 23  2  0
 26 27  1  0
 27 28  2  0
 29 32  1  0
 29 28  1  0
 30 29  2  0
 31 30  1  0
 31 26  2  0
 32 33  1  0
 33 34  1  0
 34 35  2  0
 36 35  1  0
 36 40  1  0
 37 36  2  0
 38 33  2  0
 38 37  1  0
 39 38  1  0
 41 42  1  0
 42 45  1  0
 42 44  1  0
 43 41  2  0
 46 47  1  0
 46 21  1  0
 48 46  1  0
 49 50  1  0
 49  1  1  0
 51 62  2  0
 52 50  1  0
 52 57  1  0
 53 61  1  0
 53 63  1  0
 54 60  1  0
 54 56  1  0
 55 61  1  0
 56 57  2  0
 56 55  1  0
 58 52  2  0
 59 58  1  0
 59 54  2  0
 60 53  1  0
 61 51  1  0
 63 65  2  0
 64 63  1  0
 66 64  1  0
 67 76  2  0
 67 72  1  0
 68 64  1  0
 68 72  1  0
 69 68  1  0
 70 71  1  0
 70 69  1  0
 71 67  1  0
 72 73  2  0
 73 74  1  0
 75 74  2  0
 76 75  1  0
 77 51  1  0
 77 78  1  0
 77 87  1  0
 78 81  1  0
 79 83  1  0
 79 78  1  0
 80 79  2  0
 83 82  1  0
 85 86  1  0
 85 83  1  0
 85 84  1  0
 87 90  1  1
 87 88  1  0
 89 87  1  0
M  ISO  4  11 100  19 100  49 101  50 101
M  END
>  <TORSDO>  (28) 
F 18

>  <SCORE>  (28) 
-14.597

>  <name>  (28) 
27

>  <ligand_id>  (28) 
27

>  <original_smiles>  (28) 
[H]c1c([H])c([H])c2c(c1[H])C([H])([H])C([H])([H])C([H])([H])C2([H])N([H])C(=O)C1([H])N(C(=O)C([H])(N([H])C(=O)C([H])(N([H])C([H])([H])[H])C([H])([H])[H])C(C([H])([H])[H])(C([H])([H])[H])C([H])([H])[H])C([H])([H])c2c([H])c(OC([H])([H])C(=O)N([H])C34C([H])([H])C([H])(N([H])C(=O)N5C([H])([H])C([H])([H])C([H])([H])C([H])(n6nc(-c7c([H])c([H])c(Oc8c([H])c([H])c(F)c([H])c8F)c([H])c7[H])c(C(=O)N([H])[H])c6N([H])[H])C5([H])[H])C([H])([H])C3([H])C4([H])[H])c([H])c([H])c2C1([H])[H]

>  <smiles>  (28) 
[H]c1c([H])c([H])c2c(c1[H])C([H])([H])C([H])([H])C([H])([H])C2([H])N([H])C(=O)C1([H])N(C(=O)C([H])(N([H])C(=O)C([H])(N([H])C([H])([H])[H])C([H])([H])[H])C(C([H])([H])[H])(C([H])([H])[H])C([H])([H])[H])C([H])([H])c2c([H])c(OC([H])([H])C(=O)N([H])C34C([H])([H])C([H])(N([H])C(=O)N5C([H])([H])C([H])([H])C([H])([H])C([H])(n6nc(-c7c([H])c([H])c(Oc8c([H])c([H])c(F)c([H])c8F)c([H])c7[H])c(C(=O)N([H])[H])c6N([H])[H])C5([H])[H])C([H])([H])C3([H])C4([H])[H])c([H])c([H])c2C1([H])[H]

$$$$
28:0:0
     RDKit          3D

 92101  0  0  1  0  0  0  0  0999 V2000
  -29.3210  -21.1930   20.5980 C   0  0  0  0  0  0  0  0  0  0  0  0
  -28.5580  -22.3430   20.5040 N   0  0  0  0  0  0  0  0  0  0  0  0
  -30.5150  -21.2760   20.8900 O   0  0  0  0  0  0  0  0  0  0  0  0
  -27.5710  -22.1960   20.3240 H   0  0  0  0  0  0  0  0  0  0  0  0
  -27.4850  -18.6070   18.2250 C   0  0  0  0  0  2  0  0  0  0  0  0
  -30.1210  -18.4830   18.7700 C   0  0  0  0  0  2  0  0  0  0  0  0
  -28.7050  -19.7310   20.3370 C   0  0  0  0  0  3  0  0  0  0  0  0
  -28.9290  -19.0410   18.0030 C   0  0  0  0  0  3  0  0  0  0  0  0
  -28.0530  -19.7880   18.9630 C   0  0  0  0  0  3  0  0  0  0  0  0
  -29.7070  -18.4430   20.2570 C   0  0  0  0  0  3  0  0  0  0  0  0
  -29.1750  -16.9360   20.5820 C   0  0  0  0  0  2  0  0  0  0  0  0
  -30.6670  -14.7420   20.4250 C   0  0  0  0  0  0  0  0  0  0  0  0
  -30.3580  -12.5020   19.3710 C   0  0  0  0  0  2  0  0  0  0  0  0
  -29.4360  -12.6270   18.1440 C   0  0  0  0  0  2  0  0  0  0  0  0
  -27.9720  -12.4320   18.5760 C   0  0  0  0  0  2  0  0  0  0  0  0
  -27.6060  -13.3110   19.8030 C   0  0  0  0  0  3  0  0  0  0  0  0
  -28.6630  -13.2460   20.9290 C   0  0  0  0  0  2  0  0  0  0  0  0
  -29.9660  -13.5610   20.3360 N   0  0  0  0  0  0  0  0  0  0  0  0
  -31.8110  -14.8090   19.9780 O   0  0  0  0  0  0  0  0  0  0  0  0
  -30.1480  -15.8660   21.0360 N   0  0  0  0  0  0  0  0  0  0  0  0
  -30.9210  -16.3320   21.4840 H   0  0  0  0  0  0  0  0  0  0  0  0
  -25.2210  -13.8980   20.5250 C   0  0  0  0  0  0  0  0  0  0  0  0
  -24.1530  -13.1260   20.8870 C   0  0  0  0  0  0  0  0  0  0  0  0
  -24.6150  -11.7720   20.8590 C   0  0  0  0  0  0  0  0  0  0  0  0
  -26.2640  -13.0180   20.2910 N   0  0  0  0  0  0  0  0  0  0  0  0
  -25.9070  -11.7320   20.5560 N   0  0  0  0  0  0  0  0  0  0  0  0
  -23.8850  -10.5110   21.0440 C   0  0  0  0  0  0  0  0  0  0  0  0
  -24.3150   -9.5340   21.9700 C   0  0  0  0  0  3  0  0  0  0  0  0
  -23.5830   -8.3380   22.1410 C   0  0  0  0  0  3  0  0  0  0  0  0
  -22.4070   -8.1130   21.3880 C   0  0  0  0  0  0  0  0  0  0  0  0
  -21.9940   -9.0800   20.4490 C   0  0  0  0  0  3  0  0  0  0  0  0
  -22.7290  -10.2630   20.2770 C   0  0  0  0  0  3  0  0  0  0  0  0
  -21.6480   -6.9710   21.4650 O   0  0  0  0  0  0  0  0  0  0  0  0
  -21.5970   -6.2210   22.6120 C   0  0  0  0  0  0  0  0  0  0  0  0
  -21.1730   -6.7660   23.8430 C   0  0  0  0  0  3  0  0  0  0  0  0
  -21.0730   -5.9430   24.9840 C   0  0  0  0  0  3  0  0  0  0  0  0
  -21.3870   -4.5720   24.8930 C   0  0  0  0  0  0  0  0  0  0  0  0
  -21.8050   -4.0260   23.6660 C   0  0  0  0  0  3  0  0  0  0  0  0
  -21.9060   -4.8490   22.5300 C   0  0  0  0  0  0  0  0  0  0  0  0
  -22.2900   -4.3140   21.3460 F   0  0  0  0  0  0  0  0  0  0  0  0
  -21.2850   -3.7760   25.9840 F   0  0  0  0  0  0  0  0  0  0  0  0
  -22.7580  -13.6050   21.1570 C   0  0  0  0  0  0  0  0  0  0  0  0
  -22.0240  -12.9060   22.0180 N   0  0  0  0  0  0  0  0  0  0  0  0
  -22.3240  -14.6340   20.6400 O   0  0  0  0  0  0  0  0  0  0  0  0
  -22.3910  -12.0790   22.4640 H   0  0  0  0  0  0  0  0  0  0  0  0
  -21.0890  -13.2150   22.2490 H   0  0  0  0  0  0  0  0  0  0  0  0
  -25.3920  -15.2690   20.3570 N   0  0  0  0  0  0  0  0  0  0  0  0
  -24.6220  -15.9210   20.4690 H   0  0  0  0  0  0  0  0  0  0  0  0
  -26.2610  -15.7130   20.0940 H   0  0  0  0  0  0  0  0  0  0  0  0
  -28.9700  -23.7960   20.7040 C   0  0  0  0  0  3  0  0  0  0  0  0
  -28.0010  -24.9450   20.1400 C   0  0  0  0  0  3  0  0  0  0  0  0
  -28.2830  -26.4100   20.3170 O   0  0  0  0  0  0  0  0  0  0  0  0
  -24.6040  -31.9000   23.2580 C   0  0  0  0  0  0  0  0  0  0  0  0
  -27.2030  -27.3130   20.2170 C   0  0  0  0  0  0  0  0  0  0  0  0
  -23.4020  -30.5050   21.6130 C   0  0  0  0  0  3  0  0  0  0  0  0
  -24.8540  -28.9610   20.1840 C   0  0  0  0  0  0  0  0  0  0  0  0
  -25.9430  -30.8180   21.4380 C   0  0  0  0  0  2  0  0  0  0  0  0
  -26.0240  -29.4390   20.7900 C   0  0  0  0  0  0  0  0  0  0  0  0
  -27.2040  -28.6260   20.7950 C   0  0  0  0  0  3  0  0  0  0  0  0
  -26.0190  -26.9180   19.5530 C   0  0  0  0  0  3  0  0  0  0  0  0
  -24.8580  -27.7100   19.5510 C   0  0  0  0  0  3  0  0  0  0  0  0
  -23.6200  -29.8390   20.2310 C   0  0  0  0  0  2  0  0  0  0  0  0
  -24.6680  -31.0940   22.1580 N   0  0  0  0  0  0  0  0  0  0  0  0
  -23.5200  -32.1770   23.7930 O   0  0  0  0  0  0  0  0  0  0  0  0
  -22.7370  -29.4860   22.5710 C   0  0  0  0  0  0  0  0  0  0  0  0
  -21.4090  -29.3130   22.4500 N   0  0  0  0  0  0  0  0  0  0  0  0
  -23.4130  -28.8590   23.3900 O   0  0  0  0  0  0  0  0  0  0  0  0
  -20.9200  -29.8730   21.7670 H   0  0  0  0  0  0  0  0  0  0  0  0
  -18.0270  -28.1290   22.9520 C   0  0  0  0  0  0  0  0  0  0  0  0
  -20.5880  -28.3760   23.2200 C   0  0  0  0  0  3  0  0  0  0  0  0
  -20.6820  -26.9460   22.6400 C   0  0  0  0  0  2  0  0  0  0  0  0
  -19.5770  -26.6310   21.6280 C   0  0  0  0  0  2  0  0  0  0  0  0
  -18.1970  -26.7810   22.2720 C   0  0  0  0  0  2  0  0  0  0  0  0
  -19.1510  -28.8850   23.3810 C   0  0  0  0  0  0  0  0  0  0  0  0
  -18.9350  -30.1470   23.9770 C   0  0  0  0  0  3  0  0  0  0  0  0
  -17.6310  -30.6530   24.1440 C   0  0  0  0  0  3  0  0  0  0  0  0
  -16.5240  -29.8930   23.7290 C   0  0  0  0  0  3  0  0  0  0  0  0
  -16.7230  -28.6330   23.1390 C   0  0  0  0  0  3  0  0  0  0  0  0
  -25.8870  -32.5300   23.8810 C   0  0  0  0  0  3  0  0  0  0  0  0
  -26.3950  -31.7620   25.1630 C   0  0  1  0  0  0  0  0  0  0  0  0
  -25.2970  -31.5360   26.2270 C   0  0  0  0  0  1  0  0  0  0  0  0
  -26.9740  -30.3790   24.7840 C   0  0  0  0  0  1  0  0  0  0  0  0
  -27.5460  -32.5550   25.8270 C   0  0  0  0  0  1  0  0  0  0  0  0
  -25.5830  -33.9320   24.2040 N   0  0  0  0  0  0  0  0  0  0  0  0
  -25.9170  -34.9790   23.4400 C   0  0  0  0  0  0  0  0  0  0  0  0
  -26.5840  -34.8680   22.4080 O   0  0  0  0  0  0  0  0  0  0  0  0
  -24.9890  -34.0930   25.0050 H   0  0  0  0  0  0  0  0  0  0  0  0
  -24.1960  -36.7800   23.0830 C   0  0  0  0  0  1  0  0  0  0  0  0
  -25.4360  -36.3700   23.8930 C   0  0  0  0  0  3  0  0  0  0  0  0
  -27.5710  -37.2560   24.7210 C   0  0  0  0  0  1  0  0  0  0  0  0
  -26.4710  -37.4180   23.7750 N   0  0  0  0  0  0  0  0  0  0  0  0
  -26.0660  -38.3400   23.9150 H   0  0  0  0  0  0  0  0  0  0  0  0
  1  3  2  0
  2  1  1  0
  2 50  1  0
  4  2  1  0
  6 10  1  0
  7  1  1  0
  8  5  1  0
  8  6  1  0
  8  9  1  0
  9  5  1  0
  9  7  1  0
 10  7  1  0
 10 11  1  0
 11 20  1  0
 12 20  1  0
 13 18  1  0
 14 15  1  0
 14 13  1  0
 16 15  1  0
 16 25  1  0
 16 17  1  0
 18 12  1  0
 18 17  1  0
 19 12  2  0
 20 21  1  0
 22 23  2  0
 23 42  1  0
 24 23  1  0
 24 27  1  0
 25 22  1  0
 25 26  1  0
 26 24  2  0
 27 28  1  0
 28 29  2  0
 30 33  1  0
 30 29  1  0
 31 30  2  0
 32 31  1  0
 32 27  2  0
 33 34  1  0
 34 35  1  0
 35 36  2  0
 37 36  1  0
 37 41  1  0
 38 37  2  0
 39 34  2  0
 39 38  1  0
 40 39  1  0
 42 43  1  0
 43 46  1  0
 43 45  1  0
 44 42  2  0
 47 48  1  0
 47 22  1  0
 49 47  1  0
 51 52  1  0
 51 50  2  0
 53 64  2  0
 54 52  1  0
 54 59  1  0
 55 63  1  0
 55 65  1  0
 56 62  1  0
 56 58  1  0
 57 63  1  0
 58 59  2  0
 58 57  1  0
 60 54  2  0
 61 60  1  0
 61 56  2  0
 62 55  1  0
 63 53  1  0
 65 67  2  0
 66 65  1  0
 68 66  1  0
 69 78  2  0
 69 74  1  0
 70 66  1  0
 70 74  1  0
 71 70  1  0
 72 73  1  0
 72 71  1  0
 73 69  1  0
 74 75  2  0
 75 76  1  0
 77 76  2  0
 78 77  1  0
 79 53  1  0
 79 84  1  0
 79 80  1  0
 80 83  1  1
 80 81  1  0
 82 80  1  0
 84 87  1  0
 85 89  1  0
 85 84  1  0
 86 85  2  0
 89 88  1  0
 91 89  1  0
 91 92  1  0
 91 90  1  0
M  ISO  4  12 100  20 100  51 101  52 101
M  END
>  <TORSDO>  (29) 
F 20

>  <SCORE>  (29) 
-14.069

>  <name>  (29) 
28

>  <ligand_id>  (29) 
28

>  <original_smiles>  (29) 
[H]c1c([H])c([H])c2c(c1[H])C([H])([H])C([H])([H])C([H])([H])C2([H])N([H])C(=O)C1([H])N(C(=O)C([H])(N([H])C(=O)C([H])(N([H])C([H])([H])[H])C([H])([H])[H])C(C([H])([H])[H])(C([H])([H])[H])C([H])([H])[H])C([H])([H])c2c([H])c(OC([H])([H])C([H])([H])N([H])C(=O)C3([H])C([H])(C([H])([H])N([H])C(=O)N4C([H])([H])C([H])([H])C([H])([H])C([H])(n5nc(-c6c([H])c([H])c(Oc7c([H])c([H])c(F)c([H])c7F)c([H])c6[H])c(C(=O)N([H])[H])c5N([H])[H])C4([H])[H])C([H])([H])C4([H])C([H])([H])C34[H])c([H])c([H])c2C1([H])[H]

>  <smiles>  (29) 
[H]c1c([H])c([H])c2c(c1[H])C([H])([H])C([H])([H])C([H])([H])C2([H])N([H])C(=O)C1([H])N(C(=O)C([H])(N([H])C(=O)C([H])(N([H])C([H])([H])[H])C([H])([H])[H])C(C([H])([H])[H])(C([H])([H])[H])C([H])([H])[H])C([H])([H])c2c([H])c(OC([H])([H])C([H])([H])N([H])C(=O)C3([H])C([H])(C([H])([H])N([H])C(=O)N4C([H])([H])C([H])([H])C([H])([H])C([H])(n5nc(-c6c([H])c([H])c(Oc7c([H])c([H])c(F)c([H])c7F)c([H])c6[H])c(C(=O)N([H])[H])c5N([H])[H])C4([H])[H])C([H])([H])C4([H])C([H])([H])C34[H])c([H])c([H])c2C1([H])[H]

$$$$
29:0:0
     RDKit          3D

 94102  0  0  1  0  0  0  0  0999 V2000
  -29.0660  -21.0950   19.5380 N   0  0  0  0  0  4  0  0  0  0  0  0
  -29.5980  -20.8510   18.7150 H   0  0  0  0  0  0  0  0  0  0  0  0
  -28.1120  -21.1830   19.2350 H   0  0  0  0  0  0  0  0  0  0  0  0
  -30.0120  -23.4030   19.1020 C   0  0  0  0  0  2  0  0  0  0  0  0
  -28.4470  -23.3650   20.5150 C   0  0  0  0  0  2  0  0  0  0  0  0
  -29.3280  -24.4960   19.9440 C   0  0  0  0  0  3  0  0  0  0  0  0
  -29.5520  -22.3630   20.1340 C   0  0  0  0  0  3  0  0  0  0  0  0
  -28.6910  -25.6900   19.2210 C   0  0  0  0  0  2  0  0  0  0  0  0
  -28.4210  -26.7560   20.1430 O   0  0  0  0  0  0  0  0  0  0  0  0
  -24.5910  -31.8820   23.2320 C   0  0  0  0  0  0  0  0  0  0  0  0
  -27.2210  -27.4440   20.1170 C   0  0  0  0  0  0  0  0  0  0  0  0
  -23.3760  -30.4850   21.5950 C   0  0  0  0  0  3  0  0  0  0  0  0
  -24.8200  -28.9520   20.1570 C   0  0  0  0  0  0  0  0  0  0  0  0
  -25.9020  -30.8410   21.3850 C   0  0  0  0  0  2  0  0  0  0  0  0
  -25.9820  -29.4730   20.7380 C   0  0  0  0  0  0  0  0  0  0  0  0
  -27.1800  -28.7240   20.7180 C   0  0  0  0  0  3  0  0  0  0  0  0
  -26.0270  -26.9260   19.5600 C   0  0  0  0  0  3  0  0  0  0  0  0
  -24.8370  -27.6760   19.5710 C   0  0  0  0  0  3  0  0  0  0  0  0
  -23.5760  -29.8100   20.2120 C   0  0  0  0  0  2  0  0  0  0  0  0
  -24.6410  -31.0830   22.1290 N   0  0  0  0  0  0  0  0  0  0  0  0
  -23.5120  -32.1530   23.7780 O   0  0  0  0  0  0  0  0  0  0  0  0
  -22.7320  -29.4590   22.5550 C   0  0  0  0  0  0  0  0  0  0  0  0
  -21.4070  -29.2750   22.4320 N   0  0  0  0  0  0  0  0  0  0  0  0
  -23.4190  -28.8320   23.3650 O   0  0  0  0  0  0  0  0  0  0  0  0
  -20.9140  -29.8300   21.7450 H   0  0  0  0  0  0  0  0  0  0  0  0
  -18.0370  -28.0850   22.9450 C   0  0  0  0  0  0  0  0  0  0  0  0
  -20.5950  -28.3380   23.2050 C   0  0  0  0  0  3  0  0  0  0  0  0
  -20.6940  -26.9080   22.6250 C   0  0  0  0  0  2  0  0  0  0  0  0
  -19.5870  -26.5890   21.6160 C   0  0  0  0  0  2  0  0  0  0  0  0
  -18.2080  -26.7360   22.2660 C   0  0  0  0  0  2  0  0  0  0  0  0
  -19.1580  -28.8440   23.3720 C   0  0  0  0  0  0  0  0  0  0  0  0
  -18.9450  -30.1060   23.9660 C   0  0  0  0  0  3  0  0  0  0  0  0
  -17.6420  -30.6100   24.1400 C   0  0  0  0  0  3  0  0  0  0  0  0
  -16.5350  -29.8480   23.7300 C   0  0  0  0  0  3  0  0  0  0  0  0
  -16.7330  -28.5870   23.1370 C   0  0  0  0  0  3  0  0  0  0  0  0
  -25.8810  -32.5110   23.8460 C   0  0  0  0  0  3  0  0  0  0  0  0
  -25.5740  -33.9080   24.1770 N   0  0  0  0  0  0  0  0  0  0  0  0
  -25.9040  -34.9620   23.4170 C   0  0  0  0  0  0  0  0  0  0  0  0
  -26.5710  -34.8590   22.3840 O   0  0  0  0  0  0  0  0  0  0  0  0
  -24.9830  -34.0640   24.9810 H   0  0  0  0  0  0  0  0  0  0  0  0
  -24.1780  -36.7560   23.0610 C   0  0  0  0  0  1  0  0  0  0  0  0
  -25.4160  -36.3490   23.8760 C   0  0  0  0  0  3  0  0  0  0  0  0
  -27.5470  -37.2300   24.7180 C   0  0  0  0  0  1  0  0  0  0  0  0
  -26.4490  -37.4020   23.7710 N   0  0  0  0  0  0  0  0  0  0  0  0
  -26.0420  -38.3210   23.9210 H   0  0  0  0  0  0  0  0  0  0  0  0
  -26.4080  -31.7390   25.1160 C   0  0  1  0  0  0  0  0  0  0  0  0
  -25.3240  -31.4970   26.1910 C   0  0  0  0  0  1  0  0  0  0  0  0
  -26.9880  -30.3630   24.7150 C   0  0  0  0  0  1  0  0  0  0  0  0
  -27.5610  -32.5340   25.7710 C   0  0  0  0  0  1  0  0  0  0  0  0
  -29.1730  -19.8970   20.3910 C   0  0  0  0  0  2  0  0  0  0  0  0
  -28.5880  -18.6950   19.6250 C   0  0  0  0  0  3  0  0  0  0  0  0
  -29.2470  -18.5680   18.3310 N   0  0  0  0  0  0  0  0  0  0  0  0
  -28.7920  -17.8300   17.8010 H   0  0  0  0  0  0  0  0  0  0  0  0
  -30.1950  -18.2240   18.4450 H   0  0  0  0  0  0  0  0  0  0  0  0
  -28.6240  -17.3420   20.3680 C   0  0  0  0  0  2  0  0  0  0  0  0
  -30.0110  -16.8280   20.8220 C   0  0  0  0  0  2  0  0  0  0  0  0
  -30.6540  -14.4370   20.5430 C   0  0  0  0  0  0  0  0  0  0  0  0
  -30.3770  -12.3150   19.3350 C   0  0  0  0  0  2  0  0  0  0  0  0
  -29.4420  -12.5720   18.1340 C   0  0  0  0  0  2  0  0  0  0  0  0
  -27.9640  -12.4340   18.5470 C   0  0  0  0  0  2  0  0  0  0  0  0
  -27.6260  -13.2300   19.8350 C   0  0  0  0  0  3  0  0  0  0  0  0
  -28.6680  -12.9450   20.9410 C   0  0  0  0  0  2  0  0  0  0  0  0
  -30.0040  -13.2540   20.4010 N   0  0  0  0  0  0  0  0  0  0  0  0
  -31.7540  -14.6800   20.0340 O   0  0  0  0  0  0  0  0  0  0  0  0
  -29.9190  -15.3970   21.1160 N   0  0  0  0  0  0  0  0  0  0  0  0
  -29.0670  -15.0820   21.5580 H   0  0  0  0  0  0  0  0  0  0  0  0
  -25.2130  -13.8400   20.5020 C   0  0  0  0  0  0  0  0  0  0  0  0
  -24.1430  -13.0660   20.8650 C   0  0  0  0  0  0  0  0  0  0  0  0
  -24.6090  -11.7170   20.8470 C   0  0  0  0  0  0  0  0  0  0  0  0
  -26.2630  -12.9600   20.2930 N   0  0  0  0  0  0  0  0  0  0  0  0
  -25.9020  -11.6780   20.5520 N   0  0  0  0  0  0  0  0  0  0  0  0
  -23.8860  -10.4530   21.0340 C   0  0  0  0  0  0  0  0  0  0  0  0
  -24.3180   -9.4900   21.9720 C   0  0  0  0  0  3  0  0  0  0  0  0
  -23.6000   -8.2880   22.1470 C   0  0  0  0  0  3  0  0  0  0  0  0
  -22.4330   -8.0420   21.3850 C   0  0  0  0  0  0  0  0  0  0  0  0
  -22.0190   -8.9950   20.4370 C   0  0  0  0  0  3  0  0  0  0  0  0
  -22.7400  -10.1880   20.2600 C   0  0  0  0  0  3  0  0  0  0  0  0
  -21.6820   -6.8950   21.4720 O   0  0  0  0  0  0  0  0  0  0  0  0
  -21.6330   -6.1510   22.6230 C   0  0  0  0  0  0  0  0  0  0  0  0
  -21.2010   -6.7010   23.8490 C   0  0  0  0  0  3  0  0  0  0  0  0
  -21.1030   -5.8830   24.9920 C   0  0  0  0  0  3  0  0  0  0  0  0
  -21.4230   -4.5150   24.9080 C   0  0  0  0  0  0  0  0  0  0  0  0
  -21.8460   -3.9640   23.6860 C   0  0  0  0  0  3  0  0  0  0  0  0
  -21.9470   -4.7780   22.5470 C   0  0  0  0  0  0  0  0  0  0  0  0
  -22.3360   -4.2380   21.3660 F   0  0  0  0  0  0  0  0  0  0  0  0
  -21.3200   -3.7270   26.0030 F   0  0  0  0  0  0  0  0  0  0  0  0
  -22.7410  -13.5390   21.1230 C   0  0  0  0  0  0  0  0  0  0  0  0
  -22.0060  -12.8430   21.9830 N   0  0  0  0  0  0  0  0  0  0  0  0
  -22.3050  -14.5610   20.5960 O   0  0  0  0  0  0  0  0  0  0  0  0
  -22.3710  -12.0140   22.4310 H   0  0  0  0  0  0  0  0  0  0  0  0
  -21.0650  -13.1410   22.1980 H   0  0  0  0  0  0  0  0  0  0  0  0
  -25.3760  -15.2090   20.3150 N   0  0  0  0  0  0  0  0  0  0  0  0
  -24.6030  -15.8600   20.3930 H   0  0  0  0  0  0  0  0  0  0  0  0
  -26.2250  -15.6400   19.9740 H   0  0  0  0  0  0  0  0  0  0  0  0
  1 50  1  0
  2  1  1  0
  3  1  1  0
  4  6  1  0
  4  7  1  0
  6  8  1  0
  6  5  1  0
  7  1  1  0
  7  5  1  0
  8  9  1  0
 10 21  2  0
 11  9  1  0
 11 16  1  0
 12 20  1  0
 12 22  1  0
 13 19  1  0
 13 15  1  0
 14 20  1  0
 15 14  1  0
 16 15  2  0
 17 18  1  0
 17 11  2  0
 18 13  2  0
 19 12  1  0
 20 10  1  0
 22 24  2  0
 23 22  1  0
 25 23  1  0
 26 35  2  0
 26 31  1  0
 27 23  1  0
 27 31  1  0
 28 27  1  0
 29 30  1  0
 29 28  1  0
 30 26  1  0
 31 32  2  0
 32 33  1  0
 34 33  2  0
 35 34  1  0
 36 10  1  0
 36 37  1  0
 36 46  1  0
 37 40  1  0
 38 42  1  0
 38 37  1  0
 39 38  2  0
 42 41  1  0
 44 42  1  0
 44 45  1  0
 44 43  1  0
 46 49  1  1
 46 47  1  0
 48 46  1  0
 51 55  1  0
 51 50  1  0
 52 54  1  0
 52 51  1  0
 53 52  1  0
 55 56  1  0
 56 65  1  0
 57 65  1  0
 58 63  1  0
 59 60  1  0
 59 58  1  0
 61 60  1  0
 61 70  1  0
 61 62  1  0
 63 57  1  0
 63 62  1  0
 64 57  2  0
 65 66  1  0
 67 68  2  0
 68 87  1  0
 69 68  1  0
 69 72  1  0
 70 67  1  0
 70 71  1  0
 71 69  2  0
 72 73  1  0
 73 74  2  0
 75 78  1  0
 75 74  1  0
 76 75  2  0
 77 76  1  0
 77 72  2  0
 78 79  1  0
 79 80  1  0
 80 81  2  0
 82 81  1  0
 82 86  1  0
 83 82  2  0
 84 79  2  0
 84 83  1  0
 85 84  1  0
 87 88  1  0
 88 91  1  0
 88 90  1  0
 89 87  2  0
 92 93  1  0
 92 67  1  0
 94 92  1  0
M  ISO  4   8 101   9 101  57 100  65 100
M  END
>  <TORSDO>  (30) 
F 23

>  <SCORE>  (30) 
-12.994

>  <name>  (30) 
29

>  <ligand_id>  (30) 
29

>  <original_smiles>  (30) 
[H]c1c([H])c([H])c2c(c1[H])C([H])([H])C([H])([H])C([H])([H])C2([H])N([H])C(=O)C1([H])N(C(=O)C([H])(N([H])C(=O)C([H])(N([H])C([H])([H])[H])C([H])([H])[H])C(C([H])([H])[H])(C([H])([H])[H])C([H])([H])[H])C([H])([H])c2c([H])c(OC([H])([H])C3([H])C([H])([H])C([H])([N+]([H])([H])C([H])([H])C([H])(N([H])[H])C([H])([H])C([H])([H])N([H])C(=O)N4C([H])([H])C([H])([H])C([H])([H])C([H])(n5nc(-c6c([H])c([H])c(Oc7c([H])c([H])c(F)c([H])c7F)c([H])c6[H])c(C(=O)N([H])[H])c5N([H])[H])C4([H])[H])C3([H])[H])c([H])c([H])c2C1([H])[H]

>  <smiles>  (30) 
[H]c1c([H])c([H])c2c(c1[H])C([H])([H])C([H])([H])C([H])([H])C2([H])N([H])C(=O)C1([H])N(C(=O)C([H])(N([H])C(=O)C([H])(N([H])C([H])([H])[H])C([H])([H])[H])C(C([H])([H])[H])(C([H])([H])[H])C([H])([H])[H])C([H])([H])c2c([H])c(OC([H])([H])C3([H])C([H])([H])C([H])([N+]([H])([H])C([H])([H])C([H])(N([H])[H])C([H])([H])C([H])([H])N([H])C(=O)N4C([H])([H])C([H])([H])C([H])([H])C([H])(n5nc(-c6c([H])c([H])c(Oc7c([H])c([H])c(F)c([H])c7F)c([H])c6[H])c(C(=O)N([H])[H])c5N([H])[H])C4([H])[H])C3([H])[H])c([H])c([H])c2C1([H])[H]

$$$$
30:0:0
     RDKit          3D

 88 96  0  0  1  0  0  0  0  0999 V2000
  -28.6800  -19.8260   17.8570 C   0  0  0  0  0  2  0  0  0  0  0  0
  -28.6380  -20.3680   20.9240 C   0  0  0  0  0  2  0  0  0  0  0  0
  -29.0100  -21.3120   17.6320 C   0  0  0  0  0  2  0  0  0  0  0  0
  -29.5840  -18.9750   20.2900 C   0  0  0  0  0  3  0  0  0  0  0  0
  -29.7590  -19.8220   18.9360 C   0  0  0  0  0  3  0  0  0  0  0  0
  -28.5980  -21.9500   20.0650 C   0  0  0  0  0  2  0  0  0  0  0  0
  -29.5430  -21.3900   18.9980 N   0  0  2  0  0  4  0  0  0  0  0  0
  -30.4250  -21.8820   19.0240 H   0  0  0  0  0  0  0  0  0  0  0  0
  -30.2650  -15.8070   20.2990 C   0  0  0  0  0  0  0  0  0  0  0  0
  -30.4110  -13.2410   19.5270 C   0  0  0  0  0  2  0  0  0  0  0  0
  -29.5480  -12.7860   18.3150 C   0  0  0  0  0  2  0  0  0  0  0  0
  -28.1250  -12.4180   18.7580 C   0  0  0  0  0  2  0  0  0  0  0  0
  -27.5820  -13.4330   19.7890 C   0  0  0  0  0  3  0  0  0  0  0  0
  -28.5900  -13.7940   20.9060 C   0  0  0  0  0  2  0  0  0  0  0  0
  -29.7580  -14.4290   20.2480 N   0  0  0  0  0  0  0  0  0  0  0  0
  -31.5020  -15.7470   20.1500 O   0  0  0  0  0  0  0  0  0  0  0  0
  -29.4910  -17.1730   20.3340 N   0  0  0  0  0  0  0  0  0  0  0  0
  -28.5140  -16.9280   20.4110 H   0  0  0  0  0  0  0  0  0  0  0  0
  -25.2120  -13.9450   20.5390 C   0  0  0  0  0  0  0  0  0  0  0  0
  -24.1560  -13.1570   20.8940 C   0  0  0  0  0  0  0  0  0  0  0  0
  -24.6370  -11.8110   20.8600 C   0  0  0  0  0  0  0  0  0  0  0  0
  -26.2650  -13.0820   20.2990 N   0  0  0  0  0  0  0  0  0  0  0  0
  -25.9330  -11.7900   20.5600 N   0  0  0  0  0  0  0  0  0  0  0  0
  -23.9150  -10.5430   21.0380 C   0  0  0  0  0  0  0  0  0  0  0  0
  -24.3250   -9.5830   21.9900 C   0  0  0  0  0  3  0  0  0  0  0  0
  -23.6000   -8.3840   22.1580 C   0  0  0  0  0  3  0  0  0  0  0  0
  -22.4490   -8.1340   21.3720 C   0  0  0  0  0  0  0  0  0  0  0  0
  -22.0580   -9.0810   20.4100 C   0  0  0  0  0  3  0  0  0  0  0  0
  -22.7840  -10.2730   20.2410 C   0  0  0  0  0  3  0  0  0  0  0  0
  -21.6980   -6.9860   21.4480 O   0  0  0  0  0  0  0  0  0  0  0  0
  -21.5980   -6.2660   22.6110 C   0  0  0  0  0  0  0  0  0  0  0  0
  -21.0600   -6.8270   23.7900 C   0  0  0  0  0  3  0  0  0  0  0  0
  -20.9110   -6.0310   24.9430 C   0  0  0  0  0  3  0  0  0  0  0  0
  -21.2900   -4.6750   24.9190 C   0  0  0  0  0  0  0  0  0  0  0  0
  -21.8210   -4.1140   23.7440 C   0  0  0  0  0  3  0  0  0  0  0  0
  -21.9710   -4.9070   22.5930 C   0  0  0  0  0  0  0  0  0  0  0  0
  -22.4640   -4.3550   21.4570 F   0  0  0  0  0  0  0  0  0  0  0  0
  -21.1400   -3.9090   26.0240 F   0  0  0  0  0  0  0  0  0  0  0  0
  -22.7530  -13.6230   21.1450 C   0  0  0  0  0  0  0  0  0  0  0  0
  -22.0220  -12.9270   22.0080 N   0  0  0  0  0  0  0  0  0  0  0  0
  -22.3160  -14.6420   20.6130 O   0  0  0  0  0  0  0  0  0  0  0  0
  -22.3900  -12.1030   22.4600 H   0  0  0  0  0  0  0  0  0  0  0  0
  -21.0790  -13.2230   22.2200 H   0  0  0  0  0  0  0  0  0  0  0  0
  -25.3620  -15.3180   20.3660 N   0  0  0  0  0  0  0  0  0  0  0  0
  -24.5800  -15.9570   20.4640 H   0  0  0  0  0  0  0  0  0  0  0  0
  -26.1950  -15.7620   20.0070 H   0  0  0  0  0  0  0  0  0  0  0  0
  -27.8870  -23.8040   20.1200 C   0  0  0  0  0  1  0  0  0  0  0  0
  -28.1140  -25.5690   20.1550 O   0  0  0  0  0  0  0  0  0  0  0  0
  -24.6500  -31.8880   23.1490 C   0  0  0  0  0  0  0  0  0  0  0  0
  -27.1420  -26.7930   20.1260 C   0  0  0  0  0  0  0  0  0  0  0  0
  -23.4410  -30.4870   21.5310 C   0  0  0  0  0  3  0  0  0  0  0  0
  -24.8700  -28.8370   20.1000 C   0  0  0  0  0  0  0  0  0  0  0  0
  -26.0180  -30.6290   21.3720 C   0  0  0  0  0  2  0  0  0  0  0  0
  -26.0760  -29.1920   20.7170 C   0  0  0  0  0  0  0  0  0  0  0  0
  -27.1950  -28.2010   20.6940 C   0  0  0  0  0  3  0  0  0  0  0  0
  -25.8990  -26.6560   19.4540 C   0  0  0  0  0  3  0  0  0  0  0  0
  -24.8210  -27.5950   19.4440 C   0  0  0  0  0  3  0  0  0  0  0  0
  -23.6630  -29.7880   20.1570 C   0  0  0  0  0  2  0  0  0  0  0  0
  -24.7280  -31.0340   22.0690 N   0  0  0  0  0  0  0  0  0  0  0  0
  -23.5630  -32.1860   23.6750 O   0  0  0  0  0  0  0  0  0  0  0  0
  -22.7390  -29.5110   22.5130 C   0  0  0  0  0  0  0  0  0  0  0  0
  -21.4070  -29.3420   22.3980 N   0  0  0  0  0  0  0  0  0  0  0  0
  -23.4060  -28.9000   23.3530 O   0  0  0  0  0  0  0  0  0  0  0  0
  -20.9170  -29.8870   21.7020 H   0  0  0  0  0  0  0  0  0  0  0  0
  -18.0360  -28.0940   22.9420 C   0  0  0  0  0  0  0  0  0  0  0  0
  -20.5950  -28.4030   23.1830 C   0  0  0  0  0  3  0  0  0  0  0  0
  -20.7110  -26.9660   22.6230 C   0  0  0  0  0  2  0  0  0  0  0  0
  -19.6090  -26.6190   21.6170 C   0  0  0  0  0  2  0  0  0  0  0  0
  -18.2300  -26.7450   22.2690 C   0  0  0  0  0  2  0  0  0  0  0  0
  -19.1460  -28.8790   23.3560 C   0  0  0  0  0  0  0  0  0  0  0  0
  -18.9080  -30.1370   23.9510 C   0  0  0  0  0  3  0  0  0  0  0  0
  -17.5960  -30.6120   24.1320 C   0  0  0  0  0  3  0  0  0  0  0  0
  -16.5020  -29.8260   23.7290 C   0  0  0  0  0  3  0  0  0  0  0  0
  -16.7230  -28.5690   23.1410 C   0  0  0  0  0  3  0  0  0  0  0  0
  -25.9200  -32.5430   23.7710 C   0  0  0  0  0  3  0  0  0  0  0  0
  -25.5940  -33.9390   24.1230 N   0  0  0  0  0  0  0  0  0  0  0  0
  -25.9160  -35.0160   23.3920 C   0  0  0  0  0  0  0  0  0  0  0  0
  -26.5740  -34.9380   22.3520 O   0  0  0  0  0  0  0  0  0  0  0  0
  -25.0050  -34.0710   24.9320 H   0  0  0  0  0  0  0  0  0  0  0  0
  -24.1910  -36.8310   23.1010 C   0  0  0  0  0  1  0  0  0  0  0  0
  -25.4360  -36.3970   23.8900 C   0  0  0  0  0  3  0  0  0  0  0  0
  -27.5730  -37.2690   24.7350 C   0  0  0  0  0  1  0  0  0  0  0  0
  -26.4700  -37.4520   23.7960 N   0  0  0  0  0  0  0  0  0  0  0  0
  -26.0640  -38.3690   23.9590 H   0  0  0  0  0  0  0  0  0  0  0  0
  -26.4430  -31.7800   25.0520 C   0  0  1  0  0  0  0  0  0  0  0  0
  -25.3670  -31.5890   26.1480 C   0  0  0  0  0  1  0  0  0  0  0  0
  -26.9820  -30.3800   24.6830 C   0  0  0  0  0  1  0  0  0  0  0  0
  -27.6290  -32.5540   25.6750 C   0  0  0  0  0  1  0  0  0  0  0  0
  3  1  1  0
  3  7  1  0
  4 17  1  0
  4  2  1  0
  5  1  1  0
  5  7  1  0
  5  4  1  0
  6  2  1  0
  7  8  1  6
  7  6  1  0
  9 17  1  0
 10 15  1  0
 11 12  1  0
 11 10  1  0
 13 12  1  0
 13 22  1  0
 13 14  1  0
 15  9  1  0
 15 14  1  0
 16  9  2  0
 17 18  1  0
 19 20  2  0
 20 39  1  0
 21 20  1  0
 21 24  1  0
 22 19  1  0
 22 23  1  0
 23 21  2  0
 24 25  1  0
 25 26  2  0
 27 30  1  0
 27 26  1  0
 28 27  2  0
 29 28  1  0
 29 24  2  0
 30 31  1  0
 31 32  1  0
 32 33  2  0
 34 33  1  0
 34 38  1  0
 35 34  2  0
 36 31  2  0
 36 35  1  0
 37 36  1  0
 39 40  1  0
 40 43  1  0
 40 42  1  0
 41 39  2  0
 44 45  1  0
 44 19  1  0
 46 44  1  0
 47 48  1  0
 49 60  2  0
 50 48  1  0
 50 55  1  0
 51 59  1  0
 51 61  1  0
 52 58  1  0
 52 54  1  0
 53 59  1  0
 54 53  1  0
 55 54  2  0
 56 50  2  0
 57 56  1  0
 57 52  2  0
 58 51  1  0
 59 49  1  0
 61 63  2  0
 62 61  1  0
 64 62  1  0
 65 74  2  0
 65 70  1  0
 66 62  1  0
 66 70  1  0
 67 66  1  0
 68 69  1  0
 68 67  1  0
 69 65  1  0
 70 71  2  0
 71 72  1  0
 73 72  2  0
 74 73  1  0
 75 49  1  0
 75 76  1  0
 75 85  1  0
 76 79  1  0
 77 81  1  0
 77 76  1  0
 78 77  2  0
 81 80  1  0
 83 81  1  0
 83 84  1  0
 83 82  1  0
 85 88  1  1
 85 86  1  0
 87 85  1  0
M  ISO  4   9 100  17 100  47 101  48 101
M  END
>  <TORSDO>  (31) 
F 17

>  <SCORE>  (31) 
-16.508

>  <name>  (31) 
30

>  <ligand_id>  (31) 
30

>  <original_smiles>  (31) 
[H]c1c([H])c([H])c2c(c1[H])C([H])([H])C([H])([H])C([H])([H])C2([H])N([H])C(=O)C1([H])N(C(=O)C([H])(N([H])C(=O)C([H])(N([H])C([H])([H])[H])C([H])([H])[H])C(C([H])([H])[H])(C([H])([H])[H])C([H])([H])[H])C([H])([H])c2c([H])c(OC([H])([H])C3([H])C([H])([H])C([H])(N([H])C(=O)N4C([H])([H])C([H])([H])C([H])([H])C([H])(n5nc(-c6c([H])c([H])c(Oc7c([H])c([H])c(F)c([H])c7F)c([H])c6[H])c(C(=O)N([H])[H])c5N([H])[H])C4([H])[H])C4([H])C([H])([H])C([H])([H])[N+]34[H])c([H])c([H])c2C1([H])[H]

>  <smiles>  (31) 
[H]c1c([H])c([H])c2c(c1[H])C([H])([H])C([H])([H])C([H])([H])C2([H])N([H])C(=O)C1([H])N(C(=O)C([H])(N([H])C(=O)C([H])(N([H])C([H])([H])[H])C([H])([H])[H])C(C([H])([H])[H])(C([H])([H])[H])C([H])([H])[H])C([H])([H])c2c([H])c(OC([H])([H])C3([H])C([H])([H])C([H])(N([H])C(=O)N4C([H])([H])C([H])([H])C([H])([H])C([H])(n5nc(-c6c([H])c([H])c(Oc7c([H])c([H])c(F)c([H])c7F)c([H])c6[H])c(C(=O)N([H])[H])c5N([H])[H])C4([H])[H])C4([H])C([H])([H])C([H])([H])[N+]34[H])c([H])c([H])c2C1([H])[H]

$$$$
31:0:0
     RDKit          3D

 94102  0  0  1  0  0  0  0  0999 V2000
  -29.9960  -20.8740   20.6780 C   0  0  0  0  0  3  0  0  0  0  0  0
  -28.2230  -20.2300   19.3700 C   0  0  0  0  0  3  0  0  0  0  0  0
  -29.5890  -22.3070   20.6350 C   0  0  0  0  0  0  0  0  0  0  0  0
  -29.3760  -19.7010   20.0620 C   0  0  0  0  0  0  0  0  0  0  0  0
  -27.7810  -21.6490   19.3210 C   0  0  0  0  0  0  0  0  0  0  0  0
  -28.4180  -22.8230   19.9370 C   0  0  0  0  0  0  0  0  0  0  0  0
  -26.5170  -21.9030   18.5130 C   0  0  0  0  0  1  0  0  0  0  0  0
  -30.4580  -23.2740   21.3920 C   0  0  0  0  0  0  0  0  0  0  0  0
  -30.7990  -24.3910   20.7650 N   0  0  0  0  0  0  0  0  0  0  0  0
  -30.8900  -23.0050   22.5110 O   0  0  0  0  0  0  0  0  0  0  0  0
  -30.4470  -24.5840   19.8400 H   0  0  0  0  0  0  0  0  0  0  0  0
  -31.4080  -25.0590   21.2150 H   0  0  0  0  0  0  0  0  0  0  0  0
  -31.0740  -18.2340   18.8010 C   0  0  0  0  0  1  0  0  0  0  0  0
  -30.1330  -18.1380   20.0180 C   0  0  0  0  0  0  0  0  0  0  0  0
  -30.3840  -15.2660   20.0110 C   0  0  0  0  0  0  0  0  0  0  0  0
  -30.2560  -12.8690   19.0680 C   0  0  0  0  0  2  0  0  0  0  0  0
  -29.2670  -12.7190   17.8870 C   0  0  0  0  0  2  0  0  0  0  0  0
  -27.8430  -12.4520   18.4010 C   0  0  0  0  0  2  0  0  0  0  0  0
  -27.4620  -13.3850   19.5780 C   0  0  0  0  0  3  0  0  0  0  0  0
  -28.5730  -13.4940   20.6440 C   0  0  0  0  0  2  0  0  0  0  0  0
  -29.7730  -13.9880   19.9520 N   0  0  0  0  0  0  0  0  0  0  0  0
  -31.5930  -15.2330   19.7540 O   0  0  0  0  0  0  0  0  0  0  0  0
  -29.6770  -16.5560   20.1340 N   0  0  0  0  0  4  0  0  0  0  0  0
  -28.6880  -16.4410   20.3020 H   0  0  0  0  0  0  0  0  0  0  0  0
  -25.1350  -13.9200   20.4740 C   0  0  0  0  0  0  0  0  0  0  0  0
  -24.0930  -13.1310   20.8770 C   0  0  0  0  0  0  0  0  0  0  0  0
  -24.5600  -11.7840   20.7880 C   0  0  0  0  0  0  0  0  0  0  0  0
  -26.1640  -13.0540   20.1520 N   0  0  0  0  0  0  0  0  0  0  0  0
  -25.8340  -11.7610   20.4090 N   0  0  0  0  0  0  0  0  0  0  0  0
  -23.8460  -10.5150   20.9810 C   0  0  0  0  0  0  0  0  0  0  0  0
  -24.2980   -9.5410   21.8990 C   0  0  0  0  0  3  0  0  0  0  0  0
  -23.5770   -8.3400   22.0820 C   0  0  0  0  0  3  0  0  0  0  0  0
  -22.3920   -8.1050   21.3460 C   0  0  0  0  0  0  0  0  0  0  0  0
  -21.9590   -9.0650   20.4160 C   0  0  0  0  0  3  0  0  0  0  0  0
  -22.6800  -10.2580   20.2310 C   0  0  0  0  0  3  0  0  0  0  0  0
  -21.6420   -6.9550   21.4380 O   0  0  0  0  0  0  0  0  0  0  0  0
  -21.5940   -6.2200   22.5950 C   0  0  0  0  0  0  0  0  0  0  0  0
  -21.0990   -6.7590   23.8030 C   0  0  0  0  0  3  0  0  0  0  0  0
  -21.0020   -5.9480   24.9500 C   0  0  0  0  0  3  0  0  0  0  0  0
  -21.3900   -4.5960   24.8910 C   0  0  0  0  0  0  0  0  0  0  0  0
  -21.8770   -4.0550   23.6900 C   0  0  0  0  0  3  0  0  0  0  0  0
  -21.9760   -4.8640   22.5430 C   0  0  0  0  0  0  0  0  0  0  0  0
  -22.4260   -4.3320   21.3820 F   0  0  0  0  0  0  0  0  0  0  0  0
  -21.2900   -3.8130   25.9910 F   0  0  0  0  0  0  0  0  0  0  0  0
  -22.7100  -13.5990   21.2260 C   0  0  0  0  0  0  0  0  0  0  0  0
  -22.0290  -12.8860   22.1150 N   0  0  0  0  0  0  0  0  0  0  0  0
  -22.2450  -14.6320   20.7450 O   0  0  0  0  0  0  0  0  0  0  0  0
  -22.4180  -12.0510   22.5250 H   0  0  0  0  0  0  0  0  0  0  0  0
  -21.1020  -13.1820   22.3900 H   0  0  0  0  0  0  0  0  0  0  0  0
  -25.2850  -15.2950   20.3210 N   0  0  0  0  0  0  0  0  0  0  0  0
  -24.5240  -15.9450   20.4850 H   0  0  0  0  0  0  0  0  0  0  0  0
  -26.1080  -15.7380   19.9360 H   0  0  0  0  0  0  0  0  0  0  0  0
  -27.7240  -24.4140   19.8000 C   0  0  0  0  0  2  0  0  0  0  0  0
  -28.1160  -25.9540   20.1290 O   0  0  0  0  0  0  0  0  0  0  0  0
  -24.5500  -31.8200   23.2130 C   0  0  0  0  0  0  0  0  0  0  0  0
  -27.1210  -27.0540   20.0840 C   0  0  0  0  0  0  0  0  0  0  0  0
  -23.3610  -30.4630   21.5400 C   0  0  0  0  0  3  0  0  0  0  0  0
  -24.8170  -28.9080   20.0820 C   0  0  0  0  0  0  0  0  0  0  0  0
  -25.9260  -30.6910   21.4040 C   0  0  0  0  0  2  0  0  0  0  0  0
  -26.0020  -29.3030   20.7150 C   0  0  0  0  0  0  0  0  0  0  0  0
  -27.1500  -28.3970   20.6960 C   0  0  0  0  0  3  0  0  0  0  0  0
  -25.9050  -26.8100   19.4030 C   0  0  0  0  0  3  0  0  0  0  0  0
  -24.7910  -27.6810   19.4060 C   0  0  0  0  0  3  0  0  0  0  0  0
  -23.5950  -29.8190   20.1470 C   0  0  0  0  0  2  0  0  0  0  0  0
  -24.6330  -31.0150   22.1060 N   0  0  0  0  0  0  0  0  0  0  0  0
  -23.4590  -32.0940   23.7380 O   0  0  0  0  0  0  0  0  0  0  0  0
  -22.6700  -29.4380   22.4780 C   0  0  0  0  0  0  0  0  0  0  0  0
  -21.3410  -29.2710   22.3440 N   0  0  0  0  0  0  0  0  0  0  0  0
  -23.3360  -28.7970   23.2940 O   0  0  0  0  0  0  0  0  0  0  0  0
  -20.8550  -29.8420   21.6660 H   0  0  0  0  0  0  0  0  0  0  0  0
  -17.9570  -28.0550   22.8260 C   0  0  0  0  0  0  0  0  0  0  0  0
  -20.5170  -28.3130   23.0910 C   0  0  0  0  0  3  0  0  0  0  0  0
  -20.6160  -26.8960   22.4800 C   0  0  0  0  0  2  0  0  0  0  0  0
  -19.5120  -26.6000   21.4610 C   0  0  0  0  0  2  0  0  0  0  0  0
  -18.1310  -26.7270   22.1110 C   0  0  0  0  0  2  0  0  0  0  0  0
  -19.0760  -28.8070   23.2730 C   0  0  0  0  0  0  0  0  0  0  0  0
  -18.8570  -30.0500   23.9050 C   0  0  0  0  0  3  0  0  0  0  0  0
  -17.5510  -30.5430   24.0920 C   0  0  0  0  0  3  0  0  0  0  0  0
  -16.4470  -29.7880   23.6600 C   0  0  0  0  0  3  0  0  0  0  0  0
  -16.6500  -28.5460   23.0340 C   0  0  0  0  0  3  0  0  0  0  0  0
  -25.8200  -32.4490   23.8610 C   0  0  0  0  0  3  0  0  0  0  0  0
  -26.2880  -31.6910   25.1650 C   0  0  1  0  0  0  0  0  0  0  0  0
  -25.1600  -31.4880   26.2050 C   0  0  0  0  0  1  0  0  0  0  0  0
  -26.8650  -30.2990   24.8200 C   0  0  0  0  0  1  0  0  0  0  0  0
  -27.4290  -32.4810   25.8480 C   0  0  0  0  0  1  0  0  0  0  0  0
  -25.5190  -33.8560   24.1740 N   0  0  0  0  0  0  0  0  0  0  0  0
  -25.8410  -34.9000   23.3980 C   0  0  0  0  0  0  0  0  0  0  0  0
  -26.4870  -34.7810   22.3540 O   0  0  0  0  0  0  0  0  0  0  0  0
  -24.9500  -34.0250   24.9890 H   0  0  0  0  0  0  0  0  0  0  0  0
  -24.1040  -36.6950   23.0820 C   0  0  0  0  0  1  0  0  0  0  0  0
  -25.3730  -36.2980   23.8520 C   0  0  0  0  0  3  0  0  0  0  0  0
  -27.5310  -37.2040   24.5960 C   0  0  0  0  0  1  0  0  0  0  0  0
  -26.4010  -37.3490   23.6830 N   0  0  0  0  0  0  0  0  0  0  0  0
  -25.9980  -38.2710   23.8240 H   0  0  0  0  0  0  0  0  0  0  0  0
  2  4  1  0
  3  1  1  0
  3  8  1  0
  4  1  2  0
  5  2  2  0
  5  6  1  0
  6  3  2  0
  7  5  1  0
  8 10  2  0
  9 12  1  0
  9  8  1  0
 11  9  1  0
 13 14  1  0
 14  4  1  0
 14 23  2  0
 15 23  1  0
 16 21  1  0
 17 18  1  0
 17 16  1  0
 19 18  1  0
 19 28  1  0
 19 20  1  0
 21 15  1  0
 21 20  1  0
 22 15  2  0
 23 24  1  0
 25 26  2  0
 26 45  1  0
 27 26  1  0
 27 30  1  0
 28 29  1  0
 28 25  1  0
 29 27  2  0
 30 31  1  0
 31 32  2  0
 33 36  1  0
 33 32  1  0
 34 33  2  0
 35 34  1  0
 35 30  2  0
 36 37  1  0
 37 38  1  0
 38 39  2  0
 40 39  1  0
 40 44  1  0
 41 40  2  0
 42 37  2  0
 42 41  1  0
 43 42  1  0
 45 46  1  0
 46 49  1  0
 46 48  1  0
 47 45  2  0
 50 25  1  0
 50 51  1  0
 52 50  1  0
 53  6  1  0
 53 54  1  0
 55 66  2  0
 56 54  1  0
 56 61  1  0
 57 65  1  0
 57 67  1  0
 58 64  1  0
 58 60  1  0
 59 65  1  0
 60 59  1  0
 61 60  2  0
 62 63  1  0
 62 56  2  0
 63 58  2  0
 64 57  1  0
 65 55  1  0
 67 69  2  0
 68 67  1  0
 70 68  1  0
 71 80  2  0
 71 76  1  0
 72 68  1  0
 72 76  1  0
 73 72  1  0
 74 75  1  0
 74 73  1  0
 75 71  1  0
 76 77  2  0
 77 78  1  0
 79 78  2  0
 80 79  1  0
 81 55  1  0
 81 86  1  0
 81 82  1  0
 82 85  1  1
 82 83  1  0
 84 82  1  0
 86 89  1  0
 87 91  1  0
 87 86  1  0
 88 87  2  0
 91 90  1  0
 93 94  1  0
 93 91  1  0
 93 92  1  0
M  ISO  4  15 100  23 100  53 101  54 101
M  END
>  <TORSDO>  (32) 
F 19

>  <SCORE>  (32) 
-15.368

>  <name>  (32) 
31

>  <ligand_id>  (32) 
31

>  <original_smiles>  (32) 
[H]c1c([H])c([H])c2c(c1[H])C([H])([H])C([H])([H])C([H])([H])C2([H])N([H])C(=O)C1([H])N(C(=O)C([H])(N([H])C(=O)C([H])(N([H])C([H])([H])[H])C([H])([H])[H])C(C([H])([H])[H])(C([H])([H])[H])C([H])([H])[H])C([H])([H])c2c([H])c(OC([H])([H])c3c(C(=O)N([H])[H])c([H])c(C([H])(N([H])C(=O)N4C([H])([H])C([H])([H])C([H])([H])C([H])(n5nc(-c6c([H])c([H])c(Oc7c([H])c([H])c(F)c([H])c7F)c([H])c6[H])c(C(=O)N([H])[H])c5N([H])[H])C4([H])[H])C([H])([H])[H])c([H])c3C([H])([H])[H])c([H])c([H])c2C1([H])[H]

>  <smiles>  (32) 
[H]c1c([H])c([H])c2c(c1[H])C([H])([H])C([H])([H])C([H])([H])C2([H])N([H])C(=O)C1([H])N(C(=O)C([H])(N([H])C(=O)C([H])(N([H])C([H])([H])[H])C([H])([H])[H])C(C([H])([H])[H])(C([H])([H])[H])C([H])([H])[H])C([H])([H])c2c([H])c(OC([H])([H])c3c(C(=O)N([H])[H])c([H])c(C([H])(N([H])C(=O)N4C([H])([H])C([H])([H])C([H])([H])C([H])(n5nc(-c6c([H])c([H])c(Oc7c([H])c([H])c(F)c([H])c7F)c([H])c6[H])c(C(=O)N([H])[H])c5N([H])[H])C4([H])[H])C([H])([H])[H])c([H])c3C([H])([H])[H])c([H])c([H])c2C1([H])[H]

$$$$
32:0:0
     RDKit          3D

 88 97  0  0  1  0  0  0  0  0999 V2000
  -27.5710  -21.0630   20.2910 C   0  0  0  0  0  2  0  0  0  0  0  0
  -29.1390  -21.1660   21.5010 C   0  0  0  0  0  2  0  0  0  0  0  0
  -29.7830  -20.6900   19.2210 C   0  0  0  0  0  2  0  0  0  0  0  0
  -28.4720  -19.9020   20.8510 C   0  0  0  0  0  3  0  0  0  0  0  0
  -29.2840  -19.2210   19.7050 C   0  0  0  0  0  3  0  0  0  0  0  0
  -28.9370  -21.7650   20.0850 C   0  0  1  0  0  0  0  0  0  0  0  0
  -30.2970  -17.8740   19.9360 C   0  0  0  0  0  2  0  0  0  0  0  0
  -30.6540  -15.1370   19.8540 C   0  0  0  0  0  0  0  0  0  0  0  0
  -30.4790  -12.7710   18.9520 C   0  0  0  0  0  2  0  0  0  0  0  0
  -29.4770  -12.7140   17.7770 C   0  0  0  0  0  2  0  0  0  0  0  0
  -28.0410  -12.5070   18.2980 C   0  0  0  0  0  2  0  0  0  0  0  0
  -27.7050  -13.4350   19.4980 C   0  0  0  0  0  3  0  0  0  0  0  0
  -28.8280  -13.4670   20.5530 C   0  0  0  0  0  2  0  0  0  0  0  0
  -30.0510  -13.8790   19.8550 N   0  0  0  0  0  0  0  0  0  0  0  0
  -31.8460  -15.1860   19.5320 O   0  0  0  0  0  0  0  0  0  0  0  0
  -29.8940  -16.3360   20.0000 N   0  0  0  0  0  0  0  0  0  0  0  0
  -28.9140  -16.1730   20.1820 H   0  0  0  0  0  0  0  0  0  0  0  0
  -25.3910  -14.0090   20.4250 C   0  0  0  0  0  0  0  0  0  0  0  0
  -24.3460  -13.2330   20.8430 C   0  0  0  0  0  0  0  0  0  0  0  0
  -24.7900  -11.8800   20.7340 C   0  0  0  0  0  0  0  0  0  0  0  0
  -26.4030  -13.1290   20.0820 N   0  0  0  0  0  0  0  0  0  0  0  0
  -26.0550  -11.8390   20.3340 N   0  0  0  0  0  0  0  0  0  0  0  0
  -24.0590  -10.6210   20.9350 C   0  0  0  0  0  0  0  0  0  0  0  0
  -24.5140   -9.6380   21.8410 C   0  0  0  0  0  3  0  0  0  0  0  0
  -23.7830   -8.4440   22.0280 C   0  0  0  0  0  3  0  0  0  0  0  0
  -22.5850   -8.2250   21.3090 C   0  0  0  0  0  0  0  0  0  0  0  0
  -22.1500   -9.1960   20.3890 C   0  0  0  0  0  3  0  0  0  0  0  0
  -22.8800  -10.3810   20.2010 C   0  0  0  0  0  3  0  0  0  0  0  0
  -21.8230   -7.0870   21.4080 O   0  0  0  0  0  0  0  0  0  0  0  0
  -21.7670   -6.3560   22.5670 C   0  0  0  0  0  0  0  0  0  0  0  0
  -21.3080   -6.9150   23.7800 C   0  0  0  0  0  3  0  0  0  0  0  0
  -21.2020   -6.1110   24.9310 C   0  0  0  0  0  3  0  0  0  0  0  0
  -21.5450   -4.7460   24.8700 C   0  0  0  0  0  0  0  0  0  0  0  0
  -21.9970   -4.1860   23.6640 C   0  0  0  0  0  3  0  0  0  0  0  0
  -22.1050   -4.9890   22.5150 C   0  0  0  0  0  0  0  0  0  0  0  0
  -22.5220   -4.4390   21.3480 F   0  0  0  0  0  0  0  0  0  0  0  0
  -21.4360   -3.9710   25.9750 F   0  0  0  0  0  0  0  0  0  0  0  0
  -22.9780  -13.7170   21.2240 C   0  0  0  0  0  0  0  0  0  0  0  0
  -22.3040  -13.0050   22.1190 N   0  0  0  0  0  0  0  0  0  0  0  0
  -22.5180  -14.7630   20.7640 O   0  0  0  0  0  0  0  0  0  0  0  0
  -22.6920  -12.1600   22.5130 H   0  0  0  0  0  0  0  0  0  0  0  0
  -21.3870  -13.3090   22.4160 H   0  0  0  0  0  0  0  0  0  0  0  0
  -25.5580  -15.3830   20.2810 N   0  0  0  0  0  0  0  0  0  0  0  0
  -24.8010  -16.0370   20.4520 H   0  0  0  0  0  0  0  0  0  0  0  0
  -26.3760  -15.8240   19.8820 H   0  0  0  0  0  0  0  0  0  0  0  0
  -29.0840  -23.4440   19.7850 C   0  0  0  0  0  3  0  0  0  0  0  0
  -28.0610  -24.7210   20.2370 C   0  0  0  0  0  3  0  0  0  0  0  0
  -28.3030  -26.2710   20.0790 O   0  0  0  0  0  0  0  0  0  0  0  0
  -24.6100  -31.9100   23.1700 C   0  0  0  0  0  0  0  0  0  0  0  0
  -27.2350  -27.2510   20.0660 C   0  0  0  0  0  0  0  0  0  0  0  0
  -23.4270  -30.5250   21.5130 C   0  0  0  0  0  3  0  0  0  0  0  0
  -24.8920  -28.9850   20.0650 C   0  0  0  0  0  0  0  0  0  0  0  0
  -25.9810  -30.8140   21.3540 C   0  0  0  0  0  2  0  0  0  0  0  0
  -26.0680  -29.4300   20.6810 C   0  0  0  0  0  0  0  0  0  0  0  0
  -27.2410  -28.5790   20.6630 C   0  0  0  0  0  3  0  0  0  0  0  0
  -26.0330  -26.9210   19.4030 C   0  0  0  0  0  3  0  0  0  0  0  0
  -24.8890  -27.7470   19.4070 C   0  0  0  0  0  3  0  0  0  0  0  0
  -23.6560  -29.8720   20.1240 C   0  0  0  0  0  2  0  0  0  0  0  0
  -24.6930  -31.1060   22.0660 N   0  0  0  0  0  0  0  0  0  0  0  0
  -23.5200  -32.1730   23.7020 O   0  0  0  0  0  0  0  0  0  0  0  0
  -22.7620  -29.4940   22.4600 C   0  0  0  0  0  0  0  0  0  0  0  0
  -21.4330  -29.3190   22.3430 N   0  0  0  0  0  0  0  0  0  0  0  0
  -23.4430  -28.8540   23.2650 O   0  0  0  0  0  0  0  0  0  0  0  0
  -20.9390  -29.8870   21.6680 H   0  0  0  0  0  0  0  0  0  0  0  0
  -18.0590  -28.1030   22.8670 C   0  0  0  0  0  0  0  0  0  0  0  0
  -20.6220  -28.3640   23.1020 C   0  0  0  0  0  3  0  0  0  0  0  0
  -20.7160  -26.9460   22.4930 C   0  0  0  0  0  2  0  0  0  0  0  0
  -19.6000  -26.6460   21.4880 C   0  0  0  0  0  2  0  0  0  0  0  0
  -18.2270  -26.7720   22.1550 C   0  0  0  0  0  2  0  0  0  0  0  0
  -19.1830  -28.8580   23.2980 C   0  0  0  0  0  0  0  0  0  0  0  0
  -18.9700  -30.1040   23.9270 C   0  0  0  0  0  3  0  0  0  0  0  0
  -17.6660  -30.5960   24.1270 C   0  0  0  0  0  3  0  0  0  0  0  0
  -16.5570  -29.8390   23.7110 C   0  0  0  0  0  3  0  0  0  0  0  0
  -16.7540  -28.5940   23.0860 C   0  0  0  0  0  3  0  0  0  0  0  0
  -25.8780  -32.5550   23.8070 C   0  0  0  0  0  3  0  0  0  0  0  0
  -26.3950  -31.7780   25.0800 C   0  0  1  0  0  0  0  0  0  0  0  0
  -25.2980  -31.5170   26.1390 C   0  0  0  0  0  1  0  0  0  0  0  0
  -26.9970  -30.4100   24.6830 C   0  0  0  0  0  1  0  0  0  0  0  0
  -27.5340  -32.5780   25.7540 C   0  0  0  0  0  1  0  0  0  0  0  0
  -25.5480  -33.9460   24.1570 N   0  0  0  0  0  0  0  0  0  0  0  0
  -25.8550  -35.0170   23.4130 C   0  0  0  0  0  0  0  0  0  0  0  0
  -26.5130  -34.9370   22.3720 O   0  0  0  0  0  0  0  0  0  0  0  0
  -24.9590  -34.0810   24.9650 H   0  0  0  0  0  0  0  0  0  0  0  0
  -24.0950  -36.7910   23.1120 C   0  0  0  0  0  1  0  0  0  0  0  0
  -25.3560  -36.3920   23.8970 C   0  0  0  0  0  3  0  0  0  0  0  0
  -27.4870  -37.3020   24.7120 C   0  0  0  0  0  1  0  0  0  0  0  0
  -26.3700  -37.4620   23.7830 N   0  0  0  0  0  0  0  0  0  0  0  0
  -25.9520  -38.3750   23.9440 H   0  0  0  0  0  0  0  0  0  0  0  0
  3  5  1  0
  3  6  1  0
  4  1  1  0
  4  2  1  0
  5  7  1  0
  5  4  1  0
  6 46  1  1
  6  1  1  0
  6  2  1  0
  7 16  1  0
  8 14  1  0
  8 16  1  0
  9 14  1  0
 10 11  1  0
 10  9  1  0
 12 11  1  0
 12 21  1  0
 12 13  1  0
 14 13  1  0
 15  8  2  0
 16 17  1  0
 18 19  2  0
 19 38  1  0
 20 19  1  0
 20 23  1  0
 21 22  1  0
 21 18  1  0
 22 20  2  0
 23 24  1  0
 24 25  2  0
 26 29  1  0
 26 25  1  0
 27 26  2  0
 28 27  1  0
 28 23  2  0
 29 30  1  0
 30 31  1  0
 31 32  2  0
 33 32  1  0
 33 37  1  0
 34 33  2  0
 35 30  2  0
 35 34  1  0
 36 35  1  0
 38 39  1  0
 39 42  1  0
 39 41  1  0
 40 38  2  0
 43 18  1  0
 43 44  1  0
 45 43  1  0
 46 47  2  0
 48 47  1  0
 49 60  2  0
 50 48  1  0
 50 55  1  0
 51 59  1  0
 51 61  1  0
 52 58  1  0
 52 54  1  0
 53 59  1  0
 54 53  1  0
 55 54  2  0
 56 57  1  0
 56 50  2  0
 57 52  2  0
 58 51  1  0
 59 49  1  0
 61 63  2  0
 62 61  1  0
 64 62  1  0
 65 74  2  0
 65 70  1  0
 66 62  1  0
 66 70  1  0
 67 66  1  0
 68 69  1  0
 68 67  1  0
 69 65  1  0
 70 71  2  0
 71 72  1  0
 73 72  2  0
 74 73  1  0
 75 49  1  0
 75 80  1  0
 75 76  1  0
 76 79  1  1
 76 77  1  0
 78 76  1  0
 80 83  1  0
 81 85  1  0
 81 80  1  0
 82 81  2  0
 85 84  1  0
 87 85  1  0
 87 88  1  0
 87 86  1  0
M  ISO  4   8 100  16 100  47 101  48 101
M  END
>  <TORSDO>  (33) 
F 19

>  <SCORE>  (33) 
-15.372

>  <name>  (33) 
32

>  <ligand_id>  (33) 
32

>  <original_smiles>  (33) 
[H]c1c([H])c([H])c2c(c1[H])C([H])([H])C([H])([H])C([H])([H])C2([H])N([H])C(=O)C1([H])N(C(=O)C([H])(N([H])C(=O)C([H])(N([H])C([H])([H])[H])C([H])([H])[H])C(C([H])([H])[H])(C([H])([H])[H])C([H])([H])[H])C([H])([H])c2c([H])c(OC([H])([H])C([H])([H])C34C([H])([H])C([H])(C([H])([H])N([H])C(=O)N5C([H])([H])C([H])([H])C([H])([H])C([H])(n6nc(-c7c([H])c([H])c(Oc8c([H])c([H])c(F)c([H])c8F)c([H])c7[H])c(C(=O)N([H])[H])c6N([H])[H])C5([H])[H])C([H])(C3([H])[H])C4([H])[H])c([H])c([H])c2C1([H])[H]

>  <smiles>  (33) 
[H]c1c([H])c([H])c2c(c1[H])C([H])([H])C([H])([H])C([H])([H])C2([H])N([H])C(=O)C1([H])N(C(=O)C([H])(N([H])C(=O)C([H])(N([H])C([H])([H])[H])C([H])([H])[H])C(C([H])([H])[H])(C([H])([H])[H])C([H])([H])[H])C([H])([H])c2c([H])c(OC([H])([H])C([H])([H])C34C([H])([H])C([H])(C([H])([H])N([H])C(=O)N5C([H])([H])C([H])([H])C([H])([H])C([H])(n6nc(-c7c([H])c([H])c(Oc8c([H])c([H])c(F)c([H])c8F)c([H])c7[H])c(C(=O)N([H])[H])c6N([H])[H])C5([H])[H])C([H])(C3([H])[H])C4([H])[H])c([H])c([H])c2C1([H])[H]

$$$$
33:0:0
     RDKit          3D

 93103  0  0  1  0  0  0  0  0999 V2000
  -30.0560  -21.2290   19.9770 N   0  0  0  0  0  4  0  0  0  0  0  0
  -29.8490  -21.2200   18.9890 H   0  0  0  0  0  0  0  0  0  0  0  0
  -31.0190  -21.5130   20.0660 H   0  0  0  0  0  0  0  0  0  0  0  0
  -30.4200  -17.9180   22.1430 C   0  0  0  0  0  2  0  0  0  0  0  0
  -30.7570  -19.3970   21.7680 C   0  0  1  0  0  0  0  0  0  0  0  0
  -31.0600  -18.5850   20.0560 C   0  0  1  0  0  0  0  0  0  0  0  0
  -30.9140  -17.2180   20.8600 C   0  0  0  0  0  3  0  0  0  0  0  0
  -30.0050  -19.7550   20.4680 C   0  0  0  0  0  3  0  0  0  0  0  0
  -32.0770  -19.4310   20.9100 C   0  0  1  0  0  0  0  0  0  0  0  0
  -32.7240  -20.6970   20.2710 C   0  0  0  0  0  1  0  0  0  0  0  0
  -33.3050  -18.7800   21.5980 C   0  0  0  0  0  1  0  0  0  0  0  0
  -30.8780  -14.7600   20.0340 C   0  0  0  0  0  0  0  0  0  0  0  0
  -30.5360  -12.5240   18.9710 C   0  0  0  0  0  2  0  0  0  0  0  0
  -29.5520  -12.6260   17.7880 C   0  0  0  0  0  2  0  0  0  0  0  0
  -28.1030  -12.4640   18.2780 C   0  0  0  0  0  2  0  0  0  0  0  0
  -27.7880  -13.3540   19.5080 C   0  0  0  0  0  3  0  0  0  0  0  0
  -28.8910  -13.2600   20.5860 C   0  0  0  0  0  2  0  0  0  0  0  0
  -30.1730  -13.5820   19.9430 N   0  0  0  0  0  0  0  0  0  0  0  0
  -32.0440  -14.8110   19.6330 O   0  0  0  0  0  0  0  0  0  0  0  0
  -30.2400  -15.9200   20.4300 N   0  0  0  0  0  0  0  0  0  0  0  0
  -29.2640  -15.8180   20.6670 H   0  0  0  0  0  0  0  0  0  0  0  0
  -25.4310  -13.9690   20.3160 C   0  0  0  0  0  0  0  0  0  0  0  0
  -24.3720  -13.2080   20.7200 C   0  0  0  0  0  0  0  0  0  0  0  0
  -24.8200  -11.8510   20.6790 C   0  0  0  0  0  0  0  0  0  0  0  0
  -26.4590  -13.0800   20.0490 N   0  0  0  0  0  0  0  0  0  0  0  0
  -26.1000  -11.8000   20.3290 N   0  0  0  0  0  0  0  0  0  0  0  0
  -24.0890  -10.5960   20.8930 C   0  0  0  0  0  0  0  0  0  0  0  0
  -24.5270   -9.6360   21.8310 C   0  0  0  0  0  3  0  0  0  0  0  0
  -23.7950   -8.4460   22.0350 C   0  0  0  0  0  3  0  0  0  0  0  0
  -22.6090   -8.2090   21.3030 C   0  0  0  0  0  0  0  0  0  0  0  0
  -22.1900   -9.1560   20.3520 C   0  0  0  0  0  3  0  0  0  0  0  0
  -22.9230  -10.3360   20.1450 C   0  0  0  0  0  3  0  0  0  0  0  0
  -21.8480   -7.0700   21.4150 O   0  0  0  0  0  0  0  0  0  0  0  0
  -21.7930   -6.3540   22.5830 C   0  0  0  0  0  0  0  0  0  0  0  0
  -21.3540   -6.9340   23.7930 C   0  0  0  0  0  3  0  0  0  0  0  0
  -21.2460   -6.1440   24.9560 C   0  0  0  0  0  3  0  0  0  0  0  0
  -21.5670   -4.7750   24.9090 C   0  0  0  0  0  0  0  0  0  0  0  0
  -22.0000   -4.1930   23.7040 C   0  0  0  0  0  3  0  0  0  0  0  0
  -22.1090   -4.9800   22.5430 C   0  0  0  0  0  0  0  0  0  0  0  0
  -22.5040   -4.4100   21.3810 F   0  0  0  0  0  0  0  0  0  0  0  0
  -21.4570   -4.0130   26.0220 F   0  0  0  0  0  0  0  0  0  0  0  0
  -22.9880  -13.6970   21.0360 C   0  0  0  0  0  0  0  0  0  0  0  0
  -22.2850  -13.0130   21.9320 N   0  0  0  0  0  0  0  0  0  0  0  0
  -22.5420  -14.7220   20.5230 O   0  0  0  0  0  0  0  0  0  0  0  0
  -22.6630  -12.1830   22.3660 H   0  0  0  0  0  0  0  0  0  0  0  0
  -21.3570  -13.3190   22.1830 H   0  0  0  0  0  0  0  0  0  0  0  0
  -25.6090  -15.3390   20.1260 N   0  0  0  0  0  0  0  0  0  0  0  0
  -24.8570  -16.0090   20.2570 H   0  0  0  0  0  0  0  0  0  0  0  0
  -26.4520  -15.7570   19.7530 H   0  0  0  0  0  0  0  0  0  0  0  0
  -29.1650  -22.3220   20.5900 C   0  0  0  0  0  2  0  0  0  0  0  0
  -29.4980  -23.9060   20.3600 C   0  0  0  0  0  3  0  0  0  0  0  0
  -28.2920  -24.9930   20.4760 C   0  0  0  0  0  3  0  0  0  0  0  0
  -28.4610  -26.4920   20.4260 O   0  0  0  0  0  0  0  0  0  0  0  0
  -24.6040  -31.9530   23.3130 C   0  0  0  0  0  0  0  0  0  0  0  0
  -27.3190  -27.3370   20.3710 C   0  0  0  0  0  0  0  0  0  0  0  0
  -23.4320  -30.5100   21.6860 C   0  0  0  0  0  3  0  0  0  0  0  0
  -24.9200  -28.9390   20.3080 C   0  0  0  0  0  0  0  0  0  0  0  0
  -25.9750  -30.8400   21.5300 C   0  0  0  0  0  2  0  0  0  0  0  0
  -26.0800  -29.4520   20.9030 C   0  0  0  0  0  0  0  0  0  0  0  0
  -27.2810  -28.6690   20.9110 C   0  0  0  0  0  3  0  0  0  0  0  0
  -26.1270  -26.8870   19.7570 C   0  0  0  0  0  3  0  0  0  0  0  0
  -24.9490  -27.6650   19.7200 C   0  0  0  0  0  3  0  0  0  0  0  0
  -23.6690  -29.8020   20.3240 C   0  0  0  0  0  2  0  0  0  0  0  0
  -24.6890  -31.1210   22.2310 N   0  0  0  0  0  0  0  0  0  0  0  0
  -23.5120  -32.2350   23.8260 O   0  0  0  0  0  0  0  0  0  0  0  0
  -22.7610  -29.5150   22.6630 C   0  0  0  0  0  0  0  0  0  0  0  0
  -21.4390  -29.3160   22.5150 N   0  0  0  0  0  0  0  0  0  0  0  0
  -23.4320  -28.9210   23.5110 O   0  0  0  0  0  0  0  0  0  0  0  0
  -20.9530  -29.8460   21.8040 H   0  0  0  0  0  0  0  0  0  0  0  0
  -18.0780  -28.0510   22.9510 C   0  0  0  0  0  0  0  0  0  0  0  0
  -20.6190  -28.3840   23.2910 C   0  0  0  0  0  3  0  0  0  0  0  0
  -20.7770  -26.9360   22.7700 C   0  0  0  0  0  2  0  0  0  0  0  0
  -19.7160  -26.5490   21.7360 C   0  0  0  0  0  2  0  0  0  0  0  0
  -18.3110  -26.6840   22.3290 C   0  0  0  0  0  2  0  0  0  0  0  0
  -19.1630  -28.8560   23.3880 C   0  0  0  0  0  0  0  0  0  0  0  0
  -18.8960  -30.1340   23.9250 C   0  0  0  0  0  3  0  0  0  0  0  0
  -17.5740  -30.6050   24.0350 C   0  0  0  0  0  3  0  0  0  0  0  0
  -16.5010  -29.7960   23.6180 C   0  0  0  0  0  3  0  0  0  0  0  0
  -16.7550  -28.5220   23.0800 C   0  0  0  0  0  3  0  0  0  0  0  0
  -25.8740  -32.6090   23.9380 C   0  0  0  0  0  3  0  0  0  0  0  0
  -26.3740  -31.8780   25.2460 C   0  0  1  0  0  0  0  0  0  0  0  0
  -25.2630  -31.6650   26.3000 C   0  0  0  0  0  1  0  0  0  0  0  0
  -26.9720  -30.4930   24.9050 C   0  0  0  0  0  1  0  0  0  0  0  0
  -27.5060  -32.7010   25.9050 C   0  0  0  0  0  1  0  0  0  0  0  0
  -25.5600  -34.0150   24.2290 N   0  0  0  0  0  0  0  0  0  0  0  0
  -25.9070  -35.0510   23.4560 C   0  0  0  0  0  0  0  0  0  0  0  0
  -26.5970  -34.9260   22.4400 O   0  0  0  0  0  0  0  0  0  0  0  0
  -24.9650  -34.1910   25.0240 H   0  0  0  0  0  0  0  0  0  0  0  0
  -24.1910  -36.8350   23.0250 C   0  0  0  0  0  1  0  0  0  0  0  0
  -25.4120  -36.4480   23.8750 C   0  0  0  0  0  3  0  0  0  0  0  0
  -27.5190  -37.3440   24.7500 C   0  0  0  0  0  1  0  0  0  0  0  0
  -26.4460  -37.4980   23.7730 N   0  0  0  0  0  0  0  0  0  0  0  0
  -26.0380  -38.4210   23.8950 H   0  0  0  0  0  0  0  0  0  0  0  0
  1  3  1  0
  1 50  1  0
  2  1  1  0
  5  4  1  1
  6  8  1  1
  6  7  1  0
  6  9  1  0
  6  5  1  0
  7 20  1  0
  7  4  1  0
  8  1  1  0
  8  5  1  0
  9 11  1  1
  9  5  1  0
 10  9  1  0
 12 20  1  0
 13 18  1  0
 14 15  1  0
 14 13  1  0
 16 15  1  0
 16 25  1  0
 16 17  1  0
 18 12  1  0
 18 17  1  0
 19 12  2  0
 20 21  1  0
 22 23  2  0
 23 42  1  0
 24 23  1  0
 24 27  1  0
 25 22  1  0
 25 26  1  0
 26 24  2  0
 27 28  1  0
 28 29  2  0
 30 33  1  0
 30 29  1  0
 31 30  2  0
 32 31  1  0
 32 27  2  0
 33 34  1  0
 34 35  1  0
 35 36  2  0
 37 36  1  0
 37 41  1  0
 38 37  2  0
 39 34  2  0
 39 38  1  0
 40 39  1  0
 42 43  1  0
 43 46  1  0
 43 45  1  0
 44 42  2  0
 47 48  1  0
 47 22  1  0
 49 47  1  0
 51 52  2  0
 51 50  1  0
 53 52  1  0
 54 65  2  0
 55 53  1  0
 55 60  1  0
 56 64  1  0
 56 66  1  0
 57 63  1  0
 57 59  1  0
 58 64  1  0
 59 60  2  0
 59 58  1  0
 61 55  2  0
 62 61  1  0
 62 57  2  0
 63 56  1  0
 64 54  1  0
 66 68  2  0
 67 66  1  0
 69 67  1  0
 70 79  2  0
 70 75  1  0
 71 67  1  0
 71 75  1  0
 72 71  1  0
 73 74  1  0
 73 72  1  0
 74 70  1  0
 75 76  2  0
 76 77  1  0
 78 77  2  0
 79 78  1  0
 80 54  1  0
 80 85  1  0
 80 81  1  0
 81 84  1  1
 81 82  1  0
 83 81  1  0
 85 88  1  0
 86 90  1  0
 86 85  1  0
 87 86  2  0
 90 89  1  0
 92 90  1  0
 92 93  1  0
 92 91  1  0
M  ISO  4  12 100  20 100  52 101  53 101
M  END
>  <TORSDO>  (34) 
F 20

>  <SCORE>  (34) 
-13.188

>  <name>  (34) 
33

>  <ligand_id>  (34) 
33

>  <original_smiles>  (34) 
[H]c1c([H])c([H])c2c(c1[H])C([H])([H])C([H])([H])C([H])([H])C2([H])N([H])C(=O)C1([H])N(C(=O)C([H])(N([H])C(=O)C([H])(N([H])C([H])([H])[H])C([H])([H])[H])C(C([H])([H])[H])(C([H])([H])[H])C([H])([H])[H])C([H])([H])c2c([H])c(OC([H])([H])C([H])([H])C([H])([H])[N+]([H])([H])C3([H])C4([H])C([H])([H])C([H])(N([H])C(=O)N5C([H])([H])C([H])([H])C([H])([H])C([H])(n6nc(-c7c([H])c([H])c(Oc8c([H])c([H])c(F)c([H])c8F)c([H])c7[H])c(C(=O)N([H])[H])c6N([H])[H])C5([H])[H])C3([H])C4(C([H])([H])[H])C([H])([H])[H])c([H])c([H])c2C1([H])[H]

>  <smiles>  (34) 
[H]c1c([H])c([H])c2c(c1[H])C([H])([H])C([H])([H])C([H])([H])C2([H])N([H])C(=O)C1([H])N(C(=O)C([H])(N([H])C(=O)C([H])(N([H])C([H])([H])[H])C([H])([H])[H])C(C([H])([H])[H])(C([H])([H])[H])C([H])([H])[H])C([H])([H])c2c([H])c(OC([H])([H])C([H])([H])C([H])([H])[N+]([H])([H])C3([H])C4([H])C([H])([H])C([H])(N([H])C(=O)N5C([H])([H])C([H])([H])C([H])([H])C([H])(n6nc(-c7c([H])c([H])c(Oc8c([H])c([H])c(F)c([H])c8F)c([H])c7[H])c(C(=O)N([H])[H])c6N([H])[H])C5([H])[H])C3([H])C4(C([H])([H])[H])C([H])([H])[H])c([H])c([H])c2C1([H])[H]

$$$$
34:0:0
     RDKit          3D

 89 98  0  0  1  0  0  0  0  0999 V2000
  -29.5330  -22.0290   19.6490 C   0  0  0  0  0  0  0  0  0  0  0  0
  -29.1680  -21.2670   21.8910 C   0  0  0  0  0  2  0  0  0  0  0  0
  -28.8700  -22.8150   21.8330 C   0  0  0  0  0  2  0  0  0  0  0  0
  -27.6110  -21.7300   20.0320 C   0  0  0  0  0  2  0  0  0  0  0  0
  -28.8570  -20.8140   20.4580 C   0  0  1  0  0  0  0  0  0  0  0  0
  -28.4820  -23.0300   20.3680 C   0  0  2  0  0  0  0  0  0  0  0  0
  -30.3860  -22.1160   18.7630 O   0  0  0  0  0  0  0  0  0  0  0  0
  -28.9880  -19.1410   20.0300 C   0  0  0  0  0  3  0  0  0  0  0  0
  -29.9000  -17.8600   20.6980 C   0  0  0  0  0  3  0  0  0  0  0  0
  -30.4750  -15.1160   20.3060 C   0  0  0  0  0  0  0  0  0  0  0  0
  -30.4100  -12.7660   19.3250 C   0  0  0  0  0  2  0  0  0  0  0  0
  -29.4740  -12.6840   18.0980 C   0  0  0  0  0  2  0  0  0  0  0  0
  -28.0100  -12.4560   18.5220 C   0  0  0  0  0  2  0  0  0  0  0  0
  -27.5860  -13.3700   19.7010 C   0  0  0  0  0  3  0  0  0  0  0  0
  -28.6390  -13.3980   20.8250 C   0  0  0  0  0  2  0  0  0  0  0  0
  -29.8970  -13.8460   20.2200 N   0  0  0  0  0  0  0  0  0  0  0  0
  -31.6880  -15.1900   20.0820 O   0  0  0  0  0  0  0  0  0  0  0  0
  -29.6620  -16.2920   20.4460 N   0  0  0  0  0  0  0  0  0  0  0  0
  -28.6870  -16.0420   20.4980 H   0  0  0  0  0  0  0  0  0  0  0  0
  -25.2040  -13.9310   20.4380 C   0  0  0  0  0  0  0  0  0  0  0  0
  -24.1430  -13.1510   20.8130 C   0  0  0  0  0  0  0  0  0  0  0  0
  -24.6190  -11.8040   20.7910 C   0  0  0  0  0  0  0  0  0  0  0  0
  -26.2520  -13.0600   20.2020 N   0  0  0  0  0  0  0  0  0  0  0  0
  -25.9110  -11.7740   20.4810 N   0  0  0  0  0  0  0  0  0  0  0  0
  -23.9000  -10.5360   20.9840 C   0  0  0  0  0  0  0  0  0  0  0  0
  -24.3260   -9.5790   21.9330 C   0  0  0  0  0  3  0  0  0  0  0  0
  -23.6060   -8.3790   22.1140 C   0  0  0  0  0  3  0  0  0  0  0  0
  -22.4460   -8.1250   21.3450 C   0  0  0  0  0  0  0  0  0  0  0  0
  -22.0370   -9.0690   20.3880 C   0  0  0  0  0  3  0  0  0  0  0  0
  -22.7590  -10.2610   20.2040 C   0  0  0  0  0  3  0  0  0  0  0  0
  -21.6990   -6.9740   21.4320 O   0  0  0  0  0  0  0  0  0  0  0  0
  -21.6300   -6.2460   22.5930 C   0  0  0  0  0  0  0  0  0  0  0  0
  -21.1420   -6.8060   23.7940 C   0  0  0  0  0  3  0  0  0  0  0  0
  -21.0220   -6.0030   24.9470 C   0  0  0  0  0  3  0  0  0  0  0  0
  -21.3830   -4.6430   24.9000 C   0  0  0  0  0  0  0  0  0  0  0  0
  -21.8640   -4.0840   23.7030 C   0  0  0  0  0  3  0  0  0  0  0  0
  -21.9860   -4.8830   22.5530 C   0  0  0  0  0  0  0  0  0  0  0  0
  -22.4280   -4.3300   21.3990 F   0  0  0  0  0  0  0  0  0  0  0  0
  -21.2620   -3.8720   26.0050 F   0  0  0  0  0  0  0  0  0  0  0  0
  -22.7410  -13.6230   21.0700 C   0  0  0  0  0  0  0  0  0  0  0  0
  -22.0050  -12.9260   21.9290 N   0  0  0  0  0  0  0  0  0  0  0  0
  -22.3030  -14.6420   20.5400 O   0  0  0  0  0  0  0  0  0  0  0  0
  -22.3670  -12.1070   22.3910 H   0  0  0  0  0  0  0  0  0  0  0  0
  -21.0610  -13.2260   22.1310 H   0  0  0  0  0  0  0  0  0  0  0  0
  -25.3630  -15.3020   20.2520 N   0  0  0  0  0  0  0  0  0  0  0  0
  -24.5970  -15.9610   20.3450 H   0  0  0  0  0  0  0  0  0  0  0  0
  -26.2040  -15.7260   19.8800 H   0  0  0  0  0  0  0  0  0  0  0  0
  -27.9930  -24.6070   19.8400 C   0  0  0  0  0  2  0  0  0  0  0  0
  -28.2180  -26.1190   20.2910 O   0  0  0  0  0  0  0  0  0  0  0  0
  -24.6080  -31.9100   23.2460 C   0  0  0  0  0  0  0  0  0  0  0  0
  -27.2020  -27.1660   20.1880 C   0  0  0  0  0  0  0  0  0  0  0  0
  -23.4300  -30.5270   21.5850 C   0  0  0  0  0  3  0  0  0  0  0  0
  -24.8910  -28.9650   20.1560 C   0  0  0  0  0  0  0  0  0  0  0  0
  -25.9880  -30.7770   21.4520 C   0  0  0  0  0  2  0  0  0  0  0  0
  -26.0680  -29.3850   20.7890 C   0  0  0  0  0  0  0  0  0  0  0  0
  -27.2190  -28.4970   20.7950 C   0  0  0  0  0  3  0  0  0  0  0  0
  -26.0140  -26.8960   19.4720 C   0  0  0  0  0  3  0  0  0  0  0  0
  -24.8790  -27.7360   19.4860 C   0  0  0  0  0  3  0  0  0  0  0  0
  -23.6710  -29.8760   20.2000 C   0  0  0  0  0  2  0  0  0  0  0  0
  -24.6980  -31.0940   22.1500 N   0  0  0  0  0  0  0  0  0  0  0  0
  -23.5160  -32.1860   23.7650 O   0  0  0  0  0  0  0  0  0  0  0  0
  -22.7420  -29.5100   22.5320 C   0  0  0  0  0  0  0  0  0  0  0  0
  -21.4130  -29.3400   22.3990 N   0  0  0  0  0  0  0  0  0  0  0  0
  -23.4070  -28.8760   23.3540 O   0  0  0  0  0  0  0  0  0  0  0  0
  -20.9270  -29.9090   21.7190 H   0  0  0  0  0  0  0  0  0  0  0  0
  -18.0300  -28.1300   22.8840 C   0  0  0  0  0  0  0  0  0  0  0  0
  -20.5890  -28.3940   23.1570 C   0  0  0  0  0  3  0  0  0  0  0  0
  -20.6920  -26.9670   22.5720 C   0  0  0  0  0  2  0  0  0  0  0  0
  -19.5920  -26.6510   21.5530 C   0  0  0  0  0  2  0  0  0  0  0  0
  -18.2080  -26.7900   22.1950 C   0  0  0  0  0  2  0  0  0  0  0  0
  -19.1470  -28.8900   23.3250 C   0  0  0  0  0  0  0  0  0  0  0  0
  -18.9240  -30.1420   23.9360 C   0  0  0  0  0  3  0  0  0  0  0  0
  -17.6170  -30.6370   24.1080 C   0  0  0  0  0  3  0  0  0  0  0  0
  -16.5160  -29.8780   23.6790 C   0  0  0  0  0  3  0  0  0  0  0  0
  -16.7220  -28.6250   23.0730 C   0  0  0  0  0  3  0  0  0  0  0  0
  -25.8760  -32.5490   23.8900 C   0  0  0  0  0  3  0  0  0  0  0  0
  -26.3630  -31.7900   25.1870 C   0  0  1  0  0  0  0  0  0  0  0  0
  -25.2460  -31.5710   26.2340 C   0  0  0  0  0  1  0  0  0  0  0  0
  -26.9480  -30.4050   24.8280 C   0  0  0  0  0  1  0  0  0  0  0  0
  -27.5000  -32.5880   25.8640 C   0  0  0  0  0  1  0  0  0  0  0  0
  -25.5610  -33.9520   24.2080 N   0  0  0  0  0  0  0  0  0  0  0  0
  -25.8840  -35.0020   23.4400 C   0  0  0  0  0  0  0  0  0  0  0  0
  -26.5460  -34.8920   22.4050 O   0  0  0  0  0  0  0  0  0  0  0  0
  -24.9700  -34.1110   25.0120 H   0  0  0  0  0  0  0  0  0  0  0  0
  -24.1490  -36.7940   23.0950 C   0  0  0  0  0  1  0  0  0  0  0  0
  -25.4000  -36.3920   23.8930 C   0  0  0  0  0  3  0  0  0  0  0  0
  -27.5410  -37.2960   24.6960 C   0  0  0  0  0  1  0  0  0  0  0  0
  -26.4310  -37.4470   23.7590 N   0  0  0  0  0  0  0  0  0  0  0  0
  -26.0220  -38.3690   23.8980 H   0  0  0  0  0  0  0  0  0  0  0  0
  1  6  1  0
  1  5  1  0
  3  2  1  0
  4  6  1  0
  4  5  1  0
  5  8  1  6
  5  2  1  0
  6 48  1  6
  6  3  1  0
  7  1  2  0
  8  9  2  0
 10 18  1  0
 11 16  1  0
 12 13  1  0
 12 11  1  0
 14 13  1  0
 14 23  1  0
 14 15  1  0
 16 10  1  0
 16 15  1  0
 17 10  2  0
 18 19  1  0
 18  9  1  0
 20 21  2  0
 21 40  1  0
 22 21  1  0
 22 25  1  0
 23 20  1  0
 23 24  1  0
 24 22  2  0
 25 26  1  0
 26 27  2  0
 28 31  1  0
 28 27  1  0
 29 28  2  0
 30 29  1  0
 30 25  2  0
 31 32  1  0
 32 33  1  0
 33 34  2  0
 35 34  1  0
 35 39  1  0
 36 35  2  0
 37 32  2  0
 37 36  1  0
 38 37  1  0
 40 41  1  0
 41 44  1  0
 41 43  1  0
 42 40  2  0
 45 46  1  0
 45 20  1  0
 47 45  1  0
 48 49  1  0
 50 61  2  0
 51 49  1  0
 51 56  1  0
 52 60  1  0
 52 62  1  0
 53 59  1  0
 53 55  1  0
 54 60  1  0
 55 56  2  0
 55 54  1  0
 57 58  1  0
 57 51  2  0
 58 53  2  0
 59 52  1  0
 60 50  1  0
 62 64  2  0
 63 62  1  0
 65 63  1  0
 66 75  2  0
 66 71  1  0
 67 63  1  0
 67 71  1  0
 68 67  1  0
 69 70  1  0
 69 68  1  0
 70 66  1  0
 71 72  2  0
 72 73  1  0
 74 73  2  0
 75 74  1  0
 76 50  1  0
 76 81  1  0
 76 77  1  0
 77 80  1  1
 77 78  1  0
 79 77  1  0
 81 84  1  0
 82 86  1  0
 82 81  1  0
 83 82  2  0
 86 85  1  0
 88 86  1  0
 88 89  1  0
 88 87  1  0
M  ISO  4  10 100  18 100  48 101  49 101
M  END
>  <TORSDO>  (35) 
F 19

>  <SCORE>  (35) 
-16.017

>  <name>  (35) 
34

>  <ligand_id>  (35) 
34

>  <original_smiles>  (35) 
[H]c1c([H])c([H])c2c(c1[H])C([H])([H])C([H])([H])C([H])([H])C2([H])N([H])C(=O)C1([H])N(C(=O)C([H])(N([H])C(=O)C([H])(N([H])C([H])([H])[H])C([H])([H])[H])C(C([H])([H])[H])(C([H])([H])[H])C([H])([H])[H])C([H])([H])c2c([H])c(OC([H])([H])C34C(=O)C(C([H])([H])C([H])([H])N([H])C(=O)N5C([H])([H])C([H])([H])C([H])([H])C([H])(n6nc(-c7c([H])c([H])c(Oc8c([H])c([H])c(F)c([H])c8F)c([H])c7[H])c(C(=O)N([H])[H])c6N([H])[H])C5([H])[H])(C([H])([H])C3([H])[H])C4([H])[H])c([H])c([H])c2C1([H])[H]

>  <smiles>  (35) 
[H]c1c([H])c([H])c2c(c1[H])C([H])([H])C([H])([H])C([H])([H])C2([H])N([H])C(=O)C1([H])N(C(=O)C([H])(N([H])C(=O)C([H])(N([H])C([H])([H])[H])C([H])([H])[H])C(C([H])([H])[H])(C([H])([H])[H])C([H])([H])[H])C([H])([H])c2c([H])c(OC([H])([H])C34C(=O)C(C([H])([H])C([H])([H])N([H])C(=O)N5C([H])([H])C([H])([H])C([H])([H])C([H])(n6nc(-c7c([H])c([H])c(Oc8c([H])c([H])c(F)c([H])c8F)c([H])c7[H])c(C(=O)N([H])[H])c6N([H])[H])C5([H])[H])(C([H])([H])C3([H])[H])C4([H])[H])c([H])c([H])c2C1([H])[H]

$$$$
35:0:0
     RDKit          3D

 89 94  0  0  1  0  0  0  0  0999 V2000
  -28.2230  -23.3430   19.9180 C   0  0  0  0  0  1  0  0  0  0  0  0
  -30.2250  -21.3940   20.9320 C   0  0  0  0  0  2  0  0  0  0  0  0
  -30.4180  -19.8660   21.1100 C   0  0  0  0  0  2  0  0  0  0  0  0
  -28.7560  -21.3620   20.4670 C   0  0  0  0  0  1  0  0  0  0  0  0
  -29.4690  -19.4530   19.9820 C   0  0  0  0  0  2  0  0  0  0  0  0
  -30.1240  -16.0910   20.1030 C   0  0  0  0  0  0  0  0  0  0  0  0
  -30.3140  -13.4610   19.3050 C   0  0  0  0  0  2  0  0  0  0  0  0
  -29.4370  -12.8900   18.1420 C   0  0  0  0  0  2  0  0  0  0  0  0
  -28.0580  -12.4470   18.6470 C   0  0  0  0  0  2  0  0  0  0  0  0
  -27.5180  -13.4620   19.6750 C   0  0  0  0  0  3  0  0  0  0  0  0
  -28.5510  -13.9170   20.7450 C   0  0  0  0  0  2  0  0  0  0  0  0
  -29.6420  -14.6610   20.0430 N   0  0  0  0  0  0  0  0  0  0  0  0
  -31.3560  -15.9660   19.9000 O   0  0  0  0  0  0  0  0  0  0  0  0
  -29.3820  -17.5590   20.2030 N   0  0  0  0  0  0  0  0  0  0  0  0
  -28.4120  -17.3340   20.3840 H   0  0  0  0  0  0  0  0  0  0  0  0
  -25.1880  -13.9460   20.5300 C   0  0  0  0  0  0  0  0  0  0  0  0
  -24.1440  -13.1540   20.9140 C   0  0  0  0  0  0  0  0  0  0  0  0
  -24.6200  -11.8080   20.8420 C   0  0  0  0  0  0  0  0  0  0  0  0
  -26.2280  -13.0880   20.2370 N   0  0  0  0  0  0  0  0  0  0  0  0
  -25.9040  -11.7900   20.4890 N   0  0  0  0  0  0  0  0  0  0  0  0
  -23.8980  -10.5410   21.0300 C   0  0  0  0  0  0  0  0  0  0  0  0
  -24.3440   -9.5630   21.9460 C   0  0  0  0  0  3  0  0  0  0  0  0
  -23.6170   -8.3650   22.1280 C   0  0  0  0  0  3  0  0  0  0  0  0
  -22.4310   -8.1370   21.3920 C   0  0  0  0  0  0  0  0  0  0  0  0
  -22.0030   -9.1030   20.4630 C   0  0  0  0  0  3  0  0  0  0  0  0
  -22.7300  -10.2900   20.2810 C   0  0  0  0  0  3  0  0  0  0  0  0
  -21.6750   -6.9920   21.4820 O   0  0  0  0  0  0  0  0  0  0  0  0
  -21.6320   -6.2470   22.6330 C   0  0  0  0  0  0  0  0  0  0  0  0
  -21.1800   -6.7880   23.8560 C   0  0  0  0  0  3  0  0  0  0  0  0
  -21.0860   -5.9680   24.9980 C   0  0  0  0  0  3  0  0  0  0  0  0
  -21.4340   -4.6060   24.9180 C   0  0  0  0  0  0  0  0  0  0  0  0
  -21.8790   -4.0630   23.7000 C   0  0  0  0  0  3  0  0  0  0  0  0
  -21.9740   -4.8800   22.5600 C   0  0  0  0  0  0  0  0  0  0  0  0
  -22.3830   -4.3470   21.3840 F   0  0  0  0  0  0  0  0  0  0  0  0
  -21.3370   -3.8160   26.0120 F   0  0  0  0  0  0  0  0  0  0  0  0
  -22.7530  -13.6230   21.2240 C   0  0  0  0  0  0  0  0  0  0  0  0
  -22.0460  -12.9160   22.0970 N   0  0  0  0  0  0  0  0  0  0  0  0
  -22.3040  -14.6550   20.7250 O   0  0  0  0  0  0  0  0  0  0  0  0
  -22.4250  -12.0840   22.5250 H   0  0  0  0  0  0  0  0  0  0  0  0
  -21.1110  -13.2130   22.3410 H   0  0  0  0  0  0  0  0  0  0  0  0
  -25.3360  -15.3210   20.3730 N   0  0  0  0  0  0  0  0  0  0  0  0
  -24.5670  -15.9660   20.5190 H   0  0  0  0  0  0  0  0  0  0  0  0
  -26.1650  -15.7660   20.0010 H   0  0  0  0  0  0  0  0  0  0  0  0
  -28.1090  -25.1930   20.3580 O   0  0  0  0  0  1  0  0  0  0  0  0
  -24.6610  -31.8330   23.1980 C   0  0  0  0  0  0  0  0  0  0  0  0
  -27.1760  -26.5260   20.2440 C   0  0  0  0  0  0  0  0  0  0  0  0
  -23.4820  -30.4170   21.5750 C   0  0  0  0  0  3  0  0  0  0  0  0
  -24.9310  -28.7180   20.1760 C   0  0  0  0  0  0  0  0  0  0  0  0
  -26.0710  -30.4880   21.4800 C   0  0  0  0  0  2  0  0  0  0  0  0
  -26.1300  -29.0280   20.8250 C   0  0  0  0  0  0  0  0  0  0  0  0
  -27.2190  -27.9650   20.8260 C   0  0  0  0  0  3  0  0  0  0  0  0
  -25.9390  -26.4950   19.5290 C   0  0  0  0  0  3  0  0  0  0  0  0
  -24.8890  -27.4820   19.5030 C   0  0  0  0  0  3  0  0  0  0  0  0
  -23.7320  -29.6970   20.2140 C   0  0  0  0  0  2  0  0  0  0  0  0
  -24.7650  -30.9530   22.1360 N   0  0  0  0  0  0  0  0  0  0  0  0
  -23.5630  -32.1450   23.6960 O   0  0  0  0  0  0  0  0  0  0  0  0
  -22.7470  -29.4660   22.5620 C   0  0  0  0  0  0  0  0  0  0  0  0
  -21.4130  -29.3140   22.4370 N   0  0  0  0  0  0  0  0  0  0  0  0
  -23.3960  -28.8570   23.4160 O   0  0  0  0  0  0  0  0  0  0  0  0
  -20.9360  -29.8530   21.7270 H   0  0  0  0  0  0  0  0  0  0  0  0
  -18.0290  -28.0740   22.9520 C   0  0  0  0  0  0  0  0  0  0  0  0
  -20.5870  -28.3830   23.2190 C   0  0  0  0  0  3  0  0  0  0  0  0
  -20.7070  -26.9420   22.6700 C   0  0  0  0  0  2  0  0  0  0  0  0
  -19.6160  -26.5910   21.6530 C   0  0  0  0  0  2  0  0  0  0  0  0
  -18.2280  -26.7220   22.2880 C   0  0  0  0  0  2  0  0  0  0  0  0
  -19.1360  -28.8610   23.3740 C   0  0  0  0  0  0  0  0  0  0  0  0
  -18.8910  -30.1210   23.9630 C   0  0  0  0  0  3  0  0  0  0  0  0
  -17.5750  -30.5960   24.1290 C   0  0  0  0  0  3  0  0  0  0  0  0
  -16.4860  -29.8070   23.7200 C   0  0  0  0  0  3  0  0  0  0  0  0
  -16.7130  -28.5480   23.1380 C   0  0  0  0  0  3  0  0  0  0  0  0
  -25.9130  -32.5030   23.8430 C   0  0  0  0  0  3  0  0  0  0  0  0
  -26.4020  -31.7660   25.1520 C   0  0  1  0  0  0  0  0  0  0  0  0
  -25.2880  -31.5560   26.2050 C   0  0  0  0  0  1  0  0  0  0  0  0
  -26.9930  -30.3770   24.8250 C   0  0  0  0  0  1  0  0  0  0  0  0
  -27.5420  -32.5760   25.8140 C   0  0  0  0  0  1  0  0  0  0  0  0
  -25.5820  -33.9090   24.1650 N   0  0  0  0  0  0  0  0  0  0  0  0
  -25.9000  -34.9740   23.4170 C   0  0  0  0  0  0  0  0  0  0  0  0
  -26.5540  -34.8780   22.3770 O   0  0  0  0  0  0  0  0  0  0  0  0
  -24.9940  -34.0540   24.9740 H   0  0  0  0  0  0  0  0  0  0  0  0
  -24.1540  -36.7720   23.1270 C   0  0  0  0  0  1  0  0  0  0  0  0
  -25.4220  -36.3650   23.8930 C   0  0  0  0  0  3  0  0  0  0  0  0
  -27.5730  -37.2760   24.6600 C   0  0  0  0  0  1  0  0  0  0  0  0
  -26.4450  -37.4250   23.7450 N   0  0  0  0  0  0  0  0  0  0  0  0
  -26.0360  -38.3440   23.8930 H   0  0  0  0  0  0  0  0  0  0  0  0
  -29.0000  -23.5330   18.6050 C   0  0  0  0  0  2  0  0  0  0  0  0
  -28.3480  -24.4780   17.6780 N   0  0  0  0  0  4  0  0  0  0  0  0
  -27.4780  -24.1070   17.3370 H   0  0  0  0  0  0  0  0  0  0  0  0
  -28.9400  -24.6580   16.8860 H   0  0  0  0  0  0  0  0  0  0  0  0
  -28.1740  -25.3490   18.1520 H   0  0  0  0  0  0  0  0  0  0  0  0
  2  3  1  0
  4  2  1  0
  5 14  1  0
  5  3  1  0
  6 14  1  0
  7 12  1  0
  8  9  1  0
  8  7  1  0
 10  9  1  0
 10 19  1  0
 10 11  1  0
 12  6  1  0
 12 11  1  0
 13  6  2  0
 14 15  1  0
 16 17  2  0
 17 36  1  0
 18 17  1  0
 18 21  1  0
 19 20  1  0
 19 16  1  0
 20 18  2  0
 21 22  1  0
 22 23  2  0
 24 27  1  0
 24 23  1  0
 25 24  2  0
 26 25  1  0
 26 21  2  0
 27 28  1  0
 28 29  1  0
 29 30  2  0
 31 30  1  0
 31 35  1  0
 32 31  2  0
 33 28  2  0
 33 32  1  0
 34 33  1  0
 36 37  1  0
 37 40  1  0
 37 39  1  0
 38 36  2  0
 41 42  1  0
 41 16  1  0
 43 41  1  0
 45 56  2  0
 46 44  1  0
 46 51  1  0
 47 55  1  0
 47 57  1  0
 48 54  1  0
 48 50  1  0
 49 55  1  0
 50 51  2  0
 50 49  1  0
 52 46  2  0
 53 52  1  0
 53 48  2  0
 54 47  1  0
 55 45  1  0
 57 59  2  0
 58 57  1  0
 60 58  1  0
 61 70  2  0
 61 66  1  0
 62 58  1  0
 62 66  1  0
 63 62  1  0
 64 65  1  0
 64 63  1  0
 65 61  1  0
 66 67  2  0
 67 68  1  0
 69 68  2  0
 70 69  1  0
 71 45  1  0
 71 76  1  0
 71 72  1  0
 72 75  1  1
 72 73  1  0
 74 72  1  0
 76 79  1  0
 77 81  1  0
 77 76  1  0
 78 77  2  0
 81 80  1  0
 83 84  1  0
 83 81  1  0
 83 82  1  0
 85  1  1  0
 86 89  1  0
 86 85  1  0
 87 86  1  0
 88 86  1  0
M  ISO  4   1 101   6 100  14 100  44 101
M  END
>  <TORSDO>  (36) 
F 19

>  <SCORE>  (36) 
-15.902

>  <name>  (36) 
35

>  <ligand_id>  (36) 
35

>  <original_smiles>  (36) 
[H]c1c([H])c([H])c2c(c1[H])C([H])([H])C([H])([H])C([H])([H])C2([H])N([H])C(=O)C1([H])N(C(=O)C([H])(N([H])C(=O)C([H])(N([H])C([H])([H])[H])C([H])([H])[H])C(C([H])([H])[H])(C([H])([H])[H])C([H])([H])[H])C([H])([H])c2c([H])c(OC([H])(C3([H])C([H])([H])C([H])([H])C3([H])N([H])C(=O)N3C([H])([H])C([H])([H])C([H])([H])C([H])(n4nc(-c5c([H])c([H])c(Oc6c([H])c([H])c(F)c([H])c6F)c([H])c5[H])c(C(=O)N([H])[H])c4N([H])[H])C3([H])[H])C([H])([H])[N+]([H])([H])[H])c([H])c([H])c2C1([H])[H]

>  <smiles>  (36) 
[H]c1c([H])c([H])c2c(c1[H])C([H])([H])C([H])([H])C([H])([H])C2([H])N([H])C(=O)C1([H])N(C(=O)C([H])(N([H])C(=O)C([H])(N([H])C([H])([H])[H])C([H])([H])[H])C(C([H])([H])[H])(C([H])([H])[H])C([H])([H])[H])C([H])([H])c2c([H])c(OC([H])(C3([H])C([H])([H])C([H])([H])C3([H])N([H])C(=O)N3C([H])([H])C([H])([H])C([H])([H])C([H])(n4nc(-c5c([H])c([H])c(Oc6c([H])c([H])c(F)c([H])c6F)c([H])c5[H])c(C(=O)N([H])[H])c4N([H])[H])C3([H])[H])C([H])([H])[N+]([H])([H])[H])c([H])c([H])c2C1([H])[H]

$$$$
36:0:0
     RDKit          3D

 89 98  0  0  1  0  0  0  0  0999 V2000
  -29.7250  -20.3920   20.1310 C   0  0  0  0  0  0  0  0  0  0  0  0
  -30.8030  -20.7490   19.6490 O   0  0  0  0  0  0  0  0  0  0  0  0
  -30.6250  -14.9680   19.9900 C   0  0  0  0  0  0  0  0  0  0  0  0
  -30.3470  -12.6710   18.9360 C   0  0  0  0  0  2  0  0  0  0  0  0
  -29.3290  -12.6650   17.7710 C   0  0  0  0  0  2  0  0  0  0  0  0
  -27.9050  -12.4320   18.3050 C   0  0  0  0  0  2  0  0  0  0  0  0
  -27.5890  -13.3190   19.5390 C   0  0  0  0  0  3  0  0  0  0  0  0
  -28.7280  -13.2960   20.5830 C   0  0  0  0  0  2  0  0  0  0  0  0
  -29.9440  -13.7460   19.8940 N   0  0  0  0  0  0  0  0  0  0  0  0
  -31.7980  -14.9500   19.5990 O   0  0  0  0  0  0  0  0  0  0  0  0
  -29.4730  -18.7960   20.2790 C   0  0  0  0  0  3  0  0  0  0  0  0
  -29.0210  -18.1690   21.3720 C   0  0  0  0  0  3  0  0  0  0  0  0
  -30.1980  -18.1960   22.3450 C   0  0  0  0  0  2  0  0  0  0  0  0
  -28.8470  -16.6450   21.0570 C   0  0  0  0  0  2  0  0  0  0  0  0
  -31.3750  -17.9240   21.3650 C   0  0  0  0  0  2  0  0  0  0  0  0
  -30.5850  -17.6820   20.0480 C   0  0  0  0  0  3  0  0  0  0  0  0
  -30.0010  -16.2490   20.2110 N   0  0  0  0  0  0  0  0  0  0  0  0
  -25.2670  -13.8700   20.4610 C   0  0  0  0  0  0  0  0  0  0  0  0
  -24.2310  -13.0840   20.8830 C   0  0  0  0  0  0  0  0  0  0  0  0
  -24.6900  -11.7350   20.7770 C   0  0  0  0  0  0  0  0  0  0  0  0
  -26.2900  -13.0020   20.1230 N   0  0  0  0  0  0  0  0  0  0  0  0
  -25.9570  -11.7090   20.3790 N   0  0  0  0  0  0  0  0  0  0  0  0
  -23.9740  -10.4670   20.9750 C   0  0  0  0  0  0  0  0  0  0  0  0
  -24.4360   -9.4910   21.8860 C   0  0  0  0  0  3  0  0  0  0  0  0
  -23.7180   -8.2900   22.0740 C   0  0  0  0  0  3  0  0  0  0  0  0
  -22.5230   -8.0570   21.3510 C   0  0  0  0  0  0  0  0  0  0  0  0
  -22.0790   -9.0220   20.4300 C   0  0  0  0  0  3  0  0  0  0  0  0
  -22.7970  -10.2150   20.2400 C   0  0  0  0  0  3  0  0  0  0  0  0
  -21.7720   -6.9100   21.4500 O   0  0  0  0  0  0  0  0  0  0  0  0
  -21.7200   -6.1840   22.6130 C   0  0  0  0  0  0  0  0  0  0  0  0
  -21.2950   -6.7570   23.8320 C   0  0  0  0  0  3  0  0  0  0  0  0
  -21.1880   -5.9560   24.9860 C   0  0  0  0  0  3  0  0  0  0  0  0
  -21.5000   -4.5850   24.9240 C   0  0  0  0  0  0  0  0  0  0  0  0
  -21.9200   -4.0120   23.7110 C   0  0  0  0  0  3  0  0  0  0  0  0
  -22.0270   -4.8090   22.5570 C   0  0  0  0  0  0  0  0  0  0  0  0
  -22.4120   -4.2480   21.3860 F   0  0  0  0  0  0  0  0  0  0  0  0
  -21.3900   -3.8130   26.0310 F   0  0  0  0  0  0  0  0  0  0  0  0
  -22.8570  -13.5550   21.2610 C   0  0  0  0  0  0  0  0  0  0  0  0
  -22.1950  -12.8480   22.1710 N   0  0  0  0  0  0  0  0  0  0  0  0
  -22.3810  -14.5850   20.7850 O   0  0  0  0  0  0  0  0  0  0  0  0
  -22.5950  -12.0160   22.5790 H   0  0  0  0  0  0  0  0  0  0  0  0
  -21.2760  -13.1480   22.4680 H   0  0  0  0  0  0  0  0  0  0  0  0
  -25.4150  -15.2450   20.3110 N   0  0  0  0  0  0  0  0  0  0  0  0
  -24.6460  -15.8860   20.4730 H   0  0  0  0  0  0  0  0  0  0  0  0
  -26.2180  -15.6880   19.8860 H   0  0  0  0  0  0  0  0  0  0  0  0
  -28.7220  -21.6660   20.4780 C   0  0  0  0  0  2  0  0  0  0  0  0
  -29.1140  -23.3090   20.2920 C   0  0  0  0  0  3  0  0  0  0  0  0
  -28.0400  -24.6080   20.1600 C   0  0  0  0  0  3  0  0  0  0  0  0
  -28.3280  -26.1450   20.2090 O   0  0  0  0  0  0  0  0  0  0  0  0
  -24.7050  -31.8190   23.2250 C   0  0  0  0  0  0  0  0  0  0  0  0
  -27.2650  -27.1250   20.1570 C   0  0  0  0  0  0  0  0  0  0  0  0
  -23.4930  -30.4300   21.5900 C   0  0  0  0  0  3  0  0  0  0  0  0
  -24.9340  -28.8670   20.1430 C   0  0  0  0  0  0  0  0  0  0  0  0
  -26.0470  -30.7040   21.4020 C   0  0  0  0  0  2  0  0  0  0  0  0
  -26.1200  -29.3150   20.7430 C   0  0  0  0  0  0  0  0  0  0  0  0
  -27.2870  -28.4610   20.7280 C   0  0  0  0  0  3  0  0  0  0  0  0
  -26.0520  -26.7790   19.5210 C   0  0  0  0  0  3  0  0  0  0  0  0
  -24.9150  -27.6150   19.5170 C   0  0  0  0  0  3  0  0  0  0  0  0
  -23.7050  -29.7630   20.2060 C   0  0  0  0  0  2  0  0  0  0  0  0
  -24.7700  -31.0050   22.1280 N   0  0  0  0  0  0  0  0  0  0  0  0
  -23.6230  -32.0980   23.7640 O   0  0  0  0  0  0  0  0  0  0  0  0
  -22.8280  -29.4150   22.5520 C   0  0  0  0  0  0  0  0  0  0  0  0
  -21.5000  -29.2330   22.4310 N   0  0  0  0  0  0  0  0  0  0  0  0
  -23.5070  -28.7910   23.3700 O   0  0  0  0  0  0  0  0  0  0  0  0
  -21.0080  -29.7910   21.7480 H   0  0  0  0  0  0  0  0  0  0  0  0
  -18.1310  -28.0050   22.9430 C   0  0  0  0  0  0  0  0  0  0  0  0
  -20.6880  -28.2880   23.2030 C   0  0  0  0  0  3  0  0  0  0  0  0
  -20.8000  -26.8560   22.6300 C   0  0  0  0  0  2  0  0  0  0  0  0
  -19.6970  -26.5240   21.6190 C   0  0  0  0  0  2  0  0  0  0  0  0
  -18.3170  -26.6570   22.2660 C   0  0  0  0  0  2  0  0  0  0  0  0
  -19.2430  -28.7780   23.3680 C   0  0  0  0  0  0  0  0  0  0  0  0
  -19.0140  -30.0370   23.9630 C   0  0  0  0  0  3  0  0  0  0  0  0
  -17.7040  -30.5240   24.1360 C   0  0  0  0  0  3  0  0  0  0  0  0
  -16.6060  -29.7500   23.7220 C   0  0  0  0  0  3  0  0  0  0  0  0
  -16.8200  -28.4920   23.1320 C   0  0  0  0  0  3  0  0  0  0  0  0
  -25.9870  -32.4560   23.8450 C   0  0  0  0  0  3  0  0  0  0  0  0
  -26.5170  -31.6750   25.1090 C   0  0  1  0  0  0  0  0  0  0  0  0
  -25.4320  -31.4240   26.1840 C   0  0  0  0  0  1  0  0  0  0  0  0
  -27.1010  -30.3030   24.7030 C   0  0  0  0  0  1  0  0  0  0  0  0
  -27.6690  -32.4670   25.7680 C   0  0  0  0  0  1  0  0  0  0  0  0
  -25.6690  -33.8490   24.1980 N   0  0  0  0  0  0  0  0  0  0  0  0
  -25.9790  -34.9170   23.4490 C   0  0  0  0  0  0  0  0  0  0  0  0
  -26.6270  -34.8330   22.4040 O   0  0  0  0  0  0  0  0  0  0  0  0
  -25.0920  -33.9870   25.0130 H   0  0  0  0  0  0  0  0  0  0  0  0
  -24.2280  -36.7030   23.1630 C   0  0  0  0  0  1  0  0  0  0  0  0
  -25.4930  -36.2960   23.9380 C   0  0  0  0  0  3  0  0  0  0  0  0
  -27.6420  -37.1880   24.7250 C   0  0  0  0  0  1  0  0  0  0  0  0
  -26.5140  -37.3580   23.8120 N   0  0  0  0  0  0  0  0  0  0  0  0
  -26.1040  -38.2740   23.9800 H   0  0  0  0  0  0  0  0  0  0  0  0
  1 46  1  0
  2  1  2  0
  3 17  1  0
  4  9  1  0
  5  6  1  0
  5  4  1  0
  7  6  1  0
  7 21  1  0
  7  8  1  0
  9  3  1  0
  9  8  1  0
 10  3  2  0
 11  1  1  0
 11 12  1  0
 12 14  1  0
 12 13  1  0
 15 13  1  0
 16 17  1  0
 16 11  1  0
 16 15  1  0
 17 14  1  0
 18 19  2  0
 19 38  1  0
 20 19  1  0
 20 23  1  0
 21 22  1  0
 21 18  1  0
 22 20  2  0
 23 24  1  0
 24 25  2  0
 26 29  1  0
 26 25  1  0
 27 26  2  0
 28 27  1  0
 28 23  2  0
 29 30  1  0
 30 31  1  0
 31 32  2  0
 33 32  1  0
 33 37  1  0
 34 33  2  0
 35 30  2  0
 35 34  1  0
 36 35  1  0
 38 39  1  0
 39 42  1  0
 39 41  1  0
 40 38  2  0
 43 18  1  0
 43 44  1  0
 45 43  1  0
 47 46  1  0
 48 49  1  0
 48 47  2  0
 50 61  2  0
 51 49  1  0
 51 56  1  0
 52 60  1  0
 52 62  1  0
 53 59  1  0
 53 55  1  0
 54 60  1  0
 55 54  1  0
 56 55  2  0
 57 51  2  0
 58 57  1  0
 58 53  2  0
 59 52  1  0
 60 50  1  0
 62 64  2  0
 63 62  1  0
 65 63  1  0
 66 75  2  0
 66 71  1  0
 67 63  1  0
 67 71  1  0
 68 67  1  0
 69 70  1  0
 69 68  1  0
 70 66  1  0
 71 72  2  0
 72 73  1  0
 74 73  2  0
 75 74  1  0
 76 50  1  0
 76 81  1  0
 76 77  1  0
 77 80  1  1
 77 78  1  0
 79 77  1  0
 81 84  1  0
 82 86  1  0
 82 81  1  0
 83 82  2  0
 86 85  1  0
 88 86  1  0
 88 89  1  0
 88 87  1  0
M  ISO  4   3 100  17 100  48 101  49 101
M  END
>  <TORSDO>  (37) 
F 19

>  <SCORE>  (37) 
-13.823

>  <name>  (37) 
36

>  <ligand_id>  (37) 
36

>  <original_smiles>  (37) 
[H]c1c([H])c([H])c2c(c1[H])C([H])([H])C([H])([H])C([H])([H])C2([H])N([H])C(=O)C1([H])N(C(=O)C([H])(N([H])C(=O)C([H])(N([H])C([H])([H])[H])C([H])([H])[H])C(C([H])([H])[H])(C([H])([H])[H])C([H])([H])[H])C([H])([H])c2c([H])c(OC([H])([H])C([H])([H])C([H])([H])C(=O)C3=C4C([H])([H])N(C(=O)N5C([H])([H])C([H])([H])C([H])([H])C([H])(n6nc(-c7c([H])c([H])c(Oc8c([H])c([H])c(F)c([H])c8F)c([H])c7[H])c(C(=O)N([H])[H])c6N([H])[H])C5([H])[H])C3([H])C([H])([H])C4([H])[H])c([H])c([H])c2C1([H])[H]

>  <smiles>  (37) 
[H]c1c([H])c([H])c2c(c1[H])C([H])([H])C([H])([H])C([H])([H])C2([H])N([H])C(=O)C1([H])N(C(=O)C([H])(N([H])C(=O)C([H])(N([H])C([H])([H])[H])C([H])([H])[H])C(C([H])([H])[H])(C([H])([H])[H])C([H])([H])[H])C([H])([H])c2c([H])c(OC([H])([H])C([H])([H])C([H])([H])C(=O)C3=C4C([H])([H])N(C(=O)N5C([H])([H])C([H])([H])C([H])([H])C([H])(n6nc(-c7c([H])c([H])c(Oc8c([H])c([H])c(F)c([H])c8F)c([H])c7[H])c(C(=O)N([H])[H])c6N([H])[H])C5([H])[H])C3([H])C([H])([H])C4([H])[H])c([H])c([H])c2C1([H])[H]

$$$$
37:0:0
     RDKit          3D

 93103  0  0  1  0  0  0  0  0999 V2000
  -29.1250  -20.9900   19.3720 C   0  0  0  0  0  2  0  0  0  0  0  0
  -31.6340  -20.5360   21.6870 C   0  0  0  0  0  2  0  0  0  0  0  0
  -30.1600  -20.3470   23.1600 C   0  0  0  0  0  2  0  0  0  0  0  0
  -29.8770  -18.7400   21.1550 C   0  0  0  0  0  3  0  0  0  0  0  0
  -30.8010  -19.3150   22.2420 C   0  0  2  0  0  0  0  0  0  0  0  0
  -30.1440  -21.0010   21.7790 C   0  0  1  0  0  0  0  0  0  0  0  0
  -29.2750  -20.2270   20.7910 C   0  0  0  0  0  3  0  0  0  0  0  0
  -31.4130  -15.2240   20.0040 C   0  0  0  0  0  0  0  0  0  0  0  0
  -31.1530  -12.9860   18.8930 C   0  0  0  0  0  2  0  0  0  0  0  0
  -30.1410  -13.1410   17.7360 C   0  0  0  0  0  2  0  0  0  0  0  0
  -28.6910  -12.9910   18.2390 C   0  0  0  0  0  2  0  0  0  0  0  0
  -28.4210  -13.7860   19.5440 C   0  0  0  0  0  3  0  0  0  0  0  0
  -29.5480  -13.6050   20.5810 C   0  0  0  0  0  2  0  0  0  0  0  0
  -30.7970  -13.9890   19.9290 N   0  0  0  0  0  0  0  0  0  0  0  0
  -32.5690  -15.3130   19.5880 O   0  0  0  0  0  0  0  0  0  0  0  0
  -30.8170  -17.7280   20.3150 C   0  0  0  0  0  0  0  0  0  0  0  0
  -30.6280  -16.3360   20.3910 N   0  0  0  0  0  0  0  0  0  0  0  0
  -31.7330  -18.2410   19.6680 O   0  0  0  0  0  0  0  0  0  0  0  0
  -29.7510  -16.0820   20.8080 H   0  0  0  0  0  0  0  0  0  0  0  0
  -26.1210  -14.4000   20.4730 C   0  0  0  0  0  0  0  0  0  0  0  0
  -25.0430  -13.6450   20.8570 C   0  0  0  0  0  0  0  0  0  0  0  0
  -25.4420  -12.2840   20.6940 C   0  0  0  0  0  0  0  0  0  0  0  0
  -27.1020  -13.5010   20.1010 N   0  0  0  0  0  0  0  0  0  0  0  0
  -26.7090  -12.2140   20.2980 N   0  0  0  0  0  0  0  0  0  0  0  0
  -24.6650  -11.0450   20.8450 C   0  0  0  0  0  0  0  0  0  0  0  0
  -25.0200  -10.0630   21.7970 C   0  0  0  0  0  3  0  0  0  0  0  0
  -24.2450   -8.8920   21.9410 C   0  0  0  0  0  3  0  0  0  0  0  0
  -23.1040   -8.6920   21.1280 C   0  0  0  0  0  0  0  0  0  0  0  0
  -22.7660   -9.6640   20.1680 C   0  0  0  0  0  3  0  0  0  0  0  0
  -23.5400  -10.8280   20.0250 C   0  0  0  0  0  3  0  0  0  0  0  0
  -22.3110   -7.5730   21.1740 O   0  0  0  0  0  0  0  0  0  0  0  0
  -22.0640   -6.9130   22.3510 C   0  0  0  0  0  0  0  0  0  0  0  0
  -21.4780   -7.5640   23.4590 C   0  0  0  0  0  3  0  0  0  0  0  0
  -21.1870   -6.8340   24.6300 C   0  0  0  0  0  3  0  0  0  0  0  0
  -21.4610   -5.4530   24.6870 C   0  0  0  0  0  0  0  0  0  0  0  0
  -22.0380   -4.8040   23.5810 C   0  0  0  0  0  3  0  0  0  0  0  0
  -22.3340   -5.5310   22.4150 C   0  0  0  0  0  0  0  0  0  0  0  0
  -22.8700   -4.8940   21.3450 F   0  0  0  0  0  0  0  0  0  0  0  0
  -21.1690   -4.7530   25.8070 F   0  0  0  0  0  0  0  0  0  0  0  0
  -23.6920  -14.1660   21.2520 C   0  0  0  0  0  0  0  0  0  0  0  0
  -22.9980  -13.4710   22.1510 N   0  0  0  0  0  0  0  0  0  0  0  0
  -23.2580  -15.2250   20.8000 O   0  0  0  0  0  0  0  0  0  0  0  0
  -23.3550  -12.6180   22.5510 H   0  0  0  0  0  0  0  0  0  0  0  0
  -22.0940  -13.8020   22.4560 H   0  0  0  0  0  0  0  0  0  0  0  0
  -26.3410  -15.7720   20.3860 N   0  0  0  0  0  0  0  0  0  0  0  0
  -25.6360  -16.4600   20.6300 H   0  0  0  0  0  0  0  0  0  0  0  0
  -27.1590  -16.1820   19.9560 H   0  0  0  0  0  0  0  0  0  0  0  0
  -29.2330  -22.5400   19.2510 N   0  0  0  0  0  4  0  0  0  0  0  0
  -30.0600  -22.8300   19.7510 H   0  0  0  0  0  0  0  0  0  0  0  0
  -29.4520  -22.6490   18.2710 H   0  0  0  0  0  0  0  0  0  0  0  0
  -28.1300  -23.6020   19.4800 C   0  0  0  0  0  2  0  0  0  0  0  0
  -28.3990  -25.0980   18.8710 C   0  0  0  0  0  2  0  0  0  0  0  0
  -28.3300  -26.4090   19.6040 O   0  0  0  0  0  0  0  0  0  0  0  0
  -24.7060  -31.6620   23.0710 C   0  0  0  0  0  0  0  0  0  0  0  0
  -27.2160  -27.2710   19.6270 C   0  0  0  0  0  0  0  0  0  0  0  0
  -23.4640  -30.3720   21.3690 C   0  0  0  0  0  3  0  0  0  0  0  0
  -24.8740  -28.9160   19.8030 C   0  0  0  0  0  0  0  0  0  0  0  0
  -26.0040  -30.6820   21.1570 C   0  0  0  0  0  2  0  0  0  0  0  0
  -26.0580  -29.3470   20.4120 C   0  0  0  0  0  0  0  0  0  0  0  0
  -27.2290  -28.5290   20.3220 C   0  0  0  0  0  3  0  0  0  0  0  0
  -26.0040  -26.8960   19.0100 C   0  0  0  0  0  3  0  0  0  0  0  0
  -24.8490  -27.6980   19.1040 C   0  0  0  0  0  3  0  0  0  0  0  0
  -23.6450  -29.7940   19.9390 C   0  0  0  0  0  2  0  0  0  0  0  0
  -24.7440  -30.9230   21.9220 N   0  0  0  0  0  0  0  0  0  0  0  0
  -23.6320  -31.9100   23.6410 O   0  0  0  0  0  0  0  0  0  0  0  0
  -22.8240  -29.2960   22.2770 C   0  0  0  0  0  0  0  0  0  0  0  0
  -21.4950  -29.1280   22.1730 N   0  0  0  0  0  0  0  0  0  0  0  0
  -23.5210  -28.6180   23.0370 O   0  0  0  0  0  0  0  0  0  0  0  0
  -20.9930  -29.7320   21.5330 H   0  0  0  0  0  0  0  0  0  0  0  0
  -18.1270  -27.8970   22.6620 C   0  0  0  0  0  0  0  0  0  0  0  0
  -20.6900  -28.1420   22.8990 C   0  0  0  0  0  3  0  0  0  0  0  0
  -20.7810  -26.7500   22.2290 C   0  0  0  0  0  2  0  0  0  0  0  0
  -19.6580  -26.4900   21.2220 C   0  0  0  0  0  2  0  0  0  0  0  0
  -18.2900  -26.5920   21.9020 C   0  0  0  0  0  2  0  0  0  0  0  0
  -19.2540  -28.6330   23.1160 C   0  0  0  0  0  0  0  0  0  0  0  0
  -19.0450  -29.8550   23.7910 C   0  0  0  0  0  3  0  0  0  0  0  0
  -17.7430  -30.3390   24.0190 C   0  0  0  0  0  3  0  0  0  0  0  0
  -16.6330  -29.6000   23.5770 C   0  0  0  0  0  3  0  0  0  0  0  0
  -16.8250  -28.3810   22.9040 C   0  0  0  0  0  3  0  0  0  0  0  0
  -26.0020  -32.2570   23.7040 C   0  0  0  0  0  3  0  0  0  0  0  0
  -26.5820  -31.3720   24.8740 C   0  0  1  0  0  0  0  0  0  0  0  0
  -25.5370  -31.0060   25.9530 C   0  0  0  0  0  1  0  0  0  0  0  0
  -27.1720  -30.0540   24.3230 C   0  0  0  0  0  1  0  0  0  0  0  0
  -27.7440  -32.1180   25.5670 C   0  0  0  0  0  1  0  0  0  0  0  0
  -25.6800  -33.6060   24.1900 N   0  0  0  0  0  0  0  0  0  0  0  0
  -25.9810  -34.7420   23.5470 C   0  0  0  0  0  0  0  0  0  0  0  0
  -26.6270  -34.7650   22.4950 O   0  0  0  0  0  0  0  0  0  0  0  0
  -25.1050  -33.6620   25.0180 H   0  0  0  0  0  0  0  0  0  0  0  0
  -24.2270  -36.5430   23.4280 C   0  0  0  0  0  1  0  0  0  0  0  0
  -25.4870  -36.0630   24.1670 C   0  0  0  0  0  3  0  0  0  0  0  0
  -27.6250  -36.8750   25.0600 C   0  0  0  0  0  1  0  0  0  0  0  0
  -26.5070  -37.1370   24.1580 N   0  0  0  0  0  0  0  0  0  0  0  0
  -26.0910  -38.0280   24.4150 H   0  0  0  0  0  0  0  0  0  0  0  0
  4 16  1  0
  4  5  1  0
  5  2  1  6
  5  3  1  0
  6  2  1  1
  6  5  1  0
  6  3  1  0
  7  1  1  0
  7  4  1  0
  7  6  1  0
  8 17  1  0
  9 14  1  0
 10 11  1  0
 10  9  1  0
 12 11  1  0
 12 23  1  0
 12 13  1  0
 14  8  1  0
 14 13  1  0
 15  8  2  0
 16 17  1  0
 17 19  1  0
 18 16  2  0
 20 21  2  0
 21 40  1  0
 22 25  1  0
 22 21  1  0
 23 24  1  0
 23 20  1  0
 24 22  2  0
 25 26  1  0
 26 27  2  0
 28 31  1  0
 28 27  1  0
 29 28  2  0
 30 29  1  0
 30 25  2  0
 31 32  1  0
 32 37  2  0
 32 33  1  0
 33 34  2  0
 34 35  1  0
 35 39  1  0
 36 35  2  0
 37 36  1  0
 38 37  1  0
 40 41  1  0
 41 44  1  0
 41 43  1  0
 42 40  2  0
 45 20  1  0
 45 46  1  0
 47 45  1  0
 48  1  1  0
 48 51  1  0
 48 49  1  0
 50 48  1  0
 52 51  1  0
 52 53  1  0
 53 55  1  0
 54 65  2  0
 55 60  1  0
 56 64  1  0
 56 66  1  0
 57 63  1  0
 57 59  1  0
 58 64  1  0
 59 58  1  0
 60 59  2  0
 61 62  1  0
 61 55  2  0
 62 57  2  0
 63 56  1  0
 64 54  1  0
 66 68  2  0
 67 66  1  0
 69 67  1  0
 70 79  2  0
 70 75  1  0
 71 67  1  0
 71 75  1  0
 72 71  1  0
 73 74  1  0
 73 72  1  0
 74 70  1  0
 75 76  2  0
 76 77  1  0
 78 77  2  0
 79 78  1  0
 80 54  1  0
 80 85  1  0
 80 81  1  0
 81 84  1  1
 81 82  1  0
 83 81  1  0
 85 88  1  0
 86 90  1  0
 86 85  1  0
 87 86  2  0
 90 89  1  0
 92 90  1  0
 92 93  1  0
 92 91  1  0
M  ISO  4   8 100  17 100  52 101  53 101
M  END
>  <TORSDO>  (38) 
F 20

>  <SCORE>  (38) 
-11.347

>  <name>  (38) 
37

>  <ligand_id>  (38) 
37

>  <original_smiles>  (38) 
[H]c1c([H])c([H])c2c(c1[H])C([H])([H])C([H])([H])C([H])([H])C2([H])N([H])C(=O)C1([H])N(C(=O)C([H])(N([H])C(=O)C([H])(N([H])C([H])([H])[H])C([H])([H])[H])C(C([H])([H])[H])(C([H])([H])[H])C([H])([H])[H])C([H])([H])c2c([H])c(OC([H])([H])C([H])([H])[N+]([H])([H])C([H])([H])C3([H])C([H])(C(=O)N([H])C(=O)N4C([H])([H])C([H])([H])C([H])([H])C([H])(n5nc(-c6c([H])c([H])c(Oc7c([H])c([H])c(F)c([H])c7F)c([H])c6[H])c(C(=O)N([H])[H])c5N([H])[H])C4([H])[H])C4([H])C([H])([H])C3([H])C4([H])[H])c([H])c([H])c2C1([H])[H]

>  <smiles>  (38) 
[H]c1c([H])c([H])c2c(c1[H])C([H])([H])C([H])([H])C([H])([H])C2([H])N([H])C(=O)C1([H])N(C(=O)C([H])(N([H])C(=O)C([H])(N([H])C([H])([H])[H])C([H])([H])[H])C(C([H])([H])[H])(C([H])([H])[H])C([H])([H])[H])C([H])([H])c2c([H])c(OC([H])([H])C([H])([H])[N+]([H])([H])C([H])([H])C3([H])C([H])(C(=O)N([H])C(=O)N4C([H])([H])C([H])([H])C([H])([H])C([H])(n5nc(-c6c([H])c([H])c(Oc7c([H])c([H])c(F)c([H])c7F)c([H])c6[H])c(C(=O)N([H])[H])c5N([H])[H])C4([H])[H])C4([H])C([H])([H])C3([H])C4([H])[H])c([H])c([H])c2C1([H])[H]

$$$$
38:0:0
     RDKit          3D

 87 96  0  0  1  0  0  0  0  0999 V2000
  -30.1110  -21.5940   18.0150 C   0  0  0  0  0  2  0  0  0  0  0  0
  -30.5160  -19.2660   19.1280 C   0  0  0  0  0  2  0  0  0  0  0  0
  -28.5150  -20.2960   20.3760 C   0  0  0  0  0  2  0  0  0  0  0  0
  -30.8860  -20.7930   19.0580 C   0  0  0  0  0  3  0  0  0  0  0  0
  -30.1040  -22.1080   19.4200 C   0  0  0  0  0  3  0  0  0  0  0  0
  -28.8500  -22.1440   20.2970 C   0  0  0  0  0  3  0  0  0  0  0  0
  -29.6360  -18.7910   20.3130 C   0  0  0  0  0  3  0  0  0  0  0  0
  -30.2370  -15.6660   20.2710 C   0  0  0  0  0  0  0  0  0  0  0  0
  -30.3490  -13.1300   19.4540 C   0  0  0  0  0  2  0  0  0  0  0  0
  -29.4670  -12.7300   18.2380 C   0  0  0  0  0  2  0  0  0  0  0  0
  -28.0410  -12.3730   18.6830 C   0  0  0  0  0  2  0  0  0  0  0  0
  -27.5190  -13.3710   19.7430 C   0  0  0  0  0  3  0  0  0  0  0  0
  -28.5410  -13.6850   20.8600 C   0  0  0  0  0  2  0  0  0  0  0  0
  -29.7160  -14.3030   20.2060 N   0  0  0  0  0  0  0  0  0  0  0  0
  -31.4720  -15.6130   20.1130 O   0  0  0  0  0  0  0  0  0  0  0  0
  -29.4700  -17.0190   20.3240 N   0  0  0  0  0  0  0  0  0  0  0  0
  -28.4890  -16.7910   20.4010 H   0  0  0  0  0  0  0  0  0  0  0  0
  -25.1470  -13.8790   20.4930 C   0  0  0  0  0  0  0  0  0  0  0  0
  -24.0940  -13.0860   20.8540 C   0  0  0  0  0  0  0  0  0  0  0  0
  -24.5820  -11.7430   20.8280 C   0  0  0  0  0  0  0  0  0  0  0  0
  -26.2030  -13.0200   20.2560 N   0  0  0  0  0  0  0  0  0  0  0  0
  -25.8770  -11.7280   20.5260 N   0  0  0  0  0  0  0  0  0  0  0  0
  -23.8680  -10.4710   21.0130 C   0  0  0  0  0  0  0  0  0  0  0  0
  -24.2930   -9.5150   21.9620 C   0  0  0  0  0  3  0  0  0  0  0  0
  -23.5740   -8.3130   22.1370 C   0  0  0  0  0  3  0  0  0  0  0  0
  -22.4170   -8.0580   21.3630 C   0  0  0  0  0  0  0  0  0  0  0  0
  -22.0130   -9.0020   20.4040 C   0  0  0  0  0  3  0  0  0  0  0  0
  -22.7320  -10.1960   20.2260 C   0  0  0  0  0  3  0  0  0  0  0  0
  -21.6720   -6.9060   21.4460 O   0  0  0  0  0  0  0  0  0  0  0  0
  -21.5970   -6.1790   22.6070 C   0  0  0  0  0  0  0  0  0  0  0  0
  -21.0940   -6.7360   23.8030 C   0  0  0  0  0  3  0  0  0  0  0  0
  -20.9690   -5.9340   24.9550 C   0  0  0  0  0  3  0  0  0  0  0  0
  -21.3370   -4.5760   24.9120 C   0  0  0  0  0  0  0  0  0  0  0  0
  -21.8330   -4.0180   23.7200 C   0  0  0  0  0  3  0  0  0  0  0  0
  -21.9590   -4.8180   22.5700 C   0  0  0  0  0  0  0  0  0  0  0  0
  -22.4170   -4.2690   21.4190 F   0  0  0  0  0  0  0  0  0  0  0  0
  -21.2110   -3.8030   26.0160 F   0  0  0  0  0  0  0  0  0  0  0  0
  -22.6880  -13.5460   21.1040 C   0  0  0  0  0  0  0  0  0  0  0  0
  -21.9610  -12.8500   21.9680 N   0  0  0  0  0  0  0  0  0  0  0  0
  -22.2450  -14.5620   20.5690 O   0  0  0  0  0  0  0  0  0  0  0  0
  -22.3330  -12.0290   22.4230 H   0  0  0  0  0  0  0  0  0  0  0  0
  -21.0170  -13.1410   22.1800 H   0  0  0  0  0  0  0  0  0  0  0  0
  -25.2880  -15.2510   20.3100 N   0  0  0  0  0  0  0  0  0  0  0  0
  -24.5070  -15.8910   20.4090 H   0  0  0  0  0  0  0  0  0  0  0  0
  -26.1220  -15.6970   19.9530 H   0  0  0  0  0  0  0  0  0  0  0  0
  -27.8930  -23.8290   20.1420 C   0  0  0  0  0  2  0  0  0  0  0  0
  -28.0840  -25.5730   20.2360 O   0  0  0  0  0  0  0  0  0  0  0  0
  -24.5870  -31.8340   23.1980 C   0  0  0  0  0  0  0  0  0  0  0  0
  -27.1040  -26.7730   20.1930 C   0  0  0  0  0  0  0  0  0  0  0  0
  -23.3910  -30.4370   21.5670 C   0  0  0  0  0  3  0  0  0  0  0  0
  -24.8320  -28.7930   20.1470 C   0  0  0  0  0  0  0  0  0  0  0  0
  -25.9680  -30.5870   21.4300 C   0  0  0  0  0  2  0  0  0  0  0  0
  -26.0300  -29.1550   20.7730 C   0  0  0  0  0  0  0  0  0  0  0  0
  -27.1510  -28.1740   20.7620 C   0  0  0  0  0  3  0  0  0  0  0  0
  -25.8700  -26.6150   19.5140 C   0  0  0  0  0  3  0  0  0  0  0  0
  -24.7890  -27.5490   19.4930 C   0  0  0  0  0  3  0  0  0  0  0  0
  -23.6230  -29.7410   20.1950 C   0  0  0  0  0  2  0  0  0  0  0  0
  -24.6730  -30.9840   22.1170 N   0  0  0  0  0  0  0  0  0  0  0  0
  -23.4960  -32.1320   23.7150 O   0  0  0  0  0  0  0  0  0  0  0  0
  -22.6810  -29.4580   22.5410 C   0  0  0  0  0  0  0  0  0  0  0  0
  -21.3490  -29.3000   22.4190 N   0  0  0  0  0  0  0  0  0  0  0  0
  -23.3410  -28.8370   23.3780 O   0  0  0  0  0  0  0  0  0  0  0  0
  -20.8660  -29.8500   21.7230 H   0  0  0  0  0  0  0  0  0  0  0  0
  -17.9660  -28.0820   22.9440 C   0  0  0  0  0  0  0  0  0  0  0  0
  -20.5260  -28.3630   23.1960 C   0  0  0  0  0  3  0  0  0  0  0  0
  -20.6300  -26.9290   22.6250 C   0  0  0  0  0  2  0  0  0  0  0  0
  -19.5270  -26.6000   21.6160 C   0  0  0  0  0  2  0  0  0  0  0  0
  -18.1460  -26.7360   22.2640 C   0  0  0  0  0  2  0  0  0  0  0  0
  -19.0810  -28.8530   23.3670 C   0  0  0  0  0  0  0  0  0  0  0  0
  -18.8550  -30.1100   23.9700 C   0  0  0  0  0  3  0  0  0  0  0  0
  -17.5460  -30.5970   24.1490 C   0  0  0  0  0  3  0  0  0  0  0  0
  -16.4460  -29.8260   23.7390 C   0  0  0  0  0  3  0  0  0  0  0  0
  -16.6560  -28.5690   23.1430 C   0  0  0  0  0  3  0  0  0  0  0  0
  -25.8530  -32.4840   23.8320 C   0  0  0  0  0  3  0  0  0  0  0  0
  -25.5320  -33.8860   24.1680 N   0  0  0  0  0  0  0  0  0  0  0  0
  -25.8560  -34.9520   23.4230 C   0  0  0  0  0  0  0  0  0  0  0  0
  -26.5140  -34.8590   22.3850 O   0  0  0  0  0  0  0  0  0  0  0  0
  -24.9440  -34.0290   24.9760 H   0  0  0  0  0  0  0  0  0  0  0  0
  -24.1240  -36.7580   23.1220 C   0  0  0  0  0  1  0  0  0  0  0  0
  -25.3800  -36.3400   23.9050 C   0  0  0  0  0  3  0  0  0  0  0  0
  -27.5250  -37.2280   24.7100 C   0  0  0  0  0  1  0  0  0  0  0  0
  -26.4110  -37.3950   23.7800 N   0  0  0  0  0  0  0  0  0  0  0  0
  -26.0060  -38.3150   23.9330 H   0  0  0  0  0  0  0  0  0  0  0  0
  -26.3540  -31.7270   25.1260 C   0  0  1  0  0  0  0  0  0  0  0  0
  -25.2510  -31.5070   26.1880 C   0  0  0  0  0  1  0  0  0  0  0  0
  -26.9360  -30.3420   24.7680 C   0  0  0  0  0  1  0  0  0  0  0  0
  -27.5020  -32.5250   25.7880 C   0  0  0  0  0  1  0  0  0  0  0  0
  2  7  1  0
  4  1  1  0
  4  2  1  0
  4  5  1  0
  5  1  1  0
  5  6  1  0
  6 46  1  0
  6  3  1  0
  7 16  1  0
  7  3  1  0
  8 16  1  0
  9 14  1  0
 10 11  1  0
 10  9  1  0
 12 11  1  0
 12 21  1  0
 12 13  1  0
 14  8  1  0
 14 13  1  0
 15  8  2  0
 16 17  1  0
 18 19  2  0
 19 38  1  0
 20 19  1  0
 20 23  1  0
 21 18  1  0
 21 22  1  0
 22 20  2  0
 23 24  1  0
 24 25  2  0
 26 29  1  0
 26 25  1  0
 27 26  2  0
 28 27  1  0
 28 23  2  0
 29 30  1  0
 30 31  1  0
 31 32  2  0
 33 32  1  0
 33 37  1  0
 34 33  2  0
 35 30  2  0
 35 34  1  0
 36 35  1  0
 38 39  1  0
 39 42  1  0
 39 41  1  0
 40 38  2  0
 43 44  1  0
 43 18  1  0
 45 43  1  0
 46 47  1  0
 48 59  2  0
 49 47  1  0
 49 54  1  0
 50 58  1  0
 50 60  1  0
 51 57  1  0
 51 53  1  0
 52 58  1  0
 53 52  1  0
 54 53  2  0
 55 49  2  0
 56 55  1  0
 56 51  2  0
 57 50  1  0
 58 48  1  0
 60 62  2  0
 61 60  1  0
 63 61  1  0
 64 73  2  0
 64 69  1  0
 65 61  1  0
 65 69  1  0
 66 65  1  0
 67 68  1  0
 67 66  1  0
 68 64  1  0
 69 70  2  0
 70 71  1  0
 72 71  2  0
 73 72  1  0
 74 48  1  0
 74 75  1  0
 74 84  1  0
 75 78  1  0
 76 80  1  0
 76 75  1  0
 77 76  2  0
 80 79  1  0
 82 80  1  0
 82 83  1  0
 82 81  1  0
 84 87  1  1
 84 85  1  0
 86 84  1  0
M  ISO  4   8 100  16 100  46 101  47 101
M  END
>  <TORSDO>  (39) 
F 17

>  <SCORE>  (39) 
-16.456

>  <name>  (39) 
38

>  <ligand_id>  (39) 
38

>  <original_smiles>  (39) 
[H]c1c([H])c([H])c2c(c1[H])C([H])([H])C([H])([H])C([H])([H])C2([H])N([H])C(=O)C1([H])N(C(=O)C([H])(N([H])C(=O)C([H])(N([H])C([H])([H])[H])C([H])([H])[H])C(C([H])([H])[H])(C([H])([H])[H])C([H])([H])[H])C([H])([H])c2c([H])c(OC([H])([H])C3([H])C([H])([H])C([H])(N([H])C(=O)N4C([H])([H])C([H])([H])C([H])([H])C([H])(n5nc(-c6c([H])c([H])c(Oc7c([H])c([H])c(F)c([H])c7F)c([H])c6[H])c(C(=O)N([H])[H])c5N([H])[H])C4([H])[H])C([H])([H])C4([H])C([H])([H])C34[H])c([H])c([H])c2C1([H])[H]

>  <smiles>  (39) 
[H]c1c([H])c([H])c2c(c1[H])C([H])([H])C([H])([H])C([H])([H])C2([H])N([H])C(=O)C1([H])N(C(=O)C([H])(N([H])C(=O)C([H])(N([H])C([H])([H])[H])C([H])([H])[H])C(C([H])([H])[H])(C([H])([H])[H])C([H])([H])[H])C([H])([H])c2c([H])c(OC([H])([H])C3([H])C([H])([H])C([H])(N([H])C(=O)N4C([H])([H])C([H])([H])C([H])([H])C([H])(n5nc(-c6c([H])c([H])c(Oc7c([H])c([H])c(F)c([H])c7F)c([H])c6[H])c(C(=O)N([H])[H])c5N([H])[H])C4([H])[H])C([H])([H])C4([H])C([H])([H])C34[H])c([H])c([H])c2C1([H])[H]

$$$$
39:0:0
     RDKit          3D

 94103  0  0  1  0  0  0  0  0999 V2000
  -30.8930  -20.0840   21.6230 C   0  0  0  0  0  2  0  0  0  0  0  0
  -30.7320  -18.5100   21.6250 C   0  0  0  0  0  2  0  0  0  0  0  0
  -28.1870  -20.3830   20.3760 C   0  0  0  0  0  2  0  0  0  0  0  0
  -29.3800  -19.4540   19.8080 C   0  0  0  0  0  3  0  0  0  0  0  0
  -30.1770  -20.6810   20.3900 C   0  0  0  0  0  3  0  0  0  0  0  0
  -30.2080  -18.0080   20.2440 C   0  0  2  0  0  0  0  0  0  0  0  0
  -29.0100  -21.6340   20.6830 N   0  0  1  0  0  4  0  0  0  0  0  0
  -28.9870  -21.7890   21.6810 H   0  0  0  0  0  0  0  0  0  0  0  0
  -30.5020  -15.1680   20.1970 C   0  0  0  0  0  0  0  0  0  0  0  0
  -30.3740  -12.7920   19.2470 C   0  0  0  0  0  2  0  0  0  0  0  0
  -29.4200  -12.6790   18.0350 C   0  0  0  0  0  2  0  0  0  0  0  0
  -27.9750  -12.4360   18.5020 C   0  0  0  0  0  2  0  0  0  0  0  0
  -27.5720  -13.3680   19.6750 C   0  0  0  0  0  3  0  0  0  0  0  0
  -28.6510  -13.4480   20.7750 C   0  0  0  0  0  2  0  0  0  0  0  0
  -29.8830  -13.9070   20.1210 N   0  0  0  0  0  0  0  0  0  0  0  0
  -31.7220  -15.1400   19.9970 O   0  0  0  0  0  0  0  0  0  0  0  0
  -29.7750  -16.4330   20.2850 N   0  0  0  0  0  0  0  0  0  0  0  0
  -28.7800  -16.3030   20.3690 H   0  0  0  0  0  0  0  0  0  0  0  0
  -25.2080  -13.9200   20.4640 C   0  0  0  0  0  0  0  0  0  0  0  0
  -24.1570  -13.1360   20.8490 C   0  0  0  0  0  0  0  0  0  0  0  0
  -24.6320  -11.7890   20.8110 C   0  0  0  0  0  0  0  0  0  0  0  0
  -26.2530  -13.0510   20.2050 N   0  0  0  0  0  0  0  0  0  0  0  0
  -25.9190  -11.7640   20.4830 N   0  0  0  0  0  0  0  0  0  0  0  0
  -23.9170  -10.5210   21.0080 C   0  0  0  0  0  0  0  0  0  0  0  0
  -24.3590   -9.5590   21.9430 C   0  0  0  0  0  3  0  0  0  0  0  0
  -23.6390   -8.3590   22.1300 C   0  0  0  0  0  3  0  0  0  0  0  0
  -22.4640   -8.1120   21.3820 C   0  0  0  0  0  0  0  0  0  0  0  0
  -22.0400   -9.0630   20.4380 C   0  0  0  0  0  3  0  0  0  0  0  0
  -22.7600  -10.2540   20.2490 C   0  0  0  0  0  3  0  0  0  0  0  0
  -21.7150   -6.9620   21.4790 O   0  0  0  0  0  0  0  0  0  0  0  0
  -21.6730   -6.2270   22.6360 C   0  0  0  0  0  0  0  0  0  0  0  0
  -21.2340   -6.7830   23.8570 C   0  0  0  0  0  3  0  0  0  0  0  0
  -21.1400   -5.9730   25.0060 C   0  0  0  0  0  3  0  0  0  0  0  0
  -21.4730   -4.6060   24.9350 C   0  0  0  0  0  0  0  0  0  0  0  0
  -21.9050   -4.0500   23.7200 C   0  0  0  0  0  3  0  0  0  0  0  0
  -22.0020   -4.8580   22.5720 C   0  0  0  0  0  0  0  0  0  0  0  0
  -22.3970   -4.3110   21.3970 F   0  0  0  0  0  0  0  0  0  0  0  0
  -21.3760   -3.8270   26.0370 F   0  0  0  0  0  0  0  0  0  0  0  0
  -22.7600  -13.6030   21.1340 C   0  0  0  0  0  0  0  0  0  0  0  0
  -22.0460  -12.9000   22.0050 N   0  0  0  0  0  0  0  0  0  0  0  0
  -22.3130  -14.6280   20.6220 O   0  0  0  0  0  0  0  0  0  0  0  0
  -22.4210  -12.0700   22.4390 H   0  0  0  0  0  0  0  0  0  0  0  0
  -21.1080  -13.1950   22.2410 H   0  0  0  0  0  0  0  0  0  0  0  0
  -25.3550  -15.2910   20.2820 N   0  0  0  0  0  0  0  0  0  0  0  0
  -24.5770  -15.9320   20.3980 H   0  0  0  0  0  0  0  0  0  0  0  0
  -26.1790  -15.7380   19.9000 H   0  0  0  0  0  0  0  0  0  0  0  0
  -31.3530  -18.0180   19.1930 C   0  0  0  0  0  0  0  0  0  0  0  0
  -31.0300  -17.6220   17.9670 N   0  0  0  0  0  0  0  0  0  0  0  0
  -32.4990  -18.3750   19.4580 O   0  0  0  0  0  0  0  0  0  0  0  0
  -30.0810  -17.3390   17.7670 H   0  0  0  0  0  0  0  0  0  0  0  0
  -31.7180  -17.6160   17.2280 H   0  0  0  0  0  0  0  0  0  0  0  0
  -28.9060  -23.1070   19.9930 C   0  0  0  0  0  2  0  0  0  0  0  0
  -28.0600  -24.5150   20.5570 C   0  0  0  0  0  2  0  0  0  0  0  0
  -28.2820  -26.0810   20.2750 O   0  0  0  0  0  0  0  0  0  0  0  0
  -24.6330  -31.8880   23.2370 C   0  0  0  0  0  0  0  0  0  0  0  0
  -27.2300  -27.0970   20.2550 C   0  0  0  0  0  0  0  0  0  0  0  0
  -23.4480  -30.4780   21.6030 C   0  0  0  0  0  3  0  0  0  0  0  0
  -24.9080  -28.8880   20.1970 C   0  0  0  0  0  0  0  0  0  0  0  0
  -26.0060  -30.7330   21.4500 C   0  0  0  0  0  2  0  0  0  0  0  0
  -26.0880  -29.3270   20.8090 C   0  0  0  0  0  0  0  0  0  0  0  0
  -27.2510  -28.4520   20.8120 C   0  0  0  0  0  3  0  0  0  0  0  0
  -26.0230  -26.7800   19.5980 C   0  0  0  0  0  3  0  0  0  0  0  0
  -24.8930  -27.6320   19.5730 C   0  0  0  0  0  3  0  0  0  0  0  0
  -23.6810  -29.7910   20.2310 C   0  0  0  0  0  2  0  0  0  0  0  0
  -24.7170  -31.0560   22.1520 N   0  0  0  0  0  0  0  0  0  0  0  0
  -23.5420  -32.1690   23.7590 O   0  0  0  0  0  0  0  0  0  0  0  0
  -22.7680  -29.4750   22.5690 C   0  0  0  0  0  0  0  0  0  0  0  0
  -21.4390  -29.2990   22.4440 N   0  0  0  0  0  0  0  0  0  0  0  0
  -23.4390  -28.8580   23.4010 O   0  0  0  0  0  0  0  0  0  0  0  0
  -20.9500  -29.8520   21.7530 H   0  0  0  0  0  0  0  0  0  0  0  0
  -18.0630  -28.0810   22.9550 C   0  0  0  0  0  0  0  0  0  0  0  0
  -20.6200  -28.3600   23.2180 C   0  0  0  0  0  3  0  0  0  0  0  0
  -20.7290  -26.9260   22.6490 C   0  0  0  0  0  2  0  0  0  0  0  0
  -19.6280  -26.5920   21.6370 C   0  0  0  0  0  2  0  0  0  0  0  0
  -18.2460  -26.7320   22.2800 C   0  0  0  0  0  2  0  0  0  0  0  0
  -19.1770  -28.8530   23.3800 C   0  0  0  0  0  0  0  0  0  0  0  0
  -18.9480  -30.1130   23.9740 C   0  0  0  0  0  3  0  0  0  0  0  0
  -17.6400  -30.6040   24.1410 C   0  0  0  0  0  3  0  0  0  0  0  0
  -16.5410  -29.8310   23.7300 C   0  0  0  0  0  3  0  0  0  0  0  0
  -16.7530  -28.5710   23.1430 C   0  0  0  0  0  3  0  0  0  0  0  0
  -25.9020  -32.5380   23.8660 C   0  0  0  0  0  3  0  0  0  0  0  0
  -26.4080  -31.7850   25.1580 C   0  0  1  0  0  0  0  0  0  0  0  0
  -25.3060  -31.5560   26.2180 C   0  0  0  0  0  1  0  0  0  0  0  0
  -26.9990  -30.4060   24.7960 C   0  0  0  0  0  1  0  0  0  0  0  0
  -27.5490  -32.5940   25.8220 C   0  0  0  0  0  1  0  0  0  0  0  0
  -25.5790  -33.9380   24.1860 N   0  0  0  0  0  0  0  0  0  0  0  0
  -25.9130  -34.9940   23.4320 C   0  0  0  0  0  0  0  0  0  0  0  0
  -26.5920  -34.8930   22.4070 O   0  0  0  0  0  0  0  0  0  0  0  0
  -24.9730  -34.0880   24.9800 H   0  0  0  0  0  0  0  0  0  0  0  0
  -24.1890  -36.7920   23.0650 C   0  0  0  0  0  1  0  0  0  0  0  0
  -25.4210  -36.3830   23.8880 C   0  0  0  0  0  3  0  0  0  0  0  0
  -27.5450  -37.2730   24.7440 C   0  0  0  0  0  1  0  0  0  0  0  0
  -26.4530  -37.4370   23.7860 N   0  0  0  0  0  0  0  0  0  0  0  0
  -26.0450  -38.3560   23.9330 H   0  0  0  0  0  0  0  0  0  0  0  0
  1  2  1  0
  3  7  1  0
  4  6  1  0
  4  3  1  0
  4  5  1  0
  5  7  1  0
  5  1  1  0
  6 47  1  0
  6 17  1  1
  6  2  1  0
  7  8  1  1
  9 17  1  0
 10 15  1  0
 11 12  1  0
 11 10  1  0
 13 12  1  0
 13 22  1  0
 13 14  1  0
 15  9  1  0
 15 14  1  0
 16  9  2  0
 17 18  1  0
 19 20  2  0
 20 39  1  0
 21 20  1  0
 21 24  1  0
 22 19  1  0
 22 23  1  0
 23 21  2  0
 24 25  1  0
 25 26  2  0
 27 30  1  0
 27 26  1  0
 28 27  2  0
 29 28  1  0
 29 24  2  0
 30 31  1  0
 31 32  1  0
 32 33  2  0
 34 33  1  0
 34 38  1  0
 35 34  2  0
 36 31  2  0
 36 35  1  0
 37 36  1  0
 39 40  1  0
 40 43  1  0
 40 42  1  0
 41 39  2  0
 44 45  1  0
 44 19  1  0
 46 44  1  0
 47 49  2  0
 48 47  1  0
 50 48  1  0
 51 48  1  0
 52 53  1  0
 52  7  1  0
 54 53  1  0
 55 66  2  0
 56 54  1  0
 56 61  1  0
 57 65  1  0
 57 67  1  0
 58 64  1  0
 58 60  1  0
 59 65  1  0
 60 61  2  0
 60 59  1  0
 62 56  2  0
 63 62  1  0
 63 58  2  0
 64 57  1  0
 65 55  1  0
 67 69  2  0
 68 67  1  0
 70 68  1  0
 71 80  2  0
 71 76  1  0
 72 68  1  0
 72 76  1  0
 73 72  1  0
 74 75  1  0
 74 73  1  0
 75 71  1  0
 76 77  2  0
 77 78  1  0
 79 78  2  0
 80 79  1  0
 81 55  1  0
 81 86  1  0
 81 82  1  0
 82 85  1  1
 82 83  1  0
 84 82  1  0
 86 89  1  0
 87 91  1  0
 87 86  1  0
 88 87  2  0
 91 90  1  0
 93 91  1  0
 93 94  1  0
 93 92  1  0
M  ISO  4   9 100  17 100  53 101  54 101
M  END
>  <TORSDO>  (40) 
F 19

>  <SCORE>  (40) 
-15.329

>  <name>  (40) 
39

>  <ligand_id>  (40) 
39

>  <original_smiles>  (40) 
[H]c1c([H])c([H])c2c(c1[H])C([H])([H])C([H])([H])C([H])([H])C2([H])N([H])C(=O)C1([H])N(C(=O)C([H])(N([H])C(=O)C([H])(N([H])C([H])([H])[H])C([H])([H])[H])C(C([H])([H])[H])(C([H])([H])[H])C([H])([H])[H])C([H])([H])c2c([H])c(OC([H])([H])C([H])([H])[N+]3([H])C([H])([H])C4([H])C(C(=O)N([H])[H])(N([H])C(=O)N5C([H])([H])C([H])([H])C([H])([H])C([H])(n6nc(-c7c([H])c([H])c(Oc8c([H])c([H])c(F)c([H])c8F)c([H])c7[H])c(C(=O)N([H])[H])c6N([H])[H])C5([H])[H])C([H])([H])C([H])([H])C43[H])c([H])c([H])c2C1([H])[H]

>  <smiles>  (40) 
[H]c1c([H])c([H])c2c(c1[H])C([H])([H])C([H])([H])C([H])([H])C2([H])N([H])C(=O)C1([H])N(C(=O)C([H])(N([H])C(=O)C([H])(N([H])C([H])([H])[H])C([H])([H])[H])C(C([H])([H])[H])(C([H])([H])[H])C([H])([H])[H])C([H])([H])c2c([H])c(OC([H])([H])C([H])([H])[N+]3([H])C([H])([H])C4([H])C(C(=O)N([H])[H])(N([H])C(=O)N5C([H])([H])C([H])([H])C([H])([H])C([H])(n6nc(-c7c([H])c([H])c(Oc8c([H])c([H])c(F)c([H])c8F)c([H])c7[H])c(C(=O)N([H])[H])c6N([H])[H])C5([H])[H])C([H])([H])C([H])([H])C43[H])c([H])c([H])c2C1([H])[H]

$$$$
40:0:0
     RDKit          3D

 89 98  0  0  1  0  0  0  0  0999 V2000
  -28.1480  -21.1920   21.7090 C   0  0  0  0  0  2  0  0  0  0  0  0
  -30.2920  -20.9630   20.7700 C   0  0  0  0  0  2  0  0  0  0  0  0
  -28.0840  -21.8340   19.4270 C   0  0  0  0  0  2  0  0  0  0  0  0
  -29.2810  -22.1670   21.3130 C   0  0  0  0  0  3  0  0  0  0  0  0
  -28.1490  -20.4460   20.3530 C   0  0  0  0  0  3  0  0  0  0  0  0
  -29.4980  -19.5560   20.5940 C   0  0  0  0  0  3  0  0  0  0  0  0
  -28.5370  -23.1630   20.2540 C   0  0  0  0  0  3  0  0  0  0  0  0
  -27.7670  -24.5590   20.5110 N   0  0  0  0  0  0  0  0  0  0  0  0
  -26.8170  -24.4950   20.1540 H   0  0  0  0  0  0  0  0  0  0  0  0
  -28.2620  -26.0860   20.1760 O   0  0  0  0  0  0  0  0  0  0  0  0
  -24.6690  -31.9350   23.2360 C   0  0  0  0  0  0  0  0  0  0  0  0
  -27.2330  -27.1390   20.1870 C   0  0  0  0  0  0  0  0  0  0  0  0
  -23.4640  -30.5300   21.6070 C   0  0  0  0  0  3  0  0  0  0  0  0
  -24.9100  -28.9400   20.1770 C   0  0  0  0  0  0  0  0  0  0  0  0
  -26.0230  -30.7750   21.4330 C   0  0  0  0  0  2  0  0  0  0  0  0
  -26.0970  -29.3700   20.7830 C   0  0  0  0  0  0  0  0  0  0  0  0
  -27.2560  -28.4840   20.7760 C   0  0  0  0  0  3  0  0  0  0  0  0
  -26.0200  -26.8460   19.5270 C   0  0  0  0  0  3  0  0  0  0  0  0
  -24.8890  -27.6950   19.5340 C   0  0  0  0  0  3  0  0  0  0  0  0
  -23.6820  -29.8450   20.2310 C   0  0  0  0  0  2  0  0  0  0  0  0
  -24.7390  -31.1070   22.1460 N   0  0  0  0  0  0  0  0  0  0  0  0
  -23.5830  -32.2190   23.7650 O   0  0  0  0  0  0  0  0  0  0  0  0
  -22.7880  -29.5320   22.5790 C   0  0  0  0  0  0  0  0  0  0  0  0
  -21.4600  -29.3480   22.4530 N   0  0  0  0  0  0  0  0  0  0  0  0
  -23.4630  -28.9210   23.4100 O   0  0  0  0  0  0  0  0  0  0  0  0
  -20.9770  -29.8790   21.7430 H   0  0  0  0  0  0  0  0  0  0  0  0
  -18.0950  -28.0980   22.9570 C   0  0  0  0  0  0  0  0  0  0  0  0
  -20.6510  -28.4040   23.2260 C   0  0  0  0  0  3  0  0  0  0  0  0
  -20.7810  -26.9700   22.6600 C   0  0  0  0  0  2  0  0  0  0  0  0
  -19.6770  -26.6010   21.6600 C   0  0  0  0  0  2  0  0  0  0  0  0
  -18.2920  -26.7450   22.2940 C   0  0  0  0  0  2  0  0  0  0  0  0
  -19.2010  -28.8810   23.3870 C   0  0  0  0  0  0  0  0  0  0  0  0
  -18.9580  -30.1360   23.9810 C   0  0  0  0  0  3  0  0  0  0  0  0
  -17.6420  -30.6140   24.1450 C   0  0  0  0  0  3  0  0  0  0  0  0
  -16.5530  -29.8320   23.7230 C   0  0  0  0  0  3  0  0  0  0  0  0
  -16.7810  -28.5770   23.1330 C   0  0  0  0  0  3  0  0  0  0  0  0
  -25.9450  -32.5810   23.8560 C   0  0  0  0  0  3  0  0  0  0  0  0
  -25.6250  -33.9790   24.1920 N   0  0  0  0  0  0  0  0  0  0  0  0
  -25.9430  -35.0400   23.4390 C   0  0  0  0  0  0  0  0  0  0  0  0
  -26.6010  -34.9440   22.4000 O   0  0  0  0  0  0  0  0  0  0  0  0
  -25.0420  -34.1260   25.0030 H   0  0  0  0  0  0  0  0  0  0  0  0
  -24.2040  -36.8330   23.1240 C   0  0  0  0  0  1  0  0  0  0  0  0
  -25.4590  -36.4260   23.9130 C   0  0  0  0  0  3  0  0  0  0  0  0
  -27.6010  -37.3170   24.7170 C   0  0  0  0  0  1  0  0  0  0  0  0
  -26.4860  -37.4830   23.7890 N   0  0  0  0  0  0  0  0  0  0  0  0
  -26.0790  -38.4020   23.9440 H   0  0  0  0  0  0  0  0  0  0  0  0
  -26.4630  -31.8180   25.1390 C   0  0  1  0  0  0  0  0  0  0  0  0
  -25.3710  -31.5860   26.2100 C   0  0  0  0  0  1  0  0  0  0  0  0
  -27.0500  -30.4390   24.7600 C   0  0  0  0  0  1  0  0  0  0  0  0
  -27.6140  -32.6200   25.7930 C   0  0  0  0  0  1  0  0  0  0  0  0
  -30.1030  -18.0710   19.8850 C   0  0  0  0  0  2  0  0  0  0  0  0
  -30.5330  -15.2540   20.0610 C   0  0  0  0  0  0  0  0  0  0  0  0
  -30.3970  -12.8650   19.1330 C   0  0  0  0  0  2  0  0  0  0  0  0
  -29.4290  -12.7580   17.9300 C   0  0  0  0  0  2  0  0  0  0  0  0
  -27.9880  -12.5170   18.4120 C   0  0  0  0  0  2  0  0  0  0  0  0
  -27.6010  -13.4460   19.5900 C   0  0  0  0  0  3  0  0  0  0  0  0
  -28.6950  -13.5260   20.6790 C   0  0  0  0  0  2  0  0  0  0  0  0
  -29.9280  -13.9810   20.0230 N   0  0  0  0  0  0  0  0  0  0  0  0
  -31.7290  -15.2680   19.7470 O   0  0  0  0  0  0  0  0  0  0  0  0
  -29.8040  -16.5030   20.2300 N   0  0  0  0  0  0  0  0  0  0  0  0
  -28.8420  -16.3430   20.4940 H   0  0  0  0  0  0  0  0  0  0  0  0
  -25.2480  -13.9980   20.4150 C   0  0  0  0  0  0  0  0  0  0  0  0
  -24.1990  -13.2130   20.8110 C   0  0  0  0  0  0  0  0  0  0  0  0
  -24.6700  -11.8660   20.7620 C   0  0  0  0  0  0  0  0  0  0  0  0
  -26.2870  -13.1260   20.1400 N   0  0  0  0  0  0  0  0  0  0  0  0
  -25.9530  -11.8390   20.4160 N   0  0  0  0  0  0  0  0  0  0  0  0
  -23.9530  -10.5970   20.9680 C   0  0  0  0  0  0  0  0  0  0  0  0
  -24.4040   -9.6340   21.8950 C   0  0  0  0  0  3  0  0  0  0  0  0
  -23.6860   -8.4350   22.0890 C   0  0  0  0  0  3  0  0  0  0  0  0
  -22.5010   -8.1900   21.3540 C   0  0  0  0  0  0  0  0  0  0  0  0
  -22.0670   -9.1440   20.4170 C   0  0  0  0  0  3  0  0  0  0  0  0
  -22.7860  -10.3350   20.2220 C   0  0  0  0  0  3  0  0  0  0  0  0
  -21.7510   -7.0410   21.4560 O   0  0  0  0  0  0  0  0  0  0  0  0
  -21.7200   -6.3040   22.6130 C   0  0  0  0  0  0  0  0  0  0  0  0
  -21.2960   -6.8620   23.8400 C   0  0  0  0  0  3  0  0  0  0  0  0
  -21.2120   -6.0520   24.9900 C   0  0  0  0  0  3  0  0  0  0  0  0
  -21.5400   -4.6840   24.9140 C   0  0  0  0  0  0  0  0  0  0  0  0
  -21.9560   -4.1270   23.6920 C   0  0  0  0  0  3  0  0  0  0  0  0
  -22.0420   -4.9340   22.5440 C   0  0  0  0  0  0  0  0  0  0  0  0
  -22.4230   -4.3870   21.3640 F   0  0  0  0  0  0  0  0  0  0  0  0
  -21.4530   -3.9030   26.0150 F   0  0  0  0  0  0  0  0  0  0  0  0
  -22.8070  -13.6850   21.1140 C   0  0  0  0  0  0  0  0  0  0  0  0
  -22.0990  -12.9860   21.9960 N   0  0  0  0  0  0  0  0  0  0  0  0
  -22.3510  -14.7070   20.6010 O   0  0  0  0  0  0  0  0  0  0  0  0
  -22.4750  -12.1580   22.4320 H   0  0  0  0  0  0  0  0  0  0  0  0
  -21.1670  -13.2890   22.2380 H   0  0  0  0  0  0  0  0  0  0  0  0
  -25.3990  -15.3700   20.2390 N   0  0  0  0  0  0  0  0  0  0  0  0
  -24.6340  -16.0210   20.3840 H   0  0  0  0  0  0  0  0  0  0  0  0
  -26.2200  -15.8110   19.8470 H   0  0  0  0  0  0  0  0  0  0  0  0
  3  7  1  0
  4  2  1  0
  4  1  1  0
  5  3  1  0
  5  6  1  0
  5  1  1  0
  6 51  1  0
  6  2  1  0
  7  8  1  0
  7  4  1  0
  9  8  1  0
 10 12  1  0
 10  8  1  0
 11 22  2  0
 12 17  1  0
 13 21  1  0
 13 23  1  0
 14 20  1  0
 14 16  1  0
 15 21  1  0
 16 15  1  0
 17 16  2  0
 18 19  1  0
 18 12  2  0
 19 14  2  0
 20 13  1  0
 21 11  1  0
 23 25  2  0
 24 23  1  0
 26 24  1  0
 27 36  2  0
 27 32  1  0
 28 24  1  0
 28 32  1  0
 29 28  1  0
 30 31  1  0
 30 29  1  0
 31 27  1  0
 32 33  2  0
 33 34  1  0
 35 34  2  0
 36 35  1  0
 37 11  1  0
 37 38  1  0
 37 47  1  0
 38 41  1  0
 39 43  1  0
 39 38  1  0
 40 39  2  0
 43 42  1  0
 45 43  1  0
 45 46  1  0
 45 44  1  0
 47 50  1  1
 47 48  1  0
 49 47  1  0
 51 60  1  0
 52 60  1  0
 53 58  1  0
 54 55  1  0
 54 53  1  0
 56 55  1  0
 56 65  1  0
 56 57  1  0
 58 52  1  0
 58 57  1  0
 59 52  2  0
 60 61  1  0
 62 63  2  0
 63 82  1  0
 64 63  1  0
 64 67  1  0
 65 62  1  0
 65 66  1  0
 66 64  2  0
 67 68  1  0
 68 69  2  0
 70 73  1  0
 70 69  1  0
 71 70  2  0
 72 71  1  0
 72 67  2  0
 73 74  1  0
 74 75  1  0
 75 76  2  0
 77 76  1  0
 77 81  1  0
 78 77  2  0
 79 74  2  0
 79 78  1  0
 80 79  1  0
 82 83  1  0
 83 86  1  0
 83 85  1  0
 84 82  2  0
 87 88  1  0
 87 62  1  0
 89 87  1  0
M  ISO  4   8 101  10 101  52 100  60 100
M  END
>  <TORSDO>  (41) 
F 18

>  <SCORE>  (41) 
-15.687

>  <name>  (41) 
40

>  <ligand_id>  (41) 
40

>  <original_smiles>  (41) 
[H]c1c([H])c([H])c2c(c1[H])C([H])([H])C([H])([H])C([H])([H])C2([H])N([H])C(=O)C1([H])N(C(=O)C([H])(N([H])C(=O)C([H])(N([H])C([H])([H])[H])C([H])([H])[H])C(C([H])([H])[H])(C([H])([H])[H])C([H])([H])[H])C([H])([H])c2c([H])c(ON([H])C3([H])C([H])([H])C4([H])C([H])([H])C3([H])C([H])([H])C4([H])C([H])([H])N([H])C(=O)N3C([H])([H])C([H])([H])C([H])([H])C([H])(n4nc(-c5c([H])c([H])c(Oc6c([H])c([H])c(F)c([H])c6F)c([H])c5[H])c(C(=O)N([H])[H])c4N([H])[H])C3([H])[H])c([H])c([H])c2C1([H])[H]

>  <smiles>  (41) 
[H]c1c([H])c([H])c2c(c1[H])C([H])([H])C([H])([H])C([H])([H])C2([H])N([H])C(=O)C1([H])N(C(=O)C([H])(N([H])C(=O)C([H])(N([H])C([H])([H])[H])C([H])([H])[H])C(C([H])([H])[H])(C([H])([H])[H])C([H])([H])[H])C([H])([H])c2c([H])c(ON([H])C3([H])C([H])([H])C4([H])C([H])([H])C3([H])C([H])([H])C4([H])C([H])([H])N([H])C(=O)N3C([H])([H])C([H])([H])C([H])([H])C([H])(n4nc(-c5c([H])c([H])c(Oc6c([H])c([H])c(F)c([H])c6F)c([H])c5[H])c(C(=O)N([H])[H])c4N([H])[H])C3([H])[H])c([H])c([H])c2C1([H])[H]

$$$$
41:0:0
     RDKit          3D

 88 97  0  0  1  0  0  0  0  0999 V2000
  -28.9450  -22.2420   20.1320 C   0  0  0  0  0  0  0  0  0  0  0  0
  -30.0610  -22.5120   19.6810 O   0  0  0  0  0  0  0  0  0  0  0  0
  -27.4060  -20.0940   19.6490 C   0  0  0  0  0  2  0  0  0  0  0  0
  -27.8060  -17.9300   18.1280 C   0  0  0  0  0  2  0  0  0  0  0  0
  -28.7280  -20.3870   20.3740 C   0  0  0  0  0  3  0  0  0  0  0  0
  -27.7870  -19.4270   18.3290 C   0  0  0  0  0  3  0  0  0  0  0  0
  -29.0870  -18.6540   18.4880 C   0  0  0  0  0  3  0  0  0  0  0  0
  -29.6070  -18.7090   19.9160 C   0  0  0  0  0  3  0  0  0  0  0  0
  -30.3680  -15.6430   20.1980 C   0  0  0  0  0  0  0  0  0  0  0  0
  -30.4510  -13.1070   19.3800 C   0  0  0  0  0  2  0  0  0  0  0  0
  -29.5520  -12.7930   18.1500 C   0  0  0  0  0  2  0  0  0  0  0  0
  -28.1180  -12.4540   18.5990 C   0  0  0  0  0  2  0  0  0  0  0  0
  -27.6320  -13.4360   19.6980 C   0  0  0  0  0  3  0  0  0  0  0  0
  -28.6740  -13.6560   20.8170 C   0  0  0  0  0  2  0  0  0  0  0  0
  -29.8590  -14.2740   20.1800 N   0  0  0  0  0  0  0  0  0  0  0  0
  -31.5780  -15.6020   19.8980 O   0  0  0  0  0  0  0  0  0  0  0  0
  -29.6140  -16.9880   20.3700 N   0  0  0  0  0  0  0  0  0  0  0  0
  -28.7100  -16.7560   20.7600 H   0  0  0  0  0  0  0  0  0  0  0  0
  -25.2770  -13.9860   20.4830 C   0  0  0  0  0  0  0  0  0  0  0  0
  -24.2140  -13.2160   20.8500 C   0  0  0  0  0  0  0  0  0  0  0  0
  -24.6720  -11.8610   20.8060 C   0  0  0  0  0  0  0  0  0  0  0  0
  -26.3110  -13.1080   20.2170 N   0  0  0  0  0  0  0  0  0  0  0  0
  -25.9630  -11.8220   20.4760 N   0  0  0  0  0  0  0  0  0  0  0  0
  -23.9380  -10.6020   20.9920 C   0  0  0  0  0  0  0  0  0  0  0  0
  -24.3540   -9.6290   21.9310 C   0  0  0  0  0  3  0  0  0  0  0  0
  -23.6150   -8.4390   22.1050 C   0  0  0  0  0  3  0  0  0  0  0  0
  -22.4400   -8.2150   21.3460 C   0  0  0  0  0  0  0  0  0  0  0  0
  -22.0460   -9.1720   20.3950 C   0  0  0  0  0  3  0  0  0  0  0  0
  -22.7860  -10.3530   20.2200 C   0  0  0  0  0  3  0  0  0  0  0  0
  -21.6700   -7.0820   21.4320 O   0  0  0  0  0  0  0  0  0  0  0  0
  -21.5840   -6.3600   22.5950 C   0  0  0  0  0  0  0  0  0  0  0  0
  -21.1070   -6.9330   23.7960 C   0  0  0  0  0  3  0  0  0  0  0  0
  -20.9810   -6.1370   24.9530 C   0  0  0  0  0  3  0  0  0  0  0  0
  -21.3110   -4.7700   24.9070 C   0  0  0  0  0  0  0  0  0  0  0  0
  -21.7760   -4.1960   23.7100 C   0  0  0  0  0  3  0  0  0  0  0  0
  -21.9110   -4.9910   22.5570 C   0  0  0  0  0  0  0  0  0  0  0  0
  -22.3460   -4.4290   21.4050 F   0  0  0  0  0  0  0  0  0  0  0  0
  -21.1740   -4.0020   26.0130 F   0  0  0  0  0  0  0  0  0  0  0  0
  -22.8220  -13.6980   21.1390 C   0  0  0  0  0  0  0  0  0  0  0  0
  -22.1100  -12.9980   22.0120 N   0  0  0  0  0  0  0  0  0  0  0  0
  -22.3810  -14.7260   20.6210 O   0  0  0  0  0  0  0  0  0  0  0  0
  -22.4880  -12.1590   22.4320 H   0  0  0  0  0  0  0  0  0  0  0  0
  -21.1740  -13.2810   22.2630 H   0  0  0  0  0  0  0  0  0  0  0  0
  -25.4680  -15.3550   20.3200 N   0  0  0  0  0  0  0  0  0  0  0  0
  -24.7360  -16.0440   20.4440 H   0  0  0  0  0  0  0  0  0  0  0  0
  -26.3230  -15.7450   19.9480 H   0  0  0  0  0  0  0  0  0  0  0  0
  -27.9070  -23.7850   20.3720 C   0  0  0  0  0  2  0  0  0  0  0  0
  -28.1680  -25.5290   20.2780 O   0  0  0  0  0  0  0  0  0  0  0  0
  -24.5840  -31.8160   23.1440 C   0  0  0  0  0  0  0  0  0  0  0  0
  -27.1950  -26.7440   20.2330 C   0  0  0  0  0  0  0  0  0  0  0  0
  -23.4280  -30.4010   21.4920 C   0  0  0  0  0  3  0  0  0  0  0  0
  -24.9090  -28.7540   20.1150 C   0  0  0  0  0  0  0  0  0  0  0  0
  -26.0070  -30.5680   21.4090 C   0  0  0  0  0  2  0  0  0  0  0  0
  -26.0930  -29.1330   20.7630 C   0  0  0  0  0  0  0  0  0  0  0  0
  -27.2220  -28.1560   20.7880 C   0  0  0  0  0  3  0  0  0  0  0  0
  -25.9850  -26.5870   19.5140 C   0  0  0  0  0  3  0  0  0  0  0  0
  -24.8970  -27.5100   19.4610 C   0  0  0  0  0  3  0  0  0  0  0  0
  -23.6890  -29.6840   20.1340 C   0  0  0  0  0  2  0  0  0  0  0  0
  -24.6940  -30.9640   22.0650 N   0  0  0  0  0  0  0  0  0  0  0  0
  -23.4810  -32.1040   23.6430 O   0  0  0  0  0  0  0  0  0  0  0  0
  -22.7090  -29.4270   22.4630 C   0  0  0  0  0  0  0  0  0  0  0  0
  -21.3770  -29.2760   22.3390 N   0  0  0  0  0  0  0  0  0  0  0  0
  -23.3640  -28.8040   23.3040 O   0  0  0  0  0  0  0  0  0  0  0  0
  -20.9000  -29.8160   21.6300 H   0  0  0  0  0  0  0  0  0  0  0  0
  -17.9830  -28.1110   22.8890 C   0  0  0  0  0  0  0  0  0  0  0  0
  -20.5480  -28.3610   23.1350 C   0  0  0  0  0  3  0  0  0  0  0  0
  -20.6050  -26.9190   22.5790 C   0  0  0  0  0  2  0  0  0  0  0  0
  -19.5330  -26.6450   21.5270 C   0  0  0  0  0  2  0  0  0  0  0  0
  -18.1490  -26.7810   22.1670 C   0  0  0  0  0  2  0  0  0  0  0  0
  -19.1110  -28.8650   23.3190 C   0  0  0  0  0  0  0  0  0  0  0  0
  -18.9040  -30.1140   23.9480 C   0  0  0  0  0  3  0  0  0  0  0  0
  -17.5990  -30.6070   24.1460 C   0  0  0  0  0  3  0  0  0  0  0  0
  -16.4880  -29.8490   23.7350 C   0  0  0  0  0  3  0  0  0  0  0  0
  -16.6800  -28.6000   23.1170 C   0  0  0  0  0  3  0  0  0  0  0  0
  -25.8350  -32.4770   23.7990 C   0  0  0  0  0  3  0  0  0  0  0  0
  -25.4930  -33.8730   24.1330 N   0  0  0  0  0  0  0  0  0  0  0  0
  -25.8120  -34.9460   23.3970 C   0  0  0  0  0  0  0  0  0  0  0  0
  -26.4870  -34.8640   22.3680 O   0  0  0  0  0  0  0  0  0  0  0  0
  -24.8870  -34.0100   24.9290 H   0  0  0  0  0  0  0  0  0  0  0  0
  -24.0620  -36.7370   23.0750 C   0  0  0  0  0  1  0  0  0  0  0  0
  -25.3080  -36.3250   23.8760 C   0  0  0  0  0  3  0  0  0  0  0  0
  -27.4280  -37.2420   24.7170 C   0  0  0  0  0  1  0  0  0  0  0  0
  -26.3250  -37.3940   23.7720 N   0  0  0  0  0  0  0  0  0  0  0  0
  -25.9030  -38.3070   23.9150 H   0  0  0  0  0  0  0  0  0  0  0  0
  -26.3280  -31.7290   25.1020 C   0  0  1  0  0  0  0  0  0  0  0  0
  -25.2130  -31.4980   26.1490 C   0  0  0  0  0  1  0  0  0  0  0  0
  -26.9350  -30.3480   24.7650 C   0  0  0  0  0  1  0  0  0  0  0  0
  -27.4510  -32.5430   25.7870 C   0  0  0  0  0  1  0  0  0  0  0  0
  1 47  1  0
  2  1  2  0
  3  5  1  0
  5  1  1  0
  6  4  1  0
  6  7  1  0
  6  3  1  0
  7  4  1  0
  7  8  1  0
  8 17  1  0
  8  5  1  0
  9 17  1  0
 10 15  1  0
 11 12  1  0
 11 10  1  0
 13 12  1  0
 13 22  1  0
 13 14  1  0
 15  9  1  0
 15 14  1  0
 16  9  2  0
 17 18  1  0
 19 20  2  0
 20 39  1  0
 21 20  1  0
 21 24  1  0
 22 23  1  0
 22 19  1  0
 23 21  2  0
 24 25  1  0
 25 26  2  0
 27 30  1  0
 27 26  1  0
 28 27  2  0
 29 28  1  0
 29 24  2  0
 30 31  1  0
 31 32  1  0
 32 33  2  0
 34 33  1  0
 34 38  1  0
 35 34  2  0
 36 31  2  0
 36 35  1  0
 37 36  1  0
 39 40  1  0
 40 43  1  0
 40 42  1  0
 41 39  2  0
 44 45  1  0
 44 19  1  0
 46 44  1  0
 48 47  1  0
 49 60  2  0
 50 48  1  0
 50 55  1  0
 51 59  1  0
 51 61  1  0
 52 58  1  0
 52 54  1  0
 53 59  1  0
 54 55  2  0
 54 53  1  0
 56 50  2  0
 57 56  1  0
 57 52  2  0
 58 51  1  0
 59 49  1  0
 61 63  2  0
 62 61  1  0
 64 62  1  0
 65 74  2  0
 65 70  1  0
 66 62  1  0
 66 70  1  0
 67 66  1  0
 68 69  1  0
 68 67  1  0
 69 65  1  0
 70 71  2  0
 71 72  1  0
 73 72  2  0
 74 73  1  0
 75 49  1  0
 75 76  1  0
 75 85  1  0
 76 79  1  0
 77 81  1  0
 77 76  1  0
 78 77  2  0
 81 80  1  0
 83 81  1  0
 83 84  1  0
 83 82  1  0
 85 88  1  1
 85 86  1  0
 87 85  1  0
M  ISO  4   9 100  17 100  47 101  48 101
M  END
>  <TORSDO>  (42) 
F 18

>  <SCORE>  (42) 
-16.518

>  <name>  (42) 
41

>  <ligand_id>  (42) 
41

>  <original_smiles>  (42) 
[H]c1c([H])c([H])c2c(c1[H])C([H])([H])C([H])([H])C([H])([H])C2([H])N([H])C(=O)C1([H])N(C(=O)C([H])(N([H])C(=O)C([H])(N([H])C([H])([H])[H])C([H])([H])[H])C(C([H])([H])[H])(C([H])([H])[H])C([H])([H])[H])C([H])([H])c2c([H])c(OC([H])([H])C(=O)C3([H])C([H])([H])C4([H])C([H])([H])C4([H])C3([H])N([H])C(=O)N3C([H])([H])C([H])([H])C([H])([H])C([H])(n4nc(-c5c([H])c([H])c(Oc6c([H])c([H])c(F)c([H])c6F)c([H])c5[H])c(C(=O)N([H])[H])c4N([H])[H])C3([H])[H])c([H])c([H])c2C1([H])[H]

>  <smiles>  (42) 
[H]c1c([H])c([H])c2c(c1[H])C([H])([H])C([H])([H])C([H])([H])C2([H])N([H])C(=O)C1([H])N(C(=O)C([H])(N([H])C(=O)C([H])(N([H])C([H])([H])[H])C([H])([H])[H])C(C([H])([H])[H])(C([H])([H])[H])C([H])([H])[H])C([H])([H])c2c([H])c(OC([H])([H])C(=O)C3([H])C([H])([H])C4([H])C([H])([H])C4([H])C3([H])N([H])C(=O)N3C([H])([H])C([H])([H])C([H])([H])C([H])(n4nc(-c5c([H])c([H])c(Oc6c([H])c([H])c(F)c([H])c6F)c([H])c5[H])c(C(=O)N([H])[H])c4N([H])[H])C3([H])[H])c([H])c([H])c2C1([H])[H]

$$$$
42:0:0
     RDKit          3D

 91100  0  0  1  0  0  0  0  0999 V2000
  -29.7490  -21.9940   21.4830 C   0  0  0  0  0  2  0  0  0  0  0  0
  -30.3510  -19.3080   21.4400 C   0  0  0  0  0  2  0  0  0  0  0  0
  -29.3440  -20.4920   21.6160 C   0  0  0  0  0  3  0  0  0  0  0  0
  -28.7730  -20.4000   20.2030 C   0  0  0  0  0  3  0  0  0  0  0  0
  -28.9320  -22.2970   20.2100 C   0  0  0  0  0  3  0  0  0  0  0  0
  -29.7930  -18.8060   20.0840 C   0  0  2  0  0  0  0  0  0  0  0  0
  -30.3190  -15.7160   20.0840 C   0  0  0  0  0  0  0  0  0  0  0  0
  -30.3850  -13.1950   19.2370 C   0  0  0  0  0  2  0  0  0  0  0  0
  -29.4510  -12.8270   18.0530 C   0  0  0  0  0  2  0  0  0  0  0  0
  -28.0440  -12.4680   18.5540 C   0  0  0  0  0  2  0  0  0  0  0  0
  -27.5710  -13.4510   19.6520 C   0  0  0  0  0  3  0  0  0  0  0  0
  -28.6420  -13.7430   20.7290 C   0  0  0  0  0  2  0  0  0  0  0  0
  -29.7920  -14.3590   20.0330 N   0  0  0  0  0  0  0  0  0  0  0  0
  -31.5440  -15.6650   19.8700 O   0  0  0  0  0  0  0  0  0  0  0  0
  -29.5600  -17.0620   20.1900 N   0  0  0  0  0  0  0  0  0  0  0  0
  -28.5780  -16.8640   20.3070 H   0  0  0  0  0  0  0  0  0  0  0  0
  -25.2410  -13.9490   20.5330 C   0  0  0  0  0  0  0  0  0  0  0  0
  -24.2020  -13.1510   20.9210 C   0  0  0  0  0  0  0  0  0  0  0  0
  -24.6780  -11.8060   20.8280 C   0  0  0  0  0  0  0  0  0  0  0  0
  -26.2780  -13.0920   20.2170 N   0  0  0  0  0  0  0  0  0  0  0  0
  -25.9570  -11.7940   20.4620 N   0  0  0  0  0  0  0  0  0  0  0  0
  -23.9650  -10.5340   21.0060 C   0  0  0  0  0  0  0  0  0  0  0  0
  -24.3970   -9.5690   21.9420 C   0  0  0  0  0  3  0  0  0  0  0  0
  -23.6790   -8.3650   22.1120 C   0  0  0  0  0  3  0  0  0  0  0  0
  -22.5150   -8.1170   21.3460 C   0  0  0  0  0  0  0  0  0  0  0  0
  -22.1020   -9.0720   20.4000 C   0  0  0  0  0  3  0  0  0  0  0  0
  -22.8210  -10.2670   20.2280 C   0  0  0  0  0  3  0  0  0  0  0  0
  -21.7700   -6.9650   21.4250 O   0  0  0  0  0  0  0  0  0  0  0  0
  -21.6640   -6.2550   22.5940 C   0  0  0  0  0  0  0  0  0  0  0  0
  -21.1240   -6.8250   23.7670 C   0  0  0  0  0  3  0  0  0  0  0  0
  -20.9710   -6.0380   24.9260 C   0  0  0  0  0  3  0  0  0  0  0  0
  -21.3450   -4.6810   24.9110 C   0  0  0  0  0  0  0  0  0  0  0  0
  -21.8790   -4.1090   23.7420 C   0  0  0  0  0  3  0  0  0  0  0  0
  -22.0340   -4.8940   22.5860 C   0  0  0  0  0  0  0  0  0  0  0  0
  -22.5280   -4.3330   21.4560 F   0  0  0  0  0  0  0  0  0  0  0  0
  -21.1910   -3.9220   26.0220 F   0  0  0  0  0  0  0  0  0  0  0  0
  -22.8140  -13.6110   21.2560 C   0  0  0  0  0  0  0  0  0  0  0  0
  -22.1220  -12.8880   22.1270 N   0  0  0  0  0  0  0  0  0  0  0  0
  -22.3540  -14.6480   20.7800 O   0  0  0  0  0  0  0  0  0  0  0  0
  -22.5080  -12.0490   22.5350 H   0  0  0  0  0  0  0  0  0  0  0  0
  -21.1910  -13.1760   22.3920 H   0  0  0  0  0  0  0  0  0  0  0  0
  -25.3840  -15.3260   20.3910 N   0  0  0  0  0  0  0  0  0  0  0  0
  -24.6100  -15.9630   20.5440 H   0  0  0  0  0  0  0  0  0  0  0  0
  -26.2020  -15.7800   20.0060 H   0  0  0  0  0  0  0  0  0  0  0  0
  -30.7440  -19.0040   18.8840 C   0  0  0  0  0  0  0  0  0  0  0  0
  -31.6350  -19.9860   18.9260 N   0  0  0  0  0  0  0  0  0  0  0  0
  -30.6730  -18.2700   17.9000 O   0  0  0  0  0  0  0  0  0  0  0  0
  -31.6730  -20.5920   19.7320 H   0  0  0  0  0  0  0  0  0  0  0  0
  -32.2630  -20.1440   18.1510 H   0  0  0  0  0  0  0  0  0  0  0  0
  -27.9350  -23.9510   20.2340 C   0  0  0  0  0  2  0  0  0  0  0  0
  -28.1410  -25.6830   20.3040 O   0  0  0  0  0  0  0  0  0  0  0  0
  -24.6520  -31.9270   23.2590 C   0  0  0  0  0  0  0  0  0  0  0  0
  -27.1610  -26.8750   20.2600 C   0  0  0  0  0  0  0  0  0  0  0  0
  -23.4530  -30.5320   21.6270 C   0  0  0  0  0  3  0  0  0  0  0  0
  -24.8910  -28.8850   20.2110 C   0  0  0  0  0  0  0  0  0  0  0  0
  -26.0300  -30.6800   21.4920 C   0  0  0  0  0  2  0  0  0  0  0  0
  -26.0900  -29.2500   20.8360 C   0  0  0  0  0  0  0  0  0  0  0  0
  -27.2110  -28.2720   20.8270 C   0  0  0  0  0  3  0  0  0  0  0  0
  -25.9270  -26.7100   19.5830 C   0  0  0  0  0  3  0  0  0  0  0  0
  -24.8460  -27.6410   19.5610 C   0  0  0  0  0  3  0  0  0  0  0  0
  -23.6850  -29.8350   20.2570 C   0  0  0  0  0  2  0  0  0  0  0  0
  -24.7360  -31.0790   22.1790 N   0  0  0  0  0  0  0  0  0  0  0  0
  -23.5620  -32.2280   23.7750 O   0  0  0  0  0  0  0  0  0  0  0  0
  -22.7420  -29.5540   22.6010 C   0  0  0  0  0  0  0  0  0  0  0  0
  -21.4120  -29.3850   22.4680 N   0  0  0  0  0  0  0  0  0  0  0  0
  -23.3980  -28.9430   23.4490 O   0  0  0  0  0  0  0  0  0  0  0  0
  -20.9330  -29.9270   21.7630 H   0  0  0  0  0  0  0  0  0  0  0  0
  -18.0330  -28.1450   22.9620 C   0  0  0  0  0  0  0  0  0  0  0  0
  -20.5880  -28.4490   23.2430 C   0  0  0  0  0  3  0  0  0  0  0  0
  -20.7100  -27.0100   22.6880 C   0  0  0  0  0  2  0  0  0  0  0  0
  -19.6230  -26.6620   21.6670 C   0  0  0  0  0  2  0  0  0  0  0  0
  -18.2330  -26.7930   22.2980 C   0  0  0  0  0  2  0  0  0  0  0  0
  -19.1370  -28.9290   23.3910 C   0  0  0  0  0  0  0  0  0  0  0  0
  -18.8930  -30.1890   23.9780 C   0  0  0  0  0  3  0  0  0  0  0  0
  -17.5780  -30.6680   24.1350 C   0  0  0  0  0  3  0  0  0  0  0  0
  -16.4890  -29.8830   23.7190 C   0  0  0  0  0  3  0  0  0  0  0  0
  -16.7180  -28.6230   23.1380 C   0  0  0  0  0  3  0  0  0  0  0  0
  -25.9200  -32.5730   23.8940 C   0  0  0  0  0  3  0  0  0  0  0  0
  -25.6030  -33.9760   24.2290 N   0  0  0  0  0  0  0  0  0  0  0  0
  -25.9010  -35.0370   23.4680 C   0  0  0  0  0  0  0  0  0  0  0  0
  -26.5300  -34.9400   22.4120 O   0  0  0  0  0  0  0  0  0  0  0  0
  -25.0360  -34.1230   25.0500 H   0  0  0  0  0  0  0  0  0  0  0  0
  -24.1370  -36.8210   23.2210 C   0  0  0  0  0  1  0  0  0  0  0  0
  -25.4310  -36.4270   23.9520 C   0  0  0  0  0  3  0  0  0  0  0  0
  -27.5980  -37.3500   24.6510 C   0  0  0  0  0  1  0  0  0  0  0  0
  -26.4440  -37.4910   23.7680 N   0  0  0  0  0  0  0  0  0  0  0  0
  -26.0350  -38.4080   23.9230 H   0  0  0  0  0  0  0  0  0  0  0  0
  -26.4200  -31.8150   25.1870 C   0  0  1  0  0  0  0  0  0  0  0  0
  -25.3120  -31.5850   26.2440 C   0  0  0  0  0  1  0  0  0  0  0  0
  -27.0100  -30.4330   24.8270 C   0  0  0  0  0  1  0  0  0  0  0  0
  -27.5600  -32.6160   25.8560 C   0  0  0  0  0  1  0  0  0  0  0  0
  1  3  1  0
  3  2  1  0
  4  5  1  0
  4  3  1  0
  5 50  1  0
  5  1  1  0
  6 15  1  1
  6  4  1  0
  6  2  1  0
  7 15  1  0
  8 13  1  0
  9 10  1  0
  9  8  1  0
 10 11  1  0
 11 20  1  0
 11 12  1  0
 13  7  1  0
 13 12  1  0
 14  7  2  0
 15 16  1  0
 17 18  2  0
 18 37  1  0
 19 18  1  0
 19 22  1  0
 20 21  1  0
 20 17  1  0
 21 19  2  0
 22 23  1  0
 23 24  2  0
 25 28  1  0
 25 24  1  0
 26 25  2  0
 27 26  1  0
 27 22  2  0
 28 29  1  0
 29 30  1  0
 30 31  2  0
 32 31  1  0
 32 36  1  0
 33 32  2  0
 34 29  2  0
 34 33  1  0
 35 34  1  0
 37 38  1  0
 38 41  1  0
 38 40  1  0
 39 37  2  0
 42 17  1  0
 42 43  1  0
 44 42  1  0
 45 46  1  0
 45  6  1  0
 46 48  1  0
 47 45  2  0
 49 46  1  0
 50 51  1  0
 52 63  2  0
 52 78  1  0
 53 51  1  0
 53 58  1  0
 54 62  1  0
 54 64  1  0
 55 61  1  0
 55 57  1  0
 56 62  1  0
 57 56  1  0
 58 57  2  0
 59 53  2  0
 60 59  1  0
 60 55  2  0
 61 54  1  0
 62 52  1  0
 64 66  2  0
 65 64  1  0
 65 69  1  0
 67 65  1  0
 68 77  2  0
 68 73  1  0
 69 73  1  0
 70 69  1  0
 71 72  1  0
 71 70  1  0
 72 68  1  0
 73 74  2  0
 74 75  1  0
 76 75  2  0
 77 76  1  0
 78 79  1  0
 78 88  1  0
 79 82  1  0
 80 84  1  0
 80 79  1  0
 81 80  2  0
 83 84  1  0
 86 87  1  0
 86 84  1  0
 86 85  1  0
 88 91  1  1
 88 89  1  0
 90 88  1  0
M  ISO  4   7 100  15 100  50 101  51 101
M  END
>  <TORSDO>  (43) 
F 18

>  <SCORE>  (43) 
-15.986

>  <name>  (43) 
42

>  <ligand_id>  (43) 
42

>  <original_smiles>  (43) 
[H]c1c([H])c([H])c2c(c1[H])C([H])([H])C([H])([H])C([H])([H])C2([H])N([H])C(=O)C1([H])N(C(=O)C([H])(N([H])C(=O)C([H])(N([H])C([H])([H])[H])C([H])([H])[H])C(C([H])([H])[H])(C([H])([H])[H])C([H])([H])[H])C([H])([H])c2c([H])c(OC([H])([H])C3([H])C([H])([H])C4([H])C([H])([H])C(C(=O)N([H])[H])(N([H])C(=O)N5C([H])([H])C([H])([H])C([H])([H])C([H])(n6nc(-c7c([H])c([H])c(Oc8c([H])c([H])c(F)c([H])c8F)c([H])c7[H])c(C(=O)N([H])[H])c6N([H])[H])C5([H])[H])C34[H])c([H])c([H])c2C1([H])[H]

>  <smiles>  (43) 
[H]c1c([H])c([H])c2c(c1[H])C([H])([H])C([H])([H])C([H])([H])C2([H])N([H])C(=O)C1([H])N(C(=O)C([H])(N([H])C(=O)C([H])(N([H])C([H])([H])[H])C([H])([H])[H])C(C([H])([H])[H])(C([H])([H])[H])C([H])([H])[H])C([H])([H])c2c([H])c(OC([H])([H])C3([H])C([H])([H])C4([H])C([H])([H])C(C(=O)N([H])[H])(N([H])C(=O)N5C([H])([H])C([H])([H])C([H])([H])C([H])(n6nc(-c7c([H])c([H])c(Oc8c([H])c([H])c(F)c([H])c8F)c([H])c7[H])c(C(=O)N([H])[H])c6N([H])[H])C5([H])[H])C34[H])c([H])c([H])c2C1([H])[H]

$$$$
43:0:0
     RDKit          3D

 88 97  0  0  1  0  0  0  0  0999 V2000
  -28.1190  -20.3000   21.0160 C   0  0  0  0  0  2  0  0  0  0  0  0
  -27.9240  -21.7100   20.3710 C   0  0  0  0  0  3  0  0  0  0  0  0
  -29.1380  -21.4290   19.5060 C   0  0  0  0  0  3  0  0  0  0  0  0
  -29.0080  -19.7530   19.8900 C   0  0  0  0  0  3  0  0  0  0  0  0
  -28.8440  -22.9600   20.2710 C   0  0  0  0  0  3  0  0  0  0  0  0
  -30.9930  -18.6900   21.2340 C   0  0  0  0  0  1  0  0  0  0  0  0
  -31.0480  -18.5780   18.7430 C   0  0  0  0  0  1  0  0  0  0  0  0
  -30.1540  -18.3910   19.9780 C   0  0  2  0  0  0  0  0  0  0  0  0
  -30.5880  -15.4680   19.9350 C   0  0  0  0  0  0  0  0  0  0  0  0
  -30.5130  -13.0220   19.0860 C   0  0  0  0  0  2  0  0  0  0  0  0
  -29.5540  -12.8200   17.8890 C   0  0  0  0  0  2  0  0  0  0  0  0
  -28.1240  -12.5540   18.3850 C   0  0  0  0  0  2  0  0  0  0  0  0
  -27.7120  -13.5280   19.5190 C   0  0  0  0  0  3  0  0  0  0  0  0
  -28.7970  -13.6870   20.6040 C   0  0  0  0  0  2  0  0  0  0  0  0
  -30.0050  -14.1730   19.9190 N   0  0  0  0  0  0  0  0  0  0  0  0
  -31.7990  -15.4440   19.6760 O   0  0  0  0  0  0  0  0  0  0  0  0
  -29.8440  -16.7480   20.0410 N   0  0  0  0  0  0  0  0  0  0  0  0
  -28.8640  -16.5650   20.2000 H   0  0  0  0  0  0  0  0  0  0  0  0
  -25.3860  -14.0970   20.3880 C   0  0  0  0  0  0  0  0  0  0  0  0
  -24.3310  -13.3230   20.7840 C   0  0  0  0  0  0  0  0  0  0  0  0
  -24.7810  -11.9690   20.7050 C   0  0  0  0  0  0  0  0  0  0  0  0
  -26.4040  -13.2140   20.0770 N   0  0  0  0  0  0  0  0  0  0  0  0
  -26.0570  -11.9270   20.3370 N   0  0  0  0  0  0  0  0  0  0  0  0
  -24.0480  -10.7110   20.9040 C   0  0  0  0  0  0  0  0  0  0  0  0
  -24.4630   -9.7560   21.8570 C   0  0  0  0  0  3  0  0  0  0  0  0
  -23.7250   -8.5690   22.0470 C   0  0  0  0  0  3  0  0  0  0  0  0
  -22.5590   -8.3250   21.2820 C   0  0  0  0  0  0  0  0  0  0  0  0
  -22.1650   -9.2680   20.3180 C   0  0  0  0  0  3  0  0  0  0  0  0
  -22.9010  -10.4480   20.1260 C   0  0  0  0  0  3  0  0  0  0  0  0
  -21.8000   -7.1840   21.3760 O   0  0  0  0  0  0  0  0  0  0  0  0
  -21.6800   -6.4930   22.5550 C   0  0  0  0  0  0  0  0  0  0  0  0
  -21.1000   -7.0780   23.7010 C   0  0  0  0  0  3  0  0  0  0  0  0
  -20.9310   -6.3130   24.8730 C   0  0  0  0  0  3  0  0  0  0  0  0
  -21.3310   -4.9640   24.8980 C   0  0  0  0  0  0  0  0  0  0  0  0
  -21.9020   -4.3770   23.7550 C   0  0  0  0  0  3  0  0  0  0  0  0
  -22.0720   -5.1400   22.5850 C   0  0  0  0  0  0  0  0  0  0  0  0
  -22.6020   -4.5630   21.4800 F   0  0  0  0  0  0  0  0  0  0  0  0
  -21.1610   -4.2260   26.0200 F   0  0  0  0  0  0  0  0  0  0  0  0
  -22.9530  -13.8120   21.1190 C   0  0  0  0  0  0  0  0  0  0  0  0
  -22.2630  -13.1210   22.0220 N   0  0  0  0  0  0  0  0  0  0  0  0
  -22.4990  -14.8400   20.6180 O   0  0  0  0  0  0  0  0  0  0  0  0
  -22.6430  -12.2890   22.4480 H   0  0  0  0  0  0  0  0  0  0  0  0
  -21.3400  -13.4330   22.2890 H   0  0  0  0  0  0  0  0  0  0  0  0
  -25.5600  -15.4720   20.2430 N   0  0  0  0  0  0  0  0  0  0  0  0
  -24.8300  -16.1420   20.4590 H   0  0  0  0  0  0  0  0  0  0  0  0
  -26.4160  -15.9120   19.9330 H   0  0  0  0  0  0  0  0  0  0  0  0
  -28.1170  -24.5210   19.8380 C   0  0  0  0  0  2  0  0  0  0  0  0
  -28.3080  -26.0970   20.2350 O   0  0  0  0  0  0  0  0  0  0  0  0
  -24.6470  -31.9150   23.2760 C   0  0  0  0  0  0  0  0  0  0  0  0
  -27.2900  -27.1770   20.1560 C   0  0  0  0  0  0  0  0  0  0  0  0
  -23.4920  -30.5480   21.5900 C   0  0  0  0  0  3  0  0  0  0  0  0
  -24.9720  -29.0120   20.1340 C   0  0  0  0  0  0  0  0  0  0  0  0
  -26.0570  -30.8050   21.4750 C   0  0  0  0  0  2  0  0  0  0  0  0
  -26.1470  -29.4200   20.7750 C   0  0  0  0  0  0  0  0  0  0  0  0
  -27.3040  -28.5240   20.7600 C   0  0  0  0  0  3  0  0  0  0  0  0
  -26.0850  -26.9150   19.4660 C   0  0  0  0  0  3  0  0  0  0  0  0
  -24.9620  -27.7810   19.4610 C   0  0  0  0  0  3  0  0  0  0  0  0
  -23.7430  -29.9130   20.1970 C   0  0  0  0  0  2  0  0  0  0  0  0
  -24.7530  -31.1140   22.1700 N   0  0  0  0  0  0  0  0  0  0  0  0
  -23.5470  -32.1770   23.7880 O   0  0  0  0  0  0  0  0  0  0  0  0
  -22.8010  -29.5140   22.5170 C   0  0  0  0  0  0  0  0  0  0  0  0
  -21.4810  -29.3040   22.3410 N   0  0  0  0  0  0  0  0  0  0  0  0
  -23.4580  -28.9020   23.3630 O   0  0  0  0  0  0  0  0  0  0  0  0
  -21.0050  -29.8440   21.6310 H   0  0  0  0  0  0  0  0  0  0  0  0
  -18.1270  -27.9710   22.7060 C   0  0  0  0  0  0  0  0  0  0  0  0
  -20.6640  -28.3310   23.0740 C   0  0  0  0  0  3  0  0  0  0  0  0
  -20.8420  -26.9080   22.4960 C   0  0  0  0  0  2  0  0  0  0  0  0
  -19.7950  -26.5540   21.4350 C   0  0  0  0  0  2  0  0  0  0  0  0
  -18.3850  -26.6360   22.0250 C   0  0  0  0  0  2  0  0  0  0  0  0
  -19.1980  -28.7730   23.1840 C   0  0  0  0  0  0  0  0  0  0  0  0
  -18.9040  -30.0170   23.7830 C   0  0  0  0  0  3  0  0  0  0  0  0
  -17.5750  -30.4610   23.9070 C   0  0  0  0  0  3  0  0  0  0  0  0
  -16.5190  -29.6580   23.4450 C   0  0  0  0  0  3  0  0  0  0  0  0
  -16.7950  -28.4140   22.8510 C   0  0  0  0  0  3  0  0  0  0  0  0
  -25.9000  -32.5560   23.9440 C   0  0  0  0  0  3  0  0  0  0  0  0
  -25.5830  -33.9630   24.2440 N   0  0  0  0  0  0  0  0  0  0  0  0
  -25.9160  -35.0090   23.4740 C   0  0  0  0  0  0  0  0  0  0  0  0
  -26.5830  -34.8900   22.4440 O   0  0  0  0  0  0  0  0  0  0  0  0
  -24.9800  -34.1290   25.0380 H   0  0  0  0  0  0  0  0  0  0  0  0
  -24.1730  -36.7890   23.1290 C   0  0  0  0  0  1  0  0  0  0  0  0
  -25.4350  -36.4060   23.9160 C   0  0  0  0  0  3  0  0  0  0  0  0
  -27.5760  -37.3340   24.6860 C   0  0  0  0  0  1  0  0  0  0  0  0
  -26.4610  -37.4600   23.7510 N   0  0  0  0  0  0  0  0  0  0  0  0
  -26.0520  -38.3830   23.8680 H   0  0  0  0  0  0  0  0  0  0  0  0
  -26.3560  -31.8040   25.2570 C   0  0  1  0  0  0  0  0  0  0  0  0
  -25.2140  -31.5850   26.2760 C   0  0  0  0  0  1  0  0  0  0  0  0
  -26.9500  -30.4180   24.9220 C   0  0  0  0  0  1  0  0  0  0  0  0
  -27.4790  -32.6070   25.9530 C   0  0  0  0  0  1  0  0  0  0  0  0
  2  1  1  0
  3  4  1  0
  3  5  1  0
  3  2  1  0
  4  8  1  0
  4  1  1  0
  5  2  1  0
  8  7  1  6
  8 17  1  0
  8  6  1  0
  9 17  1  0
 10 15  1  0
 11 12  1  0
 11 10  1  0
 12 13  1  0
 13 22  1  0
 13 14  1  0
 15  9  1  0
 15 14  1  0
 16  9  2  0
 17 18  1  0
 19 20  2  0
 20 39  1  0
 21 20  1  0
 21 24  1  0
 22 23  1  0
 22 19  1  0
 23 21  2  0
 24 25  1  0
 25 26  2  0
 27 30  1  0
 27 26  1  0
 28 27  2  0
 29 28  1  0
 29 24  2  0
 30 31  1  0
 31 36  2  0
 31 32  1  0
 32 33  2  0
 33 34  1  0
 34 38  1  0
 35 34  2  0
 36 35  1  0
 37 36  1  0
 39 40  1  0
 40 43  1  0
 40 42  1  0
 41 39  2  0
 44 19  1  0
 44 45  1  0
 46 44  1  0
 47 48  1  0
 47  5  1  0
 49 60  2  0
 49 75  1  0
 50 48  1  0
 50 55  1  0
 51 59  1  0
 51 61  1  0
 52 58  1  0
 52 54  1  0
 53 59  1  0
 54 53  1  0
 55 54  2  0
 56 50  2  0
 57 56  1  0
 57 52  2  0
 58 51  1  0
 59 49  1  0
 61 63  2  0
 62 61  1  0
 62 66  1  0
 64 62  1  0
 65 74  2  0
 65 70  1  0
 66 70  1  0
 67 66  1  0
 68 69  1  0
 68 67  1  0
 69 65  1  0
 70 71  2  0
 71 72  1  0
 73 72  2  0
 74 73  1  0
 75 76  1  0
 75 85  1  0
 76 79  1  0
 77 81  1  0
 77 76  1  0
 78 77  2  0
 80 81  1  0
 83 84  1  0
 83 81  1  0
 83 82  1  0
 85 88  1  1
 85 86  1  0
 87 85  1  0
M  ISO  4   9 100  17 100  47 101  48 101
M  END
>  <TORSDO>  (44) 
F 18

>  <SCORE>  (44) 
-15.606

>  <name>  (44) 
43

>  <ligand_id>  (44) 
43

>  <original_smiles>  (44) 
[H]c1c([H])c([H])c2c(c1[H])C([H])([H])C([H])([H])C([H])([H])C2([H])N([H])C(=O)C1([H])N(C(=O)C([H])(N([H])C(=O)C([H])(N([H])C([H])([H])[H])C([H])([H])[H])C(C([H])([H])[H])(C([H])([H])[H])C([H])([H])[H])C([H])([H])c2c([H])c(OC([H])([H])C3([H])C4([H])C([H])([H])C([H])(C(N([H])C(=O)N5C([H])([H])C([H])([H])C([H])([H])C([H])(n6nc(-c7c([H])c([H])c(Oc8c([H])c([H])c(F)c([H])c8F)c([H])c7[H])c(C(=O)N([H])[H])c6N([H])[H])C5([H])[H])(C([H])([H])[H])C([H])([H])[H])C34[H])c([H])c([H])c2C1([H])[H]

>  <smiles>  (44) 
[H]c1c([H])c([H])c2c(c1[H])C([H])([H])C([H])([H])C([H])([H])C2([H])N([H])C(=O)C1([H])N(C(=O)C([H])(N([H])C(=O)C([H])(N([H])C([H])([H])[H])C([H])([H])[H])C(C([H])([H])[H])(C([H])([H])[H])C([H])([H])[H])C([H])([H])c2c([H])c(OC([H])([H])C3([H])C4([H])C([H])([H])C([H])(C(N([H])C(=O)N5C([H])([H])C([H])([H])C([H])([H])C([H])(n6nc(-c7c([H])c([H])c(Oc8c([H])c([H])c(F)c([H])c8F)c([H])c7[H])c(C(=O)N([H])[H])c6N([H])[H])C5([H])[H])(C([H])([H])[H])C([H])([H])[H])C34[H])c([H])c([H])c2C1([H])[H]

$$$$
44:0:0
     RDKit          3D

 86 94  0  0  1  0  0  0  0  0999 V2000
  -28.9540  -22.2800   20.2730 C   0  0  0  0  0  0  0  0  0  0  0  0
  -30.1490  -22.5780   20.3560 O   0  0  0  0  0  0  0  0  0  0  0  0
  -28.7170  -20.4140   20.2450 C   0  0  0  0  0  2  0  0  0  0  0  0
  -31.0880  -19.1210   19.5210 C   0  0  0  0  0  2  0  0  0  0  0  0
  -31.0840  -19.1070   21.0160 C   0  0  0  0  0  2  0  0  0  0  0  0
  -29.7960  -18.8270   20.2620 C   0  0  1  0  0  0  0  0  0  0  0  0
  -30.2630  -15.7100   20.1850 C   0  0  0  0  0  0  0  0  0  0  0  0
  -30.3570  -13.1800   19.3290 C   0  0  0  0  0  2  0  0  0  0  0  0
  -29.4490  -12.7870   18.1300 C   0  0  0  0  0  2  0  0  0  0  0  0
  -28.0330  -12.4140   18.6040 C   0  0  0  0  0  2  0  0  0  0  0  0
  -27.5380  -13.3890   19.6970 C   0  0  0  0  0  3  0  0  0  0  0  0
  -28.5900  -13.7000   20.7880 C   0  0  0  0  0  2  0  0  0  0  0  0
  -29.7370  -14.3460   20.1090 N   0  0  0  0  0  0  0  0  0  0  0  0
  -31.4930  -15.6400   20.0040 O   0  0  0  0  0  0  0  0  0  0  0  0
  -29.5100  -17.0830   20.2690 N   0  0  0  0  0  0  0  0  0  0  0  0
  -28.5220  -16.8910   20.3490 H   0  0  0  0  0  0  0  0  0  0  0  0
  -25.1900  -13.8850   20.5270 C   0  0  0  0  0  0  0  0  0  0  0  0
  -24.1470  -13.0890   20.9050 C   0  0  0  0  0  0  0  0  0  0  0  0
  -24.6310  -11.7460   20.8490 C   0  0  0  0  0  0  0  0  0  0  0  0
  -26.2370  -13.0290   20.2430 N   0  0  0  0  0  0  0  0  0  0  0  0
  -25.9180  -11.7320   20.5070 N   0  0  0  0  0  0  0  0  0  0  0  0
  -23.9220  -10.4710   21.0370 C   0  0  0  0  0  0  0  0  0  0  0  0
  -24.3740   -9.5030   21.9620 C   0  0  0  0  0  3  0  0  0  0  0  0
  -23.6590   -8.2980   22.1430 C   0  0  0  0  0  3  0  0  0  0  0  0
  -22.4800   -8.0530   21.3990 C   0  0  0  0  0  0  0  0  0  0  0  0
  -22.0460   -9.0100   20.4660 C   0  0  0  0  0  3  0  0  0  0  0  0
  -22.7610  -10.2070   20.2830 C   0  0  0  0  0  3  0  0  0  0  0  0
  -21.7370   -6.9010   21.4900 O   0  0  0  0  0  0  0  0  0  0  0  0
  -21.6990   -6.1570   22.6420 C   0  0  0  0  0  0  0  0  0  0  0  0
  -21.2530   -6.7010   23.8660 C   0  0  0  0  0  3  0  0  0  0  0  0
  -21.1640   -5.8830   25.0110 C   0  0  0  0  0  3  0  0  0  0  0  0
  -21.5110   -4.5200   24.9320 C   0  0  0  0  0  0  0  0  0  0  0  0
  -21.9520   -3.9760   23.7120 C   0  0  0  0  0  3  0  0  0  0  0  0
  -22.0420   -4.7910   22.5720 C   0  0  0  0  0  0  0  0  0  0  0  0
  -22.4470   -4.2560   21.3940 F   0  0  0  0  0  0  0  0  0  0  0  0
  -21.4190   -3.7340   26.0280 F   0  0  0  0  0  0  0  0  0  0  0  0
  -22.7490  -13.5470   21.1950 C   0  0  0  0  0  0  0  0  0  0  0  0
  -22.0410  -12.8490   22.0760 N   0  0  0  0  0  0  0  0  0  0  0  0
  -22.2920  -14.5650   20.6770 O   0  0  0  0  0  0  0  0  0  0  0  0
  -22.4230  -12.0320   22.5290 H   0  0  0  0  0  0  0  0  0  0  0  0
  -21.1000  -13.1400   22.3020 H   0  0  0  0  0  0  0  0  0  0  0  0
  -25.3300  -15.2610   20.3670 N   0  0  0  0  0  0  0  0  0  0  0  0
  -24.5590  -15.9030   20.5150 H   0  0  0  0  0  0  0  0  0  0  0  0
  -26.1630  -15.7130   20.0140 H   0  0  0  0  0  0  0  0  0  0  0  0
  -27.8840  -23.8090   20.1920 C   0  0  0  0  0  2  0  0  0  0  0  0
  -28.1420  -25.5510   20.3000 O   0  0  0  0  0  0  0  0  0  0  0  0
  -24.6800  -31.8800   23.2170 C   0  0  0  0  0  0  0  0  0  0  0  0
  -27.1770  -26.7710   20.2490 C   0  0  0  0  0  0  0  0  0  0  0  0
  -23.4790  -30.4770   21.5950 C   0  0  0  0  0  3  0  0  0  0  0  0
  -24.9120  -28.8100   20.1890 C   0  0  0  0  0  0  0  0  0  0  0  0
  -26.0590  -30.6040   21.4660 C   0  0  0  0  0  2  0  0  0  0  0  0
  -26.1140  -29.1660   20.8160 C   0  0  0  0  0  0  0  0  0  0  0  0
  -27.2300  -28.1750   20.8120 C   0  0  0  0  0  3  0  0  0  0  0  0
  -25.9430  -26.6240   19.5620 C   0  0  0  0  0  3  0  0  0  0  0  0
  -24.8650  -27.5630   19.5400 C   0  0  0  0  0  3  0  0  0  0  0  0
  -23.7100  -29.7670   20.2290 C   0  0  0  0  0  2  0  0  0  0  0  0
  -24.7640  -31.0220   22.1440 N   0  0  0  0  0  0  0  0  0  0  0  0
  -23.5890  -32.1910   23.7260 O   0  0  0  0  0  0  0  0  0  0  0  0
  -22.7630  -29.5100   22.5760 C   0  0  0  0  0  0  0  0  0  0  0  0
  -21.4300  -29.3600   22.4530 N   0  0  0  0  0  0  0  0  0  0  0  0
  -23.4160  -28.8940   23.4200 O   0  0  0  0  0  0  0  0  0  0  0  0
  -20.9550  -29.9080   21.7500 H   0  0  0  0  0  0  0  0  0  0  0  0
  -18.0370  -28.1620   22.9750 C   0  0  0  0  0  0  0  0  0  0  0  0
  -20.5990  -28.4330   23.2330 C   0  0  0  0  0  3  0  0  0  0  0  0
  -20.6980  -26.9950   22.6750 C   0  0  0  0  0  2  0  0  0  0  0  0
  -19.5960  -26.6610   21.6650 C   0  0  0  0  0  2  0  0  0  0  0  0
  -18.2140  -26.8100   22.3060 C   0  0  0  0  0  2  0  0  0  0  0  0
  -19.1560  -28.9320   23.3940 C   0  0  0  0  0  0  0  0  0  0  0  0
  -18.9330  -30.1940   23.9850 C   0  0  0  0  0  3  0  0  0  0  0  0
  -17.6250  -30.6880   24.1570 C   0  0  0  0  0  3  0  0  0  0  0  0
  -16.5220  -29.9180   23.7480 C   0  0  0  0  0  3  0  0  0  0  0  0
  -16.7300  -28.6550   23.1650 C   0  0  0  0  0  3  0  0  0  0  0  0
  -25.9490  -32.5260   23.8560 C   0  0  0  0  0  3  0  0  0  0  0  0
  -26.4490  -31.7670   25.1480 C   0  0  1  0  0  0  0  0  0  0  0  0
  -25.3500  -31.5520   26.2160 C   0  0  0  0  0  1  0  0  0  0  0  0
  -27.0220  -30.3780   24.7880 C   0  0  0  0  0  1  0  0  0  0  0  0
  -27.6020  -32.5610   25.8060 C   0  0  0  0  0  1  0  0  0  0  0  0
  -25.6280  -33.9270   24.1950 N   0  0  0  0  0  0  0  0  0  0  0  0
  -25.9350  -34.9930   23.4430 C   0  0  0  0  0  0  0  0  0  0  0  0
  -26.5750  -34.9030   22.3940 O   0  0  0  0  0  0  0  0  0  0  0  0
  -25.0560  -34.0710   25.0130 H   0  0  0  0  0  0  0  0  0  0  0  0
  -24.1820  -36.7860   23.1840 C   0  0  0  0  0  1  0  0  0  0  0  0
  -25.4620  -36.3800   23.9330 C   0  0  0  0  0  3  0  0  0  0  0  0
  -27.6260  -37.2850   24.6690 C   0  0  0  0  0  1  0  0  0  0  0  0
  -26.4820  -37.4430   23.7740 N   0  0  0  0  0  0  0  0  0  0  0  0
  -26.0760  -38.3590   23.9370 H   0  0  0  0  0  0  0  0  0  0  0  0
  1  2  2  0
  6  3  1  1
  3  1  1  0
  4  6  1  0
  4  5  1  0
  6 15  1  0
  6  5  1  0
  7 15  1  0
  8 13  1  0
  9 10  1  0
  9  8  1  0
 11 10  1  0
 11 20  1  0
 11 12  1  0
 13  7  1  0
 13 12  1  0
 14  7  2  0
 15 16  1  0
 17 18  2  0
 18 37  1  0
 19 18  1  0
 19 22  1  0
 20 21  1  0
 20 17  1  0
 21 19  2  0
 22 23  1  0
 23 24  2  0
 25 28  1  0
 25 24  1  0
 26 25  2  0
 27 26  1  0
 27 22  2  0
 28 29  1  0
 29 30  1  0
 30 31  2  0
 32 31  1  0
 32 36  1  0
 33 32  2  0
 34 29  2  0
 34 33  1  0
 35 34  1  0
 37 38  1  0
 38 41  1  0
 38 40  1  0
 39 37  2  0
 42 43  1  0
 42 17  1  0
 44 42  1  0
 45  1  1  0
 45 46  1  0
 47 58  2  0
 48 46  1  0
 48 53  1  0
 49 57  1  0
 49 59  1  0
 50 56  1  0
 50 52  1  0
 51 57  1  0
 52 51  1  0
 53 52  2  0
 54 48  2  0
 55 54  1  0
 55 50  2  0
 56 49  1  0
 57 47  1  0
 59 61  2  0
 60 59  1  0
 62 60  1  0
 63 72  2  0
 63 68  1  0
 64 60  1  0
 64 68  1  0
 65 64  1  0
 66 67  1  0
 66 65  1  0
 67 63  1  0
 68 69  2  0
 69 70  1  0
 71 70  2  0
 72 71  1  0
 73 47  1  0
 73 78  1  0
 73 74  1  0
 74 77  1  1
 74 75  1  0
 76 74  1  0
 78 81  1  0
 79 83  1  0
 79 78  1  0
 80 79  2  0
 83 82  1  0
 85 83  1  0
 85 86  1  0
 85 84  1  0
M  ISO  4   7 100  15 100  45 101  46 101
M  END
>  <TORSDO>  (45) 
F 19

>  <SCORE>  (45) 
-16.556

>  <name>  (45) 
44

>  <ligand_id>  (45) 
44

>  <original_smiles>  (45) 
[H]c1c([H])c([H])c2c(c1[H])C([H])([H])C([H])([H])C([H])([H])C2([H])N([H])C(=O)C1([H])N(C(=O)C([H])(N([H])C(=O)C([H])(N([H])C([H])([H])[H])C([H])([H])[H])C(C([H])([H])[H])(C([H])([H])[H])C([H])([H])[H])C([H])([H])c2c([H])c(OC([H])([H])C(=O)C([H])([H])C3(N([H])C(=O)N4C([H])([H])C([H])([H])C([H])([H])C([H])(n5nc(-c6c([H])c([H])c(Oc7c([H])c([H])c(F)c([H])c7F)c([H])c6[H])c(C(=O)N([H])[H])c5N([H])[H])C4([H])[H])C([H])([H])C3([H])[H])c([H])c([H])c2C1([H])[H]

>  <smiles>  (45) 
[H]c1c([H])c([H])c2c(c1[H])C([H])([H])C([H])([H])C([H])([H])C2([H])N([H])C(=O)C1([H])N(C(=O)C([H])(N([H])C(=O)C([H])(N([H])C([H])([H])[H])C([H])([H])[H])C(C([H])([H])[H])(C([H])([H])[H])C([H])([H])[H])C([H])([H])c2c([H])c(OC([H])([H])C(=O)C([H])([H])C3(N([H])C(=O)N4C([H])([H])C([H])([H])C([H])([H])C([H])(n5nc(-c6c([H])c([H])c(Oc7c([H])c([H])c(F)c([H])c7F)c([H])c6[H])c(C(=O)N([H])[H])c5N([H])[H])C4([H])[H])C([H])([H])C3([H])[H])c([H])c([H])c2C1([H])[H]

$$$$
45:0:0
     RDKit          3D

 87 96  0  0  1  0  0  0  0  0999 V2000
  -29.3050  -22.9170   21.7010 C   0  0  0  0  0  2  0  0  0  0  0  0
  -28.6240  -22.9990   20.5660 C   0  0  0  0  0  3  0  0  0  0  0  0
  -29.9750  -20.1650   21.7560 C   0  0  0  0  0  2  0  0  0  0  0  0
  -29.0550  -21.4020   21.8020 C   0  0  0  0  0  3  0  0  0  0  0  0
  -29.2990  -21.4230   20.1950 C   0  0  0  0  0  3  0  0  0  0  0  0
  -29.2140  -19.6660   20.5410 C   0  0  0  0  0  3  0  0  0  0  0  0
  -28.1670  -24.4770   19.8040 C   0  0  0  0  0  2  0  0  0  0  0  0
  -28.2230  -26.0220   20.3330 O   0  0  0  0  0  0  0  0  0  0  0  0
  -24.6430  -31.9300   23.2540 C   0  0  0  0  0  0  0  0  0  0  0  0
  -27.2060  -27.0980   20.2120 C   0  0  0  0  0  0  0  0  0  0  0  0
  -23.4460  -30.5330   21.6160 C   0  0  0  0  0  3  0  0  0  0  0  0
  -24.8960  -28.9480   20.1760 C   0  0  0  0  0  0  0  0  0  0  0  0
  -26.0090  -30.7610   21.4610 C   0  0  0  0  0  2  0  0  0  0  0  0
  -26.0800  -29.3600   20.7990 C   0  0  0  0  0  0  0  0  0  0  0  0
  -27.2260  -28.4510   20.8000 C   0  0  0  0  0  3  0  0  0  0  0  0
  -25.9980  -26.8370   19.5250 C   0  0  0  0  0  3  0  0  0  0  0  0
  -24.8770  -27.7070   19.5190 C   0  0  0  0  0  3  0  0  0  0  0  0
  -23.6700  -29.8560   20.2350 C   0  0  0  0  0  2  0  0  0  0  0  0
  -24.7200  -31.1030   22.1620 N   0  0  0  0  0  0  0  0  0  0  0  0
  -23.5560  -32.2130   23.7820 O   0  0  0  0  0  0  0  0  0  0  0  0
  -22.7640  -29.5290   22.5830 C   0  0  0  0  0  0  0  0  0  0  0  0
  -21.4350  -29.3520   22.4580 N   0  0  0  0  0  0  0  0  0  0  0  0
  -23.4360  -28.9110   23.4110 O   0  0  0  0  0  0  0  0  0  0  0  0
  -20.9470  -29.9020   21.7660 H   0  0  0  0  0  0  0  0  0  0  0  0
  -18.0640  -28.1100   22.9600 C   0  0  0  0  0  0  0  0  0  0  0  0
  -20.6200  -28.4100   23.2300 C   0  0  0  0  0  3  0  0  0  0  0  0
  -20.7420  -26.9770   22.6630 C   0  0  0  0  0  2  0  0  0  0  0  0
  -19.6460  -26.6350   21.6460 C   0  0  0  0  0  2  0  0  0  0  0  0
  -18.2610  -26.7620   22.2870 C   0  0  0  0  0  2  0  0  0  0  0  0
  -19.1710  -28.8900   23.3890 C   0  0  0  0  0  0  0  0  0  0  0  0
  -18.9330  -30.1480   23.9830 C   0  0  0  0  0  3  0  0  0  0  0  0
  -17.6200  -30.6290   24.1490 C   0  0  0  0  0  3  0  0  0  0  0  0
  -16.5270  -29.8470   23.7350 C   0  0  0  0  0  3  0  0  0  0  0  0
  -16.7500  -28.5880   23.1480 C   0  0  0  0  0  3  0  0  0  0  0  0
  -25.9150  -32.5740   23.8830 C   0  0  0  0  0  3  0  0  0  0  0  0
  -25.5960  -33.9730   24.2180 N   0  0  0  0  0  0  0  0  0  0  0  0
  -25.9230  -35.0360   23.4710 C   0  0  0  0  0  0  0  0  0  0  0  0
  -26.5880  -34.9430   22.4360 O   0  0  0  0  0  0  0  0  0  0  0  0
  -25.0020  -34.1170   25.0220 H   0  0  0  0  0  0  0  0  0  0  0  0
  -24.1910  -36.8360   23.1470 C   0  0  0  0  0  1  0  0  0  0  0  0
  -25.4380  -36.4220   23.9470 C   0  0  0  0  0  3  0  0  0  0  0  0
  -27.5730  -37.3080   24.7780 C   0  0  0  0  0  1  0  0  0  0  0  0
  -26.4690  -37.4780   23.8360 N   0  0  0  0  0  0  0  0  0  0  0  0
  -26.0630  -38.3970   23.9860 H   0  0  0  0  0  0  0  0  0  0  0  0
  -26.4290  -31.8110   25.1670 C   0  0  1  0  0  0  0  0  0  0  0  0
  -25.3300  -31.5760   26.2290 C   0  0  0  0  0  1  0  0  0  0  0  0
  -27.0210  -30.4320   24.7930 C   0  0  0  0  0  1  0  0  0  0  0  0
  -27.5730  -32.6140   25.8280 C   0  0  0  0  0  1  0  0  0  0  0  0
  -29.9570  -18.1760   19.9100 C   0  0  0  0  0  2  0  0  0  0  0  0
  -30.5260  -15.3330   20.0670 C   0  0  0  0  0  0  0  0  0  0  0  0
  -30.4510  -12.9220   19.1480 C   0  0  0  0  0  2  0  0  0  0  0  0
  -29.4880  -12.7860   17.9420 C   0  0  0  0  0  2  0  0  0  0  0  0
  -28.0490  -12.5300   18.4240 C   0  0  0  0  0  2  0  0  0  0  0  0
  -27.6520  -13.4560   19.6010 C   0  0  0  0  0  3  0  0  0  0  0  0
  -28.7400  -13.5340   20.6930 C   0  0  0  0  0  2  0  0  0  0  0  0
  -29.9600  -14.0340   20.0390 N   0  0  0  0  0  0  0  0  0  0  0  0
  -31.7120  -15.3620   19.7110 O   0  0  0  0  0  0  0  0  0  0  0  0
  -29.7740  -16.5770   20.2890 N   0  0  0  0  0  0  0  0  0  0  0  0
  -28.8480  -16.3760   20.6340 H   0  0  0  0  0  0  0  0  0  0  0  0
  -25.3030  -14.0010   20.4350 C   0  0  0  0  0  0  0  0  0  0  0  0
  -24.2580  -13.2160   20.8320 C   0  0  0  0  0  0  0  0  0  0  0  0
  -24.7270  -11.8660   20.7660 C   0  0  0  0  0  0  0  0  0  0  0  0
  -26.3410  -13.1320   20.1440 N   0  0  0  0  0  0  0  0  0  0  0  0
  -26.0070  -11.8410   20.4100 N   0  0  0  0  0  0  0  0  0  0  0  0
  -24.0120  -10.5970   20.9600 C   0  0  0  0  0  0  0  0  0  0  0  0
  -24.4540   -9.6330   21.8920 C   0  0  0  0  0  3  0  0  0  0  0  0
  -23.7360   -8.4320   22.0760 C   0  0  0  0  0  3  0  0  0  0  0  0
  -22.5610   -8.1860   21.3270 C   0  0  0  0  0  0  0  0  0  0  0  0
  -22.1380   -9.1400   20.3820 C   0  0  0  0  0  3  0  0  0  0  0  0
  -22.8590  -10.3310   20.1960 C   0  0  0  0  0  3  0  0  0  0  0  0
  -21.8130   -7.0370   21.4190 O   0  0  0  0  0  0  0  0  0  0  0  0
  -21.7430   -6.3160   22.5830 C   0  0  0  0  0  0  0  0  0  0  0  0
  -21.2640   -6.8840   23.7840 C   0  0  0  0  0  3  0  0  0  0  0  0
  -21.1420   -6.0880   24.9410 C   0  0  0  0  0  3  0  0  0  0  0  0
  -21.4940   -4.7250   24.8980 C   0  0  0  0  0  0  0  0  0  0  0  0
  -21.9670   -4.1570   23.7020 C   0  0  0  0  0  3  0  0  0  0  0  0
  -22.0880   -4.9500   22.5470 C   0  0  0  0  0  0  0  0  0  0  0  0
  -22.5230   -4.3920   21.3920 F   0  0  0  0  0  0  0  0  0  0  0  0
  -21.3690   -3.9580   26.0050 F   0  0  0  0  0  0  0  0  0  0  0  0
  -22.8680  -13.6820   21.1520 C   0  0  0  0  0  0  0  0  0  0  0  0
  -22.1710  -12.9700   22.0290 N   0  0  0  0  0  0  0  0  0  0  0  0
  -22.4100  -14.7130   20.6590 O   0  0  0  0  0  0  0  0  0  0  0  0
  -22.5550  -12.1360   22.4490 H   0  0  0  0  0  0  0  0  0  0  0  0
  -21.2400  -13.2660   22.2890 H   0  0  0  0  0  0  0  0  0  0  0  0
  -25.4540  -15.3750   20.2670 N   0  0  0  0  0  0  0  0  0  0  0  0
  -24.6880  -16.0230   20.4120 H   0  0  0  0  0  0  0  0  0  0  0  0
  -26.2750  -15.8190   19.8780 H   0  0  0  0  0  0  0  0  0  0  0  0
  2  7  1  0
  2  1  1  0
  3  4  1  0
  4  1  1  0
  5  6  1  0
  5  2  1  0
  5  4  1  0
  6  3  1  0
  7  8  1  0
  9 20  2  0
  9 35  1  0
 10  8  1  0
 10 15  1  0
 11 19  1  0
 11 21  1  0
 12 18  1  0
 12 14  1  0
 13 19  1  0
 14 15  2  0
 14 13  1  0
 16 10  2  0
 17 16  1  0
 17 12  2  0
 18 11  1  0
 19  9  1  0
 21 23  2  0
 22 21  1  0
 22 26  1  0
 24 22  1  0
 25 34  2  0
 25 30  1  0
 26 30  1  0
 27 26  1  0
 28 29  1  0
 28 27  1  0
 29 25  1  0
 30 31  2  0
 31 32  1  0
 33 32  2  0
 34 33  1  0
 35 36  1  0
 35 45  1  0
 36 39  1  0
 37 41  1  0
 37 36  1  0
 38 37  2  0
 40 41  1  0
 43 41  1  0
 43 44  1  0
 43 42  1  0
 45 48  1  1
 45 46  1  0
 47 45  1  0
 49 58  1  0
 49  6  1  0
 50 58  1  0
 51 56  1  0
 52 53  1  0
 52 51  1  0
 53 54  1  0
 54 63  1  0
 54 55  1  0
 56 50  1  0
 56 55  1  0
 57 50  2  0
 58 59  1  0
 60 61  2  0
 61 80  1  0
 62 61  1  0
 62 65  1  0
 63 64  1  0
 63 60  1  0
 64 62  2  0
 65 66  1  0
 66 67  2  0
 68 71  1  0
 68 67  1  0
 69 68  2  0
 70 69  1  0
 70 65  2  0
 71 72  1  0
 72 73  1  0
 73 74  2  0
 75 74  1  0
 75 79  1  0
 76 75  2  0
 77 72  2  0
 77 76  1  0
 78 77  1  0
 80 81  1  0
 81 84  1  0
 81 83  1  0
 82 80  2  0
 85 86  1  0
 85 60  1  0
 87 85  1  0
M  ISO  4   7 101   8 101  50 100  58 100
M  END
>  <TORSDO>  (46) 
F 18

>  <SCORE>  (46) 
-15.732

>  <name>  (46) 
45

>  <ligand_id>  (46) 
45

>  <original_smiles>  (46) 
[H]C1=C(C([H])([H])Oc2c([H])c([H])c3c(c2[H])C([H])([H])N(C(=O)C([H])(N([H])C(=O)C([H])(N([H])C([H])([H])[H])C([H])([H])[H])C(C([H])([H])[H])(C([H])([H])[H])C([H])([H])[H])C([H])(C(=O)N([H])C2([H])c4c([H])c([H])c([H])c([H])c4C([H])([H])C([H])([H])C2([H])[H])C3([H])[H])C2([H])C1([H])C([H])([H])C2([H])C([H])([H])N([H])C(=O)N1C([H])([H])C([H])([H])C([H])([H])C([H])(n2nc(-c3c([H])c([H])c(Oc4c([H])c([H])c(F)c([H])c4F)c([H])c3[H])c(C(=O)N([H])[H])c2N([H])[H])C1([H])[H]

>  <smiles>  (46) 
[H]C1=C(C([H])([H])Oc2c([H])c([H])c3c(c2[H])C([H])([H])N(C(=O)C([H])(N([H])C(=O)C([H])(N([H])C([H])([H])[H])C([H])([H])[H])C(C([H])([H])[H])(C([H])([H])[H])C([H])([H])[H])C([H])(C(=O)N([H])C2([H])c4c([H])c([H])c([H])c([H])c4C([H])([H])C([H])([H])C2([H])[H])C3([H])[H])C2([H])C1([H])C([H])([H])C2([H])C([H])([H])N([H])C(=O)N1C([H])([H])C([H])([H])C([H])([H])C([H])(n2nc(-c3c([H])c([H])c(Oc4c([H])c([H])c(F)c([H])c4F)c([H])c3[H])c(C(=O)N([H])[H])c2N([H])[H])C1([H])[H]

$$$$
46:0:0
     RDKit          3D

 88 97  0  0  1  0  0  0  0  0999 V2000
  -29.3470  -21.5420   20.0640 C   0  0  0  0  0  3  0  0  0  0  0  0
  -28.4020  -22.6760   20.0710 C   0  0  0  0  0  3  0  0  0  0  0  0
  -29.4580  -21.6380   18.5310 C   0  0  0  0  0  2  0  0  0  0  0  0
  -27.3340  -22.2970   19.0480 C   0  0  0  0  0  2  0  0  0  0  0  0
  -27.9750  -19.7530   18.9530 C   0  0  0  0  0  2  0  0  0  0  0  0
  -29.2130  -19.7820   19.8630 C   0  0  0  0  0  3  0  0  0  0  0  0
  -28.0290  -21.1580   18.2620 C   0  0  0  0  0  3  0  0  0  0  0  0
  -28.1980  -24.2850   20.7610 C   0  0  0  0  0  2  0  0  0  0  0  0
  -28.2450  -25.8460   20.2000 O   0  0  0  0  0  0  0  0  0  0  0  0
  -24.6370  -31.8450   23.2130 C   0  0  0  0  0  0  0  0  0  0  0  0
  -27.2150  -26.9310   20.2600 C   0  0  0  0  0  0  0  0  0  0  0  0
  -23.4560  -30.4370   21.5770 C   0  0  0  0  0  3  0  0  0  0  0  0
  -24.9140  -28.8160   20.1850 C   0  0  0  0  0  0  0  0  0  0  0  0
  -26.0230  -30.6490   21.4430 C   0  0  0  0  0  2  0  0  0  0  0  0
  -26.1000  -29.2280   20.8060 C   0  0  0  0  0  0  0  0  0  0  0  0
  -27.2490  -28.3100   20.8090 C   0  0  0  0  0  3  0  0  0  0  0  0
  -25.9920  -26.6710   19.6030 C   0  0  0  0  0  3  0  0  0  0  0  0
  -24.8840  -27.5560   19.5630 C   0  0  0  0  0  3  0  0  0  0  0  0
  -23.6960  -29.7410   20.2090 C   0  0  0  0  0  2  0  0  0  0  0  0
  -24.7280  -31.0040   22.1320 N   0  0  0  0  0  0  0  0  0  0  0  0
  -23.5420  -32.1360   23.7260 O   0  0  0  0  0  0  0  0  0  0  0  0
  -22.7570  -29.4460   22.5470 C   0  0  0  0  0  0  0  0  0  0  0  0
  -21.4260  -29.2830   22.4200 N   0  0  0  0  0  0  0  0  0  0  0  0
  -23.4190  -28.8240   23.3820 O   0  0  0  0  0  0  0  0  0  0  0  0
  -20.9430  -29.8390   21.7270 H   0  0  0  0  0  0  0  0  0  0  0  0
  -18.0430  -28.0690   22.9200 C   0  0  0  0  0  0  0  0  0  0  0  0
  -20.6020  -28.3470   23.1930 C   0  0  0  0  0  3  0  0  0  0  0  0
  -20.7090  -26.9100   22.6290 C   0  0  0  0  0  2  0  0  0  0  0  0
  -19.6120  -26.5780   21.6120 C   0  0  0  0  0  2  0  0  0  0  0  0
  -18.2290  -26.7190   22.2490 C   0  0  0  0  0  2  0  0  0  0  0  0
  -19.1560  -28.8410   23.3480 C   0  0  0  0  0  0  0  0  0  0  0  0
  -18.9280  -30.1020   23.9390 C   0  0  0  0  0  3  0  0  0  0  0  0
  -17.6190  -30.5960   24.1030 C   0  0  0  0  0  3  0  0  0  0  0  0
  -16.5210  -29.8230   23.6880 C   0  0  0  0  0  3  0  0  0  0  0  0
  -16.7330  -28.5610   23.1040 C   0  0  0  0  0  3  0  0  0  0  0  0
  -25.9020  -32.4960   23.8500 C   0  0  0  0  0  3  0  0  0  0  0  0
  -25.5790  -33.8980   24.1730 N   0  0  0  0  0  0  0  0  0  0  0  0
  -25.9150  -34.9560   23.4230 C   0  0  0  0  0  0  0  0  0  0  0  0
  -26.5930  -34.8570   22.3980 O   0  0  0  0  0  0  0  0  0  0  0  0
  -24.9830  -34.0480   24.9730 H   0  0  0  0  0  0  0  0  0  0  0  0
  -24.1920  -36.7560   23.0660 C   0  0  0  0  0  1  0  0  0  0  0  0
  -25.4280  -36.3460   23.8830 C   0  0  0  0  0  3  0  0  0  0  0  0
  -27.5560  -37.2340   24.7280 C   0  0  0  0  0  1  0  0  0  0  0  0
  -26.4620  -37.4010   23.7750 N   0  0  0  0  0  0  0  0  0  0  0  0
  -26.0550  -38.3210   23.9170 H   0  0  0  0  0  0  0  0  0  0  0  0
  -26.3980  -31.7450   25.1480 C   0  0  1  0  0  0  0  0  0  0  0  0
  -25.2920  -31.5270   26.2080 C   0  0  0  0  0  1  0  0  0  0  0  0
  -26.9850  -30.3610   24.7930 C   0  0  0  0  0  1  0  0  0  0  0  0
  -27.5390  -32.5480   25.8180 C   0  0  0  0  0  1  0  0  0  0  0  0
  -29.7890  -18.2570   20.6570 C   0  0  0  0  0  2  0  0  0  0  0  0
  -30.3700  -15.3350   20.2680 C   0  0  0  0  0  0  0  0  0  0  0  0
  -30.3590  -12.8920   19.3690 C   0  0  0  0  0  2  0  0  0  0  0  0
  -29.4360  -12.6510   18.1470 C   0  0  0  0  0  2  0  0  0  0  0  0
  -27.9960  -12.3460   18.5970 C   0  0  0  0  0  2  0  0  0  0  0  0
  -27.5320  -13.3200   19.7100 C   0  0  0  0  0  3  0  0  0  0  0  0
  -28.5790  -13.5070   20.8270 C   0  0  0  0  0  2  0  0  0  0  0  0
  -29.7980  -14.0310   20.1810 N   0  0  0  0  0  0  0  0  0  0  0  0
  -31.6000  -15.3220   20.1080 O   0  0  0  0  0  0  0  0  0  0  0  0
  -29.6040  -16.6120   20.3390 N   0  0  0  0  0  0  0  0  0  0  0  0
  -28.6200  -16.3850   20.3430 H   0  0  0  0  0  0  0  0  0  0  0  0
  -25.1630  -13.8730   20.4750 C   0  0  0  0  0  0  0  0  0  0  0  0
  -24.1070  -13.0950   20.8530 C   0  0  0  0  0  0  0  0  0  0  0  0
  -24.5790  -11.7460   20.8310 C   0  0  0  0  0  0  0  0  0  0  0  0
  -26.2090  -12.9990   20.2290 N   0  0  0  0  0  0  0  0  0  0  0  0
  -25.8700  -11.7150   20.5140 N   0  0  0  0  0  0  0  0  0  0  0  0
  -23.8560  -10.4830   21.0260 C   0  0  0  0  0  0  0  0  0  0  0  0
  -24.2930   -9.5130   21.9570 C   0  0  0  0  0  3  0  0  0  0  0  0
  -23.5640   -8.3180   22.1400 C   0  0  0  0  0  3  0  0  0  0  0  0
  -22.3860   -8.0810   21.3900 C   0  0  0  0  0  0  0  0  0  0  0  0
  -21.9720   -9.0370   20.4450 C   0  0  0  0  0  3  0  0  0  0  0  0
  -22.7010  -10.2250   20.2610 C   0  0  0  0  0  3  0  0  0  0  0  0
  -21.6300   -6.9380   21.4810 O   0  0  0  0  0  0  0  0  0  0  0  0
  -21.5930   -6.1940   22.6340 C   0  0  0  0  0  0  0  0  0  0  0  0
  -21.1760   -6.7480   23.8650 C   0  0  0  0  0  3  0  0  0  0  0  0
  -21.0810   -5.9300   25.0080 C   0  0  0  0  0  3  0  0  0  0  0  0
  -21.3960   -4.5610   24.9240 C   0  0  0  0  0  0  0  0  0  0  0  0
  -21.8050   -4.0060   23.6990 C   0  0  0  0  0  3  0  0  0  0  0  0
  -21.9000   -4.8210   22.5570 C   0  0  0  0  0  0  0  0  0  0  0  0
  -22.2740   -4.2780   21.3720 F   0  0  0  0  0  0  0  0  0  0  0  0
  -21.2990   -3.7720   26.0210 F   0  0  0  0  0  0  0  0  0  0  0  0
  -22.7080  -13.5690   21.1170 C   0  0  0  0  0  0  0  0  0  0  0  0
  -21.9810  -12.8790   21.9860 N   0  0  0  0  0  0  0  0  0  0  0  0
  -22.2690  -14.5880   20.5840 O   0  0  0  0  0  0  0  0  0  0  0  0
  -22.3530  -12.0560   22.4350 H   0  0  0  0  0  0  0  0  0  0  0  0
  -21.0420  -13.1800   22.2010 H   0  0  0  0  0  0  0  0  0  0  0  0
  -25.3190  -15.2440   20.2900 N   0  0  0  0  0  0  0  0  0  0  0  0
  -24.5380  -15.8850   20.3650 H   0  0  0  0  0  0  0  0  0  0  0  0
  -26.1440  -15.6700   19.8920 H   0  0  0  0  0  0  0  0  0  0  0  0
  1  3  1  0
  1  2  1  0
  2  8  1  0
  4  2  1  0
  5  6  1  0
  6  1  1  0
  6 50  1  0
  7  3  1  0
  7  5  1  0
  7  4  1  0
  9 11  1  0
  9  8  1  0
 10 21  2  0
 11 16  1  0
 12 20  1  0
 12 22  1  0
 13 19  1  0
 13 15  1  0
 14 20  1  0
 15 16  2  0
 15 14  1  0
 17 11  2  0
 18 17  1  0
 18 13  2  0
 19 12  1  0
 20 10  1  0
 22 24  2  0
 23 22  1  0
 25 23  1  0
 26 35  2  0
 26 31  1  0
 27 23  1  0
 27 31  1  0
 28 27  1  0
 29 30  1  0
 29 28  1  0
 30 26  1  0
 31 32  2  0
 32 33  1  0
 34 33  2  0
 35 34  1  0
 36 10  1  0
 36 37  1  0
 36 46  1  0
 37 40  1  0
 38 42  1  0
 38 37  1  0
 39 38  2  0
 42 41  1  0
 44 42  1  0
 44 45  1  0
 44 43  1  0
 46 49  1  1
 46 47  1  0
 48 46  1  0
 51 59  1  0
 52 57  1  0
 53 54  1  0
 53 52  1  0
 55 54  1  0
 55 64  1  0
 55 56  1  0
 57 51  1  0
 57 56  1  0
 58 51  2  0
 59 60  1  0
 59 50  1  0
 61 62  2  0
 62 81  1  0
 63 62  1  0
 63 66  1  0
 64 61  1  0
 64 65  1  0
 65 63  2  0
 66 67  1  0
 67 68  2  0
 69 72  1  0
 69 68  1  0
 70 69  2  0
 71 70  1  0
 71 66  2  0
 72 73  1  0
 73 74  1  0
 74 75  2  0
 76 75  1  0
 76 80  1  0
 77 76  2  0
 78 73  2  0
 78 77  1  0
 79 78  1  0
 81 82  1  0
 82 85  1  0
 82 84  1  0
 83 81  2  0
 86 87  1  0
 86 61  1  0
 88 86  1  0
M  ISO  4   8 101   9 101  51 100  59 100
M  END
>  <TORSDO>  (47) 
F 18

>  <SCORE>  (47) 
-16.649

>  <name>  (47) 
46

>  <ligand_id>  (47) 
46

>  <original_smiles>  (47) 
[H]c1c([H])c([H])c2c(c1[H])C([H])([H])C([H])([H])C([H])([H])C2([H])N([H])C(=O)C1([H])N(C(=O)C([H])(N([H])C(=O)C([H])(N([H])C([H])([H])[H])C([H])([H])[H])C(C([H])([H])[H])(C([H])([H])[H])C([H])([H])[H])C([H])([H])c2c([H])c(OC([H])([H])C3=C4C([H])([H])C([H])(C3([H])[H])C([H])([H])C4([H])C([H])([H])N([H])C(=O)N3C([H])([H])C([H])([H])C([H])([H])C([H])(n4nc(-c5c([H])c([H])c(Oc6c([H])c([H])c(F)c([H])c6F)c([H])c5[H])c(C(=O)N([H])[H])c4N([H])[H])C3([H])[H])c([H])c([H])c2C1([H])[H]

>  <smiles>  (47) 
[H]c1c([H])c([H])c2c(c1[H])C([H])([H])C([H])([H])C([H])([H])C2([H])N([H])C(=O)C1([H])N(C(=O)C([H])(N([H])C(=O)C([H])(N([H])C([H])([H])[H])C([H])([H])[H])C(C([H])([H])[H])(C([H])([H])[H])C([H])([H])[H])C([H])([H])c2c([H])c(OC([H])([H])C3=C4C([H])([H])C([H])(C3([H])[H])C([H])([H])C4([H])C([H])([H])N([H])C(=O)N3C([H])([H])C([H])([H])C([H])([H])C([H])(n4nc(-c5c([H])c([H])c(Oc6c([H])c([H])c(F)c([H])c6F)c([H])c5[H])c(C(=O)N([H])[H])c4N([H])[H])C3([H])[H])c([H])c([H])c2C1([H])[H]

$$$$
47:0:0
     RDKit          3D

 90100  0  0  1  0  0  0  0  0999 V2000
  -28.9390  -22.2590   19.9870 N   0  0  0  0  0  4  0  0  0  0  0  0
  -27.9640  -22.0530   19.8340 H   0  0  0  0  0  0  0  0  0  0  0  0
  -29.3770  -22.2590   19.0790 H   0  0  0  0  0  0  0  0  0  0  0  0
  -29.5230  -21.0750   20.7830 C   0  0  0  0  0  2  0  0  0  0  0  0
  -29.4860  -18.2430   21.7960 C   0  0  0  0  0  2  0  0  0  0  0  0
  -28.8330  -18.3050   20.4040 C   0  0  2  0  0  0  0  0  0  0  0  0
  -30.6220  -18.4550   20.7850 C   0  0  1  0  0  0  0  0  0  0  0  0
  -29.7160  -19.5890   20.1160 C   0  0  0  0  0  3  0  0  0  0  0  0
  -29.9720  -17.3340   19.8860 C   0  0  0  0  0  3  0  0  0  0  0  0
  -30.6720  -14.7590   19.9820 C   0  0  0  0  0  0  0  0  0  0  0  0
  -30.4090  -12.5080   18.9270 C   0  0  0  0  0  2  0  0  0  0  0  0
  -29.3920  -12.6200   17.7670 C   0  0  0  0  0  2  0  0  0  0  0  0
  -27.9490  -12.4470   18.2830 C   0  0  0  0  0  2  0  0  0  0  0  0
  -27.6630  -13.3000   19.5470 C   0  0  0  0  0  3  0  0  0  0  0  0
  -28.7880  -13.1650   20.5980 C   0  0  0  0  0  2  0  0  0  0  0  0
  -30.0520  -13.5290   19.9420 N   0  0  0  0  0  0  0  0  0  0  0  0
  -31.8090  -14.8950   19.5190 O   0  0  0  0  0  0  0  0  0  0  0  0
  -29.9030  -15.8590   20.3320 N   0  0  0  0  0  0  0  0  0  0  0  0
  -29.0190  -15.5990   20.7410 H   0  0  0  0  0  0  0  0  0  0  0  0
  -25.3300  -13.8870   20.4380 C   0  0  0  0  0  0  0  0  0  0  0  0
  -24.2830  -13.1130   20.8580 C   0  0  0  0  0  0  0  0  0  0  0  0
  -24.7320  -11.7600   20.7650 C   0  0  0  0  0  0  0  0  0  0  0  0
  -26.3480  -13.0080   20.1130 N   0  0  0  0  0  0  0  0  0  0  0  0
  -26.0000  -11.7210   20.3700 N   0  0  0  0  0  0  0  0  0  0  0  0
  -24.0110  -10.4960   20.9690 C   0  0  0  0  0  0  0  0  0  0  0  0
  -24.4720   -9.5190   21.8770 C   0  0  0  0  0  3  0  0  0  0  0  0
  -23.7480   -8.3230   22.0700 C   0  0  0  0  0  3  0  0  0  0  0  0
  -22.5480   -8.0940   21.3570 C   0  0  0  0  0  0  0  0  0  0  0  0
  -22.1040   -9.0610   20.4370 C   0  0  0  0  0  3  0  0  0  0  0  0
  -22.8290  -10.2490   20.2420 C   0  0  0  0  0  3  0  0  0  0  0  0
  -21.7930   -6.9500   21.4610 O   0  0  0  0  0  0  0  0  0  0  0  0
  -21.7520   -6.2190   22.6210 C   0  0  0  0  0  0  0  0  0  0  0  0
  -21.3420   -6.7870   23.8470 C   0  0  0  0  0  3  0  0  0  0  0  0
  -21.2470   -5.9810   24.9990 C   0  0  0  0  0  3  0  0  0  0  0  0
  -21.5540   -4.6100   24.9260 C   0  0  0  0  0  0  0  0  0  0  0  0
  -21.9590   -4.0420   23.7070 C   0  0  0  0  0  3  0  0  0  0  0  0
  -22.0550   -4.8440   22.5560 C   0  0  0  0  0  0  0  0  0  0  0  0
  -22.4250   -4.2890   21.3770 F   0  0  0  0  0  0  0  0  0  0  0  0
  -21.4570   -3.8340   26.0320 F   0  0  0  0  0  0  0  0  0  0  0  0
  -22.9110  -13.5930   21.2310 C   0  0  0  0  0  0  0  0  0  0  0  0
  -22.2330  -12.8840   22.1260 N   0  0  0  0  0  0  0  0  0  0  0  0
  -22.4480  -14.6340   20.7630 O   0  0  0  0  0  0  0  0  0  0  0  0
  -22.6210  -12.0450   22.5310 H   0  0  0  0  0  0  0  0  0  0  0  0
  -21.3140  -13.1870   22.4150 H   0  0  0  0  0  0  0  0  0  0  0  0
  -25.4960  -15.2590   20.2820 N   0  0  0  0  0  0  0  0  0  0  0  0
  -24.7410  -15.9160   20.4500 H   0  0  0  0  0  0  0  0  0  0  0  0
  -26.3140  -15.6950   19.8770 H   0  0  0  0  0  0  0  0  0  0  0  0
  -29.0500  -23.6970   20.5580 C   0  0  0  0  0  3  0  0  0  0  0  0
  -28.1520  -24.8880   19.9090 C   0  0  0  0  0  3  0  0  0  0  0  0
  -28.3020  -26.3450   20.2920 O   0  0  0  0  0  0  0  0  0  0  0  0
  -24.6120  -31.8670   23.2400 C   0  0  0  0  0  0  0  0  0  0  0  0
  -27.2050  -27.2420   20.2030 C   0  0  0  0  0  0  0  0  0  0  0  0
  -23.4050  -30.4640   21.6090 C   0  0  0  0  0  3  0  0  0  0  0  0
  -24.8510  -28.9010   20.1850 C   0  0  0  0  0  0  0  0  0  0  0  0
  -25.9500  -30.7590   21.4290 C   0  0  0  0  0  2  0  0  0  0  0  0
  -26.0240  -29.3750   20.7860 C   0  0  0  0  0  0  0  0  0  0  0  0
  -27.2000  -28.5550   20.7870 C   0  0  0  0  0  3  0  0  0  0  0  0
  -26.0120  -26.8530   19.5490 C   0  0  0  0  0  3  0  0  0  0  0  0
  -24.8520  -27.6500   19.5560 C   0  0  0  0  0  3  0  0  0  0  0  0
  -23.6180  -29.7830   20.2310 C   0  0  0  0  0  2  0  0  0  0  0  0
  -24.6750  -31.0500   22.1480 N   0  0  0  0  0  0  0  0  0  0  0  0
  -23.5300  -32.1520   23.7740 O   0  0  0  0  0  0  0  0  0  0  0  0
  -22.7380  -29.4540   22.5740 C   0  0  0  0  0  0  0  0  0  0  0  0
  -21.4130  -29.2710   22.4400 N   0  0  0  0  0  0  0  0  0  0  0  0
  -23.4130  -28.8380   23.4020 O   0  0  0  0  0  0  0  0  0  0  0  0
  -20.9260  -29.8210   21.7460 H   0  0  0  0  0  0  0  0  0  0  0  0
  -18.0420  -28.0430   22.9110 C   0  0  0  0  0  0  0  0  0  0  0  0
  -20.5930  -28.3380   23.2130 C   0  0  0  0  0  3  0  0  0  0  0  0
  -20.7190  -26.8980   22.6650 C   0  0  0  0  0  2  0  0  0  0  0  0
  -19.6370  -26.5450   21.6390 C   0  0  0  0  0  2  0  0  0  0  0  0
  -18.2440  -26.6850   22.2610 C   0  0  0  0  0  2  0  0  0  0  0  0
  -19.1450  -28.8260   23.3440 C   0  0  0  0  0  0  0  0  0  0  0  0
  -18.9030  -30.0950   23.9120 C   0  0  0  0  0  3  0  0  0  0  0  0
  -17.5900  -30.5850   24.0510 C   0  0  0  0  0  3  0  0  0  0  0  0
  -16.5010  -29.8000   23.6340 C   0  0  0  0  0  3  0  0  0  0  0  0
  -16.7280  -28.5310   23.0700 C   0  0  0  0  0  3  0  0  0  0  0  0
  -25.8970  -32.5000   23.8590 C   0  0  0  0  0  3  0  0  0  0  0  0
  -26.4130  -31.7350   25.1390 C   0  0  1  0  0  0  0  0  0  0  0  0
  -25.3190  -31.5080   26.2080 C   0  0  0  0  0  1  0  0  0  0  0  0
  -26.9910  -30.3530   24.7570 C   0  0  0  0  0  1  0  0  0  0  0  0
  -27.5660  -32.5290   25.7960 C   0  0  0  0  0  1  0  0  0  0  0  0
  -25.5900  -33.9010   24.1840 N   0  0  0  0  0  0  0  0  0  0  0  0
  -25.9150  -34.9510   23.4180 C   0  0  0  0  0  0  0  0  0  0  0  0
  -26.5720  -34.8420   22.3790 O   0  0  0  0  0  0  0  0  0  0  0  0
  -25.0030  -34.0630   24.9900 H   0  0  0  0  0  0  0  0  0  0  0  0
  -24.1740  -36.7370   23.0900 C   0  0  0  0  0  1  0  0  0  0  0  0
  -25.4350  -36.3410   23.8760 C   0  0  0  0  0  3  0  0  0  0  0  0
  -27.5850  -37.2370   24.6520 C   0  0  0  0  0  1  0  0  0  0  0  0
  -26.4620  -37.3960   23.7310 N   0  0  0  0  0  0  0  0  0  0  0  0
  -26.0570  -38.3160   23.8820 H   0  0  0  0  0  0  0  0  0  0  0  0
  1 48  1  0
  1  4  1  0
  2  1  1  0
  3  1  1  0
  6  7  1  0
  6  5  1  1
  7  5  1  1
  8  6  1  0
  8  4  1  0
  8  7  1  0
  9 18  1  0
  9  6  1  0
  9  7  1  0
 10 18  1  0
 11 16  1  0
 12 13  1  0
 12 11  1  0
 14 13  1  0
 14 23  1  0
 14 15  1  0
 16 10  1  0
 16 15  1  0
 17 10  2  0
 18 19  1  0
 20 21  2  0
 21 40  1  0
 22 21  1  0
 22 25  1  0
 23 24  1  0
 23 20  1  0
 24 22  2  0
 25 26  1  0
 26 27  2  0
 28 31  1  0
 28 27  1  0
 29 28  2  0
 30 29  1  0
 30 25  2  0
 31 32  1  0
 32 33  1  0
 33 34  2  0
 35 34  1  0
 35 39  1  0
 36 35  2  0
 37 32  2  0
 37 36  1  0
 38 37  1  0
 40 41  1  0
 41 44  1  0
 41 43  1  0
 42 40  2  0
 45 20  1  0
 45 46  1  0
 47 45  1  0
 49 50  1  0
 49 48  2  0
 51 62  2  0
 52 50  1  0
 52 57  1  0
 53 61  1  0
 53 63  1  0
 54 60  1  0
 54 56  1  0
 55 61  1  0
 56 57  2  0
 56 55  1  0
 58 59  1  0
 58 52  2  0
 59 54  2  0
 60 53  1  0
 61 51  1  0
 63 65  2  0
 64 63  1  0
 66 64  1  0
 67 76  2  0
 67 72  1  0
 68 64  1  0
 68 72  1  0
 69 68  1  0
 70 71  1  0
 70 69  1  0
 71 67  1  0
 72 73  2  0
 73 74  1  0
 75 74  2  0
 76 75  1  0
 77 51  1  0
 77 82  1  0
 77 78  1  0
 78 81  1  1
 78 79  1  0
 80 78  1  0
 82 85  1  0
 83 87  1  0
 83 82  1  0
 84 83  2  0
 87 86  1  0
 89 87  1  0
 89 90  1  0
 89 88  1  0
M  ISO  4  10 100  18 100  49 101  50 101
M  END
>  <TORSDO>  (48) 
F 20

>  <SCORE>  (48) 
-12.981

>  <name>  (48) 
47

>  <ligand_id>  (48) 
47

>  <original_smiles>  (48) 
[H]c1c([H])c([H])c2c(c1[H])C([H])([H])C([H])([H])C([H])([H])C2([H])N([H])C(=O)C1([H])N(C(=O)C([H])(N([H])C(=O)C([H])(N([H])C([H])([H])[H])C([H])([H])[H])C(C([H])([H])[H])(C([H])([H])[H])C([H])([H])[H])C([H])([H])c2c([H])c(OC([H])([H])C([H])([H])[N+]([H])([H])C([H])([H])C3([H])C4([H])C([H])([H])C3([H])C4([H])N([H])C(=O)N3C([H])([H])C([H])([H])C([H])([H])C([H])(n4nc(-c5c([H])c([H])c(Oc6c([H])c([H])c(F)c([H])c6F)c([H])c5[H])c(C(=O)N([H])[H])c4N([H])[H])C3([H])[H])c([H])c([H])c2C1([H])[H]

>  <smiles>  (48) 
[H]c1c([H])c([H])c2c(c1[H])C([H])([H])C([H])([H])C([H])([H])C2([H])N([H])C(=O)C1([H])N(C(=O)C([H])(N([H])C(=O)C([H])(N([H])C([H])([H])[H])C([H])([H])[H])C(C([H])([H])[H])(C([H])([H])[H])C([H])([H])[H])C([H])([H])c2c([H])c(OC([H])([H])C([H])([H])[N+]([H])([H])C([H])([H])C3([H])C4([H])C([H])([H])C3([H])C4([H])N([H])C(=O)N3C([H])([H])C([H])([H])C([H])([H])C([H])(n4nc(-c5c([H])c([H])c(Oc6c([H])c([H])c(F)c([H])c6F)c([H])c5[H])c(C(=O)N([H])[H])c4N([H])[H])C3([H])[H])c([H])c([H])c2C1([H])[H]

$$$$
48:0:0
     RDKit          3D

 89 98  0  0  1  0  0  0  0  0999 V2000
  -28.8600  -21.3110   21.4590 C   0  0  0  0  0  2  0  0  0  0  0  0
  -29.6330  -21.4310   19.3070 C   0  0  0  0  0  2  0  0  0  0  0  0
  -28.7470  -19.8360   20.9110 C   0  0  0  0  0  3  0  0  0  0  0  0
  -29.2490  -19.9360   19.5140 C   0  0  0  0  0  3  0  0  0  0  0  0
  -29.8690  -18.8330   20.4390 C   0  0  0  0  0  3  0  0  0  0  0  0
  -28.8550  -22.2550   20.2830 N   0  0  2  0  0  4  0  0  0  0  0  0
  -27.9080  -22.2290   19.9400 H   0  0  0  0  0  0  0  0  0  0  0  0
  -29.7660  -17.3090   19.8890 C   0  0  0  0  0  2  0  0  0  0  0  0
  -30.6030  -14.8300   20.3080 C   0  0  0  0  0  0  0  0  0  0  0  0
  -30.4140  -12.5560   19.2820 C   0  0  0  0  0  2  0  0  0  0  0  0
  -29.4730  -12.6460   18.0570 C   0  0  0  0  0  2  0  0  0  0  0  0
  -27.9940  -12.5010   18.4650 C   0  0  0  0  0  2  0  0  0  0  0  0
  -27.6350  -13.3400   19.7180 C   0  0  0  0  0  3  0  0  0  0  0  0
  -28.6910  -13.2200   20.8360 C   0  0  0  0  0  2  0  0  0  0  0  0
  -29.9920  -13.5940   20.2600 N   0  0  0  0  0  0  0  0  0  0  0  0
  -31.7530  -14.9590   19.8730 O   0  0  0  0  0  0  0  0  0  0  0  0
  -29.8440  -15.9570   20.6290 N   0  0  0  0  0  0  0  0  0  0  0  0
  -29.0030  -15.7210   21.1340 H   0  0  0  0  0  0  0  0  0  0  0  0
  -25.2440  -13.9160   20.4350 C   0  0  0  0  0  0  0  0  0  0  0  0
  -24.1820  -13.1360   20.8090 C   0  0  0  0  0  0  0  0  0  0  0  0
  -24.6540  -11.7870   20.7880 C   0  0  0  0  0  0  0  0  0  0  0  0
  -26.2930  -13.0400   20.2070 N   0  0  0  0  0  0  0  0  0  0  0  0
  -25.9460  -11.7560   20.4780 N   0  0  0  0  0  0  0  0  0  0  0  0
  -23.9350  -10.5210   20.9840 C   0  0  0  0  0  0  0  0  0  0  0  0
  -24.3680   -9.5640   21.9270 C   0  0  0  0  0  3  0  0  0  0  0  0
  -23.6460   -8.3670   22.1150 C   0  0  0  0  0  3  0  0  0  0  0  0
  -22.4780   -8.1180   21.3560 C   0  0  0  0  0  0  0  0  0  0  0  0
  -22.0620   -9.0650   20.4030 C   0  0  0  0  0  3  0  0  0  0  0  0
  -22.7850  -10.2540   20.2150 C   0  0  0  0  0  3  0  0  0  0  0  0
  -21.7250   -6.9720   21.4540 O   0  0  0  0  0  0  0  0  0  0  0  0
  -21.6710   -6.2410   22.6140 C   0  0  0  0  0  0  0  0  0  0  0  0
  -21.2340   -6.8060   23.8310 C   0  0  0  0  0  3  0  0  0  0  0  0
  -21.1290   -6.0020   24.9840 C   0  0  0  0  0  3  0  0  0  0  0  0
  -21.4470   -4.6320   24.9180 C   0  0  0  0  0  0  0  0  0  0  0  0
  -21.8770   -4.0660   23.7050 C   0  0  0  0  0  3  0  0  0  0  0  0
  -21.9840   -4.8670   22.5550 C   0  0  0  0  0  0  0  0  0  0  0  0
  -22.3790   -4.3120   21.3840 F   0  0  0  0  0  0  0  0  0  0  0  0
  -21.3390   -3.8580   26.0230 F   0  0  0  0  0  0  0  0  0  0  0  0
  -22.7830  -13.6080   21.0800 C   0  0  0  0  0  0  0  0  0  0  0  0
  -22.0600  -12.9130   21.9510 N   0  0  0  0  0  0  0  0  0  0  0  0
  -22.3410  -14.6280   20.5570 O   0  0  0  0  0  0  0  0  0  0  0  0
  -22.4340  -12.0910   22.3980 H   0  0  0  0  0  0  0  0  0  0  0  0
  -21.1210  -13.2100   22.1730 H   0  0  0  0  0  0  0  0  0  0  0  0
  -25.3990  -15.2880   20.2540 N   0  0  0  0  0  0  0  0  0  0  0  0
  -24.6250  -15.9360   20.3590 H   0  0  0  0  0  0  0  0  0  0  0  0
  -26.2430  -15.7270   19.9120 H   0  0  0  0  0  0  0  0  0  0  0  0
  -29.2430  -23.7710   20.3970 C   0  0  0  0  0  3  0  0  0  0  0  0
  -28.0900  -24.9260   20.5460 C   0  0  0  0  0  3  0  0  0  0  0  0
  -28.3350  -26.4030   20.2700 O   0  0  0  0  0  0  0  0  0  0  0  0
  -24.6170  -31.9090   23.2470 C   0  0  0  0  0  0  0  0  0  0  0  0
  -27.2310  -27.2980   20.2030 C   0  0  0  0  0  0  0  0  0  0  0  0
  -23.4210  -30.5140   21.5990 C   0  0  0  0  0  3  0  0  0  0  0  0
  -24.8740  -28.9580   20.1710 C   0  0  0  0  0  0  0  0  0  0  0  0
  -25.9670  -30.8150   21.4350 C   0  0  0  0  0  2  0  0  0  0  0  0
  -26.0460  -29.4360   20.7730 C   0  0  0  0  0  0  0  0  0  0  0  0
  -27.2280  -28.6210   20.7690 C   0  0  0  0  0  3  0  0  0  0  0  0
  -26.0370  -26.9000   19.5570 C   0  0  0  0  0  3  0  0  0  0  0  0
  -24.8760  -27.6990   19.5510 C   0  0  0  0  0  3  0  0  0  0  0  0
  -23.6360  -29.8390   20.2190 C   0  0  0  0  0  2  0  0  0  0  0  0
  -24.6870  -31.0990   22.1510 N   0  0  0  0  0  0  0  0  0  0  0  0
  -23.5300  -32.1900   23.7720 O   0  0  0  0  0  0  0  0  0  0  0  0
  -22.7440  -29.5050   22.5590 C   0  0  0  0  0  0  0  0  0  0  0  0
  -21.4150  -29.3360   22.4320 N   0  0  0  0  0  0  0  0  0  0  0  0
  -23.4160  -28.8800   23.3820 O   0  0  0  0  0  0  0  0  0  0  0  0
  -20.9300  -29.8890   21.7390 H   0  0  0  0  0  0  0  0  0  0  0  0
  -18.0350  -28.1380   22.9620 C   0  0  0  0  0  0  0  0  0  0  0  0
  -20.5960  -28.3970   23.2030 C   0  0  0  0  0  3  0  0  0  0  0  0
  -20.6900  -26.9660   22.6240 C   0  0  0  0  0  2  0  0  0  0  0  0
  -19.5730  -26.6440   21.6240 C   0  0  0  0  0  2  0  0  0  0  0  0
  -18.2000  -26.7900   22.2820 C   0  0  0  0  0  2  0  0  0  0  0  0
  -19.1610  -28.8990   23.3810 C   0  0  0  0  0  0  0  0  0  0  0  0
  -18.9460  -30.1630   23.9750 C   0  0  0  0  0  3  0  0  0  0  0  0
  -17.6420  -30.6650   24.1490 C   0  0  0  0  0  3  0  0  0  0  0  0
  -16.5340  -29.9020   23.7430 C   0  0  0  0  0  3  0  0  0  0  0  0
  -16.7340  -28.6410   23.1550 C   0  0  0  0  0  3  0  0  0  0  0  0
  -25.8980  -32.5410   23.8760 C   0  0  0  0  0  3  0  0  0  0  0  0
  -26.4050  -31.7720   25.1560 C   0  0  1  0  0  0  0  0  0  0  0  0
  -25.3060  -31.5420   26.2200 C   0  0  0  0  0  1  0  0  0  0  0  0
  -26.9870  -30.3920   24.7750 C   0  0  0  0  0  1  0  0  0  0  0  0
  -27.5530  -32.5690   25.8170 C   0  0  0  0  0  1  0  0  0  0  0  0
  -25.5850  -33.9410   24.2030 N   0  0  0  0  0  0  0  0  0  0  0  0
  -25.9170  -34.9950   23.4440 C   0  0  0  0  0  0  0  0  0  0  0  0
  -26.5790  -34.8900   22.4100 O   0  0  0  0  0  0  0  0  0  0  0  0
  -24.9970  -34.0980   25.0080 H   0  0  0  0  0  0  0  0  0  0  0  0
  -24.1910  -36.7900   23.1010 C   0  0  0  0  0  1  0  0  0  0  0  0
  -25.4360  -36.3860   23.9060 C   0  0  0  0  0  3  0  0  0  0  0  0
  -27.5790  -37.2650   24.7200 C   0  0  0  0  0  1  0  0  0  0  0  0
  -26.4710  -37.4360   23.7820 N   0  0  0  0  0  0  0  0  0  0  0  0
  -26.0710  -38.3580   23.9310 H   0  0  0  0  0  0  0  0  0  0  0  0
  2  6  1  0
  3  1  1  0
  4  2  1  0
  4  5  1  0
  4  3  1  0
  5  8  1  0
  5  3  1  0
  6 47  1  0
  6  1  1  0
  6  7  1  6
  8 17  1  0
  9 17  1  0
 10 15  1  0
 11 12  1  0
 11 10  1  0
 13 12  1  0
 13 22  1  0
 13 14  1  0
 15  9  1  0
 15 14  1  0
 16  9  2  0
 17 18  1  0
 19 20  2  0
 20 39  1  0
 21 20  1  0
 21 24  1  0
 22 19  1  0
 22 23  1  0
 23 21  2  0
 24 25  1  0
 25 26  2  0
 27 30  1  0
 27 26  1  0
 28 27  2  0
 29 28  1  0
 29 24  2  0
 30 31  1  0
 31 32  1  0
 32 33  2  0
 34 33  1  0
 34 38  1  0
 35 34  2  0
 36 31  2  0
 36 35  1  0
 37 36  1  0
 39 40  1  0
 40 43  1  0
 40 42  1  0
 41 39  2  0
 44 45  1  0
 44 19  1  0
 46 44  1  0
 47 48  2  0
 49 48  1  0
 50 61  2  0
 51 49  1  0
 51 56  1  0
 52 60  1  0
 52 62  1  0
 53 59  1  0
 53 55  1  0
 54 60  1  0
 55 54  1  0
 56 55  2  0
 57 51  2  0
 58 57  1  0
 58 53  2  0
 59 52  1  0
 60 50  1  0
 62 64  2  0
 63 62  1  0
 65 63  1  0
 66 75  2  0
 66 71  1  0
 67 63  1  0
 67 71  1  0
 68 67  1  0
 69 70  1  0
 69 68  1  0
 70 66  1  0
 71 72  2  0
 72 73  1  0
 74 73  2  0
 75 74  1  0
 76 50  1  0
 76 81  1  0
 76 77  1  0
 77 80  1  1
 77 78  1  0
 79 77  1  0
 81 84  1  0
 82 86  1  0
 82 81  1  0
 83 82  2  0
 86 85  1  0
 88 86  1  0
 88 89  1  0
 88 87  1  0
M  ISO  4   9 100  17 100  48 101  49 101
M  END
>  <TORSDO>  (49) 
F 19

>  <SCORE>  (49) 
-14.053

>  <name>  (49) 
48

>  <ligand_id>  (49) 
48

>  <original_smiles>  (49) 
[H]c1c([H])c([H])c2c(c1[H])C([H])([H])C([H])([H])C([H])([H])C2([H])N([H])C(=O)C1([H])N(C(=O)C([H])(N([H])C(=O)C([H])(N([H])C([H])([H])[H])C([H])([H])[H])C(C([H])([H])[H])(C([H])([H])[H])C([H])([H])[H])C([H])([H])c2c([H])c(OC([H])([H])C([H])([H])[N+]3([H])C([H])([H])C4([H])C([H])(C([H])([H])N([H])C(=O)N5C([H])([H])C([H])([H])C([H])([H])C([H])(n6nc(-c7c([H])c([H])c(Oc8c([H])c([H])c(F)c([H])c8F)c([H])c7[H])c(C(=O)N([H])[H])c6N([H])[H])C5([H])[H])C4([H])C3([H])[H])c([H])c([H])c2C1([H])[H]

>  <smiles>  (49) 
[H]c1c([H])c([H])c2c(c1[H])C([H])([H])C([H])([H])C([H])([H])C2([H])N([H])C(=O)C1([H])N(C(=O)C([H])(N([H])C(=O)C([H])(N([H])C([H])([H])[H])C([H])([H])[H])C(C([H])([H])[H])(C([H])([H])[H])C([H])([H])[H])C([H])([H])c2c([H])c(OC([H])([H])C([H])([H])[N+]3([H])C([H])([H])C4([H])C([H])(C([H])([H])N([H])C(=O)N5C([H])([H])C([H])([H])C([H])([H])C([H])(n6nc(-c7c([H])c([H])c(Oc8c([H])c([H])c(F)c([H])c8F)c([H])c7[H])c(C(=O)N([H])[H])c6N([H])[H])C5([H])[H])C4([H])C3([H])[H])c([H])c([H])c2C1([H])[H]

$$$$
49:0:0
     RDKit          3D

 92 99  0  0  1  0  0  0  0  0999 V2000
  -29.2130  -21.8730   20.1480 C   0  0  0  0  0  3  0  0  0  0  0  0
  -27.7110  -21.6620   22.2570 C   0  0  0  0  0  1  0  0  0  0  0  0
  -28.9940  -22.2360   21.6400 C   0  0  0  0  0  2  0  0  0  0  0  0
  -28.8550  -23.0960   19.2290 C   0  0  0  0  0  2  0  0  0  0  0  0
  -30.2420  -24.9210   20.5740 C   0  0  0  0  0  1  0  0  0  0  0  0
  -29.5800  -24.5030   19.2510 C   0  0  0  0  0  3  0  0  0  0  0  0
  -28.5160  -25.5750   18.8410 C   0  0  0  0  0  2  0  0  0  0  0  0
  -28.6470  -26.9690   19.2300 O   0  0  0  0  0  0  0  0  0  0  0  0
  -24.5550  -31.5130   22.9930 C   0  0  0  0  0  0  0  0  0  0  0  0
  -27.4410  -27.6700   19.3200 C   0  0  0  0  0  0  0  0  0  0  0  0
  -23.4180  -30.2200   21.2220 C   0  0  0  0  0  3  0  0  0  0  0  0
  -24.9400  -29.0010   19.5860 C   0  0  0  0  0  0  0  0  0  0  0  0
  -25.9060  -30.7960   21.0200 C   0  0  0  0  0  2  0  0  0  0  0  0
  -26.0790  -29.5210   20.2150 C   0  0  0  0  0  0  0  0  0  0  0  0
  -27.3300  -28.8610   20.0860 C   0  0  0  0  0  3  0  0  0  0  0  0
  -26.2700  -27.2050   18.6640 C   0  0  0  0  0  3  0  0  0  0  0  0
  -25.0340  -27.8420   18.8050 C   0  0  0  0  0  3  0  0  0  0  0  0
  -23.6390  -29.7460   19.7640 C   0  0  0  0  0  2  0  0  0  0  0  0
  -24.6460  -30.8530   21.8030 N   0  0  0  0  0  0  0  0  0  0  0  0
  -23.4720  -31.6310   23.5820 O   0  0  0  0  0  0  0  0  0  0  0  0
  -22.8810  -29.0390   22.0610 C   0  0  0  0  0  0  0  0  0  0  0  0
  -21.5770  -28.7470   21.9190 N   0  0  0  0  0  0  0  0  0  0  0  0
  -23.6310  -28.3920   22.7980 O   0  0  0  0  0  0  0  0  0  0  0  0
  -21.0240  -29.3320   21.3070 H   0  0  0  0  0  0  0  0  0  0  0  0
  -18.3350  -27.1930   22.3020 C   0  0  0  0  0  0  0  0  0  0  0  0
  -20.8620  -27.6560   22.5840 C   0  0  0  0  0  3  0  0  0  0  0  0
  -21.0890  -26.3130   21.8540 C   0  0  0  0  0  2  0  0  0  0  0  0
  -20.0060  -26.0020   20.8160 C   0  0  0  0  0  2  0  0  0  0  0  0
  -18.6260  -25.9470   21.4790 C   0  0  0  0  0  2  0  0  0  0  0  0
  -19.3860  -28.0030   22.8070 C   0  0  0  0  0  0  0  0  0  0  0  0
  -19.0630  -29.1670   23.5340 C   0  0  0  0  0  3  0  0  0  0  0  0
  -17.7230  -29.5230   23.7650 C   0  0  0  0  0  3  0  0  0  0  0  0
  -16.6870  -28.7110   23.2760 C   0  0  0  0  0  3  0  0  0  0  0  0
  -16.9930  -27.5460   22.5480 C   0  0  0  0  0  3  0  0  0  0  0  0
  -25.8040  -32.1740   23.6540 C   0  0  0  0  0  3  0  0  0  0  0  0
  -26.3430  -31.3690   24.8980 C   0  0  1  0  0  0  0  0  0  0  0  0
  -25.2550  -31.0310   25.9430 C   0  0  0  0  0  1  0  0  0  0  0  0
  -26.9900  -30.0380   24.4470 C   0  0  0  0  0  1  0  0  0  0  0  0
  -27.4510  -32.1800   25.6090 C   0  0  0  0  0  1  0  0  0  0  0  0
  -25.4290  -33.5420   24.0420 N   0  0  0  0  0  0  0  0  0  0  0  0
  -25.7350  -34.6400   23.3390 C   0  0  0  0  0  0  0  0  0  0  0  0
  -26.4380  -34.6090   22.3230 O   0  0  0  0  0  0  0  0  0  0  0  0
  -24.8000  -33.6330   24.8250 H   0  0  0  0  0  0  0  0  0  0  0  0
  -23.9450  -36.3770   23.0120 C   0  0  0  0  0  1  0  0  0  0  0  0
  -25.1760  -35.9830   23.8430 C   0  0  0  0  0  3  0  0  0  0  0  0
  -27.2330  -36.9200   24.7990 C   0  0  0  0  0  1  0  0  0  0  0  0
  -26.1660  -37.0810   23.8170 N   0  0  0  0  0  0  0  0  0  0  0  0
  -25.7140  -37.9750   23.9880 H   0  0  0  0  0  0  0  0  0  0  0  0
  -30.5360  -21.0990   19.8620 C   0  0  0  0  0  2  0  0  0  0  0  0
  -30.7160  -19.8430   20.6580 N   0  0  0  0  0  4  0  0  0  0  0  0
  -31.7120  -19.6830   20.6960 H   0  0  0  0  0  0  0  0  0  0  0  0
  -30.4140  -19.9990   21.6060 H   0  0  0  0  0  0  0  0  0  0  0  0
  -30.1300  -18.5570   20.1720 C   0  0  0  0  0  2  0  0  0  0  0  0
  -30.7820  -17.3550   20.9310 C   0  0  0  0  0  2  0  0  0  0  0  0
  -30.9690  -14.9500   20.1640 C   0  0  0  0  0  0  0  0  0  0  0  0
  -30.6440  -12.7400   19.0910 C   0  0  0  0  0  2  0  0  0  0  0  0
  -29.6750  -12.9020   17.9000 C   0  0  0  0  0  2  0  0  0  0  0  0
  -28.2260  -12.7480   18.3900 C   0  0  0  0  0  2  0  0  0  0  0  0
  -27.9130  -13.6300   19.6260 C   0  0  0  0  0  3  0  0  0  0  0  0
  -28.9990  -13.4800   20.7170 C   0  0  0  0  0  2  0  0  0  0  0  0
  -30.3000  -13.7650   20.0920 N   0  0  0  0  0  0  0  0  0  0  0  0
  -32.1040  -15.1040   19.7050 O   0  0  0  0  0  0  0  0  0  0  0  0
  -30.2650  -15.9960   20.6440 N   0  0  0  0  0  0  0  0  0  0  0  0
  -29.3370  -15.7810   20.9770 H   0  0  0  0  0  0  0  0  0  0  0  0
  -25.5640  -14.2350   20.4670 C   0  0  0  0  0  0  0  0  0  0  0  0
  -24.4980  -13.4630   20.8350 C   0  0  0  0  0  0  0  0  0  0  0  0
  -24.9360  -12.1060   20.7310 C   0  0  0  0  0  0  0  0  0  0  0  0
  -26.5840  -13.3510   20.1540 N   0  0  0  0  0  0  0  0  0  0  0  0
  -26.2130  -12.0630   20.3750 N   0  0  0  0  0  0  0  0  0  0  0  0
  -24.2000  -10.8470   20.8910 C   0  0  0  0  0  0  0  0  0  0  0  0
  -24.6050   -9.8700   21.8260 C   0  0  0  0  0  3  0  0  0  0  0  0
  -23.8720   -8.6730   21.9730 C   0  0  0  0  0  3  0  0  0  0  0  0
  -22.7220   -8.4450   21.1820 C   0  0  0  0  0  0  0  0  0  0  0  0
  -22.3360   -9.4120   20.2360 C   0  0  0  0  0  3  0  0  0  0  0  0
  -23.0680  -10.6000   20.0880 C   0  0  0  0  0  3  0  0  0  0  0  0
  -21.9600   -7.3030   21.2400 O   0  0  0  0  0  0  0  0  0  0  0  0
  -21.8280   -6.5820   22.4000 C   0  0  0  0  0  0  0  0  0  0  0  0
  -21.2520   -7.1390   23.5620 C   0  0  0  0  0  3  0  0  0  0  0  0
  -21.0750   -6.3440   24.7110 C   0  0  0  0  0  3  0  0  0  0  0  0
  -21.4610   -4.9890   24.6970 C   0  0  0  0  0  0  0  0  0  0  0  0
  -22.0310   -4.4310   23.5400 C   0  0  0  0  0  3  0  0  0  0  0  0
  -22.2110   -5.2250   22.3930 C   0  0  0  0  0  0  0  0  0  0  0  0
  -22.7400   -4.6750   21.2740 F   0  0  0  0  0  0  0  0  0  0  0  0
  -21.2850   -4.2240   25.7980 F   0  0  0  0  0  0  0  0  0  0  0  0
  -23.1190  -13.9450   21.1840 C   0  0  0  0  0  0  0  0  0  0  0  0
  -22.4140  -13.2210   22.0430 N   0  0  0  0  0  0  0  0  0  0  0  0
  -22.6770  -14.9990   20.7280 O   0  0  0  0  0  0  0  0  0  0  0  0
  -22.7880  -12.3690   22.4400 H   0  0  0  0  0  0  0  0  0  0  0  0
  -21.4900  -13.5250   22.3160 H   0  0  0  0  0  0  0  0  0  0  0  0
  -25.7470  -15.6110   20.3480 N   0  0  0  0  0  0  0  0  0  0  0  0
  -25.0090  -16.2770   20.5430 H   0  0  0  0  0  0  0  0  0  0  0  0
  -26.5970  -16.0480   20.0230 H   0  0  0  0  0  0  0  0  0  0  0  0
  1  4  1  0
  1  3  1  0
  3  2  1  0
  4  6  1  0
  6  5  1  0
  7  8  1  0
  7  6  1  0
  8 10  1  0
  9 20  2  0
 10 15  1  0
 11 19  1  0
 11 21  1  0
 12 18  1  0
 12 14  1  0
 13 19  1  0
 14 13  1  0
 15 14  2  0
 16 17  1  0
 16 10  2  0
 17 12  2  0
 18 11  1  0
 19  9  1  0
 21 23  2  0
 22 21  1  0
 24 22  1  0
 25 34  2  0
 25 30  1  0
 26 22  1  0
 26 30  1  0
 27 26  1  0
 28 29  1  0
 28 27  1  0
 29 25  1  0
 30 31  2  0
 31 32  1  0
 33 32  2  0
 34 33  1  0
 35  9  1  0
 35 40  1  0
 35 36  1  0
 36 39  1  1
 36 37  1  0
 38 36  1  0
 40 43  1  0
 41 45  1  0
 41 40  1  0
 42 41  2  0
 45 44  1  0
 47 45  1  0
 47 48  1  0
 47 46  1  0
 49  1  1  0
 49 50  1  0
 50 51  1  0
 50 52  1  0
 53 50  1  0
 53 54  1  0
 55 63  1  0
 56 61  1  0
 57 58  1  0
 57 56  1  0
 59 58  1  0
 59 68  1  0
 59 60  1  0
 61 55  1  0
 61 60  1  0
 62 55  2  0
 63 54  1  0
 63 64  1  0
 65 66  2  0
 66 85  1  0
 67 66  1  0
 67 70  1  0
 68 69  1  0
 68 65  1  0
 69 67  2  0
 70 71  1  0
 71 72  2  0
 73 76  1  0
 73 72  1  0
 74 73  2  0
 75 74  1  0
 75 70  2  0
 76 77  1  0
 77 78  1  0
 78 79  2  0
 80 79  1  0
 80 84  1  0
 81 80  2  0
 82 77  2  0
 82 81  1  0
 83 82  1  0
 85 86  1  0
 86 89  1  0
 86 88  1  0
 87 85  2  0
 90 65  1  0
 90 91  1  0
 92 90  1  0
M  ISO  4   7 101   8 101  55 100  63 100
M  END
>  <TORSDO>  (50) 
F 24

>  <SCORE>  (50) 
-10.020

>  <name>  (50) 
49

>  <ligand_id>  (50) 
49

>  <original_smiles>  (50) 
[H]c1c([H])c([H])c2c(c1[H])C([H])([H])C([H])([H])C([H])([H])C2([H])N([H])C(=O)C1([H])N(C(=O)C([H])(N([H])C(=O)C([H])(N([H])C([H])([H])[H])C([H])([H])[H])C(C([H])([H])[H])(C([H])([H])[H])C([H])([H])[H])C([H])([H])c2c([H])c(OC([H])([H])C([H])(C([H])([H])[H])C([H])([H])C([H])(C([H])([H])C([H])([H])[H])C([H])([H])[N+]([H])([H])C([H])([H])C([H])([H])N([H])C(=O)N3C([H])([H])C([H])([H])C([H])([H])C([H])(n4nc(-c5c([H])c([H])c(Oc6c([H])c([H])c(F)c([H])c6F)c([H])c5[H])c(C(=O)N([H])[H])c4N([H])[H])C3([H])[H])c([H])c([H])c2C1([H])[H]

>  <smiles>  (50) 
[H]c1c([H])c([H])c2c(c1[H])C([H])([H])C([H])([H])C([H])([H])C2([H])N([H])C(=O)C1([H])N(C(=O)C([H])(N([H])C(=O)C([H])(N([H])C([H])([H])[H])C([H])([H])[H])C(C([H])([H])[H])(C([H])([H])[H])C([H])([H])[H])C([H])([H])c2c([H])c(OC([H])([H])C([H])(C([H])([H])[H])C([H])([H])C([H])(C([H])([H])C([H])([H])[H])C([H])([H])[N+]([H])([H])C([H])([H])C([H])([H])N([H])C(=O)N3C([H])([H])C([H])([H])C([H])([H])C([H])(n4nc(-c5c([H])c([H])c(Oc6c([H])c([H])c(F)c([H])c6F)c([H])c5[H])c(C(=O)N([H])[H])c4N([H])[H])C3([H])[H])c([H])c([H])c2C1([H])[H]

$$$$
50:0:0
     RDKit          3D

 93102  0  0  1  0  0  0  0  0999 V2000
  -29.6960  -20.7490   19.8600 C   0  0  0  0  0  2  0  0  0  0  0  0
  -30.7410  -15.1340   20.0800 C   0  0  0  0  0  0  0  0  0  0  0  0
  -30.5730  -12.7710   19.1800 C   0  0  0  0  0  2  0  0  0  0  0  0
  -29.5990  -12.7230   17.9830 C   0  0  0  0  0  2  0  0  0  0  0  0
  -28.1530  -12.5040   18.4730 C   0  0  0  0  0  2  0  0  0  0  0  0
  -27.7790  -13.4150   19.6710 C   0  0  0  0  0  3  0  0  0  0  0  0
  -28.8860  -13.4570   20.7500 C   0  0  0  0  0  2  0  0  0  0  0  0
  -30.1330  -13.8750   20.0840 N   0  0  0  0  0  0  0  0  0  0  0  0
  -31.8930  -15.1880   19.6470 O   0  0  0  0  0  0  0  0  0  0  0  0
  -31.9540  -18.4280   21.7410 C   0  0  0  0  0  2  0  0  0  0  0  0
  -30.0180  -16.5660   21.8640 C   0  0  0  0  0  2  0  0  0  0  0  0
  -30.7450  -17.8040   22.4220 C   0  0  0  0  0  3  0  0  0  0  0  0
  -30.6150  -19.1320   21.7190 C   0  0  0  0  0  3  0  0  0  0  0  0
  -29.6970  -19.1910   20.5200 C   0  0  0  0  0  3  0  0  0  0  0  0
  -29.9290  -17.7530   19.6560 C   0  0  0  0  0  3  0  0  0  0  0  0
  -30.0390  -16.3440   20.4090 N   0  0  0  0  0  0  0  0  0  0  0  0
  -25.4200  -13.9540   20.5210 C   0  0  0  0  0  0  0  0  0  0  0  0
  -24.3630  -13.1660   20.8820 C   0  0  0  0  0  0  0  0  0  0  0  0
  -24.8350  -11.8240   20.8020 C   0  0  0  0  0  0  0  0  0  0  0  0
  -26.4610  -13.0940   20.2170 N   0  0  0  0  0  0  0  0  0  0  0  0
  -26.1220  -11.8020   20.4660 N   0  0  0  0  0  0  0  0  0  0  0  0
  -24.1310  -10.5570   20.9850 C   0  0  0  0  0  0  0  0  0  0  0  0
  -24.5660   -9.5990   21.9300 C   0  0  0  0  0  3  0  0  0  0  0  0
  -23.8490   -8.3970   22.1080 C   0  0  0  0  0  3  0  0  0  0  0  0
  -22.6840   -8.1480   21.3440 C   0  0  0  0  0  0  0  0  0  0  0  0
  -22.2690   -9.0900   20.3840 C   0  0  0  0  0  3  0  0  0  0  0  0
  -22.9840  -10.2840   20.2080 C   0  0  0  0  0  3  0  0  0  0  0  0
  -21.9410   -6.9960   21.4180 O   0  0  0  0  0  0  0  0  0  0  0  0
  -21.8380   -6.2840   22.5880 C   0  0  0  0  0  0  0  0  0  0  0  0
  -21.3200   -6.8590   23.7650 C   0  0  0  0  0  3  0  0  0  0  0  0
  -21.1740   -6.0710   24.9260 C   0  0  0  0  0  3  0  0  0  0  0  0
  -21.5380   -4.7120   24.9060 C   0  0  0  0  0  0  0  0  0  0  0  0
  -22.0440   -4.1360   23.7290 C   0  0  0  0  0  3  0  0  0  0  0  0
  -22.1910   -4.9200   22.5720 C   0  0  0  0  0  0  0  0  0  0  0  0
  -22.6660   -4.3560   21.4360 F   0  0  0  0  0  0  0  0  0  0  0  0
  -21.3880   -3.9580   26.0220 F   0  0  0  0  0  0  0  0  0  0  0  0
  -22.9760  -13.6430   21.2060 C   0  0  0  0  0  0  0  0  0  0  0  0
  -22.2660  -12.9380   22.0800 N   0  0  0  0  0  0  0  0  0  0  0  0
  -22.5350  -14.6850   20.7300 O   0  0  0  0  0  0  0  0  0  0  0  0
  -22.6250  -12.0850   22.4870 H   0  0  0  0  0  0  0  0  0  0  0  0
  -21.3620  -13.2860   22.3710 H   0  0  0  0  0  0  0  0  0  0  0  0
  -25.5630  -15.3260   20.4270 N   0  0  0  0  0  0  0  0  0  0  0  0
  -24.8300  -15.9290   20.7830 H   0  0  0  0  0  0  0  0  0  0  0  0
  -26.4520  -15.7970   20.3120 H   0  0  0  0  0  0  0  0  0  0  0  0
  -29.0170  -16.5840   17.4750 C   0  0  0  0  0  1  0  0  0  0  0  0
  -27.4350  -17.8790   19.0100 C   0  0  0  0  0  1  0  0  0  0  0  0
  -28.8860  -17.7320   18.4920 C   0  0  0  0  0  3  0  0  0  0  0  0
  -29.0190  -21.9980   20.5670 N   0  0  0  0  0  4  0  0  0  0  0  0
  -29.3660  -21.9910   21.5150 H   0  0  0  0  0  0  0  0  0  0  0  0
  -28.0380  -21.7810   20.6310 H   0  0  0  0  0  0  0  0  0  0  0  0
  -29.1530  -23.4990   20.0550 C   0  0  0  0  0  3  0  0  0  0  0  0
  -28.1950  -24.7820   20.6020 C   0  0  0  0  0  3  0  0  0  0  0  0
  -28.4150  -26.3250   20.4110 O   0  0  0  0  0  0  0  0  0  0  0  0
  -24.6450  -31.9970   23.3150 C   0  0  0  0  0  0  0  0  0  0  0  0
  -27.3330  -27.2800   20.3740 C   0  0  0  0  0  0  0  0  0  0  0  0
  -23.4830  -30.5620   21.6790 C   0  0  0  0  0  3  0  0  0  0  0  0
  -24.9730  -28.9830   20.2990 C   0  0  0  0  0  0  0  0  0  0  0  0
  -26.0310  -30.8620   21.5380 C   0  0  0  0  0  2  0  0  0  0  0  0
  -26.1380  -29.4570   20.9150 C   0  0  0  0  0  0  0  0  0  0  0  0
  -27.3180  -28.6230   20.9350 C   0  0  0  0  0  3  0  0  0  0  0  0
  -26.1460  -26.9180   19.6990 C   0  0  0  0  0  3  0  0  0  0  0  0
  -24.9930  -27.7280   19.6670 C   0  0  0  0  0  3  0  0  0  0  0  0
  -23.7350  -29.8630   20.3150 C   0  0  0  0  0  2  0  0  0  0  0  0
  -24.7390  -31.1640   22.2320 N   0  0  0  0  0  0  0  0  0  0  0  0
  -23.5500  -32.2740   23.8310 O   0  0  0  0  0  0  0  0  0  0  0  0
  -22.8040  -29.5640   22.6520 C   0  0  0  0  0  0  0  0  0  0  0  0
  -21.4790  -29.3710   22.5140 N   0  0  0  0  0  0  0  0  0  0  0  0
  -23.4700  -28.9670   23.5010 O   0  0  0  0  0  0  0  0  0  0  0  0
  -20.9970  -29.9150   21.8120 H   0  0  0  0  0  0  0  0  0  0  0  0
  -18.1130  -28.0940   22.9630 C   0  0  0  0  0  0  0  0  0  0  0  0
  -20.6590  -28.4290   23.2840 C   0  0  0  0  0  3  0  0  0  0  0  0
  -20.8060  -26.9850   22.7470 C   0  0  0  0  0  2  0  0  0  0  0  0
  -19.7380  -26.6090   21.7150 C   0  0  0  0  0  2  0  0  0  0  0  0
  -18.3400  -26.7340   22.3250 C   0  0  0  0  0  2  0  0  0  0  0  0
  -19.2010  -28.8970   23.3990 C   0  0  0  0  0  0  0  0  0  0  0  0
  -18.9330  -30.1660   23.9550 C   0  0  0  0  0  3  0  0  0  0  0  0
  -17.6110  -30.6340   24.0770 C   0  0  0  0  0  3  0  0  0  0  0  0
  -16.5370  -29.8310   23.6550 C   0  0  0  0  0  3  0  0  0  0  0  0
  -16.7900  -28.5630   23.1040 C   0  0  0  0  0  3  0  0  0  0  0  0
  -25.9080  -32.6580   23.9500 C   0  0  0  0  0  3  0  0  0  0  0  0
  -26.3990  -31.9250   25.2610 C   0  0  1  0  0  0  0  0  0  0  0  0
  -25.2880  -31.7120   26.3160 C   0  0  0  0  0  1  0  0  0  0  0  0
  -26.9970  -30.5390   24.9240 C   0  0  0  0  0  1  0  0  0  0  0  0
  -27.5250  -32.7490   25.9250 C   0  0  0  0  0  1  0  0  0  0  0  0
  -25.5820  -34.0620   24.2380 N   0  0  0  0  0  0  0  0  0  0  0  0
  -25.9150  -35.1040   23.4630 C   0  0  0  0  0  0  0  0  0  0  0  0
  -26.5980  -34.9810   22.4440 O   0  0  0  0  0  0  0  0  0  0  0  0
  -24.9810  -34.2260   25.0340 H   0  0  0  0  0  0  0  0  0  0  0  0
  -24.1860  -36.8880   23.0410 C   0  0  0  0  0  1  0  0  0  0  0  0
  -25.4150  -36.5020   23.8800 C   0  0  0  0  0  3  0  0  0  0  0  0
  -27.5370  -37.4210   24.7140 C   0  0  0  0  0  1  0  0  0  0  0  0
  -26.4430  -37.5570   23.7560 N   0  0  0  0  0  0  0  0  0  0  0  0
  -26.0330  -38.4800   23.8670 H   0  0  0  0  0  0  0  0  0  0  0  0
  1 48  1  0
  2  8  1  0
  2 16  1  0
  3  8  1  0
  4  5  1  0
  4  3  1  0
  6  5  1  0
  6 20  1  0
  6  7  1  0
  8  7  1  0
  9  2  2  0
 11 12  1  0
 12 10  1  0
 13 10  1  0
 13 12  1  0
 14  1  1  0
 14 13  1  0
 15 47  1  0
 15 16  1  0
 15 14  1  0
 16 11  1  0
 17 18  2  0
 18 37  1  0
 19 18  1  0
 19 22  1  0
 20 21  1  0
 20 17  1  0
 21 19  2  0
 22 23  1  0
 23 24  2  0
 25 28  1  0
 25 24  1  0
 26 25  2  0
 27 26  1  0
 27 22  2  0
 28 29  1  0
 29 30  1  0
 30 31  2  0
 32 31  1  0
 32 36  1  0
 33 32  2  0
 34 29  2  0
 34 33  1  0
 35 34  1  0
 37 38  1  0
 38 41  1  0
 38 40  1  0
 39 37  2  0
 42 17  1  0
 42 43  1  0
 44 42  1  0
 45 47  1  0
 47 46  1  0
 48 50  1  0
 48 49  1  0
 51 48  1  0
 51 52  2  0
 53 52  1  0
 54 65  2  0
 55 53  1  0
 55 60  1  0
 56 64  1  0
 56 66  1  0
 57 63  1  0
 57 59  1  0
 58 64  1  0
 59 60  2  0
 59 58  1  0
 61 55  2  0
 62 61  1  0
 62 57  2  0
 63 56  1  0
 64 54  1  0
 66 68  2  0
 67 66  1  0
 69 67  1  0
 70 79  2  0
 70 75  1  0
 71 67  1  0
 71 75  1  0
 72 71  1  0
 73 74  1  0
 73 72  1  0
 74 70  1  0
 75 76  2  0
 76 77  1  0
 78 77  2  0
 79 78  1  0
 80 54  1  0
 80 85  1  0
 80 81  1  0
 81 84  1  1
 81 82  1  0
 83 81  1  0
 85 88  1  0
 86 90  1  0
 86 85  1  0
 87 86  2  0
 90 89  1  0
 92 93  1  0
 92 90  1  0
 92 91  1  0
M  ISO  4   2 100  16 100  52 101  53 101
M  END
>  <TORSDO>  (51) 
F 20

>  <SCORE>  (51) 
-11.845

>  <name>  (51) 
50

>  <ligand_id>  (51) 
50

>  <original_smiles>  (51) 
[H]c1c([H])c([H])c2c(c1[H])C([H])([H])C([H])([H])C([H])([H])C2([H])N([H])C(=O)C1([H])N(C(=O)C([H])(N([H])C(=O)C([H])(N([H])C([H])([H])[H])C([H])([H])[H])C(C([H])([H])[H])(C([H])([H])[H])C([H])([H])[H])C([H])([H])c2c([H])c(OC([H])([H])C([H])([H])[N+]([H])([H])C([H])([H])C3([H])C([H])(C([H])(C([H])([H])[H])C([H])([H])[H])N(C(=O)N4C([H])([H])C([H])([H])C([H])([H])C([H])(n5nc(-c6c([H])c([H])c(Oc7c([H])c([H])c(F)c([H])c7F)c([H])c6[H])c(C(=O)N([H])[H])c5N([H])[H])C4([H])[H])C([H])([H])C4([H])C([H])([H])C43[H])c([H])c([H])c2C1([H])[H]

>  <smiles>  (51) 
[H]c1c([H])c([H])c2c(c1[H])C([H])([H])C([H])([H])C([H])([H])C2([H])N([H])C(=O)C1([H])N(C(=O)C([H])(N([H])C(=O)C([H])(N([H])C([H])([H])[H])C([H])([H])[H])C(C([H])([H])[H])(C([H])([H])[H])C([H])([H])[H])C([H])([H])c2c([H])c(OC([H])([H])C([H])([H])[N+]([H])([H])C([H])([H])C3([H])C([H])(C([H])(C([H])([H])[H])C([H])([H])[H])N(C(=O)N4C([H])([H])C([H])([H])C([H])([H])C([H])(n5nc(-c6c([H])c([H])c(Oc7c([H])c([H])c(F)c([H])c7F)c([H])c6[H])c(C(=O)N([H])[H])c5N([H])[H])C4([H])[H])C([H])([H])C4([H])C([H])([H])C43[H])c([H])c([H])c2C1([H])[H]

$$$$
51:0:0
     RDKit          3D

 92100  0  0  1  0  0  0  0  0999 V2000
  -28.2060  -20.2320   20.5430 C   0  0  0  0  0  3  0  0  0  0  0  0
  -27.7650  -21.6510   20.5580 C   0  0  0  0  0  3  0  0  0  0  0  0
  -30.1360  -20.9060   19.4920 C   0  0  0  0  0  3  0  0  0  0  0  0
  -29.4490  -19.7160   19.9990 C   0  0  0  0  0  0  0  0  0  0  0  0
  -28.4640  -22.8410   20.0660 C   0  0  0  0  0  0  0  0  0  0  0  0
  -29.7040  -22.3300   19.5060 C   0  0  0  0  0  0  0  0  0  0  0  0
  -30.6340  -23.3350   18.8540 C   0  0  0  0  0  1  0  0  0  0  0  0
  -27.7210  -24.4080   19.9510 C   0  0  0  0  0  2  0  0  0  0  0  0
  -28.1130  -25.9500   20.2740 O   0  0  0  0  0  0  0  0  0  0  0  0
  -24.6690  -31.9190   23.2850 C   0  0  0  0  0  0  0  0  0  0  0  0
  -27.1380  -27.0660   20.2050 C   0  0  0  0  0  0  0  0  0  0  0  0
  -23.4460  -30.5550   21.6390 C   0  0  0  0  0  3  0  0  0  0  0  0
  -24.8650  -28.9560   20.1910 C   0  0  0  0  0  0  0  0  0  0  0  0
  -26.0130  -30.7410   21.4820 C   0  0  0  0  0  2  0  0  0  0  0  0
  -26.0590  -29.3420   20.8110 C   0  0  0  0  0  0  0  0  0  0  0  0
  -27.1910  -28.4150   20.8000 C   0  0  0  0  0  3  0  0  0  0  0  0
  -25.9180  -26.8330   19.5300 C   0  0  0  0  0  3  0  0  0  0  0  0
  -24.8160  -27.7210   19.5300 C   0  0  0  0  0  3  0  0  0  0  0  0
  -23.6580  -29.8870   20.2540 C   0  0  0  0  0  2  0  0  0  0  0  0
  -24.7300  -31.0960   22.1880 N   0  0  0  0  0  0  0  0  0  0  0  0
  -23.5860  -32.2180   23.8150 O   0  0  0  0  0  0  0  0  0  0  0  0
  -22.7460  -29.5570   22.5990 C   0  0  0  0  0  0  0  0  0  0  0  0
  -21.4170  -29.3930   22.4640 N   0  0  0  0  0  0  0  0  0  0  0  0
  -23.4060  -28.9310   23.4330 O   0  0  0  0  0  0  0  0  0  0  0  0
  -20.9380  -29.9470   21.7690 H   0  0  0  0  0  0  0  0  0  0  0  0
  -18.0280  -28.1960   22.9520 C   0  0  0  0  0  0  0  0  0  0  0  0
  -20.5880  -28.4570   23.2310 C   0  0  0  0  0  3  0  0  0  0  0  0
  -20.6900  -27.0250   22.6580 C   0  0  0  0  0  2  0  0  0  0  0  0
  -19.5940  -26.7040   21.6360 C   0  0  0  0  0  2  0  0  0  0  0  0
  -18.2080  -26.8480   22.2730 C   0  0  0  0  0  2  0  0  0  0  0  0
  -19.1460  -28.9580   23.3870 C   0  0  0  0  0  0  0  0  0  0  0  0
  -18.9220  -30.2170   23.9850 C   0  0  0  0  0  3  0  0  0  0  0  0
  -17.6150  -30.7160   24.1490 C   0  0  0  0  0  3  0  0  0  0  0  0
  -16.5130  -29.9510   23.7280 C   0  0  0  0  0  3  0  0  0  0  0  0
  -16.7210  -28.6930   23.1360 C   0  0  0  0  0  3  0  0  0  0  0  0
  -25.9520  -32.5390   23.9130 C   0  0  0  0  0  3  0  0  0  0  0  0
  -26.4440  -31.7680   25.2010 C   0  0  1  0  0  0  0  0  0  0  0  0
  -25.3380  -31.5520   26.2600 C   0  0  0  0  0  1  0  0  0  0  0  0
  -27.0120  -30.3790   24.8310 C   0  0  0  0  0  1  0  0  0  0  0  0
  -27.6010  -32.5490   25.8690 C   0  0  0  0  0  1  0  0  0  0  0  0
  -25.6610  -33.9450   24.2460 N   0  0  0  0  0  0  0  0  0  0  0  0
  -25.9740  -34.9950   23.4760 C   0  0  0  0  0  0  0  0  0  0  0  0
  -26.6010  -34.8850   22.4200 O   0  0  0  0  0  0  0  0  0  0  0  0
  -25.1030  -34.1050   25.0700 H   0  0  0  0  0  0  0  0  0  0  0  0
  -24.2360  -36.7980   23.2080 C   0  0  0  0  0  1  0  0  0  0  0  0
  -25.5200  -36.3920   23.9500 C   0  0  0  0  0  3  0  0  0  0  0  0
  -27.6960  -37.2840   24.6600 C   0  0  0  0  0  1  0  0  0  0  0  0
  -26.5490  -37.4410   23.7680 N   0  0  0  0  0  0  0  0  0  0  0  0
  -26.1520  -38.3640   23.9200 H   0  0  0  0  0  0  0  0  0  0  0  0
  -30.2080  -18.1430   20.0860 C   0  0  0  0  0  0  0  0  0  0  0  0
  -30.4660  -15.2950   19.8290 C   0  0  0  0  0  0  0  0  0  0  0  0
  -30.3620  -12.8660   18.9600 C   0  0  0  0  0  2  0  0  0  0  0  0
  -29.3640  -12.6740   17.7910 C   0  0  0  0  0  2  0  0  0  0  0  0
  -27.9490  -12.4030   18.3280 C   0  0  0  0  0  2  0  0  0  0  0  0
  -27.5710  -13.3700   19.4790 C   0  0  0  0  0  3  0  0  0  0  0  0
  -28.6880  -13.5220   20.5330 C   0  0  0  0  0  2  0  0  0  0  0  0
  -29.8780  -14.0060   19.8180 N   0  0  0  0  0  0  0  0  0  0  0  0
  -31.6630  -15.2860   19.5160 O   0  0  0  0  0  0  0  0  0  0  0  0
  -29.7390  -16.5660   19.9820 N   0  0  0  0  0  4  0  0  0  0  0  0
  -28.7560  -16.4430   20.1590 H   0  0  0  0  0  0  0  0  0  0  0  0
  -25.2690  -13.9230   20.4260 C   0  0  0  0  0  0  0  0  0  0  0  0
  -24.2290  -13.1410   20.8440 C   0  0  0  0  0  0  0  0  0  0  0  0
  -24.6800  -11.7900   20.7300 C   0  0  0  0  0  0  0  0  0  0  0  0
  -26.2810  -13.0490   20.0740 N   0  0  0  0  0  0  0  0  0  0  0  0
  -25.9440  -11.7570   20.3230 N   0  0  0  0  0  0  0  0  0  0  0  0
  -23.9560  -10.5270   20.9250 C   0  0  0  0  0  0  0  0  0  0  0  0
  -24.3950   -9.5570   21.8530 C   0  0  0  0  0  3  0  0  0  0  0  0
  -23.6690   -8.3600   22.0370 C   0  0  0  0  0  3  0  0  0  0  0  0
  -22.4880   -8.1260   21.2930 C   0  0  0  0  0  0  0  0  0  0  0  0
  -22.0680   -9.0830   20.3520 C   0  0  0  0  0  3  0  0  0  0  0  0
  -22.7960  -10.2700   20.1660 C   0  0  0  0  0  3  0  0  0  0  0  0
  -21.7320   -6.9820   21.3880 O   0  0  0  0  0  0  0  0  0  0  0  0
  -21.6330   -6.2800   22.5620 C   0  0  0  0  0  0  0  0  0  0  0  0
  -21.1020   -6.8590   23.7350 C   0  0  0  0  0  3  0  0  0  0  0  0
  -20.9550   -6.0800   24.9000 C   0  0  0  0  0  3  0  0  0  0  0  0
  -21.3280   -4.7220   24.8920 C   0  0  0  0  0  0  0  0  0  0  0  0
  -21.8520   -4.1430   23.7240 C   0  0  0  0  0  3  0  0  0  0  0  0
  -22.0020   -4.9190   22.5600 C   0  0  0  0  0  0  0  0  0  0  0  0
  -22.4870   -4.3500   21.4310 F   0  0  0  0  0  0  0  0  0  0  0  0
  -21.1790   -3.9710   26.0090 F   0  0  0  0  0  0  0  0  0  0  0  0
  -22.8600  -13.6180   21.2290 C   0  0  0  0  0  0  0  0  0  0  0  0
  -22.1900  -12.8980   22.1210 N   0  0  0  0  0  0  0  0  0  0  0  0
  -22.3980  -14.6640   20.7740 O   0  0  0  0  0  0  0  0  0  0  0  0
  -22.5810  -12.0510   22.5070 H   0  0  0  0  0  0  0  0  0  0  0  0
  -21.2740  -13.1970   22.4220 H   0  0  0  0  0  0  0  0  0  0  0  0
  -25.4310  -15.2980   20.2870 N   0  0  0  0  0  0  0  0  0  0  0  0
  -24.6730  -15.9470   20.4710 H   0  0  0  0  0  0  0  0  0  0  0  0
  -26.2410  -15.7450   19.8800 H   0  0  0  0  0  0  0  0  0  0  0  0
  -31.1260  -18.1990   21.3430 C   0  0  1  0  0  0  0  0  0  0  0  0
  -31.7220  -19.3860   21.4610 F   0  0  0  0  0  0  0  0  0  0  0  0
  -30.3860  -17.9870   22.4320 F   0  0  0  0  0  0  0  0  0  0  0  0
  -32.0940  -17.2850   21.3210 F   0  0  0  0  0  0  0  0  0  0  0  0
  1  2  1  0
  3  6  2  0
  3  4  1  0
  4 50  1  0
  4  1  2  0
  5  2  2  0
  6  5  1  0
  7  6  1  0
  8  5  1  0
  8  9  1  0
 10 21  2  0
 11  9  1  0
 11 16  1  0
 12 20  1  0
 12 22  1  0
 13 19  1  0
 13 15  1  0
 14 20  1  0
 15 14  1  0
 16 15  2  0
 17 11  2  0
 18 17  1  0
 18 13  2  0
 19 12  1  0
 20 10  1  0
 22 24  2  0
 23 22  1  0
 25 23  1  0
 26 35  2  0
 26 31  1  0
 27 23  1  0
 27 31  1  0
 28 27  1  0
 29 30  1  0
 29 28  1  0
 30 26  1  0
 31 32  2  0
 32 33  1  0
 34 33  2  0
 35 34  1  0
 36 10  1  0
 36 41  1  0
 36 37  1  0
 37 40  1  1
 37 38  1  0
 39 37  1  0
 41 44  1  0
 42 46  1  0
 42 41  1  0
 43 42  2  0
 46 45  1  0
 48 49  1  0
 48 46  1  0
 48 47  1  0
 50 89  1  0
 51 59  1  0
 52 57  1  0
 53 54  1  0
 53 52  1  0
 55 54  1  0
 55 64  1  0
 55 56  1  0
 57 51  1  0
 57 56  1  0
 58 51  2  0
 59 50  2  0
 59 60  1  0
 61 62  2  0
 62 81  1  0
 63 62  1  0
 63 66  1  0
 64 65  1  0
 64 61  1  0
 65 63  2  0
 66 67  1  0
 67 68  2  0
 69 72  1  0
 69 68  1  0
 70 69  2  0
 71 70  1  0
 71 66  2  0
 72 73  1  0
 73 74  1  0
 74 75  2  0
 76 75  1  0
 76 80  1  0
 77 76  2  0
 78 73  2  0
 78 77  1  0
 79 78  1  0
 81 82  1  0
 82 85  1  0
 82 84  1  0
 83 81  2  0
 86 61  1  0
 86 87  1  0
 88 86  1  0
 89 90  1  1
 89 91  1  0
 92 89  1  0
M  ISO  4   8 101   9 101  51 100  59 100
M  END
>  <TORSDO>  (52) 
F 19

>  <SCORE>  (52) 
-15.266

>  <name>  (52) 
51

>  <ligand_id>  (52) 
51

>  <original_smiles>  (52) 
[H]c1c([H])c([H])c2c(c1[H])C([H])([H])C([H])([H])C([H])([H])C2([H])N([H])C(=O)C1([H])N(C(=O)C([H])(N([H])C(=O)C([H])(N([H])C([H])([H])[H])C([H])([H])[H])C(C([H])([H])[H])(C([H])([H])[H])C([H])([H])[H])C([H])([H])c2c([H])c(OC([H])([H])c3c([H])c([H])c(C([H])(N([H])C(=O)N4C([H])([H])C([H])([H])C([H])([H])C([H])(n5nc(-c6c([H])c([H])c(Oc7c([H])c([H])c(F)c([H])c7F)c([H])c6[H])c(C(=O)N([H])[H])c5N([H])[H])C4([H])[H])C(F)(F)F)c([H])c3C([H])([H])[H])c([H])c([H])c2C1([H])[H]

>  <smiles>  (52) 
[H]c1c([H])c([H])c2c(c1[H])C([H])([H])C([H])([H])C([H])([H])C2([H])N([H])C(=O)C1([H])N(C(=O)C([H])(N([H])C(=O)C([H])(N([H])C([H])([H])[H])C([H])([H])[H])C(C([H])([H])[H])(C([H])([H])[H])C([H])([H])[H])C([H])([H])c2c([H])c(OC([H])([H])c3c([H])c([H])c(C([H])(N([H])C(=O)N4C([H])([H])C([H])([H])C([H])([H])C([H])(n5nc(-c6c([H])c([H])c(Oc7c([H])c([H])c(F)c([H])c7F)c([H])c6[H])c(C(=O)N([H])[H])c5N([H])[H])C4([H])[H])C(F)(F)F)c([H])c3C([H])([H])[H])c([H])c([H])c2C1([H])[H]

$$$$
52:0:0
     RDKit          3D

 91100  0  0  1  0  0  0  0  0999 V2000
  -31.0160  -22.2460   21.1710 C   0  0  0  0  0  2  0  0  0  0  0  0
  -30.7540  -21.1450   20.1260 C   0  0  0  0  0  3  0  0  0  0  0  0
  -30.3640  -23.1840   20.1330 C   0  0  0  0  0  3  0  0  0  0  0  0
  -29.3390  -20.5330   19.9630 C   0  0  0  0  0  3  0  0  0  0  0  0
  -28.8250  -23.2290   19.9500 C   0  0  0  0  0  3  0  0  0  0  0  0
  -28.4440  -21.7620   20.3590 N   0  0  0  0  0  0  0  0  0  0  0  0
  -30.9390  -22.2410   19.1590 N   0  0  0  0  0  4  0  0  0  0  0  0
  -27.4690  -21.5810   20.1360 H   0  0  0  0  0  0  0  0  0  0  0  0
  -30.3940  -22.1380   18.3190 H   0  0  0  0  0  0  0  0  0  0  0  0
  -31.9070  -22.4310   18.9650 H   0  0  0  0  0  0  0  0  0  0  0  0
  -29.1590  -18.9630   20.6210 C   0  0  0  0  0  2  0  0  0  0  0  0
  -29.9520  -17.5230   20.2180 C   0  0  0  0  0  3  0  0  0  0  0  0
  -29.6590  -16.2310   20.5420 N   0  0  0  0  0  0  0  0  0  0  0  0
  -30.4800  -15.0300   20.2380 C   0  0  0  0  0  0  0  0  0  0  0  0
  -30.3710  -12.6590   19.3170 C   0  0  0  0  0  2  0  0  0  0  0  0
  -29.4370  -12.6290   18.0840 C   0  0  0  0  0  2  0  0  0  0  0  0
  -27.9730  -12.4120   18.5110 C   0  0  0  0  0  2  0  0  0  0  0  0
  -27.5690  -13.3260   19.6970 C   0  0  0  0  0  3  0  0  0  0  0  0
  -28.6290  -13.3380   20.8180 C   0  0  0  0  0  2  0  0  0  0  0  0
  -29.9040  -13.7530   20.2200 N   0  0  0  0  0  0  0  0  0  0  0  0
  -31.6600  -15.0770   19.8830 O   0  0  0  0  0  0  0  0  0  0  0  0
  -25.1850  -13.8870   20.4380 C   0  0  0  0  0  0  0  0  0  0  0  0
  -24.1260  -13.1080   20.8110 C   0  0  0  0  0  0  0  0  0  0  0  0
  -24.6000  -11.7600   20.7910 C   0  0  0  0  0  0  0  0  0  0  0  0
  -26.2350  -13.0160   20.2010 N   0  0  0  0  0  0  0  0  0  0  0  0
  -25.8920  -11.7310   20.4810 N   0  0  0  0  0  0  0  0  0  0  0  0
  -23.8820  -10.4940   20.9920 C   0  0  0  0  0  0  0  0  0  0  0  0
  -24.3210   -9.5340   21.9300 C   0  0  0  0  0  3  0  0  0  0  0  0
  -23.6000   -8.3350   22.1190 C   0  0  0  0  0  3  0  0  0  0  0  0
  -22.4250   -8.0870   21.3700 C   0  0  0  0  0  0  0  0  0  0  0  0
  -22.0050   -9.0350   20.4210 C   0  0  0  0  0  3  0  0  0  0  0  0
  -22.7260  -10.2260   20.2310 C   0  0  0  0  0  3  0  0  0  0  0  0
  -21.6760   -6.9390   21.4680 O   0  0  0  0  0  0  0  0  0  0  0  0
  -21.6380   -6.2000   22.6240 C   0  0  0  0  0  0  0  0  0  0  0  0
  -21.2280   -6.7600   23.8530 C   0  0  0  0  0  3  0  0  0  0  0  0
  -21.1360   -5.9480   25.0010 C   0  0  0  0  0  3  0  0  0  0  0  0
  -21.4450   -4.5770   24.9210 C   0  0  0  0  0  0  0  0  0  0  0  0
  -21.8490   -4.0170   23.6970 C   0  0  0  0  0  3  0  0  0  0  0  0
  -21.9420   -4.8250   22.5500 C   0  0  0  0  0  0  0  0  0  0  0  0
  -22.3100   -4.2760   21.3680 F   0  0  0  0  0  0  0  0  0  0  0  0
  -21.3510   -3.7950   26.0220 F   0  0  0  0  0  0  0  0  0  0  0  0
  -22.7260  -13.5770   21.0790 C   0  0  0  0  0  0  0  0  0  0  0  0
  -22.0030  -12.8830   21.9510 N   0  0  0  0  0  0  0  0  0  0  0  0
  -22.2820  -14.5950   20.5520 O   0  0  0  0  0  0  0  0  0  0  0  0
  -22.3740  -12.0580   22.4000 H   0  0  0  0  0  0  0  0  0  0  0  0
  -21.0640  -13.1810   22.1780 H   0  0  0  0  0  0  0  0  0  0  0  0
  -25.3420  -15.2590   20.2540 N   0  0  0  0  0  0  0  0  0  0  0  0
  -24.5830  -15.9200   20.3800 H   0  0  0  0  0  0  0  0  0  0  0  0
  -26.2120  -15.6960   19.9800 H   0  0  0  0  0  0  0  0  0  0  0  0
  -28.0440  -24.6430   20.5290 C   0  0  0  0  0  2  0  0  0  0  0  0
  -28.2750  -26.1700   20.2170 O   0  0  0  0  0  0  0  0  0  0  0  0
  -24.6310  -31.8920   23.2360 C   0  0  0  0  0  0  0  0  0  0  0  0
  -27.2090  -27.1540   20.2130 C   0  0  0  0  0  0  0  0  0  0  0  0
  -23.4290  -30.4840   21.6080 C   0  0  0  0  0  3  0  0  0  0  0  0
  -24.8750  -28.9030   20.1880 C   0  0  0  0  0  0  0  0  0  0  0  0
  -25.9840  -30.7530   21.4320 C   0  0  0  0  0  2  0  0  0  0  0  0
  -26.0600  -29.3550   20.7850 C   0  0  0  0  0  0  0  0  0  0  0  0
  -27.2290  -28.4990   20.7740 C   0  0  0  0  0  3  0  0  0  0  0  0
  -25.9990  -26.8120   19.5760 C   0  0  0  0  0  3  0  0  0  0  0  0
  -24.8600  -27.6450   19.5660 C   0  0  0  0  0  3  0  0  0  0  0  0
  -23.6470  -29.8000   20.2330 C   0  0  0  0  0  2  0  0  0  0  0  0
  -24.7010  -31.0660   22.1470 N   0  0  0  0  0  0  0  0  0  0  0  0
  -23.5440  -32.1780   23.7650 O   0  0  0  0  0  0  0  0  0  0  0  0
  -22.7540  -29.4830   22.5790 C   0  0  0  0  0  0  0  0  0  0  0  0
  -21.4260  -29.3090   22.4580 N   0  0  0  0  0  0  0  0  0  0  0  0
  -23.4290  -28.8620   23.4040 O   0  0  0  0  0  0  0  0  0  0  0  0
  -20.9360  -29.8610   21.7680 H   0  0  0  0  0  0  0  0  0  0  0  0
  -18.0520  -28.0930   22.9730 C   0  0  0  0  0  0  0  0  0  0  0  0
  -20.6100  -28.3740   23.2370 C   0  0  0  0  0  3  0  0  0  0  0  0
  -20.7190  -26.9360   22.6750 C   0  0  0  0  0  2  0  0  0  0  0  0
  -19.6190  -26.5990   21.6640 C   0  0  0  0  0  2  0  0  0  0  0  0
  -18.2370  -26.7390   22.3070 C   0  0  0  0  0  2  0  0  0  0  0  0
  -19.1660  -28.8650   23.3960 C   0  0  0  0  0  0  0  0  0  0  0  0
  -18.9370  -30.1310   23.9800 C   0  0  0  0  0  3  0  0  0  0  0  0
  -17.6290  -30.6220   24.1470 C   0  0  0  0  0  3  0  0  0  0  0  0
  -16.5290  -29.8470   23.7380 C   0  0  0  0  0  3  0  0  0  0  0  0
  -16.7420  -28.5830   23.1580 C   0  0  0  0  0  3  0  0  0  0  0  0
  -25.9080  -32.5360   23.8560 C   0  0  0  0  0  3  0  0  0  0  0  0
  -26.4280  -31.7700   25.1350 C   0  0  1  0  0  0  0  0  0  0  0  0
  -25.3390  -31.5360   26.2070 C   0  0  0  0  0  1  0  0  0  0  0  0
  -27.0130  -30.3910   24.7530 C   0  0  0  0  0  1  0  0  0  0  0  0
  -27.5780  -32.5700   25.7920 C   0  0  0  0  0  1  0  0  0  0  0  0
  -25.5910  -33.9320   24.1900 N   0  0  0  0  0  0  0  0  0  0  0  0
  -25.9060  -34.9920   23.4340 C   0  0  0  0  0  0  0  0  0  0  0  0
  -26.5600  -34.8970   22.3930 O   0  0  0  0  0  0  0  0  0  0  0  0
  -25.0050  -34.0800   24.9990 H   0  0  0  0  0  0  0  0  0  0  0  0
  -24.1570  -36.7780   23.1190 C   0  0  0  0  0  1  0  0  0  0  0  0
  -25.4180  -36.3770   23.9030 C   0  0  0  0  0  3  0  0  0  0  0  0
  -27.5630  -37.2790   24.6910 C   0  0  0  0  0  1  0  0  0  0  0  0
  -26.4420  -37.4390   23.7700 N   0  0  0  0  0  0  0  0  0  0  0  0
  -26.0310  -38.3560   23.9250 H   0  0  0  0  0  0  0  0  0  0  0  0
  2  1  1  0
  3  1  1  0
  4  2  1  0
  4  6  1  0
  4 11  1  0
  5  3  1  0
  5  6  1  0
  5 50  1  0
  7  2  1  0
  7  3  1  0
  8  6  1  0
  9  7  1  0
 10  7  1  0
 12 13  2  0
 12 11  1  0
 14 13  1  0
 15 20  1  0
 16 17  1  0
 16 15  1  0
 18 17  1  0
 18 25  1  0
 18 19  1  0
 20 14  1  0
 20 19  1  0
 21 14  2  0
 22 23  2  0
 23 42  1  0
 24 23  1  0
 24 27  1  0
 25 22  1  0
 25 26  1  0
 26 24  2  0
 27 28  1  0
 28 29  2  0
 30 33  1  0
 30 29  1  0
 31 30  2  0
 32 31  1  0
 32 27  2  0
 33 34  1  0
 34 35  1  0
 35 36  2  0
 37 36  1  0
 37 41  1  0
 38 37  2  0
 39 34  2  0
 39 38  1  0
 40 39  1  0
 42 43  1  0
 43 46  1  0
 43 45  1  0
 44 42  2  0
 47 48  1  0
 47 22  1  0
 49 47  1  0
 51 50  1  0
 52 63  2  0
 53 51  1  0
 53 58  1  0
 54 62  1  0
 54 64  1  0
 55 61  1  0
 55 57  1  0
 56 62  1  0
 57 56  1  0
 58 57  2  0
 59 53  2  0
 60 59  1  0
 60 55  2  0
 61 54  1  0
 62 52  1  0
 64 66  2  0
 65 64  1  0
 67 65  1  0
 68 77  2  0
 68 73  1  0
 69 65  1  0
 69 73  1  0
 70 69  1  0
 71 72  1  0
 71 70  1  0
 72 68  1  0
 73 74  2  0
 74 75  1  0
 76 75  2  0
 77 76  1  0
 78 52  1  0
 78 83  1  0
 78 79  1  0
 79 82  1  1
 79 80  1  0
 81 79  1  0
 83 86  1  0
 84 88  1  0
 84 83  1  0
 85 84  2  0
 88 87  1  0
 90 88  1  0
 90 91  1  0
 90 89  1  0
M  ISO  4  13 100  14 100  50 101  51 101
M  END
>  <TORSDO>  (53) 
F 19

>  <SCORE>  (53) 
-15.401

>  <name>  (53) 
52

>  <ligand_id>  (53) 
52

>  <original_smiles>  (53) 
[H]C(=NC(=O)N1C([H])([H])C([H])([H])C([H])([H])C([H])(n2nc(-c3c([H])c([H])c(Oc4c([H])c([H])c(F)c([H])c4F)c([H])c3[H])c(C(=O)N([H])[H])c2N([H])[H])C1([H])[H])C([H])([H])C1([H])N([H])C([H])(C([H])([H])Oc2c([H])c([H])c3c(c2[H])C([H])([H])N(C(=O)C([H])(N([H])C(=O)C([H])(N([H])C([H])([H])[H])C([H])([H])[H])C(C([H])([H])[H])(C([H])([H])[H])C([H])([H])[H])C([H])(C(=O)N([H])C2([H])c4c([H])c([H])c([H])c([H])c4C([H])([H])C([H])([H])C2([H])[H])C3([H])[H])C2([H])C([H])([H])C1([H])[N+]2([H])[H]

>  <smiles>  (53) 
[H]C(=NC(=O)N1C([H])([H])C([H])([H])C([H])([H])C([H])(n2nc(-c3c([H])c([H])c(Oc4c([H])c([H])c(F)c([H])c4F)c([H])c3[H])c(C(=O)N([H])[H])c2N([H])[H])C1([H])[H])C([H])([H])C1([H])N([H])C([H])(C([H])([H])Oc2c([H])c([H])c3c(c2[H])C([H])([H])N(C(=O)C([H])(N([H])C(=O)C([H])(N([H])C([H])([H])[H])C([H])([H])[H])C(C([H])([H])[H])(C([H])([H])[H])C([H])([H])[H])C([H])(C(=O)N([H])C2([H])c4c([H])c([H])c([H])c([H])c4C([H])([H])C([H])([H])C2([H])[H])C3([H])[H])C2([H])C([H])([H])C1([H])[N+]2([H])[H]

$$$$
53:0:0
     RDKit          3D

 93101  0  0  1  0  0  0  0  0999 V2000
  -28.7690  -22.1790   20.6590 C   0  0  0  0  0  2  0  0  0  0  0  0
  -30.3860  -18.7940   21.6430 C   0  0  0  0  0  3  0  0  0  0  0  0
  -30.1390  -20.1800   21.4980 C   0  0  0  0  0  3  0  0  0  0  0  0
  -28.5140  -18.3140   20.1860 C   0  0  0  0  0  3  0  0  0  0  0  0
  -29.5670  -17.8410   21.0010 C   0  0  0  0  0  0  0  0  0  0  0  0
  -29.0760  -20.6610   20.6950 C   0  0  0  0  0  0  0  0  0  0  0  0
  -28.2610  -19.7020   20.0250 C   0  0  0  0  0  0  0  0  0  0  0  0
  -27.0820  -20.1190   19.1590 C   0  0  0  0  0  1  0  0  0  0  0  0
  -29.7880  -16.3280   21.2010 C   0  0  0  0  0  2  0  0  0  0  0  0
  -31.1330  -14.5300   20.0140 C   0  0  0  0  0  0  0  0  0  0  0  0
  -30.7040  -12.3770   18.8970 C   0  0  0  0  0  2  0  0  0  0  0  0
  -29.7130  -12.6080   17.7400 C   0  0  0  0  0  2  0  0  0  0  0  0
  -28.2590  -12.5160   18.2440 C   0  0  0  0  0  2  0  0  0  0  0  0
  -28.0090  -13.3490   19.5320 C   0  0  0  0  0  3  0  0  0  0  0  0
  -29.1180  -13.1060   20.5800 C   0  0  0  0  0  2  0  0  0  0  0  0
  -30.4040  -13.3830   19.9310 N   0  0  0  0  0  0  0  0  0  0  0  0
  -32.2840  -14.6040   19.5890 O   0  0  0  0  0  0  0  0  0  0  0  0
  -30.4410  -15.6870   20.0580 N   0  0  0  0  0  0  0  0  0  0  0  0
  -30.9320  -16.3840   19.5190 H   0  0  0  0  0  0  0  0  0  0  0  0
  -25.6720  -14.0120   20.3780 C   0  0  0  0  0  0  0  0  0  0  0  0
  -24.6000  -13.2660   20.7870 C   0  0  0  0  0  0  0  0  0  0  0  0
  -25.0140  -11.9010   20.7030 C   0  0  0  0  0  0  0  0  0  0  0  0
  -26.6740  -13.1030   20.0770 N   0  0  0  0  0  0  0  0  0  0  0  0
  -26.2850  -11.8260   20.3290 N   0  0  0  0  0  0  0  0  0  0  0  0
  -24.2560  -10.6590   20.9040 C   0  0  0  0  0  0  0  0  0  0  0  0
  -24.6570   -9.6950   21.8550 C   0  0  0  0  0  3  0  0  0  0  0  0
  -23.9030   -8.5170   22.0440 C   0  0  0  0  0  3  0  0  0  0  0  0
  -22.7330   -8.2940   21.2820 C   0  0  0  0  0  0  0  0  0  0  0  0
  -22.3490   -9.2460   20.3230 C   0  0  0  0  0  3  0  0  0  0  0  0
  -23.1030  -10.4160   20.1310 C   0  0  0  0  0  3  0  0  0  0  0  0
  -21.9510   -7.1680   21.3800 O   0  0  0  0  0  0  0  0  0  0  0  0
  -21.8160   -6.4860   22.5630 C   0  0  0  0  0  0  0  0  0  0  0  0
  -21.3250   -7.1100   23.7330 C   0  0  0  0  0  3  0  0  0  0  0  0
  -21.1340   -6.3550   24.9060 C   0  0  0  0  0  3  0  0  0  0  0  0
  -21.4270   -4.9780   24.9150 C   0  0  0  0  0  0  0  0  0  0  0  0
  -21.9110   -4.3540   23.7520 C   0  0  0  0  0  3  0  0  0  0  0  0
  -22.1030   -5.1060   22.5800 C   0  0  0  0  0  0  0  0  0  0  0  0
  -22.5490   -4.4950   21.4560 F   0  0  0  0  0  0  0  0  0  0  0  0
  -21.2380   -4.2520   26.0420 F   0  0  0  0  0  0  0  0  0  0  0  0
  -23.2340  -13.7800   21.1370 C   0  0  0  0  0  0  0  0  0  0  0  0
  -22.5330  -13.0980   22.0370 N   0  0  0  0  0  0  0  0  0  0  0  0
  -22.7990  -14.8220   20.6470 O   0  0  0  0  0  0  0  0  0  0  0  0
  -22.8970  -12.2560   22.4560 H   0  0  0  0  0  0  0  0  0  0  0  0
  -21.6200  -13.4270   22.3130 H   0  0  0  0  0  0  0  0  0  0  0  0
  -25.8740  -15.3800   20.2160 N   0  0  0  0  0  0  0  0  0  0  0  0
  -25.1320  -16.0550   20.3610 H   0  0  0  0  0  0  0  0  0  0  0  0
  -26.7080  -15.7820   19.8090 H   0  0  0  0  0  0  0  0  0  0  0  0
  -29.7980  -23.0280   20.0040 N   0  0  0  0  0  4  0  0  0  0  0  0
  -29.7360  -22.9100   19.0040 H   0  0  0  0  0  0  0  0  0  0  0  0
  -30.6940  -22.6600   20.2820 H   0  0  0  0  0  0  0  0  0  0  0  0
  -29.7830  -24.4840   20.3640 C   0  0  0  0  0  2  0  0  0  0  0  0
  -28.5760  -25.2770   19.8110 C   0  0  0  0  0  2  0  0  0  0  0  0
  -28.6640  -26.6940   20.0810 O   0  0  0  0  0  0  0  0  0  0  0  0
  -24.6300  -31.6750   23.2260 C   0  0  0  0  0  0  0  0  0  0  0  0
  -27.4780  -27.4130   20.0440 C   0  0  0  0  0  0  0  0  0  0  0  0
  -23.5150  -30.3030   21.5020 C   0  0  0  0  0  3  0  0  0  0  0  0
  -25.0440  -28.8650   20.0560 C   0  0  0  0  0  0  0  0  0  0  0  0
  -26.0320  -30.7380   21.3830 C   0  0  0  0  0  2  0  0  0  0  0  0
  -26.1730  -29.3920   20.6950 C   0  0  0  0  0  0  0  0  0  0  0  0
  -27.3930  -28.6710   20.6910 C   0  0  0  0  0  3  0  0  0  0  0  0
  -26.3290  -26.9200   19.3810 C   0  0  0  0  0  3  0  0  0  0  0  0
  -25.1210  -27.6350   19.3870 C   0  0  0  0  0  3  0  0  0  0  0  0
  -23.7710  -29.6770   20.1060 C   0  0  0  0  0  2  0  0  0  0  0  0
  -24.7430  -30.9190   22.0960 N   0  0  0  0  0  0  0  0  0  0  0  0
  -23.5280  -31.8920   23.7480 O   0  0  0  0  0  0  0  0  0  0  0  0
  -22.8680  -29.2310   22.4080 C   0  0  0  0  0  0  0  0  0  0  0  0
  -21.5580  -29.0060   22.2250 N   0  0  0  0  0  0  0  0  0  0  0  0
  -23.5450  -28.6010   23.2250 O   0  0  0  0  0  0  0  0  0  0  0  0
  -21.0730  -29.5480   21.5230 H   0  0  0  0  0  0  0  0  0  0  0  0
  -18.2180  -27.6930   22.6040 C   0  0  0  0  0  0  0  0  0  0  0  0
  -20.7560  -28.0140   22.9430 C   0  0  0  0  0  3  0  0  0  0  0  0
  -20.9200  -26.6120   22.3160 C   0  0  0  0  0  2  0  0  0  0  0  0
  -19.8520  -26.2940   21.2690 C   0  0  0  0  0  2  0  0  0  0  0  0
  -18.4530  -26.3730   21.8870 C   0  0  0  0  0  2  0  0  0  0  0  0
  -19.3020  -28.4700   23.0880 C   0  0  0  0  0  0  0  0  0  0  0  0
  -19.0360  -29.7050   23.7190 C   0  0  0  0  0  3  0  0  0  0  0  0
  -17.7150  -30.1600   23.8780 C   0  0  0  0  0  3  0  0  0  0  0  0
  -16.6420  -29.3800   23.4130 C   0  0  0  0  0  3  0  0  0  0  0  0
  -16.8940  -28.1480   22.7800 C   0  0  0  0  0  3  0  0  0  0  0  0
  -25.8790  -32.3200   23.9020 C   0  0  0  0  0  3  0  0  0  0  0  0
  -25.5350  -33.7100   24.2290 N   0  0  0  0  0  0  0  0  0  0  0  0
  -25.8990  -34.7740   23.4990 C   0  0  0  0  0  0  0  0  0  0  0  0
  -26.6290  -34.6880   22.5070 O   0  0  0  0  0  0  0  0  0  0  0  0
  -24.8890  -33.8510   24.9910 H   0  0  0  0  0  0  0  0  0  0  0  0
  -24.1850  -36.5580   23.0470 C   0  0  0  0  0  1  0  0  0  0  0  0
  -25.3690  -36.1520   23.9390 C   0  0  0  0  0  3  0  0  0  0  0  0
  -27.4330  -37.0380   24.9290 C   0  0  0  0  0  1  0  0  0  0  0  0
  -26.4000  -37.2130   23.9110 N   0  0  0  0  0  0  0  0  0  0  0  0
  -25.9790  -38.1290   24.0410 H   0  0  0  0  0  0  0  0  0  0  0  0
  -26.3580  -31.5470   25.1930 C   0  0  1  0  0  0  0  0  0  0  0  0
  -25.2270  -31.2740   26.2110 C   0  0  0  0  0  1  0  0  0  0  0  0
  -26.9850  -30.1850   24.8110 C   0  0  0  0  0  1  0  0  0  0  0  0
  -27.4630  -32.3570   25.9120 C   0  0  0  0  0  1  0  0  0  0  0  0
  1  6  1  0
  3  2  1  0
  4  5  1  0
  5  9  1  0
  5  2  2  0
  6  3  2  0
  7  4  2  0
  7  6  1  0
  8  7  1  0
 10 18  1  0
 11 16  1  0
 12 13  1  0
 12 11  1  0
 14 13  1  0
 14 23  1  0
 14 15  1  0
 16 10  1  0
 16 15  1  0
 17 10  2  0
 18  9  1  0
 19 18  1  0
 20 21  2  0
 21 40  1  0
 22 21  1  0
 22 25  1  0
 23 24  1  0
 23 20  1  0
 24 22  2  0
 25 26  1  0
 26 27  2  0
 28 31  1  0
 28 27  1  0
 29 28  2  0
 30 29  1  0
 30 25  2  0
 31 32  1  0
 32 37  2  0
 32 33  1  0
 33 34  2  0
 34 35  1  0
 35 39  1  0
 36 35  2  0
 37 36  1  0
 38 37  1  0
 40 41  1  0
 41 44  1  0
 41 43  1  0
 42 40  2  0
 45 46  1  0
 45 20  1  0
 47 45  1  0
 48 50  1  0
 48 51  1  0
 48  1  1  0
 49 48  1  0
 52 53  1  0
 52 51  1  0
 54 65  2  0
 55 53  1  0
 55 60  1  0
 56 64  1  0
 56 66  1  0
 57 63  1  0
 57 59  1  0
 58 64  1  0
 59 58  1  0
 60 59  2  0
 61 62  1  0
 61 55  2  0
 62 57  2  0
 63 56  1  0
 64 54  1  0
 66 68  2  0
 67 66  1  0
 69 67  1  0
 70 79  2  0
 70 75  1  0
 71 67  1  0
 71 75  1  0
 72 71  1  0
 73 74  1  0
 73 72  1  0
 74 70  1  0
 75 76  2  0
 76 77  1  0
 78 77  2  0
 79 78  1  0
 80 54  1  0
 80 81  1  0
 80 90  1  0
 81 84  1  0
 82 86  1  0
 82 81  1  0
 83 82  2  0
 86 85  1  0
 88 86  1  0
 88 89  1  0
 88 87  1  0
 90 93  1  1
 90 91  1  0
 92 90  1  0
M  ISO  4  10 100  18 100  52 101  53 101
M  END
>  <TORSDO>  (54) 
F 21

>  <SCORE>  (54) 
-12.901

>  <name>  (54) 
53

>  <ligand_id>  (54) 
53

>  <original_smiles>  (54) 
[H]c1c([H])c([H])c2c(c1[H])C([H])([H])C([H])([H])C([H])([H])C2([H])N([H])C(=O)C1([H])N(C(=O)C([H])(N([H])C(=O)C([H])(N([H])C([H])([H])[H])C([H])([H])[H])C(C([H])([H])[H])(C([H])([H])[H])C([H])([H])[H])C([H])([H])c2c([H])c(OC([H])([H])C([H])([H])[N+]([H])([H])C([H])([H])c3c([H])c([H])c(C([H])([H])N([H])C(=O)N4C([H])([H])C([H])([H])C([H])([H])C([H])(n5nc(-c6c([H])c([H])c(Oc7c([H])c([H])c(F)c([H])c7F)c([H])c6[H])c(C(=O)N([H])[H])c5N([H])[H])C4([H])[H])c([H])c3C([H])([H])[H])c([H])c([H])c2C1([H])[H]

>  <smiles>  (54) 
[H]c1c([H])c([H])c2c(c1[H])C([H])([H])C([H])([H])C([H])([H])C2([H])N([H])C(=O)C1([H])N(C(=O)C([H])(N([H])C(=O)C([H])(N([H])C([H])([H])[H])C([H])([H])[H])C(C([H])([H])[H])(C([H])([H])[H])C([H])([H])[H])C([H])([H])c2c([H])c(OC([H])([H])C([H])([H])[N+]([H])([H])C([H])([H])c3c([H])c([H])c(C([H])([H])N([H])C(=O)N4C([H])([H])C([H])([H])C([H])([H])C([H])(n5nc(-c6c([H])c([H])c(Oc7c([H])c([H])c(F)c([H])c7F)c([H])c6[H])c(C(=O)N([H])[H])c5N([H])[H])C4([H])[H])c([H])c3C([H])([H])[H])c([H])c([H])c2C1([H])[H]

$$$$
54:0:0
     RDKit          3D

 89 97  0  0  1  0  0  0  0  0999 V2000
  -28.7150  -21.7400   20.6860 C   0  0  0  0  0  0  0  0  0  0  0  0
  -29.3890  -20.5550   20.2590 N   0  0  0  0  0  0  0  0  0  0  0  0
  -27.8250  -21.6020   21.5250 O   0  0  0  0  0  0  0  0  0  0  0  0
  -30.1170  -20.7270   19.5770 H   0  0  0  0  0  0  0  0  0  0  0  0
  -29.0070  -23.3110   20.2020 C   0  0  0  0  0  3  0  0  0  0  0  0
  -28.0230  -24.6590   20.5280 C   0  0  0  0  0  3  0  0  0  0  0  0
  -28.2790  -26.1840   20.2480 O   0  0  0  0  0  0  0  0  0  0  0  0
  -24.6260  -31.8760   23.2340 C   0  0  0  0  0  0  0  0  0  0  0  0
  -27.2140  -27.1640   20.2110 C   0  0  0  0  0  0  0  0  0  0  0  0
  -23.4290  -30.4810   21.5940 C   0  0  0  0  0  3  0  0  0  0  0  0
  -24.8800  -28.9080   20.1700 C   0  0  0  0  0  0  0  0  0  0  0  0
  -25.9810  -30.7580   21.4180 C   0  0  0  0  0  2  0  0  0  0  0  0
  -26.0590  -29.3600   20.7780 C   0  0  0  0  0  0  0  0  0  0  0  0
  -27.2280  -28.5040   20.7770 C   0  0  0  0  0  3  0  0  0  0  0  0
  -26.0120  -26.8230   19.5550 C   0  0  0  0  0  3  0  0  0  0  0  0
  -24.8700  -27.6530   19.5420 C   0  0  0  0  0  3  0  0  0  0  0  0
  -23.6500  -29.8020   20.2140 C   0  0  0  0  0  2  0  0  0  0  0  0
  -24.7000  -31.0600   22.1370 N   0  0  0  0  0  0  0  0  0  0  0  0
  -23.5390  -32.1570   23.7630 O   0  0  0  0  0  0  0  0  0  0  0  0
  -22.7550  -29.4730   22.5560 C   0  0  0  0  0  0  0  0  0  0  0  0
  -21.4260  -29.3010   22.4330 N   0  0  0  0  0  0  0  0  0  0  0  0
  -23.4300  -28.8460   23.3760 O   0  0  0  0  0  0  0  0  0  0  0  0
  -20.9400  -29.8590   21.7450 H   0  0  0  0  0  0  0  0  0  0  0  0
  -18.0480  -28.0930   22.9440 C   0  0  0  0  0  0  0  0  0  0  0  0
  -20.6080  -28.3610   23.2020 C   0  0  0  0  0  3  0  0  0  0  0  0
  -20.7080  -26.9290   22.6240 C   0  0  0  0  0  2  0  0  0  0  0  0
  -19.6030  -26.6070   21.6120 C   0  0  0  0  0  2  0  0  0  0  0  0
  -18.2230  -26.7470   22.2610 C   0  0  0  0  0  2  0  0  0  0  0  0
  -19.1670  -28.8560   23.3730 C   0  0  0  0  0  0  0  0  0  0  0  0
  -18.9440  -30.1130   23.9760 C   0  0  0  0  0  3  0  0  0  0  0  0
  -17.6390  -30.6100   24.1480 C   0  0  0  0  0  3  0  0  0  0  0  0
  -16.5360  -29.8440   23.7320 C   0  0  0  0  0  3  0  0  0  0  0  0
  -16.7410  -28.5870   23.1370 C   0  0  0  0  0  3  0  0  0  0  0  0
  -25.9010  -32.5140   23.8640 C   0  0  0  0  0  3  0  0  0  0  0  0
  -26.4060  -31.7470   25.1480 C   0  0  1  0  0  0  0  0  0  0  0  0
  -25.3060  -31.5120   26.2110 C   0  0  0  0  0  1  0  0  0  0  0  0
  -26.9870  -30.3670   24.7660 C   0  0  0  0  0  1  0  0  0  0  0  0
  -27.5590  -32.5370   25.8100 C   0  0  0  0  0  1  0  0  0  0  0  0
  -25.5880  -33.9140   24.1950 N   0  0  0  0  0  0  0  0  0  0  0  0
  -25.9170  -34.9680   23.4360 C   0  0  0  0  0  0  0  0  0  0  0  0
  -26.5830  -34.8650   22.4030 O   0  0  0  0  0  0  0  0  0  0  0  0
  -24.9920  -34.0660   24.9950 H   0  0  0  0  0  0  0  0  0  0  0  0
  -24.1890  -36.7660   23.0870 C   0  0  0  0  0  1  0  0  0  0  0  0
  -25.4320  -36.3580   23.8950 C   0  0  0  0  0  3  0  0  0  0  0  0
  -27.5710  -37.2450   24.7150 C   0  0  0  0  0  1  0  0  0  0  0  0
  -26.4650  -37.4100   23.7740 N   0  0  0  0  0  0  0  0  0  0  0  0
  -26.0610  -38.3320   23.9190 H   0  0  0  0  0  0  0  0  0  0  0  0
  -29.2160  -19.0140   20.6330 C   0  0  0  0  0  2  0  0  0  0  0  0
  -31.6430  -18.1570   19.9800 C   0  0  0  0  0  2  0  0  0  0  0  0
  -30.8140  -17.9330   18.7500 C   0  0  0  0  0  2  0  0  0  0  0  0
  -30.1820  -17.7490   20.1220 C   0  0  2  0  0  0  0  0  0  0  0  0
  -30.5890  -15.0190   20.2730 C   0  0  0  0  0  0  0  0  0  0  0  0
  -30.4290  -12.6730   19.3320 C   0  0  0  0  0  2  0  0  0  0  0  0
  -29.5110  -12.6590   18.0920 C   0  0  0  0  0  2  0  0  0  0  0  0
  -28.0450  -12.4460   18.5140 C   0  0  0  0  0  2  0  0  0  0  0  0
  -27.6370  -13.3460   19.7110 C   0  0  0  0  0  3  0  0  0  0  0  0
  -28.6920  -13.3570   20.8390 C   0  0  0  0  0  2  0  0  0  0  0  0
  -29.9640  -13.7680   20.2340 N   0  0  0  0  0  0  0  0  0  0  0  0
  -31.7810  -15.0320   19.9540 O   0  0  0  0  0  0  0  0  0  0  0  0
  -29.8600  -16.2400   20.4490 N   0  0  0  0  0  0  0  0  0  0  0  0
  -28.9060  -16.0830   20.7420 H   0  0  0  0  0  0  0  0  0  0  0  0
  -25.2520  -13.8990   20.4500 C   0  0  0  0  0  0  0  0  0  0  0  0
  -24.1960  -13.1150   20.8250 C   0  0  0  0  0  0  0  0  0  0  0  0
  -24.6730  -11.7700   20.7950 C   0  0  0  0  0  0  0  0  0  0  0  0
  -26.3030  -13.0310   20.2100 N   0  0  0  0  0  0  0  0  0  0  0  0
  -25.9630  -11.7440   20.4820 N   0  0  0  0  0  0  0  0  0  0  0  0
  -23.9550  -10.5020   20.9900 C   0  0  0  0  0  0  0  0  0  0  0  0
  -24.3830   -9.5490   21.9390 C   0  0  0  0  0  3  0  0  0  0  0  0
  -23.6650   -8.3470   22.1220 C   0  0  0  0  0  3  0  0  0  0  0  0
  -22.5050   -8.0890   21.3550 C   0  0  0  0  0  0  0  0  0  0  0  0
  -22.0960   -9.0320   20.3940 C   0  0  0  0  0  3  0  0  0  0  0  0
  -22.8150  -10.2240   20.2100 C   0  0  0  0  0  3  0  0  0  0  0  0
  -21.7590   -6.9390   21.4450 O   0  0  0  0  0  0  0  0  0  0  0  0
  -21.6840   -6.2180   22.6110 C   0  0  0  0  0  0  0  0  0  0  0  0
  -21.2090   -6.7900   23.8110 C   0  0  0  0  0  3  0  0  0  0  0  0
  -21.0870   -5.9940   24.9670 C   0  0  0  0  0  3  0  0  0  0  0  0
  -21.4270   -4.6290   24.9240 C   0  0  0  0  0  0  0  0  0  0  0  0
  -21.8930   -4.0570   23.7280 C   0  0  0  0  0  3  0  0  0  0  0  0
  -22.0190   -4.8500   22.5740 C   0  0  0  0  0  0  0  0  0  0  0  0
  -22.4510   -4.2900   21.4180 F   0  0  0  0  0  0  0  0  0  0  0  0
  -21.3000   -3.8630   26.0340 F   0  0  0  0  0  0  0  0  0  0  0  0
  -22.7970  -13.5820   21.0950 C   0  0  0  0  0  0  0  0  0  0  0  0
  -22.0770  -12.8830   21.9640 N   0  0  0  0  0  0  0  0  0  0  0  0
  -22.3550  -14.6040   20.5710 O   0  0  0  0  0  0  0  0  0  0  0  0
  -22.4550  -12.0590   22.4100 H   0  0  0  0  0  0  0  0  0  0  0  0
  -21.1350  -13.1730   22.1850 H   0  0  0  0  0  0  0  0  0  0  0  0
  -25.4040  -15.2700   20.2630 N   0  0  0  0  0  0  0  0  0  0  0  0
  -24.6210  -15.9090   20.3420 H   0  0  0  0  0  0  0  0  0  0  0  0
  -26.2350  -15.7130   19.8950 H   0  0  0  0  0  0  0  0  0  0  0  0
  1  3  2  0
  2 48  1  0
  2  1  1  0
  4  2  1  0
  5  6  2  0
  5  1  1  0
  7  6  1  0
  8 19  2  0
  9  7  1  0
  9 14  1  0
 10 18  1  0
 10 20  1  0
 11 17  1  0
 11 13  1  0
 12 18  1  0
 13 12  1  0
 14 13  2  0
 15  9  2  0
 16 15  1  0
 16 11  2  0
 17 10  1  0
 18  8  1  0
 20 22  2  0
 21 20  1  0
 23 21  1  0
 24 33  2  0
 24 29  1  0
 25 21  1  0
 25 29  1  0
 26 25  1  0
 27 28  1  0
 27 26  1  0
 28 24  1  0
 29 30  2  0
 30 31  1  0
 32 31  2  0
 33 32  1  0
 34  8  1  0
 34 39  1  0
 34 35  1  0
 35 38  1  1
 35 36  1  0
 37 35  1  0
 39 42  1  0
 40 44  1  0
 40 39  1  0
 41 40  2  0
 44 43  1  0
 46 44  1  0
 46 47  1  0
 46 45  1  0
 49 51  1  0
 50 49  1  0
 50 51  1  0
 51 60  1  0
 51 48  1  1
 52 60  1  0
 53 58  1  0
 54 55  1  0
 54 53  1  0
 56 55  1  0
 56 65  1  0
 56 57  1  0
 58 52  1  0
 58 57  1  0
 59 52  2  0
 60 61  1  0
 62 63  2  0
 63 82  1  0
 64 63  1  0
 64 67  1  0
 65 62  1  0
 65 66  1  0
 66 64  2  0
 67 68  1  0
 68 69  2  0
 70 73  1  0
 70 69  1  0
 71 70  2  0
 72 71  1  0
 72 67  2  0
 73 74  1  0
 74 75  1  0
 75 76  2  0
 77 76  1  0
 77 81  1  0
 78 77  2  0
 79 74  2  0
 79 78  1  0
 80 79  1  0
 82 83  1  0
 83 86  1  0
 83 85  1  0
 84 82  2  0
 87 88  1  0
 87 62  1  0
 89 87  1  0
M  ISO  4   6 101   7 101  52 100  60 100
M  END
>  <TORSDO>  (55) 
F 20

>  <SCORE>  (55) 
-14.481

>  <name>  (55) 
54

>  <ligand_id>  (55) 
54

>  <original_smiles>  (55) 
[H]c1c([H])c([H])c2c(c1[H])C([H])([H])C([H])([H])C([H])([H])C2([H])N([H])C(=O)C1([H])N(C(=O)C([H])(N([H])C(=O)C([H])(N([H])C([H])([H])[H])C([H])([H])[H])C(C([H])([H])[H])(C([H])([H])[H])C([H])([H])[H])C([H])([H])c2c([H])c(OC([H])([H])C([H])([H])C(=O)N([H])C([H])([H])C3(N([H])C(=O)N4C([H])([H])C([H])([H])C([H])([H])C([H])(n5nc(-c6c([H])c([H])c(Oc7c([H])c([H])c(F)c([H])c7F)c([H])c6[H])c(C(=O)N([H])[H])c5N([H])[H])C4([H])[H])C([H])([H])C3([H])[H])c([H])c([H])c2C1([H])[H]

>  <smiles>  (55) 
[H]c1c([H])c([H])c2c(c1[H])C([H])([H])C([H])([H])C([H])([H])C2([H])N([H])C(=O)C1([H])N(C(=O)C([H])(N([H])C(=O)C([H])(N([H])C([H])([H])[H])C([H])([H])[H])C(C([H])([H])[H])(C([H])([H])[H])C([H])([H])[H])C([H])([H])c2c([H])c(OC([H])([H])C([H])([H])C(=O)N([H])C([H])([H])C3(N([H])C(=O)N4C([H])([H])C([H])([H])C([H])([H])C([H])(n5nc(-c6c([H])c([H])c(Oc7c([H])c([H])c(F)c([H])c7F)c([H])c6[H])c(C(=O)N([H])[H])c5N([H])[H])C4([H])[H])C([H])([H])C3([H])[H])c([H])c([H])c2C1([H])[H]

$$$$
55:0:0
     RDKit          3D

 91100  0  0  1  0  0  0  0  0999 V2000
  -29.9190  -22.2030   21.3970 C   0  0  0  0  0  2  0  0  0  0  0  0
  -30.3270  -19.7800   22.3370 C   0  0  0  0  0  2  0  0  0  0  0  0
  -29.3480  -20.8110   21.7750 C   0  0  0  0  0  3  0  0  0  0  0  0
  -28.9270  -20.4600   20.3430 C   0  0  0  0  0  3  0  0  0  0  0  0
  -29.0170  -22.3720   20.1820 C   0  0  0  0  0  3  0  0  0  0  0  0
  -29.9090  -18.8230   20.0960 C   0  0  0  0  0  3  0  0  0  0  0  0
  -31.0110  -19.0320   21.1640 C   0  0  0  0  0  3  0  0  0  0  0  0
  -30.3940  -15.7380   20.0670 C   0  0  0  0  0  0  0  0  0  0  0  0
  -30.4570  -13.2250   19.2200 C   0  0  0  0  0  2  0  0  0  0  0  0
  -29.5210  -12.8580   18.0360 C   0  0  0  0  0  2  0  0  0  0  0  0
  -28.1150  -12.4980   18.5420 C   0  0  0  0  0  2  0  0  0  0  0  0
  -27.6440  -13.4810   19.6400 C   0  0  0  0  0  3  0  0  0  0  0  0
  -28.7160  -13.7700   20.7160 C   0  0  0  0  0  2  0  0  0  0  0  0
  -29.8660  -14.3840   20.0180 N   0  0  0  0  0  0  0  0  0  0  0  0
  -31.6160  -15.6990   19.8400 O   0  0  0  0  0  0  0  0  0  0  0  0
  -29.6430  -17.0860   20.1740 N   0  0  0  0  0  0  0  0  0  0  0  0
  -28.6610  -16.8960   20.3150 H   0  0  0  0  0  0  0  0  0  0  0  0
  -25.3140  -13.9760   20.5270 C   0  0  0  0  0  0  0  0  0  0  0  0
  -24.2770  -13.1770   20.9160 C   0  0  0  0  0  0  0  0  0  0  0  0
  -24.7530  -11.8330   20.8190 C   0  0  0  0  0  0  0  0  0  0  0  0
  -26.3520  -13.1210   20.2070 N   0  0  0  0  0  0  0  0  0  0  0  0
  -26.0320  -11.8230   20.4500 N   0  0  0  0  0  0  0  0  0  0  0  0
  -24.0430  -10.5590   20.9980 C   0  0  0  0  0  0  0  0  0  0  0  0
  -24.4770   -9.5930   21.9330 C   0  0  0  0  0  3  0  0  0  0  0  0
  -23.7600   -8.3880   22.1020 C   0  0  0  0  0  3  0  0  0  0  0  0
  -22.5970   -8.1400   21.3370 C   0  0  0  0  0  0  0  0  0  0  0  0
  -22.1820   -9.0950   20.3910 C   0  0  0  0  0  3  0  0  0  0  0  0
  -22.8990  -10.2910   20.2200 C   0  0  0  0  0  3  0  0  0  0  0  0
  -21.8520   -6.9880   21.4160 O   0  0  0  0  0  0  0  0  0  0  0  0
  -21.7450   -6.2790   22.5860 C   0  0  0  0  0  0  0  0  0  0  0  0
  -21.2030   -6.8510   23.7570 C   0  0  0  0  0  3  0  0  0  0  0  0
  -21.0470   -6.0660   24.9180 C   0  0  0  0  0  3  0  0  0  0  0  0
  -21.4230   -4.7090   24.9060 C   0  0  0  0  0  0  0  0  0  0  0  0
  -21.9590   -4.1360   23.7390 C   0  0  0  0  0  3  0  0  0  0  0  0
  -22.1170   -4.9190   22.5820 C   0  0  0  0  0  0  0  0  0  0  0  0
  -22.6130   -4.3560   21.4530 F   0  0  0  0  0  0  0  0  0  0  0  0
  -21.2670   -3.9530   26.0170 F   0  0  0  0  0  0  0  0  0  0  0  0
  -22.8880  -13.6350   21.2530 C   0  0  0  0  0  0  0  0  0  0  0  0
  -22.2000  -12.9140   22.1300 N   0  0  0  0  0  0  0  0  0  0  0  0
  -22.4260  -14.6710   20.7750 O   0  0  0  0  0  0  0  0  0  0  0  0
  -22.5880  -12.0780   22.5410 H   0  0  0  0  0  0  0  0  0  0  0  0
  -21.2700  -13.2060   22.3980 H   0  0  0  0  0  0  0  0  0  0  0  0
  -25.4520  -15.3540   20.3850 N   0  0  0  0  0  0  0  0  0  0  0  0
  -24.6770  -15.9870   20.5450 H   0  0  0  0  0  0  0  0  0  0  0  0
  -26.2630  -15.8140   19.9920 H   0  0  0  0  0  0  0  0  0  0  0  0
  -32.1330  -19.8210   20.6270 N   0  0  0  0  0  4  0  0  0  0  0  0
  -32.5730  -19.3160   19.8760 H   0  0  0  0  0  0  0  0  0  0  0  0
  -32.8270  -19.9740   21.3360 H   0  0  0  0  0  0  0  0  0  0  0  0
  -31.8180  -20.7070   20.2790 H   0  0  0  0  0  0  0  0  0  0  0  0
  -28.0000  -24.0050   20.2630 C   0  0  0  0  0  2  0  0  0  0  0  0
  -28.1990  -25.7360   20.3050 O   0  0  0  0  0  0  0  0  0  0  0  0
  -24.6840  -31.9580   23.2600 C   0  0  0  0  0  0  0  0  0  0  0  0
  -27.2090  -26.9180   20.2650 C   0  0  0  0  0  0  0  0  0  0  0  0
  -23.4880  -30.5570   21.6310 C   0  0  0  0  0  3  0  0  0  0  0  0
  -24.9300  -28.9140   20.2150 C   0  0  0  0  0  0  0  0  0  0  0  0
  -26.0640  -30.7150   21.4920 C   0  0  0  0  0  2  0  0  0  0  0  0
  -26.1280  -29.2860   20.8380 C   0  0  0  0  0  0  0  0  0  0  0  0
  -27.2540  -28.3150   20.8290 C   0  0  0  0  0  3  0  0  0  0  0  0
  -25.9750  -26.7420   19.5920 C   0  0  0  0  0  3  0  0  0  0  0  0
  -24.8890  -27.6670   19.5680 C   0  0  0  0  0  3  0  0  0  0  0  0
  -23.7210  -29.8590   20.2600 C   0  0  0  0  0  2  0  0  0  0  0  0
  -24.7690  -31.1090   22.1790 N   0  0  0  0  0  0  0  0  0  0  0  0
  -23.5940  -32.2560   23.7770 O   0  0  0  0  0  0  0  0  0  0  0  0
  -22.7790  -29.5790   22.6070 C   0  0  0  0  0  0  0  0  0  0  0  0
  -21.4510  -29.4030   22.4720 N   0  0  0  0  0  0  0  0  0  0  0  0
  -23.4370  -28.9740   23.4570 O   0  0  0  0  0  0  0  0  0  0  0  0
  -20.9700  -29.9410   21.7650 H   0  0  0  0  0  0  0  0  0  0  0  0
  -18.0790  -28.1420   22.9580 C   0  0  0  0  0  0  0  0  0  0  0  0
  -20.6300  -28.4640   23.2480 C   0  0  0  0  0  3  0  0  0  0  0  0
  -20.7640  -27.0250   22.6990 C   0  0  0  0  0  2  0  0  0  0  0  0
  -19.6820  -26.6650   21.6760 C   0  0  0  0  0  2  0  0  0  0  0  0
  -18.2900  -26.7890   22.3010 C   0  0  0  0  0  2  0  0  0  0  0  0
  -19.1760  -28.9360   23.3880 C   0  0  0  0  0  0  0  0  0  0  0  0
  -18.9220  -30.1980   23.9680 C   0  0  0  0  0  3  0  0  0  0  0  0
  -17.6040  -30.6690   24.1190 C   0  0  0  0  0  3  0  0  0  0  0  0
  -16.5210  -29.8750   23.7010 C   0  0  0  0  0  3  0  0  0  0  0  0
  -16.7600  -28.6130   23.1280 C   0  0  0  0  0  3  0  0  0  0  0  0
  -25.9510  -32.6080   23.8930 C   0  0  0  0  0  3  0  0  0  0  0  0
  -26.4540  -31.8500   25.1850 C   0  0  1  0  0  0  0  0  0  0  0  0
  -25.3500  -31.6160   26.2430 C   0  0  0  0  0  1  0  0  0  0  0  0
  -27.0490  -30.4700   24.8230 C   0  0  0  0  0  1  0  0  0  0  0  0
  -27.5920  -32.6550   25.8550 C   0  0  0  0  0  1  0  0  0  0  0  0
  -25.6300  -34.0090   24.2280 N   0  0  0  0  0  0  0  0  0  0  0  0
  -25.9310  -35.0720   23.4710 C   0  0  0  0  0  0  0  0  0  0  0  0
  -26.5660  -34.9780   22.4180 O   0  0  0  0  0  0  0  0  0  0  0  0
  -25.0580  -34.1540   25.0470 H   0  0  0  0  0  0  0  0  0  0  0  0
  -24.1670  -36.8550   23.2150 C   0  0  0  0  0  1  0  0  0  0  0  0
  -25.4560  -36.4600   23.9540 C   0  0  0  0  0  3  0  0  0  0  0  0
  -27.6170  -37.3830   24.6710 C   0  0  0  0  0  1  0  0  0  0  0  0
  -26.4690  -37.5250   23.7810 N   0  0  0  0  0  0  0  0  0  0  0  0
  -26.0580  -38.4410   23.9370 H   0  0  0  0  0  0  0  0  0  0  0  0
  3  1  1  0
  3  2  1  0
  4  3  1  0
  5 50  1  0
  5  4  1  0
  5  1  1  0
  6 16  1  0
  6  4  1  0
  6  7  1  0
  7  2  1  0
  8 16  1  0
  9 14  1  0
 10 11  1  0
 10  9  1  0
 11 12  1  0
 12 21  1  0
 12 13  1  0
 14  8  1  0
 14 13  1  0
 15  8  2  0
 16 17  1  0
 18 19  2  0
 19 38  1  0
 20 19  1  0
 20 23  1  0
 21 22  1  0
 21 18  1  0
 22 20  2  0
 23 24  1  0
 24 25  2  0
 26 29  1  0
 26 25  1  0
 27 26  2  0
 28 27  1  0
 28 23  2  0
 29 30  1  0
 30 31  1  0
 31 32  2  0
 33 32  1  0
 33 37  1  0
 34 33  2  0
 35 30  2  0
 35 34  1  0
 36 35  1  0
 38 39  1  0
 39 42  1  0
 39 41  1  0
 40 38  2  0
 43 18  1  0
 43 44  1  0
 45 43  1  0
 46  7  1  0
 46 48  1  0
 47 46  1  0
 49 46  1  0
 50 51  1  0
 52 63  2  0
 52 78  1  0
 53 51  1  0
 53 58  1  0
 54 62  1  0
 54 64  1  0
 55 61  1  0
 55 57  1  0
 56 62  1  0
 57 56  1  0
 58 57  2  0
 59 53  2  0
 60 59  1  0
 60 55  2  0
 61 54  1  0
 62 52  1  0
 64 66  2  0
 65 64  1  0
 65 69  1  0
 67 65  1  0
 68 77  2  0
 68 73  1  0
 69 73  1  0
 70 69  1  0
 71 72  1  0
 71 70  1  0
 72 68  1  0
 73 74  2  0
 74 75  1  0
 76 75  2  0
 77 76  1  0
 78 83  1  0
 78 79  1  0
 79 82  1  1
 79 80  1  0
 81 79  1  0
 83 86  1  0
 84 88  1  0
 84 83  1  0
 85 84  2  0
 87 88  1  0
 90 91  1  0
 90 88  1  0
 90 89  1  0
M  ISO  4   8 100  16 100  50 101  51 101
M  END
>  <TORSDO>  (56) 
F 18

>  <SCORE>  (56) 
-15.923

>  <name>  (56) 
55

>  <ligand_id>  (56) 
55

>  <original_smiles>  (56) 
[H]c1c([H])c([H])c2c(c1[H])C([H])([H])C([H])([H])C([H])([H])C2([H])N([H])C(=O)C1([H])N(C(=O)C([H])(N([H])C(=O)C([H])(N([H])C([H])([H])[H])C([H])([H])[H])C(C([H])([H])[H])(C([H])([H])[H])C([H])([H])[H])C([H])([H])c2c([H])c(OC([H])([H])C3([H])C([H])([H])C4([H])C([H])([H])C([H])([N+]([H])([H])[H])C([H])(N([H])C(=O)N5C([H])([H])C([H])([H])C([H])([H])C([H])(n6nc(-c7c([H])c([H])c(Oc8c([H])c([H])c(F)c([H])c8F)c([H])c7[H])c(C(=O)N([H])[H])c6N([H])[H])C5([H])[H])C34[H])c([H])c([H])c2C1([H])[H]

>  <smiles>  (56) 
[H]c1c([H])c([H])c2c(c1[H])C([H])([H])C([H])([H])C([H])([H])C2([H])N([H])C(=O)C1([H])N(C(=O)C([H])(N([H])C(=O)C([H])(N([H])C([H])([H])[H])C([H])([H])[H])C(C([H])([H])[H])(C([H])([H])[H])C([H])([H])[H])C([H])([H])c2c([H])c(OC([H])([H])C3([H])C([H])([H])C4([H])C([H])([H])C([H])([N+]([H])([H])[H])C([H])(N([H])C(=O)N5C([H])([H])C([H])([H])C([H])([H])C([H])(n6nc(-c7c([H])c([H])c(Oc8c([H])c([H])c(F)c([H])c8F)c([H])c7[H])c(C(=O)N([H])[H])c6N([H])[H])C5([H])[H])C34[H])c([H])c([H])c2C1([H])[H]

$$$$
56:0:0
     RDKit          3D

 88 97  0  0  1  0  0  0  0  0999 V2000
  -29.5140  -19.0640   21.5790 C   0  0  0  0  0  2  0  0  0  0  0  0
  -29.6280  -21.6530   18.9110 C   0  0  0  0  0  2  0  0  0  0  0  0
  -29.2790  -20.6260   21.7520 C   0  0  0  0  0  2  0  0  0  0  0  0
  -29.8690  -18.7140   20.1050 C   0  0  0  0  0  3  0  0  0  0  0  0
  -29.0690  -20.2080   19.4670 C   0  0  0  0  0  3  0  0  0  0  0  0
  -29.0300  -22.6750   20.0350 C   0  0  0  0  0  3  0  0  0  0  0  0
  -28.6000  -21.2110   20.5550 N   0  0  2  0  0  4  0  0  0  0  0  0
  -27.5990  -21.1440   20.6580 H   0  0  0  0  0  0  0  0  0  0  0  0
  -30.4980  -15.7120   19.7580 C   0  0  0  0  0  0  0  0  0  0  0  0
  -30.4910  -13.2200   18.9170 C   0  0  0  0  0  2  0  0  0  0  0  0
  -29.4980  -12.8880   17.7690 C   0  0  0  0  0  2  0  0  0  0  0  0
  -28.0950  -12.5740   18.3200 C   0  0  0  0  0  2  0  0  0  0  0  0
  -27.6840  -13.5680   19.4320 C   0  0  0  0  0  3  0  0  0  0  0  0
  -28.8040  -13.8170   20.4660 C   0  0  0  0  0  2  0  0  0  0  0  0
  -29.9480  -14.3830   19.7240 N   0  0  0  0  0  0  0  0  0  0  0  0
  -31.7220  -15.6890   19.5470 O   0  0  0  0  0  0  0  0  0  0  0  0
  -29.7270  -17.0150   19.8360 N   0  0  0  0  0  0  0  0  0  0  0  0
  -28.7450  -16.7750   19.8110 H   0  0  0  0  0  0  0  0  0  0  0  0
  -25.3850  -14.1050   20.3880 C   0  0  0  0  0  0  0  0  0  0  0  0
  -24.3490  -13.3170   20.8080 C   0  0  0  0  0  0  0  0  0  0  0  0
  -24.8120  -11.9690   20.7080 C   0  0  0  0  0  0  0  0  0  0  0  0
  -26.4030  -13.2360   20.0440 N   0  0  0  0  0  0  0  0  0  0  0  0
  -26.0780  -11.9410   20.3030 N   0  0  0  0  0  0  0  0  0  0  0  0
  -24.0950  -10.7010   20.9120 C   0  0  0  0  0  0  0  0  0  0  0  0
  -24.5480   -9.7350   21.8370 C   0  0  0  0  0  3  0  0  0  0  0  0
  -23.8260   -8.5370   22.0320 C   0  0  0  0  0  3  0  0  0  0  0  0
  -22.6380   -8.2980   21.3020 C   0  0  0  0  0  0  0  0  0  0  0  0
  -22.2010   -9.2550   20.3700 C   0  0  0  0  0  3  0  0  0  0  0  0
  -22.9240  -10.4440   20.1730 C   0  0  0  0  0  3  0  0  0  0  0  0
  -21.8840   -7.1530   21.4100 O   0  0  0  0  0  0  0  0  0  0  0  0
  -21.8090   -6.4470   22.5840 C   0  0  0  0  0  0  0  0  0  0  0  0
  -21.2760   -7.0160   23.7630 C   0  0  0  0  0  3  0  0  0  0  0  0
  -21.1520   -6.2340   24.9260 C   0  0  0  0  0  3  0  0  0  0  0  0
  -21.5540   -4.8830   24.9140 C   0  0  0  0  0  0  0  0  0  0  0  0
  -22.0820   -4.3160   23.7420 C   0  0  0  0  0  3  0  0  0  0  0  0
  -22.2050   -5.0950   22.5780 C   0  0  0  0  0  0  0  0  0  0  0  0
  -22.6930   -4.5360   21.4450 F   0  0  0  0  0  0  0  0  0  0  0  0
  -21.4300   -4.1320   26.0330 F   0  0  0  0  0  0  0  0  0  0  0  0
  -22.9770  -13.7920   21.1790 C   0  0  0  0  0  0  0  0  0  0  0  0
  -22.3080  -13.0840   22.0840 N   0  0  0  0  0  0  0  0  0  0  0  0
  -22.5100  -14.8260   20.7060 O   0  0  0  0  0  0  0  0  0  0  0  0
  -22.7010  -12.2500   22.4930 H   0  0  0  0  0  0  0  0  0  0  0  0
  -21.3900  -13.3880   22.3730 H   0  0  0  0  0  0  0  0  0  0  0  0
  -25.5320  -15.4800   20.2320 N   0  0  0  0  0  0  0  0  0  0  0  0
  -24.7660  -16.1210   20.4120 H   0  0  0  0  0  0  0  0  0  0  0  0
  -26.3230  -15.9310   19.7920 H   0  0  0  0  0  0  0  0  0  0  0  0
  -28.0100  -24.2510   19.9420 C   0  0  0  0  0  2  0  0  0  0  0  0
  -28.1990  -25.9430   20.0740 O   0  0  0  0  0  0  0  0  0  0  0  0
  -24.6520  -31.9260   23.2540 C   0  0  0  0  0  0  0  0  0  0  0  0
  -27.1780  -27.0720   20.0670 C   0  0  0  0  0  0  0  0  0  0  0  0
  -23.4340  -30.5660   21.6090 C   0  0  0  0  0  3  0  0  0  0  0  0
  -24.8630  -28.9950   20.1080 C   0  0  0  0  0  0  0  0  0  0  0  0
  -25.9990  -30.7740   21.4150 C   0  0  0  0  0  2  0  0  0  0  0  0
  -26.0630  -29.3740   20.7220 C   0  0  0  0  0  0  0  0  0  0  0  0
  -27.2060  -28.4400   20.6740 C   0  0  0  0  0  3  0  0  0  0  0  0
  -25.9380  -26.8640   19.4140 C   0  0  0  0  0  3  0  0  0  0  0  0
  -24.8320  -27.7640   19.4310 C   0  0  0  0  0  3  0  0  0  0  0  0
  -23.6410  -29.9160   20.2080 C   0  0  0  0  0  2  0  0  0  0  0  0
  -24.7200  -31.1170   22.1460 N   0  0  0  0  0  0  0  0  0  0  0  0
  -23.5730  -32.1970   23.8050 O   0  0  0  0  0  0  0  0  0  0  0  0
  -22.7630  -29.5450   22.5640 C   0  0  0  0  0  0  0  0  0  0  0  0
  -21.4390  -29.3410   22.4330 N   0  0  0  0  0  0  0  0  0  0  0  0
  -23.4450  -28.9340   23.3900 O   0  0  0  0  0  0  0  0  0  0  0  0
  -20.9380  -29.8880   21.7450 H   0  0  0  0  0  0  0  0  0  0  0  0
  -18.1000  -28.0020   22.9110 C   0  0  0  0  0  0  0  0  0  0  0  0
  -20.6470  -28.3680   23.1920 C   0  0  0  0  0  3  0  0  0  0  0  0
  -20.8080  -26.9440   22.6090 C   0  0  0  0  0  2  0  0  0  0  0  0
  -19.7260  -26.5860   21.5850 C   0  0  0  0  0  2  0  0  0  0  0  0
  -18.3350  -26.6680   22.2220 C   0  0  0  0  0  2  0  0  0  0  0  0
  -19.1850  -28.8080   23.3510 C   0  0  0  0  0  0  0  0  0  0  0  0
  -18.9100  -30.0530   23.9580 C   0  0  0  0  0  3  0  0  0  0  0  0
  -17.5850  -30.4920   24.1320 C   0  0  0  0  0  3  0  0  0  0  0  0
  -16.5140  -29.6860   23.7050 C   0  0  0  0  0  3  0  0  0  0  0  0
  -16.7730  -28.4430   23.0980 C   0  0  0  0  0  3  0  0  0  0  0  0
  -25.9300  -32.5660   23.8760 C   0  0  0  0  0  3  0  0  0  0  0  0
  -25.6230  -33.9700   24.2080 N   0  0  0  0  0  0  0  0  0  0  0  0
  -25.9230  -35.0280   23.4410 C   0  0  0  0  0  0  0  0  0  0  0  0
  -26.5530  -34.9250   22.3860 O   0  0  0  0  0  0  0  0  0  0  0  0
  -25.0610  -34.1240   25.0320 H   0  0  0  0  0  0  0  0  0  0  0  0
  -24.1690  -36.8190   23.1830 C   0  0  0  0  0  1  0  0  0  0  0  0
  -25.4570  -36.4190   23.9200 C   0  0  0  0  0  3  0  0  0  0  0  0
  -27.6190  -37.3420   24.6360 C   0  0  0  0  0  1  0  0  0  0  0  0
  -26.4740  -37.4770   23.7390 N   0  0  0  0  0  0  0  0  0  0  0  0
  -26.0670  -38.3980   23.8840 H   0  0  0  0  0  0  0  0  0  0  0  0
  -26.4350  -31.8070   25.1670 C   0  0  1  0  0  0  0  0  0  0  0  0
  -25.3350  -31.5890   26.2320 C   0  0  0  0  0  1  0  0  0  0  0  0
  -27.0170  -30.4210   24.8050 C   0  0  0  0  0  1  0  0  0  0  0  0
  -27.5810  -32.6060   25.8320 C   0  0  0  0  0  1  0  0  0  0  0  0
  1  3  1  0
  2  6  1  0
  4 17  1  0
  4  1  1  0
  5  2  1  0
  5  4  1  0
  5  7  1  0
  6 47  1  0
  6  7  1  0
  7  8  1  1
  7  3  1  0
  9 17  1  0
 10 15  1  0
 11 12  1  0
 11 10  1  0
 13 12  1  0
 13 22  1  0
 13 14  1  0
 15  9  1  0
 15 14  1  0
 16  9  2  0
 18 17  1  0
 19 20  2  0
 20 39  1  0
 21 20  1  0
 21 24  1  0
 22 23  1  0
 22 19  1  0
 23 21  2  0
 24 25  1  0
 25 26  2  0
 27 30  1  0
 27 26  1  0
 28 27  2  0
 29 28  1  0
 29 24  2  0
 30 31  1  0
 31 32  1  0
 32 33  2  0
 34 33  1  0
 34 38  1  0
 35 34  2  0
 36 31  2  0
 36 35  1  0
 37 36  1  0
 39 40  1  0
 40 43  1  0
 40 42  1  0
 41 39  2  0
 44 19  1  0
 44 45  1  0
 46 44  1  0
 47 48  1  0
 49 60  2  0
 50 48  1  0
 50 55  1  0
 51 59  1  0
 51 61  1  0
 52 58  1  0
 52 54  1  0
 53 59  1  0
 54 53  1  0
 55 54  2  0
 56 57  1  0
 56 50  2  0
 57 52  2  0
 58 51  1  0
 59 49  1  0
 61 63  2  0
 62 61  1  0
 64 62  1  0
 65 74  2  0
 65 70  1  0
 66 62  1  0
 66 70  1  0
 67 66  1  0
 68 69  1  0
 68 67  1  0
 69 65  1  0
 70 71  2  0
 71 72  1  0
 73 72  2  0
 74 73  1  0
 75 49  1  0
 75 76  1  0
 75 85  1  0
 76 79  1  0
 77 81  1  0
 77 76  1  0
 78 77  2  0
 81 80  1  0
 83 84  1  0
 83 81  1  0
 83 82  1  0
 85 88  1  1
 85 86  1  0
 87 85  1  0
M  ISO  4   9 100  17 100  47 101  48 101
M  END
>  <TORSDO>  (57) 
F 17

>  <SCORE>  (57) 
-15.369

>  <name>  (57) 
56

>  <ligand_id>  (57) 
56

>  <original_smiles>  (57) 
[H]c1c([H])c([H])c2c(c1[H])C([H])([H])C([H])([H])C([H])([H])C2([H])N([H])C(=O)C1([H])N(C(=O)C([H])(N([H])C(=O)C([H])(N([H])C([H])([H])[H])C([H])([H])[H])C(C([H])([H])[H])(C([H])([H])[H])C([H])([H])[H])C([H])([H])c2c([H])c(OC([H])([H])C3([H])C([H])([H])C4([H])C([H])(N([H])C(=O)N5C([H])([H])C([H])([H])C([H])([H])C([H])(n6nc(-c7c([H])c([H])c(Oc8c([H])c([H])c(F)c([H])c8F)c([H])c7[H])c(C(=O)N([H])[H])c6N([H])[H])C5([H])[H])C([H])([H])C([H])([H])[N+]34[H])c([H])c([H])c2C1([H])[H]

>  <smiles>  (57) 
[H]c1c([H])c([H])c2c(c1[H])C([H])([H])C([H])([H])C([H])([H])C2([H])N([H])C(=O)C1([H])N(C(=O)C([H])(N([H])C(=O)C([H])(N([H])C([H])([H])[H])C([H])([H])[H])C(C([H])([H])[H])(C([H])([H])[H])C([H])([H])[H])C([H])([H])c2c([H])c(OC([H])([H])C3([H])C([H])([H])C4([H])C([H])(N([H])C(=O)N5C([H])([H])C([H])([H])C([H])([H])C([H])(n6nc(-c7c([H])c([H])c(Oc8c([H])c([H])c(F)c([H])c8F)c([H])c7[H])c(C(=O)N([H])[H])c6N([H])[H])C5([H])[H])C([H])([H])C([H])([H])[N+]34[H])c([H])c([H])c2C1([H])[H]

$$$$
57:0:0
     RDKit          3D

 89 99  0  0  1  0  0  0  0  0999 V2000
  -29.0820  -23.4960   20.4860 C   0  0  0  0  0  0  0  0  0  0  0  0
  -27.4650  -20.5560   19.7370 C   0  0  0  0  0  2  0  0  0  0  0  0
  -29.1830  -21.1270   21.4070 C   0  0  0  0  0  2  0  0  0  0  0  0
  -28.4060  -19.9320   20.8030 C   0  0  1  0  0  0  0  0  0  0  0  0
  -29.0980  -19.2560   19.5860 C   0  0  0  0  0  3  0  0  0  0  0  0
  -28.8740  -20.9300   19.2250 C   0  0  1  0  0  0  0  0  0  0  0  0
  -29.1680  -22.0560   20.2620 N   0  0  0  0  0  0  0  0  0  0  0  0
  -29.6390  -23.8850   21.5180 O   0  0  0  0  0  0  0  0  0  0  0  0
  -28.3010  -24.7600   19.7120 C   0  0  0  0  0  2  0  0  0  0  0  0
  -28.4190  -26.2620   20.2240 O   0  0  0  0  0  0  0  0  0  0  0  0
  -24.6630  -31.8940   23.2510 C   0  0  0  0  0  0  0  0  0  0  0  0
  -27.3630  -27.2610   20.1410 C   0  0  0  0  0  0  0  0  0  0  0  0
  -23.5150  -30.5200   21.5580 C   0  0  0  0  0  3  0  0  0  0  0  0
  -25.0120  -28.9990   20.1160 C   0  0  0  0  0  0  0  0  0  0  0  0
  -26.0680  -30.8170   21.4460 C   0  0  0  0  0  2  0  0  0  0  0  0
  -26.1740  -29.4390   20.7590 C   0  0  0  0  0  0  0  0  0  0  0  0
  -27.3480  -28.5860   20.7560 C   0  0  0  0  0  3  0  0  0  0  0  0
  -26.1770  -26.9430   19.4450 C   0  0  0  0  0  3  0  0  0  0  0  0
  -25.0290  -27.7680   19.4430 C   0  0  0  0  0  3  0  0  0  0  0  0
  -23.7710  -29.8810   20.1680 C   0  0  0  0  0  2  0  0  0  0  0  0
  -24.7680  -31.1010   22.1410 N   0  0  0  0  0  0  0  0  0  0  0  0
  -23.5640  -32.1460   23.7690 O   0  0  0  0  0  0  0  0  0  0  0  0
  -22.8390  -29.4810   22.4870 C   0  0  0  0  0  0  0  0  0  0  0  0
  -21.5120  -29.3020   22.3480 N   0  0  0  0  0  0  0  0  0  0  0  0
  -23.5120  -28.8410   23.3000 O   0  0  0  0  0  0  0  0  0  0  0  0
  -21.0260  -29.8770   21.6760 H   0  0  0  0  0  0  0  0  0  0  0  0
  -18.1350  -28.0700   22.8100 C   0  0  0  0  0  0  0  0  0  0  0  0
  -20.6960  -28.3300   23.0830 C   0  0  0  0  0  3  0  0  0  0  0  0
  -20.8010  -26.9220   22.4520 C   0  0  0  0  0  2  0  0  0  0  0  0
  -19.6990  -26.6310   21.4300 C   0  0  0  0  0  2  0  0  0  0  0  0
  -18.3130  -26.7530   22.0710 C   0  0  0  0  0  2  0  0  0  0  0  0
  -19.2540  -28.8160   23.2710 C   0  0  0  0  0  0  0  0  0  0  0  0
  -19.0300  -30.0480   23.9240 C   0  0  0  0  0  3  0  0  0  0  0  0
  -17.7240  -30.5330   24.1210 C   0  0  0  0  0  3  0  0  0  0  0  0
  -16.6210  -29.7840   23.6730 C   0  0  0  0  0  3  0  0  0  0  0  0
  -16.8290  -28.5560   23.0240 C   0  0  0  0  0  3  0  0  0  0  0  0
  -25.9180  -32.5390   23.9140 C   0  0  0  0  0  3  0  0  0  0  0  0
  -25.5920  -33.9400   24.2240 N   0  0  0  0  0  0  0  0  0  0  0  0
  -25.9240  -34.9900   23.4610 C   0  0  0  0  0  0  0  0  0  0  0  0
  -26.6020  -34.8830   22.4360 O   0  0  0  0  0  0  0  0  0  0  0  0
  -24.9880  -34.0970   25.0180 H   0  0  0  0  0  0  0  0  0  0  0  0
  -24.1810  -36.7720   23.0940 C   0  0  0  0  0  1  0  0  0  0  0  0
  -25.4280  -36.3810   23.9040 C   0  0  0  0  0  3  0  0  0  0  0  0
  -27.5510  -37.3040   24.7250 C   0  0  0  0  0  1  0  0  0  0  0  0
  -26.4510  -37.4420   23.7740 N   0  0  0  0  0  0  0  0  0  0  0  0
  -26.0350  -38.3610   23.9010 H   0  0  0  0  0  0  0  0  0  0  0  0
  -26.3860  -31.7830   25.2200 C   0  0  1  0  0  0  0  0  0  0  0  0
  -25.2540  -31.5550   26.2470 C   0  0  0  0  0  1  0  0  0  0  0  0
  -26.9920  -30.4040   24.8710 C   0  0  0  0  0  1  0  0  0  0  0  0
  -27.5050  -32.5910   25.9180 C   0  0  0  0  0  1  0  0  0  0  0  0
  -30.3160  -18.0630   19.6800 C   0  0  0  0  0  2  0  0  0  0  0  0
  -30.8200  -15.2850   19.7550 C   0  0  0  0  0  0  0  0  0  0  0  0
  -30.6900  -12.8710   18.9430 C   0  0  0  0  0  2  0  0  0  0  0  0
  -29.6880  -12.7350   17.7710 C   0  0  0  0  0  2  0  0  0  0  0  0
  -28.2570  -12.5250   18.2980 C   0  0  0  0  0  2  0  0  0  0  0  0
  -27.9050  -13.5060   19.4470 C   0  0  0  0  0  3  0  0  0  0  0  0
  -29.0230  -13.5910   20.5070 C   0  0  0  0  0  2  0  0  0  0  0  0
  -30.2420  -14.0100   19.8040 N   0  0  0  0  0  0  0  0  0  0  0  0
  -32.0040  -15.3320   19.4010 O   0  0  0  0  0  0  0  0  0  0  0  0
  -30.0430  -16.4890   19.8970 N   0  0  0  0  0  0  0  0  0  0  0  0
  -29.0940  -16.2930   20.1770 H   0  0  0  0  0  0  0  0  0  0  0  0
  -25.6100  -14.1200   20.3920 C   0  0  0  0  0  0  0  0  0  0  0  0
  -24.5530  -13.3620   20.8130 C   0  0  0  0  0  0  0  0  0  0  0  0
  -24.9710  -12.0010   20.6960 C   0  0  0  0  0  0  0  0  0  0  0  0
  -26.6010  -13.2230   20.0370 N   0  0  0  0  0  0  0  0  0  0  0  0
  -26.2330  -11.9410   20.2850 N   0  0  0  0  0  0  0  0  0  0  0  0
  -24.2200  -10.7530   20.8940 C   0  0  0  0  0  0  0  0  0  0  0  0
  -24.6350   -9.7800   21.8280 C   0  0  0  0  0  3  0  0  0  0  0  0
  -23.8840   -8.5990   22.0130 C   0  0  0  0  0  3  0  0  0  0  0  0
  -22.7030   -8.3840   21.2630 C   0  0  0  0  0  0  0  0  0  0  0  0
  -22.3070   -9.3460   20.3180 C   0  0  0  0  0  3  0  0  0  0  0  0
  -23.0590  -10.5180   20.1300 C   0  0  0  0  0  3  0  0  0  0  0  0
  -21.9240   -7.2560   21.3590 O   0  0  0  0  0  0  0  0  0  0  0  0
  -21.7800   -6.5780   22.5430 C   0  0  0  0  0  0  0  0  0  0  0  0
  -21.2510   -7.1980   23.6970 C   0  0  0  0  0  3  0  0  0  0  0  0
  -21.0550   -6.4460   24.8720 C   0  0  0  0  0  3  0  0  0  0  0  0
  -21.3790   -5.0760   24.8950 C   0  0  0  0  0  0  0  0  0  0  0  0
  -21.9020   -4.4560   23.7460 C   0  0  0  0  0  3  0  0  0  0  0  0
  -22.0990   -5.2060   22.5730 C   0  0  0  0  0  0  0  0  0  0  0  0
  -22.5830   -4.6000   21.4630 F   0  0  0  0  0  0  0  0  0  0  0  0
  -21.1840   -4.3500   26.0210 F   0  0  0  0  0  0  0  0  0  0  0  0
  -23.1960  -13.8700   21.2050 C   0  0  0  0  0  0  0  0  0  0  0  0
  -22.5130  -13.1700   22.1050 N   0  0  0  0  0  0  0  0  0  0  0  0
  -22.7510  -14.9220   20.7470 O   0  0  0  0  0  0  0  0  0  0  0  0
  -22.8880  -12.3190   22.4960 H   0  0  0  0  0  0  0  0  0  0  0  0
  -21.6030  -13.4900   22.4030 H   0  0  0  0  0  0  0  0  0  0  0  0
  -25.8010  -15.4920   20.2530 N   0  0  0  0  0  0  0  0  0  0  0  0
  -25.0600  -16.1570   20.4440 H   0  0  0  0  0  0  0  0  0  0  0  0
  -26.6210  -15.9210   19.8450 H   0  0  0  0  0  0  0  0  0  0  0  0
  1  8  2  0
  4  2  1  6
  4  3  1  0
  5 51  1  0
  5  4  1  0
  6  5  1  0
  6  2  1  1
  6  7  1  0
  6  4  1  0
  7  1  1  0
  7  3  1  0
  9 10  1  0
  9  1  1  0
 11 22  2  0
 12 10  1  0
 12 17  1  0
 13 21  1  0
 13 23  1  0
 14 20  1  0
 14 16  1  0
 15 21  1  0
 16 15  1  0
 17 16  2  0
 18 12  2  0
 19 18  1  0
 19 14  2  0
 20 13  1  0
 21 11  1  0
 23 25  2  0
 24 23  1  0
 26 24  1  0
 27 36  2  0
 27 32  1  0
 28 24  1  0
 28 32  1  0
 29 28  1  0
 30 31  1  0
 30 29  1  0
 31 27  1  0
 32 33  2  0
 33 34  1  0
 35 34  2  0
 36 35  1  0
 37 11  1  0
 37 38  1  0
 37 47  1  0
 38 41  1  0
 39 43  1  0
 39 38  1  0
 40 39  2  0
 43 42  1  0
 45 46  1  0
 45 43  1  0
 45 44  1  0
 47 50  1  1
 47 48  1  0
 49 47  1  0
 51 60  1  0
 52 58  1  0
 52 60  1  0
 53 58  1  0
 54 55  1  0
 54 53  1  0
 56 55  1  0
 56 65  1  0
 56 57  1  0
 58 57  1  0
 59 52  2  0
 60 61  1  0
 62 63  2  0
 63 82  1  0
 64 63  1  0
 64 67  1  0
 65 66  1  0
 65 62  1  0
 66 64  2  0
 67 68  1  0
 68 69  2  0
 70 73  1  0
 70 69  1  0
 71 70  2  0
 72 71  1  0
 72 67  2  0
 73 74  1  0
 74 79  2  0
 74 75  1  0
 75 76  2  0
 76 77  1  0
 77 81  1  0
 78 77  2  0
 79 78  1  0
 80 79  1  0
 82 83  1  0
 83 86  1  0
 83 85  1  0
 84 82  2  0
 87 62  1  0
 87 88  1  0
 89 87  1  0
M  ISO  4   9 101  10 101  52 100  60 100
M  END
>  <TORSDO>  (58) 
F 18

>  <SCORE>  (58) 
-14.562

>  <name>  (58) 
57

>  <ligand_id>  (58) 
57

>  <original_smiles>  (58) 
[H]c1c([H])c([H])c2c(c1[H])C([H])([H])C([H])([H])C([H])([H])C2([H])N([H])C(=O)C1([H])N(C(=O)C([H])(N([H])C(=O)C([H])(N([H])C([H])([H])[H])C([H])([H])[H])C(C([H])([H])[H])(C([H])([H])[H])C([H])([H])[H])C([H])([H])c2c([H])c(OC([H])([H])C(=O)N3C([H])([H])C4([H])C([H])([H])C3([H])C4([H])C([H])([H])N([H])C(=O)N3C([H])([H])C([H])([H])C([H])([H])C([H])(n4nc(-c5c([H])c([H])c(Oc6c([H])c([H])c(F)c([H])c6F)c([H])c5[H])c(C(=O)N([H])[H])c4N([H])[H])C3([H])[H])c([H])c([H])c2C1([H])[H]

>  <smiles>  (58) 
[H]c1c([H])c([H])c2c(c1[H])C([H])([H])C([H])([H])C([H])([H])C2([H])N([H])C(=O)C1([H])N(C(=O)C([H])(N([H])C(=O)C([H])(N([H])C([H])([H])[H])C([H])([H])[H])C(C([H])([H])[H])(C([H])([H])[H])C([H])([H])[H])C([H])([H])c2c([H])c(OC([H])([H])C(=O)N3C([H])([H])C4([H])C([H])([H])C3([H])C4([H])C([H])([H])N([H])C(=O)N3C([H])([H])C([H])([H])C([H])([H])C([H])(n4nc(-c5c([H])c([H])c(Oc6c([H])c([H])c(F)c([H])c6F)c([H])c5[H])c(C(=O)N([H])[H])c4N([H])[H])C3([H])[H])c([H])c([H])c2C1([H])[H]

$$$$
58:0:0
     RDKit          3D

 92101  0  0  1  0  0  0  0  0999 V2000
  -28.5020  -20.2070   20.4680 C   0  0  0  0  0  2  0  0  0  0  0  0
  -30.2460  -22.9580   20.6160 C   0  0  0  0  0  2  0  0  0  0  0  0
  -28.6850  -21.7140   19.8620 C   0  0  0  0  0  3  0  0  0  0  0  0
  -30.1720  -21.7630   19.6150 C   0  0  0  0  0  3  0  0  0  0  0  0
  -28.7200  -23.2410   20.5390 C   0  0  0  0  0  3  0  0  0  0  0  0
  -29.8460  -19.2670   20.4810 C   0  0  0  0  0  3  0  0  0  0  0  0
  -30.8200  -20.3330   19.8060 C   0  0  0  0  0  3  0  0  0  0  0  0
  -32.1350  -20.4190   20.4620 N   0  0  0  0  0  4  0  0  0  0  0  0
  -32.0520  -20.7630   21.4010 H   0  0  0  0  0  0  0  0  0  0  0  0
  -32.7320  -21.0440   19.9510 H   0  0  0  0  0  0  0  0  0  0  0  0
  -32.5830  -19.5200   20.4870 H   0  0  0  0  0  0  0  0  0  0  0  0
  -30.0350  -17.6880   19.8460 C   0  0  0  0  0  2  0  0  0  0  0  0
  -30.5730  -15.0310   20.3040 C   0  0  0  0  0  0  0  0  0  0  0  0
  -30.4320  -12.6770   19.3790 C   0  0  0  0  0  2  0  0  0  0  0  0
  -29.5120  -12.6560   18.1360 C   0  0  0  0  0  2  0  0  0  0  0  0
  -28.0460  -12.4430   18.5570 C   0  0  0  0  0  2  0  0  0  0  0  0
  -27.6350  -13.3550   19.7430 C   0  0  0  0  0  3  0  0  0  0  0  0
  -28.6850  -13.3680   20.8760 C   0  0  0  0  0  2  0  0  0  0  0  0
  -29.9640  -13.7740   20.2780 N   0  0  0  0  0  0  0  0  0  0  0  0
  -31.7630  -15.0800   19.9750 O   0  0  0  0  0  0  0  0  0  0  0  0
  -29.8270  -16.2390   20.4660 N   0  0  0  0  0  0  0  0  0  0  0  0
  -28.8860  -16.0700   20.7950 H   0  0  0  0  0  0  0  0  0  0  0  0
  -25.2480  -13.9220   20.4720 C   0  0  0  0  0  0  0  0  0  0  0  0
  -24.1840  -13.1430   20.8330 C   0  0  0  0  0  0  0  0  0  0  0  0
  -24.6510  -11.7930   20.7980 C   0  0  0  0  0  0  0  0  0  0  0  0
  -26.2940  -13.0470   20.2320 N   0  0  0  0  0  0  0  0  0  0  0  0
  -25.9440  -11.7600   20.4930 N   0  0  0  0  0  0  0  0  0  0  0  0
  -23.9230  -10.5290   20.9770 C   0  0  0  0  0  0  0  0  0  0  0  0
  -24.3350   -9.5670   21.9260 C   0  0  0  0  0  3  0  0  0  0  0  0
  -23.6060   -8.3690   22.0920 C   0  0  0  0  0  3  0  0  0  0  0  0
  -22.4510   -8.1250   21.3100 C   0  0  0  0  0  0  0  0  0  0  0  0
  -22.0610   -9.0750   20.3500 C   0  0  0  0  0  3  0  0  0  0  0  0
  -22.7910  -10.2630   20.1830 C   0  0  0  0  0  3  0  0  0  0  0  0
  -21.6970   -6.9790   21.3850 O   0  0  0  0  0  0  0  0  0  0  0  0
  -21.6020   -6.2540   22.5460 C   0  0  0  0  0  0  0  0  0  0  0  0
  -21.0920   -6.8160   23.7360 C   0  0  0  0  0  3  0  0  0  0  0  0
  -20.9470   -6.0150   24.8870 C   0  0  0  0  0  3  0  0  0  0  0  0
  -21.3040   -4.6540   24.8490 C   0  0  0  0  0  0  0  0  0  0  0  0
  -21.8100   -4.0930   23.6620 C   0  0  0  0  0  3  0  0  0  0  0  0
  -21.9550   -4.8900   22.5140 C   0  0  0  0  0  0  0  0  0  0  0  0
  -22.4220   -4.3390   21.3680 F   0  0  0  0  0  0  0  0  0  0  0  0
  -21.1600   -3.8810   25.9510 F   0  0  0  0  0  0  0  0  0  0  0  0
  -22.7840  -13.6180   21.0980 C   0  0  0  0  0  0  0  0  0  0  0  0
  -22.0450  -12.9120   21.9460 N   0  0  0  0  0  0  0  0  0  0  0  0
  -22.3550  -14.6520   20.5880 O   0  0  0  0  0  0  0  0  0  0  0  0
  -22.4030  -12.0760   22.3830 H   0  0  0  0  0  0  0  0  0  0  0  0
  -21.1070  -13.2160   22.1640 H   0  0  0  0  0  0  0  0  0  0  0  0
  -25.4110  -15.2940   20.3020 N   0  0  0  0  0  0  0  0  0  0  0  0
  -24.6400  -15.9450   20.4090 H   0  0  0  0  0  0  0  0  0  0  0  0
  -26.2530  -15.7340   19.9550 H   0  0  0  0  0  0  0  0  0  0  0  0
  -28.0870  -24.6790   19.8930 C   0  0  0  0  0  2  0  0  0  0  0  0
  -28.2420  -26.1830   20.3140 O   0  0  0  0  0  0  0  0  0  0  0  0
  -24.6210  -31.9330   23.1980 C   0  0  0  0  0  0  0  0  0  0  0  0
  -27.1920  -27.1780   20.2010 C   0  0  0  0  0  0  0  0  0  0  0  0
  -23.4190  -30.5280   21.5680 C   0  0  0  0  0  3  0  0  0  0  0  0
  -24.8680  -28.9410   20.1530 C   0  0  0  0  0  0  0  0  0  0  0  0
  -25.9750  -30.7810   21.4090 C   0  0  0  0  0  2  0  0  0  0  0  0
  -26.0460  -29.3830   20.7660 C   0  0  0  0  0  0  0  0  0  0  0  0
  -27.2040  -28.5150   20.7790 C   0  0  0  0  0  3  0  0  0  0  0  0
  -25.9930  -26.8570   19.5230 C   0  0  0  0  0  3  0  0  0  0  0  0
  -24.8560  -27.6940   19.5150 C   0  0  0  0  0  3  0  0  0  0  0  0
  -23.6400  -29.8410   20.1950 C   0  0  0  0  0  2  0  0  0  0  0  0
  -24.6920  -31.1030   22.1120 N   0  0  0  0  0  0  0  0  0  0  0  0
  -23.5340  -32.2250   23.7200 O   0  0  0  0  0  0  0  0  0  0  0  0
  -22.7360  -29.5300   22.5360 C   0  0  0  0  0  0  0  0  0  0  0  0
  -21.4070  -29.3620   22.4080 N   0  0  0  0  0  0  0  0  0  0  0  0
  -23.4040  -28.9080   23.3660 O   0  0  0  0  0  0  0  0  0  0  0  0
  -20.9240  -29.9140   21.7140 H   0  0  0  0  0  0  0  0  0  0  0  0
  -18.0170  -28.2020   22.9390 C   0  0  0  0  0  0  0  0  0  0  0  0
  -20.5820  -28.4340   23.1860 C   0  0  0  0  0  3  0  0  0  0  0  0
  -20.6610  -27.0010   22.6100 C   0  0  0  0  0  2  0  0  0  0  0  0
  -19.5460  -26.6920   21.6040 C   0  0  0  0  0  2  0  0  0  0  0  0
  -18.1710  -26.8520   22.2590 C   0  0  0  0  0  2  0  0  0  0  0  0
  -19.1480  -28.9510   23.3590 C   0  0  0  0  0  0  0  0  0  0  0  0
  -18.9460  -30.2150   23.9560 C   0  0  0  0  0  3  0  0  0  0  0  0
  -17.6470  -30.7270   24.1380 C   0  0  0  0  0  3  0  0  0  0  0  0
  -16.5320  -29.9740   23.7320 C   0  0  0  0  0  3  0  0  0  0  0  0
  -16.7180  -28.7140   23.1370 C   0  0  0  0  0  3  0  0  0  0  0  0
  -25.8990  -32.5690   23.8220 C   0  0  0  0  0  3  0  0  0  0  0  0
  -26.4050  -31.8070   25.1080 C   0  0  1  0  0  0  0  0  0  0  0  0
  -25.3050  -31.5750   26.1700 C   0  0  0  0  0  1  0  0  0  0  0  0
  -26.9940  -30.4280   24.7320 C   0  0  0  0  0  1  0  0  0  0  0  0
  -27.5490  -32.6060   25.7730 C   0  0  0  0  0  1  0  0  0  0  0  0
  -25.5870  -33.9700   24.1500 N   0  0  0  0  0  0  0  0  0  0  0  0
  -25.9160  -35.0250   23.3920 C   0  0  0  0  0  0  0  0  0  0  0  0
  -26.5820  -34.9210   22.3590 O   0  0  0  0  0  0  0  0  0  0  0  0
  -24.9960  -34.1240   24.9540 H   0  0  0  0  0  0  0  0  0  0  0  0
  -24.2000  -36.8300   23.0390 C   0  0  0  0  0  1  0  0  0  0  0  0
  -25.4340  -36.4150   23.8550 C   0  0  0  0  0  3  0  0  0  0  0  0
  -27.5630  -37.2940   24.7070 C   0  0  0  0  0  1  0  0  0  0  0  0
  -26.4720  -37.4640   23.7510 N   0  0  0  0  0  0  0  0  0  0  0  0
  -26.0680  -38.3860   23.8900 H   0  0  0  0  0  0  0  0  0  0  0  0
  1  6  1  0
  3  1  1  0
  3  5  1  0
  4  7  1  0
  4  3  1  0
  4  2  1  0
  5 51  1  0
  5  2  1  0
  6 12  1  0
  7  8  1  0
  7  6  1  0
  8 11  1  0
  8  9  1  0
 10  8  1  0
 12 21  1  0
 13 21  1  0
 14 19  1  0
 15 16  1  0
 15 14  1  0
 17 16  1  0
 17 26  1  0
 17 18  1  0
 19 13  1  0
 19 18  1  0
 20 13  2  0
 21 22  1  0
 23 24  2  0
 24 43  1  0
 25 24  1  0
 25 28  1  0
 26 23  1  0
 26 27  1  0
 27 25  2  0
 28 29  1  0
 29 30  2  0
 31 34  1  0
 31 30  1  0
 32 31  2  0
 33 32  1  0
 33 28  2  0
 34 35  1  0
 35 36  1  0
 36 37  2  0
 38 37  1  0
 38 42  1  0
 39 38  2  0
 40 35  2  0
 40 39  1  0
 41 40  1  0
 43 44  1  0
 44 47  1  0
 44 46  1  0
 45 43  2  0
 48 49  1  0
 48 23  1  0
 50 48  1  0
 51 52  1  0
 53 64  2  0
 54 52  1  0
 54 59  1  0
 55 63  1  0
 55 65  1  0
 56 62  1  0
 56 58  1  0
 57 63  1  0
 58 59  2  0
 58 57  1  0
 60 54  2  0
 61 60  1  0
 61 56  2  0
 62 55  1  0
 63 53  1  0
 65 67  2  0
 66 65  1  0
 68 66  1  0
 69 78  2  0
 69 74  1  0
 70 66  1  0
 70 74  1  0
 71 70  1  0
 72 73  1  0
 72 71  1  0
 73 69  1  0
 74 75  2  0
 75 76  1  0
 77 76  2  0
 78 77  1  0
 79 53  1  0
 79 84  1  0
 79 80  1  0
 80 83  1  1
 80 81  1  0
 82 80  1  0
 84 87  1  0
 85 89  1  0
 85 84  1  0
 86 85  2  0
 89 88  1  0
 91 89  1  0
 91 92  1  0
 91 90  1  0
M  ISO  4  13 100  21 100  51 101  52 101
M  END
>  <TORSDO>  (59) 
F 19

>  <SCORE>  (59) 
-15.715

>  <name>  (59) 
58

>  <ligand_id>  (59) 
58

>  <original_smiles>  (59) 
[H]c1c([H])c([H])c2c(c1[H])C([H])([H])C([H])([H])C([H])([H])C2([H])N([H])C(=O)C1([H])N(C(=O)C([H])(N([H])C(=O)C([H])(N([H])C([H])([H])[H])C([H])([H])[H])C(C([H])([H])[H])(C([H])([H])[H])C([H])([H])[H])C([H])([H])c2c([H])c(OC([H])([H])C3([H])C([H])([H])C4([H])C3([H])C([H])([H])C([H])(C([H])([H])N([H])C(=O)N3C([H])([H])C([H])([H])C([H])([H])C([H])(n5nc(-c6c([H])c([H])c(Oc7c([H])c([H])c(F)c([H])c7F)c([H])c6[H])c(C(=O)N([H])[H])c5N([H])[H])C3([H])[H])C4([H])[N+]([H])([H])[H])c([H])c([H])c2C1([H])[H]

>  <smiles>  (59) 
[H]c1c([H])c([H])c2c(c1[H])C([H])([H])C([H])([H])C([H])([H])C2([H])N([H])C(=O)C1([H])N(C(=O)C([H])(N([H])C(=O)C([H])(N([H])C([H])([H])[H])C([H])([H])[H])C(C([H])([H])[H])(C([H])([H])[H])C([H])([H])[H])C([H])([H])c2c([H])c(OC([H])([H])C3([H])C([H])([H])C4([H])C3([H])C([H])([H])C([H])(C([H])([H])N([H])C(=O)N3C([H])([H])C([H])([H])C([H])([H])C([H])(n5nc(-c6c([H])c([H])c(Oc7c([H])c([H])c(F)c([H])c7F)c([H])c6[H])c(C(=O)N([H])[H])c5N([H])[H])C3([H])[H])C4([H])[N+]([H])([H])[H])c([H])c([H])c2C1([H])[H]

$$$$
59:0:0
     RDKit          3D

 91100  0  0  1  0  0  0  0  0999 V2000
  -30.5500  -22.3040   20.7190 C   0  0  0  0  0  3  0  0  0  0  0  0
  -30.0730  -23.6380   20.8420 C   0  0  0  0  0  3  0  0  0  0  0  0
  -27.8680  -22.8600   20.2970 C   0  0  0  0  0  3  0  0  0  0  0  0
  -29.7120  -21.1950   20.4080 C   0  0  0  0  0  0  0  0  0  0  0  0
  -28.7100  -23.9480   20.6490 C   0  0  0  0  0  0  0  0  0  0  0  0
  -28.3380  -21.5160   20.1840 C   0  0  0  0  0  0  0  0  0  0  0  0
  -27.3230  -20.4400   19.8500 C   0  0  0  0  0  1  0  0  0  0  0  0
  -30.3470  -19.0120   19.0270 C   0  0  0  0  0  2  0  0  0  0  0  0
  -30.3860  -19.7890   20.3220 C   0  0  0  0  0  3  0  0  0  0  0  0
  -29.8240  -18.3270   20.2740 C   0  0  0  0  0  3  0  0  0  0  0  0
  -30.6050  -17.0990   20.8350 C   0  0  0  0  0  2  0  0  0  0  0  0
  -30.7110  -14.6090   20.2550 C   0  0  0  0  0  0  0  0  0  0  0  0
  -30.3630  -12.4180   19.1480 C   0  0  0  0  0  2  0  0  0  0  0  0
  -29.4070  -12.5900   17.9490 C   0  0  0  0  0  2  0  0  0  0  0  0
  -27.9390  -12.4660   18.4020 C   0  0  0  0  0  2  0  0  0  0  0  0
  -27.6220  -13.3220   19.6580 C   0  0  0  0  0  3  0  0  0  0  0  0
  -28.6980  -13.1490   20.7540 C   0  0  0  0  0  2  0  0  0  0  0  0
  -30.0070  -13.4410   20.1510 N   0  0  0  0  0  0  0  0  0  0  0  0
  -31.8600  -14.7070   19.8230 O   0  0  0  0  0  0  0  0  0  0  0  0
  -30.0500  -15.7140   20.7000 N   0  0  0  0  0  0  0  0  0  0  0  0
  -29.1060  -15.5690   21.0270 H   0  0  0  0  0  0  0  0  0  0  0  0
  -25.2430  -13.9400   20.4100 C   0  0  0  0  0  0  0  0  0  0  0  0
  -24.1760  -13.1760   20.7980 C   0  0  0  0  0  0  0  0  0  0  0  0
  -24.6260  -11.8200   20.7640 C   0  0  0  0  0  0  0  0  0  0  0  0
  -26.2780  -13.0500   20.1650 N   0  0  0  0  0  0  0  0  0  0  0  0
  -25.9120  -11.7710   20.4380 N   0  0  0  0  0  0  0  0  0  0  0  0
  -23.8910  -10.5640   20.9680 C   0  0  0  0  0  0  0  0  0  0  0  0
  -24.3150   -9.6050   21.9130 C   0  0  0  0  0  3  0  0  0  0  0  0
  -23.5800   -8.4150   22.1050 C   0  0  0  0  0  3  0  0  0  0  0  0
  -22.4060   -8.1760   21.3520 C   0  0  0  0  0  0  0  0  0  0  0  0
  -22.0000   -9.1250   20.3950 C   0  0  0  0  0  3  0  0  0  0  0  0
  -22.7370  -10.3050   20.2030 C   0  0  0  0  0  3  0  0  0  0  0  0
  -21.6440   -7.0380   21.4510 O   0  0  0  0  0  0  0  0  0  0  0  0
  -21.5740   -6.3180   22.6160 C   0  0  0  0  0  0  0  0  0  0  0  0
  -21.1130   -6.8930   23.8210 C   0  0  0  0  0  3  0  0  0  0  0  0
  -20.9920   -6.0990   24.9780 C   0  0  0  0  0  3  0  0  0  0  0  0
  -21.3200   -4.7320   24.9330 C   0  0  0  0  0  0  0  0  0  0  0  0
  -21.7730   -4.1550   23.7330 C   0  0  0  0  0  3  0  0  0  0  0  0
  -21.8960   -4.9460   22.5770 C   0  0  0  0  0  0  0  0  0  0  0  0
  -22.3120   -4.3810   21.4200 F   0  0  0  0  0  0  0  0  0  0  0  0
  -21.1950   -3.9670   26.0420 F   0  0  0  0  0  0  0  0  0  0  0  0
  -22.7860  -13.6660   21.0870 C   0  0  0  0  0  0  0  0  0  0  0  0
  -22.0620  -12.9750   21.9610 N   0  0  0  0  0  0  0  0  0  0  0  0
  -22.3510  -14.6950   20.5740 O   0  0  0  0  0  0  0  0  0  0  0  0
  -22.4260  -12.1420   22.3990 H   0  0  0  0  0  0  0  0  0  0  0  0
  -21.1310  -13.2860   22.1960 H   0  0  0  0  0  0  0  0  0  0  0  0
  -25.4180  -15.3070   20.2220 N   0  0  0  0  0  0  0  0  0  0  0  0
  -24.6580  -15.9720   20.3190 H   0  0  0  0  0  0  0  0  0  0  0  0
  -26.2650  -15.7270   19.8580 H   0  0  0  0  0  0  0  0  0  0  0  0
  -28.1060  -25.3370   21.0340 C   0  0  0  0  0  2  0  0  0  0  0  0
  -28.3610  -26.5330   20.2270 O   0  0  0  0  0  0  0  0  0  0  0  0
  -24.6010  -31.8750   23.2380 C   0  0  0  0  0  0  0  0  0  0  0  0
  -27.2670  -27.3930   20.1750 C   0  0  0  0  0  0  0  0  0  0  0  0
  -23.4140  -30.4760   21.5860 C   0  0  0  0  0  3  0  0  0  0  0  0
  -24.8860  -28.9470   20.1600 C   0  0  0  0  0  0  0  0  0  0  0  0
  -25.9460  -30.8300   21.4070 C   0  0  0  0  0  2  0  0  0  0  0  0
  -26.0450  -29.4560   20.7610 C   0  0  0  0  0  0  0  0  0  0  0  0
  -27.2430  -28.6890   20.7630 C   0  0  0  0  0  3  0  0  0  0  0  0
  -26.0930  -26.9280   19.5450 C   0  0  0  0  0  3  0  0  0  0  0  0
  -24.9080  -27.6860   19.5430 C   0  0  0  0  0  3  0  0  0  0  0  0
  -23.6390  -29.8060   20.2050 C   0  0  0  0  0  2  0  0  0  0  0  0
  -24.6740  -31.0760   22.1340 N   0  0  0  0  0  0  0  0  0  0  0  0
  -23.5150  -32.1400   23.7710 O   0  0  0  0  0  0  0  0  0  0  0  0
  -22.7570  -29.4500   22.5370 C   0  0  0  0  0  0  0  0  0  0  0  0
  -21.4310  -29.2730   22.4100 N   0  0  0  0  0  0  0  0  0  0  0  0
  -23.4370  -28.8170   23.3480 O   0  0  0  0  0  0  0  0  0  0  0  0
  -20.9420  -29.8320   21.7250 H   0  0  0  0  0  0  0  0  0  0  0  0
  -18.0500  -28.0950   22.9210 C   0  0  0  0  0  0  0  0  0  0  0  0
  -20.6120  -28.3320   23.1770 C   0  0  0  0  0  3  0  0  0  0  0  0
  -20.7000  -26.9090   22.5800 C   0  0  0  0  0  2  0  0  0  0  0  0
  -19.5860  -26.6100   21.5700 C   0  0  0  0  0  2  0  0  0  0  0  0
  -18.2110  -26.7550   22.2250 C   0  0  0  0  0  2  0  0  0  0  0  0
  -19.1770  -28.8430   23.3540 C   0  0  0  0  0  0  0  0  0  0  0  0
  -18.9720  -30.1000   23.9640 C   0  0  0  0  0  3  0  0  0  0  0  0
  -17.6720  -30.6080   24.1470 C   0  0  0  0  0  3  0  0  0  0  0  0
  -16.5590  -29.8570   23.7310 C   0  0  0  0  0  3  0  0  0  0  0  0
  -16.7500  -28.6030   23.1240 C   0  0  0  0  0  3  0  0  0  0  0  0
  -25.8790  -32.5120   23.8700 C   0  0  0  0  0  3  0  0  0  0  0  0
  -26.3790  -31.7500   25.1580 C   0  0  1  0  0  0  0  0  0  0  0  0
  -25.2710  -31.5170   26.2130 C   0  0  0  0  0  1  0  0  0  0  0  0
  -26.9670  -30.3700   24.7800 C   0  0  0  0  0  1  0  0  0  0  0  0
  -27.5230  -32.5470   25.8280 C   0  0  0  0  0  1  0  0  0  0  0  0
  -25.5670  -33.9130   24.1860 N   0  0  0  0  0  0  0  0  0  0  0  0
  -25.9130  -34.9580   23.4230 C   0  0  0  0  0  0  0  0  0  0  0  0
  -26.5990  -34.8450   22.4030 O   0  0  0  0  0  0  0  0  0  0  0  0
  -24.9670  -34.0750   24.9800 H   0  0  0  0  0  0  0  0  0  0  0  0
  -24.2020  -36.7520   23.0160 C   0  0  0  0  0  1  0  0  0  0  0  0
  -25.4210  -36.3500   23.8620 C   0  0  0  0  0  3  0  0  0  0  0  0
  -27.5360  -37.2310   24.7420 C   0  0  0  0  0  1  0  0  0  0  0  0
  -26.4600  -37.4000   23.7680 N   0  0  0  0  0  0  0  0  0  0  0  0
  -26.0540  -38.3220   23.9010 H   0  0  0  0  0  0  0  0  0  0  0  0
  1  2  1  0
  3  5  1  0
  4  1  2  0
  5  2  2  0
  5 50  1  0
  6  3  2  0
  6  4  1  0
  7  6  1  0
  8 10  1  0
  8  9  1  0
  9  4  1  0
 10  9  1  0
 10 11  1  0
 12 20  1  0
 13 18  1  0
 14 15  1  0
 14 13  1  0
 16 15  1  0
 16 25  1  0
 16 17  1  0
 18 12  1  0
 18 17  1  0
 19 12  2  0
 20 11  1  0
 20 21  1  0
 22 23  2  0
 23 42  1  0
 24 23  1  0
 24 27  1  0
 25 22  1  0
 25 26  1  0
 26 24  2  0
 27 28  1  0
 28 29  2  0
 30 33  1  0
 30 29  1  0
 31 30  2  0
 32 31  1  0
 32 27  2  0
 33 34  1  0
 34 35  1  0
 35 36  2  0
 37 36  1  0
 37 41  1  0
 38 37  2  0
 39 34  2  0
 39 38  1  0
 40 39  1  0
 42 43  1  0
 43 46  1  0
 43 45  1  0
 44 42  2  0
 47 48  1  0
 47 22  1  0
 49 47  1  0
 51 50  1  0
 52 63  2  0
 53 51  1  0
 53 58  1  0
 54 62  1  0
 54 64  1  0
 55 61  1  0
 55 57  1  0
 56 62  1  0
 57 58  2  0
 57 56  1  0
 59 53  2  0
 60 59  1  0
 60 55  2  0
 61 54  1  0
 62 52  1  0
 64 66  2  0
 65 64  1  0
 67 65  1  0
 68 77  2  0
 68 73  1  0
 69 65  1  0
 69 73  1  0
 70 69  1  0
 71 72  1  0
 71 70  1  0
 72 68  1  0
 73 74  2  0
 74 75  1  0
 76 75  2  0
 77 76  1  0
 78 52  1  0
 78 83  1  0
 78 79  1  0
 79 82  1  1
 79 80  1  0
 81 79  1  0
 83 86  1  0
 84 88  1  0
 84 83  1  0
 85 84  2  0
 88 87  1  0
 90 88  1  0
 90 91  1  0
 90 89  1  0
M  ISO  4  12 100  20 100  50 101  51 101
M  END
>  <TORSDO>  (60) 
F 19

>  <SCORE>  (60) 
-14.008

>  <name>  (60) 
59

>  <ligand_id>  (60) 
59

>  <original_smiles>  (60) 
[H]c1c([H])c([H])c2c(c1[H])C([H])([H])C([H])([H])C([H])([H])C2([H])N([H])C(=O)C1([H])N(C(=O)C([H])(N([H])C(=O)C([H])(N([H])C([H])([H])[H])C([H])([H])[H])C(C([H])([H])[H])(C([H])([H])[H])C([H])([H])[H])C([H])([H])c2c([H])c(OC([H])([H])c3c([H])c([H])c(C4([H])C([H])([H])C4([H])C([H])([H])N([H])C(=O)N4C([H])([H])C([H])([H])C([H])([H])C([H])(n5nc(-c6c([H])c([H])c(Oc7c([H])c([H])c(F)c([H])c7F)c([H])c6[H])c(C(=O)N([H])[H])c5N([H])[H])C4([H])[H])c(C([H])([H])[H])c3[H])c([H])c([H])c2C1([H])[H]

>  <smiles>  (60) 
[H]c1c([H])c([H])c2c(c1[H])C([H])([H])C([H])([H])C([H])([H])C2([H])N([H])C(=O)C1([H])N(C(=O)C([H])(N([H])C(=O)C([H])(N([H])C([H])([H])[H])C([H])([H])[H])C(C([H])([H])[H])(C([H])([H])[H])C([H])([H])[H])C([H])([H])c2c([H])c(OC([H])([H])c3c([H])c([H])c(C4([H])C([H])([H])C4([H])C([H])([H])N([H])C(=O)N4C([H])([H])C([H])([H])C([H])([H])C([H])(n5nc(-c6c([H])c([H])c(Oc7c([H])c([H])c(F)c([H])c7F)c([H])c6[H])c(C(=O)N([H])[H])c5N([H])[H])C4([H])[H])c(C([H])([H])[H])c3[H])c([H])c([H])c2C1([H])[H]

$$$$
60:0:0
     RDKit          3D

 93101  0  0  1  0  0  0  0  0999 V2000
  -30.1570  -21.6300   22.3440 C   0  0  0  0  0  3  0  0  0  0  0  0
  -28.8740  -21.2910   20.0080 C   0  0  0  0  0  3  0  0  0  0  0  0
  -30.2080  -20.3190   21.7760 C   0  0  0  0  0  0  0  0  0  0  0  0
  -29.5100  -22.7810   21.8020 C   0  0  0  0  0  0  0  0  0  0  0  0
  -29.5550  -19.9940   20.5480 C   0  0  0  0  0  0  0  0  0  0  0  0
  -28.8000  -22.7450   20.5760 C   0  0  0  0  0  0  0  0  0  0  0  0
  -29.5890  -24.0770   22.5960 C   0  0  0  0  0  1  0  0  0  0  0  0
  -31.0190  -19.2980   22.5230 C   0  0  0  0  0  0  0  0  0  0  0  0
  -32.2420  -19.6890   22.8650 N   0  0  0  0  0  0  0  0  0  0  0  0
  -30.5790  -18.1880   22.8170 O   0  0  0  0  0  0  0  0  0  0  0  0
  -32.5590  -20.6150   22.6150 H   0  0  0  0  0  0  0  0  0  0  0  0
  -32.8570  -19.0790   23.3820 H   0  0  0  0  0  0  0  0  0  0  0  0
  -29.8450  -18.3820   19.8470 C   0  0  0  0  0  2  0  0  0  0  0  0
  -30.5330  -15.4640   20.0380 C   0  0  0  0  0  0  0  0  0  0  0  0
  -30.4710  -13.0190   19.1260 C   0  0  0  0  0  2  0  0  0  0  0  0
  -29.5070  -12.8360   17.9270 C   0  0  0  0  0  2  0  0  0  0  0  0
  -28.0740  -12.5540   18.4110 C   0  0  0  0  0  2  0  0  0  0  0  0
  -27.6720  -13.4760   19.5890 C   0  0  0  0  0  3  0  0  0  0  0  0
  -28.7680  -13.6040   20.6720 C   0  0  0  0  0  2  0  0  0  0  0  0
  -29.9710  -14.1440   20.0110 N   0  0  0  0  0  0  0  0  0  0  0  0
  -31.7120  -15.4660   19.6550 O   0  0  0  0  0  0  0  0  0  0  0  0
  -29.8040  -16.7470   20.2980 N   0  0  0  0  0  0  0  0  0  0  0  0
  -28.9190  -16.5370   20.7330 H   0  0  0  0  0  0  0  0  0  0  0  0
  -25.3310  -14.0030   20.4510 C   0  0  0  0  0  0  0  0  0  0  0  0
  -24.2870  -13.2160   20.8490 C   0  0  0  0  0  0  0  0  0  0  0  0
  -24.7560  -11.8680   20.7710 C   0  0  0  0  0  0  0  0  0  0  0  0
  -26.3650  -13.1390   20.1450 N   0  0  0  0  0  0  0  0  0  0  0  0
  -26.0350  -11.8450   20.4050 N   0  0  0  0  0  0  0  0  0  0  0  0
  -24.0390  -10.6000   20.9670 C   0  0  0  0  0  0  0  0  0  0  0  0
  -24.4880   -9.6280   21.8890 C   0  0  0  0  0  3  0  0  0  0  0  0
  -23.7670   -8.4300   22.0750 C   0  0  0  0  0  3  0  0  0  0  0  0
  -22.5820   -8.1920   21.3390 C   0  0  0  0  0  0  0  0  0  0  0  0
  -22.1480   -9.1520   20.4090 C   0  0  0  0  0  3  0  0  0  0  0  0
  -22.8720  -10.3420   20.2200 C   0  0  0  0  0  3  0  0  0  0  0  0
  -21.8290   -7.0450   21.4360 O   0  0  0  0  0  0  0  0  0  0  0  0
  -21.7750   -6.3160   22.5950 C   0  0  0  0  0  0  0  0  0  0  0  0
  -21.3170   -6.8750   23.8080 C   0  0  0  0  0  3  0  0  0  0  0  0
  -21.2110   -6.0710   24.9600 C   0  0  0  0  0  3  0  0  0  0  0  0
  -21.5530   -4.7060   24.9010 C   0  0  0  0  0  0  0  0  0  0  0  0
  -22.0040   -4.1460   23.6930 C   0  0  0  0  0  3  0  0  0  0  0  0
  -22.1120   -4.9470   22.5430 C   0  0  0  0  0  0  0  0  0  0  0  0
  -22.5270   -4.3970   21.3790 F   0  0  0  0  0  0  0  0  0  0  0  0
  -21.4460   -3.9320   26.0050 F   0  0  0  0  0  0  0  0  0  0  0  0
  -22.9000  -13.6860   21.1810 C   0  0  0  0  0  0  0  0  0  0  0  0
  -22.2060  -12.9760   22.0630 N   0  0  0  0  0  0  0  0  0  0  0  0
  -22.4430  -14.7210   20.6980 O   0  0  0  0  0  0  0  0  0  0  0  0
  -22.5870  -12.1420   22.4820 H   0  0  0  0  0  0  0  0  0  0  0  0
  -21.2780  -13.2770   22.3280 H   0  0  0  0  0  0  0  0  0  0  0  0
  -25.4840  -15.3780   20.2900 N   0  0  0  0  0  0  0  0  0  0  0  0
  -24.7210  -16.0280   20.4530 H   0  0  0  0  0  0  0  0  0  0  0  0
  -26.3030  -15.8200   19.8920 H   0  0  0  0  0  0  0  0  0  0  0  0
  -27.9470  -24.2220   20.0820 C   0  0  0  0  0  2  0  0  0  0  0  0
  -28.1480  -25.8510   20.3890 O   0  0  0  0  0  0  0  0  0  0  0  0
  -24.6250  -31.9260   23.2370 C   0  0  0  0  0  0  0  0  0  0  0  0
  -27.1490  -26.9730   20.2750 C   0  0  0  0  0  0  0  0  0  0  0  0
  -23.4160  -30.5070   21.6310 C   0  0  0  0  0  3  0  0  0  0  0  0
  -24.8520  -28.8750   20.2160 C   0  0  0  0  0  0  0  0  0  0  0  0
  -25.9820  -30.7060   21.4590 C   0  0  0  0  0  2  0  0  0  0  0  0
  -26.0450  -29.2830   20.8240 C   0  0  0  0  0  0  0  0  0  0  0  0
  -27.1830  -28.3520   20.8310 C   0  0  0  0  0  3  0  0  0  0  0  0
  -25.9270  -26.7280   19.6060 C   0  0  0  0  0  3  0  0  0  0  0  0
  -24.8200  -27.6190   19.5870 C   0  0  0  0  0  3  0  0  0  0  0  0
  -23.6340  -29.8000   20.2620 C   0  0  0  0  0  2  0  0  0  0  0  0
  -24.6960  -31.0750   22.1620 N   0  0  0  0  0  0  0  0  0  0  0  0
  -23.5410  -32.2230   23.7650 O   0  0  0  0  0  0  0  0  0  0  0  0
  -22.7270  -29.5300   22.6210 C   0  0  0  0  0  0  0  0  0  0  0  0
  -21.3990  -29.3460   22.4940 N   0  0  0  0  0  0  0  0  0  0  0  0
  -23.3950  -28.9340   23.4690 O   0  0  0  0  0  0  0  0  0  0  0  0
  -20.9120  -29.8760   21.7850 H   0  0  0  0  0  0  0  0  0  0  0  0
  -18.0340  -28.0820   23.0030 C   0  0  0  0  0  0  0  0  0  0  0  0
  -20.5840  -28.4160   23.2840 C   0  0  0  0  0  3  0  0  0  0  0  0
  -20.7230  -26.9690   22.7560 C   0  0  0  0  0  2  0  0  0  0  0  0
  -19.6390  -26.5900   21.7410 C   0  0  0  0  0  2  0  0  0  0  0  0
  -18.2480  -26.7200   22.3670 C   0  0  0  0  0  2  0  0  0  0  0  0
  -19.1300  -28.8850   23.4200 C   0  0  0  0  0  0  0  0  0  0  0  0
  -18.8730  -30.1550   23.9790 C   0  0  0  0  0  3  0  0  0  0  0  0
  -17.5540  -30.6260   24.1240 C   0  0  0  0  0  3  0  0  0  0  0  0
  -16.4730  -29.8210   23.7220 C   0  0  0  0  0  3  0  0  0  0  0  0
  -16.7130  -28.5520   23.1680 C   0  0  0  0  0  3  0  0  0  0  0  0
  -25.9010  -32.5790   23.8500 C   0  0  0  0  0  3  0  0  0  0  0  0
  -26.4200  -31.8290   25.1400 C   0  0  1  0  0  0  0  0  0  0  0  0
  -25.3270  -31.6040   26.2140 C   0  0  0  0  0  1  0  0  0  0  0  0
  -27.0060  -30.4480   24.7750 C   0  0  0  0  0  1  0  0  0  0  0  0
  -27.5710  -32.6340   25.7870 C   0  0  0  0  0  1  0  0  0  0  0  0
  -25.5810  -33.9810   24.1780 N   0  0  0  0  0  0  0  0  0  0  0  0
  -25.9100  -35.0410   23.4240 C   0  0  0  0  0  0  0  0  0  0  0  0
  -26.5740  -34.9400   22.3900 O   0  0  0  0  0  0  0  0  0  0  0  0
  -24.9860  -34.1290   24.9780 H   0  0  0  0  0  0  0  0  0  0  0  0
  -24.1880  -36.8480   23.0890 C   0  0  0  0  0  1  0  0  0  0  0  0
  -25.4320  -36.4310   23.8930 C   0  0  0  0  0  3  0  0  0  0  0  0
  -27.5680  -37.3120   24.7250 C   0  0  0  0  0  1  0  0  0  0  0  0
  -26.4670  -37.4820   23.7790 N   0  0  0  0  0  0  0  0  0  0  0  0
  -26.0650  -38.4040   23.9210 H   0  0  0  0  0  0  0  0  0  0  0  0
  2  5  2  0
  2  6  1  0
  3  1  2  0
  3  8  1  0
  4  1  1  0
  4  7  1  0
  5  3  1  0
  6  4  2  0
  8 10  2  0
  8  9  1  0
  9 12  1  0
 11  9  1  0
 13 22  1  0
 13  5  1  0
 14 22  1  0
 15 20  1  0
 16 17  1  0
 16 15  1  0
 18 17  1  0
 18 27  1  0
 18 19  1  0
 20 14  1  0
 20 19  1  0
 21 14  2  0
 22 23  1  0
 24 25  2  0
 25 44  1  0
 26 25  1  0
 26 29  1  0
 27 28  1  0
 27 24  1  0
 28 26  2  0
 29 30  1  0
 30 31  2  0
 32 35  1  0
 32 31  1  0
 33 32  2  0
 34 33  1  0
 34 29  2  0
 35 36  1  0
 36 37  1  0
 37 38  2  0
 39 38  1  0
 39 43  1  0
 40 39  2  0
 41 36  2  0
 41 40  1  0
 42 41  1  0
 44 45  1  0
 45 48  1  0
 45 47  1  0
 46 44  2  0
 49 24  1  0
 49 50  1  0
 51 49  1  0
 52 53  1  0
 52  6  1  0
 54 65  2  0
 55 53  1  0
 55 60  1  0
 56 64  1  0
 56 66  1  0
 57 63  1  0
 57 59  1  0
 58 64  1  0
 59 60  2  0
 59 58  1  0
 61 55  2  0
 62 61  1  0
 62 57  2  0
 63 56  1  0
 64 54  1  0
 66 68  2  0
 67 66  1  0
 69 67  1  0
 70 79  2  0
 70 75  1  0
 71 67  1  0
 71 75  1  0
 72 71  1  0
 73 74  1  0
 73 72  1  0
 74 70  1  0
 75 76  2  0
 76 77  1  0
 78 77  2  0
 79 78  1  0
 80 54  1  0
 80 85  1  0
 80 81  1  0
 81 84  1  1
 81 82  1  0
 83 81  1  0
 85 88  1  0
 86 90  1  0
 86 85  1  0
 87 86  2  0
 90 89  1  0
 92 90  1  0
 92 93  1  0
 92 91  1  0
M  ISO  4  14 100  22 100  52 101  53 101
M  END
>  <TORSDO>  (61) 
F 19

>  <SCORE>  (61) 
-16.006

>  <name>  (61) 
60

>  <ligand_id>  (61) 
60

>  <original_smiles>  (61) 
[H]c1c([H])c([H])c2c(c1[H])C([H])([H])C([H])([H])C([H])([H])C2([H])N([H])C(=O)C1([H])N(C(=O)C([H])(N([H])C(=O)C([H])(N([H])C([H])([H])[H])C([H])([H])[H])C(C([H])([H])[H])(C([H])([H])[H])C([H])([H])[H])C([H])([H])c2c([H])c(OC([H])([H])c3c([H])c(C([H])([H])N([H])C(=O)N4C([H])([H])C([H])([H])C([H])([H])C([H])(n5nc(-c6c([H])c([H])c(Oc7c([H])c([H])c(F)c([H])c7F)c([H])c6[H])c(C(=O)N([H])[H])c5N([H])[H])C4([H])[H])c(C(=O)N([H])[H])c([H])c3C([H])([H])[H])c([H])c([H])c2C1([H])[H]

>  <smiles>  (61) 
[H]c1c([H])c([H])c2c(c1[H])C([H])([H])C([H])([H])C([H])([H])C2([H])N([H])C(=O)C1([H])N(C(=O)C([H])(N([H])C(=O)C([H])(N([H])C([H])([H])[H])C([H])([H])[H])C(C([H])([H])[H])(C([H])([H])[H])C([H])([H])[H])C([H])([H])c2c([H])c(OC([H])([H])c3c([H])c(C([H])([H])N([H])C(=O)N4C([H])([H])C([H])([H])C([H])([H])C([H])(n5nc(-c6c([H])c([H])c(Oc7c([H])c([H])c(F)c([H])c7F)c([H])c6[H])c(C(=O)N([H])[H])c5N([H])[H])C4([H])[H])c(C(=O)N([H])[H])c([H])c3C([H])([H])[H])c([H])c([H])c2C1([H])[H]

$$$$
61:0:0
     RDKit          3D

 86 95  0  0  1  0  0  0  0  0999 V2000
  -29.2190  -22.1760   21.7270 C   0  0  0  0  0  2  0  0  0  0  0  0
  -28.9800  -19.5700   20.4500 C   0  0  0  0  0  3  0  0  0  0  0  0
  -29.6530  -20.7610   21.2110 C   0  0  0  0  0  3  0  0  0  0  0  0
  -28.9800  -21.1750   19.8530 C   0  0  0  0  0  3  0  0  0  0  0  0
  -28.9310  -22.8270   20.3870 C   0  0  0  0  0  3  0  0  0  0  0  0
  -29.8200  -18.0040   20.1670 C   0  0  0  0  0  0  0  0  0  0  0  0
  -31.1430  -18.3200   19.4960 C   0  0  0  0  0  1  0  0  0  0  0  0
  -29.5350  -16.6440   20.4440 N   0  0  0  0  0  0  0  0  0  0  0  0
  -30.3610  -15.3450   20.2260 C   0  0  0  0  0  0  0  0  0  0  0  0
  -30.3510  -12.8860   19.3820 C   0  0  0  0  0  2  0  0  0  0  0  0
  -29.4330  -12.7080   18.1470 C   0  0  0  0  0  2  0  0  0  0  0  0
  -27.9830  -12.4310   18.5800 C   0  0  0  0  0  2  0  0  0  0  0  0
  -27.5320  -13.3790   19.7200 C   0  0  0  0  0  3  0  0  0  0  0  0
  -28.5830  -13.5210   20.8390 C   0  0  0  0  0  2  0  0  0  0  0  0
  -29.8210  -14.0240   20.2220 N   0  0  0  0  0  0  0  0  0  0  0  0
  -31.5630  -15.3280   19.9320 O   0  0  0  0  0  0  0  0  0  0  0  0
  -25.1660  -13.9080   20.5010 C   0  0  0  0  0  0  0  0  0  0  0  0
  -24.1120  -13.1220   20.8720 C   0  0  0  0  0  0  0  0  0  0  0  0
  -24.5880  -11.7740   20.8280 C   0  0  0  0  0  0  0  0  0  0  0  0
  -26.2120  -13.0440   20.2380 N   0  0  0  0  0  0  0  0  0  0  0  0
  -25.8780  -11.7540   20.5040 N   0  0  0  0  0  0  0  0  0  0  0  0
  -23.8710  -10.5060   21.0160 C   0  0  0  0  0  0  0  0  0  0  0  0
  -24.3030   -9.5420   21.9550 C   0  0  0  0  0  3  0  0  0  0  0  0
  -23.5820   -8.3410   22.1320 C   0  0  0  0  0  3  0  0  0  0  0  0
  -22.4150   -8.0950   21.3720 C   0  0  0  0  0  0  0  0  0  0  0  0
  -22.0020   -9.0460   20.4230 C   0  0  0  0  0  3  0  0  0  0  0  0
  -22.7240  -10.2390   20.2430 C   0  0  0  0  0  3  0  0  0  0  0  0
  -21.6660   -6.9460   21.4580 O   0  0  0  0  0  0  0  0  0  0  0  0
  -21.5970   -6.2150   22.6160 C   0  0  0  0  0  0  0  0  0  0  0  0
  -21.1310   -6.7770   23.8240 C   0  0  0  0  0  3  0  0  0  0  0  0
  -21.0120   -5.9720   24.9760 C   0  0  0  0  0  3  0  0  0  0  0  0
  -21.3480   -4.6060   24.9190 C   0  0  0  0  0  0  0  0  0  0  0  0
  -21.8070   -4.0430   23.7160 C   0  0  0  0  0  3  0  0  0  0  0  0
  -21.9280   -4.8450   22.5670 C   0  0  0  0  0  0  0  0  0  0  0  0
  -22.3510   -4.2930   21.4040 F   0  0  0  0  0  0  0  0  0  0  0  0
  -21.2270   -3.8320   26.0220 F   0  0  0  0  0  0  0  0  0  0  0  0
  -22.7130  -13.5870   21.1530 C   0  0  0  0  0  0  0  0  0  0  0  0
  -21.9970  -12.8860   22.0240 N   0  0  0  0  0  0  0  0  0  0  0  0
  -22.2670  -14.6110   20.6370 O   0  0  0  0  0  0  0  0  0  0  0  0
  -22.3720  -12.0590   22.4640 H   0  0  0  0  0  0  0  0  0  0  0  0
  -21.0580  -13.1830   22.2560 H   0  0  0  0  0  0  0  0  0  0  0  0
  -25.3170  -15.2830   20.3390 N   0  0  0  0  0  0  0  0  0  0  0  0
  -24.5550  -15.9360   20.4850 H   0  0  0  0  0  0  0  0  0  0  0  0
  -26.1820  -15.7320   20.0590 H   0  0  0  0  0  0  0  0  0  0  0  0
  -27.9120  -24.2920   20.1190 C   0  0  0  0  0  2  0  0  0  0  0  0
  -28.1500  -25.9140   20.3190 O   0  0  0  0  0  0  0  0  0  0  0  0
  -24.6340  -31.9100   23.2700 C   0  0  0  0  0  0  0  0  0  0  0  0
  -27.1450  -27.0160   20.2500 C   0  0  0  0  0  0  0  0  0  0  0  0
  -23.4280  -30.5250   21.6300 C   0  0  0  0  0  3  0  0  0  0  0  0
  -24.8610  -28.9110   20.2030 C   0  0  0  0  0  0  0  0  0  0  0  0
  -25.9960  -30.7170   21.4810 C   0  0  0  0  0  2  0  0  0  0  0  0
  -26.0530  -29.3080   20.8220 C   0  0  0  0  0  0  0  0  0  0  0  0
  -27.1910  -28.3830   20.8180 C   0  0  0  0  0  3  0  0  0  0  0  0
  -25.9240  -26.7680   19.5850 C   0  0  0  0  0  3  0  0  0  0  0  0
  -24.8220  -27.6620   19.5620 C   0  0  0  0  0  3  0  0  0  0  0  0
  -23.6490  -29.8400   20.2530 C   0  0  0  0  0  2  0  0  0  0  0  0
  -24.7080  -31.0780   22.1800 N   0  0  0  0  0  0  0  0  0  0  0  0
  -23.5470  -32.2060   23.7920 O   0  0  0  0  0  0  0  0  0  0  0  0
  -22.7270  -29.5330   22.5970 C   0  0  0  0  0  0  0  0  0  0  0  0
  -21.3950  -29.3740   22.4680 N   0  0  0  0  0  0  0  0  0  0  0  0
  -23.3860  -28.9080   23.4300 O   0  0  0  0  0  0  0  0  0  0  0  0
  -20.9160  -29.9260   21.7700 H   0  0  0  0  0  0  0  0  0  0  0  0
  -18.0100  -28.1700   22.9650 C   0  0  0  0  0  0  0  0  0  0  0  0
  -20.5680  -28.4420   23.2420 C   0  0  0  0  0  3  0  0  0  0  0  0
  -20.6740  -27.0050   22.6790 C   0  0  0  0  0  2  0  0  0  0  0  0
  -19.5790  -26.6730   21.6610 C   0  0  0  0  0  2  0  0  0  0  0  0
  -18.1930  -26.8180   22.2960 C   0  0  0  0  0  2  0  0  0  0  0  0
  -19.1240  -28.9380   23.3950 C   0  0  0  0  0  0  0  0  0  0  0  0
  -18.8960  -30.2020   23.9840 C   0  0  0  0  0  3  0  0  0  0  0  0
  -17.5870  -30.6940   24.1450 C   0  0  0  0  0  3  0  0  0  0  0  0
  -16.4880  -29.9240   23.7290 C   0  0  0  0  0  3  0  0  0  0  0  0
  -16.7010  -28.6630   23.1430 C   0  0  0  0  0  3  0  0  0  0  0  0
  -25.9090  -32.5430   23.9010 C   0  0  0  0  0  3  0  0  0  0  0  0
  -25.6040  -33.9470   24.2280 N   0  0  0  0  0  0  0  0  0  0  0  0
  -25.9230  -35.0010   23.4650 C   0  0  0  0  0  0  0  0  0  0  0  0
  -26.5660  -34.8940   22.4180 O   0  0  0  0  0  0  0  0  0  0  0  0
  -25.0290  -34.1030   25.0430 H   0  0  0  0  0  0  0  0  0  0  0  0
  -24.1800  -36.7990   23.1780 C   0  0  0  0  0  1  0  0  0  0  0  0
  -25.4560  -36.3940   23.9350 C   0  0  0  0  0  3  0  0  0  0  0  0
  -27.6210  -37.2930   24.6680 C   0  0  0  0  0  1  0  0  0  0  0  0
  -26.4810  -37.4490   23.7700 N   0  0  0  0  0  0  0  0  0  0  0  0
  -26.0800  -38.3690   23.9250 H   0  0  0  0  0  0  0  0  0  0  0  0
  -26.4040  -31.7810   25.1930 C   0  0  1  0  0  0  0  0  0  0  0  0
  -25.2990  -31.5670   26.2540 C   0  0  0  0  0  1  0  0  0  0  0  0
  -26.9760  -30.3920   24.8300 C   0  0  0  0  0  1  0  0  0  0  0  0
  -27.5580  -32.5700   25.8560 C   0  0  0  0  0  1  0  0  0  0  0  0
  2  6  1  0
  2  3  1  0
  3  1  1  0
  4  5  1  0
  4  2  1  0
  4  3  1  0
  5  1  1  0
  6  8  2  0
  7  6  1  0
  9  8  1  0
 10 15  1  0
 11 12  1  0
 11 10  1  0
 12 13  1  0
 13 20  1  0
 13 14  1  0
 15  9  1  0
 15 14  1  0
 16  9  2  0
 17 18  2  0
 18 37  1  0
 19 18  1  0
 19 22  1  0
 20 17  1  0
 20 21  1  0
 21 19  2  0
 22 23  1  0
 23 24  2  0
 25 28  1  0
 25 24  1  0
 26 25  2  0
 27 26  1  0
 27 22  2  0
 28 29  1  0
 29 30  1  0
 30 31  2  0
 32 31  1  0
 32 36  1  0
 33 32  2  0
 34 29  2  0
 34 33  1  0
 35 34  1  0
 37 38  1  0
 38 41  1  0
 38 40  1  0
 39 37  2  0
 42 43  1  0
 42 17  1  0
 44 42  1  0
 45 46  1  0
 45  5  1  0
 47 58  2  0
 47 73  1  0
 48 46  1  0
 48 53  1  0
 49 57  1  0
 49 59  1  0
 50 56  1  0
 50 52  1  0
 51 57  1  0
 52 51  1  0
 53 52  2  0
 54 48  2  0
 55 54  1  0
 55 50  2  0
 56 49  1  0
 57 47  1  0
 59 61  2  0
 60 59  1  0
 60 64  1  0
 62 60  1  0
 63 72  2  0
 63 68  1  0
 64 68  1  0
 65 64  1  0
 66 67  1  0
 66 65  1  0
 67 63  1  0
 68 69  2  0
 69 70  1  0
 71 70  2  0
 72 71  1  0
 73 74  1  0
 73 83  1  0
 74 77  1  0
 75 79  1  0
 75 74  1  0
 76 75  2  0
 78 79  1  0
 81 82  1  0
 81 79  1  0
 81 80  1  0
 83 86  1  1
 83 84  1  0
 85 83  1  0
M  ISO  4   8 100   9 100  45 101  46 101
M  END
>  <TORSDO>  (62) 
F 18

>  <SCORE>  (62) 
-16.174

>  <name>  (62) 
61

>  <ligand_id>  (62) 
61

>  <original_smiles>  (62) 
[H]c1c([H])c([H])c2c(c1[H])C([H])([H])C([H])([H])C([H])([H])C2([H])N([H])C(=O)C1([H])N(C(=O)C([H])(N([H])C(=O)C([H])(N([H])C([H])([H])[H])C([H])([H])[H])C(C([H])([H])[H])(C([H])([H])[H])C([H])([H])[H])C([H])([H])c2c([H])c(OC([H])([H])C3([H])C([H])([H])C4([H])C([H])(C(=NC(=O)N5C([H])([H])C([H])([H])C([H])([H])C([H])(n6nc(-c7c([H])c([H])c(Oc8c([H])c([H])c(F)c([H])c8F)c([H])c7[H])c(C(=O)N([H])[H])c6N([H])[H])C5([H])[H])C([H])([H])[H])C34[H])c([H])c([H])c2C1([H])[H]

>  <smiles>  (62) 
[H]c1c([H])c([H])c2c(c1[H])C([H])([H])C([H])([H])C([H])([H])C2([H])N([H])C(=O)C1([H])N(C(=O)C([H])(N([H])C(=O)C([H])(N([H])C([H])([H])[H])C([H])([H])[H])C(C([H])([H])[H])(C([H])([H])[H])C([H])([H])[H])C([H])([H])c2c([H])c(OC([H])([H])C3([H])C([H])([H])C4([H])C([H])(C(=NC(=O)N5C([H])([H])C([H])([H])C([H])([H])C([H])(n6nc(-c7c([H])c([H])c(Oc8c([H])c([H])c(F)c([H])c8F)c([H])c7[H])c(C(=O)N([H])[H])c6N([H])[H])C5([H])[H])C([H])([H])[H])C34[H])c([H])c([H])c2C1([H])[H]

$$$$
62:0:0
     RDKit          3D

 92101  0  0  1  0  0  0  0  0999 V2000
  -29.6470  -20.4120   20.0140 C   0  0  0  0  0  0  0  0  0  0  0  0
  -29.2780  -21.5800   20.5990 N   0  0  0  0  0  0  0  0  0  0  0  0
  -29.8390  -20.3150   18.7990 O   0  0  0  0  0  0  0  0  0  0  0  0
  -29.1750  -21.5720   21.6060 H   0  0  0  0  0  0  0  0  0  0  0  0
  -31.1530  -18.4470   23.0440 C   0  0  0  0  0  2  0  0  0  0  0  0
  -30.5770  -17.0410   22.8420 C   0  0  0  0  0  2  0  0  0  0  0  0
  -29.7400  -19.2150   20.9320 C   0  0  0  0  0  3  0  0  0  0  0  0
  -31.0340  -19.1180   21.6950 C   0  0  0  0  0  3  0  0  0  0  0  0
  -30.7400  -18.0720   20.6390 C   0  0  0  0  0  3  0  0  0  0  0  0
  -30.9100  -16.7240   21.3730 C   0  0  0  0  0  3  0  0  0  0  0  0
  -30.8470  -14.4680   20.2080 C   0  0  0  0  0  0  0  0  0  0  0  0
  -30.4270  -12.3130   19.0340 C   0  0  0  0  0  2  0  0  0  0  0  0
  -29.4450  -12.5100   17.8600 C   0  0  0  0  0  2  0  0  0  0  0  0
  -27.9920  -12.3990   18.3540 C   0  0  0  0  0  2  0  0  0  0  0  0
  -27.7200  -13.2650   19.6110 C   0  0  0  0  0  3  0  0  0  0  0  0
  -28.8100  -13.0550   20.6860 C   0  0  0  0  0  2  0  0  0  0  0  0
  -30.1160  -13.3240   20.0640 N   0  0  0  0  0  0  0  0  0  0  0  0
  -31.9510  -14.6140   19.6710 O   0  0  0  0  0  0  0  0  0  0  0  0
  -30.2700  -15.4740   20.9030 N   0  0  0  0  0  0  0  0  0  0  0  0
  -29.3580  -15.2600   21.2820 H   0  0  0  0  0  0  0  0  0  0  0  0
  -25.3650  -13.9310   20.4070 C   0  0  0  0  0  0  0  0  0  0  0  0
  -24.2920  -13.1830   20.8110 C   0  0  0  0  0  0  0  0  0  0  0  0
  -24.7210  -11.8190   20.7650 C   0  0  0  0  0  0  0  0  0  0  0  0
  -26.3790  -13.0240   20.1400 N   0  0  0  0  0  0  0  0  0  0  0  0
  -25.9970  -11.7500   20.4130 N   0  0  0  0  0  0  0  0  0  0  0  0
  -23.9700  -10.5740   20.9730 C   0  0  0  0  0  0  0  0  0  0  0  0
  -24.4030   -9.5900   21.8860 C   0  0  0  0  0  3  0  0  0  0  0  0
  -23.6500   -8.4110   22.0800 C   0  0  0  0  0  3  0  0  0  0  0  0
  -22.4470   -8.2120   21.3600 C   0  0  0  0  0  0  0  0  0  0  0  0
  -22.0340   -9.1860   20.4330 C   0  0  0  0  0  3  0  0  0  0  0  0
  -22.7890  -10.3540   20.2380 C   0  0  0  0  0  3  0  0  0  0  0  0
  -21.6640   -7.0870   21.4650 O   0  0  0  0  0  0  0  0  0  0  0  0
  -21.6270   -6.3440   22.6160 C   0  0  0  0  0  0  0  0  0  0  0  0
  -21.2540   -6.9070   23.8560 C   0  0  0  0  0  3  0  0  0  0  0  0
  -21.1590   -6.0910   25.0020 C   0  0  0  0  0  3  0  0  0  0  0  0
  -21.4290   -4.7120   24.9090 C   0  0  0  0  0  0  0  0  0  0  0  0
  -21.7950   -4.1480   23.6730 C   0  0  0  0  0  3  0  0  0  0  0  0
  -21.8890   -4.9610   22.5310 C   0  0  0  0  0  0  0  0  0  0  0  0
  -22.2210   -4.4070   21.3390 F   0  0  0  0  0  0  0  0  0  0  0  0
  -21.3330   -3.9260   26.0070 F   0  0  0  0  0  0  0  0  0  0  0  0
  -22.9170  -13.6950   21.1290 C   0  0  0  0  0  0  0  0  0  0  0  0
  -22.2020  -13.0150   22.0190 N   0  0  0  0  0  0  0  0  0  0  0  0
  -22.4890  -14.7310   20.6270 O   0  0  0  0  0  0  0  0  0  0  0  0
  -22.5630  -12.1720   22.4420 H   0  0  0  0  0  0  0  0  0  0  0  0
  -21.2830  -13.3430   22.2780 H   0  0  0  0  0  0  0  0  0  0  0  0
  -25.5540  -15.2970   20.2230 N   0  0  0  0  0  0  0  0  0  0  0  0
  -24.8040  -15.9640   20.3590 H   0  0  0  0  0  0  0  0  0  0  0  0
  -26.3980  -15.7190   19.8530 H   0  0  0  0  0  0  0  0  0  0  0  0
  -28.7310  -22.7600   19.8970 C   0  0  0  0  0  2  0  0  0  0  0  0
  -29.0960  -24.1770   20.4610 C   0  0  0  0  0  2  0  0  0  0  0  0
  -28.4420  -25.3160   19.6170 C   0  0  0  0  0  2  0  0  0  0  0  0
  -28.3430  -26.6180   20.2580 O   0  0  0  0  0  0  0  0  0  0  0  0
  -24.6040  -31.9170   23.2810 C   0  0  0  0  0  0  0  0  0  0  0  0
  -27.1690  -27.3680   20.2210 C   0  0  0  0  0  0  0  0  0  0  0  0
  -23.3770  -30.5230   21.6530 C   0  0  0  0  0  3  0  0  0  0  0  0
  -24.8050  -28.9600   20.2350 C   0  0  0  0  0  0  0  0  0  0  0  0
  -25.9160  -30.8230   21.4630 C   0  0  0  0  0  2  0  0  0  0  0  0
  -25.9760  -29.4440   20.8300 C   0  0  0  0  0  0  0  0  0  0  0  0
  -27.1550  -28.6530   20.8280 C   0  0  0  0  0  3  0  0  0  0  0  0
  -25.9650  -26.9110   19.6280 C   0  0  0  0  0  3  0  0  0  0  0  0
  -24.8010  -27.6970   19.6300 C   0  0  0  0  0  3  0  0  0  0  0  0
  -23.5820  -29.8480   20.2720 C   0  0  0  0  0  2  0  0  0  0  0  0
  -24.6520  -31.1030   22.1900 N   0  0  0  0  0  0  0  0  0  0  0  0
  -23.5240  -32.2080   23.8140 O   0  0  0  0  0  0  0  0  0  0  0  0
  -22.7150  -29.5120   22.6170 C   0  0  0  0  0  0  0  0  0  0  0  0
  -21.3870  -29.3340   22.4890 N   0  0  0  0  0  0  0  0  0  0  0  0
  -23.3920  -28.8940   23.4440 O   0  0  0  0  0  0  0  0  0  0  0  0
  -20.8970  -29.8970   21.8100 H   0  0  0  0  0  0  0  0  0  0  0  0
  -18.0150  -28.1210   22.9740 C   0  0  0  0  0  0  0  0  0  0  0  0
  -20.5660  -28.4060   23.2730 C   0  0  0  0  0  3  0  0  0  0  0  0
  -20.6850  -26.9590   22.7380 C   0  0  0  0  0  2  0  0  0  0  0  0
  -19.5990  -26.6010   21.7170 C   0  0  0  0  0  2  0  0  0  0  0  0
  -18.2090  -26.7540   22.3390 C   0  0  0  0  0  2  0  0  0  0  0  0
  -19.1220  -28.9000   23.4020 C   0  0  0  0  0  0  0  0  0  0  0  0
  -18.8850  -30.1740   23.9620 C   0  0  0  0  0  3  0  0  0  0  0  0
  -17.5760  -30.6720   24.0900 C   0  0  0  0  0  3  0  0  0  0  0  0
  -16.4820  -29.8900   23.6760 C   0  0  0  0  0  3  0  0  0  0  0  0
  -16.7040  -28.6170   23.1220 C   0  0  0  0  0  3  0  0  0  0  0  0
  -25.8960  -32.5420   23.8910 C   0  0  0  0  0  3  0  0  0  0  0  0
  -26.4240  -31.7700   25.1650 C   0  0  1  0  0  0  0  0  0  0  0  0
  -25.3390  -31.5290   26.2390 C   0  0  0  0  0  1  0  0  0  0  0  0
  -27.0050  -30.3900   24.7770 C   0  0  0  0  0  1  0  0  0  0  0  0
  -27.5860  -32.5580   25.8110 C   0  0  0  0  0  1  0  0  0  0  0  0
  -25.5900  -33.9410   24.2160 N   0  0  0  0  0  0  0  0  0  0  0  0
  -25.9130  -34.9910   23.4470 C   0  0  0  0  0  0  0  0  0  0  0  0
  -26.5700  -34.8850   22.4100 O   0  0  0  0  0  0  0  0  0  0  0  0
  -24.9790  -34.0930   25.0060 H   0  0  0  0  0  0  0  0  0  0  0  0
  -24.1800  -36.7920   23.1260 C   0  0  0  0  0  1  0  0  0  0  0  0
  -25.4370  -36.3820   23.9080 C   0  0  0  0  0  3  0  0  0  0  0  0
  -27.5940  -37.2710   24.6830 C   0  0  0  0  0  1  0  0  0  0  0  0
  -26.4680  -37.4350   23.7680 N   0  0  0  0  0  0  0  0  0  0  0  0
  -26.0610  -38.3560   23.9220 H   0  0  0  0  0  0  0  0  0  0  0  0
  1  2  1  0
  2  4  1  0
  3  1  2  0
  6  5  1  0
  7  1  1  0
  7  8  1  0
  8  5  1  0
  9  7  1  0
  9 10  1  0
  9  8  1  0
 10  6  1  0
 11 19  1  0
 12 17  1  0
 13 14  1  0
 13 12  1  0
 14 15  1  0
 15 24  1  0
 15 16  1  0
 17 11  1  0
 17 16  1  0
 18 11  2  0
 19 20  1  0
 19 10  1  0
 21 22  2  0
 22 41  1  0
 23 22  1  0
 23 26  1  0
 24 21  1  0
 24 25  1  0
 25 23  2  0
 26 27  1  0
 27 28  2  0
 29 32  1  0
 29 28  1  0
 30 29  2  0
 31 30  1  0
 31 26  2  0
 32 33  1  0
 33 34  1  0
 34 35  2  0
 36 35  1  0
 36 40  1  0
 37 36  2  0
 38 33  2  0
 38 37  1  0
 39 38  1  0
 41 42  1  0
 42 45  1  0
 42 44  1  0
 43 41  2  0
 46 47  1  0
 46 21  1  0
 48 46  1  0
 49 50  1  0
 49  2  1  0
 51 52  1  0
 51 50  1  0
 53 64  2  0
 53 79  1  0
 54 52  1  0
 54 59  1  0
 55 63  1  0
 55 65  1  0
 56 62  1  0
 56 58  1  0
 57 63  1  0
 58 57  1  0
 59 58  2  0
 60 61  1  0
 60 54  2  0
 61 56  2  0
 62 55  1  0
 63 53  1  0
 65 67  2  0
 66 65  1  0
 66 70  1  0
 68 66  1  0
 69 78  2  0
 69 74  1  0
 70 74  1  0
 71 70  1  0
 72 73  1  0
 72 71  1  0
 73 69  1  0
 74 75  2  0
 75 76  1  0
 77 76  2  0
 78 77  1  0
 79 84  1  0
 79 80  1  0
 80 83  1  1
 80 81  1  0
 82 80  1  0
 84 87  1  0
 85 89  1  0
 85 84  1  0
 86 85  2  0
 88 89  1  0
 91 89  1  0
 91 92  1  0
 91 90  1  0
M  ISO  4  11 100  19 100  51 101  52 101
M  END
>  <TORSDO>  (63) 
F 20

>  <SCORE>  (63) 
-13.441

>  <name>  (63) 
62

>  <ligand_id>  (63) 
62

>  <original_smiles>  (63) 
[H]c1c([H])c([H])c2c(c1[H])C([H])([H])C([H])([H])C([H])([H])C2([H])N([H])C(=O)C1([H])N(C(=O)C([H])(N([H])C(=O)C([H])(N([H])C([H])([H])[H])C([H])([H])[H])C(C([H])([H])[H])(C([H])([H])[H])C([H])([H])[H])C([H])([H])c2c([H])c(OC([H])([H])C([H])([H])C([H])([H])N([H])C(=O)C3([H])C4([H])C([H])([H])C([H])([H])C([H])(N([H])C(=O)N5C([H])([H])C([H])([H])C([H])([H])C([H])(n6nc(-c7c([H])c([H])c(Oc8c([H])c([H])c(F)c([H])c8F)c([H])c7[H])c(C(=O)N([H])[H])c6N([H])[H])C5([H])[H])C34[H])c([H])c([H])c2C1([H])[H]

>  <smiles>  (63) 
[H]c1c([H])c([H])c2c(c1[H])C([H])([H])C([H])([H])C([H])([H])C2([H])N([H])C(=O)C1([H])N(C(=O)C([H])(N([H])C(=O)C([H])(N([H])C([H])([H])[H])C([H])([H])[H])C(C([H])([H])[H])(C([H])([H])[H])C([H])([H])[H])C([H])([H])c2c([H])c(OC([H])([H])C([H])([H])C([H])([H])N([H])C(=O)C3([H])C4([H])C([H])([H])C([H])([H])C([H])(N([H])C(=O)N5C([H])([H])C([H])([H])C([H])([H])C([H])(n6nc(-c7c([H])c([H])c(Oc8c([H])c([H])c(F)c([H])c8F)c([H])c7[H])c(C(=O)N([H])[H])c6N([H])[H])C5([H])[H])C34[H])c([H])c([H])c2C1([H])[H]

$$$$
63:0:0
     RDKit          3D

 94102  0  0  1  0  0  0  0  0999 V2000
  -28.7500  -22.4400   20.8210 C   0  0  0  0  0  2  0  0  0  0  0  0
  -28.9050  -20.9220   18.7210 C   0  0  0  0  0  3  0  0  0  0  0  0
  -29.1470  -19.6920   18.0730 C   0  0  0  0  0  3  0  0  0  0  0  0
  -29.5230  -19.8690   20.8150 C   0  0  0  0  0  3  0  0  0  0  0  0
  -29.0960  -21.0620   20.1110 C   0  0  0  0  0  0  0  0  0  0  0  0
  -29.5840  -18.5420   18.7720 C   0  0  0  0  0  0  0  0  0  0  0  0
  -29.7680  -18.5860   20.1790 C   0  0  0  0  0  0  0  0  0  0  0  0
  -29.8800  -17.2880   17.9660 C   0  0  0  0  0  1  0  0  0  0  0  0
  -30.3310  -17.3350   20.9850 C   0  0  0  0  0  2  0  0  0  0  0  0
  -30.6890  -14.7940   20.4550 C   0  0  0  0  0  0  0  0  0  0  0  0
  -30.4980  -12.5490   19.3860 C   0  0  0  0  0  2  0  0  0  0  0  0
  -29.5760  -12.6520   18.1520 C   0  0  0  0  0  2  0  0  0  0  0  0
  -28.1000  -12.4720   18.5590 C   0  0  0  0  0  2  0  0  0  0  0  0
  -27.7090  -13.3410   19.7850 C   0  0  0  0  0  3  0  0  0  0  0  0
  -28.7520  -13.2250   20.9180 C   0  0  0  0  0  2  0  0  0  0  0  0
  -30.0580  -13.5790   20.3480 N   0  0  0  0  0  0  0  0  0  0  0  0
  -31.8790  -14.9100   20.1530 O   0  0  0  0  0  0  0  0  0  0  0  0
  -29.9120  -15.9000   20.7210 N   0  0  0  0  0  0  0  0  0  0  0  0
  -28.9330  -15.7070   20.8640 H   0  0  0  0  0  0  0  0  0  0  0  0
  -25.3020  -13.9190   20.4570 C   0  0  0  0  0  0  0  0  0  0  0  0
  -24.2370  -13.1380   20.8170 C   0  0  0  0  0  0  0  0  0  0  0  0
  -24.7150  -11.7920   20.8100 C   0  0  0  0  0  0  0  0  0  0  0  0
  -26.3590  -13.0470   20.2520 N   0  0  0  0  0  0  0  0  0  0  0  0
  -26.0120  -11.7640   20.5270 N   0  0  0  0  0  0  0  0  0  0  0  0
  -23.9990  -10.5240   20.9980 C   0  0  0  0  0  0  0  0  0  0  0  0
  -24.4200   -9.5720   21.9530 C   0  0  0  0  0  3  0  0  0  0  0  0
  -23.7020   -8.3690   22.1280 C   0  0  0  0  0  3  0  0  0  0  0  0
  -22.5500   -8.1090   21.3500 C   0  0  0  0  0  0  0  0  0  0  0  0
  -22.1490   -9.0490   20.3840 C   0  0  0  0  0  3  0  0  0  0  0  0
  -22.8660  -10.2430   20.2070 C   0  0  0  0  0  3  0  0  0  0  0  0
  -21.8050   -6.9570   21.4350 O   0  0  0  0  0  0  0  0  0  0  0  0
  -21.7320   -6.2310   22.5970 C   0  0  0  0  0  0  0  0  0  0  0  0
  -21.2480   -6.7920   23.7980 C   0  0  0  0  0  3  0  0  0  0  0  0
  -21.1250   -5.9910   24.9500 C   0  0  0  0  0  3  0  0  0  0  0  0
  -21.4770   -4.6280   24.9020 C   0  0  0  0  0  0  0  0  0  0  0  0
  -21.9540   -4.0660   23.7040 C   0  0  0  0  0  3  0  0  0  0  0  0
  -22.0780   -4.8650   22.5550 C   0  0  0  0  0  0  0  0  0  0  0  0
  -22.5190   -4.3140   21.3980 F   0  0  0  0  0  0  0  0  0  0  0  0
  -21.3520   -3.8540   26.0060 F   0  0  0  0  0  0  0  0  0  0  0  0
  -22.8300  -13.6020   21.0540 C   0  0  0  0  0  0  0  0  0  0  0  0
  -22.0900  -12.9070   21.9100 N   0  0  0  0  0  0  0  0  0  0  0  0
  -22.3940  -14.6190   20.5140 O   0  0  0  0  0  0  0  0  0  0  0  0
  -22.4540  -12.0850   22.3680 H   0  0  0  0  0  0  0  0  0  0  0  0
  -21.1440  -13.2000   22.1100 H   0  0  0  0  0  0  0  0  0  0  0  0
  -25.4550  -15.2890   20.2660 N   0  0  0  0  0  0  0  0  0  0  0  0
  -24.6740  -15.9300   20.3490 H   0  0  0  0  0  0  0  0  0  0  0  0
  -26.2960  -15.7350   19.9240 H   0  0  0  0  0  0  0  0  0  0  0  0
  -28.8190  -23.8680   20.0560 C   0  0  0  0  0  3  0  0  0  0  0  0
  -30.2170  -24.1850   19.6940 N   0  0  0  0  0  4  0  0  0  0  0  0
  -30.7800  -24.3480   20.5130 H   0  0  0  0  0  0  0  0  0  0  0  0
  -30.2490  -25.0200   19.1330 H   0  0  0  0  0  0  0  0  0  0  0  0
  -30.6350  -23.4370   19.1680 H   0  0  0  0  0  0  0  0  0  0  0  0
  -28.1520  -25.1350   20.7950 C   0  0  0  0  0  2  0  0  0  0  0  0
  -28.3220  -26.5200   20.2620 O   0  0  0  0  0  0  0  0  0  0  0  0
  -24.5440  -31.9220   23.2790 C   0  0  0  0  0  0  0  0  0  0  0  0
  -27.2040  -27.3720   20.2470 C   0  0  0  0  0  0  0  0  0  0  0  0
  -23.3630  -30.5230   21.6240 C   0  0  0  0  0  3  0  0  0  0  0  0
  -24.8350  -28.9770   20.2100 C   0  0  0  0  0  0  0  0  0  0  0  0
  -25.9030  -30.8500   21.4650 C   0  0  0  0  0  2  0  0  0  0  0  0
  -25.9960  -29.4720   20.8190 C   0  0  0  0  0  0  0  0  0  0  0  0
  -27.1870  -28.6830   20.8220 C   0  0  0  0  0  3  0  0  0  0  0  0
  -26.0220  -26.9310   19.6160 C   0  0  0  0  0  3  0  0  0  0  0  0
  -24.8510  -27.7130   19.5990 C   0  0  0  0  0  3  0  0  0  0  0  0
  -23.5940  -29.8480   20.2450 C   0  0  0  0  0  2  0  0  0  0  0  0
  -24.6220  -31.1160   22.1800 N   0  0  0  0  0  0  0  0  0  0  0  0
  -23.4540  -32.1930   23.8040 O   0  0  0  0  0  0  0  0  0  0  0  0
  -22.6950  -29.5020   22.5760 C   0  0  0  0  0  0  0  0  0  0  0  0
  -21.3720  -29.3140   22.4290 N   0  0  0  0  0  0  0  0  0  0  0  0
  -23.3650  -28.8820   23.4050 O   0  0  0  0  0  0  0  0  0  0  0  0
  -20.8910  -29.8650   21.7320 H   0  0  0  0  0  0  0  0  0  0  0  0
  -17.9950  -28.0940   22.8800 C   0  0  0  0  0  0  0  0  0  0  0  0
  -20.5490  -28.3700   23.1860 C   0  0  0  0  0  3  0  0  0  0  0  0
  -20.6680  -26.9400   22.6100 C   0  0  0  0  0  2  0  0  0  0  0  0
  -19.5830  -26.6110   21.5810 C   0  0  0  0  0  2  0  0  0  0  0  0
  -18.1910  -26.7460   22.2060 C   0  0  0  0  0  2  0  0  0  0  0  0
  -19.1020  -28.8630   23.3260 C   0  0  0  0  0  0  0  0  0  0  0  0
  -18.8660  -30.1240   23.9160 C   0  0  0  0  0  3  0  0  0  0  0  0
  -17.5560  -30.6160   24.0640 C   0  0  0  0  0  3  0  0  0  0  0  0
  -16.4620  -29.8430   23.6340 C   0  0  0  0  0  3  0  0  0  0  0  0
  -16.6840  -28.5840   23.0480 C   0  0  0  0  0  3  0  0  0  0  0  0
  -25.8170  -32.5580   23.9180 C   0  0  0  0  0  3  0  0  0  0  0  0
  -25.5090  -33.9630   24.2210 N   0  0  0  0  0  0  0  0  0  0  0  0
  -25.8740  -35.0040   23.4600 C   0  0  0  0  0  0  0  0  0  0  0  0
  -26.5740  -34.8820   22.4510 O   0  0  0  0  0  0  0  0  0  0  0  0
  -24.8910  -34.1330   25.0000 H   0  0  0  0  0  0  0  0  0  0  0  0
  -24.1880  -36.8170   23.0160 C   0  0  0  0  0  1  0  0  0  0  0  0
  -25.3850  -36.4030   23.8850 C   0  0  0  0  0  3  0  0  0  0  0  0
  -27.4900  -37.2690   24.8090 C   0  0  0  0  0  1  0  0  0  0  0  0
  -26.4380  -37.4410   23.8110 N   0  0  0  0  0  0  0  0  0  0  0  0
  -26.0370  -38.3680   23.9280 H   0  0  0  0  0  0  0  0  0  0  0  0
  -26.3020  -31.8050   25.2180 C   0  0  1  0  0  0  0  0  0  0  0  0
  -25.1850  -31.5900   26.2660 C   0  0  0  0  0  1  0  0  0  0  0  0
  -26.8850  -30.4190   24.8600 C   0  0  0  0  0  1  0  0  0  0  0  0
  -27.4440  -32.6030   25.8910 C   0  0  0  0  0  1  0  0  0  0  0  0
  2  5  1  0
  3  2  2  0
  3  6  1  0
  5  4  2  0
  5  1  1  0
  6  7  2  0
  7  4  1  0
  7  9  1  0
  8  6  1  0
 10 18  1  0
 11 16  1  0
 12 13  1  0
 12 11  1  0
 14 13  1  0
 14 23  1  0
 14 15  1  0
 16 10  1  0
 16 15  1  0
 17 10  2  0
 18 19  1  0
 18  9  1  0
 20 21  2  0
 21 40  1  0
 22 21  1  0
 22 25  1  0
 23 20  1  0
 23 24  1  0
 24 22  2  0
 25 26  1  0
 26 27  2  0
 28 31  1  0
 28 27  1  0
 29 28  2  0
 30 29  1  0
 30 25  2  0
 31 32  1  0
 32 33  1  0
 33 34  2  0
 35 34  1  0
 35 39  1  0
 36 35  2  0
 37 32  2  0
 37 36  1  0
 38 37  1  0
 40 41  1  0
 41 44  1  0
 41 43  1  0
 42 40  2  0
 45 46  1  0
 45 20  1  0
 47 45  1  0
 48 53  1  0
 48  1  1  0
 49 48  1  0
 49 50  1  0
 51 49  1  0
 52 49  1  0
 54 53  1  0
 55 66  2  0
 56 54  1  0
 56 61  1  0
 57 65  1  0
 57 67  1  0
 58 64  1  0
 58 60  1  0
 59 65  1  0
 60 61  2  0
 60 59  1  0
 62 56  2  0
 63 62  1  0
 63 58  2  0
 64 57  1  0
 65 55  1  0
 67 69  2  0
 68 67  1  0
 70 68  1  0
 71 80  2  0
 71 76  1  0
 72 68  1  0
 72 76  1  0
 73 72  1  0
 74 75  1  0
 74 73  1  0
 75 71  1  0
 76 77  2  0
 77 78  1  0
 79 78  2  0
 80 79  1  0
 81 55  1  0
 81 82  1  0
 81 91  1  0
 82 85  1  0
 83 87  1  0
 83 82  1  0
 84 83  2  0
 87 86  1  0
 89 87  1  0
 89 90  1  0
 89 88  1  0
 91 94  1  1
 91 92  1  0
 93 91  1  0
M  ISO  4  10 100  18 100  53 101  54 101
M  END
>  <TORSDO>  (64) 
F 21

>  <SCORE>  (64) 
-13.438

>  <name>  (64) 
63

>  <ligand_id>  (64) 
63

>  <original_smiles>  (64) 
[H]c1c([H])c([H])c2c(c1[H])C([H])([H])C([H])([H])C([H])([H])C2([H])N([H])C(=O)C1([H])N(C(=O)C([H])(N([H])C(=O)C([H])(N([H])C([H])([H])[H])C([H])([H])[H])C(C([H])([H])[H])(C([H])([H])[H])C([H])([H])[H])C([H])([H])c2c([H])c(OC([H])([H])C([H])(C([H])([H])c3c([H])c([H])c(C([H])([H])[H])c(C([H])([H])N([H])C(=O)N4C([H])([H])C([H])([H])C([H])([H])C([H])(n5nc(-c6c([H])c([H])c(Oc7c([H])c([H])c(F)c([H])c7F)c([H])c6[H])c(C(=O)N([H])[H])c5N([H])[H])C4([H])[H])c3[H])[N+]([H])([H])[H])c([H])c([H])c2C1([H])[H]

>  <smiles>  (64) 
[H]c1c([H])c([H])c2c(c1[H])C([H])([H])C([H])([H])C([H])([H])C2([H])N([H])C(=O)C1([H])N(C(=O)C([H])(N([H])C(=O)C([H])(N([H])C([H])([H])[H])C([H])([H])[H])C(C([H])([H])[H])(C([H])([H])[H])C([H])([H])[H])C([H])([H])c2c([H])c(OC([H])([H])C([H])(C([H])([H])c3c([H])c([H])c(C([H])([H])[H])c(C([H])([H])N([H])C(=O)N4C([H])([H])C([H])([H])C([H])([H])C([H])(n5nc(-c6c([H])c([H])c(Oc7c([H])c([H])c(F)c([H])c7F)c([H])c6[H])c(C(=O)N([H])[H])c5N([H])[H])C4([H])[H])c3[H])[N+]([H])([H])[H])c([H])c([H])c2C1([H])[H]

$$$$
64:0:0
     RDKit          3D

 94104  0  0  1  0  0  0  0  0999 V2000
  -27.9280  -17.7360   18.5180 C   0  0  0  0  0  2  0  0  0  0  0  0
  -29.5540  -19.6850   18.5840 C   0  0  0  0  0  2  0  0  0  0  0  0
  -28.1180  -19.1030   20.5690 C   0  0  0  0  0  2  0  0  0  0  0  0
  -30.2050  -17.2310   18.6270 C   0  0  0  0  0  2  0  0  0  0  0  0
  -30.3490  -18.5430   20.7330 C   0  0  0  0  0  2  0  0  0  0  0  0
  -29.2660  -18.2620   18.0030 C   0  0  0  0  0  3  0  0  0  0  0  0
  -28.2290  -17.6510   20.0180 C   0  0  0  0  0  3  0  0  0  0  0  0
  -29.4540  -19.7340   20.1500 C   0  0  1  0  0  0  0  0  0  0  0  0
  -29.7410  -17.2190   20.0990 C   0  0  1  0  0  0  0  0  0  0  0  0
  -30.6580  -14.7490   20.4610 C   0  0  0  0  0  0  0  0  0  0  0  0
  -30.4780  -12.4740   19.4590 C   0  0  0  0  0  2  0  0  0  0  0  0
  -29.5530  -12.5680   18.2260 C   0  0  0  0  0  2  0  0  0  0  0  0
  -28.0770  -12.4000   18.6350 C   0  0  0  0  0  2  0  0  0  0  0  0
  -27.6920  -13.2750   19.8570 C   0  0  0  0  0  3  0  0  0  0  0  0
  -28.7390  -13.1660   20.9900 C   0  0  0  0  0  2  0  0  0  0  0  0
  -30.0520  -13.5130   20.4250 N   0  0  0  0  0  0  0  0  0  0  0  0
  -31.8130  -14.8890   20.0490 O   0  0  0  0  0  0  0  0  0  0  0  0
  -29.8550  -15.8360   20.7430 N   0  0  0  0  0  0  0  0  0  0  0  0
  -29.0050  -15.5560   21.2090 H   0  0  0  0  0  0  0  0  0  0  0  0
  -25.2880  -13.8550   20.5530 C   0  0  0  0  0  0  0  0  0  0  0  0
  -24.2230  -13.0790   20.9180 C   0  0  0  0  0  0  0  0  0  0  0  0
  -24.6920  -11.7300   20.8920 C   0  0  0  0  0  0  0  0  0  0  0  0
  -26.3400  -12.9820   20.3290 N   0  0  0  0  0  0  0  0  0  0  0  0
  -25.9860  -11.6980   20.5930 N   0  0  0  0  0  0  0  0  0  0  0  0
  -23.9680  -10.4640   21.0780 C   0  0  0  0  0  0  0  0  0  0  0  0
  -24.4020   -9.4930   22.0060 C   0  0  0  0  0  3  0  0  0  0  0  0
  -23.6780   -8.2950   22.1810 C   0  0  0  0  0  3  0  0  0  0  0  0
  -22.5050   -8.0580   21.4260 C   0  0  0  0  0  0  0  0  0  0  0  0
  -22.0890   -9.0180   20.4870 C   0  0  0  0  0  3  0  0  0  0  0  0
  -22.8140  -10.2090   20.3110 C   0  0  0  0  0  3  0  0  0  0  0  0
  -21.7530   -6.9110   21.5090 O   0  0  0  0  0  0  0  0  0  0  0  0
  -21.7090   -6.1610   22.6570 C   0  0  0  0  0  0  0  0  0  0  0  0
  -21.2860   -6.7060   23.8880 C   0  0  0  0  0  3  0  0  0  0  0  0
  -21.1890   -5.8810   25.0260 C   0  0  0  0  0  3  0  0  0  0  0  0
  -21.5070   -4.5130   24.9350 C   0  0  0  0  0  0  0  0  0  0  0  0
  -21.9250   -3.9680   23.7090 C   0  0  0  0  0  3  0  0  0  0  0  0
  -22.0230   -4.7880   22.5720 C   0  0  0  0  0  0  0  0  0  0  0  0
  -22.4050   -4.2530   21.3880 F   0  0  0  0  0  0  0  0  0  0  0  0
  -21.4070   -3.7200   26.0280 F   0  0  0  0  0  0  0  0  0  0  0  0
  -22.8220  -13.5520   21.1780 C   0  0  0  0  0  0  0  0  0  0  0  0
  -22.0870  -12.8530   22.0360 N   0  0  0  0  0  0  0  0  0  0  0  0
  -22.3860  -14.5760   20.6540 O   0  0  0  0  0  0  0  0  0  0  0  0
  -22.4510  -12.0250   22.4830 H   0  0  0  0  0  0  0  0  0  0  0  0
  -21.1450  -13.1520   22.2500 H   0  0  0  0  0  0  0  0  0  0  0  0
  -25.4420  -15.2250   20.3700 N   0  0  0  0  0  0  0  0  0  0  0  0
  -24.6590  -15.8650   20.4560 H   0  0  0  0  0  0  0  0  0  0  0  0
  -26.2680  -15.6590   19.9820 H   0  0  0  0  0  0  0  0  0  0  0  0
  -29.7030  -21.2480   20.6830 C   0  0  0  0  0  2  0  0  0  0  0  0
  -28.7990  -22.3770   20.1710 N   0  0  0  0  0  4  0  0  0  0  0  0
  -27.8730  -22.1860   20.5210 H   0  0  0  0  0  0  0  0  0  0  0  0
  -28.7540  -22.2920   19.1680 H   0  0  0  0  0  0  0  0  0  0  0  0
  -29.1380  -23.8430   20.4970 C   0  0  0  0  0  3  0  0  0  0  0  0
  -28.0860  -24.9710   20.0250 C   0  0  0  0  0  3  0  0  0  0  0  0
  -28.3090  -26.4360   20.2540 O   0  0  0  0  0  0  0  0  0  0  0  0
  -24.5990  -31.8890   23.2550 C   0  0  0  0  0  0  0  0  0  0  0  0
  -27.2010  -27.3120   20.1870 C   0  0  0  0  0  0  0  0  0  0  0  0
  -23.3910  -30.4940   21.6160 C   0  0  0  0  0  3  0  0  0  0  0  0
  -24.8380  -28.9460   20.1820 C   0  0  0  0  0  0  0  0  0  0  0  0
  -25.9320  -30.8050   21.4290 C   0  0  0  0  0  2  0  0  0  0  0  0
  -26.0110  -29.4260   20.7800 C   0  0  0  0  0  0  0  0  0  0  0  0
  -27.1930  -28.6210   20.7730 C   0  0  0  0  0  3  0  0  0  0  0  0
  -26.0040  -26.9010   19.5520 C   0  0  0  0  0  3  0  0  0  0  0  0
  -24.8410  -27.6910   19.5570 C   0  0  0  0  0  3  0  0  0  0  0  0
  -23.6030  -29.8220   20.2340 C   0  0  0  0  0  2  0  0  0  0  0  0
  -24.6600  -31.0800   22.1560 N   0  0  0  0  0  0  0  0  0  0  0  0
  -23.5170  -32.1670   23.7910 O   0  0  0  0  0  0  0  0  0  0  0  0
  -22.7290  -29.4760   22.5770 C   0  0  0  0  0  0  0  0  0  0  0  0
  -21.4040  -29.2920   22.4480 N   0  0  0  0  0  0  0  0  0  0  0  0
  -23.4080  -28.8550   23.4000 O   0  0  0  0  0  0  0  0  0  0  0  0
  -20.9150  -29.8470   21.7600 H   0  0  0  0  0  0  0  0  0  0  0  0
  -18.0330  -28.0720   22.9350 C   0  0  0  0  0  0  0  0  0  0  0  0
  -20.5880  -28.3530   23.2180 C   0  0  0  0  0  3  0  0  0  0  0  0
  -20.7030  -26.9180   22.6520 C   0  0  0  0  0  2  0  0  0  0  0  0
  -19.6100  -26.5830   21.6320 C   0  0  0  0  0  2  0  0  0  0  0  0
  -18.2230  -26.7210   22.2680 C   0  0  0  0  0  2  0  0  0  0  0  0
  -19.1440  -28.8450   23.3680 C   0  0  0  0  0  0  0  0  0  0  0  0
  -18.9110  -30.1080   23.9520 C   0  0  0  0  0  3  0  0  0  0  0  0
  -17.6020  -30.6000   24.1080 C   0  0  0  0  0  3  0  0  0  0  0  0
  -16.5060  -29.8260   23.6900 C   0  0  0  0  0  3  0  0  0  0  0  0
  -16.7230  -28.5640   23.1100 C   0  0  0  0  0  3  0  0  0  0  0  0
  -25.8830  -32.5200   23.8750 C   0  0  0  0  0  3  0  0  0  0  0  0
  -26.3930  -31.7540   25.1580 C   0  0  1  0  0  0  0  0  0  0  0  0
  -25.2970  -31.5280   26.2260 C   0  0  0  0  0  1  0  0  0  0  0  0
  -26.9700  -30.3720   24.7750 C   0  0  0  0  0  1  0  0  0  0  0  0
  -27.5470  -32.5460   25.8150 C   0  0  0  0  0  1  0  0  0  0  0  0
  -25.5770  -33.9210   24.2000 N   0  0  0  0  0  0  0  0  0  0  0  0
  -25.9120  -34.9700   23.4370 C   0  0  0  0  0  0  0  0  0  0  0  0
  -26.5810  -34.8590   22.4050 O   0  0  0  0  0  0  0  0  0  0  0  0
  -24.9810  -34.0800   24.9990 H   0  0  0  0  0  0  0  0  0  0  0  0
  -24.1930  -36.7700   23.0720 C   0  0  0  0  0  1  0  0  0  0  0  0
  -25.4310  -36.3620   23.8880 C   0  0  0  0  0  3  0  0  0  0  0  0
  -27.5680  -37.2410   24.7190 C   0  0  0  0  0  1  0  0  0  0  0  0
  -26.4690  -37.4100   23.7730 N   0  0  0  0  0  0  0  0  0  0  0  0
  -26.0660  -38.3330   23.9140 H   0  0  0  0  0  0  0  0  0  0  0  0
  2  8  1  0
  4  9  1  0
  6  1  1  0
  6  2  1  0
  6  4  1  0
  7  1  1  0
  7  9  1  0
  7  3  1  0
  8  3  1  0
  8 48  1  1
  8  5  1  0
  9  5  1  0
  9 18  1  1
 10 18  1  0
 11 16  1  0
 12 13  1  0
 12 11  1  0
 14 13  1  0
 14 23  1  0
 14 15  1  0
 16 10  1  0
 16 15  1  0
 17 10  2  0
 18 19  1  0
 20 21  2  0
 21 40  1  0
 22 21  1  0
 22 25  1  0
 23 20  1  0
 23 24  1  0
 24 22  2  0
 25 26  1  0
 26 27  2  0
 28 31  1  0
 28 27  1  0
 29 28  2  0
 30 29  1  0
 30 25  2  0
 31 32  1  0
 32 33  1  0
 33 34  2  0
 35 34  1  0
 35 39  1  0
 36 35  2  0
 37 32  2  0
 37 36  1  0
 38 37  1  0
 40 41  1  0
 41 44  1  0
 41 43  1  0
 42 40  2  0
 45 46  1  0
 45 20  1  0
 47 45  1  0
 49 52  1  0
 49 50  1  0
 49 48  1  0
 51 49  1  0
 53 54  1  0
 53 52  2  0
 55 66  2  0
 56 54  1  0
 56 61  1  0
 57 65  1  0
 57 67  1  0
 58 64  1  0
 58 60  1  0
 59 65  1  0
 60 59  1  0
 61 60  2  0
 62 63  1  0
 62 56  2  0
 63 58  2  0
 64 57  1  0
 65 55  1  0
 67 69  2  0
 68 67  1  0
 70 68  1  0
 71 80  2  0
 71 76  1  0
 72 68  1  0
 72 76  1  0
 73 72  1  0
 74 75  1  0
 74 73  1  0
 75 71  1  0
 76 77  2  0
 77 78  1  0
 79 78  2  0
 80 79  1  0
 81 55  1  0
 81 86  1  0
 81 82  1  0
 82 85  1  1
 82 83  1  0
 84 82  1  0
 86 89  1  0
 87 91  1  0
 87 86  1  0
 88 87  2  0
 91 90  1  0
 93 91  1  0
 93 94  1  0
 93 92  1  0
M  ISO  4  10 100  18 100  53 101  54 101
M  END
>  <TORSDO>  (65) 
F 20

>  <SCORE>  (65) 
-14.046

>  <name>  (65) 
64

>  <ligand_id>  (65) 
64

>  <original_smiles>  (65) 
[H]c1c([H])c([H])c2c(c1[H])C([H])([H])C([H])([H])C([H])([H])C2([H])N([H])C(=O)C1([H])N(C(=O)C([H])(N([H])C(=O)C([H])(N([H])C([H])([H])[H])C([H])([H])[H])C(C([H])([H])[H])(C([H])([H])[H])C([H])([H])[H])C([H])([H])c2c([H])c(OC([H])([H])C([H])([H])[N+]([H])([H])C([H])([H])C34C([H])([H])C5([H])C([H])([H])C([H])(C3([H])[H])C(N([H])C(=O)N3C([H])([H])C([H])([H])C([H])([H])C([H])(n6nc(-c7c([H])c([H])c(Oc8c([H])c([H])c(F)c([H])c8F)c([H])c7[H])c(C(=O)N([H])[H])c6N([H])[H])C3([H])[H])(C5([H])[H])C4([H])[H])c([H])c([H])c2C1([H])[H]

>  <smiles>  (65) 
[H]c1c([H])c([H])c2c(c1[H])C([H])([H])C([H])([H])C([H])([H])C2([H])N([H])C(=O)C1([H])N(C(=O)C([H])(N([H])C(=O)C([H])(N([H])C([H])([H])[H])C([H])([H])[H])C(C([H])([H])[H])(C([H])([H])[H])C([H])([H])[H])C([H])([H])c2c([H])c(OC([H])([H])C([H])([H])[N+]([H])([H])C([H])([H])C34C([H])([H])C5([H])C([H])([H])C([H])(C3([H])[H])C(N([H])C(=O)N3C([H])([H])C([H])([H])C([H])([H])C([H])(n6nc(-c7c([H])c([H])c(Oc8c([H])c([H])c(F)c([H])c8F)c([H])c7[H])c(C(=O)N([H])[H])c6N([H])[H])C3([H])[H])(C5([H])[H])C4([H])[H])c([H])c([H])c2C1([H])[H]

$$$$
65:0:0
     RDKit          3D

 97106  0  0  1  0  0  0  0  0999 V2000
  -27.5520  -23.7430   20.7750 C   0  0  0  0  0  2  0  0  0  0  0  0
  -29.0620  -23.0790   19.4100 C   0  0  0  0  0  2  0  0  0  0  0  0
  -28.7170  -24.4420   20.0630 C   0  0  0  0  0  3  0  0  0  0  0  0
  -27.8060  -22.4070   20.0270 C   0  0  2  0  0  0  0  0  0  0  0  0
  -26.7680  -22.2440   18.9740 N   0  0  0  0  0  4  0  0  0  0  0  0
  -26.9790  -21.4700   18.3680 H   0  0  0  0  0  0  0  0  0  0  0  0
  -26.7040  -23.0640   18.3960 H   0  0  0  0  0  0  0  0  0  0  0  0
  -25.8600  -22.0780   19.3710 H   0  0  0  0  0  0  0  0  0  0  0  0
  -27.8300  -21.0990   20.9040 C   0  0  0  0  0  2  0  0  0  0  0  0
  -31.1740  -18.2880   21.3320 C   0  0  0  0  0  3  0  0  0  0  0  0
  -31.3730  -19.6570   21.6000 C   0  0  0  0  0  3  0  0  0  0  0  0
  -28.8810  -18.7740   20.6940 C   0  0  0  0  0  3  0  0  0  0  0  0
  -29.9140  -17.8240   20.9150 C   0  0  0  0  0  0  0  0  0  0  0  0
  -30.3200  -20.5870   21.4640 C   0  0  0  0  0  0  0  0  0  0  0  0
  -29.0610  -20.1630   20.9630 C   0  0  0  0  0  0  0  0  0  0  0  0
  -30.5630  -22.0070   21.9530 C   0  0  0  0  0  1  0  0  0  0  0  0
  -29.6760  -16.3080   20.7840 C   0  0  0  0  0  2  0  0  0  0  0  0
  -31.2600  -14.4620   19.9360 C   0  0  0  0  0  0  0  0  0  0  0  0
  -30.8260  -12.2340   18.9770 C   0  0  0  0  0  2  0  0  0  0  0  0
  -29.8590  -12.3560   17.7820 C   0  0  0  0  0  2  0  0  0  0  0  0
  -28.3980  -12.2900   18.2630 C   0  0  0  0  0  2  0  0  0  0  0  0
  -28.1180  -13.2390   19.4590 C   0  0  0  0  0  3  0  0  0  0  0  0
  -29.2020  -13.0980   20.5520 C   0  0  0  0  0  2  0  0  0  0  0  0
  -30.5020  -13.3270   19.9110 N   0  0  0  0  0  0  0  0  0  0  0  0
  -32.4240  -14.4750   19.5380 O   0  0  0  0  0  0  0  0  0  0  0  0
  -30.6320  -15.6540   19.8890 N   0  0  0  0  0  0  0  0  0  0  0  0
  -31.2330  -16.3360   19.4540 H   0  0  0  0  0  0  0  0  0  0  0  0
  -25.8000  -13.9840   20.2830 C   0  0  0  0  0  0  0  0  0  0  0  0
  -24.7010  -13.2740   20.6860 C   0  0  0  0  0  0  0  0  0  0  0  0
  -25.0750  -11.8970   20.6170 C   0  0  0  0  0  0  0  0  0  0  0  0
  -26.7750  -13.0420   19.9970 N   0  0  0  0  0  0  0  0  0  0  0  0
  -26.3460  -11.7810   20.2550 N   0  0  0  0  0  0  0  0  0  0  0  0
  -24.2780  -10.6800   20.8130 C   0  0  0  0  0  0  0  0  0  0  0  0
  -24.6590   -9.6900   21.7450 C   0  0  0  0  0  3  0  0  0  0  0  0
  -23.8650   -8.5370   21.9310 C   0  0  0  0  0  3  0  0  0  0  0  0
  -22.6760   -8.3670   21.1820 C   0  0  0  0  0  0  0  0  0  0  0  0
  -22.3150   -9.3430   20.2360 C   0  0  0  0  0  3  0  0  0  0  0  0
  -23.1100  -10.4870   20.0500 C   0  0  0  0  0  3  0  0  0  0  0  0
  -21.8580   -7.2680   21.2760 O   0  0  0  0  0  0  0  0  0  0  0  0
  -21.7380   -6.5580   22.4430 C   0  0  0  0  0  0  0  0  0  0  0  0
  -21.3290   -7.1670   23.6500 C   0  0  0  0  0  3  0  0  0  0  0  0
  -21.1530   -6.3840   24.8080 C   0  0  0  0  0  3  0  0  0  0  0  0
  -21.3770   -4.9960   24.7610 C   0  0  0  0  0  0  0  0  0  0  0  0
  -21.7820   -4.3870   23.5600 C   0  0  0  0  0  3  0  0  0  0  0  0
  -21.9580   -5.1660   22.4040 C   0  0  0  0  0  0  0  0  0  0  0  0
  -22.3270   -4.5710   21.2430 F   0  0  0  0  0  0  0  0  0  0  0  0
  -21.2010   -4.2430   25.8730 F   0  0  0  0  0  0  0  0  0  0  0  0
  -23.3500  -13.8350   21.0190 C   0  0  0  0  0  0  0  0  0  0  0  0
  -22.6230  -13.1810   21.9180 N   0  0  0  0  0  0  0  0  0  0  0  0
  -22.9510  -14.8840   20.5170 O   0  0  0  0  0  0  0  0  0  0  0  0
  -22.9620  -12.3310   22.3440 H   0  0  0  0  0  0  0  0  0  0  0  0
  -21.7160  -13.5360   22.1870 H   0  0  0  0  0  0  0  0  0  0  0  0
  -26.0420  -15.3430   20.1150 N   0  0  0  0  0  0  0  0  0  0  0  0
  -25.3100  -16.0320   20.2480 H   0  0  0  0  0  0  0  0  0  0  0  0
  -26.8780  -15.7250   19.6900 H   0  0  0  0  0  0  0  0  0  0  0  0
  -28.4560  -25.6940   19.1910 C   0  0  0  0  0  2  0  0  0  0  0  0
  -28.2870  -26.8960   19.9710 O   0  0  0  0  0  0  0  0  0  0  0  0
  -24.5390  -31.9790   23.2650 C   0  0  0  0  0  0  0  0  0  0  0  0
  -27.0840  -27.5840   20.0100 C   0  0  0  0  0  0  0  0  0  0  0  0
  -23.2820  -30.6090   21.6350 C   0  0  0  0  0  3  0  0  0  0  0  0
  -24.6880  -29.1010   20.1330 C   0  0  0  0  0  0  0  0  0  0  0  0
  -25.8000  -30.9700   21.3630 C   0  0  0  0  0  2  0  0  0  0  0  0
  -25.8660  -29.6100   20.6950 C   0  0  0  0  0  0  0  0  0  0  0  0
  -27.0610  -28.8570   20.6330 C   0  0  0  0  0  3  0  0  0  0  0  0
  -25.8780  -27.0890   19.4590 C   0  0  0  0  0  3  0  0  0  0  0  0
  -24.6900  -27.8420   19.5130 C   0  0  0  0  0  3  0  0  0  0  0  0
  -23.4480  -29.9600   20.2350 C   0  0  0  0  0  2  0  0  0  0  0  0
  -24.5620  -31.1990   22.1460 N   0  0  0  0  0  0  0  0  0  0  0  0
  -23.4750  -32.2390   23.8440 O   0  0  0  0  0  0  0  0  0  0  0  0
  -22.6620  -29.5680   22.5970 C   0  0  0  0  0  0  0  0  0  0  0  0
  -21.3390  -29.3620   22.4840 N   0  0  0  0  0  0  0  0  0  0  0  0
  -23.3690  -28.9530   23.4000 O   0  0  0  0  0  0  0  0  0  0  0  0
  -20.8270  -29.9220   21.8180 H   0  0  0  0  0  0  0  0  0  0  0  0
  -18.0170  -28.0200   22.9410 C   0  0  0  0  0  0  0  0  0  0  0  0
  -20.5540  -28.3980   23.2560 C   0  0  0  0  0  3  0  0  0  0  0  0
  -20.7320  -26.9660   22.7040 C   0  0  0  0  0  2  0  0  0  0  0  0
  -19.6670  -26.5760   21.6750 C   0  0  0  0  0  2  0  0  0  0  0  0
  -18.2690  -26.6680   22.2930 C   0  0  0  0  0  2  0  0  0  0  0  0
  -19.0910  -28.8390   23.3780 C   0  0  0  0  0  0  0  0  0  0  0  0
  -18.8060  -30.1020   23.9420 C   0  0  0  0  0  3  0  0  0  0  0  0
  -17.4770  -30.5500   24.0700 C   0  0  0  0  0  3  0  0  0  0  0  0
  -16.4170  -29.7280   23.6490 C   0  0  0  0  0  3  0  0  0  0  0  0
  -16.6870  -28.4680   23.0890 C   0  0  0  0  0  3  0  0  0  0  0  0
  -25.8430  -32.5990   23.8550 C   0  0  0  0  0  3  0  0  0  0  0  0
  -25.5540  -34.0000   24.1890 N   0  0  0  0  0  0  0  0  0  0  0  0
  -25.8900  -35.0490   23.4250 C   0  0  0  0  0  0  0  0  0  0  0  0
  -26.5480  -34.9360   22.3860 O   0  0  0  0  0  0  0  0  0  0  0  0
  -24.9690  -34.1620   24.9970 H   0  0  0  0  0  0  0  0  0  0  0  0
  -24.1820  -36.8620   23.0830 C   0  0  0  0  0  1  0  0  0  0  0  0
  -25.4240  -36.4430   23.8860 C   0  0  0  0  0  3  0  0  0  0  0  0
  -27.5770  -37.2980   24.6990 C   0  0  0  0  0  1  0  0  0  0  0  0
  -26.4700  -37.4830   23.7660 N   0  0  0  0  0  0  0  0  0  0  0  0
  -26.0760  -38.4060   23.9210 H   0  0  0  0  0  0  0  0  0  0  0  0
  -26.3840  -31.8240   25.1190 C   0  0  1  0  0  0  0  0  0  0  0  0
  -25.3130  -31.5820   26.2090 C   0  0  0  0  0  1  0  0  0  0  0  0
  -26.9580  -30.4480   24.7080 C   0  0  0  0  0  1  0  0  0  0  0  0
  -27.5490  -32.6150   25.7610 C   0  0  0  0  0  1  0  0  0  0  0  0
  2  4  1  0
  2  3  1  0
  3 56  1  0
  3  1  1  0
  4  1  1  0
  4  9  1  1
  5  8  1  0
  5  4  1  0
  6  5  1  0
  7  5  1  0
  9 15  1  0
 10 11  1  0
 12 13  1  0
 12 15  2  0
 13 10  2  0
 14 11  2  0
 14 16  1  0
 15 14  1  0
 17 13  1  0
 19 24  1  0
 20 21  1  0
 20 19  1  0
 22 21  1  0
 22 31  1  0
 22 23  1  0
 24 18  1  0
 24 23  1  0
 25 18  2  0
 26 18  1  0
 26 17  1  0
 27 26  1  0
 28 29  2  0
 29 48  1  0
 30 29  1  0
 30 33  1  0
 31 32  1  0
 31 28  1  0
 32 30  2  0
 33 34  1  0
 34 35  2  0
 36 39  1  0
 36 35  1  0
 37 36  2  0
 38 37  1  0
 38 33  2  0
 39 40  1  0
 40 41  1  0
 41 42  2  0
 43 42  1  0
 43 47  1  0
 44 43  2  0
 45 40  2  0
 45 44  1  0
 46 45  1  0
 48 49  1  0
 49 52  1  0
 49 51  1  0
 50 48  2  0
 53 54  1  0
 53 28  1  0
 55 53  1  0
 56 57  1  0
 57 59  1  0
 58 69  2  0
 59 64  1  0
 60 68  1  0
 60 70  1  0
 61 67  1  0
 61 63  1  0
 62 68  1  0
 63 62  1  0
 64 63  2  0
 65 66  1  0
 65 59  2  0
 66 61  2  0
 67 60  1  0
 68 58  1  0
 70 72  2  0
 71 70  1  0
 73 71  1  0
 74 83  2  0
 74 79  1  0
 75 71  1  0
 75 79  1  0
 76 75  1  0
 77 78  1  0
 77 76  1  0
 78 74  1  0
 79 80  2  0
 80 81  1  0
 82 81  2  0
 83 82  1  0
 84 58  1  0
 84 85  1  0
 84 94  1  0
 85 88  1  0
 86 90  1  0
 86 85  1  0
 87 86  2  0
 90 89  1  0
 92 90  1  0
 92 93  1  0
 92 91  1  0
 94 97  1  1
 94 95  1  0
 96 94  1  0
M  ISO  4  18 100  26 100  56 101  57 101
M  END
>  <TORSDO>  (66) 
F 21

>  <SCORE>  (66) 
-13.488

>  <name>  (66) 
65

>  <ligand_id>  (66) 
65

>  <original_smiles>  (66) 
[H]c1c([H])c([H])c2c(c1[H])C([H])([H])C([H])([H])C([H])([H])C2([H])N([H])C(=O)C1([H])N(C(=O)C([H])(N([H])C(=O)C([H])(N([H])C([H])([H])[H])C([H])([H])[H])C(C([H])([H])[H])(C([H])([H])[H])C([H])([H])[H])C([H])([H])c2c([H])c(OC([H])([H])C3([H])C([H])([H])C(C([H])([H])c4c([H])c(C([H])([H])N([H])C(=O)N5C([H])([H])C([H])([H])C([H])([H])C([H])(n6nc(-c7c([H])c([H])c(Oc8c([H])c([H])c(F)c([H])c8F)c([H])c7[H])c(C(=O)N([H])[H])c6N([H])[H])C5([H])[H])c([H])c([H])c4C([H])([H])[H])([N+]([H])([H])[H])C3([H])[H])c([H])c([H])c2C1([H])[H]

>  <smiles>  (66) 
[H]c1c([H])c([H])c2c(c1[H])C([H])([H])C([H])([H])C([H])([H])C2([H])N([H])C(=O)C1([H])N(C(=O)C([H])(N([H])C(=O)C([H])(N([H])C([H])([H])[H])C([H])([H])[H])C(C([H])([H])[H])(C([H])([H])[H])C([H])([H])[H])C([H])([H])c2c([H])c(OC([H])([H])C3([H])C([H])([H])C(C([H])([H])c4c([H])c(C([H])([H])N([H])C(=O)N5C([H])([H])C([H])([H])C([H])([H])C([H])(n6nc(-c7c([H])c([H])c(Oc8c([H])c([H])c(F)c([H])c8F)c([H])c7[H])c(C(=O)N([H])[H])c6N([H])[H])C5([H])[H])c([H])c([H])c4C([H])([H])[H])([N+]([H])([H])[H])C3([H])[H])c([H])c([H])c2C1([H])[H]

$$$$
66:0:0
     RDKit          3D

 87 96  0  0  1  0  0  0  0  0999 V2000
  -30.9230  -21.5160   18.7280 C   0  0  0  0  0  2  0  0  0  0  0  0
  -29.6680  -21.2920   19.1270 C   0  0  0  0  0  3  0  0  0  0  0  0
  -31.1740  -20.0480   18.3260 C   0  0  0  0  0  2  0  0  0  0  0  0
  -28.5470  -20.2810   20.7740 C   0  0  0  0  0  2  0  0  0  0  0  0
  -29.7900  -19.6930   18.9270 C   0  0  0  0  0  3  0  0  0  0  0  0
  -28.8720  -22.0040   20.2760 C   0  0  0  0  0  3  0  0  0  0  0  0
  -29.5860  -18.8710   20.2720 C   0  0  0  0  0  3  0  0  0  0  0  0
  -30.2360  -15.7080   20.2330 C   0  0  0  0  0  0  0  0  0  0  0  0
  -30.3630  -13.1540   19.4300 C   0  0  0  0  0  2  0  0  0  0  0  0
  -29.4890  -12.7240   18.2160 C   0  0  0  0  0  2  0  0  0  0  0  0
  -28.0650  -12.3600   18.6620 C   0  0  0  0  0  2  0  0  0  0  0  0
  -27.5360  -13.3640   19.7090 C   0  0  0  0  0  3  0  0  0  0  0  0
  -28.5520  -13.7020   20.8260 C   0  0  0  0  0  2  0  0  0  0  0  0
  -29.7210  -14.3360   20.1690 N   0  0  0  0  0  0  0  0  0  0  0  0
  -31.4730  -15.6430   20.0830 O   0  0  0  0  0  0  0  0  0  0  0  0
  -29.4700  -17.0750   20.2820 N   0  0  0  0  0  0  0  0  0  0  0  0
  -28.4910  -16.8360   20.3510 H   0  0  0  0  0  0  0  0  0  0  0  0
  -25.1620  -13.8750   20.4480 C   0  0  0  0  0  0  0  0  0  0  0  0
  -24.1080  -13.0850   20.8110 C   0  0  0  0  0  0  0  0  0  0  0  0
  -24.5950  -11.7410   20.7980 C   0  0  0  0  0  0  0  0  0  0  0  0
  -26.2190  -13.0140   20.2210 N   0  0  0  0  0  0  0  0  0  0  0  0
  -25.8920  -11.7240   20.5000 N   0  0  0  0  0  0  0  0  0  0  0  0
  -23.8810  -10.4720   20.9900 C   0  0  0  0  0  0  0  0  0  0  0  0
  -24.3110   -9.5140   21.9330 C   0  0  0  0  0  3  0  0  0  0  0  0
  -23.5910   -8.3140   22.1150 C   0  0  0  0  0  3  0  0  0  0  0  0
  -22.4250   -8.0620   21.3540 C   0  0  0  0  0  0  0  0  0  0  0  0
  -22.0130   -9.0080   20.3990 C   0  0  0  0  0  3  0  0  0  0  0  0
  -22.7340  -10.2000   20.2160 C   0  0  0  0  0  3  0  0  0  0  0  0
  -21.6780   -6.9130   21.4450 O   0  0  0  0  0  0  0  0  0  0  0  0
  -21.6300   -6.1740   22.6010 C   0  0  0  0  0  0  0  0  0  0  0  0
  -21.1950   -6.7310   23.8230 C   0  0  0  0  0  3  0  0  0  0  0  0
  -21.0950   -5.9190   24.9700 C   0  0  0  0  0  3  0  0  0  0  0  0
  -21.4190   -4.5520   24.8960 C   0  0  0  0  0  0  0  0  0  0  0  0
  -21.8470   -3.9940   23.6790 C   0  0  0  0  0  3  0  0  0  0  0  0
  -21.9480   -4.8030   22.5340 C   0  0  0  0  0  0  0  0  0  0  0  0
  -22.3400   -4.2550   21.3580 F   0  0  0  0  0  0  0  0  0  0  0  0
  -21.3160   -3.7700   25.9970 F   0  0  0  0  0  0  0  0  0  0  0  0
  -22.7020  -13.5470   21.0520 C   0  0  0  0  0  0  0  0  0  0  0  0
  -21.9720  -12.8590   21.9220 N   0  0  0  0  0  0  0  0  0  0  0  0
  -22.2600  -14.5570   20.5060 O   0  0  0  0  0  0  0  0  0  0  0  0
  -22.3430  -12.0440   22.3860 H   0  0  0  0  0  0  0  0  0  0  0  0
  -21.0260  -13.1520   22.1270 H   0  0  0  0  0  0  0  0  0  0  0  0
  -25.3040  -15.2460   20.2570 N   0  0  0  0  0  0  0  0  0  0  0  0
  -24.5220  -15.8850   20.3460 H   0  0  0  0  0  0  0  0  0  0  0  0
  -26.1390  -15.6890   19.8970 H   0  0  0  0  0  0  0  0  0  0  0  0
  -27.9510  -23.7370   20.1060 C   0  0  0  0  0  2  0  0  0  0  0  0
  -28.1370  -25.5030   20.2000 O   0  0  0  0  0  0  0  0  0  0  0  0
  -24.6510  -31.8340   23.1270 C   0  0  0  0  0  0  0  0  0  0  0  0
  -27.1650  -26.7250   20.1500 C   0  0  0  0  0  0  0  0  0  0  0  0
  -23.4610  -30.4360   21.4930 C   0  0  0  0  0  3  0  0  0  0  0  0
  -24.9030  -28.7760   20.0860 C   0  0  0  0  0  0  0  0  0  0  0  0
  -26.0410  -30.5650   21.3740 C   0  0  0  0  0  2  0  0  0  0  0  0
  -26.1010  -29.1290   20.7200 C   0  0  0  0  0  0  0  0  0  0  0  0
  -27.2150  -28.1320   20.7170 C   0  0  0  0  0  3  0  0  0  0  0  0
  -25.9320  -26.5880   19.4620 C   0  0  0  0  0  3  0  0  0  0  0  0
  -24.8600  -27.5330   19.4330 C   0  0  0  0  0  3  0  0  0  0  0  0
  -23.7000  -29.7330   20.1250 C   0  0  0  0  0  2  0  0  0  0  0  0
  -24.7420  -30.9780   22.0490 N   0  0  0  0  0  0  0  0  0  0  0  0
  -23.5580  -32.1380   23.6350 O   0  0  0  0  0  0  0  0  0  0  0  0
  -22.7390  -29.4650   22.4670 C   0  0  0  0  0  0  0  0  0  0  0  0
  -21.4020  -29.3310   22.3550 N   0  0  0  0  0  0  0  0  0  0  0  0
  -23.3930  -28.8280   23.2950 O   0  0  0  0  0  0  0  0  0  0  0  0
  -20.9250  -29.8940   21.6650 H   0  0  0  0  0  0  0  0  0  0  0  0
  -18.0020  -28.1740   22.9070 C   0  0  0  0  0  0  0  0  0  0  0  0
  -20.5710  -28.4020   23.1300 C   0  0  0  0  0  3  0  0  0  0  0  0
  -20.6390  -26.9730   22.5430 C   0  0  0  0  0  2  0  0  0  0  0  0
  -19.5170  -26.6770   21.5430 C   0  0  0  0  0  2  0  0  0  0  0  0
  -18.1480  -26.8320   22.2100 C   0  0  0  0  0  2  0  0  0  0  0  0
  -19.1380  -28.9190   23.3240 C   0  0  0  0  0  0  0  0  0  0  0  0
  -18.9420  -30.1720   23.9430 C   0  0  0  0  0  3  0  0  0  0  0  0
  -17.6460  -30.6820   24.1450 C   0  0  0  0  0  3  0  0  0  0  0  0
  -16.5250  -29.9370   23.7390 C   0  0  0  0  0  3  0  0  0  0  0  0
  -16.7040  -28.6840   23.1270 C   0  0  0  0  0  3  0  0  0  0  0  0
  -25.9150  -32.4820   23.7690 C   0  0  0  0  0  3  0  0  0  0  0  0
  -25.5850  -33.8750   24.1320 N   0  0  0  0  0  0  0  0  0  0  0  0
  -25.8930  -34.9580   23.4050 C   0  0  0  0  0  0  0  0  0  0  0  0
  -26.5430  -34.8910   22.3600 O   0  0  0  0  0  0  0  0  0  0  0  0
  -25.0020  -33.9990   24.9470 H   0  0  0  0  0  0  0  0  0  0  0  0
  -24.1350  -36.7490   23.1650 C   0  0  0  0  0  1  0  0  0  0  0  0
  -25.4100  -36.3320   23.9170 C   0  0  0  0  0  3  0  0  0  0  0  0
  -27.5640  -37.2280   24.6910 C   0  0  0  0  0  1  0  0  0  0  0  0
  -26.4260  -37.4020   23.7920 N   0  0  0  0  0  0  0  0  0  0  0  0
  -26.0140  -38.3130   23.9750 H   0  0  0  0  0  0  0  0  0  0  0  0
  -26.4270  -31.7060   25.0450 C   0  0  1  0  0  0  0  0  0  0  0  0
  -25.3350  -31.4760   26.1180 C   0  0  0  0  0  1  0  0  0  0  0  0
  -26.9980  -30.3220   24.6620 C   0  0  0  0  0  1  0  0  0  0  0  0
  -27.5870  -32.4900   25.7050 C   0  0  0  0  0  1  0  0  0  0  0  0
  2  1  1  0
  2  6  1  0
  3  1  1  0
  5  3  1  0
  5  2  1  0
  5  7  1  0
  6 46  1  0
  6  4  1  0
  7 16  1  0
  7  4  1  0
  8 16  1  0
  9 14  1  0
 10 11  1  0
 10  9  1  0
 12 11  1  0
 12 21  1  0
 12 13  1  0
 14  8  1  0
 14 13  1  0
 15  8  2  0
 16 17  1  0
 18 19  2  0
 19 38  1  0
 20 19  1  0
 20 23  1  0
 21 18  1  0
 21 22  1  0
 22 20  2  0
 23 24  1  0
 24 25  2  0
 26 29  1  0
 26 25  1  0
 27 26  2  0
 28 27  1  0
 28 23  2  0
 29 30  1  0
 30 31  1  0
 31 32  2  0
 33 32  1  0
 33 37  1  0
 34 33  2  0
 35 30  2  0
 35 34  1  0
 36 35  1  0
 38 39  1  0
 39 42  1  0
 39 41  1  0
 40 38  2  0
 43 44  1  0
 43 18  1  0
 45 43  1  0
 46 47  1  0
 48 59  2  0
 49 47  1  0
 49 54  1  0
 50 58  1  0
 50 60  1  0
 51 57  1  0
 51 53  1  0
 52 58  1  0
 53 52  1  0
 54 53  2  0
 55 49  2  0
 56 55  1  0
 56 51  2  0
 57 50  1  0
 58 48  1  0
 60 62  2  0
 61 60  1  0
 63 61  1  0
 64 73  2  0
 64 69  1  0
 65 61  1  0
 65 69  1  0
 66 65  1  0
 67 68  1  0
 67 66  1  0
 68 64  1  0
 69 70  2  0
 70 71  1  0
 72 71  2  0
 73 72  1  0
 74 48  1  0
 74 75  1  0
 74 84  1  0
 75 78  1  0
 76 80  1  0
 76 75  1  0
 77 76  2  0
 80 79  1  0
 82 80  1  0
 82 83  1  0
 82 81  1  0
 84 87  1  1
 84 85  1  0
 86 84  1  0
M  ISO  4   8 100  16 100  46 101  47 101
M  END
>  <TORSDO>  (67) 
F 17

>  <SCORE>  (67) 
-16.421

>  <name>  (67) 
66

>  <ligand_id>  (67) 
66

>  <original_smiles>  (67) 
[H]C1=C2C([H])(C([H])([H])Oc3c([H])c([H])c4c(c3[H])C([H])([H])N(C(=O)C([H])(N([H])C(=O)C([H])(N([H])C([H])([H])[H])C([H])([H])[H])C(C([H])([H])[H])(C([H])([H])[H])C([H])([H])[H])C([H])(C(=O)N([H])C3([H])c5c([H])c([H])c([H])c([H])c5C([H])([H])C([H])([H])C3([H])[H])C4([H])[H])C([H])([H])C([H])(N([H])C(=O)N3C([H])([H])C([H])([H])C([H])([H])C([H])(n4nc(-c5c([H])c([H])c(Oc6c([H])c([H])c(F)c([H])c6F)c([H])c5[H])c(C(=O)N([H])[H])c4N([H])[H])C3([H])[H])C2([H])C1([H])[H]

>  <smiles>  (67) 
[H]C1=C2C([H])(C([H])([H])Oc3c([H])c([H])c4c(c3[H])C([H])([H])N(C(=O)C([H])(N([H])C(=O)C([H])(N([H])C([H])([H])[H])C([H])([H])[H])C(C([H])([H])[H])(C([H])([H])[H])C([H])([H])[H])C([H])(C(=O)N([H])C3([H])c5c([H])c([H])c([H])c([H])c5C([H])([H])C([H])([H])C3([H])[H])C4([H])[H])C([H])([H])C([H])(N([H])C(=O)N3C([H])([H])C([H])([H])C([H])([H])C([H])(n4nc(-c5c([H])c([H])c(Oc6c([H])c([H])c(F)c([H])c6F)c([H])c5[H])c(C(=O)N([H])[H])c4N([H])[H])C3([H])[H])C2([H])C1([H])[H]

$$$$
67:0:0
     RDKit          3D

 86 95  0  0  1  0  0  0  0  0999 V2000
  -28.9100  -21.2580   20.0250 C   0  0  0  0  0  3  0  0  0  0  0  0
  -29.5550  -19.7310   20.6810 C   0  0  0  0  0  3  0  0  0  0  0  0
  -30.4860  -15.3160   20.3480 C   0  0  0  0  0  0  0  0  0  0  0  0
  -30.4680  -12.8720   19.4900 C   0  0  0  0  0  2  0  0  0  0  0  0
  -29.5580  -12.6640   18.2540 C   0  0  0  0  0  2  0  0  0  0  0  0
  -28.1110  -12.3660   18.6860 C   0  0  0  0  0  2  0  0  0  0  0  0
  -27.6330  -13.3260   19.7990 C   0  0  0  0  0  3  0  0  0  0  0  0
  -28.6760  -13.5040   20.9310 C   0  0  0  0  0  2  0  0  0  0  0  0
  -29.9150  -14.0100   20.3060 N   0  0  0  0  0  0  0  0  0  0  0  0
  -31.7130  -15.3160   20.1740 O   0  0  0  0  0  0  0  0  0  0  0  0
  -27.9760  -16.7100   18.5140 C   0  0  0  0  0  2  0  0  0  0  0  0
  -28.3450  -17.9110   19.3420 C   0  0  0  0  0  3  0  0  0  0  0  0
  -28.3490  -16.5500   19.9720 C   0  0  0  0  0  3  0  0  0  0  0  0
  -29.7290  -18.1710   19.8670 C   0  0  0  0  0  3  0  0  0  0  0  0
  -29.7100  -16.5840   20.3680 N   0  0  0  0  0  0  0  0  0  0  0  0
  -25.2400  -13.8790   20.5100 C   0  0  0  0  0  0  0  0  0  0  0  0
  -24.1840  -13.0960   20.8730 C   0  0  0  0  0  0  0  0  0  0  0  0
  -24.6670  -11.7530   20.8540 C   0  0  0  0  0  0  0  0  0  0  0  0
  -26.3000  -13.0130   20.2930 N   0  0  0  0  0  0  0  0  0  0  0  0
  -25.9630  -11.7280   20.5660 N   0  0  0  0  0  0  0  0  0  0  0  0
  -23.9500  -10.4860   21.0330 C   0  0  0  0  0  0  0  0  0  0  0  0
  -24.3640   -9.5320   21.9850 C   0  0  0  0  0  3  0  0  0  0  0  0
  -23.6430   -8.3300   22.1520 C   0  0  0  0  0  3  0  0  0  0  0  0
  -22.4950   -8.0770   21.3650 C   0  0  0  0  0  0  0  0  0  0  0  0
  -22.1000   -9.0220   20.4010 C   0  0  0  0  0  3  0  0  0  0  0  0
  -22.8220  -10.2140   20.2320 C   0  0  0  0  0  3  0  0  0  0  0  0
  -21.7480   -6.9270   21.4410 O   0  0  0  0  0  0  0  0  0  0  0  0
  -21.6620   -6.2010   22.6010 C   0  0  0  0  0  0  0  0  0  0  0  0
  -21.1560   -6.7610   23.7950 C   0  0  0  0  0  3  0  0  0  0  0  0
  -21.0220   -5.9590   24.9470 C   0  0  0  0  0  3  0  0  0  0  0  0
  -21.3820   -4.6000   24.9040 C   0  0  0  0  0  0  0  0  0  0  0  0
  -21.8820   -4.0400   23.7150 C   0  0  0  0  0  3  0  0  0  0  0  0
  -22.0190   -4.8380   22.5660 C   0  0  0  0  0  0  0  0  0  0  0  0
  -22.4810   -4.2880   21.4170 F   0  0  0  0  0  0  0  0  0  0  0  0
  -21.2450   -3.8280   26.0080 F   0  0  0  0  0  0  0  0  0  0  0  0
  -22.7780  -13.5650   21.1150 C   0  0  0  0  0  0  0  0  0  0  0  0
  -22.0390  -12.8670   21.9690 N   0  0  0  0  0  0  0  0  0  0  0  0
  -22.3450  -14.5870   20.5840 O   0  0  0  0  0  0  0  0  0  0  0  0
  -22.4020  -12.0410   22.4210 H   0  0  0  0  0  0  0  0  0  0  0  0
  -21.0960  -13.1650   22.1760 H   0  0  0  0  0  0  0  0  0  0  0  0
  -25.3650  -15.2470   20.3130 N   0  0  0  0  0  0  0  0  0  0  0  0
  -24.5650  -15.8660   20.3790 H   0  0  0  0  0  0  0  0  0  0  0  0
  -26.1790  -15.6910   19.9120 H   0  0  0  0  0  0  0  0  0  0  0  0
  -28.9360  -22.9500   20.5760 C   0  0  0  0  0  3  0  0  0  0  0  0
  -28.0620  -24.4120   20.0550 C   0  0  0  0  0  3  0  0  0  0  0  0
  -28.2220  -26.0000   20.3670 O   0  0  0  0  0  0  0  0  0  0  0  0
  -24.6040  -31.8920   23.2690 C   0  0  0  0  0  0  0  0  0  0  0  0
  -27.1900  -27.0580   20.2700 C   0  0  0  0  0  0  0  0  0  0  0  0
  -23.4160  -30.4910   21.6260 C   0  0  0  0  0  3  0  0  0  0  0  0
  -24.8750  -28.8940   20.2120 C   0  0  0  0  0  0  0  0  0  0  0  0
  -25.9790  -30.7200   21.4880 C   0  0  0  0  0  2  0  0  0  0  0  0
  -26.0560  -29.3150   20.8360 C   0  0  0  0  0  0  0  0  0  0  0  0
  -27.2070  -28.4160   20.8440 C   0  0  0  0  0  3  0  0  0  0  0  0
  -25.9810  -26.7750   19.5950 C   0  0  0  0  0  3  0  0  0  0  0  0
  -24.8590  -27.6430   19.5720 C   0  0  0  0  0  3  0  0  0  0  0  0
  -23.6510  -29.8050   20.2520 C   0  0  0  0  0  2  0  0  0  0  0  0
  -24.6870  -31.0610   22.1810 N   0  0  0  0  0  0  0  0  0  0  0  0
  -23.5130  -32.1820   23.7860 O   0  0  0  0  0  0  0  0  0  0  0  0
  -22.7210  -29.4960   22.5900 C   0  0  0  0  0  0  0  0  0  0  0  0
  -21.3920  -29.3280   22.4590 N   0  0  0  0  0  0  0  0  0  0  0  0
  -23.3830  -28.8740   23.4260 O   0  0  0  0  0  0  0  0  0  0  0  0
  -20.9120  -29.8810   21.7620 H   0  0  0  0  0  0  0  0  0  0  0  0
  -18.0070  -28.1230   22.9500 C   0  0  0  0  0  0  0  0  0  0  0  0
  -20.5650  -28.3920   23.2270 C   0  0  0  0  0  3  0  0  0  0  0  0
  -20.6700  -26.9590   22.6560 C   0  0  0  0  0  2  0  0  0  0  0  0
  -19.5750  -26.6340   21.6360 C   0  0  0  0  0  2  0  0  0  0  0  0
  -18.1890  -26.7750   22.2740 C   0  0  0  0  0  2  0  0  0  0  0  0
  -19.1220  -28.8890   23.3830 C   0  0  0  0  0  0  0  0  0  0  0  0
  -18.8970  -30.1490   23.9790 C   0  0  0  0  0  3  0  0  0  0  0  0
  -17.5900  -30.6450   24.1430 C   0  0  0  0  0  3  0  0  0  0  0  0
  -16.4890  -29.8770   23.7250 C   0  0  0  0  0  3  0  0  0  0  0  0
  -16.6990  -28.6180   23.1360 C   0  0  0  0  0  3  0  0  0  0  0  0
  -25.8740  -32.5350   23.9030 C   0  0  0  0  0  3  0  0  0  0  0  0
  -26.3560  -31.7900   25.2110 C   0  0  1  0  0  0  0  0  0  0  0  0
  -25.2400  -31.5880   26.2610 C   0  0  0  0  0  1  0  0  0  0  0  0
  -26.9340  -30.3960   24.8700 C   0  0  0  0  0  1  0  0  0  0  0  0
  -27.5020  -32.5880   25.8770 C   0  0  0  0  0  1  0  0  0  0  0  0
  -25.5660  -33.9430   24.2090 N   0  0  0  0  0  0  0  0  0  0  0  0
  -25.9200  -34.9880   23.4490 C   0  0  0  0  0  0  0  0  0  0  0  0
  -26.6040  -34.8670   22.4290 O   0  0  0  0  0  0  0  0  0  0  0  0
  -24.9620  -34.1100   25.0010 H   0  0  0  0  0  0  0  0  0  0  0  0
  -24.2220  -36.8050   23.0540 C   0  0  0  0  0  1  0  0  0  0  0  0
  -25.4430  -36.3880   23.8880 C   0  0  0  0  0  3  0  0  0  0  0  0
  -27.5710  -37.2610   24.7530 C   0  0  0  0  0  1  0  0  0  0  0  0
  -26.4900  -37.4280   23.7850 N   0  0  0  0  0  0  0  0  0  0  0  0
  -26.0920  -38.3550   23.9110 H   0  0  0  0  0  0  0  0  0  0  0  0
  1 44  1  0
  1  2  2  0
  3 15  1  0
  4  9  1  0
  5  6  1  0
  5  4  1  0
  7  6  1  0
  7 19  1  0
  7  8  1  0
  9  3  1  0
  9  8  1  0
 10  3  2  0
 12 11  1  0
 12 14  1  0
 12 13  1  0
 13 11  1  0
 13 15  1  0
 14 15  1  0
 14  2  1  0
 16 17  2  0
 17 36  1  0
 18 17  1  0
 18 21  1  0
 19 16  1  0
 19 20  1  0
 20 18  2  0
 21 22  1  0
 22 23  2  0
 24 27  1  0
 24 23  1  0
 25 24  2  0
 26 25  1  0
 26 21  2  0
 27 28  1  0
 28 29  1  0
 29 30  2  0
 31 30  1  0
 31 35  1  0
 32 31  2  0
 33 28  2  0
 33 32  1  0
 34 33  1  0
 36 37  1  0
 37 40  1  0
 37 39  1  0
 38 36  2  0
 41 42  1  0
 41 16  1  0
 43 41  1  0
 45 46  1  0
 45 44  2  0
 47 58  2  0
 48 46  1  0
 48 53  1  0
 49 57  1  0
 49 59  1  0
 50 56  1  0
 50 52  1  0
 51 57  1  0
 52 53  2  0
 52 51  1  0
 54 48  2  0
 55 54  1  0
 55 50  2  0
 56 49  1  0
 57 47  1  0
 59 61  2  0
 60 59  1  0
 62 60  1  0
 63 72  2  0
 63 68  1  0
 64 60  1  0
 64 68  1  0
 65 64  1  0
 66 67  1  0
 66 65  1  0
 67 63  1  0
 68 69  2  0
 69 70  1  0
 71 70  2  0
 72 71  1  0
 73 47  1  0
 73 78  1  0
 73 74  1  0
 74 77  1  1
 74 75  1  0
 76 74  1  0
 78 81  1  0
 79 83  1  0
 79 78  1  0
 80 79  2  0
 83 82  1  0
 85 83  1  0
 85 86  1  0
 85 84  1  0
M  ISO  4   3 100  15 100  45 101  46 101
M  END
>  <TORSDO>  (68) 
F 19

>  <SCORE>  (68) 
-15.915

>  <name>  (68) 
67

>  <ligand_id>  (68) 
67

>  <original_smiles>  (68) 
[H]c1c([H])c([H])c2c(c1[H])C([H])([H])C([H])([H])C([H])([H])C2([H])N([H])C(=O)C1([H])N(C(=O)C([H])(N([H])C(=O)C([H])(N([H])C([H])([H])[H])C([H])([H])[H])C(C([H])([H])[H])(C([H])([H])[H])C([H])([H])[H])C([H])([H])c2c([H])c(OC([H])([H])C([H])([H])C([H])([H])C([H])([H])C3([H])N(C(=O)N4C([H])([H])C([H])([H])C([H])([H])C([H])(n5nc(-c6c([H])c([H])c(Oc7c([H])c([H])c(F)c([H])c7F)c([H])c6[H])c(C(=O)N([H])[H])c5N([H])[H])C4([H])[H])C4([H])C([H])([H])C34[H])c([H])c([H])c2C1([H])[H]

>  <smiles>  (68) 
[H]c1c([H])c([H])c2c(c1[H])C([H])([H])C([H])([H])C([H])([H])C2([H])N([H])C(=O)C1([H])N(C(=O)C([H])(N([H])C(=O)C([H])(N([H])C([H])([H])[H])C([H])([H])[H])C(C([H])([H])[H])(C([H])([H])[H])C([H])([H])[H])C([H])([H])c2c([H])c(OC([H])([H])C([H])([H])C([H])([H])C([H])([H])C3([H])N(C(=O)N4C([H])([H])C([H])([H])C([H])([H])C([H])(n5nc(-c6c([H])c([H])c(Oc7c([H])c([H])c(F)c([H])c7F)c([H])c6[H])c(C(=O)N([H])[H])c5N([H])[H])C4([H])[H])C4([H])C([H])([H])C34[H])c([H])c([H])c2C1([H])[H]

$$$$
68:0:0
     RDKit          3D

 89 98  0  0  1  0  0  0  0  0999 V2000
  -29.3310  -19.9500   20.5890 C   0  0  0  0  0  0  0  0  0  0  0  0
  -29.1680  -21.3370   20.0680 N   0  0  0  0  0  0  0  0  0  0  0  0
  -29.0000  -19.7930   21.7650 O   0  0  0  0  0  0  0  0  0  0  0  0
  -29.4140  -21.3760   19.0860 H   0  0  0  0  0  0  0  0  0  0  0  0
  -30.4640  -15.5320   20.1800 C   0  0  0  0  0  0  0  0  0  0  0  0
  -30.4730  -13.0600   19.3530 C   0  0  0  0  0  2  0  0  0  0  0  0
  -29.5530  -12.7830   18.1370 C   0  0  0  0  0  2  0  0  0  0  0  0
  -28.1110  -12.4870   18.5910 C   0  0  0  0  0  2  0  0  0  0  0  0
  -27.6350  -13.4570   19.6980 C   0  0  0  0  0  3  0  0  0  0  0  0
  -28.6920  -13.6900   20.8040 C   0  0  0  0  0  2  0  0  0  0  0  0
  -29.9040  -14.2130   20.1430 N   0  0  0  0  0  0  0  0  0  0  0  0
  -31.7020  -15.5100   20.1250 O   0  0  0  0  0  0  0  0  0  0  0  0
  -30.2000  -17.8760   17.2000 C   0  0  0  0  0  2  0  0  0  0  0  0
  -28.7480  -16.5810   18.8790 C   0  0  0  0  0  2  0  0  0  0  0  0
  -29.9760  -18.4910   19.8380 C   0  0  0  0  0  3  0  0  0  0  0  0
  -28.8600  -17.7210   17.8840 C   0  0  0  0  0  3  0  0  0  0  0  0
  -29.7870  -18.7670   18.3460 C   0  0  0  0  0  3  0  0  0  0  0  0
  -29.6940  -16.8170   20.0000 N   0  0  0  0  0  0  0  0  0  0  0  0
  -25.2660  -14.0170   20.4460 C   0  0  0  0  0  0  0  0  0  0  0  0
  -24.2070  -13.2360   20.8080 C   0  0  0  0  0  0  0  0  0  0  0  0
  -24.6860  -11.8910   20.7930 C   0  0  0  0  0  0  0  0  0  0  0  0
  -26.3170  -13.1440   20.2180 N   0  0  0  0  0  0  0  0  0  0  0  0
  -25.9800  -11.8610   20.4960 N   0  0  0  0  0  0  0  0  0  0  0  0
  -23.9710  -10.6250   20.9850 C   0  0  0  0  0  0  0  0  0  0  0  0
  -24.4070   -9.6680   21.9280 C   0  0  0  0  0  3  0  0  0  0  0  0
  -23.6890   -8.4670   22.1100 C   0  0  0  0  0  3  0  0  0  0  0  0
  -22.5240   -8.2150   21.3480 C   0  0  0  0  0  0  0  0  0  0  0  0
  -22.1090   -9.1610   20.3940 C   0  0  0  0  0  3  0  0  0  0  0  0
  -22.8270  -10.3530   20.2100 C   0  0  0  0  0  3  0  0  0  0  0  0
  -21.7780   -7.0650   21.4400 O   0  0  0  0  0  0  0  0  0  0  0  0
  -21.7290   -6.3310   22.5980 C   0  0  0  0  0  0  0  0  0  0  0  0
  -21.2810   -6.8890   23.8150 C   0  0  0  0  0  3  0  0  0  0  0  0
  -21.1810   -6.0800   24.9650 C   0  0  0  0  0  3  0  0  0  0  0  0
  -21.5170   -4.7150   24.8980 C   0  0  0  0  0  0  0  0  0  0  0  0
  -21.9590   -4.1570   23.6850 C   0  0  0  0  0  3  0  0  0  0  0  0
  -22.0610   -4.9630   22.5370 C   0  0  0  0  0  0  0  0  0  0  0  0
  -22.4670   -4.4160   21.3660 F   0  0  0  0  0  0  0  0  0  0  0  0
  -21.4130   -3.9360   25.9990 F   0  0  0  0  0  0  0  0  0  0  0  0
  -22.8030  -13.7050   21.0570 C   0  0  0  0  0  0  0  0  0  0  0  0
  -22.0730  -13.0150   21.9260 N   0  0  0  0  0  0  0  0  0  0  0  0
  -22.3630  -14.7190   20.5170 O   0  0  0  0  0  0  0  0  0  0  0  0
  -22.4440  -12.1950   22.3830 H   0  0  0  0  0  0  0  0  0  0  0  0
  -21.1310  -13.3110   22.1370 H   0  0  0  0  0  0  0  0  0  0  0  0
  -25.4160  -15.3890   20.2650 N   0  0  0  0  0  0  0  0  0  0  0  0
  -24.6450  -16.0380   20.3880 H   0  0  0  0  0  0  0  0  0  0  0  0
  -26.2810  -15.8460   20.0120 H   0  0  0  0  0  0  0  0  0  0  0  0
  -28.8680  -22.8820   20.6610 C   0  0  0  0  0  2  0  0  0  0  0  0
  -28.1590  -24.4050   19.9820 C   0  0  0  0  0  2  0  0  0  0  0  0
  -28.2220  -26.0170   20.3680 O   0  0  0  0  0  0  0  0  0  0  0  0
  -24.6120  -31.9790   23.2620 C   0  0  0  0  0  0  0  0  0  0  0  0
  -27.1950  -27.1000   20.2610 C   0  0  0  0  0  0  0  0  0  0  0  0
  -23.4220  -30.5690   21.6310 C   0  0  0  0  0  3  0  0  0  0  0  0
  -24.8780  -28.9650   20.2100 C   0  0  0  0  0  0  0  0  0  0  0  0
  -25.9860  -30.7920   21.4810 C   0  0  0  0  0  2  0  0  0  0  0  0
  -26.0630  -29.3800   20.8290 C   0  0  0  0  0  0  0  0  0  0  0  0
  -27.2110  -28.4670   20.8320 C   0  0  0  0  0  3  0  0  0  0  0  0
  -25.9810  -26.8390   19.5830 C   0  0  0  0  0  3  0  0  0  0  0  0
  -24.8630  -27.7150   19.5670 C   0  0  0  0  0  3  0  0  0  0  0  0
  -23.6520  -29.8780   20.2570 C   0  0  0  0  0  2  0  0  0  0  0  0
  -24.6950  -31.1410   22.1770 N   0  0  0  0  0  0  0  0  0  0  0  0
  -23.5220  -32.2660   23.7830 O   0  0  0  0  0  0  0  0  0  0  0  0
  -22.7330  -29.5760   22.6040 C   0  0  0  0  0  0  0  0  0  0  0  0
  -21.4060  -29.3970   22.4750 N   0  0  0  0  0  0  0  0  0  0  0  0
  -23.4010  -28.9670   23.4430 O   0  0  0  0  0  0  0  0  0  0  0  0
  -20.9190  -29.9400   21.7760 H   0  0  0  0  0  0  0  0  0  0  0  0
  -18.0370  -28.1390   22.9660 C   0  0  0  0  0  0  0  0  0  0  0  0
  -20.5900  -28.4570   23.2530 C   0  0  0  0  0  3  0  0  0  0  0  0
  -20.7230  -27.0180   22.7020 C   0  0  0  0  0  2  0  0  0  0  0  0
  -19.6370  -26.6590   21.6800 C   0  0  0  0  0  2  0  0  0  0  0  0
  -18.2460  -26.7860   22.3080 C   0  0  0  0  0  2  0  0  0  0  0  0
  -19.1370  -28.9300   23.3950 C   0  0  0  0  0  0  0  0  0  0  0  0
  -18.8860  -30.1930   23.9740 C   0  0  0  0  0  3  0  0  0  0  0  0
  -17.5680  -30.6670   24.1260 C   0  0  0  0  0  3  0  0  0  0  0  0
  -16.4840  -29.8740   23.7110 C   0  0  0  0  0  3  0  0  0  0  0  0
  -16.7190  -28.6130   23.1380 C   0  0  0  0  0  3  0  0  0  0  0  0
  -25.8810  -32.6310   23.8900 C   0  0  0  0  0  3  0  0  0  0  0  0
  -25.5620  -34.0360   24.2020 N   0  0  0  0  0  0  0  0  0  0  0  0
  -25.8970  -35.0870   23.4430 C   0  0  0  0  0  0  0  0  0  0  0  0
  -26.5700  -34.9770   22.4140 O   0  0  0  0  0  0  0  0  0  0  0  0
  -24.9640  -34.1950   25.0000 H   0  0  0  0  0  0  0  0  0  0  0  0
  -24.1720  -36.8870   23.0830 C   0  0  0  0  0  1  0  0  0  0  0  0
  -25.4140  -36.4820   23.8940 C   0  0  0  0  0  3  0  0  0  0  0  0
  -27.5490  -37.3750   24.7190 C   0  0  0  0  0  1  0  0  0  0  0  0
  -26.4480  -37.5340   23.7720 N   0  0  0  0  0  0  0  0  0  0  0  0
  -26.0420  -38.4560   23.9090 H   0  0  0  0  0  0  0  0  0  0  0  0
  -26.3800  -31.8870   25.1910 C   0  0  1  0  0  0  0  0  0  0  0  0
  -25.2730  -31.6750   26.2510 C   0  0  0  0  0  1  0  0  0  0  0  0
  -26.9660  -30.5000   24.8440 C   0  0  0  0  0  1  0  0  0  0  0  0
  -27.5230  -32.6950   25.8500 C   0  0  0  0  0  1  0  0  0  0  0  0
  1  3  2  0
  2  1  1  0
  2 47  1  0
  4  2  1  0
  6 11  1  0
  7  8  1  0
  7  6  1  0
  9  8  1  0
  9 22  1  0
  9 10  1  0
 11  5  1  0
 11 10  1  0
 12  5  2  0
 14 18  1  0
 15 18  1  0
 15  1  1  0
 16 13  1  0
 16 17  1  0
 16 14  1  0
 17 13  1  0
 17 15  1  0
 18  5  1  0
 19 20  2  0
 20 39  1  0
 21 20  1  0
 21 24  1  0
 22 19  1  0
 22 23  1  0
 23 21  2  0
 24 25  1  0
 25 26  2  0
 27 30  1  0
 27 26  1  0
 28 27  2  0
 29 28  1  0
 29 24  2  0
 30 31  1  0
 31 32  1  0
 32 33  2  0
 34 33  1  0
 34 38  1  0
 35 34  2  0
 36 31  2  0
 36 35  1  0
 37 36  1  0
 39 40  1  0
 40 43  1  0
 40 42  1  0
 41 39  2  0
 44 45  1  0
 44 19  1  0
 46 44  1  0
 48 49  1  0
 48 47  1  0
 50 61  2  0
 51 49  1  0
 51 56  1  0
 52 60  1  0
 52 62  1  0
 53 59  1  0
 53 55  1  0
 54 60  1  0
 55 56  2  0
 55 54  1  0
 57 51  2  0
 58 57  1  0
 58 53  2  0
 59 52  1  0
 60 50  1  0
 62 64  2  0
 63 62  1  0
 65 63  1  0
 66 75  2  0
 66 71  1  0
 67 63  1  0
 67 71  1  0
 68 67  1  0
 69 70  1  0
 69 68  1  0
 70 66  1  0
 71 72  2  0
 72 73  1  0
 74 73  2  0
 75 74  1  0
 76 50  1  0
 76 77  1  0
 76 86  1  0
 77 80  1  0
 78 82  1  0
 78 77  1  0
 79 78  2  0
 82 81  1  0
 84 82  1  0
 84 85  1  0
 84 83  1  0
 86 89  1  1
 86 87  1  0
 88 86  1  0
M  ISO  4   5 100  18 100  48 101  49 101
M  END
>  <TORSDO>  (69) 
F 18

>  <SCORE>  (69) 
-15.468

>  <name>  (69) 
68

>  <ligand_id>  (69) 
68

>  <original_smiles>  (69) 
[H]c1c([H])c([H])c2c(c1[H])C([H])([H])C([H])([H])C([H])([H])C2([H])N([H])C(=O)C1([H])N(C(=O)C([H])(N([H])C(=O)C([H])(N([H])C([H])([H])[H])C([H])([H])[H])C(C([H])([H])[H])(C([H])([H])[H])C([H])([H])[H])C([H])([H])c2c([H])c(OC([H])([H])C([H])([H])N([H])C(=O)C3([H])N(C(=O)N4C([H])([H])C([H])([H])C([H])([H])C([H])(n5nc(-c6c([H])c([H])c(Oc7c([H])c([H])c(F)c([H])c7F)c([H])c6[H])c(C(=O)N([H])[H])c5N([H])[H])C4([H])[H])C([H])([H])C4([H])C([H])([H])C34[H])c([H])c([H])c2C1([H])[H]

>  <smiles>  (69) 
[H]c1c([H])c([H])c2c(c1[H])C([H])([H])C([H])([H])C([H])([H])C2([H])N([H])C(=O)C1([H])N(C(=O)C([H])(N([H])C(=O)C([H])(N([H])C([H])([H])[H])C([H])([H])[H])C(C([H])([H])[H])(C([H])([H])[H])C([H])([H])[H])C([H])([H])c2c([H])c(OC([H])([H])C([H])([H])N([H])C(=O)C3([H])N(C(=O)N4C([H])([H])C([H])([H])C([H])([H])C([H])(n5nc(-c6c([H])c([H])c(Oc7c([H])c([H])c(F)c([H])c7F)c([H])c6[H])c(C(=O)N([H])[H])c5N([H])[H])C4([H])[H])C([H])([H])C4([H])C([H])([H])C34[H])c([H])c([H])c2C1([H])[H]

$$$$
69:0:0
     RDKit          3D

 92102  0  0  1  0  0  0  0  0999 V2000
  -29.2480  -23.3960   20.1920 C   0  0  0  0  0  0  0  0  0  0  0  0
  -30.2930  -21.2620   19.2410 C   0  0  0  0  0  2  0  0  0  0  0  0
  -29.4460  -20.0590   18.7200 C   0  0  2  0  0  0  0  0  0  0  0  0
  -29.0600  -19.0820   19.8550 C   0  0  0  0  0  3  0  0  0  0  0  0
  -28.4140  -20.6600   20.1820 C   0  0  2  0  0  0  0  0  0  0  0  0
  -27.9440  -20.5260   18.6840 C   0  0  2  0  0  0  0  0  0  0  0  0
  -26.7490  -19.5860   18.3370 C   0  0  0  0  0  1  0  0  0  0  0  0
  -27.6590  -21.7640   17.7970 C   0  0  0  0  0  1  0  0  0  0  0  0
  -29.2880  -21.9390   20.0790 N   0  0  0  0  0  0  0  0  0  0  0  0
  -30.3500  -23.9470   20.1020 O   0  0  0  0  0  0  0  0  0  0  0  0
  -30.4860  -18.2120   21.8930 C   0  0  0  0  0  1  0  0  0  0  0  0
  -30.1360  -17.8920   20.4370 C   0  0  0  0  0  3  0  0  0  0  0  0
  -30.6360  -15.0990   20.2270 C   0  0  0  0  0  0  0  0  0  0  0  0
  -30.5370  -12.7070   19.3320 C   0  0  0  0  0  2  0  0  0  0  0  0
  -29.5910  -12.5950   18.1140 C   0  0  0  0  0  2  0  0  0  0  0  0
  -28.1380  -12.3730   18.5710 C   0  0  0  0  0  2  0  0  0  0  0  0
  -27.7290  -13.3260   19.7250 C   0  0  0  0  0  3  0  0  0  0  0  0
  -28.7970  -13.3950   20.8360 C   0  0  0  0  0  2  0  0  0  0  0  0
  -30.0470  -13.8270   20.1940 N   0  0  0  0  0  0  0  0  0  0  0  0
  -31.8470  -15.1390   19.9790 O   0  0  0  0  0  0  0  0  0  0  0  0
  -29.8540  -16.3040   20.3410 N   0  0  0  0  0  0  0  0  0  0  0  0
  -28.8740  -16.0860   20.4410 H   0  0  0  0  0  0  0  0  0  0  0  0
  -25.3740  -13.9080   20.5260 C   0  0  0  0  0  0  0  0  0  0  0  0
  -24.3090  -13.1370   20.9010 C   0  0  0  0  0  0  0  0  0  0  0  0
  -24.7600  -11.7830   20.8380 C   0  0  0  0  0  0  0  0  0  0  0  0
  -26.4020  -13.0250   20.2470 N   0  0  0  0  0  0  0  0  0  0  0  0
  -26.0440  -11.7400   20.5020 N   0  0  0  0  0  0  0  0  0  0  0  0
  -24.0230  -10.5250   21.0160 C   0  0  0  0  0  0  0  0  0  0  0  0
  -24.4500   -9.5410   21.9340 C   0  0  0  0  0  3  0  0  0  0  0  0
  -23.7120   -8.3500   22.1040 C   0  0  0  0  0  3  0  0  0  0  0  0
  -22.5320   -8.1330   21.3520 C   0  0  0  0  0  0  0  0  0  0  0  0
  -22.1230   -9.1050   20.4210 C   0  0  0  0  0  3  0  0  0  0  0  0
  -22.8630  -10.2870   20.2510 C   0  0  0  0  0  3  0  0  0  0  0  0
  -21.7650   -6.9950   21.4300 O   0  0  0  0  0  0  0  0  0  0  0  0
  -21.7000   -6.2480   22.5790 C   0  0  0  0  0  0  0  0  0  0  0  0
  -21.2480   -6.7960   23.7990 C   0  0  0  0  0  3  0  0  0  0  0  0
  -21.1310   -5.9760   24.9380 C   0  0  0  0  0  3  0  0  0  0  0  0
  -21.4570   -4.6080   24.8590 C   0  0  0  0  0  0  0  0  0  0  0  0
  -21.9040   -4.0600   23.6440 C   0  0  0  0  0  3  0  0  0  0  0  0
  -22.0230   -4.8780   22.5070 C   0  0  0  0  0  0  0  0  0  0  0  0
  -22.4320   -4.3400   21.3330 F   0  0  0  0  0  0  0  0  0  0  0  0
  -21.3380   -3.8180   25.9510 F   0  0  0  0  0  0  0  0  0  0  0  0
  -22.9220  -13.6240   21.2020 C   0  0  0  0  0  0  0  0  0  0  0  0
  -22.1990  -12.9200   22.0660 N   0  0  0  0  0  0  0  0  0  0  0  0
  -22.4890  -14.6640   20.7070 O   0  0  0  0  0  0  0  0  0  0  0  0
  -22.5630  -12.0790   22.4880 H   0  0  0  0  0  0  0  0  0  0  0  0
  -21.2680  -13.2280   22.3100 H   0  0  0  0  0  0  0  0  0  0  0  0
  -25.5460  -15.2810   20.3690 N   0  0  0  0  0  0  0  0  0  0  0  0
  -24.7800  -15.9330   20.4960 H   0  0  0  0  0  0  0  0  0  0  0  0
  -26.3730  -15.7160   19.9820 H   0  0  0  0  0  0  0  0  0  0  0  0
  -28.0100  -24.5210   20.3180 C   0  0  0  0  0  2  0  0  0  0  0  0
  -28.2750  -26.0930   20.3150 O   0  0  0  0  0  0  0  0  0  0  0  0
  -24.6060  -31.8820   23.2060 C   0  0  0  0  0  0  0  0  0  0  0  0
  -27.2170  -27.0950   20.2530 C   0  0  0  0  0  0  0  0  0  0  0  0
  -23.4180  -30.4490   21.5930 C   0  0  0  0  0  3  0  0  0  0  0  0
  -24.8790  -28.8580   20.1920 C   0  0  0  0  0  0  0  0  0  0  0  0
  -25.9740  -30.7210   21.4230 C   0  0  0  0  0  2  0  0  0  0  0  0
  -26.0590  -29.3140   20.7920 C   0  0  0  0  0  0  0  0  0  0  0  0
  -27.2280  -28.4520   20.8010 C   0  0  0  0  0  3  0  0  0  0  0  0
  -26.0060  -26.7540   19.6110 C   0  0  0  0  0  3  0  0  0  0  0  0
  -24.8690  -27.5930   19.5840 C   0  0  0  0  0  3  0  0  0  0  0  0
  -23.6460  -29.7510   20.2260 C   0  0  0  0  0  2  0  0  0  0  0  0
  -24.6870  -31.0420   22.1280 N   0  0  0  0  0  0  0  0  0  0  0  0
  -23.5180  -32.1660   23.7290 O   0  0  0  0  0  0  0  0  0  0  0  0
  -22.7470  -29.4540   22.5730 C   0  0  0  0  0  0  0  0  0  0  0  0
  -21.4200  -29.2690   22.4490 N   0  0  0  0  0  0  0  0  0  0  0  0
  -23.4230  -28.8510   23.4090 O   0  0  0  0  0  0  0  0  0  0  0  0
  -20.9290  -29.8070   21.7490 H   0  0  0  0  0  0  0  0  0  0  0  0
  -18.0500  -28.0460   22.9830 C   0  0  0  0  0  0  0  0  0  0  0  0
  -20.6080  -28.3360   23.2370 C   0  0  0  0  0  3  0  0  0  0  0  0
  -20.7210  -26.8970   22.6840 C   0  0  0  0  0  2  0  0  0  0  0  0
  -19.6180  -26.5480   21.6780 C   0  0  0  0  0  2  0  0  0  0  0  0
  -18.2370  -26.6890   22.3240 C   0  0  0  0  0  2  0  0  0  0  0  0
  -19.1630  -28.8260   23.3970 C   0  0  0  0  0  0  0  0  0  0  0  0
  -18.9310  -30.0930   23.9760 C   0  0  0  0  0  3  0  0  0  0  0  0
  -17.6220  -30.5810   24.1420 C   0  0  0  0  0  3  0  0  0  0  0  0
  -16.5240  -29.7990   23.7430 C   0  0  0  0  0  3  0  0  0  0  0  0
  -16.7400  -28.5330   23.1690 C   0  0  0  0  0  3  0  0  0  0  0  0
  -25.8770  -32.5430   23.8230 C   0  0  0  0  0  3  0  0  0  0  0  0
  -25.5460  -33.9410   24.1450 N   0  0  0  0  0  0  0  0  0  0  0  0
  -25.8600  -34.9970   23.3840 C   0  0  0  0  0  0  0  0  0  0  0  0
  -26.5240  -34.8990   22.3480 O   0  0  0  0  0  0  0  0  0  0  0  0
  -24.9540  -34.0890   24.9490 H   0  0  0  0  0  0  0  0  0  0  0  0
  -24.1130  -36.7770   23.0340 C   0  0  0  0  0  1  0  0  0  0  0  0
  -25.3610  -36.3830   23.8410 C   0  0  0  0  0  3  0  0  0  0  0  0
  -27.4840  -37.2960   24.6690 C   0  0  0  0  0  1  0  0  0  0  0  0
  -26.3830  -37.4460   23.7240 N   0  0  0  0  0  0  0  0  0  0  0  0
  -25.9670  -38.3630   23.8650 H   0  0  0  0  0  0  0  0  0  0  0  0
  -26.4010  -31.7940   25.1100 C   0  0  1  0  0  0  0  0  0  0  0  0
  -25.3100  -31.5530   26.1790 C   0  0  0  0  0  1  0  0  0  0  0  0
  -27.0050  -30.4200   24.7410 C   0  0  0  0  0  1  0  0  0  0  0  0
  -27.5400  -32.6120   25.7640 C   0  0  0  0  0  1  0  0  0  0  0  0
  1 51  1  0
  2  9  1  0
  3  2  1  6
  3  4  1  0
  3  5  1  0
  5  4  1  1
  4 12  1  0
  5  6  1  0
  6  3  1  0
  6  7  1  1
  8  6  1  0
  9  5  1  0
  9  1  1  0
 10  1  2  0
 12 11  1  0
 13 21  1  0
 14 19  1  0
 15 16  1  0
 15 14  1  0
 17 16  1  0
 17 26  1  0
 17 18  1  0
 19 13  1  0
 19 18  1  0
 20 13  2  0
 21 12  1  0
 21 22  1  0
 23 24  2  0
 24 43  1  0
 25 24  1  0
 25 28  1  0
 26 27  1  0
 26 23  1  0
 27 25  2  0
 28 29  1  0
 29 30  2  0
 31 34  1  0
 31 30  1  0
 32 31  2  0
 33 32  1  0
 33 28  2  0
 34 35  1  0
 35 36  1  0
 36 37  2  0
 38 37  1  0
 38 42  1  0
 39 38  2  0
 40 35  2  0
 40 39  1  0
 41 40  1  0
 43 44  1  0
 44 47  1  0
 44 46  1  0
 45 43  2  0
 48 49  1  0
 48 23  1  0
 50 48  1  0
 52 51  1  0
 53 64  2  0
 54 52  1  0
 54 59  1  0
 55 63  1  0
 55 65  1  0
 56 62  1  0
 56 58  1  0
 57 63  1  0
 58 59  2  0
 58 57  1  0
 60 54  2  0
 61 60  1  0
 61 56  2  0
 62 55  1  0
 63 53  1  0
 65 67  2  0
 66 65  1  0
 68 66  1  0
 69 78  2  0
 69 74  1  0
 70 66  1  0
 70 74  1  0
 71 70  1  0
 72 73  1  0
 72 71  1  0
 73 69  1  0
 74 75  2  0
 75 76  1  0
 77 76  2  0
 78 77  1  0
 79 53  1  0
 79 80  1  0
 79 89  1  0
 80 83  1  0
 81 85  1  0
 81 80  1  0
 82 81  2  0
 85 84  1  0
 87 85  1  0
 87 88  1  0
 87 86  1  0
 89 92  1  1
 89 90  1  0
 91 89  1  0
M  ISO  4  13 100  21 100  51 101  52 101
M  END
>  <TORSDO>  (70) 
F 18

>  <SCORE>  (70) 
-14.923

>  <name>  (70) 
69

>  <ligand_id>  (70) 
69

>  <original_smiles>  (70) 
[H]c1c([H])c([H])c2c(c1[H])C([H])([H])C([H])([H])C([H])([H])C2([H])N([H])C(=O)C1([H])N(C(=O)C([H])(N([H])C(=O)C([H])(N([H])C([H])([H])[H])C([H])([H])[H])C(C([H])([H])[H])(C([H])([H])[H])C([H])([H])[H])C([H])([H])c2c([H])c(OC([H])([H])C(=O)N3C([H])([H])C4([H])C([H])(C([H])(N([H])C(=O)N5C([H])([H])C([H])([H])C([H])([H])C([H])(n6nc(-c7c([H])c([H])c(Oc8c([H])c([H])c(F)c([H])c8F)c([H])c7[H])c(C(=O)N([H])[H])c6N([H])[H])C5([H])[H])C([H])([H])[H])C3([H])C4(C([H])([H])[H])C([H])([H])[H])c([H])c([H])c2C1([H])[H]

>  <smiles>  (70) 
[H]c1c([H])c([H])c2c(c1[H])C([H])([H])C([H])([H])C([H])([H])C2([H])N([H])C(=O)C1([H])N(C(=O)C([H])(N([H])C(=O)C([H])(N([H])C([H])([H])[H])C([H])([H])[H])C(C([H])([H])[H])(C([H])([H])[H])C([H])([H])[H])C([H])([H])c2c([H])c(OC([H])([H])C(=O)N3C([H])([H])C4([H])C([H])(C([H])(N([H])C(=O)N5C([H])([H])C([H])([H])C([H])([H])C([H])(n6nc(-c7c([H])c([H])c(Oc8c([H])c([H])c(F)c([H])c8F)c([H])c7[H])c(C(=O)N([H])[H])c6N([H])[H])C5([H])[H])C([H])([H])[H])C3([H])C4(C([H])([H])[H])C([H])([H])[H])c([H])c([H])c2C1([H])[H]

$$$$
70:0:0
     RDKit          3D

 86 91  0  0  1  0  0  0  0  0999 V2000
  -28.7800  -21.5480   20.0290 C   0  0  0  0  0  2  0  0  0  0  0  0
  -28.0830  -22.4050   17.6390 C   0  0  0  0  0  2  0  0  0  0  0  0
  -28.5500  -20.9790   17.4650 C   0  0  0  0  0  2  0  0  0  0  0  0
  -27.9370  -21.4190   18.7750 C   0  0  0  0  0  3  0  0  0  0  0  0
  -28.1290  -23.1790   20.6610 N   0  0  0  0  0  2  0  0  0  0  0  0
  -27.1820  -23.0260   21.0010 H   0  0  0  0  0  0  0  0  0  0  0  0
  -28.2200  -25.1450   20.2460 O   0  0  0  0  0  1  0  0  0  0  0  0
  -24.6480  -31.8300   23.1500 C   0  0  0  0  0  0  0  0  0  0  0  0
  -27.2320  -26.4560   20.3260 C   0  0  0  0  0  0  0  0  0  0  0  0
  -23.5020  -30.3870   21.5290 C   0  0  0  0  0  3  0  0  0  0  0  0
  -24.9810  -28.6650   20.1890 C   0  0  0  0  0  0  0  0  0  0  0  0
  -26.0930  -30.4590   21.4730 C   0  0  0  0  0  2  0  0  0  0  0  0
  -26.1710  -28.9800   20.8540 C   0  0  0  0  0  0  0  0  0  0  0  0
  -27.2660  -27.9140   20.8800 C   0  0  0  0  0  3  0  0  0  0  0  0
  -26.0060  -26.4350   19.5860 C   0  0  0  0  0  3  0  0  0  0  0  0
  -24.9540  -27.4210   19.5300 C   0  0  0  0  0  3  0  0  0  0  0  0
  -23.7810  -29.6440   20.1850 C   0  0  0  0  0  2  0  0  0  0  0  0
  -24.7750  -30.9330   22.1020 N   0  0  0  0  0  0  0  0  0  0  0  0
  -23.5400  -32.1440   23.6230 O   0  0  0  0  0  0  0  0  0  0  0  0
  -22.7540  -29.4470   22.5150 C   0  0  0  0  0  0  0  0  0  0  0  0
  -21.4170  -29.3170   22.3950 N   0  0  0  0  0  0  0  0  0  0  0  0
  -23.3950  -28.8240   23.3650 O   0  0  0  0  0  0  0  0  0  0  0  0
  -20.9460  -29.8660   21.6900 H   0  0  0  0  0  0  0  0  0  0  0  0
  -18.0120  -28.1470   22.9470 C   0  0  0  0  0  0  0  0  0  0  0  0
  -20.5800  -28.3920   23.1740 C   0  0  0  0  0  3  0  0  0  0  0  0
  -20.6580  -26.9570   22.6010 C   0  0  0  0  0  2  0  0  0  0  0  0
  -19.5400  -26.6470   21.5990 C   0  0  0  0  0  2  0  0  0  0  0  0
  -18.1680  -26.8010   22.2600 C   0  0  0  0  0  2  0  0  0  0  0  0
  -19.1440  -28.9020   23.3620 C   0  0  0  0  0  0  0  0  0  0  0  0
  -18.9380  -30.1580   23.9720 C   0  0  0  0  0  3  0  0  0  0  0  0
  -17.6370  -30.6620   24.1660 C   0  0  0  0  0  3  0  0  0  0  0  0
  -16.5230  -29.9070   23.7620 C   0  0  0  0  0  3  0  0  0  0  0  0
  -16.7120  -28.6510   23.1600 C   0  0  0  0  0  3  0  0  0  0  0  0
  -25.8850  -32.5150   23.8070 C   0  0  0  0  0  3  0  0  0  0  0  0
  -26.3620  -31.7870   25.1250 C   0  0  1  0  0  0  0  0  0  0  0  0
  -25.2380  -31.5800   26.1690 C   0  0  0  0  0  1  0  0  0  0  0  0
  -26.9630  -30.3990   24.8100 C   0  0  0  0  0  1  0  0  0  0  0  0
  -27.4910  -32.6060   25.7980 C   0  0  0  0  0  1  0  0  0  0  0  0
  -25.5370  -33.9180   24.1210 N   0  0  0  0  0  0  0  0  0  0  0  0
  -25.8790  -34.9870   23.3890 C   0  0  0  0  0  0  0  0  0  0  0  0
  -26.5740  -34.8970   22.3750 O   0  0  0  0  0  0  0  0  0  0  0  0
  -24.9260  -34.0620   24.9100 H   0  0  0  0  0  0  0  0  0  0  0  0
  -24.1580  -36.7930   23.0130 C   0  0  0  0  0  1  0  0  0  0  0  0
  -25.3790  -36.3760   23.8510 C   0  0  0  0  0  3  0  0  0  0  0  0
  -27.4860  -37.2680   24.7470 C   0  0  0  0  0  1  0  0  0  0  0  0
  -26.4100  -37.4360   23.7740 N   0  0  0  0  0  0  0  0  0  0  0  0
  -25.9960  -38.3530   23.9150 H   0  0  0  0  0  0  0  0  0  0  0  0
  -29.2590  -19.5330   20.5710 C   0  0  0  0  0 15  0  0  0  0  0  0
  -30.1110  -16.1570   20.1430 C   0  0  0  0  0  0  0  0  0  0  0  0
  -30.3410  -13.5290   19.2800 C   0  0  0  0  0  2  0  0  0  0  0  0
  -29.4870  -12.9060   18.1250 C   0  0  0  0  0  2  0  0  0  0  0  0
  -28.1210  -12.4270   18.6290 C   0  0  0  0  0  2  0  0  0  0  0  0
  -27.5480  -13.4420   19.6360 C   0  0  0  0  0  3  0  0  0  0  0  0
  -28.5650  -13.9380   20.7040 C   0  0  0  0  0  2  0  0  0  0  0  0
  -29.6310  -14.7240   19.9940 N   0  0  0  0  0  0  0  0  0  0  0  0
  -31.3570  -16.0120   20.0960 O   0  0  0  0  0  0  0  0  0  0  0  0
  -29.3580  -17.6410   20.1580 N   0  0  0  0  0  2  0  0  0  0  0  0
  -28.4010  -17.3860   19.9570 H   0  0  0  0  0  0  0  0  0  0  0  0
  -25.1960  -13.9090   20.4390 C   0  0  0  0  0  0  0  0  0  0  0  0
  -24.1540  -13.1120   20.8110 C   0  0  0  0  0  0  0  0  0  0  0  0
  -24.6480  -11.7700   20.7730 C   0  0  0  0  0  0  0  0  0  0  0  0
  -26.2550  -13.0600   20.1850 N   0  0  0  0  0  0  0  0  0  0  0  0
  -25.9400  -11.7630   20.4500 N   0  0  0  0  0  0  0  0  0  0  0  0
  -23.9380  -10.4960   20.9670 C   0  0  0  0  0  0  0  0  0  0  0  0
  -24.3750   -9.5420   21.9120 C   0  0  0  0  0  3  0  0  0  0  0  0
  -23.6600   -8.3380   22.0980 C   0  0  0  0  0  3  0  0  0  0  0  0
  -22.4920   -8.0800   21.3400 C   0  0  0  0  0  0  0  0  0  0  0  0
  -22.0740   -9.0230   20.3850 C   0  0  0  0  0  3  0  0  0  0  0  0
  -22.7900  -10.2180   20.1970 C   0  0  0  0  0  3  0  0  0  0  0  0
  -21.7490   -6.9280   21.4350 O   0  0  0  0  0  0  0  0  0  0  0  0
  -21.6910   -6.2020   22.5980 C   0  0  0  0  0  0  0  0  0  0  0  0
  -21.2210   -6.7630   23.8060 C   0  0  0  0  0  3  0  0  0  0  0  0
  -21.1130   -5.9620   24.9590 C   0  0  0  0  0  3  0  0  0  0  0  0
  -21.4650   -4.6000   24.9080 C   0  0  0  0  0  0  0  0  0  0  0  0
  -21.9290   -4.0380   23.7040 C   0  0  0  0  0  3  0  0  0  0  0  0
  -22.0390   -4.8360   22.5530 C   0  0  0  0  0  0  0  0  0  0  0  0
  -22.4650   -4.2850   21.3910 F   0  0  0  0  0  0  0  0  0  0  0  0
  -21.3540   -3.8280   26.0140 F   0  0  0  0  0  0  0  0  0  0  0  0
  -22.7500  -13.5680   21.0770 C   0  0  0  0  0  0  0  0  0  0  0  0
  -22.0280  -12.8660   21.9430 N   0  0  0  0  0  0  0  0  0  0  0  0
  -22.3020  -14.5890   20.5560 O   0  0  0  0  0  0  0  0  0  0  0  0
  -22.4030  -12.0420   22.3890 H   0  0  0  0  0  0  0  0  0  0  0  0
  -21.0870  -13.1580   22.1650 H   0  0  0  0  0  0  0  0  0  0  0  0
  -25.3310  -15.2840   20.2580 N   0  0  0  0  0  0  0  0  0  0  0  0
  -24.5550  -15.9250   20.3770 H   0  0  0  0  0  0  0  0  0  0  0  0
  -26.1730  -15.7330   19.9240 H   0  0  0  0  0  0  0  0  0  0  0  0
  1  5  1  0
  2  4  1  0
  3  2  1  0
  3  4  1  0
  4  1  1  0
  5  6  1  0
  7  9  1  0
  8 19  2  0
  9 14  1  0
 10 18  1  0
 10 20  1  0
 11 13  1  0
 12 18  1  0
 13 14  2  0
 13 12  1  0
 15  9  2  0
 16 15  1  0
 16 11  2  0
 17 11  1  0
 17 10  1  0
 18  8  1  0
 20 22  2  0
 21 20  1  0
 23 21  1  0
 24 33  2  0
 24 29  1  0
 25 21  1  0
 25 29  1  0
 26 25  1  0
 27 28  1  0
 27 26  1  0
 28 24  1  0
 29 30  2  0
 30 31  1  0
 32 31  2  0
 33 32  1  0
 34  8  1  0
 34 39  1  0
 34 35  1  0
 35 38  1  1
 35 36  1  0
 37 35  1  0
 39 42  1  0
 40 44  1  0
 40 39  1  0
 41 40  2  0
 44 43  1  0
 46 44  1  0
 46 47  1  0
 46 45  1  0
 49 57  1  0
 50 55  1  0
 51 52  1  0
 51 50  1  0
 53 52  1  0
 53 62  1  0
 53 54  1  0
 55 49  1  0
 55 54  1  0
 56 49  2  0
 58 57  1  0
 59 60  2  0
 60 79  1  0
 61 60  1  0
 61 64  1  0
 62 59  1  0
 62 63  1  0
 63 61  2  0
 64 65  1  0
 65 66  2  0
 67 70  1  0
 67 66  1  0
 68 67  2  0
 69 68  1  0
 69 64  2  0
 70 71  1  0
 71 72  1  0
 72 73  2  0
 74 73  1  0
 74 78  1  0
 75 74  2  0
 76 71  2  0
 76 75  1  0
 77 76  1  0
 79 80  1  0
 80 83  1  0
 80 82  1  0
 81 79  2  0
 84 85  1  0
 84 59  1  0
 86 84  1  0
M  ISO  4   5 101   7 101  49 100  57 100
M  END
>  <TORSDO>  (71) 
F 19

>  <SCORE>  (71) 
-15.909

>  <name>  (71) 
70

>  <ligand_id>  (71) 
70

>  <original_smiles>  (71) 
[H]c1c([H])c([H])c2c(c1[H])C([H])([H])C([H])([H])C([H])([H])C2([H])N([H])C(=O)C1([H])N(C(=O)C([H])(N([H])C(=O)C([H])(N([H])C([H])([H])[H])C([H])([H])[H])C(C([H])([H])[H])(C([H])([H])[H])C([H])([H])[H])C([H])([H])c2c([H])c(ON([H])C([H])(C([H])([H])N([H])C(=O)N3C([H])([H])C([H])([H])C([H])([H])C([H])(n4nc(-c5c([H])c([H])c(Oc6c([H])c([H])c(F)c([H])c6F)c([H])c5[H])c(C(=O)N([H])[H])c4N([H])[H])C3([H])[H])C3([H])C([H])([H])C3([H])[H])c([H])c([H])c2C1([H])[H]

>  <smiles>  (71) 
[H]c1c([H])c([H])c2c(c1[H])C([H])([H])C([H])([H])C([H])([H])C2([H])N([H])C(=O)C1([H])N(C(=O)C([H])(N([H])C(=O)C([H])(N([H])C([H])([H])[H])C([H])([H])[H])C(C([H])([H])[H])(C([H])([H])[H])C([H])([H])[H])C([H])([H])c2c([H])c(ON([H])C([H])(C([H])([H])N([H])C(=O)N3C([H])([H])C([H])([H])C([H])([H])C([H])(n4nc(-c5c([H])c([H])c(Oc6c([H])c([H])c(F)c([H])c6F)c([H])c5[H])c(C(=O)N([H])[H])c4N([H])[H])C3([H])[H])C3([H])C([H])([H])C3([H])[H])c([H])c([H])c2C1([H])[H]

$$$$
71:0:0
     RDKit          3D

 91100  0  0  1  0  0  0  0  0999 V2000
  -30.3680  -19.3910   21.8990 C   0  0  0  0  0  2  0  0  0  0  0  0
  -30.6490  -21.9660   21.0580 C   0  0  0  0  0  2  0  0  0  0  0  0
  -28.4990  -21.3010   20.3890 C   0  0  0  0  0  2  0  0  0  0  0  0
  -29.4620  -18.6010   20.9230 C   0  0  0  0  0  3  0  0  0  0  0  0
  -30.6860  -20.4360   20.7970 C   0  0  0  0  0  3  0  0  0  0  0  0
  -29.3950  -20.0120   20.1250 C   0  0  0  0  0  3  0  0  0  0  0  0
  -29.4240  -22.5090   20.3880 N   0  0  1  0  0  4  0  0  0  0  0  0
  -29.7000  -22.6400   19.4240 H   0  0  0  0  0  0  0  0  0  0  0  0
  -30.6420  -14.8260   20.3240 C   0  0  0  0  0  0  0  0  0  0  0  0
  -30.4380  -12.5400   19.3420 C   0  0  0  0  0  2  0  0  0  0  0  0
  -29.5200  -12.6120   18.1030 C   0  0  0  0  0  2  0  0  0  0  0  0
  -28.0470  -12.4350   18.5160 C   0  0  0  0  0  2  0  0  0  0  0  0
  -27.6590  -13.3260   19.7250 C   0  0  0  0  0  3  0  0  0  0  0  0
  -28.7050  -13.2550   20.8610 C   0  0  0  0  0  2  0  0  0  0  0  0
  -30.0080  -13.6010   20.2860 N   0  0  0  0  0  0  0  0  0  0  0  0
  -31.8200  -14.8750   19.9570 O   0  0  0  0  0  0  0  0  0  0  0  0
  -30.2220  -17.3090   20.3140 C   0  0  0  0  0  0  0  0  0  0  0  0
  -29.9100  -15.9830   20.6160 N   0  0  0  0  0  0  0  0  0  0  0  0
  -31.1280  -17.5720   19.5160 O   0  0  0  0  0  0  0  0  0  0  0  0
  -29.0370  -15.8380   21.0980 H   0  0  0  0  0  0  0  0  0  0  0  0
  -25.2610  -13.9050   20.4250 C   0  0  0  0  0  0  0  0  0  0  0  0
  -24.1980  -13.1270   20.7950 C   0  0  0  0  0  0  0  0  0  0  0  0
  -24.6720  -11.7790   20.7840 C   0  0  0  0  0  0  0  0  0  0  0  0
  -26.3120  -13.0310   20.2050 N   0  0  0  0  0  0  0  0  0  0  0  0
  -25.9660  -11.7480   20.4870 N   0  0  0  0  0  0  0  0  0  0  0  0
  -23.9530  -10.5140   20.9840 C   0  0  0  0  0  0  0  0  0  0  0  0
  -24.3840   -9.5600   21.9320 C   0  0  0  0  0  3  0  0  0  0  0  0
  -23.6640   -8.3600   22.1180 C   0  0  0  0  0  3  0  0  0  0  0  0
  -22.4990   -8.1050   21.3560 C   0  0  0  0  0  0  0  0  0  0  0  0
  -22.0870   -9.0480   20.3970 C   0  0  0  0  0  3  0  0  0  0  0  0
  -22.8080  -10.2390   20.2100 C   0  0  0  0  0  3  0  0  0  0  0  0
  -21.7490   -6.9570   21.4510 O   0  0  0  0  0  0  0  0  0  0  0  0
  -21.6950   -6.2280   22.6120 C   0  0  0  0  0  0  0  0  0  0  0  0
  -21.2480   -6.7920   23.8270 C   0  0  0  0  0  3  0  0  0  0  0  0
  -21.1410   -5.9880   24.9800 C   0  0  0  0  0  3  0  0  0  0  0  0
  -21.4720   -4.6200   24.9190 C   0  0  0  0  0  0  0  0  0  0  0  0
  -21.9130   -4.0560   23.7090 C   0  0  0  0  0  3  0  0  0  0  0  0
  -22.0210   -4.8580   22.5580 C   0  0  0  0  0  0  0  0  0  0  0  0
  -22.4260   -4.3030   21.3900 F   0  0  0  0  0  0  0  0  0  0  0  0
  -21.3630   -3.8470   26.0230 F   0  0  0  0  0  0  0  0  0  0  0  0
  -22.7940  -13.5980   21.0470 C   0  0  0  0  0  0  0  0  0  0  0  0
  -22.0620  -12.9030   21.9110 N   0  0  0  0  0  0  0  0  0  0  0  0
  -22.3560  -14.6150   20.5140 O   0  0  0  0  0  0  0  0  0  0  0  0
  -22.4290  -12.0800   22.3640 H   0  0  0  0  0  0  0  0  0  0  0  0
  -21.1200  -13.2010   22.1240 H   0  0  0  0  0  0  0  0  0  0  0  0
  -25.4150  -15.2730   20.2300 N   0  0  0  0  0  0  0  0  0  0  0  0
  -24.6380  -15.9200   20.3180 H   0  0  0  0  0  0  0  0  0  0  0  0
  -26.2520  -15.7110   19.8660 H   0  0  0  0  0  0  0  0  0  0  0  0
  -28.9920  -23.9030   20.9140 C   0  0  0  0  0  2  0  0  0  0  0  0
  -28.3850  -25.0260   19.9270 C   0  0  0  0  0  2  0  0  0  0  0  0
  -28.4020  -26.4820   20.3210 O   0  0  0  0  0  0  0  0  0  0  0  0
  -24.6100  -31.9080   23.2440 C   0  0  0  0  0  0  0  0  0  0  0  0
  -27.2790  -27.3370   20.2140 C   0  0  0  0  0  0  0  0  0  0  0  0
  -23.4340  -30.5100   21.5850 C   0  0  0  0  0  3  0  0  0  0  0  0
  -24.9090  -28.9670   20.1720 C   0  0  0  0  0  0  0  0  0  0  0  0
  -25.9780  -30.8290   21.4390 C   0  0  0  0  0  2  0  0  0  0  0  0
  -26.0690  -29.4500   20.7890 C   0  0  0  0  0  0  0  0  0  0  0  0
  -27.2530  -28.6470   20.8030 C   0  0  0  0  0  3  0  0  0  0  0  0
  -26.0990  -26.9300   19.5490 C   0  0  0  0  0  3  0  0  0  0  0  0
  -24.9310  -27.7160   19.5410 C   0  0  0  0  0  3  0  0  0  0  0  0
  -23.6680  -29.8360   20.2070 C   0  0  0  0  0  2  0  0  0  0  0  0
  -24.6920  -31.1010   22.1450 N   0  0  0  0  0  0  0  0  0  0  0  0
  -23.5180  -32.1800   23.7640 O   0  0  0  0  0  0  0  0  0  0  0  0
  -22.7620  -29.4890   22.5350 C   0  0  0  0  0  0  0  0  0  0  0  0
  -21.4370  -29.3120   22.3970 N   0  0  0  0  0  0  0  0  0  0  0  0
  -23.4340  -28.8580   23.3570 O   0  0  0  0  0  0  0  0  0  0  0  0
  -20.9540  -29.8750   21.7100 H   0  0  0  0  0  0  0  0  0  0  0  0
  -18.0560  -28.1170   22.8770 C   0  0  0  0  0  0  0  0  0  0  0  0
  -20.6150  -28.3670   23.1540 C   0  0  0  0  0  3  0  0  0  0  0  0
  -20.7120  -26.9390   22.5650 C   0  0  0  0  0  2  0  0  0  0  0  0
  -19.6100  -26.6320   21.5450 C   0  0  0  0  0  2  0  0  0  0  0  0
  -18.2290  -26.7760   22.1870 C   0  0  0  0  0  2  0  0  0  0  0  0
  -19.1760  -28.8720   23.3170 C   0  0  0  0  0  0  0  0  0  0  0  0
  -18.9590  -30.1290   23.9200 C   0  0  0  0  0  3  0  0  0  0  0  0
  -17.6560  -30.6320   24.0890 C   0  0  0  0  0  3  0  0  0  0  0  0
  -16.5510  -29.8750   23.6620 C   0  0  0  0  0  3  0  0  0  0  0  0
  -16.7520  -28.6190   23.0630 C   0  0  0  0  0  3  0  0  0  0  0  0
  -25.8810  -32.5470   23.8840 C   0  0  0  0  0  3  0  0  0  0  0  0
  -25.5650  -33.9470   24.2000 N   0  0  0  0  0  0  0  0  0  0  0  0
  -25.9060  -34.9970   23.4400 C   0  0  0  0  0  0  0  0  0  0  0  0
  -26.5890  -34.8880   22.4180 O   0  0  0  0  0  0  0  0  0  0  0  0
  -24.9570  -34.1050   24.9900 H   0  0  0  0  0  0  0  0  0  0  0  0
  -24.1820  -36.7880   23.0510 C   0  0  0  0  0  1  0  0  0  0  0  0
  -25.4110  -36.3880   23.8830 C   0  0  0  0  0  3  0  0  0  0  0  0
  -27.5330  -37.2790   24.7420 C   0  0  0  0  0  1  0  0  0  0  0  0
  -26.4450  -37.4410   23.7790 N   0  0  0  0  0  0  0  0  0  0  0  0
  -26.0390  -38.3630   23.9120 H   0  0  0  0  0  0  0  0  0  0  0  0
  -26.3740  -31.7850   25.1750 C   0  0  1  0  0  0  0  0  0  0  0  0
  -25.2600  -31.5560   26.2240 C   0  0  0  0  0  1  0  0  0  0  0  0
  -26.9650  -30.4040   24.8070 C   0  0  0  0  0  1  0  0  0  0  0  0
  -27.5130  -32.5850   25.8520 C   0  0  0  0  0  1  0  0  0  0  0  0
  4 17  1  0
  4  1  1  0
  5  2  1  0
  5  1  1  0
  6  3  1  0
  6  5  1  0
  6  4  1  0
  7  3  1  0
  7 49  1  0
  7  2  1  0
  7  8  1  6
  9 18  1  0
 10 15  1  0
 11 12  1  0
 11 10  1  0
 13 12  1  0
 13 24  1  0
 13 14  1  0
 15  9  1  0
 15 14  1  0
 16  9  2  0
 17 18  1  0
 18 20  1  0
 19 17  2  0
 21 22  2  0
 22 41  1  0
 23 22  1  0
 23 26  1  0
 24 21  1  0
 24 25  1  0
 25 23  2  0
 26 27  1  0
 27 28  2  0
 29 32  1  0
 29 28  1  0
 30 29  2  0
 31 30  1  0
 31 26  2  0
 32 33  1  0
 33 34  1  0
 34 35  2  0
 36 35  1  0
 36 40  1  0
 37 36  2  0
 38 33  2  0
 38 37  1  0
 39 38  1  0
 41 42  1  0
 42 45  1  0
 42 44  1  0
 43 41  2  0
 46 47  1  0
 46 21  1  0
 48 46  1  0
 50 51  1  0
 50 49  1  0
 52 63  2  0
 53 51  1  0
 53 58  1  0
 54 62  1  0
 54 64  1  0
 55 61  1  0
 55 57  1  0
 56 62  1  0
 57 58  2  0
 57 56  1  0
 59 53  2  0
 60 59  1  0
 60 55  2  0
 61 54  1  0
 62 52  1  0
 64 66  2  0
 65 64  1  0
 67 65  1  0
 68 77  2  0
 68 73  1  0
 69 65  1  0
 69 73  1  0
 70 69  1  0
 71 72  1  0
 71 70  1  0
 72 68  1  0
 73 74  2  0
 74 75  1  0
 76 75  2  0
 77 76  1  0
 78 52  1  0
 78 79  1  0
 78 88  1  0
 79 82  1  0
 80 84  1  0
 80 79  1  0
 81 80  2  0
 84 83  1  0
 86 84  1  0
 86 87  1  0
 86 85  1  0
 88 91  1  1
 88 89  1  0
 90 88  1  0
M  ISO  4   9 100  18 100  50 101  51 101
M  END
>  <TORSDO>  (72) 
F 18

>  <SCORE>  (72) 
-14.456

>  <name>  (72) 
71

>  <ligand_id>  (72) 
71

>  <original_smiles>  (72) 
[H]c1c([H])c([H])c2c(c1[H])C([H])([H])C([H])([H])C([H])([H])C2([H])N([H])C(=O)C1([H])N(C(=O)C([H])(N([H])C(=O)C([H])(N([H])C([H])([H])[H])C([H])([H])[H])C(C([H])([H])[H])(C([H])([H])[H])C([H])([H])[H])C([H])([H])c2c([H])c(OC([H])([H])C([H])([H])[N+]3([H])C([H])([H])C4([H])C([H])([H])C([H])(C(=O)N([H])C(=O)N5C([H])([H])C([H])([H])C([H])([H])C([H])(n6nc(-c7c([H])c([H])c(Oc8c([H])c([H])c(F)c([H])c8F)c([H])c7[H])c(C(=O)N([H])[H])c6N([H])[H])C5([H])[H])C4([H])C3([H])[H])c([H])c([H])c2C1([H])[H]

>  <smiles>  (72) 
[H]c1c([H])c([H])c2c(c1[H])C([H])([H])C([H])([H])C([H])([H])C2([H])N([H])C(=O)C1([H])N(C(=O)C([H])(N([H])C(=O)C([H])(N([H])C([H])([H])[H])C([H])([H])[H])C(C([H])([H])[H])(C([H])([H])[H])C([H])([H])[H])C([H])([H])c2c([H])c(OC([H])([H])C([H])([H])[N+]3([H])C([H])([H])C4([H])C([H])([H])C([H])(C(=O)N([H])C(=O)N5C([H])([H])C([H])([H])C([H])([H])C([H])(n6nc(-c7c([H])c([H])c(Oc8c([H])c([H])c(F)c([H])c8F)c([H])c7[H])c(C(=O)N([H])[H])c6N([H])[H])C5([H])[H])C4([H])C3([H])[H])c([H])c([H])c2C1([H])[H]

$$$$
72:0:0
     RDKit          3D

 91100  0  0  1  0  0  0  0  0999 V2000
  -29.0940  -22.3680   20.8080 N   0  0  0  0  0  4  0  0  0  0  0  0
  -30.0230  -22.5500   21.1520 H   0  0  0  0  0  0  0  0  0  0  0  0
  -28.4960  -22.4360   21.6170 H   0  0  0  0  0  0  0  0  0  0  0  0
  -31.0210  -20.3270   20.7460 C   0  0  0  0  0  2  0  0  0  0  0  0
  -29.5270  -18.3060   21.5010 C   0  0  0  0  0  2  0  0  0  0  0  0
  -29.9770  -18.5630   19.1050 C   0  0  0  0  0  2  0  0  0  0  0  0
  -29.7410  -19.8860   21.4910 C   0  0  0  0  0  3  0  0  0  0  0  0
  -30.1250  -20.1190   19.5120 C   0  0  0  0  0  3  0  0  0  0  0  0
  -30.2360  -17.5530   20.3070 C   0  0  0  0  0  3  0  0  0  0  0  0
  -29.0300  -20.8390   20.4280 C   0  0  0  0  0  3  0  0  0  0  0  0
  -30.7440  -14.9200   19.9380 C   0  0  0  0  0  0  0  0  0  0  0  0
  -30.5670  -12.6100   18.9630 C   0  0  0  0  0  2  0  0  0  0  0  0
  -29.5580  -12.6190   17.7910 C   0  0  0  0  0  2  0  0  0  0  0  0
  -28.1190  -12.4140   18.3080 C   0  0  0  0  0  2  0  0  0  0  0  0
  -27.7890  -13.3170   19.5250 C   0  0  0  0  0  3  0  0  0  0  0  0
  -28.9090  -13.2790   20.5870 C   0  0  0  0  0  2  0  0  0  0  0  0
  -30.1540  -13.6710   19.9120 N   0  0  0  0  0  0  0  0  0  0  0  0
  -31.9190  -15.0390   19.5780 O   0  0  0  0  0  0  0  0  0  0  0  0
  -29.9400  -16.0370   20.1780 N   0  0  0  0  0  0  0  0  0  0  0  0
  -28.9820  -15.7910   20.3760 H   0  0  0  0  0  0  0  0  0  0  0  0
  -25.4590  -13.8820   20.4310 C   0  0  0  0  0  0  0  0  0  0  0  0
  -24.4180  -13.0960   20.8450 C   0  0  0  0  0  0  0  0  0  0  0  0
  -24.8750  -11.7460   20.7370 C   0  0  0  0  0  0  0  0  0  0  0  0
  -26.4820  -13.0110   20.0960 N   0  0  0  0  0  0  0  0  0  0  0  0
  -26.1430  -11.7190   20.3440 N   0  0  0  0  0  0  0  0  0  0  0  0
  -24.1590  -10.4790   20.9300 C   0  0  0  0  0  0  0  0  0  0  0  0
  -24.5870   -9.5260   21.8800 C   0  0  0  0  0  3  0  0  0  0  0  0
  -23.8700   -8.3230   22.0600 C   0  0  0  0  0  3  0  0  0  0  0  0
  -22.7110   -8.0650   21.2900 C   0  0  0  0  0  0  0  0  0  0  0  0
  -22.3020   -9.0070   20.3290 C   0  0  0  0  0  3  0  0  0  0  0  0
  -23.0200  -10.2010   20.1470 C   0  0  0  0  0  3  0  0  0  0  0  0
  -21.9660   -6.9140   21.3780 O   0  0  0  0  0  0  0  0  0  0  0  0
  -21.8220   -6.2390   22.5630 C   0  0  0  0  0  0  0  0  0  0  0  0
  -21.2500   -6.8470   23.7020 C   0  0  0  0  0  3  0  0  0  0  0  0
  -21.0580   -6.0960   24.8790 C   0  0  0  0  0  3  0  0  0  0  0  0
  -21.4260   -4.7390   24.9170 C   0  0  0  0  0  0  0  0  0  0  0  0
  -21.9920   -4.1300   23.7830 C   0  0  0  0  0  3  0  0  0  0  0  0
  -22.1860   -4.8790   22.6080 C   0  0  0  0  0  0  0  0  0  0  0  0
  -22.7110   -4.2810   21.5110 F   0  0  0  0  0  0  0  0  0  0  0  0
  -21.2350   -4.0140   26.0450 F   0  0  0  0  0  0  0  0  0  0  0  0
  -23.0420  -13.5640   21.2190 C   0  0  0  0  0  0  0  0  0  0  0  0
  -22.3680  -12.8380   22.1040 N   0  0  0  0  0  0  0  0  0  0  0  0
  -22.5770  -14.6090   20.7650 O   0  0  0  0  0  0  0  0  0  0  0  0
  -22.7590  -11.9930   22.4920 H   0  0  0  0  0  0  0  0  0  0  0  0
  -21.4470  -13.1320   22.3970 H   0  0  0  0  0  0  0  0  0  0  0  0
  -25.6120  -15.2580   20.2880 N   0  0  0  0  0  0  0  0  0  0  0  0
  -24.8460  -15.9000   20.4580 H   0  0  0  0  0  0  0  0  0  0  0  0
  -26.4180  -15.7070   19.8720 H   0  0  0  0  0  0  0  0  0  0  0  0
  -28.6900  -23.5900   19.9320 C   0  0  0  0  0  2  0  0  0  0  0  0
  -28.2790  -24.9950   20.6960 C   0  0  0  0  0  2  0  0  0  0  0  0
  -28.4140  -26.4120   20.1550 O   0  0  0  0  0  0  0  0  0  0  0  0
  -24.6360  -31.8900   23.1900 C   0  0  0  0  0  0  0  0  0  0  0  0
  -27.3060  -27.3000   20.1590 C   0  0  0  0  0  0  0  0  0  0  0  0
  -23.4610  -30.4850   21.5370 C   0  0  0  0  0  3  0  0  0  0  0  0
  -24.9380  -28.9390   20.1220 C   0  0  0  0  0  0  0  0  0  0  0  0
  -26.0040  -30.8120   21.3770 C   0  0  0  0  0  2  0  0  0  0  0  0
  -26.1020  -29.4270   20.7280 C   0  0  0  0  0  0  0  0  0  0  0  0
  -27.2920  -28.6230   20.7270 C   0  0  0  0  0  3  0  0  0  0  0  0
  -26.1170  -26.8800   19.5280 C   0  0  0  0  0  3  0  0  0  0  0  0
  -24.9530  -27.6750   19.5080 C   0  0  0  0  0  3  0  0  0  0  0  0
  -23.6960  -29.8110   20.1580 C   0  0  0  0  0  2  0  0  0  0  0  0
  -24.7190  -31.0820   22.0900 N   0  0  0  0  0  0  0  0  0  0  0  0
  -23.5450  -32.1570   23.7150 O   0  0  0  0  0  0  0  0  0  0  0  0
  -22.7960  -29.4630   22.4910 C   0  0  0  0  0  0  0  0  0  0  0  0
  -21.4690  -29.2860   22.3660 N   0  0  0  0  0  0  0  0  0  0  0  0
  -23.4740  -28.8310   23.3050 O   0  0  0  0  0  0  0  0  0  0  0  0
  -20.9790  -29.8470   21.6830 H   0  0  0  0  0  0  0  0  0  0  0  0
  -18.0900  -28.0930   22.8790 C   0  0  0  0  0  0  0  0  0  0  0  0
  -20.6520  -28.3400   23.1290 C   0  0  0  0  0  3  0  0  0  0  0  0
  -20.7430  -26.9170   22.5310 C   0  0  0  0  0  2  0  0  0  0  0  0
  -19.6320  -26.6140   21.5220 C   0  0  0  0  0  2  0  0  0  0  0  0
  -18.2560  -26.7530   22.1800 C   0  0  0  0  0  2  0  0  0  0  0  0
  -19.2160  -28.8440   23.3100 C   0  0  0  0  0  0  0  0  0  0  0  0
  -19.0060  -30.0970   23.9260 C   0  0  0  0  0  3  0  0  0  0  0  0
  -17.7050  -30.6000   24.1130 C   0  0  0  0  0  3  0  0  0  0  0  0
  -16.5940  -29.8450   23.6980 C   0  0  0  0  0  3  0  0  0  0  0  0
  -16.7880  -28.5930   23.0870 C   0  0  0  0  0  3  0  0  0  0  0  0
  -25.9060  -32.5360   23.8250 C   0  0  0  0  0  3  0  0  0  0  0  0
  -26.4220  -31.7630   25.1020 C   0  0  1  0  0  0  0  0  0  0  0  0
  -25.3230  -31.5020   26.1580 C   0  0  0  0  0  1  0  0  0  0  0  0
  -27.0300  -30.3980   24.7070 C   0  0  0  0  0  1  0  0  0  0  0  0
  -27.5540  -32.5700   25.7800 C   0  0  0  0  0  1  0  0  0  0  0  0
  -25.5750  -33.9290   24.1660 N   0  0  0  0  0  0  0  0  0  0  0  0
  -25.9010  -34.9940   23.4210 C   0  0  0  0  0  0  0  0  0  0  0  0
  -26.5780  -34.9080   22.3940 O   0  0  0  0  0  0  0  0  0  0  0  0
  -24.9730  -34.0670   24.9630 H   0  0  0  0  0  0  0  0  0  0  0  0
  -24.1610  -36.7770   23.0690 C   0  0  0  0  0  1  0  0  0  0  0  0
  -25.3950  -36.3730   23.8900 C   0  0  0  0  0  3  0  0  0  0  0  0
  -27.5070  -37.2700   24.7640 C   0  0  0  0  0  1  0  0  0  0  0  0
  -26.4200  -37.4360   23.8040 N   0  0  0  0  0  0  0  0  0  0  0  0
  -26.0020  -38.3510   23.9530 H   0  0  0  0  0  0  0  0  0  0  0  0
  1  2  1  0
  1  3  1  0
  6  9  1  0
  7  4  1  0
  7  5  1  0
  8  6  1  0
  8 10  1  0
  8  4  1  0
  9 19  1  0
  9  5  1  0
 10  1  1  0
 10  7  1  0
 11 19  1  0
 12 17  1  0
 13 14  1  0
 13 12  1  0
 15 14  1  0
 15 24  1  0
 15 16  1  0
 17 11  1  0
 17 16  1  0
 18 11  2  0
 19 20  1  0
 21 22  2  0
 22 41  1  0
 23 22  1  0
 23 26  1  0
 24 25  1  0
 24 21  1  0
 25 23  2  0
 26 27  1  0
 27 28  2  0
 29 32  1  0
 29 28  1  0
 30 29  2  0
 31 30  1  0
 31 26  2  0
 32 33  1  0
 33 38  2  0
 33 34  1  0
 34 35  2  0
 35 36  1  0
 36 40  1  0
 37 36  2  0
 38 37  1  0
 39 38  1  0
 41 42  1  0
 42 45  1  0
 42 44  1  0
 43 41  2  0
 46 21  1  0
 46 47  1  0
 48 46  1  0
 49 50  1  0
 49  1  1  0
 51 53  1  0
 51 50  1  0
 52 63  2  0
 53 58  1  0
 54 62  1  0
 54 64  1  0
 55 61  1  0
 55 57  1  0
 56 62  1  0
 57 56  1  0
 58 57  2  0
 59 53  2  0
 60 59  1  0
 60 55  2  0
 61 54  1  0
 62 52  1  0
 64 66  2  0
 65 64  1  0
 67 65  1  0
 68 77  2  0
 68 73  1  0
 69 65  1  0
 69 73  1  0
 70 69  1  0
 71 72  1  0
 71 70  1  0
 72 68  1  0
 73 74  2  0
 74 75  1  0
 76 75  2  0
 77 76  1  0
 78 52  1  0
 78 83  1  0
 78 79  1  0
 79 82  1  1
 79 80  1  0
 81 79  1  0
 83 86  1  0
 84 88  1  0
 84 83  1  0
 85 84  2  0
 88 87  1  0
 90 88  1  0
 90 91  1  0
 90 89  1  0
M  ISO  4  11 100  19 100  50 101  51 101
M  END
>  <TORSDO>  (73) 
F 19

>  <SCORE>  (73) 
-13.372

>  <name>  (73) 
72

>  <ligand_id>  (73) 
72

>  <original_smiles>  (73) 
[H]c1c([H])c([H])c2c(c1[H])C([H])([H])C([H])([H])C([H])([H])C2([H])N([H])C(=O)C1([H])N(C(=O)C([H])(N([H])C(=O)C([H])(N([H])C([H])([H])[H])C([H])([H])[H])C(C([H])([H])[H])(C([H])([H])[H])C([H])([H])[H])C([H])([H])c2c([H])c(OC([H])([H])C([H])([H])[N+]([H])([H])C3([H])C4([H])C([H])([H])C([H])(N([H])C(=O)N5C([H])([H])C([H])([H])C([H])([H])C([H])(n6nc(-c7c([H])c([H])c(Oc8c([H])c([H])c(F)c([H])c8F)c([H])c7[H])c(C(=O)N([H])[H])c6N([H])[H])C5([H])[H])C([H])([H])C3([H])C4([H])[H])c([H])c([H])c2C1([H])[H]

>  <smiles>  (73) 
[H]c1c([H])c([H])c2c(c1[H])C([H])([H])C([H])([H])C([H])([H])C2([H])N([H])C(=O)C1([H])N(C(=O)C([H])(N([H])C(=O)C([H])(N([H])C([H])([H])[H])C([H])([H])[H])C(C([H])([H])[H])(C([H])([H])[H])C([H])([H])[H])C([H])([H])c2c([H])c(OC([H])([H])C([H])([H])[N+]([H])([H])C3([H])C4([H])C([H])([H])C([H])(N([H])C(=O)N5C([H])([H])C([H])([H])C([H])([H])C([H])(n6nc(-c7c([H])c([H])c(Oc8c([H])c([H])c(F)c([H])c8F)c([H])c7[H])c(C(=O)N([H])[H])c6N([H])[H])C5([H])[H])C([H])([H])C3([H])C4([H])[H])c([H])c([H])c2C1([H])[H]

$$$$
73:0:0
     RDKit          3D

 92101  0  0  1  0  0  0  0  0999 V2000
  -28.4300  -22.9200   20.0380 C   0  0  0  0  0  3  0  0  0  0  0  0
  -28.8180  -21.3500   20.7780 C   0  0  0  0  0  2  0  0  0  0  0  0
  -28.9390  -19.6880   20.1540 C   0  0  0  0  0  2  0  0  0  0  0  0
  -30.4920  -15.3360   20.2880 C   0  0  0  0  0  0  0  0  0  0  0  0
  -30.3790  -12.9270   19.3430 C   0  0  0  0  0  2  0  0  0  0  0  0
  -29.4540  -12.6690   18.1360 C   0  0  0  0  0  2  0  0  0  0  0  0
  -28.0170  -12.3880   18.6060 C   0  0  0  0  0  2  0  0  0  0  0  0
  -27.5610  -13.3680   19.7170 C   0  0  0  0  0  3  0  0  0  0  0  0
  -28.6250  -13.5750   20.8180 C   0  0  0  0  0  2  0  0  0  0  0  0
  -29.8250  -14.0860   20.1360 N   0  0  0  0  0  0  0  0  0  0  0  0
  -31.7220  -15.1600   20.2460 O   0  0  0  0  0  0  0  0  0  0  0  0
  -32.6030  -18.1330   20.3790 C   0  0  0  0  0  2  0  0  0  0  0  0
  -30.6230  -17.1820   18.7920 C   0  0  0  0  0  2  0  0  0  0  0  0
  -31.7220  -18.1890   19.1370 C   0  0  0  0  0  3  0  0  0  0  0  0
  -31.2900  -18.8570   20.3970 C   0  0  0  0  0  3  0  0  0  0  0  0
  -29.9090  -18.2710   20.6500 C   0  0  0  0  0  3  0  0  0  0  0  0
  -29.9290  -16.7060   20.0160 N   0  0  0  0  0  0  0  0  0  0  0  0
  -25.2100  -13.9050   20.5420 C   0  0  0  0  0  0  0  0  0  0  0  0
  -24.1590  -13.1180   20.9180 C   0  0  0  0  0  0  0  0  0  0  0  0
  -24.6280  -11.7690   20.8560 C   0  0  0  0  0  0  0  0  0  0  0  0
  -26.2490  -13.0350   20.2570 N   0  0  0  0  0  0  0  0  0  0  0  0
  -25.9140  -11.7460   20.5200 N   0  0  0  0  0  0  0  0  0  0  0  0
  -23.9060  -10.5030   21.0380 C   0  0  0  0  0  0  0  0  0  0  0  0
  -24.3450   -9.5280   21.9610 C   0  0  0  0  0  3  0  0  0  0  0  0
  -23.6190   -8.3290   22.1350 C   0  0  0  0  0  3  0  0  0  0  0  0
  -22.4380   -8.0980   21.3870 C   0  0  0  0  0  0  0  0  0  0  0  0
  -22.0210   -9.0620   20.4530 C   0  0  0  0  0  3  0  0  0  0  0  0
  -22.7470  -10.2520   20.2770 C   0  0  0  0  0  3  0  0  0  0  0  0
  -21.6830   -6.9530   21.4700 O   0  0  0  0  0  0  0  0  0  0  0  0
  -21.6350   -6.2050   22.6180 C   0  0  0  0  0  0  0  0  0  0  0  0
  -21.1900   -6.7490   23.8430 C   0  0  0  0  0  3  0  0  0  0  0  0
  -21.0850   -5.9250   24.9810 C   0  0  0  0  0  3  0  0  0  0  0  0
  -21.4220   -4.5610   24.8970 C   0  0  0  0  0  0  0  0  0  0  0  0
  -21.8590   -4.0160   23.6760 C   0  0  0  0  0  3  0  0  0  0  0  0
  -21.9630   -4.8370   22.5390 C   0  0  0  0  0  0  0  0  0  0  0  0
  -22.3660   -4.3050   21.3600 F   0  0  0  0  0  0  0  0  0  0  0  0
  -21.3160   -3.7660   25.9860 F   0  0  0  0  0  0  0  0  0  0  0  0
  -22.7660  -13.5870   21.2140 C   0  0  0  0  0  0  0  0  0  0  0  0
  -22.0480  -12.8760   22.0730 N   0  0  0  0  0  0  0  0  0  0  0  0
  -22.3250  -14.6230   20.7130 O   0  0  0  0  0  0  0  0  0  0  0  0
  -22.4270  -12.0430   22.4980 H   0  0  0  0  0  0  0  0  0  0  0  0
  -21.1070  -13.1690   22.3020 H   0  0  0  0  0  0  0  0  0  0  0  0
  -25.3640  -15.2800   20.3910 N   0  0  0  0  0  0  0  0  0  0  0  0
  -24.5890  -15.9180   20.5380 H   0  0  0  0  0  0  0  0  0  0  0  0
  -26.2040  -15.7470   20.0790 H   0  0  0  0  0  0  0  0  0  0  0  0
  -27.3970  -22.7210   18.9000 C   0  0  0  0  0  2  0  0  0  0  0  0
  -26.1060  -22.1740   19.3560 N   0  0  0  0  0  4  0  0  0  0  0  0
  -25.9600  -22.3280   20.3360 H   0  0  0  0  0  0  0  0  0  0  0  0
  -26.0650  -21.1930   19.1570 H   0  0  0  0  0  0  0  0  0  0  0  0
  -25.3570  -22.6120   18.8510 H   0  0  0  0  0  0  0  0  0  0  0  0
  -28.0480  -24.4910   20.7550 C   0  0  0  0  0  2  0  0  0  0  0  0
  -28.2110  -26.0300   20.2800 O   0  0  0  0  0  0  0  0  0  0  0  0
  -24.5980  -31.9090   23.1710 C   0  0  0  0  0  0  0  0  0  0  0  0
  -27.1740  -27.0700   20.2550 C   0  0  0  0  0  0  0  0  0  0  0  0
  -23.4040  -30.4910   21.5460 C   0  0  0  0  0  3  0  0  0  0  0  0
  -24.8640  -28.8920   20.1490 C   0  0  0  0  0  0  0  0  0  0  0  0
  -25.9650  -30.7410   21.3860 C   0  0  0  0  0  2  0  0  0  0  0  0
  -26.0460  -29.3280   20.7620 C   0  0  0  0  0  0  0  0  0  0  0  0
  -27.2030  -28.4400   20.7850 C   0  0  0  0  0  3  0  0  0  0  0  0
  -25.9650  -26.7570   19.6070 C   0  0  0  0  0  3  0  0  0  0  0  0
  -24.8400  -27.6230   19.5530 C   0  0  0  0  0  3  0  0  0  0  0  0
  -23.6400  -29.7990   20.1740 C   0  0  0  0  0  2  0  0  0  0  0  0
  -24.6790  -31.0750   22.0870 N   0  0  0  0  0  0  0  0  0  0  0  0
  -23.5060  -32.1980   23.6910 O   0  0  0  0  0  0  0  0  0  0  0  0
  -22.7260  -29.4950   22.5200 C   0  0  0  0  0  0  0  0  0  0  0  0
  -21.3940  -29.3270   22.4030 N   0  0  0  0  0  0  0  0  0  0  0  0
  -23.4040  -28.8770   23.3470 O   0  0  0  0  0  0  0  0  0  0  0  0
  -20.9110  -29.8920   21.7150 H   0  0  0  0  0  0  0  0  0  0  0  0
  -18.0140  -28.1340   22.9350 C   0  0  0  0  0  0  0  0  0  0  0  0
  -20.5770  -28.3900   23.1780 C   0  0  0  0  0  3  0  0  0  0  0  0
  -20.6700  -26.9560   22.6060 C   0  0  0  0  0  2  0  0  0  0  0  0
  -19.5570  -26.6340   21.6020 C   0  0  0  0  0  2  0  0  0  0  0  0
  -18.1790  -26.7840   22.2560 C   0  0  0  0  0  2  0  0  0  0  0  0
  -19.1390  -28.8930   23.3520 C   0  0  0  0  0  0  0  0  0  0  0  0
  -18.9310  -30.1540   23.9530 C   0  0  0  0  0  3  0  0  0  0  0  0
  -17.6280  -30.6530   24.1410 C   0  0  0  0  0  3  0  0  0  0  0  0
  -16.5180  -29.8930   23.7390 C   0  0  0  0  0  3  0  0  0  0  0  0
  -16.7110  -28.6370   23.1370 C   0  0  0  0  0  3  0  0  0  0  0  0
  -25.8720  -32.5530   23.7990 C   0  0  0  0  0  3  0  0  0  0  0  0
  -25.5450  -33.9530   24.1320 N   0  0  0  0  0  0  0  0  0  0  0  0
  -25.8800  -35.0120   23.3840 C   0  0  0  0  0  0  0  0  0  0  0  0
  -26.5560  -34.9180   22.3560 O   0  0  0  0  0  0  0  0  0  0  0  0
  -24.9440  -34.1030   24.9290 H   0  0  0  0  0  0  0  0  0  0  0  0
  -24.1570  -36.8150   23.0320 C   0  0  0  0  0  1  0  0  0  0  0  0
  -25.3890  -36.3980   23.8490 C   0  0  0  0  0  3  0  0  0  0  0  0
  -27.5150  -37.2880   24.7000 C   0  0  0  0  0  1  0  0  0  0  0  0
  -26.4210  -37.4540   23.7440 N   0  0  0  0  0  0  0  0  0  0  0  0
  -26.0160  -38.3760   23.8800 H   0  0  0  0  0  0  0  0  0  0  0  0
  -26.3860  -31.7920   25.0870 C   0  0  1  0  0  0  0  0  0  0  0  0
  -25.2970  -31.5600   26.1610 C   0  0  0  0  0  1  0  0  0  0  0  0
  -26.9830  -30.4120   24.7220 C   0  0  0  0  0  1  0  0  0  0  0  0
  -27.5260  -32.5980   25.7480 C   0  0  0  0  0  1  0  0  0  0  0  0
  1 46  1  0
  1 51  1  0
  1  2  1  0
  3  2  1  0
  5 10  1  0
  6  7  1  0
  6  5  1  0
  8  7  1  0
  8 21  1  0
  8  9  1  0
 10  4  1  0
 10  9  1  0
 11  4  2  0
 13 17  1  0
 14 13  1  0
 14 12  1  0
 14 15  1  0
 15 12  1  0
 15 16  1  0
 16  3  1  0
 17  4  1  0
 17 16  1  0
 18 19  2  0
 19 38  1  0
 20 19  1  0
 20 23  1  0
 21 22  1  0
 21 18  1  0
 22 20  2  0
 23 24  1  0
 24 25  2  0
 26 29  1  0
 26 25  1  0
 27 26  2  0
 28 27  1  0
 28 23  2  0
 29 30  1  0
 30 31  1  0
 31 32  2  0
 33 32  1  0
 33 37  1  0
 34 33  2  0
 35 30  2  0
 35 34  1  0
 36 35  1  0
 38 39  1  0
 39 42  1  0
 39 41  1  0
 40 38  2  0
 43 44  1  0
 43 18  1  0
 45 43  1  0
 46 47  1  0
 47 48  1  0
 49 47  1  0
 50 47  1  0
 52 51  1  0
 53 64  2  0
 54 52  1  0
 54 59  1  0
 55 63  1  0
 55 65  1  0
 56 62  1  0
 56 58  1  0
 57 63  1  0
 58 59  2  0
 58 57  1  0
 60 54  2  0
 61 60  1  0
 61 56  2  0
 62 55  1  0
 63 53  1  0
 65 67  2  0
 66 65  1  0
 68 66  1  0
 69 78  2  0
 69 74  1  0
 70 66  1  0
 70 74  1  0
 71 70  1  0
 72 73  1  0
 72 71  1  0
 73 69  1  0
 74 75  2  0
 75 76  1  0
 77 76  2  0
 78 77  1  0
 79 53  1  0
 79 80  1  0
 79 89  1  0
 80 83  1  0
 81 85  1  0
 81 80  1  0
 82 81  2  0
 85 84  1  0
 87 85  1  0
 87 88  1  0
 87 86  1  0
 89 92  1  1
 89 90  1  0
 91 89  1  0
M  ISO  4   4 100  17 100  51 101  52 101
M  END
>  <TORSDO>  (74) 
F 21

>  <SCORE>  (74) 
-16.119

>  <name>  (74) 
73

>  <ligand_id>  (74) 
73

>  <original_smiles>  (74) 
[H]c1c([H])c([H])c2c(c1[H])C([H])([H])C([H])([H])C([H])([H])C2([H])N([H])C(=O)C1([H])N(C(=O)C([H])(N([H])C(=O)C([H])(N([H])C([H])([H])[H])C([H])([H])[H])C(C([H])([H])[H])(C([H])([H])[H])C([H])([H])[H])C([H])([H])c2c([H])c(OC([H])([H])C([H])(C([H])([H])C([H])([H])C3([H])N(C(=O)N4C([H])([H])C([H])([H])C([H])([H])C([H])(n5nc(-c6c([H])c([H])c(Oc7c([H])c([H])c(F)c([H])c7F)c([H])c6[H])c(C(=O)N([H])[H])c5N([H])[H])C4([H])[H])C([H])([H])C4([H])C([H])([H])C34[H])C([H])([H])[N+]([H])([H])[H])c([H])c([H])c2C1([H])[H]

>  <smiles>  (74) 
[H]c1c([H])c([H])c2c(c1[H])C([H])([H])C([H])([H])C([H])([H])C2([H])N([H])C(=O)C1([H])N(C(=O)C([H])(N([H])C(=O)C([H])(N([H])C([H])([H])[H])C([H])([H])[H])C(C([H])([H])[H])(C([H])([H])[H])C([H])([H])[H])C([H])([H])c2c([H])c(OC([H])([H])C([H])(C([H])([H])C([H])([H])C3([H])N(C(=O)N4C([H])([H])C([H])([H])C([H])([H])C([H])(n5nc(-c6c([H])c([H])c(Oc7c([H])c([H])c(F)c([H])c7F)c([H])c6[H])c(C(=O)N([H])[H])c5N([H])[H])C4([H])[H])C([H])([H])C4([H])C([H])([H])C34[H])C([H])([H])[N+]([H])([H])[H])c([H])c([H])c2C1([H])[H]

$$$$
74:0:0
     RDKit          3D

 88 96  0  0  1  0  0  0  0  0999 V2000
  -30.4790  -20.6730   22.4190 C   0  0  0  0  0  2  0  0  0  0  0  0
  -29.4280  -19.6070   22.0510 C   0  0  0  0  0  2  0  0  0  0  0  0
  -30.6580  -21.5910   21.1900 C   0  0  0  0  0  2  0  0  0  0  0  0
  -29.1490  -19.7880   20.5480 C   0  0  0  0  0  3  0  0  0  0  0  0
  -29.4090  -21.4430   20.4270 N   0  0  2  0  0  4  0  0  0  0  0  0
  -28.8360  -21.3330   21.2480 H   0  0  0  0  0  0  0  0  0  0  0  0
  -30.0070  -18.3520   19.8690 C   0  0  0  0  0  2  0  0  0  0  0  0
  -30.5470  -15.4430   19.9320 C   0  0  0  0  0  0  0  0  0  0  0  0
  -30.4480  -13.0280   18.9880 C   0  0  0  0  0  2  0  0  0  0  0  0
  -29.4770  -12.8840   17.7880 C   0  0  0  0  0  2  0  0  0  0  0  0
  -28.0470  -12.6100   18.2820 C   0  0  0  0  0  2  0  0  0  0  0  0
  -27.6560  -13.5520   19.4510 C   0  0  0  0  0  3  0  0  0  0  0  0
  -28.7480  -13.6390   20.5390 C   0  0  0  0  0  2  0  0  0  0  0  0
  -29.9630  -14.1510   19.8770 N   0  0  0  0  0  0  0  0  0  0  0  0
  -31.7470  -15.4490   19.6210 O   0  0  0  0  0  0  0  0  0  0  0  0
  -29.8030  -16.7120   20.1310 N   0  0  0  0  0  0  0  0  0  0  0  0
  -28.8450  -16.5030   20.3670 H   0  0  0  0  0  0  0  0  0  0  0  0
  -25.3290  -14.1110   20.3140 C   0  0  0  0  0  0  0  0  0  0  0  0
  -24.2800  -13.3320   20.7170 C   0  0  0  0  0  0  0  0  0  0  0  0
  -24.7440  -11.9810   20.6490 C   0  0  0  0  0  0  0  0  0  0  0  0
  -26.3520  -13.2350   20.0080 N   0  0  0  0  0  0  0  0  0  0  0  0
  -26.0190  -11.9470   20.2800 N   0  0  0  0  0  0  0  0  0  0  0  0
  -24.0230  -10.7150   20.8450 C   0  0  0  0  0  0  0  0  0  0  0  0
  -24.4460   -9.7610   21.7960 C   0  0  0  0  0  3  0  0  0  0  0  0
  -23.7210   -8.5650   21.9820 C   0  0  0  0  0  3  0  0  0  0  0  0
  -22.5580   -8.3130   21.2140 C   0  0  0  0  0  0  0  0  0  0  0  0
  -22.1510   -9.2560   20.2540 C   0  0  0  0  0  3  0  0  0  0  0  0
  -22.8790  -10.4440   20.0670 C   0  0  0  0  0  3  0  0  0  0  0  0
  -21.8040   -7.1700   21.3110 O   0  0  0  0  0  0  0  0  0  0  0  0
  -21.6880   -6.4810   22.4910 C   0  0  0  0  0  0  0  0  0  0  0  0
  -21.1720   -7.0820   23.6600 C   0  0  0  0  0  3  0  0  0  0  0  0
  -21.0100   -6.3160   24.8330 C   0  0  0  0  0  3  0  0  0  0  0  0
  -21.3520   -4.9500   24.8340 C   0  0  0  0  0  0  0  0  0  0  0  0
  -21.8640   -4.3500   23.6710 C   0  0  0  0  0  3  0  0  0  0  0  0
  -22.0280   -5.1130   22.5020 C   0  0  0  0  0  0  0  0  0  0  0  0
  -22.5010   -4.5230   21.3770 F   0  0  0  0  0  0  0  0  0  0  0  0
  -21.1890   -4.2130   25.9590 F   0  0  0  0  0  0  0  0  0  0  0  0
  -22.8970  -13.8110   21.0450 C   0  0  0  0  0  0  0  0  0  0  0  0
  -22.2010  -13.1070   21.9320 N   0  0  0  0  0  0  0  0  0  0  0  0
  -22.4420  -14.8400   20.5520 O   0  0  0  0  0  0  0  0  0  0  0  0
  -22.5840  -12.2750   22.3560 H   0  0  0  0  0  0  0  0  0  0  0  0
  -21.2730  -13.4040   22.1950 H   0  0  0  0  0  0  0  0  0  0  0  0
  -25.4940  -15.4830   20.1560 N   0  0  0  0  0  0  0  0  0  0  0  0
  -24.7330  -16.1370   20.3010 H   0  0  0  0  0  0  0  0  0  0  0  0
  -26.3220  -15.9110   19.7660 H   0  0  0  0  0  0  0  0  0  0  0  0
  -28.5090  -22.8660   20.5550 C   0  0  0  0  0  2  0  0  0  0  0  0
  -28.6330  -24.5170   19.8380 C   0  0  0  0  0  2  0  0  0  0  0  0
  -28.4470  -26.0930   20.3180 O   0  0  0  0  0  0  0  0  0  0  0  0
  -24.7020  -31.9300   23.2080 C   0  0  0  0  0  0  0  0  0  0  0  0
  -27.3890  -27.1340   20.1780 C   0  0  0  0  0  0  0  0  0  0  0  0
  -23.5440  -30.5090   21.5630 C   0  0  0  0  0  3  0  0  0  0  0  0
  -25.0330  -28.9450   20.1320 C   0  0  0  0  0  0  0  0  0  0  0  0
  -26.1000  -30.7910   21.4170 C   0  0  0  0  0  2  0  0  0  0  0  0
  -26.2070  -29.3850   20.7580 C   0  0  0  0  0  0  0  0  0  0  0  0
  -27.3720  -28.4970   20.7600 C   0  0  0  0  0  3  0  0  0  0  0  0
  -26.1870  -26.8440   19.4990 C   0  0  0  0  0  3  0  0  0  0  0  0
  -25.0470  -27.6980   19.4830 C   0  0  0  0  0  3  0  0  0  0  0  0
  -23.7880  -29.8300   20.1870 C   0  0  0  0  0  2  0  0  0  0  0  0
  -24.8020  -31.1020   22.1190 N   0  0  0  0  0  0  0  0  0  0  0  0
  -23.6070  -32.1940   23.7350 O   0  0  0  0  0  0  0  0  0  0  0  0
  -22.8690  -29.5010   22.5290 C   0  0  0  0  0  0  0  0  0  0  0  0
  -21.5440  -29.3090   22.4070 N   0  0  0  0  0  0  0  0  0  0  0  0
  -23.5480  -28.8830   23.3530 O   0  0  0  0  0  0  0  0  0  0  0  0
  -21.0500  -29.8570   21.7190 H   0  0  0  0  0  0  0  0  0  0  0  0
  -18.1840  -28.0340   22.9100 C   0  0  0  0  0  0  0  0  0  0  0  0
  -20.7410  -28.3520   23.1710 C   0  0  0  0  0  3  0  0  0  0  0  0
  -20.8700  -26.9250   22.5860 C   0  0  0  0  0  2  0  0  0  0  0  0
  -19.7720  -26.5870   21.5710 C   0  0  0  0  0  2  0  0  0  0  0  0
  -18.3890  -26.6960   22.2210 C   0  0  0  0  0  2  0  0  0  0  0  0
  -19.2880  -28.8200   23.3410 C   0  0  0  0  0  0  0  0  0  0  0  0
  -19.0410  -30.0690   23.9490 C   0  0  0  0  0  3  0  0  0  0  0  0
  -17.7260  -30.5350   24.1310 C   0  0  0  0  0  3  0  0  0  0  0  0
  -16.6370  -29.7470   23.7140 C   0  0  0  0  0  3  0  0  0  0  0  0
  -16.8680  -28.5000   23.1100 C   0  0  0  0  0  3  0  0  0  0  0  0
  -25.9610  -32.5990   23.8450 C   0  0  0  0  0  3  0  0  0  0  0  0
  -26.4700  -31.8520   25.1420 C   0  0  1  0  0  0  0  0  0  0  0  0
  -25.3660  -31.6050   26.1980 C   0  0  0  0  0  1  0  0  0  0  0  0
  -27.0860  -30.4810   24.7840 C   0  0  0  0  0  1  0  0  0  0  0  0
  -27.5940  -32.6760   25.8150 C   0  0  0  0  0  1  0  0  0  0  0  0
  -25.6200  -33.9950   24.1710 N   0  0  0  0  0  0  0  0  0  0  0  0
  -25.9390  -35.0570   23.4210 C   0  0  0  0  0  0  0  0  0  0  0  0
  -26.6140  -34.9680   22.3930 O   0  0  0  0  0  0  0  0  0  0  0  0
  -25.0170  -34.1370   24.9690 H   0  0  0  0  0  0  0  0  0  0  0  0
  -24.1880  -36.8330   23.0700 C   0  0  0  0  0  1  0  0  0  0  0  0
  -25.4320  -36.4400   23.8810 C   0  0  0  0  0  3  0  0  0  0  0  0
  -27.5440  -37.3650   24.7270 C   0  0  0  0  0  1  0  0  0  0  0  0
  -26.4470  -37.5090   23.7730 N   0  0  0  0  0  0  0  0  0  0  0  0
  -26.0230  -38.4230   23.9150 H   0  0  0  0  0  0  0  0  0  0  0  0
  2  1  1  0
  3  1  1  0
  4  7  1  0
  4  2  1  0
  5  4  1  0
  5 46  1  0
  5  3  1  0
  5  6  1  6
  7 16  1  0
  8 16  1  0
  9 14  1  0
 10 11  1  0
 10  9  1  0
 12 11  1  0
 12 21  1  0
 12 13  1  0
 14  8  1  0
 14 13  1  0
 15  8  2  0
 16 17  1  0
 18 19  2  0
 19 38  1  0
 20 19  1  0
 20 23  1  0
 21 22  1  0
 21 18  1  0
 22 20  2  0
 23 24  1  0
 24 25  2  0
 26 29  1  0
 26 25  1  0
 27 26  2  0
 28 27  1  0
 28 23  2  0
 29 30  1  0
 30 35  2  0
 30 31  1  0
 31 32  2  0
 32 33  1  0
 33 37  1  0
 34 33  2  0
 35 34  1  0
 36 35  1  0
 38 39  1  0
 39 42  1  0
 39 41  1  0
 40 38  2  0
 43 44  1  0
 43 18  1  0
 45 43  1  0
 47 48  1  0
 47 46  1  0
 49 60  2  0
 50 48  1  0
 50 55  1  0
 51 59  1  0
 51 61  1  0
 52 58  1  0
 52 54  1  0
 53 59  1  0
 54 55  2  0
 54 53  1  0
 56 50  2  0
 57 56  1  0
 57 52  2  0
 58 51  1  0
 59 49  1  0
 61 63  2  0
 62 61  1  0
 64 62  1  0
 65 74  2  0
 65 70  1  0
 66 62  1  0
 66 70  1  0
 67 66  1  0
 68 69  1  0
 68 67  1  0
 69 65  1  0
 70 71  2  0
 71 72  1  0
 73 72  2  0
 74 73  1  0
 75 49  1  0
 75 80  1  0
 75 76  1  0
 76 79  1  1
 76 77  1  0
 78 76  1  0
 80 83  1  0
 81 85  1  0
 81 80  1  0
 82 81  2  0
 85 84  1  0
 87 85  1  0
 87 88  1  0
 87 86  1  0
M  ISO  4   8 100  16 100  47 101  48 101
M  END
>  <TORSDO>  (75) 
F 19

>  <SCORE>  (75) 
-15.124

>  <name>  (75) 
74

>  <ligand_id>  (75) 
74

>  <original_smiles>  (75) 
[H]c1c([H])c([H])c2c(c1[H])C([H])([H])C([H])([H])C([H])([H])C2([H])N([H])C(=O)C1([H])N(C(=O)C([H])(N([H])C(=O)C([H])(N([H])C([H])([H])[H])C([H])([H])[H])C(C([H])([H])[H])(C([H])([H])[H])C([H])([H])[H])C([H])([H])c2c([H])c(OC([H])([H])C([H])([H])[N+]3([H])C([H])([H])C([H])([H])C([H])([H])C3([H])C([H])([H])N([H])C(=O)N3C([H])([H])C([H])([H])C([H])([H])C([H])(n4nc(-c5c([H])c([H])c(Oc6c([H])c([H])c(F)c([H])c6F)c([H])c5[H])c(C(=O)N([H])[H])c4N([H])[H])C3([H])[H])c([H])c([H])c2C1([H])[H]

>  <smiles>  (75) 
[H]c1c([H])c([H])c2c(c1[H])C([H])([H])C([H])([H])C([H])([H])C2([H])N([H])C(=O)C1([H])N(C(=O)C([H])(N([H])C(=O)C([H])(N([H])C([H])([H])[H])C([H])([H])[H])C(C([H])([H])[H])(C([H])([H])[H])C([H])([H])[H])C([H])([H])c2c([H])c(OC([H])([H])C([H])([H])[N+]3([H])C([H])([H])C([H])([H])C([H])([H])C3([H])C([H])([H])N([H])C(=O)N3C([H])([H])C([H])([H])C([H])([H])C([H])(n4nc(-c5c([H])c([H])c(Oc6c([H])c([H])c(F)c([H])c6F)c([H])c5[H])c(C(=O)N([H])[H])c4N([H])[H])C3([H])[H])c([H])c([H])c2C1([H])[H]

$$$$
75:0:0
     RDKit          3D

 87 96  0  0  1  0  0  0  0  0999 V2000
  -28.9860  -21.0040   18.3710 C   0  0  0  0  0  2  0  0  0  0  0  0
  -29.5090  -18.2280   18.3850 C   0  0  0  0  0  2  0  0  0  0  0  0
  -29.8100  -19.7250   18.5940 C   0  0  0  0  0  3  0  0  0  0  0  0
  -28.9740  -19.5510   19.9710 C   0  0  0  0  0  3  0  0  0  0  0  0
  -29.0490  -21.3400   19.8400 C   0  0  0  0  0  3  0  0  0  0  0  0
  -29.8880  -18.0210   19.8280 C   0  0  0  0  0  3  0  0  0  0  0  0
  -30.3650  -15.2020   20.1950 C   0  0  0  0  0  0  0  0  0  0  0  0
  -30.3240  -12.7730   19.3510 C   0  0  0  0  0  2  0  0  0  0  0  0
  -29.3830  -12.5850   18.1350 C   0  0  0  0  0  2  0  0  0  0  0  0
  -27.9390  -12.3330   18.6020 C   0  0  0  0  0  2  0  0  0  0  0  0
  -27.5080  -13.3010   19.7320 C   0  0  0  0  0  3  0  0  0  0  0  0
  -28.5680  -13.4420   20.8420 C   0  0  0  0  0  2  0  0  0  0  0  0
  -29.7980  -13.9060   20.1860 N   0  0  0  0  0  0  0  0  0  0  0  0
  -31.5910  -15.2130   20.0020 O   0  0  0  0  0  0  0  0  0  0  0  0
  -29.5860  -16.4480   20.1990 N   0  0  0  0  0  0  0  0  0  0  0  0
  -28.6020  -16.2660   20.3250 H   0  0  0  0  0  0  0  0  0  0  0  0
  -25.1510  -13.8780   20.5080 C   0  0  0  0  0  0  0  0  0  0  0  0
  -24.0860  -13.0990   20.8800 C   0  0  0  0  0  0  0  0  0  0  0  0
  -24.5520  -11.7510   20.8510 C   0  0  0  0  0  0  0  0  0  0  0  0
  -26.1860  -12.9950   20.2590 N   0  0  0  0  0  0  0  0  0  0  0  0
  -25.8410  -11.7120   20.5360 N   0  0  0  0  0  0  0  0  0  0  0  0
  -23.8270  -10.4880   21.0410 C   0  0  0  0  0  0  0  0  0  0  0  0
  -24.2630   -9.5190   21.9720 C   0  0  0  0  0  3  0  0  0  0  0  0
  -23.5340   -8.3230   22.1540 C   0  0  0  0  0  3  0  0  0  0  0  0
  -22.3570   -8.0890   21.4050 C   0  0  0  0  0  0  0  0  0  0  0  0
  -21.9360   -9.0510   20.4700 C   0  0  0  0  0  3  0  0  0  0  0  0
  -22.6630  -10.2380   20.2860 C   0  0  0  0  0  3  0  0  0  0  0  0
  -21.5990   -6.9480   21.4990 O   0  0  0  0  0  0  0  0  0  0  0  0
  -21.5600   -6.1990   22.6460 C   0  0  0  0  0  0  0  0  0  0  0  0
  -21.1530   -6.7480   23.8810 C   0  0  0  0  0  3  0  0  0  0  0  0
  -21.0630   -5.9270   25.0220 C   0  0  0  0  0  3  0  0  0  0  0  0
  -21.3700   -4.5560   24.9290 C   0  0  0  0  0  0  0  0  0  0  0  0
  -21.7760   -4.0070   23.6990 C   0  0  0  0  0  3  0  0  0  0  0  0
  -21.8650   -4.8250   22.5610 C   0  0  0  0  0  0  0  0  0  0  0  0
  -22.2340   -4.2850   21.3730 F   0  0  0  0  0  0  0  0  0  0  0  0
  -21.2770   -3.7650   26.0230 F   0  0  0  0  0  0  0  0  0  0  0  0
  -22.6930  -13.5820   21.1470 C   0  0  0  0  0  0  0  0  0  0  0  0
  -21.9600  -12.8930   22.0120 N   0  0  0  0  0  0  0  0  0  0  0  0
  -22.2570  -14.6030   20.6140 O   0  0  0  0  0  0  0  0  0  0  0  0
  -22.3180  -12.0670   22.4660 H   0  0  0  0  0  0  0  0  0  0  0  0
  -21.0210  -13.2030   22.2250 H   0  0  0  0  0  0  0  0  0  0  0  0
  -25.3130  -15.2470   20.3320 N   0  0  0  0  0  0  0  0  0  0  0  0
  -24.5530  -15.9040   20.4780 H   0  0  0  0  0  0  0  0  0  0  0  0
  -26.1540  -15.6940   19.9830 H   0  0  0  0  0  0  0  0  0  0  0  0
  -28.0590  -22.7710   20.2050 C   0  0  0  0  0  2  0  0  0  0  0  0
  -28.5540  -24.4560   20.4100 C   0  0  0  0  0  2  0  0  0  0  0  0
  -28.2540  -26.0260   20.0650 O   0  0  0  0  0  0  0  0  0  0  0  0
  -24.6240  -31.8440   23.2060 C   0  0  0  0  0  0  0  0  0  0  0  0
  -27.1550  -26.9960   20.1980 C   0  0  0  0  0  0  0  0  0  0  0  0
  -23.4140  -30.4410   21.5750 C   0  0  0  0  0  3  0  0  0  0  0  0
  -24.8490  -28.8310   20.1620 C   0  0  0  0  0  0  0  0  0  0  0  0
  -25.9750  -30.6750   21.4030 C   0  0  0  0  0  2  0  0  0  0  0  0
  -26.0410  -29.2600   20.7640 C   0  0  0  0  0  0  0  0  0  0  0  0
  -27.1930  -28.3640   20.7480 C   0  0  0  0  0  3  0  0  0  0  0  0
  -25.9290  -26.6900   19.5810 C   0  0  0  0  0  3  0  0  0  0  0  0
  -24.8120  -27.5620   19.5550 C   0  0  0  0  0  3  0  0  0  0  0  0
  -23.6370  -29.7530   20.2020 C   0  0  0  0  0  2  0  0  0  0  0  0
  -24.6920  -31.0120   22.1190 N   0  0  0  0  0  0  0  0  0  0  0  0
  -23.5370  -32.1360   23.7340 O   0  0  0  0  0  0  0  0  0  0  0  0
  -22.7390  -29.4460   22.5460 C   0  0  0  0  0  0  0  0  0  0  0  0
  -21.4080  -29.2710   22.4180 N   0  0  0  0  0  0  0  0  0  0  0  0
  -23.4120  -28.8390   23.3840 O   0  0  0  0  0  0  0  0  0  0  0  0
  -20.9340  -29.7920   21.6950 H   0  0  0  0  0  0  0  0  0  0  0  0
  -18.0290  -28.0760   22.9860 C   0  0  0  0  0  0  0  0  0  0  0  0
  -20.5910  -28.3460   23.2060 C   0  0  0  0  0  3  0  0  0  0  0  0
  -20.6840  -26.9100   22.6480 C   0  0  0  0  0  2  0  0  0  0  0  0
  -19.5780  -26.6010   21.6390 C   0  0  0  0  0  2  0  0  0  0  0  0
  -18.2080  -26.7290   22.3080 C   0  0  0  0  0  2  0  0  0  0  0  0
  -19.1530  -28.8470   23.3900 C   0  0  0  0  0  0  0  0  0  0  0  0
  -18.9400  -30.1130   23.9750 C   0  0  0  0  0  3  0  0  0  0  0  0
  -17.6380  -30.6150   24.1470 C   0  0  0  0  0  3  0  0  0  0  0  0
  -16.5270  -29.8460   23.7530 C   0  0  0  0  0  3  0  0  0  0  0  0
  -16.7230  -28.5760   23.1840 C   0  0  0  0  0  3  0  0  0  0  0  0
  -25.8970  -32.4950   23.8260 C   0  0  0  0  0  3  0  0  0  0  0  0
  -25.5690  -33.8940   24.1630 N   0  0  0  0  0  0  0  0  0  0  0  0
  -25.8960  -34.9570   23.4200 C   0  0  0  0  0  0  0  0  0  0  0  0
  -26.5570  -34.8720   22.3840 O   0  0  0  0  0  0  0  0  0  0  0  0
  -24.9820  -34.0390   24.9710 H   0  0  0  0  0  0  0  0  0  0  0  0
  -24.1540  -36.7500   23.1120 C   0  0  0  0  0  1  0  0  0  0  0  0
  -25.4110  -36.3410   23.8960 C   0  0  0  0  0  3  0  0  0  0  0  0
  -27.5530  -37.2340   24.6940 C   0  0  0  0  0  1  0  0  0  0  0  0
  -26.4370  -37.3990   23.7690 N   0  0  0  0  0  0  0  0  0  0  0  0
  -26.0350  -38.3210   23.9190 H   0  0  0  0  0  0  0  0  0  0  0  0
  -26.4150  -31.7340   25.1080 C   0  0  1  0  0  0  0  0  0  0  0  0
  -25.3230  -31.5070   26.1810 C   0  0  0  0  0  1  0  0  0  0  0  0
  -27.0070  -30.3560   24.7250 C   0  0  0  0  0  1  0  0  0  0  0  0
  -27.5630  -32.5340   25.7590 C   0  0  0  0  0  1  0  0  0  0  0  0
  1  5  1  0
  2  3  1  0
  2  6  1  0
  3  1  1  0
  3  4  1  0
  5  4  1  0
  5 45  1  0
  6  4  1  0
  6 15  1  0
  7 15  1  0
  8 13  1  0
  9 10  1  0
  9  8  1  0
 10 11  1  0
 11 20  1  0
 11 12  1  0
 13  7  1  0
 13 12  1  0
 14  7  2  0
 15 16  1  0
 17 18  2  0
 18 37  1  0
 19 18  1  0
 19 22  1  0
 20 17  1  0
 20 21  1  0
 21 19  2  0
 22 23  1  0
 23 24  2  0
 25 28  1  0
 25 24  1  0
 26 25  2  0
 27 26  1  0
 27 22  2  0
 28 29  1  0
 29 30  1  0
 30 31  2  0
 32 31  1  0
 32 36  1  0
 33 32  2  0
 34 29  2  0
 34 33  1  0
 35 34  1  0
 37 38  1  0
 38 41  1  0
 38 40  1  0
 39 37  2  0
 42 43  1  0
 42 17  1  0
 44 42  1  0
 45 46  1  0
 47 49  1  0
 47 46  1  0
 48 59  2  0
 48 74  1  0
 49 54  1  0
 50 58  1  0
 50 60  1  0
 51 57  1  0
 51 53  1  0
 52 58  1  0
 53 52  1  0
 54 53  2  0
 55 49  2  0
 56 55  1  0
 56 51  2  0
 57 50  1  0
 58 48  1  0
 60 62  2  0
 61 60  1  0
 61 65  1  0
 63 61  1  0
 64 73  2  0
 64 69  1  0
 65 69  1  0
 66 65  1  0
 67 68  1  0
 67 66  1  0
 68 64  1  0
 69 70  2  0
 70 71  1  0
 72 71  2  0
 73 72  1  0
 74 75  1  0
 74 84  1  0
 75 78  1  0
 76 80  1  0
 76 75  1  0
 77 76  2  0
 79 80  1  0
 82 80  1  0
 82 83  1  0
 82 81  1  0
 84 87  1  1
 84 85  1  0
 86 84  1  0
M  ISO  4   7 100  15 100  46 101  47 101
M  END
>  <TORSDO>  (76) 
F 18

>  <SCORE>  (76) 
-15.499

>  <name>  (76) 
75

>  <ligand_id>  (76) 
75

>  <original_smiles>  (76) 
[H]c1c([H])c([H])c2c(c1[H])C([H])([H])C([H])([H])C([H])([H])C2([H])N([H])C(=O)C1([H])N(C(=O)C([H])(N([H])C(=O)C([H])(N([H])C([H])([H])[H])C([H])([H])[H])C(C([H])([H])[H])(C([H])([H])[H])C([H])([H])[H])C([H])([H])c2c([H])c(OC([H])([H])C([H])([H])C3([H])C([H])([H])C4([H])C([H])([H])C([H])(N([H])C(=O)N5C([H])([H])C([H])([H])C([H])([H])C([H])(n6nc(-c7c([H])c([H])c(Oc8c([H])c([H])c(F)c([H])c8F)c([H])c7[H])c(C(=O)N([H])[H])c6N([H])[H])C5([H])[H])C34[H])c([H])c([H])c2C1([H])[H]

>  <smiles>  (76) 
[H]c1c([H])c([H])c2c(c1[H])C([H])([H])C([H])([H])C([H])([H])C2([H])N([H])C(=O)C1([H])N(C(=O)C([H])(N([H])C(=O)C([H])(N([H])C([H])([H])[H])C([H])([H])[H])C(C([H])([H])[H])(C([H])([H])[H])C([H])([H])[H])C([H])([H])c2c([H])c(OC([H])([H])C([H])([H])C3([H])C([H])([H])C4([H])C([H])([H])C([H])(N([H])C(=O)N5C([H])([H])C([H])([H])C([H])([H])C([H])(n6nc(-c7c([H])c([H])c(Oc8c([H])c([H])c(F)c([H])c8F)c([H])c7[H])c(C(=O)N([H])[H])c6N([H])[H])C5([H])[H])C34[H])c([H])c([H])c2C1([H])[H]

$$$$
76:0:0
     RDKit          3D

 91100  0  0  1  0  0  0  0  0999 V2000
  -29.0450  -23.5950   20.1780 C   0  0  0  0  0  0  0  0  0  0  0  0
  -28.6840  -22.2530   19.9840 N   0  0  0  0  0  0  0  0  0  0  0  0
  -30.1950  -23.8820   20.5190 O   0  0  0  0  0  0  0  0  0  0  0  0
  -27.7140  -22.1610   19.7150 H   0  0  0  0  0  0  0  0  0  0  0  0
  -27.7660  -19.6380   20.2770 C   0  0  0  0  0  2  0  0  0  0  0  0
  -29.7840  -18.4380   21.3750 C   0  0  0  0  0  2  0  0  0  0  0  0
  -29.4660  -18.2970   18.8600 C   0  0  0  0  0  2  0  0  0  0  0  0
  -29.0230  -19.8260   21.1370 C   0  0  0  0  0  3  0  0  0  0  0  0
  -28.7850  -19.7180   19.1310 C   0  0  0  0  0  3  0  0  0  0  0  0
  -30.1140  -17.5490   20.0990 C   0  0  0  0  0  3  0  0  0  0  0  0
  -29.4350  -20.8770   20.0130 C   0  0  0  0  0  3  0  0  0  0  0  0
  -30.6700  -14.8850   19.9590 C   0  0  0  0  0  0  0  0  0  0  0  0
  -30.4740  -12.5840   18.9670 C   0  0  0  0  0  2  0  0  0  0  0  0
  -29.4650  -12.6210   17.7960 C   0  0  0  0  0  2  0  0  0  0  0  0
  -28.0270  -12.4160   18.3120 C   0  0  0  0  0  2  0  0  0  0  0  0
  -27.7050  -13.2980   19.5470 C   0  0  0  0  0  3  0  0  0  0  0  0
  -28.8290  -13.2400   20.6050 C   0  0  0  0  0  2  0  0  0  0  0  0
  -30.0740  -13.6350   19.9350 N   0  0  0  0  0  0  0  0  0  0  0  0
  -31.8380  -14.9960   19.5720 O   0  0  0  0  0  0  0  0  0  0  0  0
  -29.8790  -16.0120   20.2170 N   0  0  0  0  0  0  0  0  0  0  0  0
  -28.9400  -15.7680   20.4910 H   0  0  0  0  0  0  0  0  0  0  0  0
  -25.3710  -13.8550   20.4480 C   0  0  0  0  0  0  0  0  0  0  0  0
  -24.3340  -13.0670   20.8630 C   0  0  0  0  0  0  0  0  0  0  0  0
  -24.7960  -11.7190   20.7630 C   0  0  0  0  0  0  0  0  0  0  0  0
  -26.3980  -12.9860   20.1170 N   0  0  0  0  0  0  0  0  0  0  0  0
  -26.0640  -11.6950   20.3710 N   0  0  0  0  0  0  0  0  0  0  0  0
  -24.0840  -10.4490   20.9610 C   0  0  0  0  0  0  0  0  0  0  0  0
  -24.5310   -9.4880   21.8940 C   0  0  0  0  0  3  0  0  0  0  0  0
  -23.8160   -8.2840   22.0810 C   0  0  0  0  0  3  0  0  0  0  0  0
  -22.6410   -8.0340   21.3350 C   0  0  0  0  0  0  0  0  0  0  0  0
  -22.2130   -8.9840   20.3900 C   0  0  0  0  0  3  0  0  0  0  0  0
  -22.9280  -10.1790   20.2020 C   0  0  0  0  0  3  0  0  0  0  0  0
  -21.8980   -6.8820   21.4300 O   0  0  0  0  0  0  0  0  0  0  0  0
  -21.8020   -6.1840   22.6070 C   0  0  0  0  0  0  0  0  0  0  0  0
  -21.3070   -6.7770   23.7880 C   0  0  0  0  0  3  0  0  0  0  0  0
  -21.1590   -6.0040   24.9570 C   0  0  0  0  0  3  0  0  0  0  0  0
  -21.4960   -4.6380   24.9450 C   0  0  0  0  0  0  0  0  0  0  0  0
  -21.9830   -4.0420   23.7680 C   0  0  0  0  0  3  0  0  0  0  0  0
  -22.1330   -4.8130   22.6020 C   0  0  0  0  0  0  0  0  0  0  0  0
  -22.5830   -4.2300   21.4650 F   0  0  0  0  0  0  0  0  0  0  0  0
  -21.3470   -3.8930   26.0650 F   0  0  0  0  0  0  0  0  0  0  0  0
  -22.9560  -13.5330   21.2340 C   0  0  0  0  0  0  0  0  0  0  0  0
  -22.2870  -12.8160   22.1310 N   0  0  0  0  0  0  0  0  0  0  0  0
  -22.4820  -14.5670   20.7650 O   0  0  0  0  0  0  0  0  0  0  0  0
  -22.6820  -11.9790   22.5320 H   0  0  0  0  0  0  0  0  0  0  0  0
  -21.3650  -13.1110   22.4220 H   0  0  0  0  0  0  0  0  0  0  0  0
  -25.5200  -15.2320   20.2990 N   0  0  0  0  0  0  0  0  0  0  0  0
  -24.7560  -15.8740   20.4750 H   0  0  0  0  0  0  0  0  0  0  0  0
  -26.3280  -15.6830   19.8890 H   0  0  0  0  0  0  0  0  0  0  0  0
  -27.9820  -24.8050   19.9340 C   0  0  0  0  0  2  0  0  0  0  0  0
  -28.3130  -26.2780   20.2050 O   0  0  0  0  0  0  0  0  0  0  0  0
  -24.6960  -31.8600   23.2830 C   0  0  0  0  0  0  0  0  0  0  0  0
  -27.2530  -27.2400   20.1560 C   0  0  0  0  0  0  0  0  0  0  0  0
  -23.4840  -30.4970   21.6250 C   0  0  0  0  0  3  0  0  0  0  0  0
  -24.9220  -28.9550   20.1690 C   0  0  0  0  0  0  0  0  0  0  0  0
  -26.0350  -30.7720   21.4520 C   0  0  0  0  0  2  0  0  0  0  0  0
  -26.1030  -29.3960   20.7780 C   0  0  0  0  0  0  0  0  0  0  0  0
  -27.2700  -28.5530   20.7590 C   0  0  0  0  0  3  0  0  0  0  0  0
  -26.0430  -26.8900   19.5100 C   0  0  0  0  0  3  0  0  0  0  0  0
  -24.9000  -27.7130   19.5230 C   0  0  0  0  0  3  0  0  0  0  0  0
  -23.6960  -29.8490   20.2330 C   0  0  0  0  0  2  0  0  0  0  0  0
  -24.7590  -31.0630   22.1750 N   0  0  0  0  0  0  0  0  0  0  0  0
  -23.6130  -32.1390   23.8200 O   0  0  0  0  0  0  0  0  0  0  0  0
  -22.8090  -29.4730   22.5700 C   0  0  0  0  0  0  0  0  0  0  0  0
  -21.4840  -29.2940   22.4310 N   0  0  0  0  0  0  0  0  0  0  0  0
  -23.4790  -28.8420   23.3910 O   0  0  0  0  0  0  0  0  0  0  0  0
  -21.0000  -29.8550   21.7440 H   0  0  0  0  0  0  0  0  0  0  0  0
  -18.1060  -28.0700   22.8890 C   0  0  0  0  0  0  0  0  0  0  0  0
  -20.6600  -28.3470   23.1870 C   0  0  0  0  0  3  0  0  0  0  0  0
  -20.7770  -26.9190   22.6060 C   0  0  0  0  0  2  0  0  0  0  0  0
  -19.6890  -26.5940   21.5780 C   0  0  0  0  0  2  0  0  0  0  0  0
  -18.3000  -26.7260   22.2060 C   0  0  0  0  0  2  0  0  0  0  0  0
  -19.2140  -28.8380   23.3340 C   0  0  0  0  0  0  0  0  0  0  0  0
  -18.9790  -30.0950   23.9330 C   0  0  0  0  0  3  0  0  0  0  0  0
  -17.6690  -30.5850   24.0890 C   0  0  0  0  0  3  0  0  0  0  0  0
  -16.5750  -29.8140   23.6570 C   0  0  0  0  0  3  0  0  0  0  0  0
  -16.7940  -28.5580   23.0630 C   0  0  0  0  0  3  0  0  0  0  0  0
  -25.9810  -32.4790   23.9150 C   0  0  0  0  0  3  0  0  0  0  0  0
  -25.6860  -33.8820   24.2410 N   0  0  0  0  0  0  0  0  0  0  0  0
  -26.0150  -34.9290   23.4720 C   0  0  0  0  0  0  0  0  0  0  0  0
  -26.6650  -34.8140   22.4300 O   0  0  0  0  0  0  0  0  0  0  0  0
  -25.1070  -34.0450   25.0520 H   0  0  0  0  0  0  0  0  0  0  0  0
  -24.2830  -36.7280   23.1580 C   0  0  0  0  0  1  0  0  0  0  0  0
  -25.5490  -36.3250   23.9310 C   0  0  0  0  0  3  0  0  0  0  0  0
  -27.7120  -37.2100   24.6850 C   0  0  0  0  0  1  0  0  0  0  0  0
  -26.5810  -37.3720   23.7750 N   0  0  0  0  0  0  0  0  0  0  0  0
  -26.1830  -38.2950   23.9250 H   0  0  0  0  0  0  0  0  0  0  0  0
  -26.4720  -31.7050   25.2010 C   0  0  1  0  0  0  0  0  0  0  0  0
  -25.3660  -31.4880   26.2590 C   0  0  0  0  0  1  0  0  0  0  0  0
  -27.0390  -30.3160   24.8230 C   0  0  0  0  0  1  0  0  0  0  0  0
  -27.6280  -32.4850   25.8700 C   0  0  0  0  0  1  0  0  0  0  0  0
  1  3  2  0
  2  1  1  0
  4  2  1  0
  7 10  1  0
  8  5  1  0
  8  6  1  0
  9  7  1  0
  9 11  1  0
  9  5  1  0
 10 20  1  0
 10  6  1  0
 11  2  1  0
 11  8  1  0
 12 20  1  0
 13 18  1  0
 14 15  1  0
 14 13  1  0
 16 15  1  0
 16 25  1  0
 16 17  1  0
 18 12  1  0
 18 17  1  0
 19 12  2  0
 20 21  1  0
 22 23  2  0
 23 42  1  0
 24 23  1  0
 24 27  1  0
 25 26  1  0
 25 22  1  0
 26 24  2  0
 27 28  1  0
 28 29  2  0
 30 33  1  0
 30 29  1  0
 31 30  2  0
 32 31  1  0
 32 27  2  0
 33 34  1  0
 34 35  1  0
 35 36  2  0
 37 36  1  0
 37 41  1  0
 38 37  2  0
 39 34  2  0
 39 38  1  0
 40 39  1  0
 42 43  1  0
 43 46  1  0
 43 45  1  0
 44 42  2  0
 47 22  1  0
 47 48  1  0
 49 47  1  0
 50  1  1  0
 50 51  1  0
 52 63  2  0
 53 51  1  0
 53 58  1  0
 54 62  1  0
 54 64  1  0
 55 61  1  0
 55 57  1  0
 56 62  1  0
 57 56  1  0
 58 57  2  0
 59 60  1  0
 59 53  2  0
 60 55  2  0
 61 54  1  0
 62 52  1  0
 64 66  2  0
 65 64  1  0
 67 65  1  0
 68 77  2  0
 68 73  1  0
 69 65  1  0
 69 73  1  0
 70 69  1  0
 71 72  1  0
 71 70  1  0
 72 68  1  0
 73 74  2  0
 74 75  1  0
 76 75  2  0
 77 76  1  0
 78 52  1  0
 78 79  1  0
 78 88  1  0
 79 82  1  0
 80 84  1  0
 80 79  1  0
 81 80  2  0
 84 83  1  0
 86 87  1  0
 86 84  1  0
 86 85  1  0
 88 91  1  1
 88 89  1  0
 90 88  1  0
M  ISO  4  12 100  20 100  50 101  51 101
M  END
>  <TORSDO>  (77) 
F 18

>  <SCORE>  (77) 
-13.872

>  <name>  (77) 
76

>  <ligand_id>  (77) 
76

>  <original_smiles>  (77) 
[H]c1c([H])c([H])c2c(c1[H])C([H])([H])C([H])([H])C([H])([H])C2([H])N([H])C(=O)C1([H])N(C(=O)C([H])(N([H])C(=O)C([H])(N([H])C([H])([H])[H])C([H])([H])[H])C(C([H])([H])[H])(C([H])([H])[H])C([H])([H])[H])C([H])([H])c2c([H])c(OC([H])([H])C(=O)N([H])C3([H])C4([H])C([H])([H])C([H])(N([H])C(=O)N5C([H])([H])C([H])([H])C([H])([H])C([H])(n6nc(-c7c([H])c([H])c(Oc8c([H])c([H])c(F)c([H])c8F)c([H])c7[H])c(C(=O)N([H])[H])c6N([H])[H])C5([H])[H])C([H])([H])C3([H])C4([H])[H])c([H])c([H])c2C1([H])[H]

>  <smiles>  (77) 
[H]c1c([H])c([H])c2c(c1[H])C([H])([H])C([H])([H])C([H])([H])C2([H])N([H])C(=O)C1([H])N(C(=O)C([H])(N([H])C(=O)C([H])(N([H])C([H])([H])[H])C([H])([H])[H])C(C([H])([H])[H])(C([H])([H])[H])C([H])([H])[H])C([H])([H])c2c([H])c(OC([H])([H])C(=O)N([H])C3([H])C4([H])C([H])([H])C([H])(N([H])C(=O)N5C([H])([H])C([H])([H])C([H])([H])C([H])(n6nc(-c7c([H])c([H])c(Oc8c([H])c([H])c(F)c([H])c8F)c([H])c7[H])c(C(=O)N([H])[H])c6N([H])[H])C5([H])[H])C([H])([H])C3([H])C4([H])[H])c([H])c([H])c2C1([H])[H]

$$$$
77:0:0
     RDKit          3D

 91100  0  0  1  0  0  0  0  0999 V2000
  -30.2850  -20.1570   21.3640 C   0  0  0  0  0  2  0  0  0  0  0  0
  -30.2010  -18.5840   21.6480 C   0  0  0  0  0  2  0  0  0  0  0  0
  -29.0980  -19.8080   19.2520 C   0  0  0  0  0  2  0  0  0  0  0  0
  -29.1420  -20.7830   20.4850 C   0  0  0  0  0  3  0  0  0  0  0  0
  -28.9890  -18.2410   19.5230 C   0  0  0  0  0  3  0  0  0  0  0  0
  -30.1500  -17.6280   20.3980 C   0  0  0  0  0  3  0  0  0  0  0  0
  -30.8110  -15.0180   20.4490 C   0  0  0  0  0  0  0  0  0  0  0  0
  -30.6660  -12.7490   19.4000 C   0  0  0  0  0  2  0  0  0  0  0  0
  -29.7490  -12.8580   18.1590 C   0  0  0  0  0  2  0  0  0  0  0  0
  -28.2720  -12.6690   18.5550 C   0  0  0  0  0  2  0  0  0  0  0  0
  -27.8770  -13.5130   19.7960 C   0  0  0  0  0  3  0  0  0  0  0  0
  -28.9160  -13.3930   20.9320 C   0  0  0  0  0  2  0  0  0  0  0  0
  -30.2180  -13.7740   20.3720 N   0  0  0  0  0  0  0  0  0  0  0  0
  -31.9920  -15.1530   20.1140 O   0  0  0  0  0  0  0  0  0  0  0  0
  -29.9930  -16.1190   20.6880 N   0  0  0  0  0  0  0  0  0  0  0  0
  -29.0610  -15.8510   20.9600 H   0  0  0  0  0  0  0  0  0  0  0  0
  -25.4680  -14.0880   20.4560 C   0  0  0  0  0  0  0  0  0  0  0  0
  -24.4020  -13.3080   20.8050 C   0  0  0  0  0  0  0  0  0  0  0  0
  -24.8760  -11.9600   20.7920 C   0  0  0  0  0  0  0  0  0  0  0  0
  -26.5260  -13.2160   20.2530 N   0  0  0  0  0  0  0  0  0  0  0  0
  -26.1750  -11.9310   20.5130 N   0  0  0  0  0  0  0  0  0  0  0  0
  -24.1560  -10.6940   20.9680 C   0  0  0  0  0  0  0  0  0  0  0  0
  -24.5500   -9.7490   21.9410 C   0  0  0  0  0  3  0  0  0  0  0  0
  -23.8300   -8.5460   22.1030 C   0  0  0  0  0  3  0  0  0  0  0  0
  -22.7020   -8.2790   21.2910 C   0  0  0  0  0  0  0  0  0  0  0  0
  -22.3280   -9.2110   20.3080 C   0  0  0  0  0  3  0  0  0  0  0  0
  -23.0490  -10.4060   20.1440 C   0  0  0  0  0  3  0  0  0  0  0  0
  -21.9570   -7.1280   21.3610 O   0  0  0  0  0  0  0  0  0  0  0  0
  -21.8320   -6.4220   22.5300 C   0  0  0  0  0  0  0  0  0  0  0  0
  -21.2760   -6.9970   23.6940 C   0  0  0  0  0  3  0  0  0  0  0  0
  -21.1050   -6.2160   24.8530 C   0  0  0  0  0  3  0  0  0  0  0  0
  -21.4760   -4.8570   24.8480 C   0  0  0  0  0  0  0  0  0  0  0  0
  -22.0230   -4.2800   23.6890 C   0  0  0  0  0  3  0  0  0  0  0  0
  -22.1960   -5.0600   22.5310 C   0  0  0  0  0  0  0  0  0  0  0  0
  -22.7040   -4.4940   21.4100 F   0  0  0  0  0  0  0  0  0  0  0  0
  -21.3040   -4.1030   25.9590 F   0  0  0  0  0  0  0  0  0  0  0  0
  -22.9950  -13.7760   21.0390 C   0  0  0  0  0  0  0  0  0  0  0  0
  -22.2530  -13.0860   21.8980 N   0  0  0  0  0  0  0  0  0  0  0  0
  -22.5590  -14.7900   20.4970 O   0  0  0  0  0  0  0  0  0  0  0  0
  -22.6170  -12.2650   22.3610 H   0  0  0  0  0  0  0  0  0  0  0  0
  -21.3070  -13.3840   22.0970 H   0  0  0  0  0  0  0  0  0  0  0  0
  -25.6200  -15.4600   20.2710 N   0  0  0  0  0  0  0  0  0  0  0  0
  -24.8340  -16.0960   20.3360 H   0  0  0  0  0  0  0  0  0  0  0  0
  -26.4480  -15.9000   19.8910 H   0  0  0  0  0  0  0  0  0  0  0  0
  -27.9220  -22.8500   19.4940 C   0  0  0  0  0  2  0  0  0  0  0  0
  -29.2300  -22.3520   20.0460 C   0  0  0  0  0  3  0  0  0  0  0  0
  -28.5560  -23.7850   20.4930 C   0  0  0  0  0  3  0  0  0  0  0  0
  -28.7670  -25.2820   19.8930 C   0  0  0  0  0  2  0  0  0  0  0  0
  -28.5740  -26.6130   20.5840 O   0  0  0  0  0  0  0  0  0  0  0  0
  -24.6720  -32.0220   23.4640 C   0  0  0  0  0  0  0  0  0  0  0  0
  -27.4460  -27.4680   20.4550 C   0  0  0  0  0  0  0  0  0  0  0  0
  -23.5440  -30.6240   21.7710 C   0  0  0  0  0  3  0  0  0  0  0  0
  -25.0630  -29.0900   20.3800 C   0  0  0  0  0  0  0  0  0  0  0  0
  -26.0880  -30.9550   21.6820 C   0  0  0  0  0  2  0  0  0  0  0  0
  -26.2060  -29.5770   21.0250 C   0  0  0  0  0  0  0  0  0  0  0  0
  -27.3930  -28.7760   21.0550 C   0  0  0  0  0  3  0  0  0  0  0  0
  -26.2780  -27.0490   19.7840 C   0  0  0  0  0  3  0  0  0  0  0  0
  -25.1050  -27.8340   19.7530 C   0  0  0  0  0  3  0  0  0  0  0  0
  -23.8160  -29.9570   20.3950 C   0  0  0  0  0  2  0  0  0  0  0  0
  -24.7850  -31.2220   22.3610 N   0  0  0  0  0  0  0  0  0  0  0  0
  -23.5650  -32.2810   23.9630 O   0  0  0  0  0  0  0  0  0  0  0  0
  -22.8560  -29.5960   22.7010 C   0  0  0  0  0  0  0  0  0  0  0  0
  -21.5400  -29.3900   22.5140 N   0  0  0  0  0  0  0  0  0  0  0  0
  -23.5090  -28.9850   23.5500 O   0  0  0  0  0  0  0  0  0  0  0  0
  -21.0700  -29.9360   21.8050 H   0  0  0  0  0  0  0  0  0  0  0  0
  -18.1680  -28.1280   22.8790 C   0  0  0  0  0  0  0  0  0  0  0  0
  -20.7110  -28.4310   23.2460 C   0  0  0  0  0  3  0  0  0  0  0  0
  -20.8600  -27.0070   22.6620 C   0  0  0  0  0  2  0  0  0  0  0  0
  -19.8030  -26.6740   21.6040 C   0  0  0  0  0  2  0  0  0  0  0  0
  -18.3950  -26.7890   22.1970 C   0  0  0  0  0  2  0  0  0  0  0  0
  -19.2560  -28.9050   23.3570 C   0  0  0  0  0  0  0  0  0  0  0  0
  -18.9930  -30.1590   23.9520 C   0  0  0  0  0  3  0  0  0  0  0  0
  -17.6740  -30.6360   24.0730 C   0  0  0  0  0  3  0  0  0  0  0  0
  -16.6010  -29.8540   23.6120 C   0  0  0  0  0  3  0  0  0  0  0  0
  -16.8480  -28.6020   23.0220 C   0  0  0  0  0  3  0  0  0  0  0  0
  -25.9200  -32.6680   24.1380 C   0  0  0  0  0  3  0  0  0  0  0  0
  -26.3790  -31.9120   25.4460 C   0  0  1  0  0  0  0  0  0  0  0  0
  -25.2310  -31.6390   26.4440 C   0  0  0  0  0  1  0  0  0  0  0  0
  -27.0240  -30.5520   25.0930 C   0  0  0  0  0  1  0  0  0  0  0  0
  -27.4660  -32.7360   26.1740 C   0  0  0  0  0  1  0  0  0  0  0  0
  -25.5890  -34.0680   24.4410 N   0  0  0  0  0  0  0  0  0  0  0  0
  -25.9550  -35.1200   23.6950 C   0  0  0  0  0  0  0  0  0  0  0  0
  -26.6730  -35.0130   22.6980 O   0  0  0  0  0  0  0  0  0  0  0  0
  -24.9530  -34.2280   25.2070 H   0  0  0  0  0  0  0  0  0  0  0  0
  -24.2420  -36.9090   23.2500 C   0  0  0  0  0  1  0  0  0  0  0  0
  -25.4430  -36.5090   24.1220 C   0  0  0  0  0  3  0  0  0  0  0  0
  -27.5290  -37.4050   25.0560 C   0  0  0  0  0  1  0  0  0  0  0  0
  -26.4770  -37.5660   24.0580 N   0  0  0  0  0  0  0  0  0  0  0  0
  -26.0610  -38.4860   24.1790 H   0  0  0  0  0  0  0  0  0  0  0  0
  -27.9090  -18.0770   17.1590 C   0  0  0  0  0  1  0  0  0  0  0  0
  -28.8410  -17.4440   18.2030 C   0  0  0  0  0  2  0  0  0  0  0  0
  1  2  1  0
  3  5  1  0
  4  3  1  0
  4  1  1  0
  5 91  1  0
  5  6  1  0
  6 15  1  0
  6  2  1  0
  7 15  1  0
  8 13  1  0
  9 10  1  0
  9  8  1  0
 11 10  1  0
 11 20  1  0
 11 12  1  0
 13  7  1  0
 13 12  1  0
 14  7  2  0
 15 16  1  0
 17 18  2  0
 18 37  1  0
 19 18  1  0
 19 22  1  0
 20 17  1  0
 20 21  1  0
 21 19  2  0
 22 23  1  0
 23 24  2  0
 25 28  1  0
 25 24  1  0
 26 25  2  0
 27 26  1  0
 27 22  2  0
 28 29  1  0
 29 34  2  0
 29 30  1  0
 30 31  2  0
 32 31  1  0
 32 36  1  0
 33 32  2  0
 34 33  1  0
 35 34  1  0
 37 38  1  0
 38 41  1  0
 38 40  1  0
 39 37  2  0
 42 43  1  0
 42 17  1  0
 44 42  1  0
 45 47  1  0
 46 45  1  0
 46  4  1  0
 46 47  1  0
 47 48  1  0
 48 49  1  0
 50 61  2  0
 51 49  1  0
 51 56  1  0
 52 60  1  0
 52 62  1  0
 53 59  1  0
 53 55  1  0
 54 60  1  0
 55 56  2  0
 55 54  1  0
 57 51  2  0
 58 57  1  0
 58 53  2  0
 59 52  1  0
 60 50  1  0
 62 64  2  0
 63 62  1  0
 65 63  1  0
 66 75  2  0
 66 71  1  0
 67 63  1  0
 67 71  1  0
 68 67  1  0
 69 70  1  0
 69 68  1  0
 70 66  1  0
 71 72  2  0
 72 73  1  0
 74 73  2  0
 75 74  1  0
 76 50  1  0
 76 81  1  0
 76 77  1  0
 77 80  1  1
 77 78  1  0
 79 77  1  0
 81 84  1  0
 82 86  1  0
 82 81  1  0
 83 82  2  0
 86 85  1  0
 88 86  1  0
 88 89  1  0
 88 87  1  0
 90 91  1  0
M  ISO  4   7 100  15 100  48 101  49 101
M  END
>  <TORSDO>  (78) 
F 19

>  <SCORE>  (78) 
-13.373

>  <name>  (78) 
77

>  <ligand_id>  (78) 
77

>  <original_smiles>  (78) 
[H]c1c([H])c([H])c2c(c1[H])C([H])([H])C([H])([H])C([H])([H])C2([H])N([H])C(=O)C1([H])N(C(=O)C([H])(N([H])C(=O)C([H])(N([H])C([H])([H])[H])C([H])([H])[H])C(C([H])([H])[H])(C([H])([H])[H])C([H])([H])[H])C([H])([H])c2c([H])c(OC([H])([H])C3([H])C([H])([H])C3([H])C3([H])C([H])([H])C([H])([H])C([H])(N([H])C(=O)N4C([H])([H])C([H])([H])C([H])([H])C([H])(n5nc(-c6c([H])c([H])c(Oc7c([H])c([H])c(F)c([H])c7F)c([H])c6[H])c(C(=O)N([H])[H])c5N([H])[H])C4([H])[H])C([H])(C([H])([H])C([H])([H])[H])C3([H])[H])c([H])c([H])c2C1([H])[H]

>  <smiles>  (78) 
[H]c1c([H])c([H])c2c(c1[H])C([H])([H])C([H])([H])C([H])([H])C2([H])N([H])C(=O)C1([H])N(C(=O)C([H])(N([H])C(=O)C([H])(N([H])C([H])([H])[H])C([H])([H])[H])C(C([H])([H])[H])(C([H])([H])[H])C([H])([H])[H])C([H])([H])c2c([H])c(OC([H])([H])C3([H])C([H])([H])C3([H])C3([H])C([H])([H])C([H])([H])C([H])(N([H])C(=O)N4C([H])([H])C([H])([H])C([H])([H])C([H])(n5nc(-c6c([H])c([H])c(Oc7c([H])c([H])c(F)c([H])c7F)c([H])c6[H])c(C(=O)N([H])[H])c5N([H])[H])C4([H])[H])C([H])(C([H])([H])C([H])([H])[H])C3([H])[H])c([H])c([H])c2C1([H])[H]

$$$$
78:0:0
     RDKit          3D

 90 99  0  0  1  0  0  0  0  0999 V2000
  -28.8090  -21.2570   21.5350 C   0  0  0  0  0  2  0  0  0  0  0  0
  -29.1280  -21.5610   19.2180 C   0  0  0  0  0  2  0  0  0  0  0  0
  -28.6760  -19.8320   20.8950 C   0  0  0  0  0  3  0  0  0  0  0  0
  -28.9500  -20.0160   19.4540 C   0  0  0  0  0  3  0  0  0  0  0  0
  -29.7770  -18.9240   20.2510 C   0  0  0  0  0  3  0  0  0  0  0  0
  -29.0560  -22.3340   20.5020 N   0  0  1  0  0  4  0  0  0  0  0  0
  -30.0110  -22.6160   20.6690 H   0  0  0  0  0  0  0  0  0  0  0  0
  -30.4100  -17.3130   18.3550 C   0  0  0  0  0  1  0  0  0  0  0  0
  -29.6840  -17.3830   19.7130 C   0  0  0  0  0  0  0  0  0  0  0  0
  -30.6770  -14.9160   20.2730 C   0  0  0  0  0  0  0  0  0  0  0  0
  -30.5180  -12.6040   19.3170 C   0  0  0  0  0  2  0  0  0  0  0  0
  -29.5960  -12.6630   18.0780 C   0  0  0  0  0  2  0  0  0  0  0  0
  -28.1220  -12.4810   18.4920 C   0  0  0  0  0  2  0  0  0  0  0  0
  -27.7330  -13.3720   19.7040 C   0  0  0  0  0  3  0  0  0  0  0  0
  -28.7830  -13.3010   20.8370 C   0  0  0  0  0  2  0  0  0  0  0  0
  -30.0820  -13.6670   20.2590 N   0  0  0  0  0  0  0  0  0  0  0  0
  -31.8480  -15.0190   19.8980 O   0  0  0  0  0  0  0  0  0  0  0  0
  -29.8740  -16.0450   20.4870 N   0  0  0  0  0  4  0  0  0  0  0  0
  -29.0300  -15.7840   20.9770 H   0  0  0  0  0  0  0  0  0  0  0  0
  -25.3370  -13.9570   20.4040 C   0  0  0  0  0  0  0  0  0  0  0  0
  -24.2720  -13.1830   20.7780 C   0  0  0  0  0  0  0  0  0  0  0  0
  -24.7430  -11.8350   20.7710 C   0  0  0  0  0  0  0  0  0  0  0  0
  -26.3860  -13.0810   20.1870 N   0  0  0  0  0  0  0  0  0  0  0  0
  -26.0370  -11.7990   20.4720 N   0  0  0  0  0  0  0  0  0  0  0  0
  -24.0200  -10.5720   20.9750 C   0  0  0  0  0  0  0  0  0  0  0  0
  -24.4520   -9.6170   21.9220 C   0  0  0  0  0  3  0  0  0  0  0  0
  -23.7280   -8.4200   22.1140 C   0  0  0  0  0  3  0  0  0  0  0  0
  -22.5610   -8.1690   21.3570 C   0  0  0  0  0  0  0  0  0  0  0  0
  -22.1480   -9.1110   20.3980 C   0  0  0  0  0  3  0  0  0  0  0  0
  -22.8720  -10.3000   20.2050 C   0  0  0  0  0  3  0  0  0  0  0  0
  -21.8110   -7.0210   21.4560 O   0  0  0  0  0  0  0  0  0  0  0  0
  -21.7600   -6.2910   22.6160 C   0  0  0  0  0  0  0  0  0  0  0  0
  -21.3320   -6.8590   23.8360 C   0  0  0  0  0  3  0  0  0  0  0  0
  -21.2290   -6.0550   24.9900 C   0  0  0  0  0  3  0  0  0  0  0  0
  -21.5450   -4.6850   24.9240 C   0  0  0  0  0  0  0  0  0  0  0  0
  -21.9660   -4.1170   23.7090 C   0  0  0  0  0  3  0  0  0  0  0  0
  -22.0700   -4.9180   22.5580 C   0  0  0  0  0  0  0  0  0  0  0  0
  -22.4560   -4.3600   21.3850 F   0  0  0  0  0  0  0  0  0  0  0  0
  -21.4390   -3.9120   26.0300 F   0  0  0  0  0  0  0  0  0  0  0  0
  -22.8710  -13.6580   21.0300 C   0  0  0  0  0  0  0  0  0  0  0  0
  -22.1380  -12.9740   21.9040 N   0  0  0  0  0  0  0  0  0  0  0  0
  -22.4320  -14.6710   20.4880 O   0  0  0  0  0  0  0  0  0  0  0  0
  -22.5040  -12.1540   22.3650 H   0  0  0  0  0  0  0  0  0  0  0  0
  -21.1980  -13.2770   22.1150 H   0  0  0  0  0  0  0  0  0  0  0  0
  -25.4940  -15.3270   20.2070 N   0  0  0  0  0  0  0  0  0  0  0  0
  -24.7180  -15.9750   20.2990 H   0  0  0  0  0  0  0  0  0  0  0  0
  -26.3360  -15.7660   19.8570 H   0  0  0  0  0  0  0  0  0  0  0  0
  -28.2210  -23.6590   20.6460 C   0  0  0  0  0  2  0  0  0  0  0  0
  -28.4760  -25.0120   19.7560 C   0  0  0  0  0  2  0  0  0  0  0  0
  -28.3550  -26.4420   20.2730 O   0  0  0  0  0  0  0  0  0  0  0  0
  -24.6090  -31.9210   23.2330 C   0  0  0  0  0  0  0  0  0  0  0  0
  -27.2280  -27.3030   20.1820 C   0  0  0  0  0  0  0  0  0  0  0  0
  -23.4120  -30.5190   21.5920 C   0  0  0  0  0  3  0  0  0  0  0  0
  -24.8660  -28.9600   20.1620 C   0  0  0  0  0  0  0  0  0  0  0  0
  -25.9540  -30.8250   21.4140 C   0  0  0  0  0  2  0  0  0  0  0  0
  -26.0350  -29.4400   20.7630 C   0  0  0  0  0  0  0  0  0  0  0  0
  -27.2130  -28.6240   20.7600 C   0  0  0  0  0  3  0  0  0  0  0  0
  -26.0320  -26.8920   19.5520 C   0  0  0  0  0  3  0  0  0  0  0  0
  -24.8710  -27.6970   19.5450 C   0  0  0  0  0  3  0  0  0  0  0  0
  -23.6300  -29.8410   20.2120 C   0  0  0  0  0  2  0  0  0  0  0  0
  -24.6780  -31.1090   22.1350 N   0  0  0  0  0  0  0  0  0  0  0  0
  -23.5240  -32.1960   23.7670 O   0  0  0  0  0  0  0  0  0  0  0  0
  -22.7460  -29.5060   22.5540 C   0  0  0  0  0  0  0  0  0  0  0  0
  -21.4190  -29.3300   22.4310 N   0  0  0  0  0  0  0  0  0  0  0  0
  -23.4250  -28.8790   23.3730 O   0  0  0  0  0  0  0  0  0  0  0  0
  -20.9290  -29.8850   21.7440 H   0  0  0  0  0  0  0  0  0  0  0  0
  -18.0430  -28.1290   22.9430 C   0  0  0  0  0  0  0  0  0  0  0  0
  -20.6030  -28.3890   23.2020 C   0  0  0  0  0  3  0  0  0  0  0  0
  -20.7030  -26.9600   22.6210 C   0  0  0  0  0  2  0  0  0  0  0  0
  -19.5970  -26.6410   21.6100 C   0  0  0  0  0  2  0  0  0  0  0  0
  -18.2170  -26.7830   22.2610 C   0  0  0  0  0  2  0  0  0  0  0  0
  -19.1630  -28.8900   23.3710 C   0  0  0  0  0  0  0  0  0  0  0  0
  -18.9460  -30.1490   23.9710 C   0  0  0  0  0  3  0  0  0  0  0  0
  -17.6420  -30.6490   24.1460 C   0  0  0  0  0  3  0  0  0  0  0  0
  -16.5360  -29.8860   23.7340 C   0  0  0  0  0  3  0  0  0  0  0  0
  -16.7370  -28.6270   23.1390 C   0  0  0  0  0  3  0  0  0  0  0  0
  -25.8870  -32.5600   23.8570 C   0  0  0  0  0  3  0  0  0  0  0  0
  -26.3970  -31.8010   25.1440 C   0  0  1  0  0  0  0  0  0  0  0  0
  -25.2980  -31.5750   26.2100 C   0  0  0  0  0  1  0  0  0  0  0  0
  -26.9800  -30.4190   24.7710 C   0  0  0  0  0  1  0  0  0  0  0  0
  -27.5440  -32.6010   25.8050 C   0  0  0  0  0  1  0  0  0  0  0  0
  -25.5750  -33.9620   24.1780 N   0  0  0  0  0  0  0  0  0  0  0  0
  -25.9140  -35.0120   23.4200 C   0  0  0  0  0  0  0  0  0  0  0  0
  -26.5920  -34.9050   22.3950 O   0  0  0  0  0  0  0  0  0  0  0  0
  -24.9730  -34.1180   24.9730 H   0  0  0  0  0  0  0  0  0  0  0  0
  -24.1960  -36.8120   23.0480 C   0  0  0  0  0  1  0  0  0  0  0  0
  -25.4280  -36.4040   23.8710 C   0  0  0  0  0  3  0  0  0  0  0  0
  -27.5570  -37.2860   24.7220 C   0  0  0  0  0  1  0  0  0  0  0  0
  -26.4640  -37.4530   23.7660 N   0  0  0  0  0  0  0  0  0  0  0  0
  -26.0590  -38.3750   23.9070 H   0  0  0  0  0  0  0  0  0  0  0  0
  2  6  1  0
  3  1  1  0
  4  2  1  0
  4  5  1  0
  4  3  1  0
  5  9  1  0
  5  3  1  0
  6 48  1  0
  6  7  1  1
  6  1  1  0
  8  9  1  0
  9 18  2  0
 10 18  1  0
 11 16  1  0
 12 13  1  0
 12 11  1  0
 14 13  1  0
 14 23  1  0
 14 15  1  0
 16 10  1  0
 16 15  1  0
 17 10  2  0
 18 19  1  0
 20 21  2  0
 21 40  1  0
 22 21  1  0
 22 25  1  0
 23 20  1  0
 23 24  1  0
 24 22  2  0
 25 26  1  0
 26 27  2  0
 28 31  1  0
 28 27  1  0
 29 28  2  0
 30 29  1  0
 30 25  2  0
 31 32  1  0
 32 33  1  0
 33 34  2  0
 35 34  1  0
 35 39  1  0
 36 35  2  0
 37 32  2  0
 37 36  1  0
 38 37  1  0
 40 41  1  0
 41 44  1  0
 41 43  1  0
 42 40  2  0
 45 46  1  0
 45 20  1  0
 47 45  1  0
 49 50  1  0
 49 48  1  0
 51 62  2  0
 52 50  1  0
 52 57  1  0
 53 61  1  0
 53 63  1  0
 54 60  1  0
 54 56  1  0
 55 61  1  0
 56 55  1  0
 57 56  2  0
 58 52  2  0
 59 58  1  0
 59 54  2  0
 60 53  1  0
 61 51  1  0
 63 65  2  0
 64 63  1  0
 66 64  1  0
 67 76  2  0
 67 72  1  0
 68 64  1  0
 68 72  1  0
 69 68  1  0
 70 71  1  0
 70 69  1  0
 71 67  1  0
 72 73  2  0
 73 74  1  0
 75 74  2  0
 76 75  1  0
 77 51  1  0
 77 82  1  0
 77 78  1  0
 78 81  1  1
 78 79  1  0
 80 78  1  0
 82 85  1  0
 83 87  1  0
 83 82  1  0
 84 83  2  0
 87 86  1  0
 89 87  1  0
 89 90  1  0
 89 88  1  0
M  ISO  4  10 100  18 100  49 101  50 101
M  END
>  <TORSDO>  (79) 
F 19

>  <SCORE>  (79) 
-13.942

>  <name>  (79) 
78

>  <ligand_id>  (79) 
78

>  <original_smiles>  (79) 
[H]c1c([H])c([H])c2c(c1[H])C([H])([H])C([H])([H])C([H])([H])C2([H])N([H])C(=O)C1([H])N(C(=O)C([H])(N([H])C(=O)C([H])(N([H])C([H])([H])[H])C([H])([H])[H])C(C([H])([H])[H])(C([H])([H])[H])C([H])([H])[H])C([H])([H])c2c([H])c(OC([H])([H])C([H])([H])[N+]3([H])C([H])([H])C4([H])C([H])(C([H])(N([H])C(=O)N5C([H])([H])C([H])([H])C([H])([H])C([H])(n6nc(-c7c([H])c([H])c(Oc8c([H])c([H])c(F)c([H])c8F)c([H])c7[H])c(C(=O)N([H])[H])c6N([H])[H])C5([H])[H])C([H])([H])[H])C4([H])C3([H])[H])c([H])c([H])c2C1([H])[H]

>  <smiles>  (79) 
[H]c1c([H])c([H])c2c(c1[H])C([H])([H])C([H])([H])C([H])([H])C2([H])N([H])C(=O)C1([H])N(C(=O)C([H])(N([H])C(=O)C([H])(N([H])C([H])([H])[H])C([H])([H])[H])C(C([H])([H])[H])(C([H])([H])[H])C([H])([H])[H])C([H])([H])c2c([H])c(OC([H])([H])C([H])([H])[N+]3([H])C([H])([H])C4([H])C([H])(C([H])(N([H])C(=O)N5C([H])([H])C([H])([H])C([H])([H])C([H])(n6nc(-c7c([H])c([H])c(Oc8c([H])c([H])c(F)c([H])c8F)c([H])c7[H])c(C(=O)N([H])[H])c6N([H])[H])C5([H])[H])C([H])([H])[H])C4([H])C3([H])[H])c([H])c([H])c2C1([H])[H]

$$$$
79:0:0
     RDKit          3D

 89 99  0  0  1  0  0  0  0  0999 V2000
  -28.1130  -21.5320   18.7480 C   0  0  0  0  0  2  0  0  0  0  0  0
  -29.1180  -21.3100   19.5950 C   0  0  2  0  0  0  0  0  0  0  0  0
  -27.6650  -22.9910   18.8530 C   0  0  0  0  0  2  0  0  0  0  0  0
  -29.2530  -21.2740   21.4880 C   0  0  0  0  0  3  0  0  0  0  0  0
  -29.5420  -22.4650   20.4700 C   0  0  0  0  0  3  0  0  0  0  0  0
  -29.7230  -20.1600   20.4410 C   0  0  0  0  0  3  0  0  0  0  0  0
  -28.6870  -23.6840   19.8210 C   0  0  0  0  0  3  0  0  0  0  0  0
  -29.1750  -18.6290   20.3720 C   0  0  0  0  0  3  0  0  0  0  0  0
  -30.2400  -17.3990   20.5150 C   0  0  0  0  0  3  0  0  0  0  0  0
  -30.5740  -14.7840   20.3250 C   0  0  0  0  0  0  0  0  0  0  0  0
  -30.3740  -12.5110   19.3000 C   0  0  0  0  0  2  0  0  0  0  0  0
  -29.4210  -12.5860   18.0870 C   0  0  0  0  0  2  0  0  0  0  0  0
  -27.9560  -12.4100   18.5290 C   0  0  0  0  0  2  0  0  0  0  0  0
  -27.5930  -13.2850   19.7600 C   0  0  0  0  0  3  0  0  0  0  0  0
  -28.6650  -13.1930   20.8680 C   0  0  0  0  0  2  0  0  0  0  0  0
  -29.9500  -13.5570   20.2590 N   0  0  0  0  0  0  0  0  0  0  0  0
  -31.7600  -14.8820   19.9990 O   0  0  0  0  0  0  0  0  0  0  0  0
  -29.8060  -15.9230   20.5460 N   0  0  0  0  0  0  0  0  0  0  0  0
  -28.8330  -15.7510   20.7530 H   0  0  0  0  0  0  0  0  0  0  0  0
  -25.2120  -13.8610   20.5170 C   0  0  0  0  0  0  0  0  0  0  0  0
  -24.1550  -13.0810   20.8940 C   0  0  0  0  0  0  0  0  0  0  0  0
  -24.6220  -11.7310   20.8510 C   0  0  0  0  0  0  0  0  0  0  0  0
  -26.2570  -12.9870   20.2640 N   0  0  0  0  0  0  0  0  0  0  0  0
  -25.9100  -11.7010   20.5290 N   0  0  0  0  0  0  0  0  0  0  0  0
  -23.9030  -10.4650   21.0420 C   0  0  0  0  0  0  0  0  0  0  0  0
  -24.3450   -9.4970   21.9700 C   0  0  0  0  0  3  0  0  0  0  0  0
  -23.6250   -8.2970   22.1490 C   0  0  0  0  0  3  0  0  0  0  0  0
  -22.4490   -8.0560   21.4000 C   0  0  0  0  0  0  0  0  0  0  0  0
  -22.0260   -9.0120   20.4600 C   0  0  0  0  0  3  0  0  0  0  0  0
  -22.7460  -10.2050   20.2790 C   0  0  0  0  0  3  0  0  0  0  0  0
  -21.6990   -6.9080   21.4890 O   0  0  0  0  0  0  0  0  0  0  0  0
  -21.6540   -6.1650   22.6400 C   0  0  0  0  0  0  0  0  0  0  0  0
  -21.2140   -6.7150   23.8650 C   0  0  0  0  0  3  0  0  0  0  0  0
  -21.1160   -5.8980   25.0090 C   0  0  0  0  0  3  0  0  0  0  0  0
  -21.4480   -4.5320   24.9300 C   0  0  0  0  0  0  0  0  0  0  0  0
  -21.8810   -3.9820   23.7110 C   0  0  0  0  0  3  0  0  0  0  0  0
  -21.9810   -4.7960   22.5690 C   0  0  0  0  0  0  0  0  0  0  0  0
  -22.3790   -4.2560   21.3920 F   0  0  0  0  0  0  0  0  0  0  0  0
  -21.3470   -3.7450   26.0260 F   0  0  0  0  0  0  0  0  0  0  0  0
  -22.7580  -13.5510   21.1800 C   0  0  0  0  0  0  0  0  0  0  0  0
  -22.0390  -12.8450   22.0460 N   0  0  0  0  0  0  0  0  0  0  0  0
  -22.3120  -14.5780   20.6700 O   0  0  0  0  0  0  0  0  0  0  0  0
  -22.4140  -12.0150   22.4790 H   0  0  0  0  0  0  0  0  0  0  0  0
  -21.1020  -13.1410   22.2790 H   0  0  0  0  0  0  0  0  0  0  0  0
  -25.3670  -15.2340   20.3440 N   0  0  0  0  0  0  0  0  0  0  0  0
  -24.5920  -15.8780   20.4560 H   0  0  0  0  0  0  0  0  0  0  0  0
  -26.1970  -15.6780   19.9720 H   0  0  0  0  0  0  0  0  0  0  0  0
  -28.1600  -24.9740   20.6640 C   0  0  0  0  0  2  0  0  0  0  0  0
  -28.3240  -26.4000   20.1920 O   0  0  0  0  0  0  0  0  0  0  0  0
  -24.6090  -31.8830   23.2250 C   0  0  0  0  0  0  0  0  0  0  0  0
  -27.2190  -27.2810   20.1890 C   0  0  0  0  0  0  0  0  0  0  0  0
  -23.4100  -30.4830   21.5840 C   0  0  0  0  0  3  0  0  0  0  0  0
  -24.8620  -28.9220   20.1640 C   0  0  0  0  0  0  0  0  0  0  0  0
  -25.9520  -30.7920   21.4040 C   0  0  0  0  0  2  0  0  0  0  0  0
  -26.0340  -29.4070   20.7600 C   0  0  0  0  0  0  0  0  0  0  0  0
  -27.2180  -28.6010   20.7550 C   0  0  0  0  0  3  0  0  0  0  0  0
  -26.0270  -26.8570   19.5680 C   0  0  0  0  0  3  0  0  0  0  0  0
  -24.8640  -27.6540   19.5570 C   0  0  0  0  0  3  0  0  0  0  0  0
  -23.6280  -29.8020   20.2070 C   0  0  0  0  0  2  0  0  0  0  0  0
  -24.6770  -31.0720   22.1270 N   0  0  0  0  0  0  0  0  0  0  0  0
  -23.5250  -32.1590   23.7570 O   0  0  0  0  0  0  0  0  0  0  0  0
  -22.7440  -29.4690   22.5460 C   0  0  0  0  0  0  0  0  0  0  0  0
  -21.4190  -29.2900   22.4180 N   0  0  0  0  0  0  0  0  0  0  0  0
  -23.4210  -28.8450   23.3680 O   0  0  0  0  0  0  0  0  0  0  0  0
  -20.9290  -29.8440   21.7290 H   0  0  0  0  0  0  0  0  0  0  0  0
  -18.0430  -28.0840   22.9170 C   0  0  0  0  0  0  0  0  0  0  0  0
  -20.6000  -28.3510   23.1890 C   0  0  0  0  0  3  0  0  0  0  0  0
  -20.7060  -26.9190   22.6170 C   0  0  0  0  0  2  0  0  0  0  0  0
  -19.6070  -26.5920   21.6020 C   0  0  0  0  0  2  0  0  0  0  0  0
  -18.2240  -26.7340   22.2430 C   0  0  0  0  0  2  0  0  0  0  0  0
  -19.1590  -28.8500   23.3470 C   0  0  0  0  0  0  0  0  0  0  0  0
  -18.9350  -30.1120   23.9380 C   0  0  0  0  0  3  0  0  0  0  0  0
  -17.6290  -30.6100   24.1020 C   0  0  0  0  0  3  0  0  0  0  0  0
  -16.5270  -29.8410   23.6860 C   0  0  0  0  0  3  0  0  0  0  0  0
  -16.7360  -28.5800   23.1010 C   0  0  0  0  0  3  0  0  0  0  0  0
  -25.8890  -32.5180   23.8490 C   0  0  0  0  0  3  0  0  0  0  0  0
  -26.4020  -31.7520   25.1310 C   0  0  1  0  0  0  0  0  0  0  0  0
  -25.3060  -31.5200   26.1970 C   0  0  0  0  0  1  0  0  0  0  0  0
  -26.9860  -30.3710   24.7480 C   0  0  0  0  0  1  0  0  0  0  0  0
  -27.5510  -32.5490   25.7920 C   0  0  0  0  0  1  0  0  0  0  0  0
  -25.5780  -33.9170   24.1760 N   0  0  0  0  0  0  0  0  0  0  0  0
  -25.9100  -34.9700   23.4170 C   0  0  0  0  0  0  0  0  0  0  0  0
  -26.5810  -34.8660   22.3860 O   0  0  0  0  0  0  0  0  0  0  0  0
  -24.9830  -34.0720   24.9760 H   0  0  0  0  0  0  0  0  0  0  0  0
  -24.1880  -36.7680   23.0550 C   0  0  0  0  0  1  0  0  0  0  0  0
  -25.4240  -36.3600   23.8730 C   0  0  0  0  0  3  0  0  0  0  0  0
  -27.5560  -37.2440   24.7150 C   0  0  0  0  0  1  0  0  0  0  0  0
  -26.4590  -37.4110   23.7640 N   0  0  0  0  0  0  0  0  0  0  0  0
  -26.0530  -38.3330   23.9070 H   0  0  0  0  0  0  0  0  0  0  0  0
  1  3  1  0
  2  1  1  6
  2  6  1  0
  2  5  1  0
  2  4  1  0
  3  7  1  0
  5  4  1  0
  6  4  1  0
  7  5  1  0
  7 48  1  0
  8  6  1  0
  8  9  2  0
  9 18  1  0
 10 18  1  0
 11 16  1  0
 12 13  1  0
 12 11  1  0
 13 14  1  0
 14 23  1  0
 14 15  1  0
 16 10  1  0
 16 15  1  0
 17 10  2  0
 18 19  1  0
 20 21  2  0
 21 40  1  0
 22 21  1  0
 22 25  1  0
 23 20  1  0
 23 24  1  0
 24 22  2  0
 25 26  1  0
 26 27  2  0
 28 31  1  0
 28 27  1  0
 29 28  2  0
 30 29  1  0
 30 25  2  0
 31 32  1  0
 32 33  1  0
 33 34  2  0
 35 34  1  0
 35 39  1  0
 36 35  2  0
 37 32  2  0
 37 36  1  0
 38 37  1  0
 40 41  1  0
 41 44  1  0
 41 43  1  0
 42 40  2  0
 45 46  1  0
 45 20  1  0
 47 45  1  0
 49 48  1  0
 50 61  2  0
 50 76  1  0
 51 49  1  0
 51 56  1  0
 52 60  1  0
 52 62  1  0
 53 59  1  0
 53 55  1  0
 54 60  1  0
 55 54  1  0
 56 55  2  0
 57 51  2  0
 58 57  1  0
 58 53  2  0
 59 52  1  0
 60 50  1  0
 62 64  2  0
 63 62  1  0
 63 67  1  0
 65 63  1  0
 66 75  2  0
 66 71  1  0
 67 71  1  0
 68 67  1  0
 69 70  1  0
 69 68  1  0
 70 66  1  0
 71 72  2  0
 72 73  1  0
 74 73  2  0
 75 74  1  0
 76 81  1  0
 76 77  1  0
 77 80  1  1
 77 78  1  0
 79 77  1  0
 81 84  1  0
 82 86  1  0
 82 81  1  0
 83 82  2  0
 85 86  1  0
 88 86  1  0
 88 89  1  0
 88 87  1  0
M  ISO  4  10 100  18 100  48 101  49 101
M  END
>  <TORSDO>  (80) 
F 19

>  <SCORE>  (80) 
-14.258

>  <name>  (80) 
79

>  <ligand_id>  (80) 
79

>  <original_smiles>  (80) 
[H]C1=C2C([H])(C([H])([H])C([H])([H])N([H])C(=O)N3C([H])([H])C([H])([H])C([H])([H])C([H])(n4nc(-c5c([H])c([H])c(Oc6c([H])c([H])c(F)c([H])c6F)c([H])c5[H])c(C(=O)N([H])[H])c4N([H])[H])C3([H])[H])C([H])([H])C2([H])C([H])(C([H])([H])Oc2c([H])c([H])c3c(c2[H])C([H])([H])N(C(=O)C([H])(N([H])C(=O)C([H])(N([H])C([H])([H])[H])C([H])([H])[H])C(C([H])([H])[H])(C([H])([H])[H])C([H])([H])[H])C([H])(C(=O)N([H])C2([H])c4c([H])c([H])c([H])c([H])c4C([H])([H])C([H])([H])C2([H])[H])C3([H])[H])C1([H])[H]

>  <smiles>  (80) 
[H]C1=C2C([H])(C([H])([H])C([H])([H])N([H])C(=O)N3C([H])([H])C([H])([H])C([H])([H])C([H])(n4nc(-c5c([H])c([H])c(Oc6c([H])c([H])c(F)c([H])c6F)c([H])c5[H])c(C(=O)N([H])[H])c4N([H])[H])C3([H])[H])C([H])([H])C2([H])C([H])(C([H])([H])Oc2c([H])c([H])c3c(c2[H])C([H])([H])N(C(=O)C([H])(N([H])C(=O)C([H])(N([H])C([H])([H])[H])C([H])([H])[H])C(C([H])([H])[H])(C([H])([H])[H])C([H])([H])[H])C([H])(C(=O)N([H])C2([H])c4c([H])c([H])c([H])c([H])c4C([H])([H])C([H])([H])C2([H])[H])C3([H])[H])C1([H])[H]

$$$$
80:0:0
     RDKit          3D

 87 96  0  0  1  0  0  0  0  0999 V2000
  -30.3490  -19.9280   20.4150 C   0  0  0  0  0  3  0  0  0  0  0  0
  -28.0540  -19.5460   20.0210 C   0  0  0  0  0  3  0  0  0  0  0  0
  -29.7060  -23.0280   20.1430 C   0  0  0  0  0  3  0  0  0  0  0  0
  -27.4000  -22.6450   20.2580 C   0  0  0  0  0  3  0  0  0  0  0  0
  -29.5750  -21.4270   20.7080 C   0  0  0  0  0  0  0  0  0  0  0  0
  -28.1250  -21.1370   20.6190 C   0  0  0  0  0  0  0  0  0  0  0  0
  -29.4380  -18.5750   20.0070 C   0  0  0  0  0  0  0  0  0  0  0  0
  -28.3390  -24.0190   20.0010 C   0  0  0  0  0  0  0  0  0  0  0  0
  -30.3270  -15.5520   20.2070 C   0  0  0  0  0  0  0  0  0  0  0  0
  -30.3860  -13.0390   19.3900 C   0  0  0  0  0  2  0  0  0  0  0  0
  -29.4880  -12.7320   18.1580 C   0  0  0  0  0  2  0  0  0  0  0  0
  -28.0480  -12.4190   18.5940 C   0  0  0  0  0  2  0  0  0  0  0  0
  -27.5640  -13.3980   19.6890 C   0  0  0  0  0  3  0  0  0  0  0  0
  -28.5960  -13.6290   20.8170 C   0  0  0  0  0  2  0  0  0  0  0  0
  -29.8030  -14.2020   20.1860 N   0  0  0  0  0  0  0  0  0  0  0  0
  -31.5380  -15.5320   19.9290 O   0  0  0  0  0  0  0  0  0  0  0  0
  -29.5460  -16.8610   20.3630 N   0  0  0  0  0  0  0  0  0  0  0  0
  -28.6330  -16.5740   20.6890 H   0  0  0  0  0  0  0  0  0  0  0  0
  -25.1900  -13.9360   20.4250 C   0  0  0  0  0  0  0  0  0  0  0  0
  -24.1310  -13.1550   20.7940 C   0  0  0  0  0  0  0  0  0  0  0  0
  -24.6080  -11.8070   20.7800 C   0  0  0  0  0  0  0  0  0  0  0  0
  -26.2390  -13.0660   20.1950 N   0  0  0  0  0  0  0  0  0  0  0  0
  -25.9030  -11.7800   20.4780 N   0  0  0  0  0  0  0  0  0  0  0  0
  -23.8850  -10.5440   20.9770 C   0  0  0  0  0  0  0  0  0  0  0  0
  -24.3130   -9.5850   21.9210 C   0  0  0  0  0  3  0  0  0  0  0  0
  -23.5860   -8.3890   22.1080 C   0  0  0  0  0  3  0  0  0  0  0  0
  -22.4170   -8.1420   21.3490 C   0  0  0  0  0  0  0  0  0  0  0  0
  -22.0090   -9.0890   20.3930 C   0  0  0  0  0  3  0  0  0  0  0  0
  -22.7360  -10.2770   20.2060 C   0  0  0  0  0  3  0  0  0  0  0  0
  -21.6630   -6.9980   21.4440 O   0  0  0  0  0  0  0  0  0  0  0  0
  -21.6120   -6.2630   22.6020 C   0  0  0  0  0  0  0  0  0  0  0  0
  -21.1670   -6.8220   23.8200 C   0  0  0  0  0  3  0  0  0  0  0  0
  -21.0640   -6.0130   24.9690 C   0  0  0  0  0  3  0  0  0  0  0  0
  -21.3950   -4.6470   24.9020 C   0  0  0  0  0  0  0  0  0  0  0  0
  -21.8330   -4.0870   23.6890 C   0  0  0  0  0  3  0  0  0  0  0  0
  -21.9370   -4.8930   22.5420 C   0  0  0  0  0  0  0  0  0  0  0  0
  -22.3390   -4.3430   21.3700 F   0  0  0  0  0  0  0  0  0  0  0  0
  -21.2900   -3.8680   26.0040 F   0  0  0  0  0  0  0  0  0  0  0  0
  -22.7300  -13.6280   21.0440 C   0  0  0  0  0  0  0  0  0  0  0  0
  -21.9990  -12.9430   21.9170 N   0  0  0  0  0  0  0  0  0  0  0  0
  -22.2920  -14.6410   20.5010 O   0  0  0  0  0  0  0  0  0  0  0  0
  -22.3670  -12.1230   22.3770 H   0  0  0  0  0  0  0  0  0  0  0  0
  -21.0580  -13.2430   22.1280 H   0  0  0  0  0  0  0  0  0  0  0  0
  -25.3420  -15.3050   20.2300 N   0  0  0  0  0  0  0  0  0  0  0  0
  -24.5620  -15.9490   20.3160 H   0  0  0  0  0  0  0  0  0  0  0  0
  -26.1730  -15.7400   19.8510 H   0  0  0  0  0  0  0  0  0  0  0  0
  -28.2280  -25.7090   20.3520 O   0  0  0  0  0  0  0  0  0  0  0  0
  -24.6770  -31.8440   23.2440 C   0  0  0  0  0  0  0  0  0  0  0  0
  -27.2210  -26.8550   20.2310 C   0  0  0  0  0  0  0  0  0  0  0  0
  -23.4850  -30.4490   21.6040 C   0  0  0  0  0  3  0  0  0  0  0  0
  -24.9330  -28.8200   20.1780 C   0  0  0  0  0  0  0  0  0  0  0  0
  -26.0580  -30.6220   21.4700 C   0  0  0  0  0  2  0  0  0  0  0  0
  -26.1230  -29.2000   20.8100 C   0  0  0  0  0  0  0  0  0  0  0  0
  -27.2510  -28.2400   20.8090 C   0  0  0  0  0  3  0  0  0  0  0  0
  -26.0020  -26.6600   19.5400 C   0  0  0  0  0  3  0  0  0  0  0  0
  -24.9060  -27.5760   19.5210 C   0  0  0  0  0  3  0  0  0  0  0  0
  -23.7190  -29.7570   20.2280 C   0  0  0  0  0  2  0  0  0  0  0  0
  -24.7620  -31.0030   22.1590 N   0  0  0  0  0  0  0  0  0  0  0  0
  -23.5860  -32.1380   23.7610 O   0  0  0  0  0  0  0  0  0  0  0  0
  -22.7810  -29.4630   22.5740 C   0  0  0  0  0  0  0  0  0  0  0  0
  -21.4490  -29.3020   22.4490 N   0  0  0  0  0  0  0  0  0  0  0  0
  -23.4410  -28.8420   23.4090 O   0  0  0  0  0  0  0  0  0  0  0  0
  -20.9660  -29.8540   21.7540 H   0  0  0  0  0  0  0  0  0  0  0  0
  -18.0680  -28.0740   22.9490 C   0  0  0  0  0  0  0  0  0  0  0  0
  -20.6250  -28.3630   23.2200 C   0  0  0  0  0  3  0  0  0  0  0  0
  -20.7400  -26.9290   22.6520 C   0  0  0  0  0  2  0  0  0  0  0  0
  -19.6450  -26.5940   21.6340 C   0  0  0  0  0  2  0  0  0  0  0  0
  -18.2600  -26.7270   22.2720 C   0  0  0  0  0  2  0  0  0  0  0  0
  -19.1790  -28.8490   23.3800 C   0  0  0  0  0  0  0  0  0  0  0  0
  -18.9430  -30.1070   23.9770 C   0  0  0  0  0  3  0  0  0  0  0  0
  -17.6320  -30.5890   24.1440 C   0  0  0  0  0  3  0  0  0  0  0  0
  -16.5370  -29.8140   23.7270 C   0  0  0  0  0  3  0  0  0  0  0  0
  -16.7560  -28.5570   23.1360 C   0  0  0  0  0  3  0  0  0  0  0  0
  -25.9430  -32.4910   23.8820 C   0  0  0  0  0  3  0  0  0  0  0  0
  -25.6210  -33.8910   24.2230 N   0  0  0  0  0  0  0  0  0  0  0  0
  -25.9350  -34.9580   23.4770 C   0  0  0  0  0  0  0  0  0  0  0  0
  -26.5830  -34.8690   22.4320 O   0  0  0  0  0  0  0  0  0  0  0  0
  -25.0410  -34.0320   25.0360 H   0  0  0  0  0  0  0  0  0  0  0  0
  -24.1800  -36.7470   23.2040 C   0  0  0  0  0  1  0  0  0  0  0  0
  -25.4550  -36.3420   23.9630 C   0  0  0  0  0  3  0  0  0  0  0  0
  -27.6100  -37.2490   24.7190 C   0  0  0  0  0  1  0  0  0  0  0  0
  -26.4740  -37.4060   23.8150 N   0  0  0  0  0  0  0  0  0  0  0  0
  -26.0640  -38.3220   23.9770 H   0  0  0  0  0  0  0  0  0  0  0  0
  -26.4450  -31.7280   25.1710 C   0  0  1  0  0  0  0  0  0  0  0  0
  -25.3420  -31.5020   26.2320 C   0  0  0  0  0  1  0  0  0  0  0  0
  -27.0280  -30.3450   24.8040 C   0  0  0  0  0  1  0  0  0  0  0  0
  -27.5930  -32.5230   25.8380 C   0  0  0  0  0  1  0  0  0  0  0  0
  1  5  1  0
  2  6  2  0
  3  5  2  0
  4  6  1  0
  6  5  1  0
  7  2  1  0
  7 17  1  0
  7  1  2  0
  8  3  1  0
  8  4  2  0
  8 47  1  0
  9 17  1  0
 10 15  1  0
 11 12  1  0
 11 10  1  0
 13 12  1  0
 13 22  1  0
 13 14  1  0
 15  9  1  0
 15 14  1  0
 16  9  2  0
 17 18  1  0
 19 20  2  0
 20 39  1  0
 21 20  1  0
 21 24  1  0
 22 19  1  0
 22 23  1  0
 23 21  2  0
 24 25  1  0
 25 26  2  0
 27 30  1  0
 27 26  1  0
 28 27  2  0
 29 28  1  0
 29 24  2  0
 30 31  1  0
 31 32  1  0
 32 33  2  0
 34 33  1  0
 34 38  1  0
 35 34  2  0
 36 31  2  0
 36 35  1  0
 37 36  1  0
 39 40  1  0
 40 43  1  0
 40 42  1  0
 41 39  2  0
 44 45  1  0
 44 19  1  0
 46 44  1  0
 48 59  2  0
 49 47  1  0
 49 54  1  0
 50 58  1  0
 50 60  1  0
 51 57  1  0
 51 53  1  0
 52 58  1  0
 53 52  1  0
 54 53  2  0
 55 49  2  0
 56 55  1  0
 56 51  2  0
 57 50  1  0
 58 48  1  0
 60 62  2  0
 61 60  1  0
 63 61  1  0
 64 73  2  0
 64 69  1  0
 65 61  1  0
 65 69  1  0
 66 65  1  0
 67 68  1  0
 67 66  1  0
 68 64  1  0
 69 70  2  0
 70 71  1  0
 72 71  2  0
 73 72  1  0
 74 48  1  0
 74 75  1  0
 74 84  1  0
 75 78  1  0
 76 80  1  0
 76 75  1  0
 77 76  2  0
 80 79  1  0
 82 80  1  0
 82 83  1  0
 82 81  1  0
 84 87  1  1
 84 85  1  0
 86 84  1  0
M  ISO  4   8 101   9 100  17 100  47 101
M  END
>  <TORSDO>  (81) 
F 16

>  <SCORE>  (81) 
-16.564

>  <name>  (81) 
80

>  <ligand_id>  (81) 
80

>  <original_smiles>  (81) 
[H]c1c([H])c([H])c2c(c1[H])C([H])([H])C([H])([H])C([H])([H])C2([H])N([H])C(=O)C1([H])N(C(=O)C([H])(N([H])C(=O)C([H])(N([H])C([H])([H])[H])C([H])([H])[H])C(C([H])([H])[H])(C([H])([H])[H])C([H])([H])[H])C([H])([H])c2c([H])c(OC3([H])C([H])([H])C4([H])C([H])([H])C([H])(N([H])C(=O)N5C([H])([H])C([H])([H])C([H])([H])C([H])(n6nc(-c7c([H])c([H])c(Oc8c([H])c([H])c(F)c([H])c8F)c([H])c7[H])c(C(=O)N([H])[H])c6N([H])[H])C5([H])[H])C([H])([H])C4([H])C3([H])[H])c([H])c([H])c2C1([H])[H]

>  <smiles>  (81) 
[H]c1c([H])c([H])c2c(c1[H])C([H])([H])C([H])([H])C([H])([H])C2([H])N([H])C(=O)C1([H])N(C(=O)C([H])(N([H])C(=O)C([H])(N([H])C([H])([H])[H])C([H])([H])[H])C(C([H])([H])[H])(C([H])([H])[H])C([H])([H])[H])C([H])([H])c2c([H])c(OC3([H])C([H])([H])C4([H])C([H])([H])C([H])(N([H])C(=O)N5C([H])([H])C([H])([H])C([H])([H])C([H])(n6nc(-c7c([H])c([H])c(Oc8c([H])c([H])c(F)c([H])c8F)c([H])c7[H])c(C(=O)N([H])[H])c6N([H])[H])C5([H])[H])C([H])([H])C4([H])C3([H])[H])c([H])c([H])c2C1([H])[H]

$$$$
81:0:0
     RDKit          3D

 92101  0  0  1  0  0  0  0  0999 V2000
  -29.2830  -21.7410   20.3760 C   0  0  0  0  0  2  0  0  0  0  0  0
  -26.8300  -22.5510   19.9390 C   0  0  0  0  0  1  0  0  0  0  0  0
  -28.6350  -23.3160   18.4040 C   0  0  0  0  0  1  0  0  0  0  0  0
  -28.2880  -23.0490   19.8790 C   0  0  2  0  0  0  0  0  0  0  0  0
  -28.2750  -24.5820   20.6310 C   0  0  0  0  0  2  0  0  0  0  0  0
  -28.2810  -26.0500   20.0760 O   0  0  0  0  0  0  0  0  0  0  0  0
  -24.5820  -31.7290   23.0840 C   0  0  0  0  0  0  0  0  0  0  0  0
  -27.1920  -26.9950   20.1100 C   0  0  0  0  0  0  0  0  0  0  0  0
  -23.4010  -30.3220   21.4420 C   0  0  0  0  0  3  0  0  0  0  0  0
  -24.8620  -28.7330   20.0450 C   0  0  0  0  0  0  0  0  0  0  0  0
  -25.9520  -30.5920   21.2930 C   0  0  0  0  0  2  0  0  0  0  0  0
  -26.0340  -29.1900   20.6610 C   0  0  0  0  0  0  0  0  0  0  0  0
  -27.2020  -28.3380   20.6720 C   0  0  0  0  0  3  0  0  0  0  0  0
  -25.9980  -26.6390   19.4580 C   0  0  0  0  0  3  0  0  0  0  0  0
  -24.8570  -27.4730   19.4260 C   0  0  0  0  0  3  0  0  0  0  0  0
  -23.6340  -29.6300   20.0700 C   0  0  0  0  0  2  0  0  0  0  0  0
  -24.6660  -30.9060   21.9950 N   0  0  0  0  0  0  0  0  0  0  0  0
  -23.4900  -32.0120   23.6010 O   0  0  0  0  0  0  0  0  0  0  0  0
  -22.7140  -29.3200   22.4050 C   0  0  0  0  0  0  0  0  0  0  0  0
  -21.3860  -29.1530   22.2750 N   0  0  0  0  0  0  0  0  0  0  0  0
  -23.3830  -28.6940   23.2310 O   0  0  0  0  0  0  0  0  0  0  0  0
  -20.9020  -29.7110   21.5850 H   0  0  0  0  0  0  0  0  0  0  0  0
  -18.0060  -27.9470   22.7630 C   0  0  0  0  0  0  0  0  0  0  0  0
  -20.5630  -28.2180   23.0450 C   0  0  0  0  0  3  0  0  0  0  0  0
  -20.6700  -26.7820   22.4790 C   0  0  0  0  0  2  0  0  0  0  0  0
  -19.5770  -26.4520   21.4590 C   0  0  0  0  0  2  0  0  0  0  0  0
  -18.1900  -26.5960   22.0930 C   0  0  0  0  0  2  0  0  0  0  0  0
  -19.1190  -28.7150   23.1970 C   0  0  0  0  0  0  0  0  0  0  0  0
  -18.8910  -29.9780   23.7830 C   0  0  0  0  0  3  0  0  0  0  0  0
  -17.5820  -30.4740   23.9400 C   0  0  0  0  0  3  0  0  0  0  0  0
  -16.4840  -29.7040   23.5200 C   0  0  0  0  0  3  0  0  0  0  0  0
  -16.6960  -28.4420   22.9370 C   0  0  0  0  0  3  0  0  0  0  0  0
  -25.8520  -32.3730   23.7200 C   0  0  0  0  0  3  0  0  0  0  0  0
  -25.5170  -33.7590   24.0870 N   0  0  0  0  0  0  0  0  0  0  0  0
  -25.8430  -34.8420   23.3690 C   0  0  0  0  0  0  0  0  0  0  0  0
  -26.5250  -34.7770   22.3410 O   0  0  0  0  0  0  0  0  0  0  0  0
  -24.9060  -33.8800   24.8820 H   0  0  0  0  0  0  0  0  0  0  0  0
  -24.0960  -36.6310   23.0650 C   0  0  0  0  0  1  0  0  0  0  0  0
  -25.3390  -36.2110   23.8670 C   0  0  0  0  0  3  0  0  0  0  0  0
  -27.4620  -37.1000   24.7280 C   0  0  0  0  0  1  0  0  0  0  0  0
  -26.3600  -37.2790   23.7870 N   0  0  0  0  0  0  0  0  0  0  0  0
  -25.9420  -38.1910   23.9540 H   0  0  0  0  0  0  0  0  0  0  0  0
  -26.3830  -31.5820   24.9780 C   0  0  1  0  0  0  0  0  0  0  0  0
  -25.2960  -31.3060   26.0450 C   0  0  0  0  0  1  0  0  0  0  0  0
  -26.9850  -30.2200   24.5610 C   0  0  0  0  0  1  0  0  0  0  0  0
  -27.5250  -32.3780   25.6540 C   0  0  0  0  0  1  0  0  0  0  0  0
  -29.0020  -20.1970   20.0710 N   0  0  0  0  0  4  0  0  0  0  0  0
  -28.5210  -19.8290   20.8740 H   0  0  0  0  0  0  0  0  0  0  0  0
  -28.3110  -20.2060   19.3390 H   0  0  0  0  0  0  0  0  0  0  0  0
  -30.0240  -19.0660   19.5810 C   0  0  0  0  0  2  0  0  0  0  0  0
  -30.7300  -17.5900   23.0210 C   0  0  0  0  0  2  0  0  0  0  0  0
  -29.8140  -17.5900   21.8290 C   0  0  0  0  0  3  0  0  0  0  0  0
  -31.2840  -17.8710   21.6430 C   0  0  0  0  0  3  0  0  0  0  0  0
  -30.3880  -17.6620   20.4300 C   0  0  2  0  0  0  0  0  0  0  0  0
  -31.2410  -15.0480   19.8890 C   0  0  0  0  0  0  0  0  0  0  0  0
  -31.0280  -12.6860   18.9650 C   0  0  0  0  0  2  0  0  0  0  0  0
  -30.0470  -12.6610   17.7700 C   0  0  0  0  0  2  0  0  0  0  0  0
  -28.5870  -12.5310   18.2510 C   0  0  0  0  0  2  0  0  0  0  0  0
  -28.2610  -13.4890   19.4280 C   0  0  0  0  0  3  0  0  0  0  0  0
  -29.3530  -13.4540   20.5130 C   0  0  0  0  0  2  0  0  0  0  0  0
  -30.6110  -13.8080   19.8460 N   0  0  0  0  0  0  0  0  0  0  0  0
  -32.4680  -15.0740   19.7420 O   0  0  0  0  0  0  0  0  0  0  0  0
  -30.4330  -16.2230   19.8220 N   0  0  0  0  0  0  0  0  0  0  0  0
  -29.5030  -15.9500   19.5510 H   0  0  0  0  0  0  0  0  0  0  0  0
  -25.9560  -14.2140   20.2690 C   0  0  0  0  0  0  0  0  0  0  0  0
  -24.8560  -13.5070   20.6630 C   0  0  0  0  0  0  0  0  0  0  0  0
  -25.2250  -12.1280   20.5870 C   0  0  0  0  0  0  0  0  0  0  0  0
  -26.9260  -13.2720   19.9730 N   0  0  0  0  0  0  0  0  0  0  0  0
  -26.4980  -12.0110   20.2310 N   0  0  0  0  0  0  0  0  0  0  0  0
  -24.4200  -10.9150   20.7750 C   0  0  0  0  0  0  0  0  0  0  0  0
  -24.7870   -9.9250   21.7120 C   0  0  0  0  0  3  0  0  0  0  0  0
  -23.9860   -8.7750   21.8890 C   0  0  0  0  0  3  0  0  0  0  0  0
  -22.8020   -8.6100   21.1290 C   0  0  0  0  0  0  0  0  0  0  0  0
  -22.4530   -9.5890   20.1830 C   0  0  0  0  0  3  0  0  0  0  0  0
  -23.2550  -10.7300   20.0040 C   0  0  0  0  0  3  0  0  0  0  0  0
  -21.9780   -7.5160   21.2160 O   0  0  0  0  0  0  0  0  0  0  0  0
  -21.8470   -6.8020   22.3810 C   0  0  0  0  0  0  0  0  0  0  0  0
  -21.4450   -7.4140   23.5890 C   0  0  0  0  0  3  0  0  0  0  0  0
  -21.2560   -6.6330   24.7470 C   0  0  0  0  0  3  0  0  0  0  0  0
  -21.4580   -5.2410   24.6960 C   0  0  0  0  0  0  0  0  0  0  0  0
  -21.8520   -4.6270   23.4930 C   0  0  0  0  0  3  0  0  0  0  0  0
  -22.0440   -5.4060   22.3390 C   0  0  0  0  0  0  0  0  0  0  0  0
  -22.4040   -4.8100   21.1780 F   0  0  0  0  0  0  0  0  0  0  0  0
  -21.2690   -4.4880   25.8040 F   0  0  0  0  0  0  0  0  0  0  0  0
  -23.5050  -14.0730   20.9880 C   0  0  0  0  0  0  0  0  0  0  0  0
  -22.7690  -13.4280   21.8850 N   0  0  0  0  0  0  0  0  0  0  0  0
  -23.1120  -15.1230   20.4810 O   0  0  0  0  0  0  0  0  0  0  0  0
  -23.0980  -12.5790   22.3200 H   0  0  0  0  0  0  0  0  0  0  0  0
  -21.8620  -13.7920   22.1440 H   0  0  0  0  0  0  0  0  0  0  0  0
  -26.1980  -15.5760   20.1110 N   0  0  0  0  0  0  0  0  0  0  0  0
  -27.0470  -15.9810   19.7390 H   0  0  0  0  0  0  0  0  0  0  0  0
  -25.4640  -16.2600   20.2610 H   0  0  0  0  0  0  0  0  0  0  0  0
  4  3  1  6
  4  2  1  0
  4  1  1  0
  4  5  1  0
  6  8  1  0
  6  5  1  0
  7 18  2  0
  8 13  1  0
  9 17  1  0
  9 19  1  0
 10 16  1  0
 10 12  1  0
 11 17  1  0
 12 13  2  0
 12 11  1  0
 14  8  2  0
 15 14  1  0
 15 10  2  0
 16  9  1  0
 17  7  1  0
 19 21  2  0
 20 19  1  0
 22 20  1  0
 23 32  2  0
 23 28  1  0
 24 20  1  0
 24 28  1  0
 25 24  1  0
 26 27  1  0
 26 25  1  0
 27 23  1  0
 28 29  2  0
 29 30  1  0
 31 30  2  0
 32 31  1  0
 33  7  1  0
 33 34  1  0
 33 43  1  0
 34 37  1  0
 35 39  1  0
 35 34  1  0
 36 35  2  0
 39 38  1  0
 41 39  1  0
 41 42  1  0
 41 40  1  0
 43 46  1  1
 43 44  1  0
 45 43  1  0
 47  1  1  0
 47 48  1  0
 49 47  1  0
 50 47  1  0
 52 51  1  0
 53 52  1  0
 53 51  1  0
 54 50  1  6
 54 53  1  0
 54 52  1  0
 56 61  1  0
 57 58  1  0
 57 56  1  0
 59 58  1  0
 59 68  1  0
 59 60  1  0
 61 55  1  0
 61 60  1  0
 62 55  2  0
 63 55  1  0
 63 54  1  0
 64 63  1  0
 65 66  2  0
 66 85  1  0
 67 66  1  0
 67 70  1  0
 68 69  1  0
 68 65  1  0
 69 67  2  0
 70 71  1  0
 71 72  2  0
 73 76  1  0
 73 72  1  0
 74 73  2  0
 75 74  1  0
 75 70  2  0
 76 77  1  0
 77 78  1  0
 78 79  2  0
 80 79  1  0
 80 84  1  0
 81 80  2  0
 82 77  2  0
 82 81  1  0
 83 82  1  0
 85 86  1  0
 86 89  1  0
 86 88  1  0
 87 85  2  0
 90 92  1  0
 90 65  1  0
 91 90  1  0
M  ISO  4   5 101   6 101  55 100  63 100
M  END
>  <TORSDO>  (82) 
F 21

>  <SCORE>  (82) 
-13.429

>  <name>  (82) 
81

>  <ligand_id>  (82) 
81

>  <original_smiles>  (82) 
[H]c1c([H])c([H])c2c(c1[H])C([H])([H])C([H])([H])C([H])([H])C2([H])N([H])C(=O)C1([H])N(C(=O)C([H])(N([H])C(=O)C([H])(N([H])C([H])([H])[H])C([H])([H])[H])C(C([H])([H])[H])(C([H])([H])[H])C([H])([H])[H])C([H])([H])c2c([H])c(OC([H])([H])C(C([H])([H])[H])(C([H])([H])[H])C([H])([H])[N+]([H])([H])C([H])([H])C3(N([H])C(=O)N4C([H])([H])C([H])([H])C([H])([H])C([H])(n5nc(-c6c([H])c([H])c(Oc7c([H])c([H])c(F)c([H])c7F)c([H])c6[H])c(C(=O)N([H])[H])c5N([H])[H])C4([H])[H])C4([H])C([H])([H])C43[H])c([H])c([H])c2C1([H])[H]

>  <smiles>  (82) 
[H]c1c([H])c([H])c2c(c1[H])C([H])([H])C([H])([H])C([H])([H])C2([H])N([H])C(=O)C1([H])N(C(=O)C([H])(N([H])C(=O)C([H])(N([H])C([H])([H])[H])C([H])([H])[H])C(C([H])([H])[H])(C([H])([H])[H])C([H])([H])[H])C([H])([H])c2c([H])c(OC([H])([H])C(C([H])([H])[H])(C([H])([H])[H])C([H])([H])[N+]([H])([H])C([H])([H])C3(N([H])C(=O)N4C([H])([H])C([H])([H])C([H])([H])C([H])(n5nc(-c6c([H])c([H])c(Oc7c([H])c([H])c(F)c([H])c7F)c([H])c6[H])c(C(=O)N([H])[H])c5N([H])[H])C4([H])[H])C4([H])C([H])([H])C43[H])c([H])c([H])c2C1([H])[H]

$$$$
82:0:0
     RDKit          3D

 87 95  0  0  1  0  0  0  0  0999 V2000
  -26.7740  -20.2880   20.4200 C   0  0  0  0  0  2  0  0  0  0  0  0
  -26.7570  -19.6550   19.0380 C   0  0  0  0  0  2  0  0  0  0  0  0
  -28.2600  -20.3280   20.7770 C   0  0  0  0  0  2  0  0  0  0  0  0
  -28.0050  -20.2210   18.3600 C   0  0  0  0  0  2  0  0  0  0  0  0
  -29.0550  -20.5100   19.4620 C   0  0  1  0  0  0  0  0  0  0  0  0
  -29.2660  -22.4220   19.3710 C   0  0  0  0  0  3  0  0  0  0  0  0
  -28.2330  -24.0450   19.4310 C   0  0  0  0  0  3  0  0  0  0  0  0
  -28.4000  -25.7790   19.5550 O   0  0  0  0  0  0  0  0  0  0  0  0
  -24.7530  -31.6160   23.0880 C   0  0  0  0  0  0  0  0  0  0  0  0
  -27.3880  -26.9420   19.6260 C   0  0  0  0  0  0  0  0  0  0  0  0
  -23.5890  -30.3490   21.3310 C   0  0  0  0  0  3  0  0  0  0  0  0
  -25.0660  -28.8840   19.7650 C   0  0  0  0  0  0  0  0  0  0  0  0
  -26.1590  -30.5790   21.2100 C   0  0  0  0  0  2  0  0  0  0  0  0
  -26.2550  -29.2210   20.4240 C   0  0  0  0  0  0  0  0  0  0  0  0
  -27.4020  -28.2790   20.3230 C   0  0  0  0  0  3  0  0  0  0  0  0
  -26.1590  -26.8070   18.9340 C   0  0  0  0  0  3  0  0  0  0  0  0
  -25.0520  -27.7050   19.0010 C   0  0  0  0  0  3  0  0  0  0  0  0
  -23.8370  -29.7940   19.8990 C   0  0  0  0  0  2  0  0  0  0  0  0
  -24.8570  -30.8760   21.9320 N   0  0  0  0  0  0  0  0  0  0  0  0
  -23.6560  -31.8360   23.6300 O   0  0  0  0  0  0  0  0  0  0  0  0
  -22.9070  -29.2640   22.2070 C   0  0  0  0  0  0  0  0  0  0  0  0
  -21.5770  -29.0900   22.0780 N   0  0  0  0  0  0  0  0  0  0  0  0
  -23.5850  -28.5780   22.9750 O   0  0  0  0  0  0  0  0  0  0  0  0
  -21.0750  -29.7020   21.4480 H   0  0  0  0  0  0  0  0  0  0  0  0
  -18.2170  -27.7880   22.5320 C   0  0  0  0  0  0  0  0  0  0  0  0
  -20.7800  -28.0660   22.7620 C   0  0  0  0  0  3  0  0  0  0  0  0
  -20.8850  -26.7040   22.0370 C   0  0  0  0  0  2  0  0  0  0  0  0
  -19.7620  -26.4730   21.0200 C   0  0  0  0  0  2  0  0  0  0  0  0
  -18.3950  -26.5260   21.7060 C   0  0  0  0  0  2  0  0  0  0  0  0
  -19.3350  -28.5210   23.0140 C   0  0  0  0  0  0  0  0  0  0  0  0
  -19.1110  -29.7020   23.7540 C   0  0  0  0  0  3  0  0  0  0  0  0
  -17.8030  -30.1540   24.0100 C   0  0  0  0  0  3  0  0  0  0  0  0
  -16.7000  -29.4190   23.5410 C   0  0  0  0  0  3  0  0  0  0  0  0
  -16.9070  -28.2390   22.8060 C   0  0  0  0  0  3  0  0  0  0  0  0
  -26.0050  -32.2330   23.7810 C   0  0  0  0  0  3  0  0  0  0  0  0
  -26.5000  -31.3920   25.0240 C   0  0  1  0  0  0  0  0  0  0  0  0
  -25.3910  -31.0940   26.0590 C   0  0  0  0  0  1  0  0  0  0  0  0
  -27.0940  -30.0380   24.5770 C   0  0  0  0  0  1  0  0  0  0  0  0
  -27.6400  -32.1490   25.7470 C   0  0  0  0  0  1  0  0  0  0  0  0
  -25.6650  -33.6040   24.2080 N   0  0  0  0  0  0  0  0  0  0  0  0
  -25.9620  -34.7200   23.5280 C   0  0  0  0  0  0  0  0  0  0  0  0
  -26.6090  -34.7050   22.4780 O   0  0  0  0  0  0  0  0  0  0  0  0
  -25.0850  -33.6870   25.0300 H   0  0  0  0  0  0  0  0  0  0  0  0
  -24.1810  -36.4960   23.3760 C   0  0  0  0  0  1  0  0  0  0  0  0
  -25.4670  -36.0660   24.1000 C   0  0  0  0  0  3  0  0  0  0  0  0
  -27.6070  -36.9630   24.9070 C   0  0  0  0  0  1  0  0  0  0  0  0
  -26.4690  -37.1510   24.0110 N   0  0  0  0  0  0  0  0  0  0  0  0
  -26.0450  -38.0490   24.2240 H   0  0  0  0  0  0  0  0  0  0  0  0
  -30.1760  -18.9460   19.4050 C   0  0  0  0  0  2  0  0  0  0  0  0
  -30.8580  -15.8800   19.6040 C   0  0  0  0  0  0  0  0  0  0  0  0
  -31.0160  -13.2990   18.9800 C   0  0  0  0  0  2  0  0  0  0  0  0
  -30.0770  -12.7960   17.8480 C   0  0  0  0  0  2  0  0  0  0  0  0
  -28.6910  -12.4350   18.4020 C   0  0  0  0  0  2  0  0  0  0  0  0
  -28.2000  -13.4920   19.4180 C   0  0  0  0  0  3  0  0  0  0  0  0
  -29.2750  -13.9080   20.4490 C   0  0  0  0  0  2  0  0  0  0  0  0
  -30.3900  -14.5030   19.6820 N   0  0  0  0  0  0  0  0  0  0  0  0
  -32.0800  -15.8650   19.3640 O   0  0  0  0  0  0  0  0  0  0  0  0
  -30.0430  -17.1970   19.6040 N   0  0  0  0  0  0  0  0  0  0  0  0
  -29.0770  -16.9550   19.7720 H   0  0  0  0  0  0  0  0  0  0  0  0
  -25.9260  -14.0080   20.4250 C   0  0  0  0  0  0  0  0  0  0  0  0
  -24.8900  -13.2190   20.8390 C   0  0  0  0  0  0  0  0  0  0  0  0
  -25.3350  -11.8690   20.6860 C   0  0  0  0  0  0  0  0  0  0  0  0
  -26.9290  -13.1410   20.0340 N   0  0  0  0  0  0  0  0  0  0  0  0
  -26.5940  -11.8430   20.2570 N   0  0  0  0  0  0  0  0  0  0  0  0
  -24.6070  -10.6050   20.8630 C   0  0  0  0  0  0  0  0  0  0  0  0
  -25.0070   -9.6480   21.8220 C   0  0  0  0  0  3  0  0  0  0  0  0
  -24.2740   -8.4530   21.9890 C   0  0  0  0  0  3  0  0  0  0  0  0
  -23.1270   -8.2050   21.1980 C   0  0  0  0  0  0  0  0  0  0  0  0
  -22.7470   -9.1500   20.2290 C   0  0  0  0  0  3  0  0  0  0  0  0
  -23.4810  -10.3380   20.0600 C   0  0  0  0  0  3  0  0  0  0  0  0
  -22.3690   -7.0610   21.2730 O   0  0  0  0  0  0  0  0  0  0  0  0
  -22.1210   -6.4400   22.4700 C   0  0  0  0  0  0  0  0  0  0  0  0
  -21.4390   -7.0920   23.5210 C   0  0  0  0  0  3  0  0  0  0  0  0
  -21.1430   -6.3940   24.7090 C   0  0  0  0  0  3  0  0  0  0  0  0
  -21.5180   -5.0430   24.8450 C   0  0  0  0  0  0  0  0  0  0  0  0
  -22.1930   -4.3910   23.7970 C   0  0  0  0  0  3  0  0  0  0  0  0
  -22.4900   -5.0870   22.6130 C   0  0  0  0  0  0  0  0  0  0  0  0
  -23.1210   -4.4470   21.5990 F   0  0  0  0  0  0  0  0  0  0  0  0
  -21.2280   -4.3700   25.9820 F   0  0  0  0  0  0  0  0  0  0  0  0
  -23.5290  -13.6930   21.2530 C   0  0  0  0  0  0  0  0  0  0  0  0
  -22.8720  -12.9690   22.1510 N   0  0  0  0  0  0  0  0  0  0  0  0
  -23.0590  -14.7440   20.8150 O   0  0  0  0  0  0  0  0  0  0  0  0
  -23.2640  -12.1180   22.5270 H   0  0  0  0  0  0  0  0  0  0  0  0
  -21.9620  -13.2690   22.4710 H   0  0  0  0  0  0  0  0  0  0  0  0
  -26.0910  -15.3860   20.3140 N   0  0  0  0  0  0  0  0  0  0  0  0
  -25.3430  -16.0360   20.5330 H   0  0  0  0  0  0  0  0  0  0  0  0
  -26.8970  -15.8350   19.9040 H   0  0  0  0  0  0  0  0  0  0  0  0
  1  3  1  0
  2  1  1  0
  4  2  1  0
  4  5  1  0
  5  3  1  0
  6  7  2  0
  6  5  1  0
  7  8  1  0
  8 10  1  0
  9 20  2  0
 10 15  1  0
 11 19  1  0
 11 21  1  0
 12 18  1  0
 12 14  1  0
 13 19  1  0
 14 13  1  0
 15 14  2  0
 16 17  1  0
 16 10  2  0
 17 12  2  0
 18 11  1  0
 19  9  1  0
 21 23  2  0
 22 21  1  0
 24 22  1  0
 25 34  2  0
 25 30  1  0
 26 22  1  0
 26 30  1  0
 27 26  1  0
 28 29  1  0
 28 27  1  0
 29 25  1  0
 30 31  2  0
 31 32  1  0
 33 32  2  0
 34 33  1  0
 35  9  1  0
 35 40  1  0
 35 36  1  0
 36 39  1  1
 36 37  1  0
 38 36  1  0
 40 43  1  0
 41 45  1  0
 41 40  1  0
 42 41  2  0
 45 44  1  0
 47 45  1  0
 47 48  1  0
 47 46  1  0
  5 49  1  1
 49 58  1  0
 50 56  1  0
 51 56  1  0
 52 53  1  0
 52 51  1  0
 54 53  1  0
 54 63  1  0
 54 55  1  0
 56 55  1  0
 57 50  2  0
 58 50  1  0
 58 59  1  0
 60 61  2  0
 61 80  1  0
 62 61  1  0
 62 65  1  0
 63 64  1  0
 63 60  1  0
 64 62  2  0
 65 66  1  0
 66 67  2  0
 68 71  1  0
 68 67  1  0
 69 68  2  0
 70 69  1  0
 70 65  2  0
 71 72  1  0
 72 77  2  0
 72 73  1  0
 73 74  2  0
 74 75  1  0
 75 79  1  0
 76 75  2  0
 77 76  1  0
 78 77  1  0
 80 81  1  0
 81 84  1  0
 81 83  1  0
 82 80  2  0
 85 60  1  0
 85 86  1  0
 87 85  1  0
M  ISO  4   7 101   8 101  50 100  58 100
M  END
>  <TORSDO>  (83) 
F 19

>  <SCORE>  (83) 
-13.060

>  <name>  (83) 
82

>  <ligand_id>  (83) 
82

>  <original_smiles>  (83) 
[H]c1c([H])c([H])c2c(c1[H])C([H])([H])C([H])([H])C([H])([H])C2([H])N([H])C(=O)C1([H])N(C(=O)C([H])(N([H])C(=O)C([H])(N([H])C([H])([H])[H])C([H])([H])[H])C(C([H])([H])[H])(C([H])([H])[H])C([H])([H])[H])C([H])([H])c2c([H])c(OC([H])([H])C([H])([H])C3(C([H])([H])N([H])C(=O)N4C([H])([H])C([H])([H])C([H])([H])C([H])(n5nc(-c6c([H])c([H])c(Oc7c([H])c([H])c(F)c([H])c7F)c([H])c6[H])c(C(=O)N([H])[H])c5N([H])[H])C4([H])[H])C([H])([H])C([H])([H])C([H])([H])C3([H])[H])c([H])c([H])c2C1([H])[H]

>  <smiles>  (83) 
[H]c1c([H])c([H])c2c(c1[H])C([H])([H])C([H])([H])C([H])([H])C2([H])N([H])C(=O)C1([H])N(C(=O)C([H])(N([H])C(=O)C([H])(N([H])C([H])([H])[H])C([H])([H])[H])C(C([H])([H])[H])(C([H])([H])[H])C([H])([H])[H])C([H])([H])c2c([H])c(OC([H])([H])C([H])([H])C3(C([H])([H])N([H])C(=O)N4C([H])([H])C([H])([H])C([H])([H])C([H])(n5nc(-c6c([H])c([H])c(Oc7c([H])c([H])c(F)c([H])c7F)c([H])c6[H])c(C(=O)N([H])[H])c5N([H])[H])C4([H])[H])C([H])([H])C([H])([H])C([H])([H])C3([H])[H])c([H])c([H])c2C1([H])[H]

$$$$
83:0:0
     RDKit          3D

 83 88  0  0  1  0  0  0  0  0999 V2000
  -28.1530  -22.5740   20.1870 C   0  0  0  0  0 15  0  0  0  0  0  0
  -29.9430  -16.6780   20.1220 C   0  0  0  0  0  0  0  0  0  0  0  0
  -30.2800  -13.9210   19.3340 C   0  0  0  0  0  2  0  0  0  0  0  0
  -29.5170  -13.0740   18.2350 C   0  0  0  0  0  2  0  0  0  0  0  0
  -28.1950  -12.5020   18.7490 C   0  0  0  0  0  2  0  0  0  0  0  0
  -27.5490  -13.5350   19.6830 C   0  0  0  0  0  3  0  0  0  0  0  0
  -28.5090  -14.2420   20.7110 C   0  0  0  0  0  2  0  0  0  0  0  0
  -29.4910  -15.1620   19.9810 N   0  0  0  0  0  0  0  0  0  0  0  0
  -31.1860  -16.3960   20.1000 O   0  0  0  0  0  0  0  0  0  0  0  0
  -29.7870  -20.2370   18.8860 C   0  0  0  0  0  2  0  0  0  0  0  0
  -30.4300  -18.8810   19.2340 C   0  0  0  0  0  2  0  0  0  0  0  0
  -29.1990  -20.4550   20.2500 C   0  0  0  0  0  2  0  0  0  0  0  0
  -30.0800  -20.6960   21.4780 C   0  0  0  0  0  1  0  0  0  0  0  0
  -29.3000  -18.3590   20.0640 N   0  0  0  0  0  2  0  0  0  0  0  0
  -25.1970  -13.9390   20.4880 C   0  0  0  0  0  0  0  0  0  0  0  0
  -24.1610  -13.1290   20.8490 C   0  0  0  0  0  0  0  0  0  0  0  0
  -24.6640  -11.7920   20.8010 C   0  0  0  0  0  0  0  0  0  0  0  0
  -26.2670  -13.1070   20.2370 N   0  0  0  0  0  0  0  0  0  0  0  0
  -25.9600  -11.7990   20.4780 N   0  0  0  0  0  0  0  0  0  0  0  0
  -23.9520  -10.5140   20.9840 C   0  0  0  0  0  0  0  0  0  0  0  0
  -24.3700   -9.5600   21.9380 C   0  0  0  0  0  3  0  0  0  0  0  0
  -23.6500   -8.3580   22.1180 C   0  0  0  0  0  3  0  0  0  0  0  0
  -22.4930   -8.0990   21.3440 C   0  0  0  0  0  0  0  0  0  0  0  0
  -22.0920   -9.0420   20.3800 C   0  0  0  0  0  3  0  0  0  0  0  0
  -22.8140  -10.2350   20.2000 C   0  0  0  0  0  3  0  0  0  0  0  0
  -21.7480   -6.9480   21.4290 O   0  0  0  0  0  0  0  0  0  0  0  0
  -21.6540   -6.2340   22.5980 C   0  0  0  0  0  0  0  0  0  0  0  0
  -21.1310   -6.8050   23.7790 C   0  0  0  0  0  3  0  0  0  0  0  0
  -20.9870   -6.0170   24.9380 C   0  0  0  0  0  3  0  0  0  0  0  0
  -21.3550   -4.6570   24.9170 C   0  0  0  0  0  0  0  0  0  0  0  0
  -21.8680   -4.0860   23.7400 C   0  0  0  0  0  3  0  0  0  0  0  0
  -22.0140   -4.8710   22.5830 C   0  0  0  0  0  0  0  0  0  0  0  0
  -22.4890   -4.3090   21.4460 F   0  0  0  0  0  0  0  0  0  0  0  0
  -21.2100   -3.8990   26.0280 F   0  0  0  0  0  0  0  0  0  0  0  0
  -22.7560  -13.5790   21.1190 C   0  0  0  0  0  0  0  0  0  0  0  0
  -22.0430  -12.8750   21.9890 N   0  0  0  0  0  0  0  0  0  0  0  0
  -22.3010  -14.5960   20.5950 O   0  0  0  0  0  0  0  0  0  0  0  0
  -22.4260  -12.0550   22.4360 H   0  0  0  0  0  0  0  0  0  0  0  0
  -21.1000  -13.1610   22.2130 H   0  0  0  0  0  0  0  0  0  0  0  0
  -25.3180  -15.3140   20.3120 N   0  0  0  0  0  0  0  0  0  0  0  0
  -24.5330  -15.9470   20.4290 H   0  0  0  0  0  0  0  0  0  0  0  0
  -26.1570  -15.7780   19.9880 H   0  0  0  0  0  0  0  0  0  0  0  0
  -28.1220  -24.6730   20.3040 O   0  0  0  0  0  1  0  0  0  0  0  0
  -24.7200  -31.8150   23.1370 C   0  0  0  0  0  0  0  0  0  0  0  0
  -27.2170  -26.1660   20.2670 C   0  0  0  0  0  0  0  0  0  0  0  0
  -23.5620  -30.3900   21.5120 C   0  0  0  0  0  3  0  0  0  0  0  0
  -25.0160  -28.5980   20.1650 C   0  0  0  0  0  0  0  0  0  0  0  0
  -26.1630  -30.3410   21.4820 C   0  0  0  0  0  2  0  0  0  0  0  0
  -26.2180  -28.8370   20.8370 C   0  0  0  0  0  0  0  0  0  0  0  0
  -27.2690  -27.6730   20.8370 C   0  0  0  0  0  3  0  0  0  0  0  0
  -25.9760  -26.3020   19.5300 C   0  0  0  0  0  3  0  0  0  0  0  0
  -24.9710  -27.3610   19.4830 C   0  0  0  0  0  3  0  0  0  0  0  0
  -23.8400  -29.6290   20.1720 C   0  0  0  0  0  2  0  0  0  0  0  0
  -24.8470  -30.8980   22.0960 N   0  0  0  0  0  0  0  0  0  0  0  0
  -23.6110  -32.1500   23.6020 O   0  0  0  0  0  0  0  0  0  0  0  0
  -22.7750  -29.4830   22.5020 C   0  0  0  0  0  0  0  0  0  0  0  0
  -21.4340  -29.3770   22.3770 N   0  0  0  0  0  0  0  0  0  0  0  0
  -23.3950  -28.8630   23.3670 O   0  0  0  0  0  0  0  0  0  0  0  0
  -20.9750  -29.9260   21.6630 H   0  0  0  0  0  0  0  0  0  0  0  0
  -18.0170  -28.2170   22.9160 C   0  0  0  0  0  0  0  0  0  0  0  0
  -20.5850  -28.4610   23.1550 C   0  0  0  0  0  3  0  0  0  0  0  0
  -20.6590  -27.0230   22.5870 C   0  0  0  0  0  2  0  0  0  0  0  0
  -19.5500  -26.7160   21.5770 C   0  0  0  0  0  2  0  0  0  0  0  0
  -18.1740  -26.8730   22.2270 C   0  0  0  0  0  2  0  0  0  0  0  0
  -19.1470  -28.9710   23.3360 C   0  0  0  0  0  0  0  0  0  0  0  0
  -18.9390  -30.2250   23.9500 C   0  0  0  0  0  3  0  0  0  0  0  0
  -17.6390  -30.7290   24.1410 C   0  0  0  0  0  3  0  0  0  0  0  0
  -16.5250  -29.9750   23.7310 C   0  0  0  0  0  3  0  0  0  0  0  0
  -16.7150  -28.7200   23.1250 C   0  0  0  0  0  3  0  0  0  0  0  0
  -25.9510  -32.5020   23.8080 C   0  0  0  0  0  3  0  0  0  0  0  0
  -25.6070  -33.9090   24.1300 N   0  0  0  0  0  0  0  0  0  0  0  0
  -25.9360  -34.9860   23.4000 C   0  0  0  0  0  0  0  0  0  0  0  0
  -26.6000  -34.8980   22.3650 O   0  0  0  0  0  0  0  0  0  0  0  0
  -25.0110  -34.0480   24.9320 H   0  0  0  0  0  0  0  0  0  0  0  0
  -24.1940  -36.7930   23.1220 C   0  0  0  0  0  1  0  0  0  0  0  0
  -25.4610  -36.3750   23.8860 C   0  0  0  0  0  3  0  0  0  0  0  0
  -27.6110  -37.2850   24.6620 C   0  0  0  0  0  1  0  0  0  0  0  0
  -26.4850  -37.4370   23.7450 N   0  0  0  0  0  0  0  0  0  0  0  0
  -26.0750  -38.3550   23.8960 H   0  0  0  0  0  0  0  0  0  0  0  0
  -26.4120  -31.7730   25.1330 C   0  0  1  0  0  0  0  0  0  0  0  0
  -25.2780  -31.5730   26.1680 C   0  0  0  0  0  1  0  0  0  0  0  0
  -27.0050  -30.3810   24.8290 C   0  0  0  0  0  1  0  0  0  0  0  0
  -27.5400  -32.5840   25.8130 C   0  0  0  0  0  1  0  0  0  0  0  0
  3  8  1  0
  4  5  1  0
  4  3  1  0
  6  5  1  0
  6 18  1  0
  6  7  1  0
  8  2  1  0
  8  7  1  0
  9  2  2  0
 10 11  1  0
 10 12  1  0
 11 14  1  0
 12 13  1  0
 14  2  1  0
 15 16  2  0
 16 35  1  0
 17 16  1  0
 17 20  1  0
 18 19  1  0
 18 15  1  0
 19 17  2  0
 20 21  1  0
 21 22  2  0
 23 26  1  0
 23 22  1  0
 24 23  2  0
 25 24  1  0
 25 20  2  0
 26 27  1  0
 27 28  1  0
 28 29  2  0
 30 29  1  0
 30 34  1  0
 31 30  2  0
 32 27  2  0
 32 31  1  0
 33 32  1  0
 35 36  1  0
 36 39  1  0
 36 38  1  0
 37 35  2  0
 40 41  1  0
 40 15  1  0
 42 40  1  0
 44 55  2  0
 45 43  1  0
 45 50  1  0
 46 54  1  0
 46 56  1  0
 47 53  1  0
 47 49  1  0
 48 54  1  0
 49 48  1  0
 50 49  2  0
 51 45  2  0
 52 51  1  0
 52 47  2  0
 53 46  1  0
 54 44  1  0
 56 58  2  0
 57 56  1  0
 59 57  1  0
 60 69  2  0
 60 65  1  0
 61 57  1  0
 61 65  1  0
 62 61  1  0
 63 64  1  0
 63 62  1  0
 64 60  1  0
 65 66  2  0
 66 67  1  0
 68 67  2  0
 69 68  1  0
 70 44  1  0
 70 71  1  0
 70 80  1  0
 71 74  1  0
 72 76  1  0
 72 71  1  0
 73 72  2  0
 76 75  1  0
 78 76  1  0
 78 79  1  0
 78 77  1  0
 80 83  1  1
 80 81  1  0
 82 80  1  0
M  ISO  4   1 101   2 100  14 100  43 101
M  END
>  <TORSDO>  (84) 
F 16

>  <SCORE>  (84) 
-16.447

>  <name>  (84) 
83

>  <ligand_id>  (84) 
83

>  <original_smiles>  (84) 
[H]c1c([H])c([H])c2c(c1[H])C([H])([H])C([H])([H])C([H])([H])C2([H])N([H])C(=O)C1([H])N(C(=O)C([H])(N([H])C(=O)C([H])(N([H])C([H])([H])[H])C([H])([H])[H])C(C([H])([H])[H])(C([H])([H])[H])C([H])([H])[H])C([H])([H])c2c([H])c(OC([H])([H])C3(C([H])([H])[H])N(C(=O)N4C([H])([H])C([H])([H])C([H])([H])C([H])(n5nc(-c6c([H])c([H])c(Oc7c([H])c([H])c(F)c([H])c7F)c([H])c6[H])c(C(=O)N([H])[H])c5N([H])[H])C4([H])[H])C([H])([H])C3([H])[H])c([H])c([H])c2C1([H])[H]

>  <smiles>  (84) 
[H]c1c([H])c([H])c2c(c1[H])C([H])([H])C([H])([H])C([H])([H])C2([H])N([H])C(=O)C1([H])N(C(=O)C([H])(N([H])C(=O)C([H])(N([H])C([H])([H])[H])C([H])([H])[H])C(C([H])([H])[H])(C([H])([H])[H])C([H])([H])[H])C([H])([H])c2c([H])c(OC([H])([H])C3(C([H])([H])[H])N(C(=O)N4C([H])([H])C([H])([H])C([H])([H])C([H])(n5nc(-c6c([H])c([H])c(Oc7c([H])c([H])c(F)c([H])c7F)c([H])c6[H])c(C(=O)N([H])[H])c5N([H])[H])C4([H])[H])C([H])([H])C3([H])[H])c([H])c([H])c2C1([H])[H]

$$$$
84:0:0
     RDKit          3D

 91100  0  0  1  0  0  0  0  0999 V2000
  -31.1220  -18.1900   20.7260 C   0  0  0  0  0  2  0  0  0  0  0  0
  -28.7000  -18.3890   20.3970 C   0  0  0  0  0  2  0  0  0  0  0  0
  -30.5020  -20.4770   19.3830 C   0  0  0  0  0  2  0  0  0  0  0  0
  -30.7210  -19.6950   20.6990 C   0  0  0  0  0  3  0  0  0  0  0  0
  -29.9230  -17.3770   20.1660 C   0  0  0  0  0  3  0  0  0  0  0  0
  -29.2250  -19.8280   20.8400 C   0  0  0  0  0  3  0  0  0  0  0  0
  -29.2300  -21.0370   19.8970 N   0  0  1  0  0  4  0  0  0  0  0  0
  -28.5110  -20.9770   19.1940 H   0  0  0  0  0  0  0  0  0  0  0  0
  -30.5710  -14.7860   20.3190 C   0  0  0  0  0  0  0  0  0  0  0  0
  -30.3850  -12.5080   19.3090 C   0  0  0  0  0  2  0  0  0  0  0  0
  -29.4490  -12.5950   18.0810 C   0  0  0  0  0  2  0  0  0  0  0  0
  -27.9750  -12.4340   18.5030 C   0  0  0  0  0  2  0  0  0  0  0  0
  -27.6050  -13.3110   19.7280 C   0  0  0  0  0  3  0  0  0  0  0  0
  -28.6590  -13.1980   20.8520 C   0  0  0  0  0  2  0  0  0  0  0  0
  -29.9600  -13.5510   20.2710 N   0  0  0  0  0  0  0  0  0  0  0  0
  -31.7420  -14.9060   19.9500 O   0  0  0  0  0  0  0  0  0  0  0  0
  -29.7740  -15.8980   20.5650 N   0  0  0  0  0  0  0  0  0  0  0  0
  -28.8530  -15.6490   20.8930 H   0  0  0  0  0  0  0  0  0  0  0  0
  -25.2100  -13.9130   20.4240 C   0  0  0  0  0  0  0  0  0  0  0  0
  -24.1410  -13.1460   20.7980 C   0  0  0  0  0  0  0  0  0  0  0  0
  -24.6040  -11.7940   20.7900 C   0  0  0  0  0  0  0  0  0  0  0  0
  -26.2560  -13.0310   20.2100 N   0  0  0  0  0  0  0  0  0  0  0  0
  -25.8980  -11.7530   20.4920 N   0  0  0  0  0  0  0  0  0  0  0  0
  -23.8770  -10.5340   20.9910 C   0  0  0  0  0  0  0  0  0  0  0  0
  -24.3060   -9.5740   21.9350 C   0  0  0  0  0  3  0  0  0  0  0  0
  -23.5770   -8.3810   22.1240 C   0  0  0  0  0  3  0  0  0  0  0  0
  -22.4040   -8.1380   21.3710 C   0  0  0  0  0  0  0  0  0  0  0  0
  -21.9930   -9.0870   20.4170 C   0  0  0  0  0  3  0  0  0  0  0  0
  -22.7240  -10.2710   20.2250 C   0  0  0  0  0  3  0  0  0  0  0  0
  -21.6460   -6.9960   21.4700 O   0  0  0  0  0  0  0  0  0  0  0  0
  -21.6000   -6.2610   22.6270 C   0  0  0  0  0  0  0  0  0  0  0  0
  -21.1900   -6.8270   23.8540 C   0  0  0  0  0  3  0  0  0  0  0  0
  -21.0900   -6.0180   25.0040 C   0  0  0  0  0  3  0  0  0  0  0  0
  -21.3900   -4.6450   24.9280 C   0  0  0  0  0  0  0  0  0  0  0  0
  -21.7950   -4.0790   23.7060 C   0  0  0  0  0  3  0  0  0  0  0  0
  -21.8960   -4.8850   22.5580 C   0  0  0  0  0  0  0  0  0  0  0  0
  -22.2650   -4.3300   21.3790 F   0  0  0  0  0  0  0  0  0  0  0  0
  -21.2870   -3.8660   26.0300 F   0  0  0  0  0  0  0  0  0  0  0  0
  -22.7420  -13.6260   21.0500 C   0  0  0  0  0  0  0  0  0  0  0  0
  -22.0060  -12.9420   21.9190 N   0  0  0  0  0  0  0  0  0  0  0  0
  -22.3090  -14.6440   20.5110 O   0  0  0  0  0  0  0  0  0  0  0  0
  -22.3700  -12.1170   22.3760 H   0  0  0  0  0  0  0  0  0  0  0  0
  -21.0670  -13.2460   22.1320 H   0  0  0  0  0  0  0  0  0  0  0  0
  -25.3730  -15.2820   20.2260 N   0  0  0  0  0  0  0  0  0  0  0  0
  -24.5990  -15.9310   20.3150 H   0  0  0  0  0  0  0  0  0  0  0  0
  -26.2090  -15.7150   19.8560 H   0  0  0  0  0  0  0  0  0  0  0  0
  -29.3560  -22.5060   20.4050 C   0  0  0  0  0  2  0  0  0  0  0  0
  -27.2800  -23.7440   21.4010 C   0  0  0  0  0  1  0  0  0  0  0  0
  -28.1820  -23.6220   20.1640 C   0  0  0  0  0  3  0  0  0  0  0  0
  -28.5300  -25.1110   19.5790 C   0  0  0  0  0  2  0  0  0  0  0  0
  -28.3650  -26.4380   20.2680 O   0  0  0  0  0  0  0  0  0  0  0  0
  -24.6110  -31.8740   23.2260 C   0  0  0  0  0  0  0  0  0  0  0  0
  -27.2390  -27.2890   20.1660 C   0  0  0  0  0  0  0  0  0  0  0  0
  -23.4150  -30.4770   21.5780 C   0  0  0  0  0  3  0  0  0  0  0  0
  -24.8710  -28.9230   20.1470 C   0  0  0  0  0  0  0  0  0  0  0  0
  -25.9550  -30.7900   21.4030 C   0  0  0  0  0  2  0  0  0  0  0  0
  -26.0360  -29.4080   20.7520 C   0  0  0  0  0  0  0  0  0  0  0  0
  -27.2170  -28.6000   20.7540 C   0  0  0  0  0  3  0  0  0  0  0  0
  -26.0480  -26.8650   19.5360 C   0  0  0  0  0  3  0  0  0  0  0  0
  -24.8810  -27.6590   19.5310 C   0  0  0  0  0  3  0  0  0  0  0  0
  -23.6330  -29.8010   20.1960 C   0  0  0  0  0  2  0  0  0  0  0  0
  -24.6790  -31.0670   22.1250 N   0  0  0  0  0  0  0  0  0  0  0  0
  -23.5270  -32.1490   23.7600 O   0  0  0  0  0  0  0  0  0  0  0  0
  -22.7490  -29.4610   22.5370 C   0  0  0  0  0  0  0  0  0  0  0  0
  -21.4210  -29.2920   22.4180 N   0  0  0  0  0  0  0  0  0  0  0  0
  -23.4280  -28.8260   23.3480 O   0  0  0  0  0  0  0  0  0  0  0  0
  -20.9310  -29.8590   21.7390 H   0  0  0  0  0  0  0  0  0  0  0  0
  -18.0400  -28.1110   22.9320 C   0  0  0  0  0  0  0  0  0  0  0  0
  -20.6020  -28.3540   23.1870 C   0  0  0  0  0  3  0  0  0  0  0  0
  -20.6910  -26.9270   22.5990 C   0  0  0  0  0  2  0  0  0  0  0  0
  -19.5810  -26.6190   21.5900 C   0  0  0  0  0  2  0  0  0  0  0  0
  -18.2040  -26.7670   22.2430 C   0  0  0  0  0  2  0  0  0  0  0  0
  -19.1660  -28.8630   23.3600 C   0  0  0  0  0  0  0  0  0  0  0  0
  -18.9570  -30.1220   23.9650 C   0  0  0  0  0  3  0  0  0  0  0  0
  -17.6560  -30.6280   24.1450 C   0  0  0  0  0  3  0  0  0  0  0  0
  -16.5450  -29.8730   23.7320 C   0  0  0  0  0  3  0  0  0  0  0  0
  -16.7380  -28.6170   23.1310 C   0  0  0  0  0  3  0  0  0  0  0  0
  -25.8900  -32.5090   23.8530 C   0  0  0  0  0  3  0  0  0  0  0  0
  -26.4030  -31.7410   25.1330 C   0  0  1  0  0  0  0  0  0  0  0  0
  -25.3070  -31.5080   26.1990 C   0  0  0  0  0  1  0  0  0  0  0  0
  -26.9860  -30.3620   24.7460 C   0  0  0  0  0  1  0  0  0  0  0  0
  -27.5520  -32.5350   25.7970 C   0  0  0  0  0  1  0  0  0  0  0  0
  -25.5780  -33.9070   24.1840 N   0  0  0  0  0  0  0  0  0  0  0  0
  -25.9110  -34.9640   23.4310 C   0  0  0  0  0  0  0  0  0  0  0  0
  -26.5830  -34.8640   22.4010 O   0  0  0  0  0  0  0  0  0  0  0  0
  -24.9840  -34.0590   24.9880 H   0  0  0  0  0  0  0  0  0  0  0  0
  -24.1830  -36.7570   23.0780 C   0  0  0  0  0  1  0  0  0  0  0  0
  -25.4210  -36.3510   23.8920 C   0  0  0  0  0  3  0  0  0  0  0  0
  -27.5560  -37.2320   24.7270 C   0  0  0  0  0  1  0  0  0  0  0  0
  -26.4540  -37.4050   23.7850 N   0  0  0  0  0  0  0  0  0  0  0  0
  -26.0470  -38.3240   23.9380 H   0  0  0  0  0  0  0  0  0  0  0  0
  3  7  1  0
  4  3  1  0
  4  1  1  0
  4  6  1  0
  5  2  1  0
  5 17  1  0
  5  1  1  0
  6  2  1  0
  7 47  1  0
  7  6  1  0
  7  8  1  6
  9 17  1  0
 10 15  1  0
 11 12  1  0
 11 10  1  0
 13 12  1  0
 13 22  1  0
 13 14  1  0
 15  9  1  0
 15 14  1  0
 16  9  2  0
 17 18  1  0
 19 20  2  0
 20 39  1  0
 21 20  1  0
 21 24  1  0
 22 19  1  0
 22 23  1  0
 23 21  2  0
 24 25  1  0
 25 26  2  0
 27 30  1  0
 27 26  1  0
 28 27  2  0
 29 28  1  0
 29 24  2  0
 30 31  1  0
 31 32  1  0
 32 33  2  0
 34 33  1  0
 34 38  1  0
 35 34  2  0
 36 31  2  0
 36 35  1  0
 37 36  1  0
 39 40  1  0
 40 43  1  0
 40 42  1  0
 41 39  2  0
 44 45  1  0
 44 19  1  0
 46 44  1  0
 49 47  1  0
 49 48  1  0
 50 49  1  0
 50 51  1  0
 52 63  2  0
 53 51  1  0
 53 58  1  0
 54 62  1  0
 54 64  1  0
 55 61  1  0
 55 57  1  0
 56 62  1  0
 57 58  2  0
 57 56  1  0
 59 53  2  0
 60 59  1  0
 60 55  2  0
 61 54  1  0
 62 52  1  0
 64 66  2  0
 65 64  1  0
 67 65  1  0
 68 77  2  0
 68 73  1  0
 69 65  1  0
 69 73  1  0
 70 69  1  0
 71 72  1  0
 71 70  1  0
 72 68  1  0
 73 74  2  0
 74 75  1  0
 76 75  2  0
 77 76  1  0
 78 52  1  0
 78 83  1  0
 78 79  1  0
 79 82  1  1
 79 80  1  0
 81 79  1  0
 83 86  1  0
 84 88  1  0
 84 83  1  0
 85 84  2  0
 88 87  1  0
 90 88  1  0
 90 91  1  0
 90 89  1  0
M  ISO  4   9 100  17 100  50 101  51 101
M  END
>  <TORSDO>  (85) 
F 19

>  <SCORE>  (85) 
-14.296

>  <name>  (85) 
84

>  <ligand_id>  (85) 
84

>  <original_smiles>  (85) 
[H]c1c([H])c([H])c2c(c1[H])C([H])([H])C([H])([H])C([H])([H])C2([H])N([H])C(=O)C1([H])N(C(=O)C([H])(N([H])C(=O)C([H])(N([H])C([H])([H])[H])C([H])([H])[H])C(C([H])([H])[H])(C([H])([H])[H])C([H])([H])[H])C([H])([H])c2c([H])c(OC([H])([H])C([H])(C([H])([H])[H])C([H])([H])[N+]3([H])C([H])([H])C4([H])C([H])([H])C([H])(N([H])C(=O)N5C([H])([H])C([H])([H])C([H])([H])C([H])(n6nc(-c7c([H])c([H])c(Oc8c([H])c([H])c(F)c([H])c8F)c([H])c7[H])c(C(=O)N([H])[H])c6N([H])[H])C5([H])[H])C([H])([H])C43[H])c([H])c([H])c2C1([H])[H]

>  <smiles>  (85) 
[H]c1c([H])c([H])c2c(c1[H])C([H])([H])C([H])([H])C([H])([H])C2([H])N([H])C(=O)C1([H])N(C(=O)C([H])(N([H])C(=O)C([H])(N([H])C([H])([H])[H])C([H])([H])[H])C(C([H])([H])[H])(C([H])([H])[H])C([H])([H])[H])C([H])([H])c2c([H])c(OC([H])([H])C([H])(C([H])([H])[H])C([H])([H])[N+]3([H])C([H])([H])C4([H])C([H])([H])C([H])(N([H])C(=O)N5C([H])([H])C([H])([H])C([H])([H])C([H])(n6nc(-c7c([H])c([H])c(Oc8c([H])c([H])c(F)c([H])c8F)c([H])c7[H])c(C(=O)N([H])[H])c6N([H])[H])C5([H])[H])C([H])([H])C43[H])c([H])c([H])c2C1([H])[H]

$$$$
85:0:0
     RDKit          3D

 90 99  0  0  1  0  0  0  0  0999 V2000
  -31.3930  -19.1370   20.7540 C   0  0  0  0  0  2  0  0  0  0  0  0
  -31.7000  -21.7510   20.9390 C   0  0  0  0  0  2  0  0  0  0  0  0
  -31.9930  -20.4420   20.2870 C   0  0  0  0  0  3  0  0  0  0  0  0
  -29.4920  -20.7750   19.8580 C   0  0  0  0  0  3  0  0  0  0  0  0
  -30.0350  -18.9210   20.0430 C   0  0  1  0  0  0  0  0  0  0  0  0
  -30.9190  -21.3390   19.7030 C   0  0  1  0  0  0  0  0  0  0  0  0
  -31.1790  -22.0510   18.3860 C   0  0  0  0  0  1  0  0  0  0  0  0
  -30.2250  -18.5600   18.5350 C   0  0  0  0  0  0  0  0  0  0  0  0
  -31.6040  -18.3870   17.8800 C   0  0  0  0  0  1  0  0  0  0  0  0
  -29.2260  -18.3880   17.8330 O   0  0  0  0  0  0  0  0  0  0  0  0
  -29.5910  -17.1520   20.4950 C   0  0  0  0  0  2  0  0  0  0  0  0
  -30.3460  -15.5070   20.2510 C   0  0  0  0  0  0  0  0  0  0  0  0
  -30.3740  -12.9940   19.4260 C   0  0  0  0  0  2  0  0  0  0  0  0
  -29.4750  -12.7190   18.1900 C   0  0  0  0  0  2  0  0  0  0  0  0
  -28.0310  -12.4130   18.6200 C   0  0  0  0  0  2  0  0  0  0  0  0
  -27.5450  -13.3910   19.7150 C   0  0  0  0  0  3  0  0  0  0  0  0
  -28.5800  -13.6160   20.8420 C   0  0  0  0  0  2  0  0  0  0  0  0
  -29.8100  -14.1620   20.2250 N   0  0  0  0  0  0  0  0  0  0  0  0
  -31.5600  -15.4520   19.9890 O   0  0  0  0  0  0  0  0  0  0  0  0
  -25.1660  -13.9230   20.4500 C   0  0  0  0  0  0  0  0  0  0  0  0
  -24.1050  -13.1430   20.8120 C   0  0  0  0  0  0  0  0  0  0  0  0
  -24.5820  -11.7930   20.7930 C   0  0  0  0  0  0  0  0  0  0  0  0
  -26.2180  -13.0560   20.2210 N   0  0  0  0  0  0  0  0  0  0  0  0
  -25.8800  -11.7680   20.4990 N   0  0  0  0  0  0  0  0  0  0  0  0
  -23.8590  -10.5280   20.9850 C   0  0  0  0  0  0  0  0  0  0  0  0
  -24.2810   -9.5670   21.9310 C   0  0  0  0  0  3  0  0  0  0  0  0
  -23.5510   -8.3720   22.1120 C   0  0  0  0  0  3  0  0  0  0  0  0
  -22.3860   -8.1260   21.3490 C   0  0  0  0  0  0  0  0  0  0  0  0
  -21.9820   -9.0760   20.3930 C   0  0  0  0  0  3  0  0  0  0  0  0
  -22.7110  -10.2620   20.2090 C   0  0  0  0  0  3  0  0  0  0  0  0
  -21.6320   -6.9800   21.4400 O   0  0  0  0  0  0  0  0  0  0  0  0
  -21.5740   -6.2440   22.5960 C   0  0  0  0  0  0  0  0  0  0  0  0
  -21.1400   -6.8080   23.8160 C   0  0  0  0  0  3  0  0  0  0  0  0
  -21.0300   -5.9980   24.9640 C   0  0  0  0  0  3  0  0  0  0  0  0
  -21.3450   -4.6290   24.8940 C   0  0  0  0  0  0  0  0  0  0  0  0
  -21.7710   -4.0650   23.6780 C   0  0  0  0  0  3  0  0  0  0  0  0
  -21.8820   -4.8700   22.5320 C   0  0  0  0  0  0  0  0  0  0  0  0
  -22.2740   -4.3200   21.3590 F   0  0  0  0  0  0  0  0  0  0  0  0
  -21.2300   -3.8490   25.9950 F   0  0  0  0  0  0  0  0  0  0  0  0
  -22.7020  -13.6110   21.0580 C   0  0  0  0  0  0  0  0  0  0  0  0
  -21.9650  -12.9190   21.9160 N   0  0  0  0  0  0  0  0  0  0  0  0
  -22.2680  -14.6300   20.5210 O   0  0  0  0  0  0  0  0  0  0  0  0
  -22.3330  -12.0980   22.3770 H   0  0  0  0  0  0  0  0  0  0  0  0
  -21.0230  -13.2160   22.1220 H   0  0  0  0  0  0  0  0  0  0  0  0
  -25.3190  -15.2950   20.2650 N   0  0  0  0  0  0  0  0  0  0  0  0
  -24.5430  -15.9400   20.3560 H   0  0  0  0  0  0  0  0  0  0  0  0
  -26.1610  -15.7410   19.9290 H   0  0  0  0  0  0  0  0  0  0  0  0
  -28.7230  -22.3460   20.5610 C   0  0  0  0  0  2  0  0  0  0  0  0
  -28.3030  -24.0760   19.9220 C   0  0  0  0  0  2  0  0  0  0  0  0
  -28.2270  -25.7190   20.3940 O   0  0  0  0  0  0  0  0  0  0  0  0
  -24.6610  -31.8710   23.1930 C   0  0  0  0  0  0  0  0  0  0  0  0
  -27.2280  -26.8630   20.2450 C   0  0  0  0  0  0  0  0  0  0  0  0
  -23.4770  -30.4570   21.5610 C   0  0  0  0  0  3  0  0  0  0  0  0
  -24.9320  -28.8110   20.1630 C   0  0  0  0  0  0  0  0  0  0  0  0
  -26.0500  -30.6260   21.4470 C   0  0  0  0  0  2  0  0  0  0  0  0
  -26.1180  -29.1990   20.7990 C   0  0  0  0  0  0  0  0  0  0  0  0
  -27.2450  -28.2440   20.8210 C   0  0  0  0  0  3  0  0  0  0  0  0
  -26.0130  -26.6530   19.5490 C   0  0  0  0  0  3  0  0  0  0  0  0
  -24.9140  -27.5600   19.5140 C   0  0  0  0  0  3  0  0  0  0  0  0
  -23.7180  -29.7490   20.1970 C   0  0  0  0  0  2  0  0  0  0  0  0
  -24.7510  -31.0160   22.1200 N   0  0  0  0  0  0  0  0  0  0  0  0
  -23.5660  -32.1750   23.6980 O   0  0  0  0  0  0  0  0  0  0  0  0
  -22.7630  -29.4850   22.5370 C   0  0  0  0  0  0  0  0  0  0  0  0
  -21.4300  -29.3380   22.4150 N   0  0  0  0  0  0  0  0  0  0  0  0
  -23.4170  -28.8620   23.3770 O   0  0  0  0  0  0  0  0  0  0  0  0
  -20.9560  -29.8910   21.7140 H   0  0  0  0  0  0  0  0  0  0  0  0
  -18.0350  -28.1550   22.9330 C   0  0  0  0  0  0  0  0  0  0  0  0
  -20.5970  -28.4100   23.1890 C   0  0  0  0  0  3  0  0  0  0  0  0
  -20.6900  -26.9740   22.6240 C   0  0  0  0  0  2  0  0  0  0  0  0
  -19.5840  -26.6510   21.6130 C   0  0  0  0  0  2  0  0  0  0  0  0
  -18.2030  -26.8050   22.2560 C   0  0  0  0  0  2  0  0  0  0  0  0
  -19.1570  -28.9150   23.3550 C   0  0  0  0  0  0  0  0  0  0  0  0
  -18.9430  -30.1760   23.9520 C   0  0  0  0  0  3  0  0  0  0  0  0
  -17.6420  -30.6800   24.1250 C   0  0  0  0  0  3  0  0  0  0  0  0
  -16.5320  -29.9170   23.7180 C   0  0  0  0  0  3  0  0  0  0  0  0
  -16.7310  -28.6560   23.1290 C   0  0  0  0  0  3  0  0  0  0  0  0
  -25.9280  -32.5200   23.8310 C   0  0  0  0  0  3  0  0  0  0  0  0
  -26.4190  -31.7680   25.1310 C   0  0  1  0  0  0  0  0  0  0  0  0
  -25.3090  -31.5550   26.1890 C   0  0  0  0  0  1  0  0  0  0  0  0
  -27.0060  -30.3810   24.7830 C   0  0  0  0  0  1  0  0  0  0  0  0
  -27.5650  -32.5700   25.7940 C   0  0  0  0  0  1  0  0  0  0  0  0
  -25.6070  -33.9230   24.1550 N   0  0  0  0  0  0  0  0  0  0  0  0
  -25.9440  -34.9820   23.4070 C   0  0  0  0  0  0  0  0  0  0  0  0
  -26.6190  -34.8830   22.3810 O   0  0  0  0  0  0  0  0  0  0  0  0
  -25.0080  -34.0720   24.9540 H   0  0  0  0  0  0  0  0  0  0  0  0
  -24.2190  -36.7890   23.0650 C   0  0  0  0  0  1  0  0  0  0  0  0
  -25.4600  -36.3720   23.8720 C   0  0  0  0  0  3  0  0  0  0  0  0
  -27.5990  -37.2520   24.7060 C   0  0  0  0  0  1  0  0  0  0  0  0
  -26.4960  -37.4260   23.7630 N   0  0  0  0  0  0  0  0  0  0  0  0
  -26.0910  -38.3460   23.9160 H   0  0  0  0  0  0  0  0  0  0  0  0
  3  1  1  0
  3  2  1  0
  4  5  1  0
  4 48  1  0
  5 11  1  1
  5  1  1  0
  6  7  1  6
  6  4  1  0
  6  3  1  0
  6  2  1  0
  8  5  1  0
  9  8  1  0
 10  8  2  0
 12 11  1  0
 13 18  1  0
 14 15  1  0
 14 13  1  0
 16 15  1  0
 16 23  1  0
 16 17  1  0
 18 12  1  0
 18 17  1  0
 19 12  2  0
 20 21  2  0
 21 40  1  0
 22 21  1  0
 22 25  1  0
 23 20  1  0
 23 24  1  0
 24 22  2  0
 25 26  1  0
 26 27  2  0
 28 31  1  0
 28 27  1  0
 29 28  2  0
 30 29  1  0
 30 25  2  0
 31 32  1  0
 32 33  1  0
 33 34  2  0
 35 34  1  0
 35 39  1  0
 36 35  2  0
 37 32  2  0
 37 36  1  0
 38 37  1  0
 40 41  1  0
 41 44  1  0
 41 43  1  0
 42 40  2  0
 45 46  1  0
 45 20  1  0
 47 45  1  0
 49 50  1  0
 49 48  1  0
 51 62  2  0
 52 50  1  0
 52 57  1  0
 53 61  1  0
 53 63  1  0
 54 60  1  0
 54 56  1  0
 55 61  1  0
 56 57  2  0
 56 55  1  0
 58 52  2  0
 59 58  1  0
 59 54  2  0
 60 53  1  0
 61 51  1  0
 63 65  2  0
 64 63  1  0
 66 64  1  0
 67 76  2  0
 67 72  1  0
 68 64  1  0
 68 72  1  0
 69 68  1  0
 70 71  1  0
 70 69  1  0
 71 67  1  0
 72 73  2  0
 73 74  1  0
 75 74  2  0
 76 75  1  0
 77 51  1  0
 77 82  1  0
 77 78  1  0
 78 81  1  1
 78 79  1  0
 80 78  1  0
 82 85  1  0
 83 87  1  0
 83 82  1  0
 84 83  2  0
 87 86  1  0
 89 87  1  0
 89 90  1  0
 89 88  1  0
M  ISO  4  11 100  12 100  49 101  50 101
M  END
>  <TORSDO>  (86) 
F 20

>  <SCORE>  (86) 
-16.304

>  <name>  (86) 
85

>  <ligand_id>  (86) 
85

>  <original_smiles>  (86) 
[H]c1c([H])c([H])c2c(c1[H])C([H])([H])C([H])([H])C([H])([H])C2([H])N([H])C(=O)C1([H])N(C(=O)C([H])(N([H])C(=O)C([H])(N([H])C([H])([H])[H])C([H])([H])[H])C(C([H])([H])[H])(C([H])([H])[H])C([H])([H])[H])C([H])([H])c2c([H])c(OC([H])([H])C([H])([H])C3([H])C(C(=O)C([H])([H])[H])(C([H])([H])C(=O)N4C([H])([H])C([H])([H])C([H])([H])C([H])(n5nc(-c6c([H])c([H])c(Oc7c([H])c([H])c(F)c([H])c7F)c([H])c6[H])c(C(=O)N([H])[H])c5N([H])[H])C4([H])[H])C([H])([H])C4([H])C([H])([H])C43C([H])([H])[H])c([H])c([H])c2C1([H])[H]

>  <smiles>  (86) 
[H]c1c([H])c([H])c2c(c1[H])C([H])([H])C([H])([H])C([H])([H])C2([H])N([H])C(=O)C1([H])N(C(=O)C([H])(N([H])C(=O)C([H])(N([H])C([H])([H])[H])C([H])([H])[H])C(C([H])([H])[H])(C([H])([H])[H])C([H])([H])[H])C([H])([H])c2c([H])c(OC([H])([H])C([H])([H])C3([H])C(C(=O)C([H])([H])[H])(C([H])([H])C(=O)N4C([H])([H])C([H])([H])C([H])([H])C([H])(n5nc(-c6c([H])c([H])c(Oc7c([H])c([H])c(F)c([H])c7F)c([H])c6[H])c(C(=O)N([H])[H])c5N([H])[H])C4([H])[H])C([H])([H])C4([H])C([H])([H])C43C([H])([H])[H])c([H])c([H])c2C1([H])[H]

$$$$
86:0:0
     RDKit          3D

 91100  0  0  1  0  0  0  0  0999 V2000
  -31.8970  -20.1630   19.8430 C   0  0  0  0  0  2  0  0  0  0  0  0
  -31.3860  -17.9820   21.2070 C   0  0  0  0  0  2  0  0  0  0  0  0
  -29.2300  -18.4770   20.2070 C   0  0  0  0  0  2  0  0  0  0  0  0
  -31.0910  -21.4590   19.6480 C   0  0  0  0  0  2  0  0  0  0  0  0
  -31.2360  -19.5240   21.0670 C   0  0  0  0  0  3  0  0  0  0  0  0
  -30.3390  -17.3320   20.2780 C   0  0  0  0  0  3  0  0  0  0  0  0
  -29.7540  -19.8480   20.8410 C   0  0  0  0  0  3  0  0  0  0  0  0
  -29.6890  -21.1620   20.0380 N   0  0  1  0  0  4  0  0  0  0  0  0
  -29.1910  -20.9550   19.1820 H   0  0  0  0  0  0  0  0  0  0  0  0
  -30.6380  -14.7270   20.3680 C   0  0  0  0  0  0  0  0  0  0  0  0
  -30.3680  -12.4660   19.3540 C   0  0  0  0  0  2  0  0  0  0  0  0
  -29.4370  -12.5710   18.1280 C   0  0  0  0  0  2  0  0  0  0  0  0
  -27.9670  -12.4040   18.5570 C   0  0  0  0  0  2  0  0  0  0  0  0
  -27.5990  -13.2840   19.7800 C   0  0  0  0  0  3  0  0  0  0  0  0
  -28.6620  -13.1980   20.8990 C   0  0  0  0  0  2  0  0  0  0  0  0
  -29.9680  -13.5270   20.3080 N   0  0  0  0  0  0  0  0  0  0  0  0
  -31.8110  -14.7950   19.9960 O   0  0  0  0  0  0  0  0  0  0  0  0
  -29.9340  -15.8920   20.6190 N   0  0  0  0  0  0  0  0  0  0  0  0
  -28.9800  -15.7600   20.9210 H   0  0  0  0  0  0  0  0  0  0  0  0
  -25.2050  -13.8710   20.5030 C   0  0  0  0  0  0  0  0  0  0  0  0
  -24.1390  -13.0970   20.8780 C   0  0  0  0  0  0  0  0  0  0  0  0
  -24.6060  -11.7470   20.8550 C   0  0  0  0  0  0  0  0  0  0  0  0
  -26.2530  -12.9940   20.2730 N   0  0  0  0  0  0  0  0  0  0  0  0
  -25.8970  -11.7110   20.5460 N   0  0  0  0  0  0  0  0  0  0  0  0
  -23.8800  -10.4830   21.0480 C   0  0  0  0  0  0  0  0  0  0  0  0
  -24.3230   -9.5110   21.9700 C   0  0  0  0  0  3  0  0  0  0  0  0
  -23.5970   -8.3130   22.1520 C   0  0  0  0  0  3  0  0  0  0  0  0
  -22.4150   -8.0800   21.4110 C   0  0  0  0  0  0  0  0  0  0  0  0
  -21.9910   -9.0400   20.4780 C   0  0  0  0  0  3  0  0  0  0  0  0
  -22.7170  -10.2300   20.2930 C   0  0  0  0  0  3  0  0  0  0  0  0
  -21.6570   -6.9350   21.5050 O   0  0  0  0  0  0  0  0  0  0  0  0
  -21.6360   -6.1800   22.6490 C   0  0  0  0  0  0  0  0  0  0  0  0
  -21.2560   -6.7220   23.8970 C   0  0  0  0  0  3  0  0  0  0  0  0
  -21.1790   -5.8930   25.0330 C   0  0  0  0  0  3  0  0  0  0  0  0
  -21.4720   -4.5200   24.9250 C   0  0  0  0  0  0  0  0  0  0  0  0
  -21.8460   -3.9760   23.6840 C   0  0  0  0  0  3  0  0  0  0  0  0
  -21.9250   -4.8020   22.5510 C   0  0  0  0  0  0  0  0  0  0  0  0
  -22.2640   -4.2670   21.3520 F   0  0  0  0  0  0  0  0  0  0  0  0
  -21.3930   -3.7230   26.0150 F   0  0  0  0  0  0  0  0  0  0  0  0
  -22.7400  -13.5720   21.1460 C   0  0  0  0  0  0  0  0  0  0  0  0
  -22.0090  -12.8850   22.0160 N   0  0  0  0  0  0  0  0  0  0  0  0
  -22.3030  -14.5940   20.6170 O   0  0  0  0  0  0  0  0  0  0  0  0
  -22.3710  -12.0620   22.4750 H   0  0  0  0  0  0  0  0  0  0  0  0
  -21.0700  -13.1890   22.2290 H   0  0  0  0  0  0  0  0  0  0  0  0
  -25.3660  -15.2400   20.3110 N   0  0  0  0  0  0  0  0  0  0  0  0
  -24.5920  -15.8920   20.3850 H   0  0  0  0  0  0  0  0  0  0  0  0
  -26.2050  -15.6640   19.9350 H   0  0  0  0  0  0  0  0  0  0  0  0
  -28.9710  -22.3670   20.6740 C   0  0  0  0  0  2  0  0  0  0  0  0
  -29.0830  -23.8430   20.0130 C   0  0  0  0  0  3  0  0  0  0  0  0
  -28.1880  -25.0340   20.6260 C   0  0  0  0  0  3  0  0  0  0  0  0
  -28.3590  -26.4590   20.2060 O   0  0  0  0  0  0  0  0  0  0  0  0
  -24.6100  -31.8820   23.2410 C   0  0  0  0  0  0  0  0  0  0  0  0
  -27.2350  -27.3080   20.2040 C   0  0  0  0  0  0  0  0  0  0  0  0
  -23.4090  -30.4780   21.6050 C   0  0  0  0  0  3  0  0  0  0  0  0
  -24.8640  -28.9200   20.1880 C   0  0  0  0  0  0  0  0  0  0  0  0
  -25.9490  -30.7970   21.4210 C   0  0  0  0  0  2  0  0  0  0  0  0
  -26.0320  -29.4140   20.7830 C   0  0  0  0  0  0  0  0  0  0  0  0
  -27.2220  -28.6210   20.7770 C   0  0  0  0  0  3  0  0  0  0  0  0
  -26.0430  -26.8720   19.5840 C   0  0  0  0  0  3  0  0  0  0  0  0
  -24.8720  -27.6550   19.5780 C   0  0  0  0  0  3  0  0  0  0  0  0
  -23.6260  -29.7950   20.2280 C   0  0  0  0  0  2  0  0  0  0  0  0
  -24.6760  -31.0710   22.1450 N   0  0  0  0  0  0  0  0  0  0  0  0
  -23.5260  -32.1610   23.7730 O   0  0  0  0  0  0  0  0  0  0  0  0
  -22.7460  -29.4650   22.5680 C   0  0  0  0  0  0  0  0  0  0  0  0
  -21.4200  -29.2880   22.4410 N   0  0  0  0  0  0  0  0  0  0  0  0
  -23.4240  -28.8400   23.3880 O   0  0  0  0  0  0  0  0  0  0  0  0
  -20.9330  -29.8430   21.7510 H   0  0  0  0  0  0  0  0  0  0  0  0
  -18.0440  -28.0890   22.9380 C   0  0  0  0  0  0  0  0  0  0  0  0
  -20.6010  -28.3550   23.2150 C   0  0  0  0  0  3  0  0  0  0  0  0
  -20.7080  -26.9210   22.6470 C   0  0  0  0  0  2  0  0  0  0  0  0
  -19.6100  -26.5900   21.6320 C   0  0  0  0  0  2  0  0  0  0  0  0
  -18.2250  -26.7370   22.2700 C   0  0  0  0  0  2  0  0  0  0  0  0
  -19.1600  -28.8550   23.3680 C   0  0  0  0  0  0  0  0  0  0  0  0
  -18.9380  -30.1210   23.9540 C   0  0  0  0  0  3  0  0  0  0  0  0
  -17.6320  -30.6200   24.1130 C   0  0  0  0  0  3  0  0  0  0  0  0
  -16.5300  -29.8530   23.6980 C   0  0  0  0  0  3  0  0  0  0  0  0
  -16.7370  -28.5880   23.1180 C   0  0  0  0  0  3  0  0  0  0  0  0
  -25.8910  -32.5190   23.8650 C   0  0  0  0  0  3  0  0  0  0  0  0
  -26.4070  -31.7510   25.1430 C   0  0  1  0  0  0  0  0  0  0  0  0
  -25.3130  -31.5180   26.2110 C   0  0  0  0  0  1  0  0  0  0  0  0
  -26.9880  -30.3700   24.7560 C   0  0  0  0  0  1  0  0  0  0  0  0
  -27.5560  -32.5470   25.8060 C   0  0  0  0  0  1  0  0  0  0  0  0
  -25.5780  -33.9170   24.1920 N   0  0  0  0  0  0  0  0  0  0  0  0
  -25.9120  -34.9700   23.4340 C   0  0  0  0  0  0  0  0  0  0  0  0
  -26.5830  -34.8670   22.4040 O   0  0  0  0  0  0  0  0  0  0  0  0
  -24.9770  -34.0710   24.9880 H   0  0  0  0  0  0  0  0  0  0  0  0
  -24.1790  -36.7620   23.0820 C   0  0  0  0  0  1  0  0  0  0  0  0
  -25.4230  -36.3590   23.8910 C   0  0  0  0  0  3  0  0  0  0  0  0
  -27.5580  -37.2460   24.7160 C   0  0  0  0  0  1  0  0  0  0  0  0
  -26.4530  -37.4120   23.7760 N   0  0  0  0  0  0  0  0  0  0  0  0
  -26.0450  -38.3320   23.9260 H   0  0  0  0  0  0  0  0  0  0  0  0
  3  6  1  0
  4  1  1  0
  4  8  1  0
  5  1  1  0
  5  2  1  0
  6 18  1  0
  6  2  1  0
  7  3  1  0
  7  5  1  0
  8 48  1  0
  8  7  1  0
  8  9  1  6
 10 18  1  0
 11 16  1  0
 12 13  1  0
 12 11  1  0
 14 13  1  0
 14 23  1  0
 14 15  1  0
 16 10  1  0
 16 15  1  0
 17 10  2  0
 18 19  1  0
 20 21  2  0
 21 40  1  0
 22 21  1  0
 22 25  1  0
 23 20  1  0
 23 24  1  0
 24 22  2  0
 25 26  1  0
 26 27  2  0
 28 31  1  0
 28 27  1  0
 29 28  2  0
 30 29  1  0
 30 25  2  0
 31 32  1  0
 32 33  1  0
 33 34  2  0
 35 34  1  0
 35 39  1  0
 36 35  2  0
 37 32  2  0
 37 36  1  0
 38 37  1  0
 40 41  1  0
 41 44  1  0
 41 43  1  0
 42 40  2  0
 45 46  1  0
 45 20  1  0
 47 45  1  0
 49 50  2  0
 49 48  1  0
 51 50  1  0
 52 63  2  0
 53 51  1  0
 53 58  1  0
 54 62  1  0
 54 64  1  0
 55 61  1  0
 55 57  1  0
 56 62  1  0
 57 56  1  0
 58 57  2  0
 59 53  2  0
 60 59  1  0
 60 55  2  0
 61 54  1  0
 62 52  1  0
 64 66  2  0
 65 64  1  0
 67 65  1  0
 68 77  2  0
 68 73  1  0
 69 65  1  0
 69 73  1  0
 70 69  1  0
 71 72  1  0
 71 70  1  0
 72 68  1  0
 73 74  2  0
 74 75  1  0
 76 75  2  0
 77 76  1  0
 78 52  1  0
 78 83  1  0
 78 79  1  0
 79 82  1  1
 79 80  1  0
 81 79  1  0
 83 86  1  0
 84 88  1  0
 84 83  1  0
 85 84  2  0
 88 87  1  0
 90 88  1  0
 90 91  1  0
 90 89  1  0
M  ISO  4  10 100  18 100  50 101  51 101
M  END
>  <TORSDO>  (87) 
F 19

>  <SCORE>  (87) 
-14.333

>  <name>  (87) 
86

>  <ligand_id>  (87) 
86

>  <original_smiles>  (87) 
[H]c1c([H])c([H])c2c(c1[H])C([H])([H])C([H])([H])C([H])([H])C2([H])N([H])C(=O)C1([H])N(C(=O)C([H])(N([H])C(=O)C([H])(N([H])C([H])([H])[H])C([H])([H])[H])C(C([H])([H])[H])(C([H])([H])[H])C([H])([H])[H])C([H])([H])c2c([H])c(OC([H])([H])C([H])([H])C([H])([H])[N+]3([H])C([H])([H])C([H])([H])C4([H])C([H])([H])C([H])(N([H])C(=O)N5C([H])([H])C([H])([H])C([H])([H])C([H])(n6nc(-c7c([H])c([H])c(Oc8c([H])c([H])c(F)c([H])c8F)c([H])c7[H])c(C(=O)N([H])[H])c6N([H])[H])C5([H])[H])C([H])([H])C43[H])c([H])c([H])c2C1([H])[H]

>  <smiles>  (87) 
[H]c1c([H])c([H])c2c(c1[H])C([H])([H])C([H])([H])C([H])([H])C2([H])N([H])C(=O)C1([H])N(C(=O)C([H])(N([H])C(=O)C([H])(N([H])C([H])([H])[H])C([H])([H])[H])C(C([H])([H])[H])(C([H])([H])[H])C([H])([H])[H])C([H])([H])c2c([H])c(OC([H])([H])C([H])([H])C([H])([H])[N+]3([H])C([H])([H])C([H])([H])C4([H])C([H])([H])C([H])(N([H])C(=O)N5C([H])([H])C([H])([H])C([H])([H])C([H])(n6nc(-c7c([H])c([H])c(Oc8c([H])c([H])c(F)c([H])c8F)c([H])c7[H])c(C(=O)N([H])[H])c6N([H])[H])C5([H])[H])C([H])([H])C43[H])c([H])c([H])c2C1([H])[H]

$$$$
87:0:0
     RDKit          3D

 88 98  0  0  1  0  0  0  0  0999 V2000
  -28.6360  -20.3120   20.2080 C   0  0  0  0  0  0  0  0  0  0  0  0
  -27.4360  -20.2120   19.9420 O   0  0  0  0  0  0  0  0  0  0  0  0
  -30.6420  -14.9850   20.1890 C   0  0  0  0  0  0  0  0  0  0  0  0
  -30.3850  -12.6490   19.2560 C   0  0  0  0  0  2  0  0  0  0  0  0
  -29.4530  -12.6250   18.0270 C   0  0  0  0  0  2  0  0  0  0  0  0
  -27.9990  -12.4200   18.4790 C   0  0  0  0  0  2  0  0  0  0  0  0
  -27.6130  -13.3380   19.6690 C   0  0  0  0  0  3  0  0  0  0  0  0
  -28.6840  -13.3890   20.7790 C   0  0  0  0  0  2  0  0  0  0  0  0
  -29.9450  -13.7750   20.1390 N   0  0  0  0  0  0  0  0  0  0  0  0
  -31.8410  -14.8860   19.8970 O   0  0  0  0  0  0  0  0  0  0  0  0
  -30.5160  -18.7310   21.1820 C   0  0  0  0  0  2  0  0  0  0  0  0
  -29.4630  -18.9480   20.4110 C   0  0  0  0  0  3  0  0  0  0  0  0
  -30.9560  -17.6070   19.1230 C   0  0  0  0  0  2  0  0  0  0  0  0
  -31.1070  -17.4110   20.6580 C   0  0  1  0  0  0  0  0  0  0  0  0
  -29.5170  -17.5400   19.6300 C   0  0  2  0  0  0  0  0  0  0  0  0
  -30.0920  -16.3050   20.4550 N   0  0  0  0  0  0  0  0  0  0  0  0
  -25.2440  -13.8920   20.4440 C   0  0  0  0  0  0  0  0  0  0  0  0
  -24.1910  -13.1080   20.8230 C   0  0  0  0  0  0  0  0  0  0  0  0
  -24.6660  -11.7610   20.7900 C   0  0  0  0  0  0  0  0  0  0  0  0
  -26.2900  -13.0230   20.1910 N   0  0  0  0  0  0  0  0  0  0  0  0
  -25.9540  -11.7350   20.4670 N   0  0  0  0  0  0  0  0  0  0  0  0
  -23.9500  -10.4930   20.9880 C   0  0  0  0  0  0  0  0  0  0  0  0
  -24.3900   -9.5330   21.9250 C   0  0  0  0  0  3  0  0  0  0  0  0
  -23.6720   -8.3320   22.1120 C   0  0  0  0  0  3  0  0  0  0  0  0
  -22.4980   -8.0830   21.3620 C   0  0  0  0  0  0  0  0  0  0  0  0
  -22.0770   -9.0310   20.4120 C   0  0  0  0  0  3  0  0  0  0  0  0
  -22.7960  -10.2230   20.2240 C   0  0  0  0  0  3  0  0  0  0  0  0
  -21.7510   -6.9350   21.4580 O   0  0  0  0  0  0  0  0  0  0  0  0
  -21.7020   -6.2010   22.6170 C   0  0  0  0  0  0  0  0  0  0  0  0
  -21.2630   -6.7630   23.8360 C   0  0  0  0  0  3  0  0  0  0  0  0
  -21.1640   -5.9540   24.9860 C   0  0  0  0  0  3  0  0  0  0  0  0
  -21.4930   -4.5880   24.9190 C   0  0  0  0  0  0  0  0  0  0  0  0
  -21.9250   -4.0260   23.7050 C   0  0  0  0  0  3  0  0  0  0  0  0
  -22.0270   -4.8310   22.5560 C   0  0  0  0  0  0  0  0  0  0  0  0
  -22.4220   -4.2800   21.3840 F   0  0  0  0  0  0  0  0  0  0  0  0
  -21.3910   -3.8100   26.0220 F   0  0  0  0  0  0  0  0  0  0  0  0
  -22.7930  -13.5760   21.1050 C   0  0  0  0  0  0  0  0  0  0  0  0
  -22.0790  -12.8760   21.9790 N   0  0  0  0  0  0  0  0  0  0  0  0
  -22.3450  -14.5980   20.5870 O   0  0  0  0  0  0  0  0  0  0  0  0
  -22.4550  -12.0500   22.4200 H   0  0  0  0  0  0  0  0  0  0  0  0
  -21.1410  -13.1700   22.2120 H   0  0  0  0  0  0  0  0  0  0  0  0
  -25.3990  -15.2630   20.2670 N   0  0  0  0  0  0  0  0  0  0  0  0
  -24.6370  -15.9200   20.3970 H   0  0  0  0  0  0  0  0  0  0  0  0
  -26.2570  -15.7090   19.9660 H   0  0  0  0  0  0  0  0  0  0  0  0
  -29.1800  -21.8780   20.2580 C   0  0  0  0  0  2  0  0  0  0  0  0
  -28.2740  -23.2800   20.5700 C   0  0  0  0  0  2  0  0  0  0  0  0
  -28.4350  -24.7890   19.8260 C   0  0  0  0  0  2  0  0  0  0  0  0
  -28.3150  -26.2360   20.3890 O   0  0  0  0  0  0  0  0  0  0  0  0
  -24.6340  -31.8970   23.2540 C   0  0  0  0  0  0  0  0  0  0  0  0
  -27.2360  -27.1790   20.2570 C   0  0  0  0  0  0  0  0  0  0  0  0
  -23.4440  -30.4890   21.6130 C   0  0  0  0  0  3  0  0  0  0  0  0
  -24.9020  -28.9090   20.1980 C   0  0  0  0  0  0  0  0  0  0  0  0
  -25.9940  -30.7620   21.4590 C   0  0  0  0  0  2  0  0  0  0  0  0
  -26.0720  -29.3660   20.8150 C   0  0  0  0  0  0  0  0  0  0  0  0
  -27.2350  -28.5130   20.8300 C   0  0  0  0  0  3  0  0  0  0  0  0
  -26.0420  -26.8170   19.5990 C   0  0  0  0  0  3  0  0  0  0  0  0
  -24.8980  -27.6490   19.5760 C   0  0  0  0  0  3  0  0  0  0  0  0
  -23.6710  -29.8040   20.2390 C   0  0  0  0  0  2  0  0  0  0  0  0
  -24.7100  -31.0720   22.1640 N   0  0  0  0  0  0  0  0  0  0  0  0
  -23.5450  -32.1810   23.7750 O   0  0  0  0  0  0  0  0  0  0  0  0
  -22.7640  -29.4860   22.5790 C   0  0  0  0  0  0  0  0  0  0  0  0
  -21.4350  -29.3200   22.4530 N   0  0  0  0  0  0  0  0  0  0  0  0
  -23.4340  -28.8610   23.4050 O   0  0  0  0  0  0  0  0  0  0  0  0
  -20.9500  -29.8760   21.7630 H   0  0  0  0  0  0  0  0  0  0  0  0
  -18.0510  -28.1330   22.9590 C   0  0  0  0  0  0  0  0  0  0  0  0
  -20.6100  -28.3870   23.2270 C   0  0  0  0  0  3  0  0  0  0  0  0
  -20.7070  -26.9530   22.6550 C   0  0  0  0  0  2  0  0  0  0  0  0
  -19.6050  -26.6330   21.6410 C   0  0  0  0  0  2  0  0  0  0  0  0
  -18.2240  -26.7830   22.2830 C   0  0  0  0  0  2  0  0  0  0  0  0
  -19.1720  -28.8930   23.3870 C   0  0  0  0  0  0  0  0  0  0  0  0
  -18.9550  -30.1550   23.9800 C   0  0  0  0  0  3  0  0  0  0  0  0
  -17.6510  -30.6590   24.1480 C   0  0  0  0  0  3  0  0  0  0  0  0
  -16.5450  -29.8960   23.7340 C   0  0  0  0  0  3  0  0  0  0  0  0
  -16.7460  -28.6350   23.1450 C   0  0  0  0  0  3  0  0  0  0  0  0
  -25.9080  -32.5370   23.8850 C   0  0  0  0  0  3  0  0  0  0  0  0
  -26.4100  -31.7790   25.1750 C   0  0  1  0  0  0  0  0  0  0  0  0
  -25.3060  -31.5550   26.2360 C   0  0  0  0  0  1  0  0  0  0  0  0
  -26.9940  -30.3950   24.8080 C   0  0  0  0  0  1  0  0  0  0  0  0
  -27.5550  -32.5790   25.8410 C   0  0  0  0  0  1  0  0  0  0  0  0
  -25.5930  -33.9390   24.2040 N   0  0  0  0  0  0  0  0  0  0  0  0
  -25.9260  -34.9900   23.4430 C   0  0  0  0  0  0  0  0  0  0  0  0
  -26.5960  -34.8820   22.4120 O   0  0  0  0  0  0  0  0  0  0  0  0
  -24.9980  -34.0970   25.0040 H   0  0  0  0  0  0  0  0  0  0  0  0
  -24.1960  -36.7840   23.0890 C   0  0  0  0  0  1  0  0  0  0  0  0
  -25.4410  -36.3820   23.8960 C   0  0  0  0  0  3  0  0  0  0  0  0
  -27.5770  -37.2760   24.7140 C   0  0  0  0  0  1  0  0  0  0  0  0
  -26.4710  -37.4350   23.7720 N   0  0  0  0  0  0  0  0  0  0  0  0
  -26.0650  -38.3560   23.9130 H   0  0  0  0  0  0  0  0  0  0  0  0
  1 45  1  0
  2  1  2  0
  3 16  1  0
  4  9  1  0
  5  6  1  0
  5  4  1  0
  7  6  1  0
  7 20  1  0
  7  8  1  0
  9  3  1  0
  9  8  1  0
 10  3  2  0
 12  1  1  0
 12 11  1  0
 14 13  1  6
 14 11  1  0
 15 13  1  1
 15 12  1  0
 15 16  1  0
 15 14  1  0
 16 14  1  0
 17 18  2  0
 18 37  1  0
 19 18  1  0
 19 22  1  0
 20 17  1  0
 20 21  1  0
 21 19  2  0
 22 23  1  0
 23 24  2  0
 25 28  1  0
 25 24  1  0
 26 25  2  0
 27 26  1  0
 27 22  2  0
 28 29  1  0
 29 30  1  0
 30 31  2  0
 32 31  1  0
 32 36  1  0
 33 32  2  0
 34 29  2  0
 34 33  1  0
 35 34  1  0
 37 38  1  0
 38 41  1  0
 38 40  1  0
 39 37  2  0
 42 43  1  0
 42 17  1  0
 44 42  1  0
 45 46  1  0
 47 48  1  0
 47 46  1  0
 49 60  2  0
 50 48  1  0
 50 55  1  0
 51 59  1  0
 51 61  1  0
 52 58  1  0
 52 54  1  0
 53 59  1  0
 54 55  2  0
 54 53  1  0
 56 50  2  0
 57 56  1  0
 57 52  2  0
 58 51  1  0
 59 49  1  0
 61 63  2  0
 62 61  1  0
 64 62  1  0
 65 74  2  0
 65 70  1  0
 66 62  1  0
 66 70  1  0
 67 66  1  0
 68 69  1  0
 68 67  1  0
 69 65  1  0
 70 71  2  0
 71 72  1  0
 73 72  2  0
 74 73  1  0
 75 49  1  0
 75 80  1  0
 75 76  1  0
 76 79  1  1
 76 77  1  0
 78 76  1  0
 80 83  1  0
 81 85  1  0
 81 80  1  0
 82 81  2  0
 85 84  1  0
 87 85  1  0
 87 88  1  0
 87 86  1  0
M  ISO  4   3 100  16 100  47 101  48 101
M  END
>  <TORSDO>  (88) 
F 19

>  <SCORE>  (88) 
-15.000

>  <name>  (88) 
87

>  <ligand_id>  (88) 
87

>  <original_smiles>  (88) 
[H]C1=C(C(=O)C([H])([H])C([H])([H])C([H])([H])Oc2c([H])c([H])c3c(c2[H])C([H])([H])N(C(=O)C([H])(N([H])C(=O)C([H])(N([H])C([H])([H])[H])C([H])([H])[H])C(C([H])([H])[H])(C([H])([H])[H])C([H])([H])[H])C([H])(C(=O)N([H])C2([H])c4c([H])c([H])c([H])c([H])c4C([H])([H])C([H])([H])C2([H])[H])C3([H])[H])C2([H])N(C(=O)N3C([H])([H])C([H])([H])C([H])([H])C([H])(n4nc(-c5c([H])c([H])c(Oc6c([H])c([H])c(F)c([H])c6F)c([H])c5[H])c(C(=O)N([H])[H])c4N([H])[H])C3([H])[H])C1([H])C2([H])[H]

>  <smiles>  (88) 
[H]C1=C(C(=O)C([H])([H])C([H])([H])C([H])([H])Oc2c([H])c([H])c3c(c2[H])C([H])([H])N(C(=O)C([H])(N([H])C(=O)C([H])(N([H])C([H])([H])[H])C([H])([H])[H])C(C([H])([H])[H])(C([H])([H])[H])C([H])([H])[H])C([H])(C(=O)N([H])C2([H])c4c([H])c([H])c([H])c([H])c4C([H])([H])C([H])([H])C2([H])[H])C3([H])[H])C2([H])N(C(=O)N3C([H])([H])C([H])([H])C([H])([H])C([H])(n4nc(-c5c([H])c([H])c(Oc6c([H])c([H])c(F)c([H])c6F)c([H])c5[H])c(C(=O)N([H])[H])c4N([H])[H])C3([H])[H])C1([H])C2([H])[H]

$$$$
88:0:0
     RDKit          3D

 90 99  0  0  1  0  0  0  0  0999 V2000
  -29.4660  -21.7870   20.0560 N   0  0  0  0  0  4  0  0  0  0  0  0
  -30.2040  -22.1770   19.4910 H   0  0  0  0  0  0  0  0  0  0  0  0
  -29.8720  -21.7470   20.9790 H   0  0  0  0  0  0  0  0  0  0  0  0
  -29.4100  -20.2590   19.5050 C   0  0  0  0  0  2  0  0  0  0  0  0
  -30.7530  -15.1700   19.8970 C   0  0  0  0  0  0  0  0  0  0  0  0
  -30.5510  -12.7980   18.9540 C   0  0  0  0  0  2  0  0  0  0  0  0
  -29.5790  -12.6490   17.7650 C   0  0  0  0  0  2  0  0  0  0  0  0
  -28.1450  -12.4090   18.2710 C   0  0  0  0  0  2  0  0  0  0  0  0
  -27.7580  -13.3600   19.4340 C   0  0  0  0  0  3  0  0  0  0  0  0
  -28.8630  -13.4840   20.5020 C   0  0  0  0  0  2  0  0  0  0  0  0
  -30.0690  -13.9430   19.7950 N   0  0  0  0  0  0  0  0  0  0  0  0
  -31.9760  -15.0700   19.7370 O   0  0  0  0  0  0  0  0  0  0  0  0
  -27.0320  -18.4460   20.1410 C   0  0  0  0  0  2  0  0  0  0  0  0
  -27.7690  -17.4420   19.1950 C   0  0  0  0  0  2  0  0  0  0  0  0
  -28.1280  -19.0030   21.1470 C   0  0  0  0  0  2  0  0  0  0  0  0
  -30.7630  -17.7970   20.5460 C   0  0  0  0  0  2  0  0  0  0  0  0
  -28.9090  -17.2530   20.1180 C   0  0  0  0  0  3  0  0  0  0  0  0
  -29.4530  -18.7620   20.3960 C   0  0  2  0  0  0  0  0  0  0  0  0
  -30.1920  -16.5270   19.8940 N   0  0  0  0  0  0  0  0  0  0  0  0
  -25.4090  -13.9040   20.2790 C   0  0  0  0  0  0  0  0  0  0  0  0
  -24.3610  -13.1230   20.6680 C   0  0  0  0  0  0  0  0  0  0  0  0
  -24.8400  -11.7810   20.6290 C   0  0  0  0  0  0  0  0  0  0  0  0
  -26.4530  -13.0410   19.9990 N   0  0  0  0  0  0  0  0  0  0  0  0
  -26.1240  -11.7540   20.2830 N   0  0  0  0  0  0  0  0  0  0  0  0
  -24.1260  -10.5180   20.8430 C   0  0  0  0  0  0  0  0  0  0  0  0
  -24.5480   -9.5880   21.8190 C   0  0  0  0  0  3  0  0  0  0  0  0
  -23.8270   -8.3920   22.0230 C   0  0  0  0  0  3  0  0  0  0  0  0
  -22.6730   -8.1200   21.2520 C   0  0  0  0  0  0  0  0  0  0  0  0
  -22.2720   -9.0380   20.2660 C   0  0  0  0  0  3  0  0  0  0  0  0
  -22.9930  -10.2250   20.0610 C   0  0  0  0  0  3  0  0  0  0  0  0
  -21.9260   -6.9720   21.3630 O   0  0  0  0  0  0  0  0  0  0  0  0
  -21.8120   -6.3020   22.5550 C   0  0  0  0  0  0  0  0  0  0  0  0
  -21.2750   -6.9180   23.7070 C   0  0  0  0  0  3  0  0  0  0  0  0
  -21.1100   -6.1730   24.8910 C   0  0  0  0  0  3  0  0  0  0  0  0
  -21.4720   -4.8130   24.9240 C   0  0  0  0  0  0  0  0  0  0  0  0
  -22.0000   -4.1970   23.7760 C   0  0  0  0  0  3  0  0  0  0  0  0
  -22.1680   -4.9400   22.5940 C   0  0  0  0  0  0  0  0  0  0  0  0
  -22.6580   -4.3350   21.4840 F   0  0  0  0  0  0  0  0  0  0  0  0
  -21.3040   -4.0940   26.0580 F   0  0  0  0  0  0  0  0  0  0  0  0
  -22.9700  -13.5990   20.9670 C   0  0  0  0  0  0  0  0  0  0  0  0
  -22.2690  -12.9140   21.8620 N   0  0  0  0  0  0  0  0  0  0  0  0
  -22.5160  -14.6170   20.4440 O   0  0  0  0  0  0  0  0  0  0  0  0
  -22.6510  -12.0920   22.3050 H   0  0  0  0  0  0  0  0  0  0  0  0
  -21.3370  -13.2160   22.1080 H   0  0  0  0  0  0  0  0  0  0  0  0
  -25.5390  -15.2720   20.1230 N   0  0  0  0  0  0  0  0  0  0  0  0
  -24.7660  -15.9100   20.2770 H   0  0  0  0  0  0  0  0  0  0  0  0
  -26.3970  -15.7360   19.8650 H   0  0  0  0  0  0  0  0  0  0  0  0
  -28.3590  -22.9760   20.0680 C   0  0  0  0  0  2  0  0  0  0  0  0
  -28.5510  -24.6220   19.5340 C   0  0  0  0  0  2  0  0  0  0  0  0
  -28.3480  -26.0800   20.1560 O   0  0  0  0  0  0  0  0  0  0  0  0
  -24.6440  -31.7710   23.1220 C   0  0  0  0  0  0  0  0  0  0  0  0
  -27.2810  -27.0690   20.0270 C   0  0  0  0  0  0  0  0  0  0  0  0
  -23.4700  -30.3940   21.4480 C   0  0  0  0  0  3  0  0  0  0  0  0
  -24.9420  -28.8390   20.0040 C   0  0  0  0  0  0  0  0  0  0  0  0
  -26.0260  -30.6590   21.3160 C   0  0  0  0  0  2  0  0  0  0  0  0
  -26.1120  -29.2730   20.6370 C   0  0  0  0  0  0  0  0  0  0  0  0
  -27.2740  -28.4020   20.6330 C   0  0  0  0  0  3  0  0  0  0  0  0
  -26.0840  -26.7510   19.3500 C   0  0  0  0  0  3  0  0  0  0  0  0
  -24.9450  -27.5970   19.3450 C   0  0  0  0  0  3  0  0  0  0  0  0
  -23.7090  -29.7340   20.0610 C   0  0  0  0  0  2  0  0  0  0  0  0
  -24.7340  -30.9650   22.0170 N   0  0  0  0  0  0  0  0  0  0  0  0
  -23.5510  -32.0420   23.6440 O   0  0  0  0  0  0  0  0  0  0  0  0
  -22.7840  -29.3730   22.3920 C   0  0  0  0  0  0  0  0  0  0  0  0
  -21.4550  -29.2070   22.2580 N   0  0  0  0  0  0  0  0  0  0  0  0
  -23.4500  -28.7340   23.2090 O   0  0  0  0  0  0  0  0  0  0  0  0
  -20.9720  -29.7740   21.5750 H   0  0  0  0  0  0  0  0  0  0  0  0
  -18.0750  -27.9830   22.7240 C   0  0  0  0  0  0  0  0  0  0  0  0
  -20.6320  -28.2520   23.0070 C   0  0  0  0  0  3  0  0  0  0  0  0
  -20.7430  -26.8310   22.4050 C   0  0  0  0  0  2  0  0  0  0  0  0
  -19.6460  -26.5240   21.3810 C   0  0  0  0  0  2  0  0  0  0  0  0
  -18.2610  -26.6480   22.0210 C   0  0  0  0  0  2  0  0  0  0  0  0
  -19.1880  -28.7430   23.1730 C   0  0  0  0  0  0  0  0  0  0  0  0
  -18.9590  -29.9900   23.7920 C   0  0  0  0  0  3  0  0  0  0  0  0
  -17.6510  -30.4800   23.9650 C   0  0  0  0  0  3  0  0  0  0  0  0
  -16.5520  -29.7180   23.5310 C   0  0  0  0  0  3  0  0  0  0  0  0
  -16.7650  -28.4700   22.9170 C   0  0  0  0  0  3  0  0  0  0  0  0
  -25.9100  -32.4070   23.7740 C   0  0  0  0  0  3  0  0  0  0  0  0
  -26.4150  -31.6200   25.0480 C   0  0  1  0  0  0  0  0  0  0  0  0
  -25.3090  -31.3600   26.0970 C   0  0  0  0  0  1  0  0  0  0  0  0
  -27.0120  -30.2510   24.6480 C   0  0  0  0  0  1  0  0  0  0  0  0
  -27.5510  -32.4110   25.7370 C   0  0  0  0  0  1  0  0  0  0  0  0
  -25.5830  -33.7970   24.1340 N   0  0  0  0  0  0  0  0  0  0  0  0
  -25.9240  -34.8750   23.4140 C   0  0  0  0  0  0  0  0  0  0  0  0
  -26.6130  -34.8030   22.3920 O   0  0  0  0  0  0  0  0  0  0  0  0
  -24.9720  -33.9260   24.9260 H   0  0  0  0  0  0  0  0  0  0  0  0
  -24.2040  -36.6820   23.0790 C   0  0  0  0  0  1  0  0  0  0  0  0
  -25.4260  -36.2500   23.9040 C   0  0  0  0  0  3  0  0  0  0  0  0
  -27.5350  -37.1160   24.8190 C   0  0  0  0  0  1  0  0  0  0  0  0
  -26.4600  -37.3060   23.8480 N   0  0  0  0  0  0  0  0  0  0  0  0
  -26.0490  -38.2210   24.0060 H   0  0  0  0  0  0  0  0  0  0  0  0
  1 48  1  0
  1  3  1  0
  2  1  1  0
  4  1  1  0
  6 11  1  0
  7  8  1  0
  7  6  1  0
  9  8  1  0
  9 23  1  0
  9 10  1  0
 11  5  1  0
 11 10  1  0
 12  5  2  0
 13 15  1  0
 14 13  1  0
 17 14  1  0
 17 18  1  0
 18  4  1  6
 18 16  1  0
 18 15  1  0
 19  5  1  0
 19 17  1  0
 19 16  1  0
 20 21  2  0
 21 40  1  0
 22 21  1  0
 22 25  1  0
 23 20  1  0
 23 24  1  0
 24 22  2  0
 25 26  1  0
 26 27  2  0
 28 31  1  0
 28 27  1  0
 29 28  2  0
 30 29  1  0
 30 25  2  0
 31 32  1  0
 32 37  2  0
 32 33  1  0
 33 34  2  0
 34 35  1  0
 35 39  1  0
 36 35  2  0
 37 36  1  0
 38 37  1  0
 40 41  1  0
 41 44  1  0
 41 43  1  0
 42 40  2  0
 45 46  1  0
 45 20  1  0
 47 45  1  0
 49 48  1  0
 49 50  1  0
 51 62  2  0
 52 50  1  0
 52 57  1  0
 53 61  1  0
 53 63  1  0
 54 60  1  0
 54 56  1  0
 55 61  1  0
 56 55  1  0
 57 56  2  0
 58 52  2  0
 59 58  1  0
 59 54  2  0
 60 53  1  0
 61 51  1  0
 63 65  2  0
 64 63  1  0
 66 64  1  0
 67 76  2  0
 67 72  1  0
 68 64  1  0
 68 72  1  0
 69 68  1  0
 70 71  1  0
 70 69  1  0
 71 67  1  0
 72 73  2  0
 73 74  1  0
 75 74  2  0
 76 75  1  0
 77 51  1  0
 77 82  1  0
 77 78  1  0
 78 81  1  1
 78 79  1  0
 80 78  1  0
 82 85  1  0
 83 87  1  0
 83 82  1  0
 84 83  2  0
 87 86  1  0
 89 87  1  0
 89 90  1  0
 89 88  1  0
M  ISO  4   5 100  19 100  49 101  50 101
M  END
>  <TORSDO>  (89) 
F 19

>  <SCORE>  (89) 
-14.522

>  <name>  (89) 
88

>  <ligand_id>  (89) 
88

>  <original_smiles>  (89) 
[H]c1c([H])c([H])c2c(c1[H])C([H])([H])C([H])([H])C([H])([H])C2([H])N([H])C(=O)C1([H])N(C(=O)C([H])(N([H])C(=O)C([H])(N([H])C([H])([H])[H])C([H])([H])[H])C(C([H])([H])[H])(C([H])([H])[H])C([H])([H])[H])C([H])([H])c2c([H])c(OC([H])([H])C([H])([H])[N+]([H])([H])C([H])([H])C34C([H])([H])N(C(=O)N5C([H])([H])C([H])([H])C([H])([H])C([H])(n6nc(-c7c([H])c([H])c(Oc8c([H])c([H])c(F)c([H])c8F)c([H])c7[H])c(C(=O)N([H])[H])c6N([H])[H])C5([H])[H])C3([H])C([H])([H])C([H])([H])C4([H])[H])c([H])c([H])c2C1([H])[H]

>  <smiles>  (89) 
[H]c1c([H])c([H])c2c(c1[H])C([H])([H])C([H])([H])C([H])([H])C2([H])N([H])C(=O)C1([H])N(C(=O)C([H])(N([H])C(=O)C([H])(N([H])C([H])([H])[H])C([H])([H])[H])C(C([H])([H])[H])(C([H])([H])[H])C([H])([H])[H])C([H])([H])c2c([H])c(OC([H])([H])C([H])([H])[N+]([H])([H])C([H])([H])C34C([H])([H])N(C(=O)N5C([H])([H])C([H])([H])C([H])([H])C([H])(n6nc(-c7c([H])c([H])c(Oc8c([H])c([H])c(F)c([H])c8F)c([H])c7[H])c(C(=O)N([H])[H])c6N([H])[H])C5([H])[H])C3([H])C([H])([H])C([H])([H])C4([H])[H])c([H])c([H])c2C1([H])[H]

$$$$
89:0:0
     RDKit          3D

 90100  0  0  1  0  0  0  0  0999 V2000
  -31.9610  -19.0650   19.9700 C   0  0  0  0  0  2  0  0  0  0  0  0
  -30.6330  -21.0980   23.0700 C   0  0  0  0  0  2  0  0  0  0  0  0
  -32.0420  -21.2590   22.5680 C   0  0  0  0  0  2  0  0  0  0  0  0
  -30.7920  -18.9080   19.0050 C   0  0  0  0  0  2  0  0  0  0  0  0
  -30.4070  -22.0360   20.6340 C   0  0  0  0  0  2  0  0  0  0  0  0
  -28.6120  -20.2740   20.0810 C   0  0  0  0  0  2  0  0  0  0  0  0
  -30.9480  -19.4070   21.0610 C   0  0  0  0  0  3  0  0  0  0  0  0
  -28.8570  -22.0960   20.4830 C   0  0  0  0  0  3  0  0  0  0  0  0
  -30.9290  -20.8940   21.5940 C   0  0  2  0  0  0  0  0  0  0  0  0
  -29.7880  -18.8180   20.1800 C   0  0  2  0  0  0  0  0  0  0  0  0
  -30.2830  -15.6560   20.2200 C   0  0  0  0  0  0  0  0  0  0  0  0
  -30.3230  -13.1290   19.3680 C   0  0  0  0  0  2  0  0  0  0  0  0
  -29.4030  -12.7260   18.1780 C   0  0  0  0  0  2  0  0  0  0  0  0
  -27.9900  -12.3780   18.6660 C   0  0  0  0  0  2  0  0  0  0  0  0
  -27.5000  -13.3820   19.7330 C   0  0  0  0  0  3  0  0  0  0  0  0
  -28.5560  -13.6830   20.8260 C   0  0  0  0  0  2  0  0  0  0  0  0
  -29.7250  -14.3040   20.1510 N   0  0  0  0  0  0  0  0  0  0  0  0
  -31.5080  -15.5620   20.0110 O   0  0  0  0  0  0  0  0  0  0  0  0
  -29.5740  -17.0450   20.3190 N   0  0  0  0  0  0  0  0  0  0  0  0
  -28.5980  -16.8540   20.4890 H   0  0  0  0  0  0  0  0  0  0  0  0
  -25.1470  -13.9020   20.5410 C   0  0  0  0  0  0  0  0  0  0  0  0
  -24.0930  -13.1170   20.9150 C   0  0  0  0  0  0  0  0  0  0  0  0
  -24.5640  -11.7680   20.8600 C   0  0  0  0  0  0  0  0  0  0  0  0
  -26.1890  -13.0370   20.2720 N   0  0  0  0  0  0  0  0  0  0  0  0
  -25.8520  -11.7450   20.5310 N   0  0  0  0  0  0  0  0  0  0  0  0
  -23.8380  -10.5030   21.0430 C   0  0  0  0  0  0  0  0  0  0  0  0
  -24.2740   -9.5280   21.9670 C   0  0  0  0  0  3  0  0  0  0  0  0
  -23.5410   -8.3320   22.1450 C   0  0  0  0  0  3  0  0  0  0  0  0
  -22.3610   -8.1040   21.3980 C   0  0  0  0  0  0  0  0  0  0  0  0
  -21.9440   -9.0700   20.4660 C   0  0  0  0  0  3  0  0  0  0  0  0
  -22.6760  -10.2550   20.2860 C   0  0  0  0  0  3  0  0  0  0  0  0
  -21.6030   -6.9600   21.4840 O   0  0  0  0  0  0  0  0  0  0  0  0
  -21.5590   -6.2100   22.6320 C   0  0  0  0  0  0  0  0  0  0  0  0
  -21.1150   -6.7530   23.8590 C   0  0  0  0  0  3  0  0  0  0  0  0
  -21.0170   -5.9290   24.9990 C   0  0  0  0  0  3  0  0  0  0  0  0
  -21.3530   -4.5660   24.9150 C   0  0  0  0  0  0  0  0  0  0  0  0
  -21.7900   -4.0220   23.6940 C   0  0  0  0  0  3  0  0  0  0  0  0
  -21.8880   -4.8420   22.5560 C   0  0  0  0  0  0  0  0  0  0  0  0
  -22.2890   -4.3080   21.3770 F   0  0  0  0  0  0  0  0  0  0  0  0
  -21.2510   -3.7740   26.0080 F   0  0  0  0  0  0  0  0  0  0  0  0
  -22.6980  -13.5890   21.2020 C   0  0  0  0  0  0  0  0  0  0  0  0
  -21.9790  -12.8890   22.0710 N   0  0  0  0  0  0  0  0  0  0  0  0
  -22.2560  -14.6170   20.6920 O   0  0  0  0  0  0  0  0  0  0  0  0
  -22.3460  -12.0570   22.5100 H   0  0  0  0  0  0  0  0  0  0  0  0
  -21.0430  -13.1930   22.3050 H   0  0  0  0  0  0  0  0  0  0  0  0
  -25.3020  -15.2760   20.3730 N   0  0  0  0  0  0  0  0  0  0  0  0
  -24.5370  -15.9290   20.5150 H   0  0  0  0  0  0  0  0  0  0  0  0
  -26.1390  -15.7220   20.0250 H   0  0  0  0  0  0  0  0  0  0  0  0
  -28.0880  -23.8310   20.0300 C   0  0  0  0  0  2  0  0  0  0  0  0
  -28.1670  -25.5530   20.3700 O   0  0  0  0  0  0  0  0  0  0  0  0
  -24.6040  -31.8210   23.2250 C   0  0  0  0  0  0  0  0  0  0  0  0
  -27.1890  -26.7560   20.2640 C   0  0  0  0  0  0  0  0  0  0  0  0
  -23.4410  -30.4210   21.5690 C   0  0  0  0  0  3  0  0  0  0  0  0
  -24.9120  -28.7760   20.1790 C   0  0  0  0  0  0  0  0  0  0  0  0
  -26.0170  -30.5670   21.4870 C   0  0  0  0  0  2  0  0  0  0  0  0
  -26.0950  -29.1360   20.8300 C   0  0  0  0  0  0  0  0  0  0  0  0
  -27.2190  -28.1530   20.8450 C   0  0  0  0  0  3  0  0  0  0  0  0
  -25.9710  -26.6030   19.5530 C   0  0  0  0  0  3  0  0  0  0  0  0
  -24.8870  -27.5370   19.5180 C   0  0  0  0  0  3  0  0  0  0  0  0
  -23.7030  -29.7250   20.2040 C   0  0  0  0  0  2  0  0  0  0  0  0
  -24.7100  -30.9700   22.1480 N   0  0  0  0  0  0  0  0  0  0  0  0
  -23.5050  -32.1250   23.7150 O   0  0  0  0  0  0  0  0  0  0  0  0
  -22.7130  -29.4450   22.5300 C   0  0  0  0  0  0  0  0  0  0  0  0
  -21.3820  -29.2910   22.3870 N   0  0  0  0  0  0  0  0  0  0  0  0
  -23.3550  -28.8170   23.3760 O   0  0  0  0  0  0  0  0  0  0  0  0
  -20.9110  -29.8500   21.6900 H   0  0  0  0  0  0  0  0  0  0  0  0
  -17.9890  -28.0770   22.8530 C   0  0  0  0  0  0  0  0  0  0  0  0
  -20.5450  -28.3550   23.1490 C   0  0  0  0  0  3  0  0  0  0  0  0
  -20.6580  -26.9190   22.5840 C   0  0  0  0  0  2  0  0  0  0  0  0
  -19.5740  -26.5900   21.5530 C   0  0  0  0  0  2  0  0  0  0  0  0
  -18.1800  -26.7290   22.1730 C   0  0  0  0  0  2  0  0  0  0  0  0
  -19.0980  -28.8470   23.2930 C   0  0  0  0  0  0  0  0  0  0  0  0
  -18.8630  -30.1040   23.8870 C   0  0  0  0  0  3  0  0  0  0  0  0
  -17.5530  -30.5950   24.0420 C   0  0  0  0  0  3  0  0  0  0  0  0
  -16.4580  -29.8240   23.6140 C   0  0  0  0  0  3  0  0  0  0  0  0
  -16.6760  -28.5670   23.0250 C   0  0  0  0  0  3  0  0  0  0  0  0
  -25.8590  -32.4720   23.8820 C   0  0  0  0  0  3  0  0  0  0  0  0
  -25.5340  -33.8760   24.2060 N   0  0  0  0  0  0  0  0  0  0  0  0
  -25.8590  -34.9360   23.4550 C   0  0  0  0  0  0  0  0  0  0  0  0
  -26.5200  -34.8370   22.4170 O   0  0  0  0  0  0  0  0  0  0  0  0
  -24.9440  -34.0290   25.0110 H   0  0  0  0  0  0  0  0  0  0  0  0
  -24.1080  -36.7260   23.1550 C   0  0  0  0  0  1  0  0  0  0  0  0
  -25.3790  -36.3270   23.9230 C   0  0  0  0  0  3  0  0  0  0  0  0
  -27.5310  -37.2370   24.6850 C   0  0  0  0  0  1  0  0  0  0  0  0
  -26.3990  -37.3880   23.7720 N   0  0  0  0  0  0  0  0  0  0  0  0
  -25.9900  -38.3030   23.9330 H   0  0  0  0  0  0  0  0  0  0  0  0
  -26.3360  -31.7190   25.1860 C   0  0  1  0  0  0  0  0  0  0  0  0
  -25.2110  -31.5130   26.2320 C   0  0  0  0  0  1  0  0  0  0  0  0
  -26.9120  -30.3270   24.8430 C   0  0  0  0  0  1  0  0  0  0  0  0
  -27.4800  -32.5140   25.8590 C   0  0  0  0  0  1  0  0  0  0  0  0
  3  2  1  0
  4  1  1  0
  4 10  1  0
  9  5  1  6
  6 10  1  0
  6  8  1  0
  7  1  1  0
  7  9  1  0
  8 49  1  0
  8  5  1  0
  9  3  1  0
  9  2  1  0
 10 19  1  1
 10  7  1  0
 11 19  1  0
 12 17  1  0
 13 14  1  0
 13 12  1  0
 15 14  1  0
 15 24  1  0
 15 16  1  0
 17 11  1  0
 17 16  1  0
 18 11  2  0
 19 20  1  0
 21 22  2  0
 22 41  1  0
 23 22  1  0
 23 26  1  0
 24 25  1  0
 24 21  1  0
 25 23  2  0
 26 27  1  0
 27 28  2  0
 29 32  1  0
 29 28  1  0
 30 29  2  0
 31 30  1  0
 31 26  2  0
 32 33  1  0
 33 34  1  0
 34 35  2  0
 36 35  1  0
 36 40  1  0
 37 36  2  0
 38 33  2  0
 38 37  1  0
 39 38  1  0
 41 42  1  0
 42 45  1  0
 42 44  1  0
 43 41  2  0
 46 47  1  0
 46 21  1  0
 48 46  1  0
 49 50  1  0
 51 62  2  0
 52 50  1  0
 52 57  1  0
 53 61  1  0
 53 63  1  0
 54 60  1  0
 54 56  1  0
 55 61  1  0
 56 57  2  0
 56 55  1  0
 58 52  2  0
 59 58  1  0
 59 54  2  0
 60 53  1  0
 61 51  1  0
 63 65  2  0
 64 63  1  0
 66 64  1  0
 67 76  2  0
 67 72  1  0
 68 64  1  0
 68 72  1  0
 69 68  1  0
 70 71  1  0
 70 69  1  0
 71 67  1  0
 72 73  2  0
 73 74  1  0
 75 74  2  0
 76 75  1  0
 77 51  1  0
 77 78  1  0
 77 87  1  0
 78 81  1  0
 79 83  1  0
 79 78  1  0
 80 79  2  0
 83 82  1  0
 85 83  1  0
 85 86  1  0
 85 84  1  0
 87 90  1  1
 87 88  1  0
 89 87  1  0
M  ISO  4  11 100  19 100  49 101  50 101
M  END
>  <TORSDO>  (90) 
F 17

>  <SCORE>  (90) 
-16.933

>  <name>  (90) 
89

>  <ligand_id>  (90) 
89

>  <original_smiles>  (90) 
[H]c1c([H])c([H])c2c(c1[H])C([H])([H])C([H])([H])C([H])([H])C2([H])N([H])C(=O)C1([H])N(C(=O)C([H])(N([H])C(=O)C([H])(N([H])C([H])([H])[H])C([H])([H])[H])C(C([H])([H])[H])(C([H])([H])[H])C([H])([H])[H])C([H])([H])c2c([H])c(OC([H])([H])C3([H])C([H])([H])C4(N([H])C(=O)N5C([H])([H])C([H])([H])C([H])([H])C([H])(n6nc(-c7c([H])c([H])c(Oc8c([H])c([H])c(F)c([H])c8F)c([H])c7[H])c(C(=O)N([H])[H])c6N([H])[H])C5([H])[H])C([H])([H])C([H])([H])C4([H])C4(C([H])([H])C4([H])[H])C3([H])[H])c([H])c([H])c2C1([H])[H]

>  <smiles>  (90) 
[H]c1c([H])c([H])c2c(c1[H])C([H])([H])C([H])([H])C([H])([H])C2([H])N([H])C(=O)C1([H])N(C(=O)C([H])(N([H])C(=O)C([H])(N([H])C([H])([H])[H])C([H])([H])[H])C(C([H])([H])[H])(C([H])([H])[H])C([H])([H])[H])C([H])([H])c2c([H])c(OC([H])([H])C3([H])C([H])([H])C4(N([H])C(=O)N5C([H])([H])C([H])([H])C([H])([H])C([H])(n6nc(-c7c([H])c([H])c(Oc8c([H])c([H])c(F)c([H])c8F)c([H])c7[H])c(C(=O)N([H])[H])c6N([H])[H])C5([H])[H])C([H])([H])C([H])([H])C4([H])C4(C([H])([H])C4([H])[H])C3([H])[H])c([H])c([H])c2C1([H])[H]

$$$$
90:0:0
     RDKit          3D

 92100  0  0  1  0  0  0  0  0999 V2000
  -27.5920  -21.0310   19.1630 C   0  0  0  0  0  2  0  0  0  0  0  0
  -29.0610  -20.5110   21.1030 C   0  0  0  0  0  2  0  0  0  0  0  0
  -28.9390  -20.3720   19.0740 C   0  0  0  0  0  3  0  0  0  0  0  0
  -29.6370  -19.1850   20.1020 C   0  0  2  0  0  0  0  0  0  0  0  0
  -28.6160  -21.7560   20.0310 C   0  0  0  0  0  3  0  0  0  0  0  0
  -30.2410  -15.9440   20.1200 C   0  0  0  0  0  0  0  0  0  0  0  0
  -30.4080  -13.3560   19.3300 C   0  0  0  0  0  2  0  0  0  0  0  0
  -29.5170  -12.8530   18.1540 C   0  0  0  0  0  2  0  0  0  0  0  0
  -28.1210  -12.4480   18.6440 C   0  0  0  0  0  2  0  0  0  0  0  0
  -27.5950  -13.4530   19.6910 C   0  0  0  0  0  3  0  0  0  0  0  0
  -28.6330  -13.8530   20.7700 C   0  0  0  0  0  2  0  0  0  0  0  0
  -29.7510  -14.5430   20.0710 N   0  0  0  0  0  0  0  0  0  0  0  0
  -31.4750  -15.8680   19.9320 O   0  0  0  0  0  0  0  0  0  0  0  0
  -29.4790  -17.3500   20.1860 N   0  0  0  0  0  0  0  0  0  0  0  0
  -28.5010  -17.1320   20.3100 H   0  0  0  0  0  0  0  0  0  0  0  0
  -25.2590  -13.9380   20.5450 C   0  0  0  0  0  0  0  0  0  0  0  0
  -24.2200  -13.1400   20.9240 C   0  0  0  0  0  0  0  0  0  0  0  0
  -24.6990  -11.7950   20.8440 C   0  0  0  0  0  0  0  0  0  0  0  0
  -26.3030  -13.0830   20.2460 N   0  0  0  0  0  0  0  0  0  0  0  0
  -25.9830  -11.7840   20.4950 N   0  0  0  0  0  0  0  0  0  0  0  0
  -23.9870  -10.5220   21.0240 C   0  0  0  0  0  0  0  0  0  0  0  0
  -24.4220   -9.5540   21.9540 C   0  0  0  0  0  3  0  0  0  0  0  0
  -23.7020   -8.3510   22.1270 C   0  0  0  0  0  3  0  0  0  0  0  0
  -22.5320   -8.1090   21.3700 C   0  0  0  0  0  0  0  0  0  0  0  0
  -22.1150   -9.0660   20.4280 C   0  0  0  0  0  3  0  0  0  0  0  0
  -22.8350  -10.2600   20.2540 C   0  0  0  0  0  3  0  0  0  0  0  0
  -21.7840   -6.9580   21.4520 O   0  0  0  0  0  0  0  0  0  0  0  0
  -21.6990   -6.2360   22.6150 C   0  0  0  0  0  0  0  0  0  0  0  0
  -21.1760   -6.7930   23.8020 C   0  0  0  0  0  3  0  0  0  0  0  0
  -21.0450   -5.9940   24.9560 C   0  0  0  0  0  3  0  0  0  0  0  0
  -21.4230   -4.6390   24.9210 C   0  0  0  0  0  0  0  0  0  0  0  0
  -21.9360   -4.0810   23.7380 C   0  0  0  0  0  3  0  0  0  0  0  0
  -22.0710   -4.8770   22.5870 C   0  0  0  0  0  0  0  0  0  0  0  0
  -22.5470   -4.3290   21.4420 F   0  0  0  0  0  0  0  0  0  0  0  0
  -21.2880   -3.8690   26.0260 F   0  0  0  0  0  0  0  0  0  0  0  0
  -22.8260  -13.6000   21.2360 C   0  0  0  0  0  0  0  0  0  0  0  0
  -22.1270  -12.8860   22.1110 N   0  0  0  0  0  0  0  0  0  0  0  0
  -22.3670  -14.6270   20.7380 O   0  0  0  0  0  0  0  0  0  0  0  0
  -22.5160  -12.0600   22.5400 H   0  0  0  0  0  0  0  0  0  0  0  0
  -21.1920  -13.1740   22.3620 H   0  0  0  0  0  0  0  0  0  0  0  0
  -25.4000  -15.3150   20.3950 N   0  0  0  0  0  0  0  0  0  0  0  0
  -24.6210  -15.9480   20.5450 H   0  0  0  0  0  0  0  0  0  0  0  0
  -26.2170  -15.7740   20.0170 H   0  0  0  0  0  0  0  0  0  0  0  0
  -31.1400  -19.3070   19.9510 C   0  0  0  0  0  0  0  0  0  0  0  0
  -31.9260  -19.4900   20.8890 O   0  0  0  0  0  0  0  0  0  0  0  0
  -31.7100  -19.1070   18.5370 C   0  0  0  0  0  2  0  0  0  0  0  0
  -33.1710  -19.2840   18.5960 N   0  0  0  0  0  4  0  0  0  0  0  0
  -33.4020  -20.2610   18.5760 H   0  0  0  0  0  0  0  0  0  0  0  0
  -33.6260  -18.8150   17.8340 H   0  0  0  0  0  0  0  0  0  0  0  0
  -33.4850  -18.9140   19.4770 H   0  0  0  0  0  0  0  0  0  0  0  0
  -27.9210  -23.6400   20.1070 C   0  0  0  0  0  1  0  0  0  0  0  0
  -28.1230  -25.4440   20.2110 O   0  0  0  0  0  0  0  0  0  0  0  0
  -24.6610  -31.8650   23.2040 C   0  0  0  0  0  0  0  0  0  0  0  0
  -27.1650  -26.7110   20.1820 C   0  0  0  0  0  0  0  0  0  0  0  0
  -23.4660  -30.4700   21.5720 C   0  0  0  0  0  3  0  0  0  0  0  0
  -24.9060  -28.8090   20.1510 C   0  0  0  0  0  0  0  0  0  0  0  0
  -26.0510  -30.5860   21.4420 C   0  0  0  0  0  2  0  0  0  0  0  0
  -26.1090  -29.1440   20.7800 C   0  0  0  0  0  0  0  0  0  0  0  0
  -27.2190  -28.1280   20.7580 C   0  0  0  0  0  3  0  0  0  0  0  0
  -25.9230  -26.6130   19.4990 C   0  0  0  0  0  3  0  0  0  0  0  0
  -24.8570  -27.5720   19.4840 C   0  0  0  0  0  3  0  0  0  0  0  0
  -23.7020  -29.7710   20.2010 C   0  0  0  0  0  2  0  0  0  0  0  0
  -24.7520  -31.0100   22.1250 N   0  0  0  0  0  0  0  0  0  0  0  0
  -23.5670  -32.1650   23.7160 O   0  0  0  0  0  0  0  0  0  0  0  0
  -22.7490  -29.4960   22.5480 C   0  0  0  0  0  0  0  0  0  0  0  0
  -21.4180  -29.3330   22.4220 N   0  0  0  0  0  0  0  0  0  0  0  0
  -23.4050  -28.8810   23.3930 O   0  0  0  0  0  0  0  0  0  0  0  0
  -20.9360  -29.8790   21.7220 H   0  0  0  0  0  0  0  0  0  0  0  0
  -18.0380  -28.0880   22.9360 C   0  0  0  0  0  0  0  0  0  0  0  0
  -20.5960  -28.3920   23.1960 C   0  0  0  0  0  3  0  0  0  0  0  0
  -20.7140  -26.9580   22.6310 C   0  0  0  0  0  2  0  0  0  0  0  0
  -19.6170  -26.6170   21.6160 C   0  0  0  0  0  2  0  0  0  0  0  0
  -18.2330  -26.7430   22.2580 C   0  0  0  0  0  2  0  0  0  0  0  0
  -19.1460  -28.8720   23.3610 C   0  0  0  0  0  0  0  0  0  0  0  0
  -18.9040  -30.1260   23.9600 C   0  0  0  0  0  3  0  0  0  0  0  0
  -17.5910  -30.6010   24.1350 C   0  0  0  0  0  3  0  0  0  0  0  0
  -16.4980  -29.8180   23.7190 C   0  0  0  0  0  3  0  0  0  0  0  0
  -16.7240  -28.5630   23.1270 C   0  0  0  0  0  3  0  0  0  0  0  0
  -25.9200  -32.5200   23.8430 C   0  0  0  0  0  3  0  0  0  0  0  0
  -26.4170  -31.7660   25.1390 C   0  0  1  0  0  0  0  0  0  0  0  0
  -25.3090  -31.5470   26.1970 C   0  0  0  0  0  1  0  0  0  0  0  0
  -27.0030  -30.3810   24.7870 C   0  0  0  0  0  1  0  0  0  0  0  0
  -27.5630  -32.5660   25.8050 C   0  0  0  0  0  1  0  0  0  0  0  0
  -25.5960  -33.9210   24.1800 N   0  0  0  0  0  0  0  0  0  0  0  0
  -25.9140  -34.9910   23.4370 C   0  0  0  0  0  0  0  0  0  0  0  0
  -26.5670  -34.9010   22.3940 O   0  0  0  0  0  0  0  0  0  0  0  0
  -25.0130  -34.0640   24.9920 H   0  0  0  0  0  0  0  0  0  0  0  0
  -24.1750  -36.7940   23.1530 C   0  0  0  0  0  1  0  0  0  0  0  0
  -25.4380  -36.3770   23.9250 C   0  0  0  0  0  3  0  0  0  0  0  0
  -27.5860  -37.2720   24.7160 C   0  0  0  0  0  1  0  0  0  0  0  0
  -26.4660  -37.4340   23.7940 N   0  0  0  0  0  0  0  0  0  0  0  0
  -26.0600  -38.3540   23.9470 H   0  0  0  0  0  0  0  0  0  0  0  0
  3  1  1  0
  3  5  1  0
  3  4  1  0
  4 44  1  0
  4 14  1  1
  4  2  1  0
  5  1  1  0
  5  2  1  0
  6 14  1  0
  7 12  1  0
  8  9  1  0
  8  7  1  0
 10  9  1  0
 10 19  1  0
 10 11  1  0
 12  6  1  0
 12 11  1  0
 13  6  2  0
 14 15  1  0
 16 17  2  0
 17 36  1  0
 18 17  1  0
 18 21  1  0
 19 20  1  0
 19 16  1  0
 20 18  2  0
 21 22  1  0
 22 23  2  0
 24 27  1  0
 24 23  1  0
 25 24  2  0
 26 25  1  0
 26 21  2  0
 27 28  1  0
 28 29  1  0
 29 30  2  0
 31 30  1  0
 31 35  1  0
 32 31  2  0
 33 28  2  0
 33 32  1  0
 34 33  1  0
 36 37  1  0
 37 40  1  0
 37 39  1  0
 38 36  2  0
 41 42  1  0
 41 16  1  0
 43 41  1  0
 44 45  2  0
 46 47  1  0
 46 44  1  0
 47 50  1  0
 48 47  1  0
 49 47  1  0
 51 52  1  0
 53 64  2  0
 54 52  1  0
 54 59  1  0
 55 63  1  0
 55 65  1  0
 56 62  1  0
 56 58  1  0
 57 63  1  0
 58 57  1  0
 59 58  2  0
 60 54  2  0
 61 60  1  0
 61 56  2  0
 62 55  1  0
 63 53  1  0
 65 67  2  0
 66 65  1  0
 68 66  1  0
 69 78  2  0
 69 74  1  0
 70 66  1  0
 70 74  1  0
 71 70  1  0
 72 73  1  0
 72 71  1  0
 73 69  1  0
 74 75  2  0
 75 76  1  0
 77 76  2  0
 78 77  1  0
 79 53  1  0
 79 84  1  0
 79 80  1  0
 80 83  1  1
 80 81  1  0
 82 80  1  0
 84 87  1  0
 85 89  1  0
 85 84  1  0
 86 85  2  0
 89 88  1  0
 91 89  1  0
 91 92  1  0
 91 90  1  0
M  ISO  4   6 100  14 100  51 101  52 101
M  END
>  <TORSDO>  (91) 
F 20

>  <SCORE>  (91) 
-15.677

>  <name>  (91) 
90

>  <ligand_id>  (91) 
90

>  <original_smiles>  (91) 
[H]c1c([H])c([H])c2c(c1[H])C([H])([H])C([H])([H])C([H])([H])C2([H])N([H])C(=O)C1([H])N(C(=O)C([H])(N([H])C(=O)C([H])(N([H])C([H])([H])[H])C([H])([H])[H])C(C([H])([H])[H])(C([H])([H])[H])C([H])([H])[H])C([H])([H])c2c([H])c(OC([H])([H])C34C([H])([H])C(C(=O)C([H])([H])[N+]([H])([H])[H])(N([H])C(=O)N5C([H])([H])C([H])([H])C([H])([H])C([H])(n6nc(-c7c([H])c([H])c(Oc8c([H])c([H])c(F)c([H])c8F)c([H])c7[H])c(C(=O)N([H])[H])c6N([H])[H])C5([H])[H])C3([H])C4([H])[H])c([H])c([H])c2C1([H])[H]

>  <smiles>  (91) 
[H]c1c([H])c([H])c2c(c1[H])C([H])([H])C([H])([H])C([H])([H])C2([H])N([H])C(=O)C1([H])N(C(=O)C([H])(N([H])C(=O)C([H])(N([H])C([H])([H])[H])C([H])([H])[H])C(C([H])([H])[H])(C([H])([H])[H])C([H])([H])[H])C([H])([H])c2c([H])c(OC([H])([H])C34C([H])([H])C(C(=O)C([H])([H])[N+]([H])([H])[H])(N([H])C(=O)N5C([H])([H])C([H])([H])C([H])([H])C([H])(n6nc(-c7c([H])c([H])c(Oc8c([H])c([H])c(F)c([H])c8F)c([H])c7[H])c(C(=O)N([H])[H])c6N([H])[H])C5([H])[H])C3([H])C4([H])[H])c([H])c([H])c2C1([H])[H]

$$$$
91:0:0
     RDKit          3D

 91100  0  0  1  0  0  0  0  0999 V2000
  -29.9260  -22.3600   20.6640 C   0  0  0  0  0  2  0  0  0  0  0  0
  -30.1290  -20.8610   20.1000 C   0  0  0  0  0  3  0  0  0  0  0  0
  -28.9600  -20.5840   19.2460 C   0  0  0  0  0  3  0  0  0  0  0  0
  -28.5830  -23.1240   20.2400 C   0  0  0  0  0  3  0  0  0  0  0  0
  -29.3990  -19.4250   20.2690 C   0  0  0  0  0  3  0  0  0  0  0  0
  -28.0410  -21.8990   19.3350 C   0  0  0  0  0  3  0  0  0  0  0  0
  -26.6540  -21.5260   19.6560 N   0  0  0  0  0  4  0  0  0  0  0  0
  -26.5910  -21.1400   20.5810 H   0  0  0  0  0  0  0  0  0  0  0  0
  -26.3280  -20.8350   19.0040 H   0  0  0  0  0  0  0  0  0  0  0  0
  -26.0430  -22.3210   19.5940 H   0  0  0  0  0  0  0  0  0  0  0  0
  -30.1960  -17.9560   19.9050 C   0  0  0  0  0  2  0  0  0  0  0  0
  -30.6050  -15.1900   20.0170 C   0  0  0  0  0  0  0  0  0  0  0  0
  -30.4460  -12.8240   19.0800 C   0  0  0  0  0  2  0  0  0  0  0  0
  -29.4590  -12.7620   17.8910 C   0  0  0  0  0  2  0  0  0  0  0  0
  -28.0240  -12.5290   18.3950 C   0  0  0  0  0  2  0  0  0  0  0  0
  -27.6650  -13.4480   19.5920 C   0  0  0  0  0  3  0  0  0  0  0  0
  -28.7740  -13.4860   20.6660 C   0  0  0  0  0  2  0  0  0  0  0  0
  -30.0040  -13.9230   19.9950 N   0  0  0  0  0  0  0  0  0  0  0  0
  -31.7890  -15.2280   19.6640 O   0  0  0  0  0  0  0  0  0  0  0  0
  -29.8640  -16.4120   20.2160 N   0  0  0  0  0  0  0  0  0  0  0  0
  -28.9100  -16.2480   20.5010 H   0  0  0  0  0  0  0  0  0  0  0  0
  -25.3340  -14.0110   20.4740 C   0  0  0  0  0  0  0  0  0  0  0  0
  -24.2880  -13.2300   20.8800 C   0  0  0  0  0  0  0  0  0  0  0  0
  -24.7440  -11.8790   20.7920 C   0  0  0  0  0  0  0  0  0  0  0  0
  -26.3580  -13.1370   20.1560 N   0  0  0  0  0  0  0  0  0  0  0  0
  -26.0180  -11.8460   20.4130 N   0  0  0  0  0  0  0  0  0  0  0  0
  -24.0200  -10.6150   20.9880 C   0  0  0  0  0  0  0  0  0  0  0  0
  -24.4710   -9.6410   21.9050 C   0  0  0  0  0  3  0  0  0  0  0  0
  -23.7470   -8.4430   22.0900 C   0  0  0  0  0  3  0  0  0  0  0  0
  -22.5590   -8.2110   21.3580 C   0  0  0  0  0  0  0  0  0  0  0  0
  -22.1260   -9.1740   20.4290 C   0  0  0  0  0  3  0  0  0  0  0  0
  -22.8510  -10.3630   20.2430 C   0  0  0  0  0  3  0  0  0  0  0  0
  -21.8020   -7.0670   21.4550 O   0  0  0  0  0  0  0  0  0  0  0  0
  -21.7600   -6.3290   22.6110 C   0  0  0  0  0  0  0  0  0  0  0  0
  -21.2980   -6.8750   23.8280 C   0  0  0  0  0  3  0  0  0  0  0  0
  -21.2050   -6.0610   24.9740 C   0  0  0  0  0  3  0  0  0  0  0  0
  -21.5620   -4.7000   24.9040 C   0  0  0  0  0  0  0  0  0  0  0  0
  -22.0170   -4.1540   23.6910 C   0  0  0  0  0  3  0  0  0  0  0  0
  -22.1120   -4.9660   22.5470 C   0  0  0  0  0  0  0  0  0  0  0  0
  -22.5310   -4.4280   21.3760 F   0  0  0  0  0  0  0  0  0  0  0  0
  -21.4650   -3.9170   26.0020 F   0  0  0  0  0  0  0  0  0  0  0  0
  -22.9090  -13.7060   21.2310 C   0  0  0  0  0  0  0  0  0  0  0  0
  -22.2220  -12.9970   22.1200 N   0  0  0  0  0  0  0  0  0  0  0  0
  -22.4510  -14.7420   20.7520 O   0  0  0  0  0  0  0  0  0  0  0  0
  -22.6060  -12.1570   22.5280 H   0  0  0  0  0  0  0  0  0  0  0  0
  -21.2980  -13.2980   22.3960 H   0  0  0  0  0  0  0  0  0  0  0  0
  -25.4930  -15.3850   20.3200 N   0  0  0  0  0  0  0  0  0  0  0  0
  -24.7290  -16.0330   20.4810 H   0  0  0  0  0  0  0  0  0  0  0  0
  -26.3140  -15.8280   19.9300 H   0  0  0  0  0  0  0  0  0  0  0  0
  -28.4710  -24.7490   19.6320 C   0  0  0  0  0  2  0  0  0  0  0  0
  -28.4300  -26.2140   20.2550 O   0  0  0  0  0  0  0  0  0  0  0  0
  -24.7000  -31.8940   23.2330 C   0  0  0  0  0  0  0  0  0  0  0  0
  -27.3710  -27.2160   20.1450 C   0  0  0  0  0  0  0  0  0  0  0  0
  -23.5400  -30.5120   21.5570 C   0  0  0  0  0  3  0  0  0  0  0  0
  -25.0270  -28.9800   20.1140 C   0  0  0  0  0  0  0  0  0  0  0  0
  -26.0960  -30.7970   21.4320 C   0  0  0  0  0  2  0  0  0  0  0  0
  -26.1940  -29.4130   20.7540 C   0  0  0  0  0  0  0  0  0  0  0  0
  -27.3590  -28.5450   20.7580 C   0  0  0  0  0  3  0  0  0  0  0  0
  -26.1760  -26.9130   19.4520 C   0  0  0  0  0  3  0  0  0  0  0  0
  -25.0360  -27.7480   19.4470 C   0  0  0  0  0  3  0  0  0  0  0  0
  -23.7880  -29.8630   20.1680 C   0  0  0  0  0  2  0  0  0  0  0  0
  -24.7990  -31.0900   22.1290 N   0  0  0  0  0  0  0  0  0  0  0  0
  -23.6040  -32.1550   23.7520 O   0  0  0  0  0  0  0  0  0  0  0  0
  -22.8620  -29.4790   22.4930 C   0  0  0  0  0  0  0  0  0  0  0  0
  -21.5350  -29.3020   22.3580 N   0  0  0  0  0  0  0  0  0  0  0  0
  -23.5330  -28.8410   23.3080 O   0  0  0  0  0  0  0  0  0  0  0  0
  -21.0480  -29.8690   21.6780 H   0  0  0  0  0  0  0  0  0  0  0  0
  -18.1570  -28.0810   22.8410 C   0  0  0  0  0  0  0  0  0  0  0  0
  -20.7180  -28.3410   23.1040 C   0  0  0  0  0  3  0  0  0  0  0  0
  -20.8190  -26.9260   22.4890 C   0  0  0  0  0  2  0  0  0  0  0  0
  -19.7130  -26.6310   21.4710 C   0  0  0  0  0  2  0  0  0  0  0  0
  -18.3340  -26.7540   22.1240 C   0  0  0  0  0  2  0  0  0  0  0  0
  -19.2760  -28.8340   23.2870 C   0  0  0  0  0  0  0  0  0  0  0  0
  -19.0540  -30.0770   23.9200 C   0  0  0  0  0  3  0  0  0  0  0  0
  -17.7480  -30.5660   24.1090 C   0  0  0  0  0  3  0  0  0  0  0  0
  -16.6450  -29.8100   23.6770 C   0  0  0  0  0  3  0  0  0  0  0  0
  -16.8500  -28.5690   23.0500 C   0  0  0  0  0  3  0  0  0  0  0  0
  -25.9600  -32.5390   23.8870 C   0  0  0  0  0  3  0  0  0  0  0  0
  -26.4400  -31.7820   25.1860 C   0  0  1  0  0  0  0  0  0  0  0  0
  -25.3150  -31.5530   26.2240 C   0  0  0  0  0  1  0  0  0  0  0  0
  -27.0380  -30.4020   24.8310 C   0  0  0  0  0  1  0  0  0  0  0  0
  -27.5670  -32.5860   25.8760 C   0  0  0  0  0  1  0  0  0  0  0  0
  -25.6350  -33.9390   24.2040 N   0  0  0  0  0  0  0  0  0  0  0  0
  -25.9610  -34.9930   23.4430 C   0  0  0  0  0  0  0  0  0  0  0  0
  -26.6330  -34.8880   22.4140 O   0  0  0  0  0  0  0  0  0  0  0  0
  -25.0410  -34.0930   25.0040 H   0  0  0  0  0  0  0  0  0  0  0  0
  -24.2160  -36.7720   23.0870 C   0  0  0  0  0  1  0  0  0  0  0  0
  -25.4650  -36.3810   23.8940 C   0  0  0  0  0  3  0  0  0  0  0  0
  -27.5900  -37.2970   24.7140 C   0  0  0  0  0  1  0  0  0  0  0  0
  -26.4870  -37.4440   23.7680 N   0  0  0  0  0  0  0  0  0  0  0  0
  -26.0720  -38.3610   23.9040 H   0  0  0  0  0  0  0  0  0  0  0  0
  2  5  1  0
  2  1  1  0
  3  6  1  0
  3  2  1  0
  3  5  1  0
  4  1  1  0
  6  7  1  0
  6  4  1  0
  7  8  1  0
  9  7  1  0
 10  7  1  0
 11 20  1  0
 11  5  1  0
 12 20  1  0
 13 18  1  0
 14 15  1  0
 14 13  1  0
 15 16  1  0
 16 25  1  0
 16 17  1  0
 18 12  1  0
 18 17  1  0
 19 12  2  0
 20 21  1  0
 22 23  2  0
 23 42  1  0
 24 23  1  0
 24 27  1  0
 25 26  1  0
 25 22  1  0
 26 24  2  0
 27 28  1  0
 28 29  2  0
 30 33  1  0
 30 29  1  0
 31 30  2  0
 32 31  1  0
 32 27  2  0
 33 34  1  0
 34 35  1  0
 35 36  2  0
 37 36  1  0
 37 41  1  0
 38 37  2  0
 39 34  2  0
 39 38  1  0
 40 39  1  0
 42 43  1  0
 43 46  1  0
 43 45  1  0
 44 42  2  0
 47 22  1  0
 47 48  1  0
 49 47  1  0
 50  4  1  0
 50 51  1  0
 52 63  2  0
 52 78  1  0
 53 51  1  0
 53 58  1  0
 54 62  1  0
 54 64  1  0
 55 61  1  0
 55 57  1  0
 56 62  1  0
 57 58  2  0
 57 56  1  0
 59 53  2  0
 60 59  1  0
 60 55  2  0
 61 54  1  0
 62 52  1  0
 64 66  2  0
 65 64  1  0
 65 69  1  0
 67 65  1  0
 68 77  2  0
 68 73  1  0
 69 73  1  0
 70 69  1  0
 71 72  1  0
 71 70  1  0
 72 68  1  0
 73 74  2  0
 74 75  1  0
 76 75  2  0
 77 76  1  0
 78 83  1  0
 78 79  1  0
 79 82  1  1
 79 80  1  0
 81 79  1  0
 83 86  1  0
 84 88  1  0
 84 83  1  0
 85 84  2  0
 87 88  1  0
 90 88  1  0
 90 91  1  0
 90 89  1  0
M  ISO  4  12 100  20 100  50 101  51 101
M  END
>  <TORSDO>  (92) 
F 19

>  <SCORE>  (92) 
-15.568

>  <name>  (92) 
91

>  <ligand_id>  (92) 
91

>  <original_smiles>  (92) 
[H]c1c([H])c([H])c2c(c1[H])C([H])([H])C([H])([H])C([H])([H])C2([H])N([H])C(=O)C1([H])N(C(=O)C([H])(N([H])C(=O)C([H])(N([H])C([H])([H])[H])C([H])([H])[H])C(C([H])([H])[H])(C([H])([H])[H])C([H])([H])[H])C([H])([H])c2c([H])c(OC([H])([H])C3([H])C([H])([H])C4([H])C([H])(C([H])([H])N([H])C(=O)N5C([H])([H])C([H])([H])C([H])([H])C([H])(n6nc(-c7c([H])c([H])c(Oc8c([H])c([H])c(F)c([H])c8F)c([H])c7[H])c(C(=O)N([H])[H])c6N([H])[H])C5([H])[H])C4([H])C3([H])[N+]([H])([H])[H])c([H])c([H])c2C1([H])[H]

>  <smiles>  (92) 
[H]c1c([H])c([H])c2c(c1[H])C([H])([H])C([H])([H])C([H])([H])C2([H])N([H])C(=O)C1([H])N(C(=O)C([H])(N([H])C(=O)C([H])(N([H])C([H])([H])[H])C([H])([H])[H])C(C([H])([H])[H])(C([H])([H])[H])C([H])([H])[H])C([H])([H])c2c([H])c(OC([H])([H])C3([H])C([H])([H])C4([H])C([H])(C([H])([H])N([H])C(=O)N5C([H])([H])C([H])([H])C([H])([H])C([H])(n6nc(-c7c([H])c([H])c(Oc8c([H])c([H])c(F)c([H])c8F)c([H])c7[H])c(C(=O)N([H])[H])c6N([H])[H])C5([H])[H])C4([H])C3([H])[N+]([H])([H])[H])c([H])c([H])c2C1([H])[H]

$$$$
92:0:0
     RDKit          3D

 91101  0  0  1  0  0  0  0  0999 V2000
  -29.3020  -22.1000   19.1370 N   0  0  0  0  0  4  0  0  0  0  0  0
  -28.3210  -21.8750   19.1800 H   0  0  0  0  0  0  0  0  0  0  0  0
  -29.5230  -22.1970   18.1600 H   0  0  0  0  0  0  0  0  0  0  0  0
  -28.1910  -20.1020   21.1990 C   0  0  0  0  0  2  0  0  0  0  0  0
  -30.1250  -19.2630   21.7340 C   0  0  0  0  0  2  0  0  0  0  0  0
  -29.0700  -18.9460   20.6370 C   0  0  1  0  0  0  0  0  0  0  0  0
  -29.6590  -20.6090   21.1020 C   0  0  2  0  0  0  0  0  0  0  0  0
  -29.6490  -19.2150   19.2560 C   0  0  0  0  0  3  0  0  0  0  0  0
  -30.0570  -20.7940   19.6370 C   0  0  0  0  0  3  0  0  0  0  0  0
  -30.6960  -17.9290   18.9160 C   0  0  0  0  0  2  0  0  0  0  0  0
  -31.2390  -15.2420   19.2040 C   0  0  0  0  0  0  0  0  0  0  0  0
  -31.1720  -12.7700   18.6590 C   0  0  0  0  0  2  0  0  0  0  0  0
  -30.1350  -12.4810   17.5500 C   0  0  0  0  0  2  0  0  0  0  0  0
  -28.7370  -12.2690   18.1570 C   0  0  0  0  0  2  0  0  0  0  0  0
  -28.3750  -13.3620   19.1970 C   0  0  0  0  0  3  0  0  0  0  0  0
  -29.5200  -13.6130   20.1960 C   0  0  0  0  0  2  0  0  0  0  0  0
  -30.7070  -13.9710   19.4090 N   0  0  0  0  0  0  0  0  0  0  0  0
  -32.4050  -15.3100   18.8020 O   0  0  0  0  0  0  0  0  0  0  0  0
  -30.4180  -16.4030   19.2440 N   0  0  0  0  0  0  0  0  0  0  0  0
  -29.4760  -16.2150   19.5520 H   0  0  0  0  0  0  0  0  0  0  0  0
  -26.1550  -13.9910   20.3040 C   0  0  0  0  0  0  0  0  0  0  0  0
  -25.1160  -13.2380   20.7750 C   0  0  0  0  0  0  0  0  0  0  0  0
  -25.5010  -11.8730   20.5970 C   0  0  0  0  0  0  0  0  0  0  0  0
  -27.1090  -13.0870   19.8650 N   0  0  0  0  0  0  0  0  0  0  0  0
  -26.7340  -11.8040   20.1060 N   0  0  0  0  0  0  0  0  0  0  0  0
  -24.7440  -10.6330   20.8100 C   0  0  0  0  0  0  0  0  0  0  0  0
  -25.1580   -9.6670   21.7540 C   0  0  0  0  0  3  0  0  0  0  0  0
  -24.4020   -8.4930   21.9550 C   0  0  0  0  0  3  0  0  0  0  0  0
  -23.2180   -8.2750   21.2120 C   0  0  0  0  0  0  0  0  0  0  0  0
  -22.8220   -9.2260   20.2570 C   0  0  0  0  0  3  0  0  0  0  0  0
  -23.5780  -10.3940   20.0540 C   0  0  0  0  0  3  0  0  0  0  0  0
  -22.4330   -7.1520   21.3240 O   0  0  0  0  0  0  0  0  0  0  0  0
  -22.2430   -6.5230   22.5280 C   0  0  0  0  0  0  0  0  0  0  0  0
  -21.6840   -7.1940   23.6370 C   0  0  0  0  0  3  0  0  0  0  0  0
  -21.4420   -6.4920   24.8350 C   0  0  0  0  0  3  0  0  0  0  0  0
  -21.7460   -5.1200   24.9230 C   0  0  0  0  0  0  0  0  0  0  0  0
  -22.2960   -4.4490   23.8160 C   0  0  0  0  0  3  0  0  0  0  0  0
  -22.5400   -5.1480   22.6210 C   0  0  0  0  0  0  0  0  0  0  0  0
  -23.0500   -4.4930   21.5500 F   0  0  0  0  0  0  0  0  0  0  0  0
  -21.5050   -4.4430   26.0690 F   0  0  0  0  0  0  0  0  0  0  0  0
  -23.7970  -13.7520   21.2710 C   0  0  0  0  0  0  0  0  0  0  0  0
  -23.1740  -13.0430   22.2070 N   0  0  0  0  0  0  0  0  0  0  0  0
  -23.3310  -14.8150   20.8620 O   0  0  0  0  0  0  0  0  0  0  0  0
  -23.5670  -12.1820   22.5560 H   0  0  0  0  0  0  0  0  0  0  0  0
  -22.2930  -13.3680   22.5810 H   0  0  0  0  0  0  0  0  0  0  0  0
  -26.3610  -15.3620   20.1870 N   0  0  0  0  0  0  0  0  0  0  0  0
  -25.6440  -16.0380   20.4280 H   0  0  0  0  0  0  0  0  0  0  0  0
  -27.1590  -15.7840   19.7310 H   0  0  0  0  0  0  0  0  0  0  0  0
  -29.4800  -23.5430   19.7950 C   0  0  0  0  0  3  0  0  0  0  0  0
  -28.4820  -24.8650   19.4620 C   0  0  0  0  0  3  0  0  0  0  0  0
  -28.6090  -26.3310   19.9920 O   0  0  0  0  0  0  0  0  0  0  0  0
  -24.8380  -31.7100   23.3210 C   0  0  0  0  0  0  0  0  0  0  0  0
  -27.5230  -27.2830   19.9690 C   0  0  0  0  0  0  0  0  0  0  0  0
  -23.6660  -30.3940   21.5950 C   0  0  0  0  0  3  0  0  0  0  0  0
  -25.1490  -28.9610   20.0600 C   0  0  0  0  0  0  0  0  0  0  0  0
  -26.2100  -30.7400   21.4400 C   0  0  0  0  0  2  0  0  0  0  0  0
  -26.3180  -29.3990   20.6950 C   0  0  0  0  0  0  0  0  0  0  0  0
  -27.5040  -28.5760   20.6350 C   0  0  0  0  0  3  0  0  0  0  0  0
  -26.3270  -26.9560   19.2930 C   0  0  0  0  0  3  0  0  0  0  0  0
  -25.1660  -27.7570   19.3420 C   0  0  0  0  0  3  0  0  0  0  0  0
  -23.8960  -29.8150   20.1740 C   0  0  0  0  0  2  0  0  0  0  0  0
  -24.9240  -30.9670   22.1750 N   0  0  0  0  0  0  0  0  0  0  0  0
  -23.7470  -31.9280   23.8700 O   0  0  0  0  0  0  0  0  0  0  0  0
  -23.0170  -29.3090   22.4920 C   0  0  0  0  0  0  0  0  0  0  0  0
  -21.7060  -29.0640   22.3120 N   0  0  0  0  0  0  0  0  0  0  0  0
  -23.7000  -28.6920   23.3130 O   0  0  0  0  0  0  0  0  0  0  0  0
  -21.2050  -29.6180   21.6320 H   0  0  0  0  0  0  0  0  0  0  0  0
  -18.4030  -27.6150   22.6140 C   0  0  0  0  0  0  0  0  0  0  0  0
  -20.9200  -28.0480   23.0170 C   0  0  0  0  0  3  0  0  0  0  0  0
  -21.1540  -26.6450   22.4100 C   0  0  0  0  0  2  0  0  0  0  0  0
  -20.1260  -26.2680   21.3380 C   0  0  0  0  0  2  0  0  0  0  0  0
  -18.7040  -26.3030   21.9090 C   0  0  0  0  0  2  0  0  0  0  0  0
  -19.4420  -28.4380   23.1230 C   0  0  0  0  0  0  0  0  0  0  0  0
  -19.1030  -29.6610   23.7420 C   0  0  0  0  0  3  0  0  0  0  0  0
  -17.7590  -30.0630   23.8570 C   0  0  0  0  0  3  0  0  0  0  0  0
  -16.7340  -29.2360   23.3650 C   0  0  0  0  0  3  0  0  0  0  0  0
  -17.0550  -28.0130   22.7520 C   0  0  0  0  0  3  0  0  0  0  0  0
  -26.1020  -32.3390   23.9820 C   0  0  0  0  0  3  0  0  0  0  0  0
  -26.5650  -31.5760   25.2840 C   0  0  1  0  0  0  0  0  0  0  0  0
  -25.4280  -31.3490   26.3080 C   0  0  0  0  0  1  0  0  0  0  0  0
  -27.1570  -30.1920   24.9310 C   0  0  0  0  0  1  0  0  0  0  0  0
  -27.6910  -32.3710   25.9860 C   0  0  0  0  0  1  0  0  0  0  0  0
  -25.7920  -33.7440   24.2930 N   0  0  0  0  0  0  0  0  0  0  0  0
  -26.1410  -34.7900   23.5320 C   0  0  0  0  0  0  0  0  0  0  0  0
  -26.8210  -34.6750   22.5090 O   0  0  0  0  0  0  0  0  0  0  0  0
  -25.1890  -33.9090   25.0850 H   0  0  0  0  0  0  0  0  0  0  0  0
  -24.4230  -36.5900   23.1540 C   0  0  0  0  0  1  0  0  0  0  0  0
  -25.6590  -36.1870   23.9740 C   0  0  0  0  0  3  0  0  0  0  0  0
  -27.7890  -37.0750   24.8130 C   0  0  0  0  0  1  0  0  0  0  0  0
  -26.6980  -37.2330   23.8540 N   0  0  0  0  0  0  0  0  0  0  0  0
  -26.2930  -38.1570   23.9840 H   0  0  0  0  0  0  0  0  0  0  0  0
  1  2  1  0
  1 49  1  0
  3  1  1  0
  6  7  1  0
  6  4  1  6
  6  5  1  0
  7  4  1  1
  7  5  1  0
  8 10  1  0
  8  9  1  0
  8  6  1  0
  9  1  1  0
  9  7  1  0
 10 19  1  0
 11 19  1  0
 11 17  1  0
 12 17  1  0
 13 14  1  0
 13 12  1  0
 15 14  1  0
 15 24  1  0
 15 16  1  0
 17 16  1  0
 18 11  2  0
 19 20  1  0
 21 22  2  0
 22 41  1  0
 23 22  1  0
 23 26  1  0
 24 25  1  0
 24 21  1  0
 25 23  2  0
 26 27  1  0
 27 28  2  0
 29 32  1  0
 29 28  1  0
 30 29  2  0
 31 30  1  0
 31 26  2  0
 32 33  1  0
 33 38  2  0
 33 34  1  0
 34 35  2  0
 35 36  1  0
 36 40  1  0
 37 36  2  0
 38 37  1  0
 39 38  1  0
 41 42  1  0
 42 44  1  0
 42 45  1  0
 43 41  2  0
 46 21  1  0
 46 47  1  0
 48 46  1  0
 50 49  2  0
 50 51  1  0
 52 63  2  0
 53 51  1  0
 53 58  1  0
 54 62  1  0
 54 64  1  0
 55 61  1  0
 55 57  1  0
 56 62  1  0
 57 56  1  0
 58 57  2  0
 59 60  1  0
 59 53  2  0
 60 55  2  0
 61 54  1  0
 62 52  1  0
 64 66  2  0
 65 64  1  0
 67 65  1  0
 68 77  2  0
 68 73  1  0
 69 65  1  0
 69 73  1  0
 70 69  1  0
 71 72  1  0
 71 70  1  0
 72 68  1  0
 73 74  2  0
 74 75  1  0
 76 75  2  0
 77 76  1  0
 78 52  1  0
 78 83  1  0
 78 79  1  0
 79 82  1  1
 79 80  1  0
 81 79  1  0
 83 86  1  0
 84 88  1  0
 84 83  1  0
 85 84  2  0
 88 87  1  0
 90 88  1  0
 90 91  1  0
 90 89  1  0
M  ISO  4  11 100  19 100  50 101  51 101
M  END
>  <TORSDO>  (93) 
F 20

>  <SCORE>  (93) 
-11.102

>  <name>  (93) 
92

>  <ligand_id>  (93) 
92

>  <original_smiles>  (93) 
[H]c1c([H])c([H])c2c(c1[H])C([H])([H])C([H])([H])C([H])([H])C2([H])N([H])C(=O)C1([H])N(C(=O)C([H])(N([H])C(=O)C([H])(N([H])C([H])([H])[H])C([H])([H])[H])C(C([H])([H])[H])(C([H])([H])[H])C([H])([H])[H])C([H])([H])c2c([H])c(OC([H])([H])C([H])([H])[N+]([H])([H])C3([H])C4([H])C([H])([H])C([H])(C4([H])[H])C3([H])C([H])([H])N([H])C(=O)N3C([H])([H])C([H])([H])C([H])([H])C([H])(n4nc(-c5c([H])c([H])c(Oc6c([H])c([H])c(F)c([H])c6F)c([H])c5[H])c(C(=O)N([H])[H])c4N([H])[H])C3([H])[H])c([H])c([H])c2C1([H])[H]

>  <smiles>  (93) 
[H]c1c([H])c([H])c2c(c1[H])C([H])([H])C([H])([H])C([H])([H])C2([H])N([H])C(=O)C1([H])N(C(=O)C([H])(N([H])C(=O)C([H])(N([H])C([H])([H])[H])C([H])([H])[H])C(C([H])([H])[H])(C([H])([H])[H])C([H])([H])[H])C([H])([H])c2c([H])c(OC([H])([H])C([H])([H])[N+]([H])([H])C3([H])C4([H])C([H])([H])C([H])(C4([H])[H])C3([H])C([H])([H])N([H])C(=O)N3C([H])([H])C([H])([H])C([H])([H])C([H])(n4nc(-c5c([H])c([H])c(Oc6c([H])c([H])c(F)c([H])c6F)c([H])c5[H])c(C(=O)N([H])[H])c4N([H])[H])C3([H])[H])c([H])c([H])c2C1([H])[H]

$$$$
93:0:0
     RDKit          3D

 90 98  0  0  1  0  0  0  0  0999 V2000
  -29.1660  -22.1690   21.2970 C   0  0  0  0  0  3  0  0  0  0  0  0
  -29.5950  -20.7490   21.2970 C   0  0  0  0  0  0  0  0  0  0  0  0
  -28.5240  -22.9170   20.2320 C   0  0  0  0  0  0  0  0  0  0  0  0
  -28.3440  -21.9530   19.1470 C   0  0  0  0  0  0  0  0  0  0  0  0
  -28.7470  -20.5070   19.1450 C   0  0  0  0  0  0  0  0  0  0  0  0
  -29.4160  -19.7780   20.2230 C   0  0  0  0  0  0  0  0  0  0  0  0
  -30.3180  -20.2760   22.5430 C   0  0  0  0  0  1  0  0  0  0  0  0
  -27.6430  -22.5230   17.9180 C   0  0  0  0  0  1  0  0  0  0  0  0
  -28.4640  -19.6740   17.8990 C   0  0  0  0  0  1  0  0  0  0  0  0
  -30.1800  -18.2140   20.1160 C   0  0  0  0  0  2  0  0  0  0  0  0
  -30.5220  -15.3710   20.1060 C   0  0  0  0  0  0  0  0  0  0  0  0
  -30.4740  -12.9450   19.2310 C   0  0  0  0  0  2  0  0  0  0  0  0
  -29.5130  -12.7500   18.0310 C   0  0  0  0  0  2  0  0  0  0  0  0
  -28.0820  -12.4710   18.5220 C   0  0  0  0  0  2  0  0  0  0  0  0
  -27.6630  -13.4330   19.6620 C   0  0  0  0  0  3  0  0  0  0  0  0
  -28.7470  -13.5770   20.7510 C   0  0  0  0  0  2  0  0  0  0  0  0
  -29.9550  -14.0740   20.0800 N   0  0  0  0  0  0  0  0  0  0  0  0
  -31.7300  -15.3880   19.8360 O   0  0  0  0  0  0  0  0  0  0  0  0
  -29.7670  -16.6280   20.2280 N   0  0  0  0  0  0  0  0  0  0  0  0
  -28.7850  -16.4780   20.4000 H   0  0  0  0  0  0  0  0  0  0  0  0
  -25.3220  -13.9670   20.5190 C   0  0  0  0  0  0  0  0  0  0  0  0
  -24.2760  -13.1780   20.9050 C   0  0  0  0  0  0  0  0  0  0  0  0
  -24.7440  -11.8310   20.8200 C   0  0  0  0  0  0  0  0  0  0  0  0
  -26.3560  -13.1030   20.2130 N   0  0  0  0  0  0  0  0  0  0  0  0
  -26.0240  -11.8100   20.4630 N   0  0  0  0  0  0  0  0  0  0  0  0
  -24.0290  -10.5610   21.0020 C   0  0  0  0  0  0  0  0  0  0  0  0
  -24.4460   -9.6060   21.9540 C   0  0  0  0  0  3  0  0  0  0  0  0
  -23.7270   -8.4040   22.1250 C   0  0  0  0  0  3  0  0  0  0  0  0
  -22.5770   -8.1460   21.3410 C   0  0  0  0  0  0  0  0  0  0  0  0
  -22.1800   -9.0900   20.3770 C   0  0  0  0  0  3  0  0  0  0  0  0
  -22.8990  -10.2840   20.2060 C   0  0  0  0  0  3  0  0  0  0  0  0
  -21.8330   -6.9940   21.4180 O   0  0  0  0  0  0  0  0  0  0  0  0
  -21.6950   -6.3030   22.5950 C   0  0  0  0  0  0  0  0  0  0  0  0
  -21.0850   -6.8810   23.7290 C   0  0  0  0  0  3  0  0  0  0  0  0
  -20.9010   -6.1130   24.8960 C   0  0  0  0  0  3  0  0  0  0  0  0
  -21.3170   -4.7680   24.9280 C   0  0  0  0  0  0  0  0  0  0  0  0
  -21.9200   -4.1910   23.7970 C   0  0  0  0  0  3  0  0  0  0  0  0
  -22.1060   -4.9560   22.6330 C   0  0  0  0  0  0  0  0  0  0  0  0
  -22.6670   -4.3880   21.5380 F   0  0  0  0  0  0  0  0  0  0  0  0
  -21.1350   -4.0270   26.0470 F   0  0  0  0  0  0  0  0  0  0  0  0
  -22.8880  -13.6440   21.2370 C   0  0  0  0  0  0  0  0  0  0  0  0
  -22.1950  -12.9230   22.1110 N   0  0  0  0  0  0  0  0  0  0  0  0
  -22.4300  -14.6790   20.7550 O   0  0  0  0  0  0  0  0  0  0  0  0
  -22.5820  -12.0850   22.5170 H   0  0  0  0  0  0  0  0  0  0  0  0
  -21.2660  -13.2170   22.3800 H   0  0  0  0  0  0  0  0  0  0  0  0
  -25.4710  -15.3450   20.3730 N   0  0  0  0  0  0  0  0  0  0  0  0
  -24.7020  -15.9870   20.5330 H   0  0  0  0  0  0  0  0  0  0  0  0
  -26.2920  -15.7980   19.9950 H   0  0  0  0  0  0  0  0  0  0  0  0
  -27.7510  -24.4670   20.3860 C   0  0  0  0  0  2  0  0  0  0  0  0
  -28.1600  -26.0340   20.2160 O   0  0  0  0  0  0  0  0  0  0  0  0
  -24.5550  -31.9490   23.1810 C   0  0  0  0  0  0  0  0  0  0  0  0
  -27.1550  -27.1250   20.1650 C   0  0  0  0  0  0  0  0  0  0  0  0
  -23.3780  -30.5440   21.5420 C   0  0  0  0  0  3  0  0  0  0  0  0
  -24.8430  -28.9680   20.1190 C   0  0  0  0  0  0  0  0  0  0  0  0
  -25.9440  -30.7860   21.4020 C   0  0  0  0  0  2  0  0  0  0  0  0
  -26.0260  -29.3830   20.7410 C   0  0  0  0  0  0  0  0  0  0  0  0
  -27.1810  -28.4820   20.7430 C   0  0  0  0  0  3  0  0  0  0  0  0
  -25.9440  -26.8630   19.4850 C   0  0  0  0  0  3  0  0  0  0  0  0
  -24.8250  -27.7280   19.4680 C   0  0  0  0  0  3  0  0  0  0  0  0
  -23.6160  -29.8740   20.1620 C   0  0  0  0  0  2  0  0  0  0  0  0
  -24.6480  -31.1190   22.0940 N   0  0  0  0  0  0  0  0  0  0  0  0
  -23.4620  -32.2270   23.7000 O   0  0  0  0  0  0  0  0  0  0  0  0
  -22.6960  -29.5330   22.5010 C   0  0  0  0  0  0  0  0  0  0  0  0
  -21.3740  -29.3320   22.3550 N   0  0  0  0  0  0  0  0  0  0  0  0
  -23.3640  -28.9330   23.3470 O   0  0  0  0  0  0  0  0  0  0  0  0
  -20.8880  -29.8680   21.6500 H   0  0  0  0  0  0  0  0  0  0  0  0
  -18.0030  -28.0880   22.8530 C   0  0  0  0  0  0  0  0  0  0  0  0
  -20.5600  -28.3840   23.1220 C   0  0  0  0  0  3  0  0  0  0  0  0
  -20.6800  -26.9540   22.5450 C   0  0  0  0  0  2  0  0  0  0  0  0
  -19.5830  -26.6190   21.5300 C   0  0  0  0  0  2  0  0  0  0  0  0
  -18.1980  -26.7440   22.1710 C   0  0  0  0  0  2  0  0  0  0  0  0
  -19.1110  -28.8650   23.2850 C   0  0  0  0  0  0  0  0  0  0  0  0
  -18.8720  -30.1190   23.8860 C   0  0  0  0  0  3  0  0  0  0  0  0
  -17.5590  -30.5980   24.0570 C   0  0  0  0  0  3  0  0  0  0  0  0
  -16.4660  -29.8180   23.6420 C   0  0  0  0  0  3  0  0  0  0  0  0
  -16.6890  -28.5650   23.0440 C   0  0  0  0  0  3  0  0  0  0  0  0
  -25.8190  -32.6040   23.8150 C   0  0  0  0  0  3  0  0  0  0  0  0
  -25.4860  -34.0010   24.1440 N   0  0  0  0  0  0  0  0  0  0  0  0
  -25.8090  -35.0640   23.3970 C   0  0  0  0  0  0  0  0  0  0  0  0
  -26.4830  -34.9730   22.3670 O   0  0  0  0  0  0  0  0  0  0  0  0
  -24.8890  -34.1450   24.9450 H   0  0  0  0  0  0  0  0  0  0  0  0
  -24.0760  -36.8560   23.0450 C   0  0  0  0  0  1  0  0  0  0  0  0
  -25.3090  -36.4460   23.8650 C   0  0  0  0  0  3  0  0  0  0  0  0
  -27.4170  -37.3460   24.7450 C   0  0  0  0  0  1  0  0  0  0  0  0
  -26.3360  -37.5080   23.7770 N   0  0  0  0  0  0  0  0  0  0  0  0
  -25.9200  -38.4240   23.9170 H   0  0  0  0  0  0  0  0  0  0  0  0
  -26.3280  -31.8480   25.1040 C   0  0  1  0  0  0  0  0  0  0  0  0
  -25.2170  -31.5620   26.1400 C   0  0  0  0  0  1  0  0  0  0  0  0
  -26.9770  -30.4960   24.7320 C   0  0  0  0  0  1  0  0  0  0  0  0
  -27.4300  -32.6850   25.8000 C   0  0  0  0  0  1  0  0  0  0  0  0
  2  1  1  0
  2  7  1  0
  3 49  1  0
  3  1  2  0
  4  3  1  0
  5  4  2  0
  5  6  1  0
  6  2  2  0
  8  4  1  0
  9  5  1  0
 10  6  1  0
 10 19  1  0
 11 19  1  0
 12 17  1  0
 13 14  1  0
 13 12  1  0
 15 14  1  0
 15 24  1  0
 15 16  1  0
 17 11  1  0
 17 16  1  0
 18 11  2  0
 19 20  1  0
 21 22  2  0
 22 41  1  0
 23 22  1  0
 23 26  1  0
 24 25  1  0
 24 21  1  0
 25 23  2  0
 26 27  1  0
 27 28  2  0
 29 32  1  0
 29 28  1  0
 30 29  2  0
 31 30  1  0
 31 26  2  0
 32 33  1  0
 33 38  2  0
 33 34  1  0
 34 35  2  0
 35 36  1  0
 36 40  1  0
 37 36  2  0
 38 37  1  0
 39 38  1  0
 41 42  1  0
 42 45  1  0
 42 44  1  0
 43 41  2  0
 46 21  1  0
 46 47  1  0
 48 46  1  0
 50 49  1  0
 51 62  2  0
 52 50  1  0
 52 57  1  0
 53 61  1  0
 53 63  1  0
 54 60  1  0
 54 56  1  0
 55 61  1  0
 56 57  2  0
 56 55  1  0
 58 52  2  0
 59 58  1  0
 59 54  2  0
 60 53  1  0
 61 51  1  0
 63 65  2  0
 64 63  1  0
 66 64  1  0
 67 76  2  0
 67 72  1  0
 68 64  1  0
 68 72  1  0
 69 68  1  0
 70 71  1  0
 70 69  1  0
 71 67  1  0
 72 73  2  0
 73 74  1  0
 75 74  2  0
 76 75  1  0
 77 51  1  0
 77 78  1  0
 77 87  1  0
 78 81  1  0
 79 83  1  0
 79 78  1  0
 80 79  2  0
 83 82  1  0
 85 83  1  0
 85 86  1  0
 85 84  1  0
 87 90  1  1
 87 88  1  0
 89 87  1  0
M  ISO  4  11 100  19 100  49 101  50 101
M  END
>  <TORSDO>  (94) 
F 18

>  <SCORE>  (94) 
-15.804

>  <name>  (94) 
93

>  <ligand_id>  (94) 
93

>  <original_smiles>  (94) 
[H]c1c([H])c([H])c2c(c1[H])C([H])([H])C([H])([H])C([H])([H])C2([H])N([H])C(=O)C1([H])N(C(=O)C([H])(N([H])C(=O)C([H])(N([H])C([H])([H])[H])C([H])([H])[H])C(C([H])([H])[H])(C([H])([H])[H])C([H])([H])[H])C([H])([H])c2c([H])c(OC([H])([H])c3c([H])c(C([H])([H])[H])c(C([H])([H])N([H])C(=O)N4C([H])([H])C([H])([H])C([H])([H])C([H])(n5nc(-c6c([H])c([H])c(Oc7c([H])c([H])c(F)c([H])c7F)c([H])c6[H])c(C(=O)N([H])[H])c5N([H])[H])C4([H])[H])c(C([H])([H])[H])c3C([H])([H])[H])c([H])c([H])c2C1([H])[H]

>  <smiles>  (94) 
[H]c1c([H])c([H])c2c(c1[H])C([H])([H])C([H])([H])C([H])([H])C2([H])N([H])C(=O)C1([H])N(C(=O)C([H])(N([H])C(=O)C([H])(N([H])C([H])([H])[H])C([H])([H])[H])C(C([H])([H])[H])(C([H])([H])[H])C([H])([H])[H])C([H])([H])c2c([H])c(OC([H])([H])c3c([H])c(C([H])([H])[H])c(C([H])([H])N([H])C(=O)N4C([H])([H])C([H])([H])C([H])([H])C([H])(n5nc(-c6c([H])c([H])c(Oc7c([H])c([H])c(F)c([H])c7F)c([H])c6[H])c(C(=O)N([H])[H])c5N([H])[H])C4([H])[H])c(C([H])([H])[H])c3C([H])([H])[H])c([H])c([H])c2C1([H])[H]

$$$$
94:0:0
     RDKit          3D

 88 97  0  0  1  0  0  0  0  0999 V2000
  -28.7210  -22.1330   19.8080 C   0  0  0  0  0  3  0  0  0  0  0  0
  -30.2820  -15.6970   20.1580 C   0  0  0  0  0  0  0  0  0  0  0  0
  -30.3740  -13.1520   19.3440 C   0  0  0  0  0  2  0  0  0  0  0  0
  -29.4880  -12.7530   18.1300 C   0  0  0  0  0  2  0  0  0  0  0  0
  -28.0690  -12.3950   18.5960 C   0  0  0  0  0  2  0  0  0  0  0  0
  -27.5610  -13.3880   19.6730 C   0  0  0  0  0  3  0  0  0  0  0  0
  -28.5890  -13.7250   20.7780 C   0  0  0  0  0  2  0  0  0  0  0  0
  -29.7550  -14.3310   20.1040 N   0  0  0  0  0  0  0  0  0  0  0  0
  -31.5120  -15.6220   19.9560 O   0  0  0  0  0  0  0  0  0  0  0  0
  -28.1250  -17.4210   20.2850 C   0  0  0  0  0  2  0  0  0  0  0  0
  -28.1890  -18.9920   19.9880 C   0  0  0  0  0  3  0  0  0  0  0  0
  -28.9450  -20.3310   20.4430 C   0  0  0  0  0  3  0  0  0  0  0  0
  -29.7220  -18.7480   20.0100 C   0  0  0  0  0  3  0  0  0  0  0  0
  -29.5510  -17.0820   20.2430 N   0  0  0  0  0  0  0  0  0  0  0  0
  -25.2130  -13.8990   20.4810 C   0  0  0  0  0  0  0  0  0  0  0  0
  -24.1670  -13.1100   20.8620 C   0  0  0  0  0  0  0  0  0  0  0  0
  -24.6480  -11.7660   20.8190 C   0  0  0  0  0  0  0  0  0  0  0  0
  -26.2580  -13.0370   20.2130 N   0  0  0  0  0  0  0  0  0  0  0  0
  -25.9380  -11.7470   20.4880 N   0  0  0  0  0  0  0  0  0  0  0  0
  -23.9290  -10.5010   21.0180 C   0  0  0  0  0  0  0  0  0  0  0  0
  -24.3660   -9.5390   21.9550 C   0  0  0  0  0  3  0  0  0  0  0  0
  -23.6430   -8.3390   22.1410 C   0  0  0  0  0  3  0  0  0  0  0  0
  -22.4730   -8.0910   21.3870 C   0  0  0  0  0  0  0  0  0  0  0  0
  -22.0550   -9.0410   20.4380 C   0  0  0  0  0  3  0  0  0  0  0  0
  -22.7780  -10.2320   20.2510 C   0  0  0  0  0  3  0  0  0  0  0  0
  -21.7200   -6.9470   21.4830 O   0  0  0  0  0  0  0  0  0  0  0  0
  -21.6610   -6.2170   22.6430 C   0  0  0  0  0  0  0  0  0  0  0  0
  -21.1950   -6.7760   23.8520 C   0  0  0  0  0  3  0  0  0  0  0  0
  -21.0870   -5.9710   25.0020 C   0  0  0  0  0  3  0  0  0  0  0  0
  -21.4330   -4.6080   24.9480 C   0  0  0  0  0  0  0  0  0  0  0  0
  -21.8890   -4.0490   23.7420 C   0  0  0  0  0  3  0  0  0  0  0  0
  -22.0000   -4.8490   22.5920 C   0  0  0  0  0  0  0  0  0  0  0  0
  -22.4230   -4.2980   21.4290 F   0  0  0  0  0  0  0  0  0  0  0  0
  -21.3190   -3.8340   26.0520 F   0  0  0  0  0  0  0  0  0  0  0  0
  -22.7730  -13.5790   21.1480 C   0  0  0  0  0  0  0  0  0  0  0  0
  -22.0550  -12.8790   22.0190 N   0  0  0  0  0  0  0  0  0  0  0  0
  -22.3290  -14.6060   20.6340 O   0  0  0  0  0  0  0  0  0  0  0  0
  -22.4310  -12.0500   22.4580 H   0  0  0  0  0  0  0  0  0  0  0  0
  -21.1190  -13.1780   22.2490 H   0  0  0  0  0  0  0  0  0  0  0  0
  -25.3560  -15.2690   20.3090 N   0  0  0  0  0  0  0  0  0  0  0  0
  -24.5820  -15.9110   20.4350 H   0  0  0  0  0  0  0  0  0  0  0  0
  -26.1930  -15.7270   19.9830 H   0  0  0  0  0  0  0  0  0  0  0  0
  -28.7960  -21.3500   17.3790 C   0  0  0  0  0  1  0  0  0  0  0  0
  -28.0780  -22.0510   18.4640 N   0  0  0  0  0  4  0  0  0  0  0  0
  -27.1400  -21.6860   18.5300 H   0  0  0  0  0  0  0  0  0  0  0  0
  -27.9840  -22.9970   18.1330 H   0  0  0  0  0  0  0  0  0  0  0  0
  -28.0520  -23.8360   20.4520 C   0  0  0  0  0  2  0  0  0  0  0  0
  -28.1820  -25.5780   20.2260 O   0  0  0  0  0  0  0  0  0  0  0  0
  -24.6370  -31.8490   23.1630 C   0  0  0  0  0  0  0  0  0  0  0  0
  -27.1910  -26.7690   20.2340 C   0  0  0  0  0  0  0  0  0  0  0  0
  -23.4640  -30.4380   21.5340 C   0  0  0  0  0  3  0  0  0  0  0  0
  -24.9190  -28.7890   20.1480 C   0  0  0  0  0  0  0  0  0  0  0  0
  -26.0420  -30.5970   21.4190 C   0  0  0  0  0  2  0  0  0  0  0  0
  -26.1150  -29.1590   20.7780 C   0  0  0  0  0  0  0  0  0  0  0  0
  -27.2390  -28.1800   20.7810 C   0  0  0  0  0  3  0  0  0  0  0  0
  -25.9530  -26.6030   19.5620 C   0  0  0  0  0  3  0  0  0  0  0  0
  -24.8780  -27.5370   19.5150 C   0  0  0  0  0  3  0  0  0  0  0  0
  -23.7110  -29.7330   20.1700 C   0  0  0  0  0  2  0  0  0  0  0  0
  -24.7410  -30.9940   22.0920 N   0  0  0  0  0  0  0  0  0  0  0  0
  -23.5410  -32.1460   23.6640 O   0  0  0  0  0  0  0  0  0  0  0  0
  -22.7510  -29.4610   22.5020 C   0  0  0  0  0  0  0  0  0  0  0  0
  -21.4170  -29.3140   22.3840 N   0  0  0  0  0  0  0  0  0  0  0  0
  -23.4120  -28.8310   23.3320 O   0  0  0  0  0  0  0  0  0  0  0  0
  -20.9360  -29.8690   21.6890 H   0  0  0  0  0  0  0  0  0  0  0  0
  -18.0250  -28.1450   22.9270 C   0  0  0  0  0  0  0  0  0  0  0  0
  -20.5910  -28.3820   23.1600 C   0  0  0  0  0  3  0  0  0  0  0  0
  -20.6690  -26.9500   22.5800 C   0  0  0  0  0  2  0  0  0  0  0  0
  -19.5530  -26.6440   21.5770 C   0  0  0  0  0  2  0  0  0  0  0  0
  -18.1800  -26.7990   22.2370 C   0  0  0  0  0  2  0  0  0  0  0  0
  -19.1560  -28.8930   23.3470 C   0  0  0  0  0  0  0  0  0  0  0  0
  -18.9530  -30.1500   23.9560 C   0  0  0  0  0  3  0  0  0  0  0  0
  -17.6540  -30.6570   24.1490 C   0  0  0  0  0  3  0  0  0  0  0  0
  -16.5380  -29.9050   23.7440 C   0  0  0  0  0  3  0  0  0  0  0  0
  -16.7250  -28.6490   23.1360 C   0  0  0  0  0  3  0  0  0  0  0  0
  -25.8940  -32.5100   23.8070 C   0  0  0  0  0  3  0  0  0  0  0  0
  -25.5590  -33.9090   24.1350 N   0  0  0  0  0  0  0  0  0  0  0  0
  -25.9010  -34.9760   23.4010 C   0  0  0  0  0  0  0  0  0  0  0  0
  -26.5860  -34.8820   22.3790 O   0  0  0  0  0  0  0  0  0  0  0  0
  -24.9450  -34.0520   24.9240 H   0  0  0  0  0  0  0  0  0  0  0  0
  -24.1850  -36.7860   23.0460 C   0  0  0  0  0  1  0  0  0  0  0  0
  -25.4120  -36.3620   23.8700 C   0  0  0  0  0  3  0  0  0  0  0  0
  -27.5200  -37.2520   24.7600 C   0  0  0  0  0  1  0  0  0  0  0  0
  -26.4500  -37.4120   23.7790 N   0  0  0  0  0  0  0  0  0  0  0  0
  -26.0460  -38.3380   23.8910 H   0  0  0  0  0  0  0  0  0  0  0  0
  -26.3860  -31.7600   25.1070 C   0  0  1  0  0  0  0  0  0  0  0  0
  -25.2710  -31.5380   26.1550 C   0  0  0  0  0  1  0  0  0  0  0  0
  -26.9820  -30.3760   24.7580 C   0  0  0  0  0  1  0  0  0  0  0  0
  -27.5180  -32.5690   25.7810 C   0  0  0  0  0  1  0  0  0  0  0  0
  1 47  1  0
  2 14  1  0
  3  8  1  0
  4  5  1  0
  4  3  1  0
  6  5  1  0
  6 18  1  0
  6  7  1  0
  8  2  1  0
  8  7  1  0
  9  2  2  0
 11 13  1  0
 11 10  1  0
 11 12  1  0
 12  1  1  0
 13 14  1  0
 13 12  1  0
 14 10  1  0
 15 16  2  0
 16 35  1  0
 17 16  1  0
 17 20  1  0
 18 15  1  0
 18 19  1  0
 19 17  2  0
 20 21  1  0
 21 22  2  0
 23 26  1  0
 23 22  1  0
 24 23  2  0
 25 24  1  0
 25 20  2  0
 26 27  1  0
 27 28  1  0
 28 29  2  0
 30 29  1  0
 30 34  1  0
 31 30  2  0
 32 27  2  0
 32 31  1  0
 33 32  1  0
 35 36  1  0
 36 39  1  0
 36 38  1  0
 37 35  2  0
 40 41  1  0
 40 15  1  0
 42 40  1  0
 43 44  1  0
 44 45  1  0
 44  1  1  0
 46 44  1  0
 48 50  1  0
 48 47  1  0
 49 60  2  0
 50 55  1  0
 51 59  1  0
 51 61  1  0
 52 58  1  0
 52 54  1  0
 53 59  1  0
 54 55  2  0
 54 53  1  0
 56 50  2  0
 57 56  1  0
 57 52  2  0
 58 51  1  0
 59 49  1  0
 61 63  2  0
 62 61  1  0
 64 62  1  0
 65 74  2  0
 65 70  1  0
 66 62  1  0
 66 70  1  0
 67 66  1  0
 68 69  1  0
 68 67  1  0
 69 65  1  0
 70 71  2  0
 71 72  1  0
 73 72  2  0
 74 73  1  0
 75 49  1  0
 75 76  1  0
 75 85  1  0
 76 79  1  0
 77 81  1  0
 77 76  1  0
 78 77  2  0
 81 80  1  0
 83 81  1  0
 83 84  1  0
 83 82  1  0
 85 88  1  1
 85 86  1  0
 87 85  1  0
M  ISO  4   2 100  14 100  47 101  48 101
M  END
>  <TORSDO>  (95) 
F 18

>  <SCORE>  (95) 
-16.510

>  <name>  (95) 
94

>  <ligand_id>  (95) 
94

>  <original_smiles>  (95) 
[H]c1c([H])c([H])c2c(c1[H])C([H])([H])C([H])([H])C([H])([H])C2([H])N([H])C(=O)C1([H])N(C(=O)C([H])(N([H])C(=O)C([H])(N([H])C([H])([H])[H])C([H])([H])[H])C(C([H])([H])[H])(C([H])([H])[H])C([H])([H])[H])C([H])([H])c2c([H])c(OC([H])([H])C([H])(C3([H])C4([H])N(C(=O)N5C([H])([H])C([H])([H])C([H])([H])C([H])(n6nc(-c7c([H])c([H])c(Oc8c([H])c([H])c(F)c([H])c8F)c([H])c7[H])c(C(=O)N([H])[H])c6N([H])[H])C5([H])[H])C([H])([H])C43[H])[N+]([H])([H])C([H])([H])[H])c([H])c([H])c2C1([H])[H]

>  <smiles>  (95) 
[H]c1c([H])c([H])c2c(c1[H])C([H])([H])C([H])([H])C([H])([H])C2([H])N([H])C(=O)C1([H])N(C(=O)C([H])(N([H])C(=O)C([H])(N([H])C([H])([H])[H])C([H])([H])[H])C(C([H])([H])[H])(C([H])([H])[H])C([H])([H])[H])C([H])([H])c2c([H])c(OC([H])([H])C([H])(C3([H])C4([H])N(C(=O)N5C([H])([H])C([H])([H])C([H])([H])C([H])(n6nc(-c7c([H])c([H])c(Oc8c([H])c([H])c(F)c([H])c8F)c([H])c7[H])c(C(=O)N([H])[H])c6N([H])[H])C5([H])[H])C([H])([H])C43[H])[N+]([H])([H])C([H])([H])[H])c([H])c([H])c2C1([H])[H]

$$$$
95:0:0
     RDKit          3D

 88 97  0  0  1  0  0  0  0  0999 V2000
  -28.8870  -21.9400   19.3590 C   0  0  0  0  0  3  0  0  0  0  0  0
  -28.9810  -20.7480   20.0950 C   0  0  0  0  0  0  0  0  0  0  0  0
  -28.6000  -21.1390   21.5170 C   0  0  0  0  0  2  0  0  0  0  0  0
  -27.0130  -23.1080   20.7760 C   0  0  0  0  0  2  0  0  0  0  0  0
  -28.2540  -22.6600   21.4870 C   0  0  0  0  0  3  0  0  0  0  0  0
  -28.3520  -23.2590   20.0810 C   0  0  1  0  0  0  0  0  0  0  0  0
  -29.1780  -19.1490   19.6350 C   0  0  0  0  0  2  0  0  0  0  0  0
  -29.9400  -17.8520   20.4430 C   0  0  0  0  0  2  0  0  0  0  0  0
  -30.4910  -15.0960   20.1440 C   0  0  0  0  0  0  0  0  0  0  0  0
  -30.3930  -12.7340   19.2020 C   0  0  0  0  0  2  0  0  0  0  0  0
  -29.4180  -12.6250   18.0050 C   0  0  0  0  0  2  0  0  0  0  0  0
  -27.9810  -12.3870   18.5000 C   0  0  0  0  0  2  0  0  0  0  0  0
  -27.5890  -13.3370   19.6600 C   0  0  0  0  0  3  0  0  0  0  0  0
  -28.6700  -13.4050   20.7570 C   0  0  0  0  0  2  0  0  0  0  0  0
  -29.9070  -13.8320   20.0910 N   0  0  0  0  0  0  0  0  0  0  0  0
  -31.7060  -15.1580   19.9310 O   0  0  0  0  0  0  0  0  0  0  0  0
  -29.6840  -16.2870   20.2220 N   0  0  0  0  0  0  0  0  0  0  0  0
  -28.7010  -16.0580   20.2550 H   0  0  0  0  0  0  0  0  0  0  0  0
  -25.2350  -13.9180   20.4700 C   0  0  0  0  0  0  0  0  0  0  0  0
  -24.1790  -13.1410   20.8570 C   0  0  0  0  0  0  0  0  0  0  0  0
  -24.6420  -11.7890   20.8110 C   0  0  0  0  0  0  0  0  0  0  0  0
  -26.2680  -13.0370   20.2010 N   0  0  0  0  0  0  0  0  0  0  0  0
  -25.9260  -11.7510   20.4750 N   0  0  0  0  0  0  0  0  0  0  0  0
  -23.9200  -10.5270   21.0110 C   0  0  0  0  0  0  0  0  0  0  0  0
  -24.3710   -9.5610   21.9380 C   0  0  0  0  0  3  0  0  0  0  0  0
  -23.6510   -8.3600   22.1240 C   0  0  0  0  0  3  0  0  0  0  0  0
  -22.4700   -8.1190   21.3830 C   0  0  0  0  0  0  0  0  0  0  0  0
  -22.0390   -9.0750   20.4480 C   0  0  0  0  0  3  0  0  0  0  0  0
  -22.7580  -10.2660   20.2590 C   0  0  0  0  0  3  0  0  0  0  0  0
  -21.7200   -6.9710   21.4790 O   0  0  0  0  0  0  0  0  0  0  0  0
  -21.6830   -6.2310   22.6330 C   0  0  0  0  0  0  0  0  0  0  0  0
  -21.2490   -6.7810   23.8590 C   0  0  0  0  0  3  0  0  0  0  0  0
  -21.1590   -5.9650   25.0050 C   0  0  0  0  0  3  0  0  0  0  0  0
  -21.4940   -4.6010   24.9260 C   0  0  0  0  0  0  0  0  0  0  0  0
  -21.9230   -4.0500   23.7070 C   0  0  0  0  0  3  0  0  0  0  0  0
  -22.0150   -4.8630   22.5630 C   0  0  0  0  0  0  0  0  0  0  0  0
  -22.4060   -4.3210   21.3850 F   0  0  0  0  0  0  0  0  0  0  0  0
  -21.4010   -3.8170   26.0260 F   0  0  0  0  0  0  0  0  0  0  0  0
  -22.7870  -13.6180   21.1520 C   0  0  0  0  0  0  0  0  0  0  0  0
  -22.0730  -12.9160   22.0220 N   0  0  0  0  0  0  0  0  0  0  0  0
  -22.3390  -14.6470   20.6470 O   0  0  0  0  0  0  0  0  0  0  0  0
  -22.4440  -12.0810   22.4550 H   0  0  0  0  0  0  0  0  0  0  0  0
  -21.1420  -13.2200   22.2650 H   0  0  0  0  0  0  0  0  0  0  0  0
  -25.3950  -15.2900   20.2960 N   0  0  0  0  0  0  0  0  0  0  0  0
  -24.6370  -15.9470   20.4480 H   0  0  0  0  0  0  0  0  0  0  0  0
  -26.2230  -15.7220   19.9090 H   0  0  0  0  0  0  0  0  0  0  0  0
  -28.4830  -24.8540   19.5480 C   0  0  0  0  0  2  0  0  0  0  0  0
  -28.3220  -26.2530   20.2410 O   0  0  0  0  0  0  0  0  0  0  0  0
  -24.6300  -31.9120   23.2240 C   0  0  0  0  0  0  0  0  0  0  0  0
  -27.2380  -27.2060   20.1560 C   0  0  0  0  0  0  0  0  0  0  0  0
  -23.4370  -30.5110   21.5860 C   0  0  0  0  0  3  0  0  0  0  0  0
  -24.8920  -28.9330   20.1580 C   0  0  0  0  0  0  0  0  0  0  0  0
  -25.9880  -30.7810   21.4180 C   0  0  0  0  0  2  0  0  0  0  0  0
  -26.0670  -29.3870   20.7630 C   0  0  0  0  0  0  0  0  0  0  0  0
  -27.2360  -28.5340   20.7480 C   0  0  0  0  0  3  0  0  0  0  0  0
  -26.0270  -26.8450   19.5260 C   0  0  0  0  0  3  0  0  0  0  0  0
  -24.8830  -27.6750   19.5290 C   0  0  0  0  0  3  0  0  0  0  0  0
  -23.6530  -29.8190   20.2100 C   0  0  0  0  0  2  0  0  0  0  0  0
  -24.7040  -31.0910   22.1290 N   0  0  0  0  0  0  0  0  0  0  0  0
  -23.5390  -32.1910   23.7520 O   0  0  0  0  0  0  0  0  0  0  0  0
  -22.7560  -29.5110   22.5530 C   0  0  0  0  0  0  0  0  0  0  0  0
  -21.4320  -29.3240   22.4090 N   0  0  0  0  0  0  0  0  0  0  0  0
  -23.4270  -28.8970   23.3880 O   0  0  0  0  0  0  0  0  0  0  0  0
  -20.9640  -29.8330   21.6740 H   0  0  0  0  0  0  0  0  0  0  0  0
  -18.0710  -28.1030   22.9030 C   0  0  0  0  0  0  0  0  0  0  0  0
  -20.6180  -28.3840   23.1840 C   0  0  0  0  0  3  0  0  0  0  0  0
  -20.7420  -26.9480   22.6200 C   0  0  0  0  0  2  0  0  0  0  0  0
  -19.6540  -26.6270   21.5920 C   0  0  0  0  0  2  0  0  0  0  0  0
  -18.2630  -26.7620   22.2150 C   0  0  0  0  0  2  0  0  0  0  0  0
  -19.1760  -28.8750   23.3470 C   0  0  0  0  0  0  0  0  0  0  0  0
  -18.9350  -30.1250   23.9560 C   0  0  0  0  0  3  0  0  0  0  0  0
  -17.6200  -30.6090   24.1200 C   0  0  0  0  0  3  0  0  0  0  0  0
  -16.5280  -29.8360   23.6840 C   0  0  0  0  0  3  0  0  0  0  0  0
  -16.7580  -28.5830   23.0840 C   0  0  0  0  0  3  0  0  0  0  0  0
  -25.9060  -32.5510   23.8540 C   0  0  0  0  0  3  0  0  0  0  0  0
  -26.4180  -31.7870   25.1370 C   0  0  1  0  0  0  0  0  0  0  0  0
  -25.3220  -31.5510   26.2010 C   0  0  0  0  0  1  0  0  0  0  0  0
  -27.0040  -30.4080   24.7590 C   0  0  0  0  0  1  0  0  0  0  0  0
  -27.5670  -32.5860   25.7990 C   0  0  0  0  0  1  0  0  0  0  0  0
  -25.5930  -33.9490   24.1880 N   0  0  0  0  0  0  0  0  0  0  0  0
  -25.9150  -35.0080   23.4310 C   0  0  0  0  0  0  0  0  0  0  0  0
  -26.5760  -34.9070   22.3930 O   0  0  0  0  0  0  0  0  0  0  0  0
  -24.9980  -34.1010   24.9910 H   0  0  0  0  0  0  0  0  0  0  0  0
  -24.1780  -36.7950   23.0950 C   0  0  0  0  0  1  0  0  0  0  0  0
  -25.4270  -36.3940   23.8960 C   0  0  0  0  0  3  0  0  0  0  0  0
  -27.5630  -37.2870   24.7170 C   0  0  0  0  0  1  0  0  0  0  0  0
  -26.4570  -37.4510   23.7760 N   0  0  0  0  0  0  0  0  0  0  0  0
  -26.0490  -38.3710   23.9160 H   0  0  0  0  0  0  0  0  0  0  0  0
  1  6  1  0
  1  2  2  0
  2  3  1  0
  5  4  1  0
  5  3  1  0
  6 47  1  1
  6  4  1  0
  6  5  1  0
  7  2  1  0
  7  8  1  0
  9 17  1  0
 10 15  1  0
 11 12  1  0
 11 10  1  0
 13 12  1  0
 13 22  1  0
 13 14  1  0
 15  9  1  0
 15 14  1  0
 16  9  2  0
 17 18  1  0
 17  8  1  0
 19 20  2  0
 20 39  1  0
 21 20  1  0
 21 24  1  0
 22 19  1  0
 22 23  1  0
 23 21  2  0
 24 25  1  0
 25 26  2  0
 27 30  1  0
 27 26  1  0
 28 27  2  0
 29 28  1  0
 29 24  2  0
 30 31  1  0
 31 32  1  0
 32 33  2  0
 34 33  1  0
 34 38  1  0
 35 34  2  0
 36 31  2  0
 36 35  1  0
 37 36  1  0
 39 40  1  0
 40 43  1  0
 40 42  1  0
 41 39  2  0
 44 45  1  0
 44 19  1  0
 46 44  1  0
 47 48  1  0
 49 60  2  0
 50 48  1  0
 50 55  1  0
 51 59  1  0
 51 61  1  0
 52 58  1  0
 52 54  1  0
 53 59  1  0
 54 53  1  0
 55 54  2  0
 56 57  1  0
 56 50  2  0
 57 52  2  0
 58 51  1  0
 59 49  1  0
 61 63  2  0
 62 61  1  0
 64 62  1  0
 65 74  2  0
 65 70  1  0
 66 62  1  0
 66 70  1  0
 67 66  1  0
 68 69  1  0
 68 67  1  0
 69 65  1  0
 70 71  2  0
 71 72  1  0
 73 72  2  0
 74 73  1  0
 75 49  1  0
 75 80  1  0
 75 76  1  0
 76 79  1  1
 76 77  1  0
 78 76  1  0
 80 83  1  0
 81 85  1  0
 81 80  1  0
 82 81  2  0
 85 84  1  0
 87 85  1  0
 87 88  1  0
 87 86  1  0
M  ISO  4   9 100  17 100  47 101  48 101
M  END
>  <TORSDO>  (96) 
F 19

>  <SCORE>  (96) 
-14.995

>  <name>  (96) 
95

>  <ligand_id>  (96) 
95

>  <original_smiles>  (96) 
[H]C1=C(C([H])([H])C([H])([H])N([H])C(=O)N2C([H])([H])C([H])([H])C([H])([H])C([H])(n3nc(-c4c([H])c([H])c(Oc5c([H])c([H])c(F)c([H])c5F)c([H])c4[H])c(C(=O)N([H])[H])c3N([H])[H])C2([H])[H])C([H])([H])C2([H])C([H])([H])C12C([H])([H])Oc1c([H])c([H])c2c(c1[H])C([H])([H])N(C(=O)C([H])(N([H])C(=O)C([H])(N([H])C([H])([H])[H])C([H])([H])[H])C(C([H])([H])[H])(C([H])([H])[H])C([H])([H])[H])C([H])(C(=O)N([H])C1([H])c3c([H])c([H])c([H])c([H])c3C([H])([H])C([H])([H])C1([H])[H])C2([H])[H]

>  <smiles>  (96) 
[H]C1=C(C([H])([H])C([H])([H])N([H])C(=O)N2C([H])([H])C([H])([H])C([H])([H])C([H])(n3nc(-c4c([H])c([H])c(Oc5c([H])c([H])c(F)c([H])c5F)c([H])c4[H])c(C(=O)N([H])[H])c3N([H])[H])C2([H])[H])C([H])([H])C2([H])C([H])([H])C12C([H])([H])Oc1c([H])c([H])c2c(c1[H])C([H])([H])N(C(=O)C([H])(N([H])C(=O)C([H])(N([H])C([H])([H])[H])C([H])([H])[H])C(C([H])([H])[H])(C([H])([H])[H])C([H])([H])[H])C([H])(C(=O)N([H])C1([H])c3c([H])c([H])c([H])c([H])c3C([H])([H])C([H])([H])C1([H])[H])C2([H])[H]

$$$$
96:0:0
     RDKit          3D

 92101  0  0  1  0  0  0  0  0999 V2000
  -28.8690  -22.2290   20.0550 C   0  0  0  0  0  3  0  0  0  0  0  0
  -28.8200  -22.2540   18.5800 N   0  0  0  0  0  4  0  0  0  0  0  0
  -28.9420  -23.1910   18.2330 H   0  0  0  0  0  0  0  0  0  0  0  0
  -27.9340  -21.9160   18.2460 H   0  0  0  0  0  0  0  0  0  0  0  0
  -29.5480  -21.6860   18.1860 H   0  0  0  0  0  0  0  0  0  0  0  0
  -28.8120  -20.3440   20.4910 C   0  0  0  0  0  2  0  0  0  0  0  0
  -31.0010  -19.6750   18.0980 C   0  0  0  0  0  2  0  0  0  0  0  0
  -29.8170  -18.7940   18.5330 C   0  0  0  0  0  2  0  0  0  0  0  0
  -32.4930  -18.5890   19.9320 C   0  0  0  0  0  2  0  0  0  0  0  0
  -31.8750  -19.8120   19.3130 C   0  0  0  0  0  3  0  0  0  0  0  0
  -31.1980  -19.1520   20.4820 C   0  0  0  0  0  3  0  0  0  0  0  0
  -29.7870  -18.7320   20.0840 C   0  0  1  0  0  0  0  0  0  0  0  0
  -30.3400  -15.6190   20.2360 C   0  0  0  0  0  0  0  0  0  0  0  0
  -30.3860  -13.1020   19.3820 C   0  0  0  0  0  2  0  0  0  0  0  0
  -29.4950  -12.7770   18.1510 C   0  0  0  0  0  2  0  0  0  0  0  0
  -28.0590  -12.4410   18.5850 C   0  0  0  0  0  2  0  0  0  0  0  0
  -27.5690  -13.4040   19.6910 C   0  0  0  0  0  3  0  0  0  0  0  0
  -28.6020  -13.6690   20.8110 C   0  0  0  0  0  2  0  0  0  0  0  0
  -29.7910  -14.2700   20.1740 N   0  0  0  0  0  0  0  0  0  0  0  0
  -31.5580  -15.5380   20.0060 O   0  0  0  0  0  0  0  0  0  0  0  0
  -29.6120  -16.9870   20.3690 N   0  0  0  0  0  0  0  0  0  0  0  0
  -28.6560  -16.7910   20.6280 H   0  0  0  0  0  0  0  0  0  0  0  0
  -25.1990  -13.9200   20.4520 C   0  0  0  0  0  0  0  0  0  0  0  0
  -24.1470  -13.1320   20.8240 C   0  0  0  0  0  0  0  0  0  0  0  0
  -24.6300  -11.7870   20.7940 C   0  0  0  0  0  0  0  0  0  0  0  0
  -26.2500  -13.0570   20.2070 N   0  0  0  0  0  0  0  0  0  0  0  0
  -25.9230  -11.7650   20.4780 N   0  0  0  0  0  0  0  0  0  0  0  0
  -23.9120  -10.5200   20.9850 C   0  0  0  0  0  0  0  0  0  0  0  0
  -24.3390   -9.5630   21.9300 C   0  0  0  0  0  3  0  0  0  0  0  0
  -23.6180   -8.3630   22.1130 C   0  0  0  0  0  3  0  0  0  0  0  0
  -22.4540   -8.1110   21.3500 C   0  0  0  0  0  0  0  0  0  0  0  0
  -22.0460   -9.0570   20.3920 C   0  0  0  0  0  3  0  0  0  0  0  0
  -22.7680  -10.2470   20.2080 C   0  0  0  0  0  3  0  0  0  0  0  0
  -21.7030   -6.9630   21.4390 O   0  0  0  0  0  0  0  0  0  0  0  0
  -21.6380   -6.2330   22.5980 C   0  0  0  0  0  0  0  0  0  0  0  0
  -21.1760   -6.7970   23.8080 C   0  0  0  0  0  3  0  0  0  0  0  0
  -21.0580   -5.9930   24.9590 C   0  0  0  0  0  3  0  0  0  0  0  0
  -21.3910   -4.6270   24.9030 C   0  0  0  0  0  0  0  0  0  0  0  0
  -21.8450   -4.0620   23.6990 C   0  0  0  0  0  3  0  0  0  0  0  0
  -21.9660   -4.8630   22.5490 C   0  0  0  0  0  0  0  0  0  0  0  0
  -22.3810   -4.3070   21.3870 F   0  0  0  0  0  0  0  0  0  0  0  0
  -21.2720   -3.8550   26.0090 F   0  0  0  0  0  0  0  0  0  0  0  0
  -22.7450  -13.5960   21.0870 C   0  0  0  0  0  0  0  0  0  0  0  0
  -22.0180  -12.8980   21.9530 N   0  0  0  0  0  0  0  0  0  0  0  0
  -22.3030  -14.6160   20.5610 O   0  0  0  0  0  0  0  0  0  0  0  0
  -22.3920  -12.0780   22.4070 H   0  0  0  0  0  0  0  0  0  0  0  0
  -21.0740  -13.1870   22.1620 H   0  0  0  0  0  0  0  0  0  0  0  0
  -25.3440  -15.2920   20.2680 N   0  0  0  0  0  0  0  0  0  0  0  0
  -24.5650  -15.9330   20.3700 H   0  0  0  0  0  0  0  0  0  0  0  0
  -26.1740  -15.7380   19.8990 H   0  0  0  0  0  0  0  0  0  0  0  0
  -27.9790  -23.8810   20.4640 C   0  0  0  0  0  2  0  0  0  0  0  0
  -28.1580  -25.6060   20.2690 O   0  0  0  0  0  0  0  0  0  0  0  0
  -24.6150  -31.8490   23.1460 C   0  0  0  0  0  0  0  0  0  0  0  0
  -27.1670  -26.7860   20.2330 C   0  0  0  0  0  0  0  0  0  0  0  0
  -23.4370  -30.4330   21.5200 C   0  0  0  0  0  3  0  0  0  0  0  0
  -24.8940  -28.7840   20.1320 C   0  0  0  0  0  0  0  0  0  0  0  0
  -26.0140  -30.5980   21.4010 C   0  0  0  0  0  2  0  0  0  0  0  0
  -26.0840  -29.1610   20.7650 C   0  0  0  0  0  0  0  0  0  0  0  0
  -27.2100  -28.1900   20.7810 C   0  0  0  0  0  3  0  0  0  0  0  0
  -25.9430  -26.6080   19.5400 C   0  0  0  0  0  3  0  0  0  0  0  0
  -24.8600  -27.5330   19.4940 C   0  0  0  0  0  3  0  0  0  0  0  0
  -23.6820  -29.7260   20.1570 C   0  0  0  0  0  2  0  0  0  0  0  0
  -24.7130  -30.9930   22.0750 N   0  0  0  0  0  0  0  0  0  0  0  0
  -23.5200  -32.1490   23.6530 O   0  0  0  0  0  0  0  0  0  0  0  0
  -22.7280  -29.4570   22.4950 C   0  0  0  0  0  0  0  0  0  0  0  0
  -21.3950  -29.3050   22.3770 N   0  0  0  0  0  0  0  0  0  0  0  0
  -23.3860  -28.8320   23.3300 O   0  0  0  0  0  0  0  0  0  0  0  0
  -20.9160  -29.8580   21.6800 H   0  0  0  0  0  0  0  0  0  0  0  0
  -18.0010  -28.1240   22.9170 C   0  0  0  0  0  0  0  0  0  0  0  0
  -20.5660  -28.3750   23.1540 C   0  0  0  0  0  3  0  0  0  0  0  0
  -20.6510  -26.9410   22.5770 C   0  0  0  0  0  2  0  0  0  0  0  0
  -19.5350  -26.6280   21.5740 C   0  0  0  0  0  2  0  0  0  0  0  0
  -18.1620  -26.7770   22.2320 C   0  0  0  0  0  2  0  0  0  0  0  0
  -19.1290  -28.8810   23.3350 C   0  0  0  0  0  0  0  0  0  0  0  0
  -18.9210  -30.1390   23.9400 C   0  0  0  0  0  3  0  0  0  0  0  0
  -17.6200  -30.6410   24.1300 C   0  0  0  0  0  3  0  0  0  0  0  0
  -16.5070  -29.8830   23.7250 C   0  0  0  0  0  3  0  0  0  0  0  0
  -16.6990  -28.6260   23.1250 C   0  0  0  0  0  3  0  0  0  0  0  0
  -25.8750  -32.5080   23.7850 C   0  0  0  0  0  3  0  0  0  0  0  0
  -26.3760  -31.7540   25.0790 C   0  0  1  0  0  0  0  0  0  0  0  0
  -25.2690  -31.5270   26.1360 C   0  0  0  0  0  1  0  0  0  0  0  0
  -26.9720  -30.3740   24.7220 C   0  0  0  0  0  1  0  0  0  0  0  0
  -27.5150  -32.5610   25.7490 C   0  0  0  0  0  1  0  0  0  0  0  0
  -25.5410  -33.9060   24.1180 N   0  0  0  0  0  0  0  0  0  0  0  0
  -25.8740  -34.9760   23.3840 C   0  0  0  0  0  0  0  0  0  0  0  0
  -26.5490  -34.8910   22.3560 O   0  0  0  0  0  0  0  0  0  0  0  0
  -24.9350  -34.0460   24.9150 H   0  0  0  0  0  0  0  0  0  0  0  0
  -24.1410  -36.7780   23.0450 C   0  0  0  0  0  1  0  0  0  0  0  0
  -25.3780  -36.3600   23.8580 C   0  0  0  0  0  3  0  0  0  0  0  0
  -27.4990  -37.2480   24.7220 C   0  0  0  0  0  1  0  0  0  0  0  0
  -26.4080  -37.4190   23.7670 N   0  0  0  0  0  0  0  0  0  0  0  0
  -25.9970  -38.3370   23.9160 H   0  0  0  0  0  0  0  0  0  0  0  0
  1 51  1  0
  1  6  1  0
  2  1  1  0
  3  2  1  0
  4  2  1  0
  5  2  1  0
  7  8  1  0
  8 12  1  0
 10  7  1  0
 10  9  1  0
 10 11  1  0
 11  9  1  0
 12 21  1  0
 12 11  1  0
 12  6  1  1
 13 21  1  0
 14 19  1  0
 15 16  1  0
 15 14  1  0
 17 16  1  0
 17 26  1  0
 17 18  1  0
 19 13  1  0
 19 18  1  0
 20 13  2  0
 21 22  1  0
 23 24  2  0
 24 43  1  0
 25 24  1  0
 25 28  1  0
 26 23  1  0
 26 27  1  0
 27 25  2  0
 28 29  1  0
 29 30  2  0
 31 34  1  0
 31 30  1  0
 32 31  2  0
 33 32  1  0
 33 28  2  0
 34 35  1  0
 35 36  1  0
 36 37  2  0
 38 37  1  0
 38 42  1  0
 39 38  2  0
 40 35  2  0
 40 39  1  0
 41 40  1  0
 43 44  1  0
 44 47  1  0
 44 46  1  0
 45 43  2  0
 48 49  1  0
 48 23  1  0
 50 48  1  0
 52 51  1  0
 53 64  2  0
 54 52  1  0
 54 59  1  0
 55 63  1  0
 55 65  1  0
 56 62  1  0
 56 58  1  0
 57 63  1  0
 58 59  2  0
 58 57  1  0
 60 54  2  0
 61 60  1  0
 61 56  2  0
 62 55  1  0
 63 53  1  0
 65 67  2  0
 66 65  1  0
 68 66  1  0
 69 78  2  0
 69 74  1  0
 70 66  1  0
 70 74  1  0
 71 70  1  0
 72 73  1  0
 72 71  1  0
 73 69  1  0
 74 75  2  0
 75 76  1  0
 77 76  2  0
 78 77  1  0
 79 53  1  0
 79 84  1  0
 79 80  1  0
 80 83  1  1
 80 81  1  0
 82 80  1  0
 84 87  1  0
 85 89  1  0
 85 84  1  0
 86 85  2  0
 89 88  1  0
 91 89  1  0
 91 92  1  0
 91 90  1  0
M  ISO  4  13 100  21 100  51 101  52 101
M  END
>  <TORSDO>  (97) 
F 20

>  <SCORE>  (97) 
-16.801

>  <name>  (97) 
96

>  <ligand_id>  (97) 
96

>  <original_smiles>  (97) 
[H]c1c([H])c([H])c2c(c1[H])C([H])([H])C([H])([H])C([H])([H])C2([H])N([H])C(=O)C1([H])N(C(=O)C([H])(N([H])C(=O)C([H])(N([H])C([H])([H])[H])C([H])([H])[H])C(C([H])([H])[H])(C([H])([H])[H])C([H])([H])[H])C([H])([H])c2c([H])c(OC([H])([H])C([H])(C([H])([H])C3(N([H])C(=O)N4C([H])([H])C([H])([H])C([H])([H])C([H])(n5nc(-c6c([H])c([H])c(Oc7c([H])c([H])c(F)c([H])c7F)c([H])c6[H])c(C(=O)N([H])[H])c5N([H])[H])C4([H])[H])C([H])([H])C([H])([H])C4([H])C([H])([H])C43[H])[N+]([H])([H])[H])c([H])c([H])c2C1([H])[H]

>  <smiles>  (97) 
[H]c1c([H])c([H])c2c(c1[H])C([H])([H])C([H])([H])C([H])([H])C2([H])N([H])C(=O)C1([H])N(C(=O)C([H])(N([H])C(=O)C([H])(N([H])C([H])([H])[H])C([H])([H])[H])C(C([H])([H])[H])(C([H])([H])[H])C([H])([H])[H])C([H])([H])c2c([H])c(OC([H])([H])C([H])(C([H])([H])C3(N([H])C(=O)N4C([H])([H])C([H])([H])C([H])([H])C([H])(n5nc(-c6c([H])c([H])c(Oc7c([H])c([H])c(F)c([H])c7F)c([H])c6[H])c(C(=O)N([H])[H])c5N([H])[H])C4([H])[H])C([H])([H])C([H])([H])C4([H])C([H])([H])C43[H])[N+]([H])([H])[H])c([H])c([H])c2C1([H])[H]

$$$$
97:0:0
     RDKit          3D

 93103  0  0  1  0  0  0  0  0999 V2000
  -31.2140  -19.9700   21.1520 C   0  0  0  0  0  2  0  0  0  0  0  0
  -30.2060  -22.2750   21.4690 C   0  0  0  0  0  2  0  0  0  0  0  0
  -30.0730  -19.9130   18.9700 C   0  0  0  0  0  2  0  0  0  0  0  0
  -28.7390  -20.4030   20.7860 C   0  0  0  0  0  2  0  0  0  0  0  0
  -31.4240  -21.5080   20.9880 C   0  0  0  0  0  3  0  0  0  0  0  0
  -30.0740  -21.5080   19.1280 C   0  0  0  0  0  3  0  0  0  0  0  0
  -29.9510  -19.3630   20.4180 C   0  0  2  0  0  0  0  0  0  0  0  0
  -29.1790  -21.9370   20.3690 C   0  0  2  0  0  0  0  0  0  0  0  0
  -31.4360  -21.8640   19.5670 N   0  0  0  0  0  4  0  0  0  0  0  0
  -32.1650  -21.4000   19.0510 H   0  0  0  0  0  0  0  0  0  0  0  0
  -31.5700  -22.8600   19.4920 H   0  0  0  0  0  0  0  0  0  0  0  0
  -28.1540  -23.2990   20.2860 C   0  0  0  0  0  2  0  0  0  0  0  0
  -28.4450  -24.8540   19.6720 C   0  0  0  0  0  2  0  0  0  0  0  0
  -28.3410  -26.2760   20.3020 O   0  0  0  0  0  0  0  0  0  0  0  0
  -24.6370  -31.9070   23.2440 C   0  0  0  0  0  0  0  0  0  0  0  0
  -27.2660  -27.2270   20.1950 C   0  0  0  0  0  0  0  0  0  0  0  0
  -23.4510  -30.4990   21.5990 C   0  0  0  0  0  3  0  0  0  0  0  0
  -24.9190  -28.9460   20.1690 C   0  0  0  0  0  0  0  0  0  0  0  0
  -25.9990  -30.7930   21.4390 C   0  0  0  0  0  2  0  0  0  0  0  0
  -26.0910  -29.4050   20.7810 C   0  0  0  0  0  0  0  0  0  0  0  0
  -27.2590  -28.5590   20.7810 C   0  0  0  0  0  3  0  0  0  0  0  0
  -26.0720  -26.8700   19.5360 C   0  0  0  0  0  3  0  0  0  0  0  0
  -24.9240  -27.6930   19.5290 C   0  0  0  0  0  3  0  0  0  0  0  0
  -23.6790  -29.8250   20.2190 C   0  0  0  0  0  2  0  0  0  0  0  0
  -24.7150  -31.0860   22.1510 N   0  0  0  0  0  0  0  0  0  0  0  0
  -23.5520  -32.1830   23.7750 O   0  0  0  0  0  0  0  0  0  0  0  0
  -22.7800  -29.4870   22.5590 C   0  0  0  0  0  0  0  0  0  0  0  0
  -21.4510  -29.3140   22.4380 N   0  0  0  0  0  0  0  0  0  0  0  0
  -23.4550  -28.8580   23.3800 O   0  0  0  0  0  0  0  0  0  0  0  0
  -20.9640  -29.8720   21.7510 H   0  0  0  0  0  0  0  0  0  0  0  0
  -18.0740  -28.1010   22.9470 C   0  0  0  0  0  0  0  0  0  0  0  0
  -20.6340  -28.3710   23.2060 C   0  0  0  0  0  3  0  0  0  0  0  0
  -20.7370  -26.9380   22.6300 C   0  0  0  0  0  2  0  0  0  0  0  0
  -19.6320  -26.6150   21.6190 C   0  0  0  0  0  2  0  0  0  0  0  0
  -18.2510  -26.7550   22.2650 C   0  0  0  0  0  2  0  0  0  0  0  0
  -19.1910  -28.8640   23.3770 C   0  0  0  0  0  0  0  0  0  0  0  0
  -18.9690  -30.1220   23.9780 C   0  0  0  0  0  3  0  0  0  0  0  0
  -17.6630  -30.6190   24.1500 C   0  0  0  0  0  3  0  0  0  0  0  0
  -16.5600  -29.8530   23.7340 C   0  0  0  0  0  3  0  0  0  0  0  0
  -16.7670  -28.5950   23.1410 C   0  0  0  0  0  3  0  0  0  0  0  0
  -25.9110  -32.5520   23.8720 C   0  0  0  0  0  3  0  0  0  0  0  0
  -26.4160  -31.7920   25.1600 C   0  0  1  0  0  0  0  0  0  0  0  0
  -25.3130  -31.5660   26.2210 C   0  0  0  0  0  1  0  0  0  0  0  0
  -27.0110  -30.4140   24.7870 C   0  0  0  0  0  1  0  0  0  0  0  0
  -27.5580  -32.5960   25.8260 C   0  0  0  0  0  1  0  0  0  0  0  0
  -25.5940  -33.9530   24.1980 N   0  0  0  0  0  0  0  0  0  0  0  0
  -25.9230  -35.0050   23.4360 C   0  0  0  0  0  0  0  0  0  0  0  0
  -26.5890  -34.8980   22.4030 O   0  0  0  0  0  0  0  0  0  0  0  0
  -25.0070  -34.1090   25.0060 H   0  0  0  0  0  0  0  0  0  0  0  0
  -24.1870  -36.7920   23.0730 C   0  0  0  0  0  1  0  0  0  0  0  0
  -25.4310  -36.3960   23.8860 C   0  0  0  0  0  3  0  0  0  0  0  0
  -27.5590  -37.2910   24.7170 C   0  0  0  0  0  1  0  0  0  0  0  0
  -26.4620  -37.4510   23.7680 N   0  0  0  0  0  0  0  0  0  0  0  0
  -26.0530  -38.3710   23.9140 H   0  0  0  0  0  0  0  0  0  0  0  0
  -30.0710  -17.6910   20.8660 C   0  0  0  0  0  2  0  0  0  0  0  0
  -30.4980  -15.0620   20.1710 C   0  0  0  0  0  0  0  0  0  0  0  0
  -30.3590  -12.7290   19.1790 C   0  0  0  0  0  2  0  0  0  0  0  0
  -29.3920  -12.6640   17.9790 C   0  0  0  0  0  2  0  0  0  0  0  0
  -27.9470  -12.4350   18.4580 C   0  0  0  0  0  2  0  0  0  0  0  0
  -27.5570  -13.3560   19.6430 C   0  0  0  0  0  3  0  0  0  0  0  0
  -28.6450  -13.3790   20.7340 C   0  0  0  0  0  2  0  0  0  0  0  0
  -29.8830  -13.8140   20.0760 N   0  0  0  0  0  0  0  0  0  0  0  0
  -31.7180  -15.1000   19.9870 O   0  0  0  0  0  0  0  0  0  0  0  0
  -29.7360  -16.2720   20.2440 N   0  0  0  0  0  0  0  0  0  0  0  0
  -28.7450  -16.1080   20.1330 H   0  0  0  0  0  0  0  0  0  0  0  0
  -25.1860  -13.9090   20.4410 C   0  0  0  0  0  0  0  0  0  0  0  0
  -24.1380  -13.1270   20.8290 C   0  0  0  0  0  0  0  0  0  0  0  0
  -24.6150  -11.7770   20.7880 C   0  0  0  0  0  0  0  0  0  0  0  0
  -26.2350  -13.0450   20.1750 N   0  0  0  0  0  0  0  0  0  0  0  0
  -25.9010  -11.7570   20.4540 N   0  0  0  0  0  0  0  0  0  0  0  0
  -23.9030  -10.5090   20.9890 C   0  0  0  0  0  0  0  0  0  0  0  0
  -24.3510   -9.5480   21.9210 C   0  0  0  0  0  3  0  0  0  0  0  0
  -23.6390   -8.3440   22.1100 C   0  0  0  0  0  3  0  0  0  0  0  0
  -22.4630   -8.0910   21.3640 C   0  0  0  0  0  0  0  0  0  0  0  0
  -22.0310   -9.0410   20.4200 C   0  0  0  0  0  3  0  0  0  0  0  0
  -22.7460  -10.2360   20.2300 C   0  0  0  0  0  3  0  0  0  0  0  0
  -21.7200   -6.9400   21.4620 O   0  0  0  0  0  0  0  0  0  0  0  0
  -21.6810   -6.2030   22.6200 C   0  0  0  0  0  0  0  0  0  0  0  0
  -21.2450   -6.7610   23.8420 C   0  0  0  0  0  3  0  0  0  0  0  0
  -21.1600   -5.9520   24.9920 C   0  0  0  0  0  3  0  0  0  0  0  0
  -21.4930   -4.5870   24.9210 C   0  0  0  0  0  0  0  0  0  0  0  0
  -21.9230   -4.0300   23.7050 C   0  0  0  0  0  3  0  0  0  0  0  0
  -22.0130   -4.8360   22.5550 C   0  0  0  0  0  0  0  0  0  0  0  0
  -22.4070   -4.2890   21.3800 F   0  0  0  0  0  0  0  0  0  0  0  0
  -21.4010   -3.8070   26.0240 F   0  0  0  0  0  0  0  0  0  0  0  0
  -22.7370  -13.5870   21.1190 C   0  0  0  0  0  0  0  0  0  0  0  0
  -22.0250  -12.8850   21.9900 N   0  0  0  0  0  0  0  0  0  0  0  0
  -22.2850  -14.6130   20.6050 O   0  0  0  0  0  0  0  0  0  0  0  0
  -22.4030  -12.0560   22.4280 H   0  0  0  0  0  0  0  0  0  0  0  0
  -21.0860  -13.1800   22.2230 H   0  0  0  0  0  0  0  0  0  0  0  0
  -25.3340  -15.2830   20.2690 N   0  0  0  0  0  0  0  0  0  0  0  0
  -24.5720  -15.9300   20.4330 H   0  0  0  0  0  0  0  0  0  0  0  0
  -26.1730  -15.7370   19.9350 H   0  0  0  0  0  0  0  0  0  0  0  0
  3  7  1  0
  5  1  1  0
  5  2  1  0
  6  3  1  0
  6  9  1  0
  6  8  1  0
  7  4  1  0
  7 55  1  6
  7  1  1  0
  8 12  1  6
  8  4  1  0
  8  2  1  0
  9  5  1  0
 10  9  1  0
 11  9  1  0
 13 12  1  0
 13 14  1  0
 15 26  2  0
 16 14  1  0
 16 21  1  0
 17 25  1  0
 17 27  1  0
 18 24  1  0
 18 20  1  0
 19 25  1  0
 20 21  2  0
 20 19  1  0
 22 16  2  0
 23 22  1  0
 23 18  2  0
 24 17  1  0
 25 15  1  0
 27 29  2  0
 28 27  1  0
 30 28  1  0
 31 40  2  0
 31 36  1  0
 32 28  1  0
 32 36  1  0
 33 32  1  0
 34 35  1  0
 34 33  1  0
 35 31  1  0
 36 37  2  0
 37 38  1  0
 39 38  2  0
 40 39  1  0
 41 15  1  0
 41 46  1  0
 41 42  1  0
 42 45  1  1
 42 43  1  0
 44 42  1  0
 46 49  1  0
 47 51  1  0
 47 46  1  0
 48 47  2  0
 51 50  1  0
 53 51  1  0
 53 54  1  0
 53 52  1  0
 56 64  1  0
 57 62  1  0
 58 59  1  0
 58 57  1  0
 60 59  1  0
 60 69  1  0
 60 61  1  0
 62 56  1  0
 62 61  1  0
 63 56  2  0
 64 55  1  0
 65 64  1  0
 66 67  2  0
 67 86  1  0
 68 67  1  0
 68 71  1  0
 69 66  1  0
 69 70  1  0
 70 68  2  0
 71 72  1  0
 72 73  2  0
 74 77  1  0
 74 73  1  0
 75 74  2  0
 76 75  1  0
 76 71  2  0
 77 78  1  0
 78 79  1  0
 79 80  2  0
 81 80  1  0
 81 85  1  0
 82 81  2  0
 83 78  2  0
 83 82  1  0
 84 83  1  0
 86 87  1  0
 87 90  1  0
 87 89  1  0
 88 86  2  0
 91 92  1  0
 91 66  1  0
 93 91  1  0
M  ISO  4  13 101  14 101  56 100  64 100
M  END
>  <TORSDO>  (98) 
F 19

>  <SCORE>  (98) 
-16.267

>  <name>  (98) 
97

>  <ligand_id>  (98) 
97

>  <original_smiles>  (98) 
[H]c1c([H])c([H])c2c(c1[H])C([H])([H])C([H])([H])C([H])([H])C2([H])N([H])C(=O)C1([H])N(C(=O)C([H])(N([H])C(=O)C([H])(N([H])C([H])([H])[H])C([H])([H])[H])C(C([H])([H])[H])(C([H])([H])[H])C([H])([H])[H])C([H])([H])c2c([H])c(OC([H])([H])C([H])([H])C34C([H])([H])C5(C([H])([H])N([H])C(=O)N6C([H])([H])C([H])([H])C([H])([H])C([H])(n7nc(-c8c([H])c([H])c(Oc9c([H])c([H])c(F)c([H])c9F)c([H])c8[H])c(C(=O)N([H])[H])c7N([H])[H])C6([H])[H])C([H])([H])C([H])(C3([H])[H])[N+]([H])([H])C4([H])C5([H])[H])c([H])c([H])c2C1([H])[H]

>  <smiles>  (98) 
[H]c1c([H])c([H])c2c(c1[H])C([H])([H])C([H])([H])C([H])([H])C2([H])N([H])C(=O)C1([H])N(C(=O)C([H])(N([H])C(=O)C([H])(N([H])C([H])([H])[H])C([H])([H])[H])C(C([H])([H])[H])(C([H])([H])[H])C([H])([H])[H])C([H])([H])c2c([H])c(OC([H])([H])C([H])([H])C34C([H])([H])C5(C([H])([H])N([H])C(=O)N6C([H])([H])C([H])([H])C([H])([H])C([H])(n7nc(-c8c([H])c([H])c(Oc9c([H])c([H])c(F)c([H])c9F)c([H])c8[H])c(C(=O)N([H])[H])c7N([H])[H])C6([H])[H])C([H])([H])C([H])(C3([H])[H])[N+]([H])([H])C4([H])C5([H])[H])c([H])c([H])c2C1([H])[H]

$$$$
