0:0:0
     RDKit          3D

 91100  0  0  1  0  0  0  0  0999 V2000
  -29.4380  -21.3370   19.9750 C   0  0  0  0  0  0  0  0  0  0  0  0
  -30.6220  -21.6530   19.8220 O   0  0  0  0  0  0  0  0  0  0  0  0
  -30.5390  -15.2780   19.6550 C   0  0  0  0  0  0  0  0  0  0  0  0
  -30.3750  -12.8840   18.6690 C   0  0  0  0  0  2  0  0  0  0  0  0
  -29.3280  -12.7520   17.5340 C   0  0  0  0  0  2  0  0  0  0  0  0
  -27.9300  -12.4790   18.1140 C   0  0  0  0  0  2  0  0  0  0  0  0
  -27.6160  -13.3940   19.3230 C   0  0  0  0  0  3  0  0  0  0  0  0
  -28.7770  -13.4590   20.3370 C   0  0  0  0  0  2  0  0  0  0  0  0
  -29.9410  -13.9870   19.6070 N   0  0  0  0  0  0  0  0  0  0  0  0
  -31.6950  -15.2800   19.2050 O   0  0  0  0  0  0  0  0  0  0  0  0
  -30.8820  -18.4090   21.0170 C   0  0  0  0  0  2  0  0  0  0  0  0
  -29.2450  -16.7000   21.3170 C   0  0  0  0  0  2  0  0  0  0  0  0
  -29.1080  -19.5520   19.9250 C   0  0  0  0  0  3  0  0  0  0  0  0
  -30.1910  -18.1660   19.7110 C   0  0  0  0  0  3  0  0  0  0  0  0
  -29.5690  -18.1610   21.7570 C   0  0  0  0  0  3  0  0  0  0  0  0
  -29.8460  -16.5620   19.9650 N   0  0  0  0  0  0  0  0  0  0  0  0
  -28.5200  -19.0720   21.1870 N   0  0  0  0  0  4  0  0  0  0  0  0
  -28.3390  -19.8530   21.7950 H   0  0  0  0  0  0  0  0  0  0  0  0
  -27.6590  -18.5810   21.0230 H   0  0  0  0  0  0  0  0  0  0  0  0
  -25.3410  -13.9380   20.3360 C   0  0  0  0  0  0  0  0  0  0  0  0
  -24.3180  -13.1530   20.7890 C   0  0  0  0  0  0  0  0  0  0  0  0
  -24.7680  -11.8040   20.6620 C   0  0  0  0  0  0  0  0  0  0  0  0
  -26.3460  -13.0670   19.9540 N   0  0  0  0  0  0  0  0  0  0  0  0
  -26.0200  -11.7740   20.2140 N   0  0  0  0  0  0  0  0  0  0  0  0
  -24.0560  -10.5390   20.8800 C   0  0  0  0  0  0  0  0  0  0  0  0
  -24.5180   -9.5790   21.8090 C   0  0  0  0  0  3  0  0  0  0  0  0
  -23.8000   -8.3810   22.0160 C   0  0  0  0  0  3  0  0  0  0  0  0
  -22.6080   -8.1330   21.2940 C   0  0  0  0  0  0  0  0  0  0  0  0
  -22.1660   -9.0810   20.3540 C   0  0  0  0  0  3  0  0  0  0  0  0
  -22.8840  -10.2700   20.1450 C   0  0  0  0  0  3  0  0  0  0  0  0
  -21.8620   -6.9850   21.4100 O   0  0  0  0  0  0  0  0  0  0  0  0
  -21.7730   -6.3020   22.5970 C   0  0  0  0  0  0  0  0  0  0  0  0
  -21.2820   -6.9110   23.7720 C   0  0  0  0  0  3  0  0  0  0  0  0
  -21.1400   -6.1530   24.9500 C   0  0  0  0  0  3  0  0  0  0  0  0
  -21.4820   -4.7870   24.9560 C   0  0  0  0  0  0  0  0  0  0  0  0
  -21.9680   -4.1770   23.7850 C   0  0  0  0  0  3  0  0  0  0  0  0
  -22.1080   -4.9320   22.6080 C   0  0  0  0  0  0  0  0  0  0  0  0
  -22.5560   -4.3360   21.4770 F   0  0  0  0  0  0  0  0  0  0  0  0
  -21.3380   -4.0580   26.0860 F   0  0  0  0  0  0  0  0  0  0  0  0
  -22.9590  -13.6270   21.2160 C   0  0  0  0  0  0  0  0  0  0  0  0
  -22.3320  -12.9250   22.1530 N   0  0  0  0  0  0  0  0  0  0  0  0
  -22.4690  -14.6570   20.7510 O   0  0  0  0  0  0  0  0  0  0  0  0
  -22.7460  -12.0930   22.5460 H   0  0  0  0  0  0  0  0  0  0  0  0
  -21.4250  -13.2240   22.4840 H   0  0  0  0  0  0  0  0  0  0  0  0
  -25.4910  -15.3140   20.1830 N   0  0  0  0  0  0  0  0  0  0  0  0
  -24.7110  -15.9440   20.3340 H   0  0  0  0  0  0  0  0  0  0  0  0
  -26.2470  -15.7380   19.6630 H   0  0  0  0  0  0  0  0  0  0  0  0
  -28.0270  -22.8280   21.6930 C   0  0  0  0  0  1  0  0  0  0  0  0
  -28.4260  -22.7430   20.2090 C   0  0  0  0  0  3  0  0  0  0  0  0
  -28.5140  -24.4250   19.5850 C   0  0  0  0  0  2  0  0  0  0  0  0
  -28.3730  -25.9700   20.1170 O   0  0  0  0  0  0  0  0  0  0  0  0
  -24.5420  -31.7160   23.0220 C   0  0  0  0  0  0  0  0  0  0  0  0
  -27.3120  -26.9970   19.9800 C   0  0  0  0  0  0  0  0  0  0  0  0
  -23.4170  -30.2950   21.3530 C   0  0  0  0  0  3  0  0  0  0  0  0
  -24.9390  -28.7680   19.9210 C   0  0  0  0  0  0  0  0  0  0  0  0
  -25.9710  -30.6110   21.2360 C   0  0  0  0  0  2  0  0  0  0  0  0
  -26.0990  -29.2170   20.5640 C   0  0  0  0  0  0  0  0  0  0  0  0
  -27.2740  -28.3480   20.5740 C   0  0  0  0  0  3  0  0  0  0  0  0
  -26.1220  -26.6930   19.2820 C   0  0  0  0  0  3  0  0  0  0  0  0
  -24.9740  -27.5270   19.2620 C   0  0  0  0  0  3  0  0  0  0  0  0
  -23.6830  -29.6370   19.9700 C   0  0  0  0  0  2  0  0  0  0  0  0
  -24.6630  -30.9030   21.9230 N   0  0  0  0  0  0  0  0  0  0  0  0
  -23.4380  -31.9570   23.5360 O   0  0  0  0  0  0  0  0  0  0  0  0
  -22.7550  -29.2610   22.3010 C   0  0  0  0  0  0  0  0  0  0  0  0
  -21.4310  -29.0610   22.1720 N   0  0  0  0  0  0  0  0  0  0  0  0
  -23.4380  -28.6420   23.1190 O   0  0  0  0  0  0  0  0  0  0  0  0
  -20.9310  -29.6150   21.4900 H   0  0  0  0  0  0  0  0  0  0  0  0
  -18.0770  -27.7720   22.6790 C   0  0  0  0  0  0  0  0  0  0  0  0
  -20.6330  -28.0870   22.9260 C   0  0  0  0  0  3  0  0  0  0  0  0
  -20.7600  -26.6730   22.3130 C   0  0  0  0  0  2  0  0  0  0  0  0
  -19.6550  -26.3520   21.3010 C   0  0  0  0  0  2  0  0  0  0  0  0
  -18.2770  -26.4470   21.9630 C   0  0  0  0  0  2  0  0  0  0  0  0
  -19.1830  -28.5490   23.1170 C   0  0  0  0  0  0  0  0  0  0  0  0
  -18.9400  -29.7860   23.7530 C   0  0  0  0  0  3  0  0  0  0  0  0
  -17.6260  -30.2500   23.9500 C   0  0  0  0  0  3  0  0  0  0  0  0
  -16.5350  -29.4710   23.5260 C   0  0  0  0  0  3  0  0  0  0  0  0
  -16.7620  -28.2330   22.8980 C   0  0  0  0  0  3  0  0  0  0  0  0
  -25.7830  -32.3970   23.6740 C   0  0  0  0  0  3  0  0  0  0  0  0
  -25.3990  -33.7670   24.0530 N   0  0  0  0  0  0  0  0  0  0  0  0
  -25.6750  -34.8690   23.3400 C   0  0  0  0  0  0  0  0  0  0  0  0
  -26.3430  -34.8390   22.3020 O   0  0  0  0  0  0  0  0  0  0  0  0
  -24.8020  -33.8600   24.8620 H   0  0  0  0  0  0  0  0  0  0  0  0
  -23.8590  -36.5930   23.0730 C   0  0  0  0  0  1  0  0  0  0  0  0
  -25.1270  -36.2150   23.8550 C   0  0  0  0  0  3  0  0  0  0  0  0
  -27.2220  -37.1780   24.7060 C   0  0  0  0  0  1  0  0  0  0  0  0
  -26.1070  -37.3220   23.7730 N   0  0  0  0  0  0  0  0  0  0  0  0
  -25.6570  -38.2160   23.9520 H   0  0  0  0  0  0  0  0  0  0  0  0
  -26.3250  -31.6170   24.9370 C   0  0  1  0  0  0  0  0  0  0  0  0
  -25.2360  -31.3030   25.9890 C   0  0  0  0  0  1  0  0  0  0  0  0
  -26.9770  -30.2790   24.5230 C   0  0  0  0  0  1  0  0  0  0  0  0
  -27.4330  -32.4480   25.6280 C   0  0  0  0  0  1  0  0  0  0  0  0
  1 49  1  0
  2  1  2  0
  3 16  1  0
  4  9  1  0
  5  6  1  0
  5  4  1  0
  7  6  1  0
  7 23  1  0
  7  8  1  0
  9  3  1  0
  9  8  1  0
 10  3  2  0
 12 15  1  0
 13  1  1  0
 13 17  1  0
 14 13  1  0
 14 16  1  0
 14 11  1  0
 15 11  1  0
 16 12  1  0
 17 15  1  0
 17 18  1  0
 19 17  1  0
 20 21  2  0
 21 40  1  0
 22 21  1  0
 22 25  1  0
 23 24  1  0
 23 20  1  0
 24 22  2  0
 25 26  1  0
 26 27  2  0
 28 31  1  0
 28 27  1  0
 29 28  2  0
 30 29  1  0
 30 25  2  0
 31 32  1  0
 32 37  2  0
 32 33  1  0
 33 34  2  0
 34 35  1  0
 35 39  1  0
 36 35  2  0
 37 36  1  0
 38 37  1  0
 40 41  1  0
 41 44  1  0
 41 43  1  0
 42 40  2  0
 45 46  1  0
 45 20  1  0
 47 45  1  0
 49 48  1  0
 50 51  1  0
 50 49  1  0
 52 63  2  0
 53 51  1  0
 53 58  1  0
 54 62  1  0
 54 64  1  0
 55 61  1  0
 55 57  1  0
 56 62  1  0
 57 58  2  0
 57 56  1  0
 59 53  2  0
 60 59  1  0
 60 55  2  0
 61 54  1  0
 62 52  1  0
 64 66  2  0
 65 64  1  0
 67 65  1  0
 68 77  2  0
 68 73  1  0
 69 65  1  0
 69 73  1  0
 70 69  1  0
 71 72  1  0
 71 70  1  0
 72 68  1  0
 73 74  2  0
 74 75  1  0
 76 75  2  0
 77 76  1  0
 78 52  1  0
 78 79  1  0
 78 88  1  0
 79 82  1  0
 80 84  1  0
 80 79  1  0
 81 80  2  0
 84 83  1  0
 86 84  1  0
 86 87  1  0
 86 85  1  0
 88 91  1  1
 88 89  1  0
 90 88  1  0
M  ISO  4   3 100  16 100  50 101  51 101
M  END
>  <TORSDO>  (1) 
F 18

>  <SCORE>  (1) 
-14.649

>  <name>  (1) 
0

>  <ligand_id>  (1) 
0

>  <original_smiles>  (1) 
[H]c1c([H])c([H])c2c(c1[H])C([H])([H])C([H])([H])C([H])([H])C2([H])N([H])C(=O)C1([H])N(C(=O)C([H])(N([H])C(=O)C([H])(N([H])C([H])([H])[H])C([H])([H])[H])C(C([H])([H])[H])(C([H])([H])[H])C([H])([H])[H])C([H])([H])c2c([H])c(OC([H])([H])C([H])(C(=O)C3([H])C4([H])N(C(=O)N5C([H])([H])C([H])([H])C([H])([H])C([H])(n6nc(-c7c([H])c([H])c(Oc8c([H])c([H])c(F)c([H])c8F)c([H])c7[H])c(C(=O)N([H])[H])c6N([H])[H])C5([H])[H])C([H])([H])C([H])(C4([H])[H])[N+]3([H])[H])C([H])([H])[H])c([H])c([H])c2C1([H])[H]

>  <smiles>  (1) 
[H]c1c([H])c([H])c2c(c1[H])C([H])([H])C([H])([H])C([H])([H])C2([H])N([H])C(=O)C1([H])N(C(=O)C([H])(N([H])C(=O)C([H])(N([H])C([H])([H])[H])C([H])([H])[H])C(C([H])([H])[H])(C([H])([H])[H])C([H])([H])[H])C([H])([H])c2c([H])c(OC([H])([H])C([H])(C(=O)C3([H])C4([H])N(C(=O)N5C([H])([H])C([H])([H])C([H])([H])C([H])(n6nc(-c7c([H])c([H])c(Oc8c([H])c([H])c(F)c([H])c8F)c([H])c7[H])c(C(=O)N([H])[H])c6N([H])[H])C5([H])[H])C([H])([H])C([H])(C4([H])[H])[N+]3([H])[H])C([H])([H])[H])c([H])c([H])c2C1([H])[H]

$$$$
1:0:0
     RDKit          3D

 93 99  0  0  1  0  0  0  0  0999 V2000
  -28.4360  -19.7300   18.4400 C   0  0  0  0  0  0  0  0  0  0  0  0
  -27.8220  -20.9780   18.9020 N   0  0  0  0  0  0  0  0  0  0  0  0
  -29.4930  -19.8780   17.8300 O   0  0  0  0  0  0  0  0  0  0  0  0
  -26.9660  -20.8240   19.4230 H   0  0  0  0  0  0  0  0  0  0  0  0
  -27.9500  -18.0760   18.5740 C   0  0  0  0  0  3  0  0  0  0  0  0
  -28.9120  -16.6130   18.3280 C   0  0  0  0  0  3  0  0  0  0  0  0
  -30.2050  -12.9490   21.3390 C   0  0  2  0  0  0  0  0  0  0  0  0
  -31.5800  -13.1360   20.7210 C   0  0  0  0  0  1  0  0  0  0  0  0
  -30.6080  -14.7920   20.1040 C   0  0  0  0  0 15  0  0  0  0  0  0
  -28.7320  -14.8470   20.7930 C   0  0  0  0  0  1  0  0  0  0  0  0
  -27.9140  -13.4500   21.6830 C   0  0  0  0  0  2  0  0  0  0  0  0
  -29.0350  -12.1330   22.1690 C   0  0  0  0  0  1  0  0  0  0  0  0
  -30.6420  -12.0650   21.6650 N   0  0  0  0  0  1  0  0  0  0  0  0
  -30.4260  -13.9360   22.3630 O   0  0  0  0  0  1  0  0  0  0  0  0
  -30.2030  -12.6090   18.4450 C   0  0  0  0  0  2  0  0  0  0  0  0
  -28.5250  -14.8610   18.0450 C   0  0  0  0  0  3  0  0  0  0  0  0
  -29.4400  -13.6270   17.4940 C   0  0  1  0  0  0  0  0  0  0  0  0
  -28.3220  -13.3610   18.8670 C   0  0  1  0  0  0  0  0  0  0  0  0
  -29.4930  -12.6600   19.8020 N   0  0  0  0  0  2  0  0  0  0  0  0
  -28.2200  -12.8830   17.5010 N   0  0  0  0  0  4  0  0  0  0  0  0
  -27.4810  -13.3050   16.9610 H   0  0  0  0  0  0  0  0  0  0  0  0
  -28.3020  -11.8870   17.3980 H   0  0  0  0  0  0  0  0  0  0  0  0
  -25.4280  -13.5380   21.0210 C   0  0  0  0  0  0  0  0  0  0  0  0
  -24.3860  -12.6570   21.1350 C   0  0  0  0  0  0  0  0  0  0  0  0
  -24.9580  -11.3730   21.3840 C   0  0  0  0  0  0  0  0  0  0  0  0
  -26.5790  -12.8520   21.3270 N   0  0  0  0  0  0  0  0  0  0  0  0
  -26.2850  -11.5130   21.5010 N   0  0  0  0  0  0  0  0  0  0  0  0
  -24.2930  -10.0510   21.5210 C   0  0  0  0  0  0  0  0  0  0  0  0
  -24.5830   -9.1660   22.5840 C   0  0  0  0  0  3  0  0  0  0  0  0
  -23.8870   -7.9390   22.7230 C   0  0  0  0  0  3  0  0  0  0  0  0
  -22.8820   -7.5800   21.7920 C   0  0  0  0  0  0  0  0  0  0  0  0
  -22.6040   -8.4560   20.7260 C   0  0  0  0  0  3  0  0  0  0  0  0
  -23.2990   -9.6720   20.5920 C   0  0  0  0  0  3  0  0  0  0  0  0
  -22.1840   -6.3930   21.8230 O   0  0  0  0  0  0  0  0  0  0  0  0
  -21.9980   -5.6850   22.9870 C   0  0  0  0  0  0  0  0  0  0  0  0
  -21.3540   -6.2550   24.1050 C   0  0  0  0  0  3  0  0  0  0  0  0
  -21.1170   -5.4750   25.2550 C   0  0  0  0  0  3  0  0  0  0  0  0
  -21.5190   -4.1260   25.2870 C   0  0  0  0  0  0  0  0  0  0  0  0
  -22.1520   -3.5530   24.1690 C   0  0  0  0  0  3  0  0  0  0  0  0
  -22.3880   -4.3310   23.0210 C   0  0  0  0  0  0  0  0  0  0  0  0
  -22.9800   -3.7660   21.9410 F   0  0  0  0  0  0  0  0  0  0  0  0
  -21.2880   -3.3740   26.3890 F   0  0  0  0  0  0  0  0  0  0  0  0
  -22.9350  -13.0050   21.0030 C   0  0  0  0  0  0  0  0  0  0  0  0
  -22.0760  -12.3570   21.7840 N   0  0  0  0  0  0  0  0  0  0  0  0
  -22.5630  -13.9130   20.2610 O   0  0  0  0  0  0  0  0  0  0  0  0
  -22.3880  -11.6420   22.4220 H   0  0  0  0  0  0  0  0  0  0  0  0
  -21.0930  -12.5830   21.7440 H   0  0  0  0  0  0  0  0  0  0  0  0
  -25.4940  -14.8910   20.7440 N   0  0  0  0  0  0  0  0  0  0  0  0
  -24.6590  -15.4270   20.5290 H   0  0  0  0  0  0  0  0  0  0  0  0
  -26.3310  -15.4570   20.7760 H   0  0  0  0  0  0  0  0  0  0  0  0
  -28.1790  -22.5800   18.7300 C   0  0  0  0  0  3  0  0  0  0  0  0
  -27.5680  -24.0180   19.5610 C   0  0  0  0  0  3  0  0  0  0  0  0
  -28.0210  -25.5920   19.6630 O   0  0  0  0  0  0  0  0  0  0  0  0
  -24.6850  -31.5640   23.0430 C   0  0  0  0  0  0  0  0  0  0  0  0
  -27.0940  -26.7270   19.8040 C   0  0  0  0  0  0  0  0  0  0  0  0
  -23.4770  -30.2250   21.3840 C   0  0  0  0  0  3  0  0  0  0  0  0
  -24.8790  -28.6430   19.9290 C   0  0  0  0  0  0  0  0  0  0  0  0
  -26.0530  -30.3760   21.2510 C   0  0  0  0  0  2  0  0  0  0  0  0
  -26.0840  -28.9870   20.5530 C   0  0  0  0  0  0  0  0  0  0  0  0
  -27.2010  -28.0390   20.4840 C   0  0  0  0  0  3  0  0  0  0  0  0
  -25.8650  -26.5460   19.1560 C   0  0  0  0  0  3  0  0  0  0  0  0
  -24.7880  -27.4400   19.2280 C   0  0  0  0  0  3  0  0  0  0  0  0
  -23.6950  -29.5920   19.9920 C   0  0  0  0  0  2  0  0  0  0  0  0
  -24.7630  -30.7460   21.9460 N   0  0  0  0  0  0  0  0  0  0  0  0
  -23.5960  -31.8620   23.5590 O   0  0  0  0  0  0  0  0  0  0  0  0
  -22.7700  -29.2060   22.3170 C   0  0  0  0  0  0  0  0  0  0  0  0
  -21.4340  -29.0830   22.2010 N   0  0  0  0  0  0  0  0  0  0  0  0
  -23.4270  -28.5330   23.1160 O   0  0  0  0  0  0  0  0  0  0  0  0
  -20.9600  -29.6820   21.5410 H   0  0  0  0  0  0  0  0  0  0  0  0
  -18.0230  -27.9580   22.7060 C   0  0  0  0  0  0  0  0  0  0  0  0
  -20.5910  -28.1470   22.9530 C   0  0  0  0  0  3  0  0  0  0  0  0
  -20.6480  -26.7280   22.3420 C   0  0  0  0  0  2  0  0  0  0  0  0
  -19.5280  -26.4610   21.3300 C   0  0  0  0  0  2  0  0  0  0  0  0
  -18.1570  -26.6250   21.9910 C   0  0  0  0  0  2  0  0  0  0  0  0
  -19.1660  -28.6800   23.1440 C   0  0  0  0  0  0  0  0  0  0  0  0
  -18.9830  -29.9290   23.7780 C   0  0  0  0  0  3  0  0  0  0  0  0
  -17.6930  -30.4560   23.9730 C   0  0  0  0  0  3  0  0  0  0  0  0
  -16.5660  -29.7330   23.5460 C   0  0  0  0  0  3  0  0  0  0  0  0
  -16.7320  -28.4850   22.9200 C   0  0  0  0  0  3  0  0  0  0  0  0
  -25.9590  -32.1810   23.6920 C   0  0  0  0  0  3  0  0  0  0  0  0
  -26.4510  -31.3820   24.9620 C   0  0  1  0  0  0  0  0  0  0  0  0
  -25.3470  -31.1570   26.0230 C   0  0  0  0  0  1  0  0  0  0  0  0
  -27.0050  -29.9980   24.5610 C   0  0  0  0  0  1  0  0  0  0  0  0
  -27.6150  -32.1420   25.6420 C   0  0  0  0  0  1  0  0  0  0  0  0
  -25.6480  -33.5740   24.0620 N   0  0  0  0  0  0  0  0  0  0  0  0
  -26.0090  -34.6550   23.3560 C   0  0  0  0  0  0  0  0  0  0  0  0
  -26.7060  -34.5820   22.3400 O   0  0  0  0  0  0  0  0  0  0  0  0
  -25.0340  -33.7030   24.8520 H   0  0  0  0  0  0  0  0  0  0  0  0
  -24.3190  -36.4940   23.0280 C   0  0  0  0  0  1  0  0  0  0  0  0
  -25.5290  -36.0330   23.8560 C   0  0  0  0  0  3  0  0  0  0  0  0
  -27.6460  -36.8600   24.7890 C   0  0  0  0  0  1  0  0  0  0  0  0
  -26.5790  -37.0750   23.8150 N   0  0  0  0  0  0  0  0  0  0  0  0
  -26.1790  -37.9950   23.9770 H   0  0  0  0  0  0  0  0  0  0  0  0
  1  5  1  0
  1  2  1  0
  2  4  1  0
  3  1  2  0
  6  5  2  0
  7 13  1  0
  7 12  1  6
  7 14  1  0
  8  7  1  0
 10 11  1  0
 15 19  1  0
 16  6  1  0
 16 18  1  0
 17 20  1  0
 17 16  1  0
 17 15  1  6
 17 18  1  0
 18 19  1  1
 20 18  1  0
 21 20  1  0
 22 20  1  0
 23 24  2  0
 23 26  1  0
 24 25  1  0
 25 27  2  0
 25 28  1  0
 26 27  1  0
 26 11  1  0
 28 29  1  0
 29 30  2  0
 31 34  1  0
 31 30  1  0
 32 31  2  0
 33 32  1  0
 33 28  2  0
 34 35  1  0
 35 40  2  0
 35 36  1  0
 36 37  2  0
 37 38  1  0
 38 42  1  0
 39 38  2  0
 40 39  1  0
 41 40  1  0
 43 24  1  0
 43 44  1  0
 44 46  1  0
 45 43  2  0
 47 44  1  0
 48 50  1  0
 48 23  1  0
 49 48  1  0
 51  2  1  0
 51 52  2  0
 52 53  1  0
 53 55  1  0
 54 65  2  0
 55 60  1  0
 56 64  1  0
 56 66  1  0
 57 63  1  0
 57 59  1  0
 58 64  1  0
 59 58  1  0
 60 59  2  0
 61 62  1  0
 61 55  2  0
 62 57  2  0
 63 56  1  0
 64 54  1  0
 66 68  2  0
 67 66  1  0
 69 67  1  0
 70 79  2  0
 70 75  1  0
 71 67  1  0
 71 75  1  0
 72 71  1  0
 73 74  1  0
 73 72  1  0
 74 70  1  0
 75 76  2  0
 76 77  1  0
 78 77  2  0
 79 78  1  0
 80 54  1  0
 80 85  1  0
 80 81  1  0
 81 84  1  1
 81 82  1  0
 83 81  1  0
 85 88  1  0
 86 90  1  0
 86 85  1  0
 87 86  2  0
 90 89  1  0
 92 90  1  0
 92 93  1  0
 92 91  1  0
M  ISO  4   7 100  19 100  52 101  53 101
M  END
>  <TORSDO>  (2) 
F 20

>  <SCORE>  (2) 
-9.506

>  <name>  (2) 
1

>  <ligand_id>  (2) 
1

>  <original_smiles>  (2) 
[H]c1c([H])c([H])c2c(c1[H])C([H])([H])C([H])([H])C([H])([H])C2([H])N([H])C(=O)C1([H])N(C(=O)C([H])(N([H])C(=O)C([H])(N([H])C([H])([H])[H])C([H])([H])[H])C(C([H])([H])[H])(C([H])([H])[H])C([H])([H])[H])C([H])([H])c2c([H])c(OC([H])([H])C([H])([H])N([H])C(=O)C([H])([H])C([H])([H])C3([H])C4([H])N(C(=O)N5C([H])([H])C([H])([H])C([H])([H])C([H])(n6nc(-c7c([H])c([H])c(Oc8c([H])c([H])c(F)c([H])c8F)c([H])c7[H])c(C(=O)N([H])[H])c6N([H])[H])C5([H])[H])C([H])([H])C3([H])[N+]4([H])[H])c([H])c([H])c2C1([H])[H]

>  <smiles>  (2) 
[H]c1c([H])c([H])c2c(c1[H])C([H])([H])C([H])([H])C([H])([H])C2([H])N([H])C(=O)C1([H])N(C(=O)C([H])(N([H])C(=O)C([H])(N([H])C([H])([H])[H])C([H])([H])[H])C(C([H])([H])[H])(C([H])([H])[H])C([H])([H])[H])C([H])([H])c2c([H])c(OC([H])([H])C([H])([H])N([H])C(=O)C([H])([H])C([H])([H])C3([H])C4([H])N(C(=O)N5C([H])([H])C([H])([H])C([H])([H])C([H])(n6nc(-c7c([H])c([H])c(Oc8c([H])c([H])c(F)c([H])c8F)c([H])c7[H])c(C(=O)N([H])[H])c6N([H])[H])C5([H])[H])C([H])([H])C3([H])[N+]4([H])[H])c([H])c([H])c2C1([H])[H]

$$$$
2:0:0
     RDKit          3D

 95103  0  0  1  0  0  0  0  0999 V2000
  -29.5390  -19.7470   19.9150 C   0  0  0  0  0  3  0  0  0  0  0  0
  -29.4300  -20.7140   17.4770 C   0  0  0  0  0  2  0  0  0  0  0  0
  -29.8210  -20.1440   16.1160 C   0  0  0  0  0  2  0  0  0  0  0  0
  -30.1690  -18.4140   17.7650 C   0  0  0  0  0  2  0  0  0  0  0  0
  -29.2550  -19.4960   18.4040 C   0  0  0  0  0  3  0  0  0  0  0  0
  -30.7810  -19.0200   16.4900 C   0  0  0  0  0  3  0  0  0  0  0  0
  -31.0020  -18.0410   15.4100 N   0  0  0  0  0  4  0  0  0  0  0  0
  -30.1380  -17.6380   15.0960 H   0  0  0  0  0  0  0  0  0  0  0  0
  -31.6050  -17.3010   15.7230 H   0  0  0  0  0  0  0  0  0  0  0  0
  -31.4480  -18.4830   14.6260 H   0  0  0  0  0  0  0  0  0  0  0  0
  -28.8060  -21.1580   20.4620 N   0  0  0  0  0  4  0  0  0  0  0  0
  -27.8240  -21.0040   20.3000 H   0  0  0  0  0  0  0  0  0  0  0  0
  -28.9060  -21.1110   21.4630 H   0  0  0  0  0  0  0  0  0  0  0  0
  -29.0600  -22.7810   20.1080 C   0  0  0  0  0  3  0  0  0  0  0  0
  -28.0340  -24.2380   20.4000 C   0  0  0  0  0  3  0  0  0  0  0  0
  -28.2510  -25.8780   20.2980 O   0  0  0  0  0  0  0  0  0  0  0  0
  -24.6310  -31.8560   23.2140 C   0  0  0  0  0  0  0  0  0  0  0  0
  -27.2160  -26.9540   20.2620 C   0  0  0  0  0  0  0  0  0  0  0  0
  -23.4470  -30.4410   21.5840 C   0  0  0  0  0  3  0  0  0  0  0  0
  -24.9060  -28.8220   20.1900 C   0  0  0  0  0  0  0  0  0  0  0  0
  -26.0150  -30.6560   21.4480 C   0  0  0  0  0  2  0  0  0  0  0  0
  -26.0920  -29.2400   20.8090 C   0  0  0  0  0  0  0  0  0  0  0  0
  -27.2410  -28.3280   20.8140 C   0  0  0  0  0  3  0  0  0  0  0  0
  -25.9960  -26.6860   19.5990 C   0  0  0  0  0  3  0  0  0  0  0  0
  -24.8830  -27.5650   19.5650 C   0  0  0  0  0  3  0  0  0  0  0  0
  -23.6850  -29.7410   20.2190 C   0  0  0  0  0  2  0  0  0  0  0  0
  -24.7190  -31.0120   22.1360 N   0  0  0  0  0  0  0  0  0  0  0  0
  -23.5390  -32.1510   23.7280 O   0  0  0  0  0  0  0  0  0  0  0  0
  -22.7490  -29.4560   22.5560 C   0  0  0  0  0  0  0  0  0  0  0  0
  -21.4180  -29.2950   22.4300 N   0  0  0  0  0  0  0  0  0  0  0  0
  -23.4110  -28.8370   23.3930 O   0  0  0  0  0  0  0  0  0  0  0  0
  -20.9380  -29.8460   21.7330 H   0  0  0  0  0  0  0  0  0  0  0  0
  -18.0300  -28.1040   22.9450 C   0  0  0  0  0  0  0  0  0  0  0  0
  -20.5910  -28.3660   23.2070 C   0  0  0  0  0  3  0  0  0  0  0  0
  -20.6880  -26.9300   22.6430 C   0  0  0  0  0  2  0  0  0  0  0  0
  -19.5850  -26.6030   21.6300 C   0  0  0  0  0  2  0  0  0  0  0  0
  -18.2040  -26.7520   22.2740 C   0  0  0  0  0  2  0  0  0  0  0  0
  -19.1500  -28.8690   23.3690 C   0  0  0  0  0  0  0  0  0  0  0  0
  -18.9310  -30.1320   23.9600 C   0  0  0  0  0  3  0  0  0  0  0  0
  -17.6260  -30.6300   24.1300 C   0  0  0  0  0  3  0  0  0  0  0  0
  -16.5210  -29.8640   23.7200 C   0  0  0  0  0  3  0  0  0  0  0  0
  -16.7240  -28.6020   23.1330 C   0  0  0  0  0  3  0  0  0  0  0  0
  -25.9000  -32.5060   23.8480 C   0  0  0  0  0  3  0  0  0  0  0  0
  -25.5780  -33.9070   24.1710 N   0  0  0  0  0  0  0  0  0  0  0  0
  -25.9140  -34.9640   23.4210 C   0  0  0  0  0  0  0  0  0  0  0  0
  -26.5910  -34.8630   22.3940 O   0  0  0  0  0  0  0  0  0  0  0  0
  -24.9760  -34.0580   24.9670 H   0  0  0  0  0  0  0  0  0  0  0  0
  -24.1900  -36.7660   23.0660 C   0  0  0  0  0  1  0  0  0  0  0  0
  -25.4270  -36.3540   23.8800 C   0  0  0  0  0  3  0  0  0  0  0  0
  -27.5580  -37.2400   24.7230 C   0  0  0  0  0  1  0  0  0  0  0  0
  -26.4610  -37.4080   23.7740 N   0  0  0  0  0  0  0  0  0  0  0  0
  -26.0530  -38.3270   23.9190 H   0  0  0  0  0  0  0  0  0  0  0  0
  -26.4000  -31.7520   25.1430 C   0  0  1  0  0  0  0  0  0  0  0  0
  -25.2940  -31.5330   26.2030 C   0  0  0  0  0  1  0  0  0  0  0  0
  -26.9850  -30.3660   24.7860 C   0  0  0  0  0  1  0  0  0  0  0  0
  -27.5440  -32.5540   25.8060 C   0  0  0  0  0  1  0  0  0  0  0  0
  -29.5950  -18.1400   20.7350 C   0  0  0  0  0  2  0  0  0  0  0  0
  -30.4240  -15.2790   20.2560 C   0  0  0  0  0  0  0  0  0  0  0  0
  -30.4000  -12.8500   19.3290 C   0  0  0  0  0  2  0  0  0  0  0  0
  -29.4580  -12.6380   18.1180 C   0  0  0  0  0  2  0  0  0  0  0  0
  -28.0180  -12.3590   18.5840 C   0  0  0  0  0  2  0  0  0  0  0  0
  -27.5760  -13.3190   19.7160 C   0  0  0  0  0  3  0  0  0  0  0  0
  -28.6440  -13.4650   20.8190 C   0  0  0  0  0  2  0  0  0  0  0  0
  -29.8560  -13.9800   20.1590 N   0  0  0  0  0  0  0  0  0  0  0  0
  -31.6560  -15.2890   20.1250 O   0  0  0  0  0  0  0  0  0  0  0  0
  -29.6250  -16.5240   20.2720 N   0  0  0  0  0  0  0  0  0  0  0  0
  -28.6720  -16.2420   20.1000 H   0  0  0  0  0  0  0  0  0  0  0  0
  -25.2100  -13.8670   20.5010 C   0  0  0  0  0  0  0  0  0  0  0  0
  -24.1550  -13.0840   20.8800 C   0  0  0  0  0  0  0  0  0  0  0  0
  -24.6290  -11.7360   20.8420 C   0  0  0  0  0  0  0  0  0  0  0  0
  -26.2560  -12.9960   20.2440 N   0  0  0  0  0  0  0  0  0  0  0  0
  -25.9190  -11.7100   20.5180 N   0  0  0  0  0  0  0  0  0  0  0  0
  -23.9100  -10.4690   21.0350 C   0  0  0  0  0  0  0  0  0  0  0  0
  -24.3500   -9.5030   21.9650 C   0  0  0  0  0  3  0  0  0  0  0  0
  -23.6290   -8.3040   22.1470 C   0  0  0  0  0  3  0  0  0  0  0  0
  -22.4500   -8.0640   21.4000 C   0  0  0  0  0  0  0  0  0  0  0  0
  -22.0280   -9.0200   20.4600 C   0  0  0  0  0  3  0  0  0  0  0  0
  -22.7510  -10.2100   20.2760 C   0  0  0  0  0  3  0  0  0  0  0  0
  -21.7000   -6.9170   21.4930 O   0  0  0  0  0  0  0  0  0  0  0  0
  -21.6630   -6.1710   22.6440 C   0  0  0  0  0  0  0  0  0  0  0  0
  -21.2490   -6.7220   23.8760 C   0  0  0  0  0  3  0  0  0  0  0  0
  -21.1590   -5.9030   25.0190 C   0  0  0  0  0  3  0  0  0  0  0  0
  -21.4740   -4.5330   24.9310 C   0  0  0  0  0  0  0  0  0  0  0  0
  -21.8830   -3.9820   23.7030 C   0  0  0  0  0  3  0  0  0  0  0  0
  -21.9740   -4.7980   22.5620 C   0  0  0  0  0  0  0  0  0  0  0  0
  -22.3470   -4.2580   21.3770 F   0  0  0  0  0  0  0  0  0  0  0  0
  -21.3810   -3.7440   26.0250 F   0  0  0  0  0  0  0  0  0  0  0  0
  -22.7570  -13.5540   21.1540 C   0  0  0  0  0  0  0  0  0  0  0  0
  -22.0330  -12.8560   22.0230 N   0  0  0  0  0  0  0  0  0  0  0  0
  -22.3140  -14.5780   20.6350 O   0  0  0  0  0  0  0  0  0  0  0  0
  -22.4040  -12.0290   22.4660 H   0  0  0  0  0  0  0  0  0  0  0  0
  -21.0950  -13.1560   22.2470 H   0  0  0  0  0  0  0  0  0  0  0  0
  -25.3600  -15.2380   20.3230 N   0  0  0  0  0  0  0  0  0  0  0  0
  -24.5840  -15.8810   20.4390 H   0  0  0  0  0  0  0  0  0  0  0  0
  -26.1850  -15.6820   19.9410 H   0  0  0  0  0  0  0  0  0  0  0  0
  1 11  1  0
  1 57  1  0
  2  5  1  0
  3  6  1  0
  3  2  1  0
  4  5  1  0
  5  1  1  0
  6  7  1  0
  6  4  1  0
  7  9  1  0
  8  7  1  0
 10  7  1  0
 11 13  1  0
 12 11  1  0
 14 15  2  0
 14 11  1  0
 16 15  1  0
 17 28  2  0
 18 16  1  0
 18 23  1  0
 19 27  1  0
 19 29  1  0
 20 26  1  0
 20 22  1  0
 21 27  1  0
 22 23  2  0
 22 21  1  0
 24 18  2  0
 25 24  1  0
 25 20  2  0
 26 19  1  0
 27 17  1  0
 29 31  2  0
 30 29  1  0
 32 30  1  0
 33 42  2  0
 33 38  1  0
 34 30  1  0
 34 38  1  0
 35 34  1  0
 36 37  1  0
 36 35  1  0
 37 33  1  0
 38 39  2  0
 39 40  1  0
 41 40  2  0
 42 41  1  0
 43 17  1  0
 43 44  1  0
 43 53  1  0
 44 47  1  0
 45 49  1  0
 45 44  1  0
 46 45  2  0
 49 48  1  0
 51 49  1  0
 51 52  1  0
 51 50  1  0
 53 56  1  1
 53 54  1  0
 55 53  1  0
 58 66  1  0
 59 64  1  0
 60 61  1  0
 60 59  1  0
 62 61  1  0
 62 71  1  0
 62 63  1  0
 64 58  1  0
 64 63  1  0
 65 58  2  0
 66 57  1  0
 67 66  1  0
 68 69  2  0
 69 88  1  0
 70 69  1  0
 70 73  1  0
 71 68  1  0
 71 72  1  0
 72 70  2  0
 73 74  1  0
 74 75  2  0
 76 79  1  0
 76 75  1  0
 77 76  2  0
 78 77  1  0
 78 73  2  0
 79 80  1  0
 80 81  1  0
 81 82  2  0
 83 82  1  0
 83 87  1  0
 84 83  2  0
 85 80  2  0
 85 84  1  0
 86 85  1  0
 88 89  1  0
 89 92  1  0
 89 91  1  0
 90 88  2  0
 93 94  1  0
 93 68  1  0
 95 93  1  0
M  ISO  4  15 101  16 101  58 100  66 100
M  END
>  <TORSDO>  (3) 
F 22

>  <SCORE>  (3) 
-16.351

>  <name>  (3) 
2

>  <ligand_id>  (3) 
2

>  <original_smiles>  (3) 
[H]c1c([H])c([H])c2c(c1[H])C([H])([H])C([H])([H])C([H])([H])C2([H])N([H])C(=O)C1([H])N(C(=O)C([H])(N([H])C(=O)C([H])(N([H])C([H])([H])[H])C([H])([H])[H])C(C([H])([H])[H])(C([H])([H])[H])C([H])([H])[H])C([H])([H])c2c([H])c(OC([H])([H])C([H])([H])[N+]([H])([H])C([H])(C([H])([H])N([H])C(=O)N3C([H])([H])C([H])([H])C([H])([H])C([H])(n4nc(-c5c([H])c([H])c(Oc6c([H])c([H])c(F)c([H])c6F)c([H])c5[H])c(C(=O)N([H])[H])c4N([H])[H])C3([H])[H])C3([H])C([H])([H])C([H])([H])C([H])([N+]([H])([H])[H])C3([H])[H])c([H])c([H])c2C1([H])[H]

>  <smiles>  (3) 
[H]c1c([H])c([H])c2c(c1[H])C([H])([H])C([H])([H])C([H])([H])C2([H])N([H])C(=O)C1([H])N(C(=O)C([H])(N([H])C(=O)C([H])(N([H])C([H])([H])[H])C([H])([H])[H])C(C([H])([H])[H])(C([H])([H])[H])C([H])([H])[H])C([H])([H])c2c([H])c(OC([H])([H])C([H])([H])[N+]([H])([H])C([H])(C([H])([H])N([H])C(=O)N3C([H])([H])C([H])([H])C([H])([H])C([H])(n4nc(-c5c([H])c([H])c(Oc6c([H])c([H])c(F)c([H])c6F)c([H])c5[H])c(C(=O)N([H])[H])c4N([H])[H])C3([H])[H])C3([H])C([H])([H])C([H])([H])C([H])([N+]([H])([H])[H])C3([H])[H])c([H])c([H])c2C1([H])[H]

$$$$
3:0:0
     RDKit          3D

 90 98  0  0  1  0  0  0  0  0999 V2000
  -29.7500  -22.5710   21.3270 C   0  0  0  0  0  3  0  0  0  0  0  0
  -28.7540  -21.0010   19.8070 C   0  0  0  0  0  3  0  0  0  0  0  0
  -28.8300  -22.4830   20.2670 C   0  0  0  0  0  0  0  0  0  0  0  0
  -30.4660  -21.4640   21.8680 C   0  0  0  0  0  0  0  0  0  0  0  0
  -29.4720  -19.7230   20.3300 C   0  0  0  0  0  0  0  0  0  0  0  0
  -30.3190  -20.0970   21.4220 C   0  0  0  0  0  0  0  0  0  0  0  0
  -31.1670  -19.0170   22.0890 C   0  0  0  0  0  1  0  0  0  0  0  0
  -30.8620  -21.9940   24.3510 C   0  0  0  0  0  1  0  0  0  0  0  0
  -31.4840  -21.8510   22.9520 C   0  0  0  0  0  2  0  0  0  0  0  0
  -29.6100  -18.0720   19.6750 C   0  0  0  0  0  2  0  0  0  0  0  0
  -30.3980  -15.1560   19.8420 C   0  0  0  0  0  0  0  0  0  0  0  0
  -30.2720  -12.7150   18.9210 C   0  0  0  0  0  2  0  0  0  0  0  0
  -29.2590  -12.5360   17.7560 C   0  0  0  0  0  2  0  0  0  0  0  0
  -27.8410  -12.2710   18.2950 C   0  0  0  0  0  2  0  0  0  0  0  0
  -27.4960  -13.1950   19.4890 C   0  0  0  0  0  3  0  0  0  0  0  0
  -28.6320  -13.3120   20.5330 C   0  0  0  0  0  2  0  0  0  0  0  0
  -29.8200  -13.8430   19.8350 N   0  0  0  0  0  0  0  0  0  0  0  0
  -31.5510  -15.1430   19.3880 O   0  0  0  0  0  0  0  0  0  0  0  0
  -29.7150  -16.4510   20.1790 N   0  0  0  0  0  0  0  0  0  0  0  0
  -28.8910  -16.2280   20.7190 H   0  0  0  0  0  0  0  0  0  0  0  0
  -25.2020  -13.7480   20.4560 C   0  0  0  0  0  0  0  0  0  0  0  0
  -24.1620  -12.9730   20.8840 C   0  0  0  0  0  0  0  0  0  0  0  0
  -24.6030  -11.6190   20.7650 C   0  0  0  0  0  0  0  0  0  0  0  0
  -26.2090  -12.8720   20.0940 N   0  0  0  0  0  0  0  0  0  0  0  0
  -25.8650  -11.5800   20.3450 N   0  0  0  0  0  0  0  0  0  0  0  0
  -23.8710  -10.3610   20.9720 C   0  0  0  0  0  0  0  0  0  0  0  0
  -24.3120   -9.3850   21.8920 C   0  0  0  0  0  3  0  0  0  0  0  0
  -23.5730   -8.1990   22.0880 C   0  0  0  0  0  3  0  0  0  0  0  0
  -22.3790   -7.9750   21.3610 C   0  0  0  0  0  0  0  0  0  0  0  0
  -21.9580   -8.9380   20.4270 C   0  0  0  0  0  3  0  0  0  0  0  0
  -22.6980  -10.1150   20.2300 C   0  0  0  0  0  3  0  0  0  0  0  0
  -21.6150   -6.8370   21.4630 O   0  0  0  0  0  0  0  0  0  0  0  0
  -21.5440   -6.1210   22.6300 C   0  0  0  0  0  0  0  0  0  0  0  0
  -21.0790   -6.6990   23.8330 C   0  0  0  0  0  3  0  0  0  0  0  0
  -20.9520   -5.9050   24.9910 C   0  0  0  0  0  3  0  0  0  0  0  0
  -21.2880   -4.5390   24.9500 C   0  0  0  0  0  0  0  0  0  0  0  0
  -21.7470   -3.9620   23.7530 C   0  0  0  0  0  3  0  0  0  0  0  0
  -21.8720   -4.7500   22.5960 C   0  0  0  0  0  0  0  0  0  0  0  0
  -22.2960   -4.1850   21.4400 F   0  0  0  0  0  0  0  0  0  0  0  0
  -21.1600   -3.7770   26.0610 F   0  0  0  0  0  0  0  0  0  0  0  0
  -22.8000  -13.4610   21.2850 C   0  0  0  0  0  0  0  0  0  0  0  0
  -22.1290  -12.7440   22.1810 N   0  0  0  0  0  0  0  0  0  0  0  0
  -22.3420  -14.5110   20.8380 O   0  0  0  0  0  0  0  0  0  0  0  0
  -22.5130  -11.8970   22.5710 H   0  0  0  0  0  0  0  0  0  0  0  0
  -21.2180  -13.0550   22.4890 H   0  0  0  0  0  0  0  0  0  0  0  0
  -25.3670  -15.1240   20.3160 N   0  0  0  0  0  0  0  0  0  0  0  0
  -24.6220  -15.7770   20.5370 H   0  0  0  0  0  0  0  0  0  0  0  0
  -26.1730  -15.5710   19.8980 H   0  0  0  0  0  0  0  0  0  0  0  0
  -28.0230  -23.9840   19.7790 C   0  0  0  0  0  2  0  0  0  0  0  0
  -28.2240  -25.5960   20.1630 O   0  0  0  0  0  0  0  0  0  0  0  0
  -24.5920  -31.5610   23.1190 C   0  0  0  0  0  0  0  0  0  0  0  0
  -27.2170  -26.7100   20.0780 C   0  0  0  0  0  0  0  0  0  0  0  0
  -23.4300  -30.1810   21.4440 C   0  0  0  0  0  3  0  0  0  0  0  0
  -24.9090  -28.6000   20.0160 C   0  0  0  0  0  0  0  0  0  0  0  0
  -25.9970  -30.4010   21.3360 C   0  0  0  0  0  2  0  0  0  0  0  0
  -26.0860  -28.9970   20.6640 C   0  0  0  0  0  0  0  0  0  0  0  0
  -27.2290  -28.0720   20.6730 C   0  0  0  0  0  3  0  0  0  0  0  0
  -26.0120  -26.4780   19.3750 C   0  0  0  0  0  3  0  0  0  0  0  0
  -24.9010  -27.3630   19.3490 C   0  0  0  0  0  3  0  0  0  0  0  0
  -23.6860  -29.5180   20.0580 C   0  0  0  0  0  2  0  0  0  0  0  0
  -24.6950  -30.7430   22.0210 N   0  0  0  0  0  0  0  0  0  0  0  0
  -23.4940  -31.8400   23.6260 O   0  0  0  0  0  0  0  0  0  0  0  0
  -22.7250  -29.1720   22.3880 C   0  0  0  0  0  0  0  0  0  0  0  0
  -21.4000  -28.9930   22.2330 N   0  0  0  0  0  0  0  0  0  0  0  0
  -23.3780  -28.5520   23.2320 O   0  0  0  0  0  0  0  0  0  0  0  0
  -20.9260  -29.5450   21.5320 H   0  0  0  0  0  0  0  0  0  0  0  0
  -18.0170  -27.7510   22.6720 C   0  0  0  0  0  0  0  0  0  0  0  0
  -20.5700  -28.0390   22.9780 C   0  0  0  0  0  3  0  0  0  0  0  0
  -20.6950  -26.6160   22.3840 C   0  0  0  0  0  2  0  0  0  0  0  0
  -19.6110  -26.2960   21.3500 C   0  0  0  0  0  2  0  0  0  0  0  0
  -18.2190  -26.4150   21.9760 C   0  0  0  0  0  2  0  0  0  0  0  0
  -19.1220  -28.5190   23.1280 C   0  0  0  0  0  0  0  0  0  0  0  0
  -18.8780  -29.7660   23.7440 C   0  0  0  0  0  3  0  0  0  0  0  0
  -17.5630  -30.2450   23.9050 C   0  0  0  0  0  3  0  0  0  0  0  0
  -16.4750  -29.4740   23.4630 C   0  0  0  0  0  3  0  0  0  0  0  0
  -16.7010  -28.2270   22.8520 C   0  0  0  0  0  3  0  0  0  0  0  0
  -25.8510  -32.2010   23.7810 C   0  0  0  0  0  3  0  0  0  0  0  0
  -26.3120  -31.4480   25.0880 C   0  0  1  0  0  0  0  0  0  0  0  0
  -25.1780  -31.2350   26.1210 C   0  0  0  0  0  1  0  0  0  0  0  0
  -26.9010  -30.0610   24.7480 C   0  0  0  0  0  1  0  0  0  0  0  0
  -27.4480  -32.2430   25.7780 C   0  0  0  0  0  1  0  0  0  0  0  0
  -25.5340  -33.6070   24.0920 N   0  0  0  0  0  0  0  0  0  0  0  0
  -25.8660  -34.6570   23.3280 C   0  0  0  0  0  0  0  0  0  0  0  0
  -26.5320  -34.5450   22.2960 O   0  0  0  0  0  0  0  0  0  0  0  0
  -24.9370  -33.7660   24.8890 H   0  0  0  0  0  0  0  0  0  0  0  0
  -24.1290  -36.4510   22.9920 C   0  0  0  0  0  1  0  0  0  0  0  0
  -25.3890  -36.0550   23.7780 C   0  0  0  0  0  3  0  0  0  0  0  0
  -27.5350  -36.9660   24.5560 C   0  0  0  0  0  1  0  0  0  0  0  0
  -26.4180  -37.1080   23.6250 N   0  0  0  0  0  0  0  0  0  0  0  0
  -26.0110  -38.0310   23.7550 H   0  0  0  0  0  0  0  0  0  0  0  0
  1  4  1  0
  2  3  1  0
  2  5  2  0
  3  1  2  0
  4  9  1  0
  5  6  1  0
  6  4  2  0
  6  7  1  0
  9  8  1  0
 10 19  1  0
 10  5  1  0
 11 19  1  0
 12 17  1  0
 13 14  1  0
 13 12  1  0
 15 14  1  0
 15 24  1  0
 15 16  1  0
 17 11  1  0
 17 16  1  0
 18 11  2  0
 19 20  1  0
 21 22  2  0
 22 41  1  0
 23 22  1  0
 23 26  1  0
 24 25  1  0
 24 21  1  0
 25 23  2  0
 26 27  1  0
 27 28  2  0
 29 32  1  0
 29 28  1  0
 30 29  2  0
 31 30  1  0
 31 26  2  0
 32 33  1  0
 33 34  1  0
 34 35  2  0
 36 35  1  0
 36 40  1  0
 37 36  2  0
 38 33  2  0
 38 37  1  0
 39 38  1  0
 41 42  1  0
 42 45  1  0
 42 44  1  0
 43 41  2  0
 46 21  1  0
 46 47  1  0
 48 46  1  0
 49 50  1  0
 49  3  1  0
 51 62  2  0
 52 50  1  0
 52 57  1  0
 53 61  1  0
 53 63  1  0
 54 60  1  0
 54 56  1  0
 55 61  1  0
 56 57  2  0
 56 55  1  0
 58 52  2  0
 59 58  1  0
 59 54  2  0
 60 53  1  0
 61 51  1  0
 63 65  2  0
 64 63  1  0
 66 64  1  0
 67 76  2  0
 67 72  1  0
 68 64  1  0
 68 72  1  0
 69 68  1  0
 70 71  1  0
 70 69  1  0
 71 67  1  0
 72 73  2  0
 73 74  1  0
 75 74  2  0
 76 75  1  0
 77 51  1  0
 77 82  1  0
 77 78  1  0
 78 81  1  1
 78 79  1  0
 80 78  1  0
 82 85  1  0
 83 87  1  0
 83 82  1  0
 84 83  2  0
 87 86  1  0
 89 90  1  0
 89 87  1  0
 89 88  1  0
M  ISO  4  11 100  19 100  49 101  50 101
M  END
>  <TORSDO>  (4) 
F 19

>  <SCORE>  (4) 
-15.603

>  <name>  (4) 
3

>  <ligand_id>  (4) 
3

>  <original_smiles>  (4) 
[H]c1c([H])c([H])c2c(c1[H])C([H])([H])C([H])([H])C([H])([H])C2([H])N([H])C(=O)C1([H])N(C(=O)C([H])(N([H])C(=O)C([H])(N([H])C([H])([H])[H])C([H])([H])[H])C(C([H])([H])[H])(C([H])([H])[H])C([H])([H])[H])C([H])([H])c2c([H])c(OC([H])([H])c3c([H])c(C([H])([H])N([H])C(=O)N4C([H])([H])C([H])([H])C([H])([H])C([H])(n5nc(-c6c([H])c([H])c(Oc7c([H])c([H])c(F)c([H])c7F)c([H])c6[H])c(C(=O)N([H])[H])c5N([H])[H])C4([H])[H])c(C([H])([H])[H])c(C([H])([H])C([H])([H])[H])c3[H])c([H])c([H])c2C1([H])[H]

>  <smiles>  (4) 
[H]c1c([H])c([H])c2c(c1[H])C([H])([H])C([H])([H])C([H])([H])C2([H])N([H])C(=O)C1([H])N(C(=O)C([H])(N([H])C(=O)C([H])(N([H])C([H])([H])[H])C([H])([H])[H])C(C([H])([H])[H])(C([H])([H])[H])C([H])([H])[H])C([H])([H])c2c([H])c(OC([H])([H])c3c([H])c(C([H])([H])N([H])C(=O)N4C([H])([H])C([H])([H])C([H])([H])C([H])(n5nc(-c6c([H])c([H])c(Oc7c([H])c([H])c(F)c([H])c7F)c([H])c6[H])c(C(=O)N([H])[H])c5N([H])[H])C4([H])[H])c(C([H])([H])[H])c(C([H])([H])C([H])([H])[H])c3[H])c([H])c([H])c2C1([H])[H]

$$$$
4:0:0
     RDKit          3D

 92100  0  0  1  0  0  0  0  0999 V2000
  -27.0490  -21.9910   18.5930 C   0  0  0  0  0  2  0  0  0  0  0  0
  -28.7200  -19.8070   18.8600 C   0  0  0  0  0  2  0  0  0  0  0  0
  -29.3850  -20.8760   20.8590 C   0  0  0  0  0  2  0  0  0  0  0  0
  -27.0050  -21.9730   20.1230 C   0  0  0  0  0  3  0  0  0  0  0  0
  -28.4900  -21.4450   18.7470 C   0  0  0  0  0  3  0  0  0  0  0  0
  -29.6520  -19.2540   20.0460 C   0  0  0  0  0  3  0  0  0  0  0  0
  -28.5360  -22.2930   20.0850 C   0  0  0  0  0  3  0  0  0  0  0  0
  -30.4730  -16.1350   20.4530 C   0  0  0  0  0  0  0  0  0  0  0  0
  -30.7240  -13.5340   19.8430 C   0  0  0  0  0  2  0  0  0  0  0  0
  -29.9440  -13.0050   18.6030 C   0  0  0  0  0  2  0  0  0  0  0  0
  -28.5020  -12.6270   18.9750 C   0  0  0  0  0  2  0  0  0  0  0  0
  -27.8840  -13.6860   19.9160 C   0  0  0  0  0  3  0  0  0  0  0  0
  -28.8100  -14.1090   21.0830 C   0  0  0  0  0  2  0  0  0  0  0  0
  -30.0090  -14.7410   20.4790 N   0  0  0  0  0  0  0  0  0  0  0  0
  -31.7090  -16.0930   20.2960 O   0  0  0  0  0  0  0  0  0  0  0  0
  -29.6650  -17.4850   20.4310 N   0  0  0  0  0  0  0  0  0  0  0  0
  -28.7080  -17.2300   20.6430 H   0  0  0  0  0  0  0  0  0  0  0  0
  -25.4820  -14.2050   20.5570 C   0  0  0  0  0  0  0  0  0  0  0  0
  -24.4060  -13.4230   20.8640 C   0  0  0  0  0  0  0  0  0  0  0  0
  -24.8780  -12.0730   20.8360 C   0  0  0  0  0  0  0  0  0  0  0  0
  -26.5400  -13.3390   20.3560 N   0  0  0  0  0  0  0  0  0  0  0  0
  -26.1850  -12.0460   20.5890 N   0  0  0  0  0  0  0  0  0  0  0  0
  -24.1380  -10.8120   20.9700 C   0  0  0  0  0  0  0  0  0  0  0  0
  -24.5030   -9.8370   21.9250 C   0  0  0  0  0  3  0  0  0  0  0  0
  -23.7620   -8.6420   22.0490 C   0  0  0  0  0  3  0  0  0  0  0  0
  -22.6400   -8.4130   21.2190 C   0  0  0  0  0  0  0  0  0  0  0  0
  -22.2930   -9.3740   20.2530 C   0  0  0  0  0  3  0  0  0  0  0  0
  -23.0360  -10.5610   20.1270 C   0  0  0  0  0  3  0  0  0  0  0  0
  -21.8740   -7.2720   21.2530 O   0  0  0  0  0  0  0  0  0  0  0  0
  -21.7240   -6.5390   22.4020 C   0  0  0  0  0  0  0  0  0  0  0  0
  -21.1600   -7.0950   23.5710 C   0  0  0  0  0  3  0  0  0  0  0  0
  -20.9600   -6.2880   24.7090 C   0  0  0  0  0  3  0  0  0  0  0  0
  -21.3130   -4.9260   24.6770 C   0  0  0  0  0  0  0  0  0  0  0  0
  -21.8720   -4.3700   23.5130 C   0  0  0  0  0  3  0  0  0  0  0  0
  -22.0730   -5.1740   22.3780 C   0  0  0  0  0  0  0  0  0  0  0  0
  -22.5920   -4.6280   21.2510 F   0  0  0  0  0  0  0  0  0  0  0  0
  -21.1160   -4.1470   25.7670 F   0  0  0  0  0  0  0  0  0  0  0  0
  -22.9980  -13.8990   21.0660 C   0  0  0  0  0  0  0  0  0  0  0  0
  -22.2310  -13.2080   21.9000 N   0  0  0  0  0  0  0  0  0  0  0  0
  -22.5890  -14.9260   20.5190 O   0  0  0  0  0  0  0  0  0  0  0  0
  -22.5730  -12.3800   22.3650 H   0  0  0  0  0  0  0  0  0  0  0  0
  -21.2840  -13.5090   22.0770 H   0  0  0  0  0  0  0  0  0  0  0  0
  -25.6510  -15.5760   20.3960 N   0  0  0  0  0  0  0  0  0  0  0  0
  -24.8690  -16.2210   20.4460 H   0  0  0  0  0  0  0  0  0  0  0  0
  -26.4940  -16.0090   20.0470 H   0  0  0  0  0  0  0  0  0  0  0  0
  -26.1160  -22.9770   20.8950 C   0  0  0  0  0  0  0  0  0  0  0  0
  -24.9860  -23.4300   20.3600 N   0  0  0  0  0  0  0  0  0  0  0  0
  -26.4380  -23.3310   22.0270 O   0  0  0  0  0  0  0  0  0  0  0  0
  -24.6710  -23.1220   19.4540 H   0  0  0  0  0  0  0  0  0  0  0  0
  -24.4200  -24.0830   20.8900 H   0  0  0  0  0  0  0  0  0  0  0  0
  -28.7040  -24.2530   20.2390 C   0  0  0  0  0  1  0  0  0  0  0  0
  -28.2920  -25.9130   19.7450 O   0  0  0  0  0  0  0  0  0  0  0  0
  -24.5940  -31.9400   23.0840 C   0  0  0  0  0  0  0  0  0  0  0  0
  -27.2290  -27.0380   19.9060 C   0  0  0  0  0  0  0  0  0  0  0  0
  -23.4180  -30.5450   21.4370 C   0  0  0  0  0  3  0  0  0  0  0  0
  -24.8860  -28.9900   19.9510 C   0  0  0  0  0  0  0  0  0  0  0  0
  -25.9850  -30.7950   21.2480 C   0  0  0  0  0  2  0  0  0  0  0  0
  -26.0860  -29.3780   20.5600 C   0  0  0  0  0  0  0  0  0  0  0  0
  -27.2450  -28.4400   20.4860 C   0  0  0  0  0  3  0  0  0  0  0  0
  -25.9800  -26.8550   19.2570 C   0  0  0  0  0  3  0  0  0  0  0  0
  -24.8730  -27.7580   19.2710 C   0  0  0  0  0  3  0  0  0  0  0  0
  -23.6530  -29.9020   20.0390 C   0  0  0  0  0  2  0  0  0  0  0  0
  -24.6910  -31.1260   21.9790 N   0  0  0  0  0  0  0  0  0  0  0  0
  -23.5040  -32.1790   23.6270 O   0  0  0  0  0  0  0  0  0  0  0  0
  -22.7670  -29.5080   22.3940 C   0  0  0  0  0  0  0  0  0  0  0  0
  -21.4480  -29.2710   22.2640 N   0  0  0  0  0  0  0  0  0  0  0  0
  -23.4600  -28.9200   23.2270 O   0  0  0  0  0  0  0  0  0  0  0  0
  -20.9390  -29.8040   21.5720 H   0  0  0  0  0  0  0  0  0  0  0  0
  -18.1540  -27.8030   22.7240 C   0  0  0  0  0  0  0  0  0  0  0  0
  -20.6820  -28.2690   23.0180 C   0  0  0  0  0  3  0  0  0  0  0  0
  -20.9000  -26.8500   22.4430 C   0  0  0  0  0  2  0  0  0  0  0  0
  -19.8370  -26.4440   21.4140 C   0  0  0  0  0  2  0  0  0  0  0  0
  -18.4410  -26.4770   22.0420 C   0  0  0  0  0  2  0  0  0  0  0  0
  -19.2040  -28.6500   23.1700 C   0  0  0  0  0  0  0  0  0  0  0  0
  -18.8770  -29.8830   23.7740 C   0  0  0  0  0  3  0  0  0  0  0  0
  -17.5350  -30.2720   23.9320 C   0  0  0  0  0  3  0  0  0  0  0  0
  -16.5000  -29.4270   23.5020 C   0  0  0  0  0  3  0  0  0  0  0  0
  -16.8090  -28.1930   22.9050 C   0  0  0  0  0  3  0  0  0  0  0  0
  -25.8440  -32.6230   23.7150 C   0  0  0  0  0  3  0  0  0  0  0  0
  -25.4800  -34.0090   24.0790 N   0  0  0  0  0  0  0  0  0  0  0  0
  -25.7850  -35.0970   23.3580 C   0  0  0  0  0  0  0  0  0  0  0  0
  -26.4540  -35.0410   22.3250 O   0  0  0  0  0  0  0  0  0  0  0  0
  -24.8780  -34.1210   24.8800 H   0  0  0  0  0  0  0  0  0  0  0  0
  -24.0160  -36.8670   23.0640 C   0  0  0  0  0  1  0  0  0  0  0  0
  -25.2670  -36.4620   23.8610 C   0  0  0  0  0  3  0  0  0  0  0  0
  -27.3780  -37.3710   24.7270 C   0  0  0  0  0  1  0  0  0  0  0  0
  -26.2760  -37.5420   23.7840 N   0  0  0  0  0  0  0  0  0  0  0  0
  -25.8510  -38.4480   23.9540 H   0  0  0  0  0  0  0  0  0  0  0  0
  -26.3820  -31.8610   24.9900 C   0  0  1  0  0  0  0  0  0  0  0  0
  -25.2970  -31.5880   26.0610 C   0  0  0  0  0  1  0  0  0  0  0  0
  -26.9990  -30.5000   24.5990 C   0  0  0  0  0  1  0  0  0  0  0  0
  -27.5170  -32.6800   25.6470 C   0  0  0  0  0  1  0  0  0  0  0  0
  1  4  1  0
  2  6  1  0
  4 46  1  0
  5  1  1  0
  5  2  1  0
  5  7  1  0
  6 16  1  0
  6  3  1  0
  7  4  1  0
  7  3  1  0
  8 14  1  0
  9 14  1  0
 10 11  1  0
 10  9  1  0
 12 11  1  0
 12 21  1  0
 12 13  1  0
 14 13  1  0
 15  8  2  0
 16  8  1  0
 16 17  1  0
 18 19  2  0
 19 38  1  0
 20 19  1  0
 20 23  1  0
 21 18  1  0
 21 22  1  0
 22 20  2  0
 23 24  1  0
 24 25  2  0
 26 29  1  0
 26 25  1  0
 27 26  2  0
 28 27  1  0
 28 23  2  0
 29 30  1  0
 30 31  1  0
 31 32  2  0
 33 32  1  0
 33 37  1  0
 34 33  2  0
 35 30  2  0
 35 34  1  0
 36 35  1  0
 38 39  1  0
 39 42  1  0
 39 41  1  0
 40 38  2  0
 43 44  1  0
 43 18  1  0
 45 43  1  0
 46 48  2  0
 47 50  1  0
 47 46  1  0
 49 47  1  0
 52 54  1  0
 52 51  1  0
 53 64  2  0
 54 59  1  0
 55 63  1  0
 55 65  1  0
 56 62  1  0
 56 58  1  0
 57 63  1  0
 58 57  1  0
 59 58  2  0
 60 61  1  0
 60 54  2  0
 61 56  2  0
 62 55  1  0
 63 53  1  0
 65 67  2  0
 66 65  1  0
 68 66  1  0
 69 78  2  0
 69 74  1  0
 70 66  1  0
 70 74  1  0
 71 70  1  0
 72 73  1  0
 72 71  1  0
 73 69  1  0
 74 75  2  0
 75 76  1  0
 77 76  2  0
 78 77  1  0
 79 53  1  0
 79 80  1  0
 79 89  1  0
 80 83  1  0
 81 85  1  0
 81 80  1  0
 82 81  2  0
 85 84  1  0
 87 85  1  0
 87 88  1  0
 87 86  1  0
 89 92  1  1
 89 90  1  0
 91 89  1  0
M  ISO  4   8 100  16 100  51 101  52 101
M  END
>  <TORSDO>  (5) 
F 18

>  <SCORE>  (5) 
-15.540

>  <name>  (5) 
4

>  <ligand_id>  (5) 
4

>  <original_smiles>  (5) 
[H]c1c([H])c([H])c2c(c1[H])C([H])([H])C([H])([H])C([H])([H])C2([H])N([H])C(=O)C1([H])N(C(=O)C([H])(N([H])C(=O)C([H])(N([H])C([H])([H])[H])C([H])([H])[H])C(C([H])([H])[H])(C([H])([H])[H])C([H])([H])[H])C([H])([H])c2c([H])c(OC([H])([H])C34C([H])([H])C([H])(N([H])C(=O)N5C([H])([H])C([H])([H])C([H])([H])C([H])(n6nc(-c7c([H])c([H])c(Oc8c([H])c([H])c(F)c([H])c8F)c([H])c7[H])c(C(=O)N([H])[H])c6N([H])[H])C5([H])[H])C([H])([H])C3([H])C([H])([H])C4([H])C(=O)N([H])[H])c([H])c([H])c2C1([H])[H]

>  <smiles>  (5) 
[H]c1c([H])c([H])c2c(c1[H])C([H])([H])C([H])([H])C([H])([H])C2([H])N([H])C(=O)C1([H])N(C(=O)C([H])(N([H])C(=O)C([H])(N([H])C([H])([H])[H])C([H])([H])[H])C(C([H])([H])[H])(C([H])([H])[H])C([H])([H])[H])C([H])([H])c2c([H])c(OC([H])([H])C34C([H])([H])C([H])(N([H])C(=O)N5C([H])([H])C([H])([H])C([H])([H])C([H])(n6nc(-c7c([H])c([H])c(Oc8c([H])c([H])c(F)c([H])c8F)c([H])c7[H])c(C(=O)N([H])[H])c6N([H])[H])C5([H])[H])C([H])([H])C3([H])C([H])([H])C4([H])C(=O)N([H])[H])c([H])c([H])c2C1([H])[H]

$$$$
5:0:0
     RDKit          3D

 90 98  0  0  1  0  0  0  0  0999 V2000
  -29.1120  -22.1170   19.8060 C   0  0  0  0  0  3  0  0  0  0  0  0
  -30.8710  -22.3710   23.7810 C   0  0  0  0  0  3  0  0  0  0  0  0
  -31.6380  -21.9310   22.6880 C   0  0  0  0  0  3  0  0  0  0  0  0
  -29.5240  -22.7280   23.5930 C   0  0  0  0  0  3  0  0  0  0  0  0
  -31.0570  -21.8510   21.4090 C   0  0  0  0  0  3  0  0  0  0  0  0
  -28.9320  -22.6530   22.3140 C   0  0  0  0  0  0  0  0  0  0  0  0
  -29.7040  -22.2090   21.2080 C   0  0  0  0  0  0  0  0  0  0  0  0
  -27.4690  -23.0520   22.1900 C   0  0  0  0  0  1  0  0  0  0  0  0
  -28.9380  -20.2240   19.4910 C   0  0  0  0  0  3  0  0  0  0  0  0
  -29.9330  -18.5970   19.7310 C   0  0  0  0  0  3  0  0  0  0  0  0
  -30.4250  -15.4870   19.7130 C   0  0  0  0  0  0  0  0  0  0  0  0
  -30.4390  -12.9300   18.9850 C   0  0  0  0  0  2  0  0  0  0  0  0
  -29.4880  -12.5190   17.8280 C   0  0  0  0  0  2  0  0  0  0  0  0
  -28.0740  -12.2200   18.3530 C   0  0  0  0  0  2  0  0  0  0  0  0
  -27.6320  -13.2650   19.4040 C   0  0  0  0  0  3  0  0  0  0  0  0
  -28.7150  -13.5810   20.4590 C   0  0  0  0  0  2  0  0  0  0  0  0
  -29.8700  -14.1420   19.7230 N   0  0  0  0  0  0  0  0  0  0  0  0
  -31.6520  -15.4100   19.5160 O   0  0  0  0  0  0  0  0  0  0  0  0
  -29.6880  -16.8490   19.7340 N   0  0  0  0  0  0  0  0  0  0  0  0
  -28.7000  -16.6520   19.8120 H   0  0  0  0  0  0  0  0  0  0  0  0
  -25.3540  -13.8660   20.3540 C   0  0  0  0  0  0  0  0  0  0  0  0
  -24.2810  -13.1170   20.7450 C   0  0  0  0  0  0  0  0  0  0  0  0
  -24.6780  -11.7510   20.6060 C   0  0  0  0  0  0  0  0  0  0  0  0
  -26.3340  -12.9630   19.9920 N   0  0  0  0  0  0  0  0  0  0  0  0
  -25.9460  -11.6780   20.2090 N   0  0  0  0  0  0  0  0  0  0  0  0
  -23.9010  -10.5150   20.7680 C   0  0  0  0  0  0  0  0  0  0  0  0
  -24.2790   -9.5180   21.6920 C   0  0  0  0  0  3  0  0  0  0  0  0
  -23.5010   -8.3500   21.8460 C   0  0  0  0  0  3  0  0  0  0  0  0
  -22.3270   -8.1720   21.0750 C   0  0  0  0  0  0  0  0  0  0  0  0
  -21.9660   -9.1580   20.1410 C   0  0  0  0  0  3  0  0  0  0  0  0
  -22.7450  -10.3160   19.9840 C   0  0  0  0  0  3  0  0  0  0  0  0
  -21.5240   -7.0590   21.1400 O   0  0  0  0  0  0  0  0  0  0  0  0
  -21.3770   -6.3440   22.3010 C   0  0  0  0  0  0  0  0  0  0  0  0
  -20.8380   -6.9230   23.4710 C   0  0  0  0  0  3  0  0  0  0  0  0
  -20.6390   -6.1320   24.6210 C   0  0  0  0  0  3  0  0  0  0  0  0
  -20.9690   -4.7640   24.6010 C   0  0  0  0  0  0  0  0  0  0  0  0
  -21.5010   -4.1850   23.4350 C   0  0  0  0  0  3  0  0  0  0  0  0
  -21.7000   -4.9720   22.2870 C   0  0  0  0  0  0  0  0  0  0  0  0
  -22.1920   -4.4030   21.1600 F   0  0  0  0  0  0  0  0  0  0  0  0
  -20.7720   -4.0030   25.7020 F   0  0  0  0  0  0  0  0  0  0  0  0
  -22.9280  -13.6420   21.1240 C   0  0  0  0  0  0  0  0  0  0  0  0
  -22.2160  -12.9320   21.9900 N   0  0  0  0  0  0  0  0  0  0  0  0
  -22.5170  -14.7170   20.6900 O   0  0  0  0  0  0  0  0  0  0  0  0
  -22.5640  -12.0610   22.3620 H   0  0  0  0  0  0  0  0  0  0  0  0
  -21.3100  -13.2640   22.2880 H   0  0  0  0  0  0  0  0  0  0  0  0
  -25.5680  -15.2360   20.2440 N   0  0  0  0  0  0  0  0  0  0  0  0
  -24.8310  -15.9090   20.4300 H   0  0  0  0  0  0  0  0  0  0  0  0
  -26.4010  -15.6590   19.8570 H   0  0  0  0  0  0  0  0  0  0  0  0
  -28.1320  -23.7650   19.6050 C   0  0  0  0  0  2  0  0  0  0  0  0
  -28.2660  -25.4760   19.9180 O   0  0  0  0  0  0  0  0  0  0  0  0
  -24.6160  -31.5060   23.0850 C   0  0  0  0  0  0  0  0  0  0  0  0
  -27.2690  -26.6530   19.8920 C   0  0  0  0  0  0  0  0  0  0  0  0
  -23.4740  -30.1740   21.3620 C   0  0  0  0  0  3  0  0  0  0  0  0
  -24.9680  -28.6240   19.8940 C   0  0  0  0  0  0  0  0  0  0  0  0
  -26.0490  -30.3690   21.2890 C   0  0  0  0  0  2  0  0  0  0  0  0
  -26.1450  -28.9760   20.5640 C   0  0  0  0  0  0  0  0  0  0  0  0
  -27.2810  -28.0170   20.5340 C   0  0  0  0  0  3  0  0  0  0  0  0
  -26.0560  -26.5010   19.1750 C   0  0  0  0  0  3  0  0  0  0  0  0
  -24.9590  -27.4130   19.1780 C   0  0  0  0  0  3  0  0  0  0  0  0
  -23.7450  -29.5510   19.9620 C   0  0  0  0  0  2  0  0  0  0  0  0
  -24.7350  -30.7130   21.9670 N   0  0  0  0  0  0  0  0  0  0  0  0
  -23.5110  -31.7640   23.5930 O   0  0  0  0  0  0  0  0  0  0  0  0
  -22.7590  -29.1380   22.2720 C   0  0  0  0  0  0  0  0  0  0  0  0
  -21.4300  -28.9770   22.1230 N   0  0  0  0  0  0  0  0  0  0  0  0
  -23.4120  -28.4800   23.0860 O   0  0  0  0  0  0  0  0  0  0  0  0
  -20.9530  -29.5610   21.4500 H   0  0  0  0  0  0  0  0  0  0  0  0
  -18.0420  -27.7470   22.5730 C   0  0  0  0  0  0  0  0  0  0  0  0
  -20.6040  -27.9940   22.8360 C   0  0  0  0  0  3  0  0  0  0  0  0
  -20.6980  -26.6010   22.1720 C   0  0  0  0  0  2  0  0  0  0  0  0
  -19.5900  -26.3470   21.1440 C   0  0  0  0  0  2  0  0  0  0  0  0
  -18.2130  -26.4490   21.8030 C   0  0  0  0  0  2  0  0  0  0  0  0
  -19.1640  -28.4810   23.0430 C   0  0  0  0  0  0  0  0  0  0  0  0
  -18.9460  -29.6960   23.7290 C   0  0  0  0  0  3  0  0  0  0  0  0
  -17.6410  -30.1790   23.9440 C   0  0  0  0  0  3  0  0  0  0  0  0
  -16.5350  -29.4430   23.4860 C   0  0  0  0  0  3  0  0  0  0  0  0
  -16.7360  -28.2280   22.8070 C   0  0  0  0  0  3  0  0  0  0  0  0
  -25.8600  -32.1410   23.7770 C   0  0  0  0  0  3  0  0  0  0  0  0
  -26.3140  -31.3590   25.0730 C   0  0  1  0  0  0  0  0  0  0  0  0
  -25.1700  -31.1170   26.0870 C   0  0  0  0  0  1  0  0  0  0  0  0
  -26.9130  -29.9820   24.7100 C   0  0  0  0  0  1  0  0  0  0  0  0
  -27.4310  -32.1470   25.7970 C   0  0  0  0  0  1  0  0  0  0  0  0
  -25.5300  -33.5360   24.1260 N   0  0  0  0  0  0  0  0  0  0  0  0
  -25.8370  -34.6100   23.3860 C   0  0  0  0  0  0  0  0  0  0  0  0
  -26.4850  -34.5320   22.3390 O   0  0  0  0  0  0  0  0  0  0  0  0
  -24.9500  -33.6690   24.9400 H   0  0  0  0  0  0  0  0  0  0  0  0
  -24.0690  -36.3890   23.1340 C   0  0  0  0  0  1  0  0  0  0  0  0
  -25.3510  -35.9890   23.8830 C   0  0  0  0  0  3  0  0  0  0  0  0
  -27.4950  -36.9160   24.6440 C   0  0  0  0  0  1  0  0  0  0  0  0
  -26.3610  -37.0600   23.7350 N   0  0  0  0  0  0  0  0  0  0  0  0
  -25.9430  -37.9730   23.8930 H   0  0  0  0  0  0  0  0  0  0  0  0
  1  9  1  0
  1  7  1  0
  3  2  2  0
  4  2  1  0
  5  3  1  0
  6  4  2  0
  7  5  2  0
  7  6  1  0
  8  6  1  0
  9 10  2  0
 10 19  1  0
 11 17  1  0
 11 19  1  0
 12 17  1  0
 13 14  1  0
 13 12  1  0
 15 14  1  0
 15 24  1  0
 15 16  1  0
 17 16  1  0
 18 11  2  0
 19 20  1  0
 21 22  2  0
 22 41  1  0
 23 22  1  0
 23 26  1  0
 24 25  1  0
 24 21  1  0
 25 23  2  0
 26 27  1  0
 27 28  2  0
 29 32  1  0
 29 28  1  0
 30 29  2  0
 31 30  1  0
 31 26  2  0
 32 33  1  0
 33 34  1  0
 34 35  2  0
 36 35  1  0
 36 40  1  0
 37 36  2  0
 38 33  2  0
 38 37  1  0
 39 38  1  0
 41 42  1  0
 42 45  1  0
 42 44  1  0
 43 41  2  0
 46 21  1  0
 46 47  1  0
 48 46  1  0
 49  1  1  0
 49 50  1  0
 51 62  2  0
 52 50  1  0
 52 57  1  0
 53 61  1  0
 53 63  1  0
 54 60  1  0
 54 56  1  0
 55 61  1  0
 56 55  1  0
 57 56  2  0
 58 59  1  0
 58 52  2  0
 59 54  2  0
 60 53  1  0
 61 51  1  0
 63 65  2  0
 64 63  1  0
 66 64  1  0
 67 76  2  0
 67 72  1  0
 68 64  1  0
 68 72  1  0
 69 68  1  0
 70 71  1  0
 70 69  1  0
 71 67  1  0
 72 73  2  0
 73 74  1  0
 75 74  2  0
 76 75  1  0
 77 51  1  0
 77 82  1  0
 77 78  1  0
 78 81  1  1
 78 79  1  0
 80 78  1  0
 82 85  1  0
 83 87  1  0
 83 82  1  0
 84 83  2  0
 87 86  1  0
 89 87  1  0
 89 90  1  0
 89 88  1  0
M  ISO  4  11 100  19 100  49 101  50 101
M  END
>  <TORSDO>  (6) 
F 20

>  <SCORE>  (6) 
-14.447

>  <name>  (6) 
5

>  <ligand_id>  (6) 
5

>  <original_smiles>  (6) 
[H]c1c([H])c([H])c(C([H])(C([H])([H])Oc2c([H])c([H])c3c(c2[H])C([H])([H])N(C(=O)C([H])(N([H])C(=O)C([H])(N([H])C([H])([H])[H])C([H])([H])[H])C(C([H])([H])[H])(C([H])([H])[H])C([H])([H])[H])C([H])(C(=O)N([H])C2([H])c4c([H])c([H])c([H])c([H])c4C([H])([H])C([H])([H])C2([H])[H])C3([H])[H])C([H])([H])C([H])([H])N([H])C(=O)N2C([H])([H])C([H])([H])C([H])([H])C([H])(n3nc(-c4c([H])c([H])c(Oc5c([H])c([H])c(F)c([H])c5F)c([H])c4[H])c(C(=O)N([H])[H])c3N([H])[H])C2([H])[H])c(C([H])([H])[H])c1[H]

>  <smiles>  (6) 
[H]c1c([H])c([H])c(C([H])(C([H])([H])Oc2c([H])c([H])c3c(c2[H])C([H])([H])N(C(=O)C([H])(N([H])C(=O)C([H])(N([H])C([H])([H])[H])C([H])([H])[H])C(C([H])([H])[H])(C([H])([H])[H])C([H])([H])[H])C([H])(C(=O)N([H])C2([H])c4c([H])c([H])c([H])c([H])c4C([H])([H])C([H])([H])C2([H])[H])C3([H])[H])C([H])([H])C([H])([H])N([H])C(=O)N2C([H])([H])C([H])([H])C([H])([H])C([H])(n3nc(-c4c([H])c([H])c(Oc5c([H])c([H])c(F)c([H])c5F)c([H])c4[H])c(C(=O)N([H])[H])c3N([H])[H])C2([H])[H])c(C([H])([H])[H])c1[H]

$$$$
6:0:0
     RDKit          3D

 90 99  0  0  1  0  0  0  0  0999 V2000
  -29.4920  -20.9860   20.4260 C   0  0  0  0  0  0  0  0  0  0  0  0
  -27.2900  -21.8160   19.6540 C   0  0  0  0  0  1  0  0  0  0  0  0
  -28.6480  -22.0800   20.1400 N   0  0  0  0  0  0  0  0  0  0  0  0
  -30.6140  -21.2420   20.8690 O   0  0  0  0  0  0  0  0  0  0  0  0
  -30.6390  -14.9310   20.0350 C   0  0  0  0  0  0  0  0  0  0  0  0
  -30.4050  -12.6480   19.0060 C   0  0  0  0  0  2  0  0  0  0  0  0
  -29.4040  -12.6750   17.8320 C   0  0  0  0  0  2  0  0  0  0  0  0
  -27.9620  -12.4780   18.3390 C   0  0  0  0  0  2  0  0  0  0  0  0
  -27.6370  -13.3540   19.5790 C   0  0  0  0  0  3  0  0  0  0  0  0
  -28.7560  -13.3060   20.6400 C   0  0  0  0  0  2  0  0  0  0  0  0
  -29.9950  -13.7060   19.9670 N   0  0  0  0  0  0  0  0  0  0  0  0
  -31.8290  -14.9670   19.7010 O   0  0  0  0  0  0  0  0  0  0  0  0
  -29.3810  -18.4180   21.4830 C   0  0  0  0  0  2  0  0  0  0  0  0
  -31.2750  -18.1340   20.1280 C   0  0  0  0  0  2  0  0  0  0  0  0
  -29.5330  -17.0040   19.0730 C   0  0  0  0  0  2  0  0  0  0  0  0
  -29.1440  -19.3820   20.2450 C   0  0  0  0  0  3  0  0  0  0  0  0
  -30.0560  -18.4980   19.2940 C   0  0  0  0  0  3  0  0  0  0  0  0
  -30.4460  -17.2860   21.0820 C   0  0  0  0  0  3  0  0  0  0  0  0
  -29.9230  -16.1400   20.2400 N   0  0  0  0  0  0  0  0  0  0  0  0
  -25.3040  -13.9030   20.4680 C   0  0  0  0  0  0  0  0  0  0  0  0
  -24.2620  -13.1130   20.8720 C   0  0  0  0  0  0  0  0  0  0  0  0
  -24.7250  -11.7640   20.7720 C   0  0  0  0  0  0  0  0  0  0  0  0
  -26.3320  -13.0360   20.1420 N   0  0  0  0  0  0  0  0  0  0  0  0
  -25.9970  -11.7430   20.3880 N   0  0  0  0  0  0  0  0  0  0  0  0
  -24.0120  -10.4940   20.9610 C   0  0  0  0  0  0  0  0  0  0  0  0
  -24.4510   -9.5340   21.8990 C   0  0  0  0  0  3  0  0  0  0  0  0
  -23.7370   -8.3290   22.0780 C   0  0  0  0  0  3  0  0  0  0  0  0
  -22.5700   -8.0770   21.3180 C   0  0  0  0  0  0  0  0  0  0  0  0
  -22.1510   -9.0240   20.3670 C   0  0  0  0  0  3  0  0  0  0  0  0
  -22.8650  -10.2200   20.1880 C   0  0  0  0  0  3  0  0  0  0  0  0
  -21.8280   -6.9250   21.4040 O   0  0  0  0  0  0  0  0  0  0  0  0
  -21.7060   -6.2340   22.5840 C   0  0  0  0  0  0  0  0  0  0  0  0
  -21.1400   -6.8190   23.7380 C   0  0  0  0  0  3  0  0  0  0  0  0
  -20.9720   -6.0510   24.9060 C   0  0  0  0  0  3  0  0  0  0  0  0
  -21.3600   -4.6980   24.9230 C   0  0  0  0  0  0  0  0  0  0  0  0
  -21.9170   -4.1120   23.7730 C   0  0  0  0  0  3  0  0  0  0  0  0
  -22.0860   -4.8770   22.6070 C   0  0  0  0  0  0  0  0  0  0  0  0
  -22.6060   -4.3020   21.4950 F   0  0  0  0  0  0  0  0  0  0  0  0
  -21.1910   -3.9570   26.0430 F   0  0  0  0  0  0  0  0  0  0  0  0
  -22.8810  -13.5760   21.2330 C   0  0  0  0  0  0  0  0  0  0  0  0
  -22.2030  -12.8560   22.1180 N   0  0  0  0  0  0  0  0  0  0  0  0
  -22.4110  -14.6120   20.7620 O   0  0  0  0  0  0  0  0  0  0  0  0
  -22.5950  -12.0180   22.5250 H   0  0  0  0  0  0  0  0  0  0  0  0
  -21.2780  -13.1490   22.3980 H   0  0  0  0  0  0  0  0  0  0  0  0
  -25.4560  -15.2790   20.3280 N   0  0  0  0  0  0  0  0  0  0  0  0
  -24.7060  -15.9320   20.5270 H   0  0  0  0  0  0  0  0  0  0  0  0
  -26.2960  -15.7320   19.9900 H   0  0  0  0  0  0  0  0  0  0  0  0
  -29.0190  -23.5870   20.3400 C   0  0  0  0  0  3  0  0  0  0  0  0
  -28.0250  -24.8540   19.9770 C   0  0  0  0  0  3  0  0  0  0  0  0
  -28.3140  -26.3300   20.2620 O   0  0  0  0  0  0  0  0  0  0  0  0
  -24.6370  -31.8690   23.3080 C   0  0  0  0  0  0  0  0  0  0  0  0
  -27.2550  -27.2850   20.1920 C   0  0  0  0  0  0  0  0  0  0  0  0
  -23.4570  -30.5090   21.6240 C   0  0  0  0  0  3  0  0  0  0  0  0
  -24.9230  -28.9870   20.1740 C   0  0  0  0  0  0  0  0  0  0  0  0
  -26.0080  -30.7980   21.4940 C   0  0  0  0  0  2  0  0  0  0  0  0
  -26.0910  -29.4300   20.8090 C   0  0  0  0  0  0  0  0  0  0  0  0
  -27.2600  -28.5910   20.8080 C   0  0  0  0  0  3  0  0  0  0  0  0
  -26.0690  -26.9390   19.5080 C   0  0  0  0  0  3  0  0  0  0  0  0
  -24.9210  -27.7530   19.5110 C   0  0  0  0  0  3  0  0  0  0  0  0
  -23.6930  -29.8730   20.2300 C   0  0  0  0  0  2  0  0  0  0  0  0
  -24.7200  -31.0770   22.1970 N   0  0  0  0  0  0  0  0  0  0  0  0
  -23.5450  -32.1380   23.8330 O   0  0  0  0  0  0  0  0  0  0  0  0
  -22.7750  -29.4730   22.5520 C   0  0  0  0  0  0  0  0  0  0  0  0
  -21.4500  -29.2990   22.4040 N   0  0  0  0  0  0  0  0  0  0  0  0
  -23.4400  -28.8310   23.3690 O   0  0  0  0  0  0  0  0  0  0  0  0
  -20.9710  -29.8670   21.7190 H   0  0  0  0  0  0  0  0  0  0  0  0
  -18.0600  -28.1110   22.8600 C   0  0  0  0  0  0  0  0  0  0  0  0
  -20.6200  -28.3450   23.1440 C   0  0  0  0  0  3  0  0  0  0  0  0
  -20.7140  -26.9300   22.5280 C   0  0  0  0  0  2  0  0  0  0  0  0
  -19.6130  -26.6450   21.5010 C   0  0  0  0  0  2  0  0  0  0  0  0
  -18.2300  -26.7810   22.1450 C   0  0  0  0  0  2  0  0  0  0  0  0
  -19.1840  -28.8530   23.3150 C   0  0  0  0  0  0  0  0  0  0  0  0
  -18.9700  -30.0980   23.9450 C   0  0  0  0  0  3  0  0  0  0  0  0
  -17.6680  -30.6030   24.1230 C   0  0  0  0  0  3  0  0  0  0  0  0
  -16.5600  -29.8570   23.6840 C   0  0  0  0  0  3  0  0  0  0  0  0
  -16.7570  -28.6130   23.0580 C   0  0  0  0  0  3  0  0  0  0  0  0
  -25.9090  -32.4920   23.9620 C   0  0  0  0  0  3  0  0  0  0  0  0
  -25.6050  -33.8950   24.2800 N   0  0  0  0  0  0  0  0  0  0  0  0
  -25.9210  -34.9400   23.5040 C   0  0  0  0  0  0  0  0  0  0  0  0
  -26.5680  -34.8240   22.4590 O   0  0  0  0  0  0  0  0  0  0  0  0
  -25.0250  -34.0560   25.0910 H   0  0  0  0  0  0  0  0  0  0  0  0
  -24.1680  -36.7190   23.1980 C   0  0  0  0  0  1  0  0  0  0  0  0
  -25.4480  -36.3360   23.9580 C   0  0  0  0  0  3  0  0  0  0  0  0
  -27.6060  -37.2550   24.6850 C   0  0  0  0  0  1  0  0  0  0  0  0
  -26.4680  -37.3920   23.7790 N   0  0  0  0  0  0  0  0  0  0  0  0
  -26.0620  -38.3130   23.9170 H   0  0  0  0  0  0  0  0  0  0  0  0
  -26.3810  -31.7200   25.2550 C   0  0  1  0  0  0  0  0  0  0  0  0
  -25.2550  -31.4930   26.2910 C   0  0  0  0  0  1  0  0  0  0  0  0
  -26.9660  -30.3370   24.8870 C   0  0  0  0  0  1  0  0  0  0  0  0
  -27.5190  -32.5070   25.9450 C   0  0  0  0  0  1  0  0  0  0  0  0
  1  4  2  0
  2  3  1  0
  3 48  1  0
  3  1  1  0
  5 19  1  0
  6 11  1  0
  7  8  1  0
  7  6  1  0
  9  8  1  0
  9 23  1  0
  9 10  1  0
 11  5  1  0
 11 10  1  0
 12  5  2  0
 15 19  1  0
 16  1  1  0
 16 13  1  0
 17 15  1  0
 17 14  1  0
 17 16  1  0
 18 14  1  0
 18 13  1  0
 19 18  1  0
 20 21  2  0
 21 40  1  0
 22 21  1  0
 22 25  1  0
 23 24  1  0
 23 20  1  0
 24 22  2  0
 25 26  1  0
 26 27  2  0
 28 31  1  0
 28 27  1  0
 29 28  2  0
 30 29  1  0
 30 25  2  0
 31 32  1  0
 32 37  2  0
 32 33  1  0
 33 34  2  0
 34 35  1  0
 35 39  1  0
 36 35  2  0
 37 36  1  0
 38 37  1  0
 40 41  1  0
 41 44  1  0
 41 43  1  0
 42 40  2  0
 45 20  1  0
 45 46  1  0
 47 45  1  0
 49 50  1  0
 49 48  2  0
 51 62  2  0
 52 50  1  0
 52 57  1  0
 53 61  1  0
 53 63  1  0
 54 60  1  0
 54 56  1  0
 55 61  1  0
 56 55  1  0
 57 56  2  0
 58 59  1  0
 58 52  2  0
 59 54  2  0
 60 53  1  0
 61 51  1  0
 63 65  2  0
 64 63  1  0
 66 64  1  0
 67 76  2  0
 67 72  1  0
 68 64  1  0
 68 72  1  0
 69 68  1  0
 70 71  1  0
 70 69  1  0
 71 67  1  0
 72 73  2  0
 73 74  1  0
 75 74  2  0
 76 75  1  0
 77 51  1  0
 77 78  1  0
 77 87  1  0
 78 81  1  0
 79 83  1  0
 79 78  1  0
 80 79  2  0
 83 82  1  0
 85 86  1  0
 85 83  1  0
 85 84  1  0
 87 90  1  1
 87 88  1  0
 89 87  1  0
M  ISO  4   5 100  19 100  49 101  50 101
M  END
>  <TORSDO>  (7) 
F 18

>  <SCORE>  (7) 
-14.150

>  <name>  (7) 
6

>  <ligand_id>  (7) 
6

>  <original_smiles>  (7) 
[H]c1c([H])c([H])c2c(c1[H])C([H])([H])C([H])([H])C([H])([H])C2([H])N([H])C(=O)C1([H])N(C(=O)C([H])(N([H])C(=O)C([H])(N([H])C([H])([H])[H])C([H])([H])[H])C(C([H])([H])[H])(C([H])([H])[H])C([H])([H])[H])C([H])([H])c2c([H])c(OC([H])([H])C([H])([H])N(C(=O)C3([H])C([H])([H])C4([H])N(C(=O)N5C([H])([H])C([H])([H])C([H])([H])C([H])(n6nc(-c7c([H])c([H])c(Oc8c([H])c([H])c(F)c([H])c8F)c([H])c7[H])c(C(=O)N([H])[H])c6N([H])[H])C5([H])[H])C([H])([H])C3([H])C4([H])[H])C([H])([H])[H])c([H])c([H])c2C1([H])[H]

>  <smiles>  (7) 
[H]c1c([H])c([H])c2c(c1[H])C([H])([H])C([H])([H])C([H])([H])C2([H])N([H])C(=O)C1([H])N(C(=O)C([H])(N([H])C(=O)C([H])(N([H])C([H])([H])[H])C([H])([H])[H])C(C([H])([H])[H])(C([H])([H])[H])C([H])([H])[H])C([H])([H])c2c([H])c(OC([H])([H])C([H])([H])N(C(=O)C3([H])C([H])([H])C4([H])N(C(=O)N5C([H])([H])C([H])([H])C([H])([H])C([H])(n6nc(-c7c([H])c([H])c(Oc8c([H])c([H])c(F)c([H])c8F)c([H])c7[H])c(C(=O)N([H])[H])c6N([H])[H])C5([H])[H])C([H])([H])C3([H])C4([H])[H])C([H])([H])[H])c([H])c([H])c2C1([H])[H]

$$$$
7:0:0
     RDKit          3D

 91100  0  0  1  0  0  0  0  0999 V2000
  -26.0210  -18.6820   19.3430 C   0  0  0  0  0  2  0  0  0  0  0  0
  -27.2710  -17.9130   18.9220 C   0  0  0  0  0  2  0  0  0  0  0  0
  -27.5620  -20.7370   20.0430 C   0  0  0  0  0  2  0  0  0  0  0  0
  -26.8860  -19.4250   20.3700 C   0  0  0  0  0  3  0  0  0  0  0  0
  -27.9390  -18.3500   20.2440 C   0  0  0  0  0  3  0  0  0  0  0  0
  -29.3230  -18.9840   20.1830 C   0  0  0  0  0  3  0  0  0  0  0  0
  -28.9540  -20.4490   19.5830 N   0  0  2  0  0  4  0  0  0  0  0  0
  -28.8460  -20.2700   18.5970 H   0  0  0  0  0  0  0  0  0  0  0  0
  -30.3030  -17.7420   19.5740 C   0  0  0  0  0  2  0  0  0  0  0  0
  -30.9450  -15.0360   19.9030 C   0  0  0  0  0  0  0  0  0  0  0  0
  -30.8310  -12.6120   19.1560 C   0  0  0  0  0  2  0  0  0  0  0  0
  -29.8490  -12.4640   17.9700 C   0  0  0  0  0  2  0  0  0  0  0  0
  -28.4100  -12.2590   18.4790 C   0  0  0  0  0  2  0  0  0  0  0  0
  -28.0360  -13.2570   19.6050 C   0  0  0  0  0  3  0  0  0  0  0  0
  -29.1390  -13.3730   20.6810 C   0  0  0  0  0  2  0  0  0  0  0  0
  -30.3760  -13.7630   19.9910 N   0  0  0  0  0  0  0  0  0  0  0  0
  -32.1190  -15.0990   19.5240 O   0  0  0  0  0  0  0  0  0  0  0  0
  -30.1530  -16.2160   20.0300 N   0  0  0  0  0  0  0  0  0  0  0  0
  -29.2280  -16.0000   20.3670 H   0  0  0  0  0  0  0  0  0  0  0  0
  -25.7300  -13.8510   20.5450 C   0  0  0  0  0  0  0  0  0  0  0  0
  -24.6720  -13.0870   20.9470 C   0  0  0  0  0  0  0  0  0  0  0  0
  -25.0960  -11.7300   20.8180 C   0  0  0  0  0  0  0  0  0  0  0  0
  -26.7300  -12.9640   20.1850 N   0  0  0  0  0  0  0  0  0  0  0  0
  -26.3610  -11.6770   20.4170 N   0  0  0  0  0  0  0  0  0  0  0  0
  -24.3470  -10.4810   21.0000 C   0  0  0  0  0  0  0  0  0  0  0  0
  -24.7440   -9.5140   21.9490 C   0  0  0  0  0  3  0  0  0  0  0  0
  -23.9940   -8.3310   22.1210 C   0  0  0  0  0  3  0  0  0  0  0  0
  -22.8330   -8.1070   21.3410 C   0  0  0  0  0  0  0  0  0  0  0  0
  -22.4560   -9.0630   20.3820 C   0  0  0  0  0  3  0  0  0  0  0  0
  -23.2070  -10.2380   20.2080 C   0  0  0  0  0  3  0  0  0  0  0  0
  -22.0580   -6.9750   21.4210 O   0  0  0  0  0  0  0  0  0  0  0  0
  -21.8790   -6.3090   22.6060 C   0  0  0  0  0  0  0  0  0  0  0  0
  -21.2890   -6.9290   23.7300 C   0  0  0  0  0  3  0  0  0  0  0  0
  -21.0600   -6.1860   24.9050 C   0  0  0  0  0  3  0  0  0  0  0  0
  -21.4090   -4.8240   24.9570 C   0  0  0  0  0  0  0  0  0  0  0  0
  -21.9910   -4.2020   23.8380 C   0  0  0  0  0  3  0  0  0  0  0  0
  -22.2220   -4.9430   22.6640 C   0  0  0  0  0  0  0  0  0  0  0  0
  -22.7630   -4.3340   21.5820 F   0  0  0  0  0  0  0  0  0  0  0  0
  -21.1820   -4.1070   26.0830 F   0  0  0  0  0  0  0  0  0  0  0  0
  -23.3110  -13.5890   21.3320 C   0  0  0  0  0  0  0  0  0  0  0  0
  -22.6230  -12.8740   22.2160 N   0  0  0  0  0  0  0  0  0  0  0  0
  -22.8720  -14.6500   20.8900 O   0  0  0  0  0  0  0  0  0  0  0  0
  -22.9940  -12.0150   22.5940 H   0  0  0  0  0  0  0  0  0  0  0  0
  -21.7120  -13.1900   22.5170 H   0  0  0  0  0  0  0  0  0  0  0  0
  -25.9120  -15.2220   20.4350 N   0  0  0  0  0  0  0  0  0  0  0  0
  -25.1610  -15.8740   20.6260 H   0  0  0  0  0  0  0  0  0  0  0  0
  -26.7300  -15.6630   20.0410 H   0  0  0  0  0  0  0  0  0  0  0  0
  -29.7390  -21.8260   19.6190 C   0  0  0  0  0  2  0  0  0  0  0  0
  -29.1540  -23.3520   20.1540 C   0  0  0  0  0  2  0  0  0  0  0  0
  -28.5280  -24.6970   19.3460 C   0  0  0  0  0  2  0  0  0  0  0  0
  -28.4890  -26.1820   19.8520 O   0  0  0  0  0  0  0  0  0  0  0  0
  -24.6080  -31.5750   23.0120 C   0  0  0  0  0  0  0  0  0  0  0  0
  -27.3910  -27.1190   19.7680 C   0  0  0  0  0  0  0  0  0  0  0  0
  -23.4860  -30.2580   21.2550 C   0  0  0  0  0  3  0  0  0  0  0  0
  -25.0110  -28.8110   19.7740 C   0  0  0  0  0  0  0  0  0  0  0  0
  -26.0360  -30.5920   21.1790 C   0  0  0  0  0  2  0  0  0  0  0  0
  -26.1610  -29.2460   20.4450 C   0  0  0  0  0  0  0  0  0  0  0  0
  -27.3440  -28.4150   20.4280 C   0  0  0  0  0  3  0  0  0  0  0  0
  -26.2140  -26.7940   19.0530 C   0  0  0  0  0  3  0  0  0  0  0  0
  -25.0530  -27.6000   19.0650 C   0  0  0  0  0  3  0  0  0  0  0  0
  -23.7590  -29.6730   19.8430 C   0  0  0  0  0  2  0  0  0  0  0  0
  -24.7270  -30.8280   21.8720 N   0  0  0  0  0  0  0  0  0  0  0  0
  -23.5030  -31.8030   23.5260 O   0  0  0  0  0  0  0  0  0  0  0  0
  -22.8080  -29.1770   22.1340 C   0  0  0  0  0  0  0  0  0  0  0  0
  -21.4720  -29.0500   22.0320 N   0  0  0  0  0  0  0  0  0  0  0  0
  -23.4850  -28.4590   22.8740 O   0  0  0  0  0  0  0  0  0  0  0  0
  -20.9800  -29.6770   21.4130 H   0  0  0  0  0  0  0  0  0  0  0  0
  -18.0700  -27.9300   22.5720 C   0  0  0  0  0  0  0  0  0  0  0  0
  -20.6490  -28.0580   22.7310 C   0  0  0  0  0  3  0  0  0  0  0  0
  -20.6580  -26.7020   21.9880 C   0  0  0  0  0  2  0  0  0  0  0  0
  -19.4950  -26.5480   21.0020 C   0  0  0  0  0  2  0  0  0  0  0  0
  -18.1550  -26.6640   21.7370 C   0  0  0  0  0  2  0  0  0  0  0  0
  -19.2410  -28.5920   23.0260 C   0  0  0  0  0  0  0  0  0  0  0  0
  -19.1060  -29.7820   23.7750 C   0  0  0  0  0  3  0  0  0  0  0  0
  -17.8340  -30.3070   24.0720 C   0  0  0  0  0  3  0  0  0  0  0  0
  -16.6790  -29.6390   23.6300 C   0  0  0  0  0  3  0  0  0  0  0  0
  -16.7980  -28.4530   22.8850 C   0  0  0  0  0  3  0  0  0  0  0  0
  -25.8550  -32.2010   23.7120 C   0  0  0  0  0  3  0  0  0  0  0  0
  -26.3210  -31.3870   24.9830 C   0  0  1  0  0  0  0  0  0  0  0  0
  -25.1890  -31.1260   26.0050 C   0  0  0  0  0  1  0  0  0  0  0  0
  -26.9080  -30.0160   24.5770 C   0  0  0  0  0  1  0  0  0  0  0  0
  -27.4530  -32.1520   25.7080 C   0  0  0  0  0  1  0  0  0  0  0  0
  -25.5140  -33.5820   24.0870 N   0  0  0  0  0  0  0  0  0  0  0  0
  -25.8540  -34.6700   23.3840 C   0  0  0  0  0  0  0  0  0  0  0  0
  -26.5540  -34.6170   22.3690 O   0  0  0  0  0  0  0  0  0  0  0  0
  -24.8970  -33.6970   24.8780 H   0  0  0  0  0  0  0  0  0  0  0  0
  -24.1050  -36.4510   23.0610 C   0  0  0  0  0  1  0  0  0  0  0  0
  -25.3340  -36.0340   23.8840 C   0  0  0  0  0  3  0  0  0  0  0  0
  -27.4300  -36.9280   24.8030 C   0  0  0  0  0  1  0  0  0  0  0  0
  -26.3530  -37.1050   23.8330 N   0  0  0  0  0  0  0  0  0  0  0  0
  -25.9280  -38.0160   23.9910 H   0  0  0  0  0  0  0  0  0  0  0  0
  2  1  1  0
  3  4  1  0
  4  1  1  0
  5  2  1  0
  5  4  1  0
  6  9  1  0
  6  5  1  0
  7 48  1  0
  7  3  1  0
  7  6  1  0
  7  8  1  6
  9 18  1  0
 10 16  1  0
 10 18  1  0
 11 16  1  0
 12 13  1  0
 12 11  1  0
 14 13  1  0
 14 23  1  0
 14 15  1  0
 16 15  1  0
 17 10  2  0
 18 19  1  0
 20 21  2  0
 21 40  1  0
 22 21  1  0
 22 25  1  0
 23 24  1  0
 23 20  1  0
 24 22  2  0
 25 26  1  0
 26 27  2  0
 28 31  1  0
 28 27  1  0
 29 28  2  0
 30 29  1  0
 30 25  2  0
 31 32  1  0
 32 37  2  0
 32 33  1  0
 33 34  2  0
 34 35  1  0
 35 39  1  0
 36 35  2  0
 37 36  1  0
 38 37  1  0
 40 41  1  0
 41 44  1  0
 41 43  1  0
 42 40  2  0
 45 20  1  0
 45 46  1  0
 47 45  1  0
 48 49  1  0
 50 51  1  0
 50 49  1  0
 52 63  2  0
 53 51  1  0
 53 58  1  0
 54 62  1  0
 54 64  1  0
 55 61  1  0
 55 57  1  0
 56 62  1  0
 57 56  1  0
 58 57  2  0
 59 60  1  0
 59 53  2  0
 60 55  2  0
 61 54  1  0
 62 52  1  0
 64 66  2  0
 65 64  1  0
 67 65  1  0
 68 77  2  0
 68 73  1  0
 69 65  1  0
 69 73  1  0
 70 69  1  0
 71 72  1  0
 71 70  1  0
 72 68  1  0
 73 74  2  0
 74 75  1  0
 76 75  2  0
 77 76  1  0
 78 52  1  0
 78 83  1  0
 78 79  1  0
 79 82  1  1
 79 80  1  0
 81 79  1  0
 83 86  1  0
 84 88  1  0
 84 83  1  0
 85 84  2  0
 88 87  1  0
 90 88  1  0
 90 91  1  0
 90 89  1  0
M  ISO  4  10 100  18 100  50 101  51 101
M  END
>  <TORSDO>  (8) 
F 20

>  <SCORE>  (8) 
-12.763

>  <name>  (8) 
7

>  <ligand_id>  (8) 
7

>  <original_smiles>  (8) 
[H]c1c([H])c([H])c2c(c1[H])C([H])([H])C([H])([H])C([H])([H])C2([H])N([H])C(=O)C1([H])N(C(=O)C([H])(N([H])C(=O)C([H])(N([H])C([H])([H])[H])C([H])([H])[H])C(C([H])([H])[H])(C([H])([H])[H])C([H])([H])[H])C([H])([H])c2c([H])c(OC([H])([H])C([H])([H])C([H])([H])[N+]3([H])C([H])([H])C4([H])C([H])([H])C([H])([H])C4([H])C3([H])C([H])([H])N([H])C(=O)N3C([H])([H])C([H])([H])C([H])([H])C([H])(n4nc(-c5c([H])c([H])c(Oc6c([H])c([H])c(F)c([H])c6F)c([H])c5[H])c(C(=O)N([H])[H])c4N([H])[H])C3([H])[H])c([H])c([H])c2C1([H])[H]

>  <smiles>  (8) 
[H]c1c([H])c([H])c2c(c1[H])C([H])([H])C([H])([H])C([H])([H])C2([H])N([H])C(=O)C1([H])N(C(=O)C([H])(N([H])C(=O)C([H])(N([H])C([H])([H])[H])C([H])([H])[H])C(C([H])([H])[H])(C([H])([H])[H])C([H])([H])[H])C([H])([H])c2c([H])c(OC([H])([H])C([H])([H])C([H])([H])[N+]3([H])C([H])([H])C4([H])C([H])([H])C([H])([H])C4([H])C3([H])C([H])([H])N([H])C(=O)N3C([H])([H])C([H])([H])C([H])([H])C([H])(n4nc(-c5c([H])c([H])c(Oc6c([H])c([H])c(F)c([H])c6F)c([H])c5[H])c(C(=O)N([H])[H])c4N([H])[H])C3([H])[H])c([H])c([H])c2C1([H])[H]

$$$$
8:0:0
     RDKit          3D

 95103  0  0  1  0  0  0  0  0999 V2000
  -29.5070  -22.7310   21.6660 C   0  0  0  0  0  3  0  0  0  0  0  0
  -28.7580  -21.2350   19.9470 C   0  0  0  0  0  3  0  0  0  0  0  0
  -28.7480  -22.6940   20.4850 C   0  0  0  0  0  0  0  0  0  0  0  0
  -30.1700  -21.6000   22.2300 C   0  0  0  0  0  0  0  0  0  0  0  0
  -29.4480  -19.9390   20.4750 C   0  0  0  0  0  0  0  0  0  0  0  0
  -30.1670  -20.2740   21.6650 C   0  0  0  0  0  0  0  0  0  0  0  0
  -30.9320  -21.8700   23.5230 C   0  0  0  0  0  1  0  0  0  0  0  0
  -31.0060  -19.2090   22.3680 C   0  0  0  0  0  1  0  0  0  0  0  0
  -27.9260  -24.1920   20.0190 C   0  0  0  0  0  2  0  0  0  0  0  0
  -28.1630  -25.8100   20.3450 O   0  0  0  0  0  0  0  0  0  0  0  0
  -24.6410  -31.8810   23.2130 C   0  0  0  0  0  0  0  0  0  0  0  0
  -27.1760  -26.9400   20.2400 C   0  0  0  0  0  0  0  0  0  0  0  0
  -23.4440  -30.4790   21.5820 C   0  0  0  0  0  3  0  0  0  0  0  0
  -24.8890  -28.8550   20.1710 C   0  0  0  0  0  0  0  0  0  0  0  0
  -26.0120  -30.6690   21.4430 C   0  0  0  0  0  2  0  0  0  0  0  0
  -26.0780  -29.2510   20.7960 C   0  0  0  0  0  0  0  0  0  0  0  0
  -27.2130  -28.3150   20.8070 C   0  0  0  0  0  3  0  0  0  0  0  0
  -25.9590  -26.7100   19.5580 C   0  0  0  0  0  3  0  0  0  0  0  0
  -24.8580  -27.6060   19.5300 C   0  0  0  0  0  3  0  0  0  0  0  0
  -23.6750  -29.7850   20.2110 C   0  0  0  0  0  2  0  0  0  0  0  0
  -24.7220  -31.0390   22.1310 N   0  0  0  0  0  0  0  0  0  0  0  0
  -23.5520  -32.1800   23.7310 O   0  0  0  0  0  0  0  0  0  0  0  0
  -22.7440  -29.4940   22.5540 C   0  0  0  0  0  0  0  0  0  0  0  0
  -21.4130  -29.3370   22.4330 N   0  0  0  0  0  0  0  0  0  0  0  0
  -23.4060  -28.8710   23.3880 O   0  0  0  0  0  0  0  0  0  0  0  0
  -20.9300  -29.8920   21.7400 H   0  0  0  0  0  0  0  0  0  0  0  0
  -18.0240  -28.1440   22.9560 C   0  0  0  0  0  0  0  0  0  0  0  0
  -20.5860  -28.4080   23.2120 C   0  0  0  0  0  3  0  0  0  0  0  0
  -20.6820  -26.9710   22.6490 C   0  0  0  0  0  2  0  0  0  0  0  0
  -19.5780  -26.6440   21.6380 C   0  0  0  0  0  2  0  0  0  0  0  0
  -18.1980  -26.7920   22.2840 C   0  0  0  0  0  2  0  0  0  0  0  0
  -19.1450  -28.9090   23.3780 C   0  0  0  0  0  0  0  0  0  0  0  0
  -18.9260  -30.1710   23.9710 C   0  0  0  0  0  3  0  0  0  0  0  0
  -17.6220  -30.6710   24.1440 C   0  0  0  0  0  3  0  0  0  0  0  0
  -16.5150  -29.9040   23.7350 C   0  0  0  0  0  3  0  0  0  0  0  0
  -16.7180  -28.6430   23.1480 C   0  0  0  0  0  3  0  0  0  0  0  0
  -25.9120  -32.5270   23.8430 C   0  0  0  0  0  3  0  0  0  0  0  0
  -25.5920  -33.9230   24.1860 N   0  0  0  0  0  0  0  0  0  0  0  0
  -25.9130  -34.9920   23.4420 C   0  0  0  0  0  0  0  0  0  0  0  0
  -26.5730  -34.9030   22.4040 O   0  0  0  0  0  0  0  0  0  0  0  0
  -25.0030  -34.0650   24.9920 H   0  0  0  0  0  0  0  0  0  0  0  0
  -24.1760  -36.7920   23.1410 C   0  0  0  0  0  1  0  0  0  0  0  0
  -25.4310  -36.3760   23.9260 C   0  0  0  0  0  3  0  0  0  0  0  0
  -27.5730  -37.2660   24.7370 C   0  0  0  0  0  1  0  0  0  0  0  0
  -26.4580  -37.4330   23.8080 N   0  0  0  0  0  0  0  0  0  0  0  0
  -26.0500  -38.3510   23.9650 H   0  0  0  0  0  0  0  0  0  0  0  0
  -26.4240  -31.7590   25.1270 C   0  0  1  0  0  0  0  0  0  0  0  0
  -25.3260  -31.5260   26.1920 C   0  0  0  0  0  1  0  0  0  0  0  0
  -27.0110  -30.3800   24.7520 C   0  0  0  0  0  1  0  0  0  0  0  0
  -27.5710  -32.5580   25.7910 C   0  0  0  0  0  1  0  0  0  0  0  0
  -29.6390  -18.2990   19.7970 C   0  0  0  0  0  0  0  0  0  0  0  0
  -30.4460  -15.4140   20.1720 C   0  0  0  0  0  0  0  0  0  0  0  0
  -30.4370  -12.9440   19.3290 C   0  0  0  0  0  2  0  0  0  0  0  0
  -29.5000  -12.7080   18.1130 C   0  0  0  0  0  2  0  0  0  0  0  0
  -28.0750  -12.3990   18.5920 C   0  0  0  0  0  2  0  0  0  0  0  0
  -27.6240  -13.3740   19.7050 C   0  0  0  0  0  3  0  0  0  0  0  0
  -28.6850  -13.5590   20.8140 C   0  0  0  0  0  2  0  0  0  0  0  0
  -29.9020  -14.0880   20.1700 N   0  0  0  0  0  0  0  0  0  0  0  0
  -31.6360  -15.4170   19.8250 O   0  0  0  0  0  0  0  0  0  0  0  0
  -29.6910  -16.6970   20.3720 N   0  0  0  0  0  4  0  0  0  0  0  0
  -28.8100  -16.4780   20.8130 H   0  0  0  0  0  0  0  0  0  0  0  0
  -25.2650  -13.9100   20.5060 C   0  0  0  0  0  0  0  0  0  0  0  0
  -24.2140  -13.1240   20.8880 C   0  0  0  0  0  0  0  0  0  0  0  0
  -24.6870  -11.7750   20.8340 C   0  0  0  0  0  0  0  0  0  0  0  0
  -26.3080  -13.0430   20.2350 N   0  0  0  0  0  0  0  0  0  0  0  0
  -25.9740  -11.7520   20.4990 N   0  0  0  0  0  0  0  0  0  0  0  0
  -23.9690  -10.5100   21.0250 C   0  0  0  0  0  0  0  0  0  0  0  0
  -24.4110   -9.5390   21.9510 C   0  0  0  0  0  3  0  0  0  0  0  0
  -23.6890   -8.3390   22.1310 C   0  0  0  0  0  3  0  0  0  0  0  0
  -22.5090   -8.1010   21.3840 C   0  0  0  0  0  0  0  0  0  0  0  0
  -22.0870   -9.0600   20.4460 C   0  0  0  0  0  3  0  0  0  0  0  0
  -22.8100  -10.2500   20.2650 C   0  0  0  0  0  3  0  0  0  0  0  0
  -21.7570   -6.9530   21.4760 O   0  0  0  0  0  0  0  0  0  0  0  0
  -21.7070   -6.2150   22.6320 C   0  0  0  0  0  0  0  0  0  0  0  0
  -21.2650   -6.7710   23.8530 C   0  0  0  0  0  3  0  0  0  0  0  0
  -21.1610   -5.9580   24.9990 C   0  0  0  0  0  3  0  0  0  0  0  0
  -21.4920   -4.5910   24.9250 C   0  0  0  0  0  0  0  0  0  0  0  0
  -21.9280   -4.0360   23.7090 C   0  0  0  0  0  3  0  0  0  0  0  0
  -22.0320   -4.8460   22.5650 C   0  0  0  0  0  0  0  0  0  0  0  0
  -22.4320   -4.3010   21.3910 F   0  0  0  0  0  0  0  0  0  0  0  0
  -21.3850   -3.8080   26.0240 F   0  0  0  0  0  0  0  0  0  0  0  0
  -22.8210  -13.5920   21.1840 C   0  0  0  0  0  0  0  0  0  0  0  0
  -22.1060  -12.8850   22.0520 N   0  0  0  0  0  0  0  0  0  0  0  0
  -22.3750  -14.6220   20.6800 O   0  0  0  0  0  0  0  0  0  0  0  0
  -22.4820  -12.0540   22.4860 H   0  0  0  0  0  0  0  0  0  0  0  0
  -21.1710  -13.1820   22.2890 H   0  0  0  0  0  0  0  0  0  0  0  0
  -25.4150  -15.2820   20.3380 N   0  0  0  0  0  0  0  0  0  0  0  0
  -24.6380  -15.9230   20.4640 H   0  0  0  0  0  0  0  0  0  0  0  0
  -26.2350  -15.7310   19.9520 H   0  0  0  0  0  0  0  0  0  0  0  0
  -28.7540  -18.2340   18.5210 C   0  0  0  0  0  2  0  0  0  0  0  0
  -29.4700  -18.4870   17.1690 C   0  0  0  0  0  2  0  0  0  0  0  0
  -29.6470  -19.9140   16.8370 N   0  0  0  0  0  4  0  0  0  0  0  0
  -28.7610  -20.3870   16.8000 H   0  0  0  0  0  0  0  0  0  0  0  0
  -30.0660  -19.9930   15.9260 H   0  0  0  0  0  0  0  0  0  0  0  0
  -30.2510  -20.3740   17.4920 H   0  0  0  0  0  0  0  0  0  0  0  0
  1  4  1  0
  2  5  2  0
  2  3  1  0
  3  1  2  0
  4  7  1  0
  5  6  1  0
  6  4  2  0
  6  8  1  0
  9 10  1  0
  9  3  1  0
 11 22  2  0
 12 10  1  0
 12 17  1  0
 13 21  1  0
 13 23  1  0
 14 20  1  0
 14 16  1  0
 15 21  1  0
 16 17  2  0
 16 15  1  0
 18 12  2  0
 19 18  1  0
 19 14  2  0
 20 13  1  0
 21 11  1  0
 23 25  2  0
 24 23  1  0
 26 24  1  0
 27 36  2  0
 27 32  1  0
 28 24  1  0
 28 32  1  0
 29 28  1  0
 30 31  1  0
 30 29  1  0
 31 27  1  0
 32 33  2  0
 33 34  1  0
 35 34  2  0
 36 35  1  0
 37 11  1  0
 37 38  1  0
 37 47  1  0
 38 41  1  0
 39 43  1  0
 39 38  1  0
 40 39  2  0
 43 42  1  0
 45 43  1  0
 45 46  1  0
 45 44  1  0
 47 50  1  1
 47 48  1  0
 49 47  1  0
 51 60  2  3
 51  5  1  0
 52 60  1  0
 53 58  1  0
 54 55  1  0
 54 53  1  0
 56 55  1  0
 56 65  1  0
 56 57  1  0
 58 52  1  0
 58 57  1  0
 59 52  2  0
 60 61  1  0
 62 63  2  0
 63 82  1  0
 64 63  1  0
 64 67  1  0
 65 66  1  0
 65 62  1  0
 66 64  2  0
 67 68  1  0
 68 69  2  0
 70 73  1  0
 70 69  1  0
 71 70  2  0
 72 71  1  0
 72 67  2  0
 73 74  1  0
 74 75  1  0
 75 76  2  0
 77 76  1  0
 77 81  1  0
 78 77  2  0
 79 74  2  0
 79 78  1  0
 80 79  1  0
 82 83  1  0
 83 86  1  0
 83 85  1  0
 84 82  2  0
 87 88  1  0
 87 62  1  0
 89 87  1  0
 90 51  1  0
 91 90  1  0
 92 91  1  0
 92 95  1  0
 93 92  1  0
 94 92  1  0
M  ISO  4   9 101  10 101  52 100  60 100
M  END
>  <TORSDO>  (9) 
F 21

>  <SCORE>  (9) 
-16.072

>  <name>  (9) 
8

>  <ligand_id>  (9) 
8

>  <original_smiles>  (9) 
[H]c1c([H])c([H])c2c(c1[H])C([H])([H])C([H])([H])C([H])([H])C2([H])N([H])C(=O)C1([H])N(C(=O)C([H])(N([H])C(=O)C([H])(N([H])C([H])([H])[H])C([H])([H])[H])C(C([H])([H])[H])(C([H])([H])[H])C([H])([H])[H])C([H])([H])c2c([H])c(OC([H])([H])c3c([H])c(C([H])([H])[H])c(C([H])([H])[H])c(C([H])(N([H])C(=O)N4C([H])([H])C([H])([H])C([H])([H])C([H])(n5nc(-c6c([H])c([H])c(Oc7c([H])c([H])c(F)c([H])c7F)c([H])c6[H])c(C(=O)N([H])[H])c5N([H])[H])C4([H])[H])C([H])([H])C([H])([H])[N+]([H])([H])[H])c3[H])c([H])c([H])c2C1([H])[H]

>  <smiles>  (9) 
[H]c1c([H])c([H])c2c(c1[H])C([H])([H])C([H])([H])C([H])([H])C2([H])N([H])C(=O)C1([H])N(C(=O)C([H])(N([H])C(=O)C([H])(N([H])C([H])([H])[H])C([H])([H])[H])C(C([H])([H])[H])(C([H])([H])[H])C([H])([H])[H])C([H])([H])c2c([H])c(OC([H])([H])c3c([H])c(C([H])([H])[H])c(C([H])([H])[H])c(C([H])(N([H])C(=O)N4C([H])([H])C([H])([H])C([H])([H])C([H])(n5nc(-c6c([H])c([H])c(Oc7c([H])c([H])c(F)c([H])c7F)c([H])c6[H])c(C(=O)N([H])[H])c5N([H])[H])C4([H])[H])C([H])([H])C([H])([H])[N+]([H])([H])[H])c3[H])c([H])c([H])c2C1([H])[H]

$$$$
9:0:0
     RDKit          3D

 88 96  0  0  1  0  0  0  0  0999 V2000
  -29.9240  -22.2780   19.4340 C   0  0  0  0  0  3  0  0  0  0  0  0
  -30.3530  -20.8590   19.4240 C   0  0  0  0  0  3  0  0  0  0  0  0
  -27.8180  -21.5790   20.0430 C   0  0  0  0  0  3  0  0  0  0  0  0
  -28.6040  -22.7830   19.7580 C   0  0  0  0  0  0  0  0  0  0  0  0
  -29.5700  -19.6570   19.7010 C   0  0  0  0  0  0  0  0  0  0  0  0
  -28.2410  -20.1490   20.0280 C   0  0  0  0  0  0  0  0  0  0  0  0
  -27.1990  -19.1060   20.3830 C   0  0  0  0  0  1  0  0  0  0  0  0
  -30.2880  -18.0720   19.7300 C   0  0  0  0  0  2  0  0  0  0  0  0
  -30.5780  -15.2270   19.7740 C   0  0  0  0  0  0  0  0  0  0  0  0
  -30.4580  -12.7880   18.9380 C   0  0  0  0  0  2  0  0  0  0  0  0
  -29.4480  -12.5960   17.7800 C   0  0  0  0  0  2  0  0  0  0  0  0
  -28.0340  -12.3430   18.3320 C   0  0  0  0  0  2  0  0  0  0  0  0
  -27.6750  -13.3160   19.4830 C   0  0  0  0  0  3  0  0  0  0  0  0
  -28.8050  -13.4660   20.5230 C   0  0  0  0  0  2  0  0  0  0  0  0
  -29.9910  -13.9380   19.7910 N   0  0  0  0  0  0  0  0  0  0  0  0
  -31.7720  -15.2220   19.4470 O   0  0  0  0  0  0  0  0  0  0  0  0
  -29.8520  -16.4980   19.9110 N   0  0  0  0  0  0  0  0  0  0  0  0
  -28.8760  -16.3720   20.1350 H   0  0  0  0  0  0  0  0  0  0  0  0
  -25.3950  -13.8860   20.4750 C   0  0  0  0  0  0  0  0  0  0  0  0
  -24.3520  -13.1120   20.9010 C   0  0  0  0  0  0  0  0  0  0  0  0
  -24.7820  -11.7550   20.7620 C   0  0  0  0  0  0  0  0  0  0  0  0
  -26.3900  -13.0030   20.0950 N   0  0  0  0  0  0  0  0  0  0  0  0
  -26.0390  -11.7120   20.3340 N   0  0  0  0  0  0  0  0  0  0  0  0
  -24.0440  -10.4990   20.9540 C   0  0  0  0  0  0  0  0  0  0  0  0
  -24.4820   -9.5170   21.8690 C   0  0  0  0  0  3  0  0  0  0  0  0
  -23.7430   -8.3280   22.0510 C   0  0  0  0  0  3  0  0  0  0  0  0
  -22.5510   -8.1140   21.3180 C   0  0  0  0  0  0  0  0  0  0  0  0
  -22.1320   -9.0850   20.3920 C   0  0  0  0  0  3  0  0  0  0  0  0
  -22.8720  -10.2650   20.2080 C   0  0  0  0  0  3  0  0  0  0  0  0
  -21.7820   -6.9790   21.4110 O   0  0  0  0  0  0  0  0  0  0  0  0
  -21.6760   -6.2750   22.5840 C   0  0  0  0  0  0  0  0  0  0  0  0
  -21.1880   -6.8690   23.7680 C   0  0  0  0  0  3  0  0  0  0  0  0
  -21.0300   -6.0910   24.9340 C   0  0  0  0  0  3  0  0  0  0  0  0
  -21.3500   -4.7210   24.9140 C   0  0  0  0  0  0  0  0  0  0  0  0
  -21.8310   -4.1260   23.7340 C   0  0  0  0  0  3  0  0  0  0  0  0
  -21.9900   -4.9020   22.5710 C   0  0  0  0  0  0  0  0  0  0  0  0
  -22.4340   -4.3180   21.4320 F   0  0  0  0  0  0  0  0  0  0  0  0
  -21.1920   -3.9710   26.0300 F   0  0  0  0  0  0  0  0  0  0  0  0
  -22.9960  -13.6010   21.3170 C   0  0  0  0  0  0  0  0  0  0  0  0
  -22.3320  -12.8810   22.2120 N   0  0  0  0  0  0  0  0  0  0  0  0
  -22.5390  -14.6580   20.8820 O   0  0  0  0  0  0  0  0  0  0  0  0
  -22.7180  -12.0260   22.5830 H   0  0  0  0  0  0  0  0  0  0  0  0
  -21.4250  -13.1890   22.5320 H   0  0  0  0  0  0  0  0  0  0  0  0
  -25.5700  -15.2610   20.3480 N   0  0  0  0  0  0  0  0  0  0  0  0
  -24.8240  -15.9170   20.5490 H   0  0  0  0  0  0  0  0  0  0  0  0
  -26.3770  -15.6970   19.9210 H   0  0  0  0  0  0  0  0  0  0  0  0
  -27.9240  -24.3640   19.5230 C   0  0  0  0  0  2  0  0  0  0  0  0
  -28.2570  -25.8930   19.9590 O   0  0  0  0  0  0  0  0  0  0  0  0
  -24.6570  -31.6900   23.1220 C   0  0  0  0  0  0  0  0  0  0  0  0
  -27.2490  -26.9840   19.9200 C   0  0  0  0  0  0  0  0  0  0  0  0
  -23.4680  -30.3380   21.4440 C   0  0  0  0  0  3  0  0  0  0  0  0
  -24.9260  -28.8130   19.9540 C   0  0  0  0  0  0  0  0  0  0  0  0
  -26.0290  -30.5950   21.2880 C   0  0  0  0  0  2  0  0  0  0  0  0
  -26.1120  -29.2150   20.5820 C   0  0  0  0  0  0  0  0  0  0  0  0
  -27.2700  -28.3210   20.5450 C   0  0  0  0  0  3  0  0  0  0  0  0
  -26.0330  -26.7320   19.2440 C   0  0  0  0  0  3  0  0  0  0  0  0
  -24.9090  -27.5920   19.2660 C   0  0  0  0  0  3  0  0  0  0  0  0
  -23.6950  -29.7110   20.0410 C   0  0  0  0  0  2  0  0  0  0  0  0
  -24.7390  -30.8990   22.0050 N   0  0  0  0  0  0  0  0  0  0  0  0
  -23.5680  -31.9480   23.6600 O   0  0  0  0  0  0  0  0  0  0  0  0
  -22.7950  -29.2980   22.3760 C   0  0  0  0  0  0  0  0  0  0  0  0
  -21.4660  -29.1240   22.2570 N   0  0  0  0  0  0  0  0  0  0  0  0
  -23.4750  -28.6490   23.1760 O   0  0  0  0  0  0  0  0  0  0  0  0
  -20.9700  -29.7000   21.5900 H   0  0  0  0  0  0  0  0  0  0  0  0
  -18.0950  -27.8850   22.7690 C   0  0  0  0  0  0  0  0  0  0  0  0
  -20.6580  -28.1520   23.0030 C   0  0  0  0  0  3  0  0  0  0  0  0
  -20.7560  -26.7450   22.3680 C   0  0  0  0  0  2  0  0  0  0  0  0
  -19.6380  -26.4590   21.3590 C   0  0  0  0  0  2  0  0  0  0  0  0
  -18.2670  -26.5670   22.0320 C   0  0  0  0  0  2  0  0  0  0  0  0
  -19.2170  -28.6360   23.2110 C   0  0  0  0  0  0  0  0  0  0  0  0
  -18.9990  -29.8680   23.8650 C   0  0  0  0  0  3  0  0  0  0  0  0
  -17.6950  -30.3500   24.0790 C   0  0  0  0  0  3  0  0  0  0  0  0
  -16.5880  -29.5970   23.6500 C   0  0  0  0  0  3  0  0  0  0  0  0
  -16.7890  -28.3650   23.0030 C   0  0  0  0  0  3  0  0  0  0  0  0
  -25.9270  -32.3250   23.7660 C   0  0  0  0  0  3  0  0  0  0  0  0
  -25.6030  -33.7170   24.1250 N   0  0  0  0  0  0  0  0  0  0  0  0
  -25.9110  -34.7900   23.3860 C   0  0  0  0  0  0  0  0  0  0  0  0
  -26.5600  -34.7150   22.3400 O   0  0  0  0  0  0  0  0  0  0  0  0
  -25.0220  -33.8480   24.9400 H   0  0  0  0  0  0  0  0  0  0  0  0
  -24.1460  -36.5690   23.1300 C   0  0  0  0  0  1  0  0  0  0  0  0
  -25.4230  -36.1670   23.8840 C   0  0  0  0  0  3  0  0  0  0  0  0
  -27.5720  -37.0770   24.6530 C   0  0  0  0  0  1  0  0  0  0  0  0
  -26.4370  -37.2360   23.7480 N   0  0  0  0  0  0  0  0  0  0  0  0
  -26.0210  -38.1490   23.9160 H   0  0  0  0  0  0  0  0  0  0  0  0
  -26.4320  -31.5390   25.0390 C   0  0  1  0  0  0  0  0  0  0  0  0
  -25.3300  -31.2910   26.0980 C   0  0  0  0  0  1  0  0  0  0  0  0
  -27.0160  -30.1640   24.6440 C   0  0  0  0  0  1  0  0  0  0  0  0
  -27.5780  -32.3250   25.7180 C   0  0  0  0  0  1  0  0  0  0  0  0
  1  4  1  0
  2  1  2  0
  2  5  1  0
  4  3  2  0
  5  8  1  0
  5  6  2  0
  6  3  1  0
  6  7  1  0
  8 17  1  0
  9 15  1  0
  9 17  1  0
 10 15  1  0
 11 12  1  0
 11 10  1  0
 13 12  1  0
 13 22  1  0
 13 14  1  0
 15 14  1  0
 16  9  2  0
 17 18  1  0
 19 20  2  0
 20 39  1  0
 21 20  1  0
 21 24  1  0
 22 23  1  0
 22 19  1  0
 23 21  2  0
 24 25  1  0
 25 26  2  0
 27 30  1  0
 27 26  1  0
 28 27  2  0
 29 28  1  0
 29 24  2  0
 30 31  1  0
 31 32  1  0
 32 33  2  0
 34 33  1  0
 34 38  1  0
 35 34  2  0
 36 31  2  0
 36 35  1  0
 37 36  1  0
 39 40  1  0
 40 43  1  0
 40 42  1  0
 41 39  2  0
 44 19  1  0
 44 45  1  0
 46 44  1  0
 47  4  1  0
 47 48  1  0
 49 60  2  0
 50 48  1  0
 50 55  1  0
 51 59  1  0
 51 61  1  0
 52 58  1  0
 52 54  1  0
 53 59  1  0
 54 53  1  0
 55 54  2  0
 56 57  1  0
 56 50  2  0
 57 52  2  0
 58 51  1  0
 59 49  1  0
 61 63  2  0
 62 61  1  0
 64 62  1  0
 65 74  2  0
 65 70  1  0
 66 62  1  0
 66 70  1  0
 67 66  1  0
 68 69  1  0
 68 67  1  0
 69 65  1  0
 70 71  2  0
 71 72  1  0
 73 72  2  0
 74 73  1  0
 75 49  1  0
 75 76  1  0
 75 85  1  0
 76 79  1  0
 77 81  1  0
 77 76  1  0
 78 77  2  0
 81 80  1  0
 83 81  1  0
 83 84  1  0
 83 82  1  0
 85 88  1  1
 85 86  1  0
 87 85  1  0
M  ISO  4   9 100  17 100  47 101  48 101
M  END
>  <TORSDO>  (10) 
F 18

>  <SCORE>  (10) 
-14.865

>  <name>  (10) 
9

>  <ligand_id>  (10) 
9

>  <original_smiles>  (10) 
[H]c1c([H])c([H])c2c(c1[H])C([H])([H])C([H])([H])C([H])([H])C2([H])N([H])C(=O)C1([H])N(C(=O)C([H])(N([H])C(=O)C([H])(N([H])C([H])([H])[H])C([H])([H])[H])C(C([H])([H])[H])(C([H])([H])[H])C([H])([H])[H])C([H])([H])c2c([H])c(OC([H])([H])c3c([H])c([H])c(C([H])([H])N([H])C(=O)N4C([H])([H])C([H])([H])C([H])([H])C([H])(n5nc(-c6c([H])c([H])c(Oc7c([H])c([H])c(F)c([H])c7F)c([H])c6[H])c(C(=O)N([H])[H])c5N([H])[H])C4([H])[H])c(C([H])([H])[H])c3[H])c([H])c([H])c2C1([H])[H]

>  <smiles>  (10) 
[H]c1c([H])c([H])c2c(c1[H])C([H])([H])C([H])([H])C([H])([H])C2([H])N([H])C(=O)C1([H])N(C(=O)C([H])(N([H])C(=O)C([H])(N([H])C([H])([H])[H])C([H])([H])[H])C(C([H])([H])[H])(C([H])([H])[H])C([H])([H])[H])C([H])([H])c2c([H])c(OC([H])([H])c3c([H])c([H])c(C([H])([H])N([H])C(=O)N4C([H])([H])C([H])([H])C([H])([H])C([H])(n5nc(-c6c([H])c([H])c(Oc7c([H])c([H])c(F)c([H])c7F)c([H])c6[H])c(C(=O)N([H])[H])c5N([H])[H])C4([H])[H])c(C([H])([H])[H])c3[H])c([H])c([H])c2C1([H])[H]

$$$$
10:0:0
     RDKit          3D

 93102  0  0  1  0  0  0  0  0999 V2000
  -30.0410  -17.5900   21.4490 C   0  0  0  0  0  0  0  0  0  0  0  0
  -29.1560  -18.7590   21.9290 C   0  0  0  0  0  2  0  0  0  0  0  0
  -28.2290  -19.4280   20.8700 C   0  0  0  0  0  2  0  0  0  0  0  0
  -28.6940  -19.6900   18.3160 C   0  0  0  0  0  2  0  0  0  0  0  0
  -30.0480  -19.0570   17.9360 C   0  0  0  0  0  2  0  0  0  0  0  0
  -30.3240  -17.4890   19.9500 C   0  0  0  0  0  3  0  0  0  0  0  0
  -28.8810  -20.2870   19.7370 C   0  0  0  0  0  3  0  0  0  0  0  0
  -30.7830  -18.9860   19.2770 C   0  0  0  0  0  3  0  0  0  0  0  0
  -30.3460  -20.3860   19.8950 N   0  0  1  0  0  4  0  0  0  0  0  0
  -30.4840  -16.7860   22.2710 O   0  0  0  0  0  0  0  0  0  0  0  0
  -30.5730  -20.3950   20.8780 H   0  0  0  0  0  0  0  0  0  0  0  0
  -31.4590  -14.8980   19.9670 C   0  0  0  0  0  0  0  0  0  0  0  0
  -31.1440  -12.4800   19.2850 C   0  0  0  0  0  2  0  0  0  0  0  0
  -30.2190  -12.3250   18.0610 C   0  0  0  0  0  2  0  0  0  0  0  0
  -28.7500  -12.2480   18.5100 C   0  0  0  0  0  2  0  0  0  0  0  0
  -28.3900  -13.3340   19.5600 C   0  0  0  0  0  3  0  0  0  0  0  0
  -29.4470  -13.4640   20.6760 C   0  0  0  0  0  2  0  0  0  0  0  0
  -30.7200  -13.7200   19.9980 N   0  0  0  0  0  0  0  0  0  0  0  0
  -32.6750  -14.7670   19.8130 O   0  0  0  0  0  0  0  0  0  0  0  0
  -30.9370  -16.1180   19.4580 N   0  0  0  0  0  0  0  0  0  0  0  0
  -31.5850  -16.3670   18.7250 H   0  0  0  0  0  0  0  0  0  0  0  0
  -26.1180  -14.1360   20.4040 C   0  0  0  0  0  0  0  0  0  0  0  0
  -24.9800  -13.4700   20.7640 C   0  0  0  0  0  0  0  0  0  0  0  0
  -25.2860  -12.0780   20.6560 C   0  0  0  0  0  0  0  0  0  0  0  0
  -27.0450  -13.1590   20.0900 N   0  0  0  0  0  0  0  0  0  0  0  0
  -26.5570  -11.9110   20.3110 N   0  0  0  0  0  0  0  0  0  0  0  0
  -24.4230  -10.8980   20.8030 C   0  0  0  0  0  0  0  0  0  0  0  0
  -24.7590   -9.8380   21.6740 C   0  0  0  0  0  3  0  0  0  0  0  0
  -23.9010   -8.7270   21.8130 C   0  0  0  0  0  3  0  0  0  0  0  0
  -22.6910   -8.6670   21.0820 C   0  0  0  0  0  0  0  0  0  0  0  0
  -22.3720   -9.7130   20.1980 C   0  0  0  0  0  3  0  0  0  0  0  0
  -23.2300  -10.8170   20.0570 C   0  0  0  0  0  3  0  0  0  0  0  0
  -21.8090   -7.6140   21.1340 O   0  0  0  0  0  0  0  0  0  0  0  0
  -21.6750   -6.8420   22.2600 C   0  0  0  0  0  0  0  0  0  0  0  0
  -21.3070   -7.3980   23.5040 C   0  0  0  0  0  3  0  0  0  0  0  0
  -21.1120   -6.5600   24.6210 C   0  0  0  0  0  3  0  0  0  0  0  0
  -21.2760   -5.1680   24.4940 C   0  0  0  0  0  0  0  0  0  0  0  0
  -21.6360   -4.6110   23.2540 C   0  0  0  0  0  3  0  0  0  0  0  0
  -21.8330   -5.4470   22.1400 C   0  0  0  0  0  0  0  0  0  0  0  0
  -22.1610   -4.9030   20.9430 F   0  0  0  0  0  0  0  0  0  0  0  0
  -21.0820   -4.3620   25.5630 F   0  0  0  0  0  0  0  0  0  0  0  0
  -23.6540  -14.0890   21.0900 C   0  0  0  0  0  0  0  0  0  0  0  0
  -22.8790  -13.4540   21.9610 N   0  0  0  0  0  0  0  0  0  0  0  0
  -23.3190  -15.1720   20.6090 O   0  0  0  0  0  0  0  0  0  0  0  0
  -23.1660  -12.5770   22.3690 H   0  0  0  0  0  0  0  0  0  0  0  0
  -21.9890  -13.8520   22.2250 H   0  0  0  0  0  0  0  0  0  0  0  0
  -26.4380  -15.4850   20.2860 N   0  0  0  0  0  0  0  0  0  0  0  0
  -25.7510  -16.2140   20.4370 H   0  0  0  0  0  0  0  0  0  0  0  0
  -27.3070  -15.8240   19.8970 H   0  0  0  0  0  0  0  0  0  0  0  0
  -30.8800  -21.7840   19.3260 C   0  0  0  0  0  2  0  0  0  0  0  0
  -30.5180  -23.3160   19.9640 C   0  0  0  0  0  3  0  0  0  0  0  0
  -30.4240  -24.7480   19.0650 C   0  0  0  0  0  3  0  0  0  0  0  0
  -30.2300  -26.2280   19.5320 O   0  0  0  0  0  0  0  0  0  0  0  0
  -25.6220  -30.7920   23.0020 C   0  0  0  0  0  0  0  0  0  0  0  0
  -29.0240  -27.0200   19.4960 C   0  0  0  0  0  0  0  0  0  0  0  0
  -24.7190  -29.4750   21.1250 C   0  0  0  0  0  3  0  0  0  0  0  0
  -26.4470  -28.3710   19.5750 C   0  0  0  0  0  0  0  0  0  0  0  0
  -27.1990  -30.1560   21.1380 C   0  0  0  0  0  2  0  0  0  0  0  0
  -27.5170  -28.9030   20.3050 C   0  0  0  0  0  0  0  0  0  0  0  0
  -28.8010  -28.2420   20.2540 C   0  0  0  0  0  3  0  0  0  0  0  0
  -27.9130  -26.5930   18.7360 C   0  0  0  0  0  3  0  0  0  0  0  0
  -26.6570  -27.2340   18.7800 C   0  0  0  0  0  3  0  0  0  0  0  0
  -25.0890  -29.0440   19.6790 C   0  0  0  0  0  2  0  0  0  0  0  0
  -25.8620  -30.1580   21.8130 N   0  0  0  0  0  0  0  0  0  0  0  0
  -24.4880  -30.8240   23.5040 O   0  0  0  0  0  0  0  0  0  0  0  0
  -24.1860  -28.2460   21.9030 C   0  0  0  0  0  0  0  0  0  0  0  0
  -22.9000  -27.9040   21.7030 N   0  0  0  0  0  0  0  0  0  0  0  0
  -24.9300  -27.6070   22.6540 O   0  0  0  0  0  0  0  0  0  0  0  0
  -22.3450  -28.4890   21.0940 H   0  0  0  0  0  0  0  0  0  0  0  0
  -19.7290  -26.1660   21.9000 C   0  0  0  0  0  0  0  0  0  0  0  0
  -22.2170  -26.7500   22.2930 C   0  0  0  0  0  3  0  0  0  0  0  0
  -22.5380  -25.4520   21.5160 C   0  0  0  0  0  2  0  0  0  0  0  0
  -21.5090  -25.1330   20.4270 C   0  0  0  0  0  2  0  0  0  0  0  0
  -20.1130  -24.9750   21.0360 C   0  0  0  0  0  2  0  0  0  0  0  0
  -20.7160  -27.0070   22.4760 C   0  0  0  0  0  0  0  0  0  0  0  0
  -20.3050  -28.1170   23.2440 C   0  0  0  0  0  3  0  0  0  0  0  0
  -18.9390  -28.3920   23.4390 C   0  0  0  0  0  3  0  0  0  0  0  0
  -17.9660  -27.5480   22.8770 C   0  0  0  0  0  3  0  0  0  0  0  0
  -18.3610  -26.4360   22.1140 C   0  0  0  0  0  3  0  0  0  0  0  0
  -26.7580  -31.5240   23.7790 C   0  0  0  0  0  3  0  0  0  0  0  0
  -27.3250  -30.6810   24.9890 C   0  0  1  0  0  0  0  0  0  0  0  0
  -26.2340  -30.1610   25.9530 C   0  0  0  0  0  1  0  0  0  0  0  0
  -28.1220  -29.4580   24.4810 C   0  0  0  0  0  1  0  0  0  0  0  0
  -28.3150  -31.5420   25.8070 C   0  0  0  0  0  1  0  0  0  0  0  0
  -26.2190  -32.8070   24.2590 N   0  0  0  0  0  0  0  0  0  0  0  0
  -26.4500  -33.9950   23.6820 C   0  0  0  0  0  0  0  0  0  0  0  0
  -27.2020  -34.1330   22.7130 O   0  0  0  0  0  0  0  0  0  0  0  0
  -25.5480  -32.7600   25.0110 H   0  0  0  0  0  0  0  0  0  0  0  0
  -24.5150  -35.5820   23.4040 C   0  0  0  0  0  1  0  0  0  0  0  0
  -25.7330  -35.2270   24.2720 C   0  0  0  0  0  3  0  0  0  0  0  0
  -27.6470  -36.2500   25.4220 C   0  0  0  0  0  1  0  0  0  0  0  0
  -26.6110  -36.4100   24.4050 N   0  0  0  0  0  0  0  0  0  0  0  0
  -26.0660  -37.2370   24.6360 H   0  0  0  0  0  0  0  0  0  0  0  0
  1  2  1  0
  1 10  2  0
  3  2  1  0
  5  4  1  0
  6 20  1  0
  6  1  1  0
  7  4  1  0
  7  9  1  0
  7  3  1  0
  8  5  1  0
  8  9  1  0
  8  6  1  0
  9 11  1  1
 12 18  1  0
 13 18  1  0
 14 15  1  0
 14 13  1  0
 16 15  1  0
 16 25  1  0
 16 17  1  0
 18 17  1  0
 19 12  2  0
 20 12  1  0
 21 20  1  0
 22 23  2  0
 23 42  1  0
 24 23  1  0
 24 27  1  0
 25 26  1  0
 25 22  1  0
 26 24  2  0
 27 28  1  0
 28 29  2  0
 30 33  1  0
 30 29  1  0
 31 30  2  0
 32 31  1  0
 32 27  2  0
 33 34  1  0
 34 35  1  0
 35 36  2  0
 37 36  1  0
 37 41  1  0
 38 37  2  0
 39 34  2  0
 39 38  1  0
 40 39  1  0
 42 43  1  0
 43 46  1  0
 43 45  1  0
 44 42  2  0
 47 22  1  0
 47 48  1  0
 49 47  1  0
 50  9  1  0
 50 51  1  0
 52 53  1  0
 52 51  2  0
 54 65  2  0
 55 53  1  0
 55 60  1  0
 56 64  1  0
 56 66  1  0
 57 63  1  0
 57 59  1  0
 58 64  1  0
 59 58  1  0
 60 59  2  0
 61 62  1  0
 61 55  2  0
 62 57  2  0
 63 56  1  0
 64 54  1  0
 66 68  2  0
 67 66  1  0
 69 67  1  0
 70 79  2  0
 70 75  1  0
 71 67  1  0
 71 75  1  0
 72 71  1  0
 73 74  1  0
 73 72  1  0
 74 70  1  0
 75 76  2  0
 76 77  1  0
 78 77  2  0
 79 78  1  0
 80 54  1  0
 80 85  1  0
 80 81  1  0
 81 84  1  1
 81 82  1  0
 83 81  1  0
 85 88  1  0
 86 85  1  0
 86 90  1  0
 87 86  2  0
 90 89  1  0
 90 92  1  0
 92 93  1  0
 92 91  1  0
M  ISO  4  12 100  20 100  52 101  53 101
M  END
>  <TORSDO>  (11) 
F 19

>  <SCORE>  (11) 
-8.824

>  <name>  (11) 
10

>  <ligand_id>  (11) 
10

>  <original_smiles>  (11) 
[H]c1c([H])c([H])c2c(c1[H])C([H])([H])C([H])([H])C([H])([H])C2([H])N([H])C(=O)C1([H])N(C(=O)C([H])(N([H])C(=O)C([H])(N([H])C([H])([H])[H])C([H])([H])[H])C(C([H])([H])[H])(C([H])([H])[H])C([H])([H])[H])C([H])([H])c2c([H])c(OC([H])([H])C([H])([H])C([H])([H])[N+]3([H])C4([H])C([H])(N([H])C(=O)N5C([H])([H])C([H])([H])C([H])([H])C([H])(n6nc(-c7c([H])c([H])c(Oc8c([H])c([H])c(F)c([H])c8F)c([H])c7[H])c(C(=O)N([H])[H])c6N([H])[H])C5([H])[H])C(=O)C([H])([H])C([H])([H])C3([H])C([H])([H])C4([H])[H])c([H])c([H])c2C1([H])[H]

>  <smiles>  (11) 
[H]c1c([H])c([H])c2c(c1[H])C([H])([H])C([H])([H])C([H])([H])C2([H])N([H])C(=O)C1([H])N(C(=O)C([H])(N([H])C(=O)C([H])(N([H])C([H])([H])[H])C([H])([H])[H])C(C([H])([H])[H])(C([H])([H])[H])C([H])([H])[H])C([H])([H])c2c([H])c(OC([H])([H])C([H])([H])C([H])([H])[N+]3([H])C4([H])C([H])(N([H])C(=O)N5C([H])([H])C([H])([H])C([H])([H])C([H])(n6nc(-c7c([H])c([H])c(Oc8c([H])c([H])c(F)c([H])c8F)c([H])c7[H])c(C(=O)N([H])[H])c6N([H])[H])C5([H])[H])C(=O)C([H])([H])C([H])([H])C3([H])C([H])([H])C4([H])[H])c([H])c([H])c2C1([H])[H]

$$$$
11:0:0
     RDKit          3D

 89 97  0  0  1  0  0  0  0  0999 V2000
  -29.5050  -22.1540   20.8770 C   0  0  0  0  0  3  0  0  0  0  0  0
  -29.2850  -23.6250   20.9460 C   0  0  0  0  0  3  0  0  0  0  0  0
  -27.5050  -23.4640   19.5110 C   0  0  0  0  0  3  0  0  0  0  0  0
  -28.7510  -21.1870   20.0910 C   0  0  0  0  0  0  0  0  0  0  0  0
  -27.6940  -21.9880   19.4450 C   0  0  0  0  0  0  0  0  0  0  0  0
  -28.2830  -24.4400   20.2590 C   0  0  0  0  0  0  0  0  0  0  0  0
  -26.6550  -21.2660   18.5830 C   0  0  0  0  0  1  0  0  0  0  0  0
  -29.5440  -19.4060   18.3420 C   0  0  0  0  0  1  0  0  0  0  0  0
  -29.0010  -19.4780   19.7800 C   0  0  0  0  0  3  0  0  0  0  0  0
  -29.7870  -18.0980   20.5730 C   0  0  0  0  0  2  0  0  0  0  0  0
  -30.3900  -15.2310   20.2270 C   0  0  0  0  0  0  0  0  0  0  0  0
  -30.3440  -12.7950   19.3350 C   0  0  0  0  0  2  0  0  0  0  0  0
  -29.4110  -12.6160   18.1120 C   0  0  0  0  0  2  0  0  0  0  0  0
  -27.9720  -12.3490   18.5920 C   0  0  0  0  0  2  0  0  0  0  0  0
  -27.5400  -13.3280   19.7130 C   0  0  0  0  0  3  0  0  0  0  0  0
  -28.5990  -13.4540   20.8290 C   0  0  0  0  0  2  0  0  0  0  0  0
  -29.8230  -13.9330   20.1730 N   0  0  0  0  0  0  0  0  0  0  0  0
  -31.6090  -15.2530   20.0170 O   0  0  0  0  0  0  0  0  0  0  0  0
  -29.5950  -16.4670   20.3210 N   0  0  0  0  0  0  0  0  0  0  0  0
  -28.6170  -16.2230   20.3670 H   0  0  0  0  0  0  0  0  0  0  0  0
  -25.1770  -13.9060   20.4780 C   0  0  0  0  0  0  0  0  0  0  0  0
  -24.1130  -13.1360   20.8550 C   0  0  0  0  0  0  0  0  0  0  0  0
  -24.5750  -11.7840   20.8290 C   0  0  0  0  0  0  0  0  0  0  0  0
  -26.2140  -13.0250   20.2330 N   0  0  0  0  0  0  0  0  0  0  0  0
  -25.8650  -11.7430   20.5130 N   0  0  0  0  0  0  0  0  0  0  0  0
  -23.8450  -10.5250   21.0270 C   0  0  0  0  0  0  0  0  0  0  0  0
  -24.2840   -9.5550   21.9550 C   0  0  0  0  0  3  0  0  0  0  0  0
  -23.5510   -8.3620   22.1430 C   0  0  0  0  0  3  0  0  0  0  0  0
  -22.3670   -8.1330   21.4020 C   0  0  0  0  0  0  0  0  0  0  0  0
  -21.9480   -9.0920   20.4630 C   0  0  0  0  0  3  0  0  0  0  0  0
  -22.6810  -10.2750   20.2740 C   0  0  0  0  0  3  0  0  0  0  0  0
  -21.6070   -6.9920   21.4970 O   0  0  0  0  0  0  0  0  0  0  0  0
  -21.5780   -6.2420   22.6460 C   0  0  0  0  0  0  0  0  0  0  0  0
  -21.1780   -6.7910   23.8840 C   0  0  0  0  0  3  0  0  0  0  0  0
  -21.0940   -5.9690   25.0250 C   0  0  0  0  0  3  0  0  0  0  0  0
  -21.4010   -4.5980   24.9300 C   0  0  0  0  0  0  0  0  0  0  0  0
  -21.7910   -4.0480   23.6970 C   0  0  0  0  0  3  0  0  0  0  0  0
  -21.8780   -4.8680   22.5580 C   0  0  0  0  0  0  0  0  0  0  0  0
  -22.2350   -4.3280   21.3670 F   0  0  0  0  0  0  0  0  0  0  0  0
  -21.3130   -3.8050   26.0240 F   0  0  0  0  0  0  0  0  0  0  0  0
  -22.7180  -13.6220   21.1260 C   0  0  0  0  0  0  0  0  0  0  0  0
  -21.9910  -12.9320   21.9950 N   0  0  0  0  0  0  0  0  0  0  0  0
  -22.2860  -14.6470   20.6010 O   0  0  0  0  0  0  0  0  0  0  0  0
  -22.3550  -12.0990   22.4340 H   0  0  0  0  0  0  0  0  0  0  0  0
  -21.0550  -13.2390   22.2230 H   0  0  0  0  0  0  0  0  0  0  0  0
  -25.3380  -15.2750   20.2920 N   0  0  0  0  0  0  0  0  0  0  0  0
  -24.5600  -15.9150   20.4060 H   0  0  0  0  0  0  0  0  0  0  0  0
  -26.1630  -15.7190   19.9140 H   0  0  0  0  0  0  0  0  0  0  0  0
  -28.2490  -25.9730   20.2700 O   0  0  0  0  0  0  0  0  0  0  0  0
  -24.6560  -31.8760   23.2280 C   0  0  0  0  0  0  0  0  0  0  0  0
  -27.1900  -27.0040   20.2490 C   0  0  0  0  0  0  0  0  0  0  0  0
  -23.4510  -30.4750   21.5920 C   0  0  0  0  0  3  0  0  0  0  0  0
  -24.8910  -28.8570   20.1860 C   0  0  0  0  0  0  0  0  0  0  0  0
  -26.0120  -30.6950   21.4380 C   0  0  0  0  0  2  0  0  0  0  0  0
  -26.0740  -29.2770   20.8060 C   0  0  0  0  0  0  0  0  0  0  0  0
  -27.2170  -28.3650   20.8210 C   0  0  0  0  0  3  0  0  0  0  0  0
  -25.9740  -26.7280   19.5850 C   0  0  0  0  0  3  0  0  0  0  0  0
  -24.8600  -27.6020   19.5610 C   0  0  0  0  0  3  0  0  0  0  0  0
  -23.6730  -29.7710   20.2220 C   0  0  0  0  0  2  0  0  0  0  0  0
  -24.7270  -31.0450   22.1380 N   0  0  0  0  0  0  0  0  0  0  0  0
  -23.5710  -32.1640   23.7570 O   0  0  0  0  0  0  0  0  0  0  0  0
  -22.7630  -29.4850   22.5690 C   0  0  0  0  0  0  0  0  0  0  0  0
  -21.4330  -29.3180   22.4520 N   0  0  0  0  0  0  0  0  0  0  0  0
  -23.4320  -28.8680   23.4020 O   0  0  0  0  0  0  0  0  0  0  0  0
  -20.9410  -29.8690   21.7620 H   0  0  0  0  0  0  0  0  0  0  0  0
  -18.0580  -28.1070   22.9670 C   0  0  0  0  0  0  0  0  0  0  0  0
  -20.6160  -28.3860   23.2330 C   0  0  0  0  0  3  0  0  0  0  0  0
  -20.7250  -26.9490   22.6720 C   0  0  0  0  0  2  0  0  0  0  0  0
  -19.6260  -26.6130   21.6600 C   0  0  0  0  0  2  0  0  0  0  0  0
  -18.2430  -26.7550   22.3000 C   0  0  0  0  0  2  0  0  0  0  0  0
  -19.1720  -28.8810   23.3920 C   0  0  0  0  0  0  0  0  0  0  0  0
  -18.9430  -30.1450   23.9760 C   0  0  0  0  0  3  0  0  0  0  0  0
  -17.6330  -30.6380   24.1350 C   0  0  0  0  0  3  0  0  0  0  0  0
  -16.5340  -29.8620   23.7260 C   0  0  0  0  0  3  0  0  0  0  0  0
  -16.7500  -28.5970   23.1510 C   0  0  0  0  0  3  0  0  0  0  0  0
  -25.9360  -32.5150   23.8520 C   0  0  0  0  0  3  0  0  0  0  0  0
  -25.6280  -33.9140   24.1930 N   0  0  0  0  0  0  0  0  0  0  0  0
  -25.9310  -34.9730   23.4310 C   0  0  0  0  0  0  0  0  0  0  0  0
  -26.5710  -34.8790   22.3810 O   0  0  0  0  0  0  0  0  0  0  0  0
  -25.0850  -34.0650   25.0310 H   0  0  0  0  0  0  0  0  0  0  0  0
  -24.1820  -36.7600   23.1480 C   0  0  0  0  0  1  0  0  0  0  0  0
  -25.4520  -36.3580   23.9160 C   0  0  0  0  0  3  0  0  0  0  0  0
  -27.6040  -37.2620   24.6800 C   0  0  0  0  0  1  0  0  0  0  0  0
  -26.4710  -37.4210   23.7720 N   0  0  0  0  0  0  0  0  0  0  0  0
  -26.0590  -38.3340   23.9410 H   0  0  0  0  0  0  0  0  0  0  0  0
  -26.4530  -31.7510   25.1320 C   0  0  1  0  0  0  0  0  0  0  0  0
  -25.3600  -31.5340   26.2020 C   0  0  0  0  0  1  0  0  0  0  0  0
  -27.0330  -30.3690   24.7540 C   0  0  0  0  0  1  0  0  0  0  0  0
  -27.6070  -32.5390   25.7950 C   0  0  0  0  0  1  0  0  0  0  0  0
  1  2  1  0
  3  6  1  0
  4  1  2  0
  5  3  2  0
  5  4  1  0
  6 49  1  0
  6  2  2  0
  7  5  1  0
  9  8  1  0
  9  4  1  0
  9 10  1  0
 11 19  1  0
 12 17  1  0
 13 14  1  0
 13 12  1  0
 15 14  1  0
 15 24  1  0
 15 16  1  0
 17 11  1  0
 17 16  1  0
 18 11  2  0
 19 20  1  0
 19 10  1  0
 21 22  2  0
 22 41  1  0
 23 22  1  0
 23 26  1  0
 24 21  1  0
 24 25  1  0
 25 23  2  0
 26 27  1  0
 27 28  2  0
 29 32  1  0
 29 28  1  0
 30 29  2  0
 31 30  1  0
 31 26  2  0
 32 33  1  0
 33 34  1  0
 34 35  2  0
 36 35  1  0
 36 40  1  0
 37 36  2  0
 38 33  2  0
 38 37  1  0
 39 38  1  0
 41 42  1  0
 42 45  1  0
 42 44  1  0
 43 41  2  0
 46 47  1  0
 46 21  1  0
 48 46  1  0
 50 61  2  0
 51 49  1  0
 51 56  1  0
 52 60  1  0
 52 62  1  0
 53 59  1  0
 53 55  1  0
 54 60  1  0
 55 56  2  0
 55 54  1  0
 57 51  2  0
 58 57  1  0
 58 53  2  0
 59 52  1  0
 60 50  1  0
 62 64  2  0
 63 62  1  0
 65 63  1  0
 66 75  2  0
 66 71  1  0
 67 63  1  0
 67 71  1  0
 68 67  1  0
 69 70  1  0
 69 68  1  0
 70 66  1  0
 71 72  2  0
 72 73  1  0
 74 73  2  0
 75 74  1  0
 76 50  1  0
 76 77  1  0
 76 86  1  0
 77 80  1  0
 78 82  1  0
 78 77  1  0
 79 78  2  0
 82 81  1  0
 84 82  1  0
 84 85  1  0
 84 83  1  0
 86 89  1  1
 86 87  1  0
 88 86  1  0
M  ISO  4   6 101  11 100  19 100  49 101
M  END
>  <TORSDO>  (12) 
F 18

>  <SCORE>  (12) 
-15.694

>  <name>  (12) 
11

>  <ligand_id>  (12) 
11

>  <original_smiles>  (12) 
[H]c1c([H])c([H])c2c(c1[H])C([H])([H])C([H])([H])C([H])([H])C2([H])N([H])C(=O)C1([H])N(C(=O)C([H])(N([H])C(=O)C([H])(N([H])C([H])([H])[H])C([H])([H])[H])C(C([H])([H])[H])(C([H])([H])[H])C([H])([H])[H])C([H])([H])c2c([H])c(Oc3c([H])c([H])c(C([H])(C([H])([H])[H])C([H])([H])N([H])C(=O)N4C([H])([H])C([H])([H])C([H])([H])C([H])(n5nc(-c6c([H])c([H])c(Oc7c([H])c([H])c(F)c([H])c7F)c([H])c6[H])c(C(=O)N([H])[H])c5N([H])[H])C4([H])[H])c(C([H])([H])[H])c3[H])c([H])c([H])c2C1([H])[H]

>  <smiles>  (12) 
[H]c1c([H])c([H])c2c(c1[H])C([H])([H])C([H])([H])C([H])([H])C2([H])N([H])C(=O)C1([H])N(C(=O)C([H])(N([H])C(=O)C([H])(N([H])C([H])([H])[H])C([H])([H])[H])C(C([H])([H])[H])(C([H])([H])[H])C([H])([H])[H])C([H])([H])c2c([H])c(Oc3c([H])c([H])c(C([H])(C([H])([H])[H])C([H])([H])N([H])C(=O)N4C([H])([H])C([H])([H])C([H])([H])C([H])(n5nc(-c6c([H])c([H])c(Oc7c([H])c([H])c(F)c([H])c7F)c([H])c6[H])c(C(=O)N([H])[H])c5N([H])[H])C4([H])[H])c(C([H])([H])[H])c3[H])c([H])c([H])c2C1([H])[H]

$$$$
12:0:0
     RDKit          3D

 93102  0  0  1  0  0  0  0  0999 V2000
  -29.2380  -18.3890   19.3270 C   0  0  0  0  0  0  0  0  0  0  0  0
  -29.0350  -19.5570   21.5240 C   0  0  0  0  0  2  0  0  0  0  0  0
  -31.1600  -18.2760   21.0900 C   0  0  0  0  0  2  0  0  0  0  0  0
  -30.8140  -20.8980   20.6200 C   0  0  0  0  0  2  0  0  0  0  0  0
  -28.7800  -19.7410   20.0280 C   0  0  0  0  0  3  0  0  0  0  0  0
  -30.4550  -17.5360   19.8960 C   0  0  0  0  0  3  0  0  0  0  0  0
  -30.5540  -19.6580   21.5410 C   0  0  0  0  0  3  0  0  0  0  0  0
  -29.5690  -21.0910   19.7000 C   0  0  0  0  0  3  0  0  0  0  0  0
  -28.6030  -17.9940   18.3470 O   0  0  0  0  0  0  0  0  0  0  0  0
  -30.9920  -14.9300   19.9830 C   0  0  0  0  0  0  0  0  0  0  0  0
  -30.8400  -12.5740   19.1610 C   0  0  0  0  0  2  0  0  0  0  0  0
  -29.8670  -12.5180   17.9640 C   0  0  0  0  0  2  0  0  0  0  0  0
  -28.4140  -12.3370   18.4490 C   0  0  0  0  0  2  0  0  0  0  0  0
  -28.0450  -13.3110   19.5990 C   0  0  0  0  0  3  0  0  0  0  0  0
  -29.1350  -13.3460   20.6930 C   0  0  0  0  0  2  0  0  0  0  0  0
  -30.4050  -13.6860   20.0370 N   0  0  0  0  0  0  0  0  0  0  0  0
  -32.1610  -15.0460   19.6050 O   0  0  0  0  0  0  0  0  0  0  0  0
  -30.1840  -16.0440   20.1400 N   0  0  0  0  0  0  0  0  0  0  0  0
  -29.2300  -15.8280   20.3880 H   0  0  0  0  0  0  0  0  0  0  0  0
  -25.7070  -13.9100   20.4720 C   0  0  0  0  0  0  0  0  0  0  0  0
  -24.6510  -13.1390   20.8720 C   0  0  0  0  0  0  0  0  0  0  0  0
  -25.0910  -11.7840   20.7720 C   0  0  0  0  0  0  0  0  0  0  0  0
  -26.7240  -13.0260   20.1500 N   0  0  0  0  0  0  0  0  0  0  0  0
  -26.3630  -11.7390   20.3940 N   0  0  0  0  0  0  0  0  0  0  0  0
  -24.3550  -10.5260   20.9570 C   0  0  0  0  0  0  0  0  0  0  0  0
  -24.7700   -9.5580   21.8990 C   0  0  0  0  0  3  0  0  0  0  0  0
  -24.0360   -8.3650   22.0710 C   0  0  0  0  0  3  0  0  0  0  0  0
  -22.8710   -8.1320   21.3030 C   0  0  0  0  0  0  0  0  0  0  0  0
  -22.4740   -9.0880   20.3500 C   0  0  0  0  0  3  0  0  0  0  0  0
  -23.2110  -10.2720   20.1760 C   0  0  0  0  0  3  0  0  0  0  0  0
  -22.1080   -6.9910   21.3840 O   0  0  0  0  0  0  0  0  0  0  0  0
  -21.9570   -6.3100   22.5650 C   0  0  0  0  0  0  0  0  0  0  0  0
  -21.3790   -6.9100   23.7040 C   0  0  0  0  0  3  0  0  0  0  0  0
  -21.1790   -6.1520   24.8760 C   0  0  0  0  0  3  0  0  0  0  0  0
  -21.5500   -4.7940   24.9070 C   0  0  0  0  0  0  0  0  0  0  0  0
  -22.1220   -4.1930   23.7730 C   0  0  0  0  0  3  0  0  0  0  0  0
  -22.3220   -4.9490   22.6040 C   0  0  0  0  0  0  0  0  0  0  0  0
  -22.8540   -4.3590   21.5070 F   0  0  0  0  0  0  0  0  0  0  0  0
  -21.3520   -4.0630   26.0290 F   0  0  0  0  0  0  0  0  0  0  0  0
  -23.2770  -13.6260   21.2320 C   0  0  0  0  0  0  0  0  0  0  0  0
  -22.5840  -12.9130   22.1120 N   0  0  0  0  0  0  0  0  0  0  0  0
  -22.8290  -14.6730   20.7660 O   0  0  0  0  0  0  0  0  0  0  0  0
  -22.9600  -12.0650   22.5100 H   0  0  0  0  0  0  0  0  0  0  0  0
  -21.6640  -13.2210   22.3940 H   0  0  0  0  0  0  0  0  0  0  0  0
  -25.8800  -15.2840   20.3290 N   0  0  0  0  0  0  0  0  0  0  0  0
  -25.1170  -15.9340   20.4850 H   0  0  0  0  0  0  0  0  0  0  0  0
  -26.6880  -15.7210   19.9040 H   0  0  0  0  0  0  0  0  0  0  0  0
  -28.7600  -22.3930   19.9320 N   0  0  0  0  0  4  0  0  0  0  0  0
  -28.3790  -22.3550   20.8660 H   0  0  0  0  0  0  0  0  0  0  0  0
  -27.9690  -22.3200   19.3120 H   0  0  0  0  0  0  0  0  0  0  0  0
  -29.3240  -23.8200   19.7290 C   0  0  0  0  0  3  0  0  0  0  0  0
  -28.2370  -25.0250   19.6420 C   0  0  0  0  0  3  0  0  0  0  0  0
  -28.5250  -26.4980   19.8310 O   0  0  0  0  0  0  0  0  0  0  0  0
  -24.8080  -31.7110   23.2940 C   0  0  0  0  0  0  0  0  0  0  0  0
  -27.4280  -27.3980   19.8520 C   0  0  0  0  0  0  0  0  0  0  0  0
  -23.6110  -30.4540   21.5420 C   0  0  0  0  0  3  0  0  0  0  0  0
  -25.0660  -29.0410   19.9840 C   0  0  0  0  0  0  0  0  0  0  0  0
  -26.1550  -30.7850   21.3890 C   0  0  0  0  0  2  0  0  0  0  0  0
  -26.2390  -29.4660   20.6210 C   0  0  0  0  0  0  0  0  0  0  0  0
  -27.4240  -28.6600   20.5430 C   0  0  0  0  0  3  0  0  0  0  0  0
  -26.2250  -27.0530   19.1900 C   0  0  0  0  0  3  0  0  0  0  0  0
  -25.0650  -27.8440   19.2590 C   0  0  0  0  0  3  0  0  0  0  0  0
  -23.8280  -29.9070   20.1080 C   0  0  0  0  0  2  0  0  0  0  0  0
  -24.8770  -30.9970   22.1320 N   0  0  0  0  0  0  0  0  0  0  0  0
  -23.7220  -31.9370   23.8490 O   0  0  0  0  0  0  0  0  0  0  0  0
  -22.9520  -29.3540   22.4100 C   0  0  0  0  0  0  0  0  0  0  0  0
  -21.6310  -29.1630   22.2490 N   0  0  0  0  0  0  0  0  0  0  0  0
  -23.6300  -28.6790   23.1890 O   0  0  0  0  0  0  0  0  0  0  0  0
  -21.1430  -29.7620   21.5990 H   0  0  0  0  0  0  0  0  0  0  0  0
  -18.2740  -27.8570   22.5920 C   0  0  0  0  0  0  0  0  0  0  0  0
  -20.8190  -28.1550   22.9340 C   0  0  0  0  0  3  0  0  0  0  0  0
  -20.9660  -26.7710   22.2620 C   0  0  0  0  0  2  0  0  0  0  0  0
  -19.8930  -26.4960   21.2040 C   0  0  0  0  0  2  0  0  0  0  0  0
  -18.4960  -26.5630   21.8260 C   0  0  0  0  0  2  0  0  0  0  0  0
  -19.3650  -28.6120   23.0990 C   0  0  0  0  0  0  0  0  0  0  0  0
  -19.1030  -29.8240   23.7740 C   0  0  0  0  0  3  0  0  0  0  0  0
  -17.7830  -30.2820   23.9480 C   0  0  0  0  0  3  0  0  0  0  0  0
  -16.7060  -29.5220   23.4570 C   0  0  0  0  0  3  0  0  0  0  0  0
  -16.9520  -28.3120   22.7850 C   0  0  0  0  0  3  0  0  0  0  0  0
  -26.0860  -32.2970   23.9680 C   0  0  0  0  0  3  0  0  0  0  0  0
  -26.5580  -31.4690   25.2260 C   0  0  1  0  0  0  0  0  0  0  0  0
  -25.4360  -31.2140   26.2600 C   0  0  0  0  0  1  0  0  0  0  0  0
  -27.1230  -30.0950   24.8000 C   0  0  0  0  0  1  0  0  0  0  0  0
  -27.7080  -32.2150   25.9420 C   0  0  0  0  0  1  0  0  0  0  0  0
  -25.7920  -33.6870   24.3460 N   0  0  0  0  0  0  0  0  0  0  0  0
  -26.1050  -34.7590   23.6060 C   0  0  0  0  0  0  0  0  0  0  0  0
  -26.7400  -34.6830   22.5520 O   0  0  0  0  0  0  0  0  0  0  0  0
  -25.2250  -33.8210   25.1690 H   0  0  0  0  0  0  0  0  0  0  0  0
  -24.3520  -36.5510   23.3900 C   0  0  0  0  0  1  0  0  0  0  0  0
  -25.6410  -36.1370   24.1200 C   0  0  0  0  0  3  0  0  0  0  0  0
  -27.8100  -37.0250   24.8520 C   0  0  0  0  0  1  0  0  0  0  0  0
  -26.6610  -37.1970   23.9660 N   0  0  0  0  0  0  0  0  0  0  0  0
  -26.2580  -38.1130   24.1440 H   0  0  0  0  0  0  0  0  0  0  0  0
  1  6  1  0
  1  5  1  0
  2  7  1  0
  3  7  1  0
  5  2  1  0
  6 18  1  0
  6  3  1  0
  7  4  1  0
  8 48  1  0
  8  5  1  0
  8  4  1  0
  9  1  2  0
 10 16  1  0
 10 18  1  0
 11 16  1  0
 12 13  1  0
 12 11  1  0
 14 13  1  0
 14 23  1  0
 14 15  1  0
 16 15  1  0
 17 10  2  0
 18 19  1  0
 20 21  2  0
 21 40  1  0
 22 21  1  0
 22 25  1  0
 23 24  1  0
 23 20  1  0
 24 22  2  0
 25 26  1  0
 26 27  2  0
 28 31  1  0
 28 27  1  0
 29 28  2  0
 30 29  1  0
 30 25  2  0
 31 32  1  0
 32 37  2  0
 32 33  1  0
 33 34  2  0
 34 35  1  0
 35 39  1  0
 36 35  2  0
 37 36  1  0
 38 37  1  0
 40 41  1  0
 41 44  1  0
 41 43  1  0
 42 40  2  0
 45 20  1  0
 45 46  1  0
 47 45  1  0
 48 49  1  0
 50 48  1  0
 51 48  1  0
 52 51  2  0
 52 53  1  0
 53 55  1  0
 54 65  2  0
 55 60  1  0
 56 64  1  0
 56 66  1  0
 57 63  1  0
 57 59  1  0
 58 64  1  0
 59 58  1  0
 60 59  2  0
 61 62  1  0
 61 55  2  0
 62 57  2  0
 63 56  1  0
 64 54  1  0
 66 68  2  0
 67 66  1  0
 69 67  1  0
 70 79  2  0
 70 75  1  0
 71 67  1  0
 71 75  1  0
 72 71  1  0
 73 74  1  0
 73 72  1  0
 74 70  1  0
 75 76  2  0
 76 77  1  0
 78 77  2  0
 79 78  1  0
 80 54  1  0
 80 85  1  0
 80 81  1  0
 81 84  1  1
 81 82  1  0
 83 81  1  0
 85 88  1  0
 86 90  1  0
 86 85  1  0
 87 86  2  0
 90 89  1  0
 92 90  1  0
 92 93  1  0
 92 91  1  0
M  ISO  4  10 100  18 100  52 101  53 101
M  END
>  <TORSDO>  (13) 
F 19

>  <SCORE>  (13) 
-12.926

>  <name>  (13) 
12

>  <ligand_id>  (13) 
12

>  <original_smiles>  (13) 
[H]c1c([H])c([H])c2c(c1[H])C([H])([H])C([H])([H])C([H])([H])C2([H])N([H])C(=O)C1([H])N(C(=O)C([H])(N([H])C(=O)C([H])(N([H])C([H])([H])[H])C([H])([H])[H])C(C([H])([H])[H])(C([H])([H])[H])C([H])([H])[H])C([H])([H])c2c([H])c(OC([H])([H])C([H])([H])[N+]([H])([H])C3([H])C([H])([H])C4([H])C([H])([H])C([H])(N([H])C(=O)N5C([H])([H])C([H])([H])C([H])([H])C([H])(n6nc(-c7c([H])c([H])c(Oc8c([H])c([H])c(F)c([H])c8F)c([H])c7[H])c(C(=O)N([H])[H])c6N([H])[H])C5([H])[H])C(=O)C3([H])C4([H])[H])c([H])c([H])c2C1([H])[H]

>  <smiles>  (13) 
[H]c1c([H])c([H])c2c(c1[H])C([H])([H])C([H])([H])C([H])([H])C2([H])N([H])C(=O)C1([H])N(C(=O)C([H])(N([H])C(=O)C([H])(N([H])C([H])([H])[H])C([H])([H])[H])C(C([H])([H])[H])(C([H])([H])[H])C([H])([H])[H])C([H])([H])c2c([H])c(OC([H])([H])C([H])([H])[N+]([H])([H])C3([H])C([H])([H])C4([H])C([H])([H])C([H])(N([H])C(=O)N5C([H])([H])C([H])([H])C([H])([H])C([H])(n6nc(-c7c([H])c([H])c(Oc8c([H])c([H])c(F)c([H])c8F)c([H])c7[H])c(C(=O)N([H])[H])c6N([H])[H])C5([H])[H])C(=O)C3([H])C4([H])[H])c([H])c([H])c2C1([H])[H]

$$$$
13:0:0
     RDKit          3D

 93101  0  0  1  0  0  0  0  0999 V2000
  -31.3820  -22.8540   20.2920 C   0  0  0  0  0  2  0  0  0  0  0  0
  -30.5660  -24.0960   20.6790 C   0  0  0  0  0  2  0  0  0  0  0  0
  -30.9760  -21.6480   21.1530 C   0  0  0  0  0  2  0  0  0  0  0  0
  -28.5750  -22.4390   20.4220 C   0  0  0  0  0  2  0  0  0  0  0  0
  -29.1070  -23.9470   20.2230 C   0  0  0  0  0  3  0  0  0  0  0  0
  -29.4660  -21.2530   21.0800 C   0  0  2  0  0  0  0  0  0  0  0  0
  -28.9820  -21.0530   22.4630 N   0  0  0  0  0  4  0  0  0  0  0  0
  -28.9990  -21.9170   22.9750 H   0  0  0  0  0  0  0  0  0  0  0  0
  -29.5680  -20.3980   22.9550 H   0  0  0  0  0  0  0  0  0  0  0  0
  -28.0410  -20.7020   22.4780 H   0  0  0  0  0  0  0  0  0  0  0  0
  -28.1640  -25.1370   20.7210 C   0  0  0  0  0  2  0  0  0  0  0  0
  -28.3860  -26.5290   20.2480 O   0  0  0  0  0  0  0  0  0  0  0  0
  -24.6240  -31.9130   23.2430 C   0  0  0  0  0  0  0  0  0  0  0  0
  -27.2670  -27.3760   20.2040 C   0  0  0  0  0  0  0  0  0  0  0  0
  -23.4280  -30.5080   21.6020 C   0  0  0  0  0  3  0  0  0  0  0  0
  -24.8910  -28.9690   20.1730 C   0  0  0  0  0  0  0  0  0  0  0  0
  -25.9600  -30.8480   21.4160 C   0  0  0  0  0  2  0  0  0  0  0  0
  -26.0530  -29.4680   20.7790 C   0  0  0  0  0  0  0  0  0  0  0  0
  -27.2440  -28.6820   20.7850 C   0  0  0  0  0  3  0  0  0  0  0  0
  -26.0900  -26.9380   19.5580 C   0  0  0  0  0  3  0  0  0  0  0  0
  -24.9130  -27.7110   19.5540 C   0  0  0  0  0  3  0  0  0  0  0  0
  -23.6440  -29.8310   20.2200 C   0  0  0  0  0  2  0  0  0  0  0  0
  -24.6900  -31.1080   22.1440 N   0  0  0  0  0  0  0  0  0  0  0  0
  -23.5400  -32.1840   23.7810 O   0  0  0  0  0  0  0  0  0  0  0  0
  -22.7730  -29.4890   22.5630 C   0  0  0  0  0  0  0  0  0  0  0  0
  -21.4490  -29.2950   22.4300 N   0  0  0  0  0  0  0  0  0  0  0  0
  -23.4540  -28.8730   23.3850 O   0  0  0  0  0  0  0  0  0  0  0  0
  -20.9570  -29.8480   21.7430 H   0  0  0  0  0  0  0  0  0  0  0  0
  -18.0860  -28.0490   22.9070 C   0  0  0  0  0  0  0  0  0  0  0  0
  -20.6380  -28.3510   23.2030 C   0  0  0  0  0  3  0  0  0  0  0  0
  -20.7680  -26.9150   22.6430 C   0  0  0  0  0  2  0  0  0  0  0  0
  -19.6820  -26.5660   21.6210 C   0  0  0  0  0  2  0  0  0  0  0  0
  -18.2900  -26.6950   22.2480 C   0  0  0  0  0  2  0  0  0  0  0  0
  -19.1890  -28.8320   23.3410 C   0  0  0  0  0  0  0  0  0  0  0  0
  -18.9440  -30.0970   23.9170 C   0  0  0  0  0  3  0  0  0  0  0  0
  -17.6310  -30.5780   24.0660 C   0  0  0  0  0  3  0  0  0  0  0  0
  -16.5420  -29.7930   23.6510 C   0  0  0  0  0  3  0  0  0  0  0  0
  -16.7710  -28.5310   23.0750 C   0  0  0  0  0  3  0  0  0  0  0  0
  -25.9030  -32.5550   23.8630 C   0  0  0  0  0  3  0  0  0  0  0  0
  -25.5870  -33.9520   24.1900 N   0  0  0  0  0  0  0  0  0  0  0  0
  -25.9160  -35.0050   23.4290 C   0  0  0  0  0  0  0  0  0  0  0  0
  -26.5860  -34.9040   22.3980 O   0  0  0  0  0  0  0  0  0  0  0  0
  -24.9820  -34.1030   24.9830 H   0  0  0  0  0  0  0  0  0  0  0  0
  -24.1790  -36.7920   23.0760 C   0  0  0  0  0  1  0  0  0  0  0  0
  -25.4230  -36.3930   23.8850 C   0  0  0  0  0  3  0  0  0  0  0  0
  -27.5550  -37.2880   24.7100 C   0  0  0  0  0  1  0  0  0  0  0  0
  -26.4510  -37.4510   23.7680 N   0  0  0  0  0  0  0  0  0  0  0  0
  -26.0390  -38.3690   23.9200 H   0  0  0  0  0  0  0  0  0  0  0  0
  -26.4250  -31.7900   25.1400 C   0  0  1  0  0  0  0  0  0  0  0  0
  -25.3320  -31.5500   26.2100 C   0  0  0  0  0  1  0  0  0  0  0  0
  -27.0130  -30.4140   24.7490 C   0  0  0  0  0  1  0  0  0  0  0  0
  -27.5700  -32.5930   25.7980 C   0  0  0  0  0  1  0  0  0  0  0  0
  -29.3310  -19.8390   20.3180 C   0  0  0  0  0  3  0  0  0  0  0  0
  -29.7740  -18.4540   21.0000 C   0  0  0  0  0  3  0  0  0  0  0  0
  -29.9610  -17.1930   20.0380 C   0  0  0  0  0  2  0  0  0  0  0  0
  -30.6440  -14.7100   20.2450 C   0  0  0  0  0  0  0  0  0  0  0  0
  -30.4000  -12.4910   19.1600 C   0  0  0  0  0  2  0  0  0  0  0  0
  -29.4390  -12.6430   17.9590 C   0  0  0  0  0  2  0  0  0  0  0  0
  -27.9770  -12.4670   18.4110 C   0  0  0  0  0  2  0  0  0  0  0  0
  -27.6370  -13.3200   19.6610 C   0  0  0  0  0  3  0  0  0  0  0  0
  -28.7120  -13.1590   20.7640 C   0  0  0  0  0  2  0  0  0  0  0  0
  -30.0150  -13.4970   20.1730 N   0  0  0  0  0  0  0  0  0  0  0  0
  -31.7850  -14.8640   19.8030 O   0  0  0  0  0  0  0  0  0  0  0  0
  -29.8740  -15.7910   20.5930 N   0  0  0  0  0  0  0  0  0  0  0  0
  -28.9750  -15.5410   20.9800 H   0  0  0  0  0  0  0  0  0  0  0  0
  -25.2500  -13.9160   20.4010 C   0  0  0  0  0  0  0  0  0  0  0  0
  -24.1900  -13.1410   20.7900 C   0  0  0  0  0  0  0  0  0  0  0  0
  -24.6580  -11.7910   20.7650 C   0  0  0  0  0  0  0  0  0  0  0  0
  -26.2950  -13.0370   20.1600 N   0  0  0  0  0  0  0  0  0  0  0  0
  -25.9450  -11.7560   20.4410 N   0  0  0  0  0  0  0  0  0  0  0  0
  -23.9410  -10.5270   20.9740 C   0  0  0  0  0  0  0  0  0  0  0  0
  -24.3920   -9.5650   21.9040 C   0  0  0  0  0  3  0  0  0  0  0  0
  -23.6750   -8.3660   22.0980 C   0  0  0  0  0  3  0  0  0  0  0  0
  -22.4910   -8.1200   21.3640 C   0  0  0  0  0  0  0  0  0  0  0  0
  -22.0580   -9.0700   20.4220 C   0  0  0  0  0  3  0  0  0  0  0  0
  -22.7760  -10.2610   20.2250 C   0  0  0  0  0  3  0  0  0  0  0  0
  -21.7420   -6.9730   21.4690 O   0  0  0  0  0  0  0  0  0  0  0  0
  -21.7190   -6.2320   22.6230 C   0  0  0  0  0  0  0  0  0  0  0  0
  -21.3190   -6.7870   23.8580 C   0  0  0  0  0  3  0  0  0  0  0  0
  -21.2440   -5.9710   25.0040 C   0  0  0  0  0  3  0  0  0  0  0  0
  -21.5580   -4.6010   24.9170 C   0  0  0  0  0  0  0  0  0  0  0  0
  -21.9520   -4.0460   23.6870 C   0  0  0  0  0  3  0  0  0  0  0  0
  -22.0290   -4.8590   22.5430 C   0  0  0  0  0  0  0  0  0  0  0  0
  -22.3880   -4.3130   21.3550 F   0  0  0  0  0  0  0  0  0  0  0  0
  -21.4790   -3.8160   26.0170 F   0  0  0  0  0  0  0  0  0  0  0  0
  -22.7940  -13.6140   21.0750 C   0  0  0  0  0  0  0  0  0  0  0  0
  -22.0780  -12.9200   21.9530 N   0  0  0  0  0  0  0  0  0  0  0  0
  -22.3490  -14.6350   20.5550 O   0  0  0  0  0  0  0  0  0  0  0  0
  -22.4500  -12.0910   22.3920 H   0  0  0  0  0  0  0  0  0  0  0  0
  -21.1440  -13.2230   22.1880 H   0  0  0  0  0  0  0  0  0  0  0  0
  -25.4060  -15.2850   20.2100 N   0  0  0  0  0  0  0  0  0  0  0  0
  -24.6290  -15.9310   20.3090 H   0  0  0  0  0  0  0  0  0  0  0  0
  -26.2410  -15.7270   19.8490 H   0  0  0  0  0  0  0  0  0  0  0  0
  1  2  1  0
  1  3  1  0
  4  6  1  0
  5  4  1  0
  5  2  1  0
  5 11  1  0
  6 53  1  0
  6  3  1  0
  6  7  1  1
  7 10  1  0
  7  9  1  0
  7  8  1  0
 12 11  1  0
 13 24  2  0
 14 12  1  0
 14 19  1  0
 15 23  1  0
 15 25  1  0
 16 22  1  0
 16 18  1  0
 17 23  1  0
 18 19  2  0
 18 17  1  0
 20 14  2  0
 21 20  1  0
 21 16  2  0
 22 15  1  0
 23 13  1  0
 25 27  2  0
 26 25  1  0
 28 26  1  0
 29 38  2  0
 29 34  1  0
 30 26  1  0
 30 34  1  0
 31 30  1  0
 32 33  1  0
 32 31  1  0
 33 29  1  0
 34 35  2  0
 35 36  1  0
 37 36  2  0
 38 37  1  0
 39 13  1  0
 39 40  1  0
 39 49  1  0
 40 43  1  0
 41 45  1  0
 41 40  1  0
 42 41  2  0
 45 44  1  0
 47 45  1  0
 47 48  1  0
 47 46  1  0
 49 52  1  1
 49 50  1  0
 51 49  1  0
 53 54  2  0
 55 64  1  0
 55 54  1  0
 56 64  1  0
 57 62  1  0
 58 59  1  0
 58 57  1  0
 60 59  1  0
 60 69  1  0
 60 61  1  0
 62 56  1  0
 62 61  1  0
 63 56  2  0
 64 65  1  0
 66 67  2  0
 67 86  1  0
 68 67  1  0
 68 71  1  0
 69 66  1  0
 69 70  1  0
 70 68  2  0
 71 72  1  0
 72 73  2  0
 74 77  1  0
 74 73  1  0
 75 74  2  0
 76 75  1  0
 76 71  2  0
 77 78  1  0
 78 79  1  0
 79 80  2  0
 81 80  1  0
 81 85  1  0
 82 81  2  0
 83 78  2  0
 83 82  1  0
 84 83  1  0
 86 87  1  0
 87 90  1  0
 87 89  1  0
 88 86  2  0
 91 92  1  0
 91 66  1  0
 93 91  1  0
M  ISO  4  11 101  12 101  56 100  64 100
M  END
>  <TORSDO>  (14) 
F 21

>  <SCORE>  (14) 
-13.489

>  <name>  (14) 
13

>  <ligand_id>  (14) 
13

>  <original_smiles>  (14) 
[H]c1c([H])c([H])c2c(c1[H])C([H])([H])C([H])([H])C([H])([H])C2([H])N([H])C(=O)C1([H])N(C(=O)C([H])(N([H])C(=O)C([H])(N([H])C([H])([H])[H])C([H])([H])[H])C(C([H])([H])[H])(C([H])([H])[H])C([H])([H])[H])C([H])([H])c2c([H])c(OC([H])([H])C3([H])C([H])([H])C([H])([H])C([H])([H])C(C([H])([H])C([H])([H])C([H])([H])N([H])C(=O)N4C([H])([H])C([H])([H])C([H])([H])C([H])(n5nc(-c6c([H])c([H])c(Oc7c([H])c([H])c(F)c([H])c7F)c([H])c6[H])c(C(=O)N([H])[H])c5N([H])[H])C4([H])[H])([N+]([H])([H])[H])C3([H])[H])c([H])c([H])c2C1([H])[H]

>  <smiles>  (14) 
[H]c1c([H])c([H])c2c(c1[H])C([H])([H])C([H])([H])C([H])([H])C2([H])N([H])C(=O)C1([H])N(C(=O)C([H])(N([H])C(=O)C([H])(N([H])C([H])([H])[H])C([H])([H])[H])C(C([H])([H])[H])(C([H])([H])[H])C([H])([H])[H])C([H])([H])c2c([H])c(OC([H])([H])C3([H])C([H])([H])C([H])([H])C([H])([H])C(C([H])([H])C([H])([H])C([H])([H])N([H])C(=O)N4C([H])([H])C([H])([H])C([H])([H])C([H])(n5nc(-c6c([H])c([H])c(Oc7c([H])c([H])c(F)c([H])c7F)c([H])c6[H])c(C(=O)N([H])[H])c5N([H])[H])C4([H])[H])([N+]([H])([H])[H])C3([H])[H])c([H])c([H])c2C1([H])[H]

$$$$
14:0:0
     RDKit          3D

 89 97  0  0  1  0  0  0  0  0999 V2000
  -28.8180  -21.8780   20.8340 C   0  0  0  0  0  2  0  0  0  0  0  0
  -29.2590  -20.5510   20.0740 N   0  0  0  0  0  4  0  0  0  0  0  0
  -30.0580  -20.8100   19.5190 H   0  0  0  0  0  0  0  0  0  0  0  0
  -28.5180  -20.3780   19.4140 H   0  0  0  0  0  0  0  0  0  0  0  0
  -29.6080  -19.1450   20.7530 C   0  0  0  0  0  2  0  0  0  0  0  0
  -30.5760  -15.0500   20.5100 C   0  0  0  0  0  0  0  0  0  0  0  0
  -30.5580  -12.6500   19.6810 C   0  0  0  0  0  2  0  0  0  0  0  0
  -29.6780  -12.5140   18.4140 C   0  0  0  0  0  2  0  0  0  0  0  0
  -28.1940  -12.3310   18.7830 C   0  0  0  0  0  2  0  0  0  0  0  0
  -27.7230  -13.2970   19.9020 C   0  0  0  0  0  3  0  0  0  0  0  0
  -28.7260  -13.3630   21.0700 C   0  0  0  0  0  2  0  0  0  0  0  0
  -30.0160  -13.7700   20.5000 N   0  0  0  0  0  0  0  0  0  0  0  0
  -31.8100  -15.1260   20.4620 O   0  0  0  0  0  0  0  0  0  0  0  0
  -30.3680  -17.5360   18.6300 C   0  0  0  0  0  2  0  0  0  0  0  0
  -29.7640  -16.1330   18.6200 C   0  0  0  0  0  2  0  0  0  0  0  0
  -29.5070  -17.7400   19.8420 C   0  0  0  0  0  3  0  0  0  0  0  0
  -29.7370  -16.1530   20.1180 N   0  0  0  0  0  0  0  0  0  0  0  0
  -25.3090  -13.8820   20.5160 C   0  0  0  0  0  0  0  0  0  0  0  0
  -24.2300  -13.1090   20.8470 C   0  0  0  0  0  0  0  0  0  0  0  0
  -24.7030  -11.7610   20.8730 C   0  0  0  0  0  0  0  0  0  0  0  0
  -26.3660  -13.0040   20.3480 N   0  0  0  0  0  0  0  0  0  0  0  0
  -26.0080  -11.7260   20.6320 N   0  0  0  0  0  0  0  0  0  0  0  0
  -23.9750  -10.4980   21.0530 C   0  0  0  0  0  0  0  0  0  0  0  0
  -24.3720   -9.5480   22.0200 C   0  0  0  0  0  3  0  0  0  0  0  0
  -23.6430   -8.3510   22.1880 C   0  0  0  0  0  3  0  0  0  0  0  0
  -22.5040   -8.0950   21.3880 C   0  0  0  0  0  0  0  0  0  0  0  0
  -22.1260   -9.0350   20.4130 C   0  0  0  0  0  3  0  0  0  0  0  0
  -22.8560  -10.2230   20.2430 C   0  0  0  0  0  3  0  0  0  0  0  0
  -21.7500   -6.9490   21.4640 O   0  0  0  0  0  0  0  0  0  0  0  0
  -21.6640   -6.2190   22.6230 C   0  0  0  0  0  0  0  0  0  0  0  0
  -21.1990   -6.7890   23.8290 C   0  0  0  0  0  3  0  0  0  0  0  0
  -21.0590   -5.9850   24.9780 C   0  0  0  0  0  3  0  0  0  0  0  0
  -21.3750   -4.6150   24.9230 C   0  0  0  0  0  0  0  0  0  0  0  0
  -21.8350   -4.0460   23.7230 C   0  0  0  0  0  3  0  0  0  0  0  0
  -21.9750   -4.8450   22.5750 C   0  0  0  0  0  0  0  0  0  0  0  0
  -22.3970   -4.2880   21.4150 F   0  0  0  0  0  0  0  0  0  0  0  0
  -21.2340   -3.8420   26.0250 F   0  0  0  0  0  0  0  0  0  0  0  0
  -22.8190  -13.5830   21.0330 C   0  0  0  0  0  0  0  0  0  0  0  0
  -22.0510  -12.9040   21.8770 N   0  0  0  0  0  0  0  0  0  0  0  0
  -22.4040  -14.5920   20.4650 O   0  0  0  0  0  0  0  0  0  0  0  0
  -22.3990  -12.0890   22.3590 H   0  0  0  0  0  0  0  0  0  0  0  0
  -21.1000  -13.2040   22.0460 H   0  0  0  0  0  0  0  0  0  0  0  0
  -25.4770  -15.2490   20.3160 N   0  0  0  0  0  0  0  0  0  0  0  0
  -24.7080  -15.9080   20.3810 H   0  0  0  0  0  0  0  0  0  0  0  0
  -26.3530  -15.6840   20.0510 H   0  0  0  0  0  0  0  0  0  0  0  0
  -28.7380  -23.3500   20.0610 C   0  0  0  0  0  0  0  0  0  0  0  0
  -29.2870  -23.4380   18.9570 O   0  0  0  0  0  0  0  0  0  0  0  0
  -27.9630  -24.7000   20.6580 C   0  0  0  0  0  2  0  0  0  0  0  0
  -28.2220  -26.1720   20.1910 O   0  0  0  0  0  0  0  0  0  0  0  0
  -24.5900  -31.8720   23.2120 C   0  0  0  0  0  0  0  0  0  0  0  0
  -27.1620  -27.1530   20.1860 C   0  0  0  0  0  0  0  0  0  0  0  0
  -23.3830  -30.4660   21.5870 C   0  0  0  0  0  3  0  0  0  0  0  0
  -24.8270  -28.8890   20.1600 C   0  0  0  0  0  0  0  0  0  0  0  0
  -25.9340  -30.7420   21.4000 C   0  0  0  0  0  2  0  0  0  0  0  0
  -26.0100  -29.3440   20.7560 C   0  0  0  0  0  0  0  0  0  0  0  0
  -27.1810  -28.4940   20.7460 C   0  0  0  0  0  3  0  0  0  0  0  0
  -25.9520  -26.7980   19.5530 C   0  0  0  0  0  3  0  0  0  0  0  0
  -24.8100  -27.6290   19.5410 C   0  0  0  0  0  3  0  0  0  0  0  0
  -23.5960  -29.7830   20.2100 C   0  0  0  0  0  2  0  0  0  0  0  0
  -24.6560  -31.0480   22.1210 N   0  0  0  0  0  0  0  0  0  0  0  0
  -23.5060  -32.1540   23.7480 O   0  0  0  0  0  0  0  0  0  0  0  0
  -22.7140  -29.4610   22.5580 C   0  0  0  0  0  0  0  0  0  0  0  0
  -21.3850  -29.2850   22.4430 N   0  0  0  0  0  0  0  0  0  0  0  0
  -23.3950  -28.8390   23.3790 O   0  0  0  0  0  0  0  0  0  0  0  0
  -20.8930  -29.8400   21.7570 H   0  0  0  0  0  0  0  0  0  0  0  0
  -18.0130  -28.0720   22.9730 C   0  0  0  0  0  0  0  0  0  0  0  0
  -20.5730  -28.3490   23.2240 C   0  0  0  0  0  3  0  0  0  0  0  0
  -20.6780  -26.9140   22.6560 C   0  0  0  0  0  2  0  0  0  0  0  0
  -19.5710  -26.5800   21.6510 C   0  0  0  0  0  2  0  0  0  0  0  0
  -18.1930  -26.7200   22.3020 C   0  0  0  0  0  2  0  0  0  0  0  0
  -19.1300  -28.8430   23.3920 C   0  0  0  0  0  0  0  0  0  0  0  0
  -18.9070  -30.1050   23.9820 C   0  0  0  0  0  3  0  0  0  0  0  0
  -17.6010  -30.5980   24.1570 C   0  0  0  0  0  3  0  0  0  0  0  0
  -16.4980  -29.8250   23.7530 C   0  0  0  0  0  3  0  0  0  0  0  0
  -16.7050  -28.5640   23.1670 C   0  0  0  0  0  3  0  0  0  0  0  0
  -25.8700  -32.5150   23.8280 C   0  0  0  0  0  3  0  0  0  0  0  0
  -26.3950  -31.7490   25.1050 C   0  0  1  0  0  0  0  0  0  0  0  0
  -25.3100  -31.5140   26.1810 C   0  0  0  0  0  1  0  0  0  0  0  0
  -26.9780  -30.3710   24.7190 C   0  0  0  0  0  1  0  0  0  0  0  0
  -27.5500  -32.5480   25.7560 C   0  0  0  0  0  1  0  0  0  0  0  0
  -25.5540  -33.9120   24.1640 N   0  0  0  0  0  0  0  0  0  0  0  0
  -25.8800  -34.9720   23.4130 C   0  0  0  0  0  0  0  0  0  0  0  0
  -26.5470  -34.8760   22.3780 O   0  0  0  0  0  0  0  0  0  0  0  0
  -24.9610  -34.0590   24.9680 H   0  0  0  0  0  0  0  0  0  0  0  0
  -24.1520  -36.7700   23.0740 C   0  0  0  0  0  1  0  0  0  0  0  0
  -25.3930  -36.3580   23.8810 C   0  0  0  0  0  3  0  0  0  0  0  0
  -27.5270  -37.2380   24.7190 C   0  0  0  0  0  1  0  0  0  0  0  0
  -26.4250  -37.4120   23.7770 N   0  0  0  0  0  0  0  0  0  0  0  0
  -26.0190  -38.3310   23.9310 H   0  0  0  0  0  0  0  0  0  0  0  0
  2  5  1  0
  2  1  1  0
  3  2  1  0
  4  2  1  0
  7 12  1  0
  8  9  1  0
  8  7  1  0
 10  9  1  0
 10 21  1  0
 10 11  1  0
 12  6  1  0
 12 11  1  0
 13  6  2  0
 14 16  1  0
 15 14  1  0
 15 17  1  0
 16 17  1  0
 16  5  1  0
 17  6  1  0
 18 19  2  0
 19 20  1  0
 19 38  1  0
 20 23  1  0
 21 18  1  0
 21 22  1  0
 22 20  2  0
 23 24  1  0
 24 25  2  0
 26 29  1  0
 26 25  1  0
 27 26  2  0
 28 27  1  0
 28 23  2  0
 29 30  1  0
 30 31  1  0
 31 32  2  0
 33 32  1  0
 33 37  1  0
 34 33  2  0
 35 30  2  0
 35 34  1  0
 36 35  1  0
 38 39  1  0
 39 42  1  0
 39 41  1  0
 40 38  2  0
 43 44  1  0
 43 18  1  0
 45 43  1  0
 46 48  1  0
 46  1  1  0
 47 46  2  0
 49 48  1  0
 50 61  2  0
 51 49  1  0
 51 56  1  0
 52 60  1  0
 52 62  1  0
 53 59  1  0
 53 55  1  0
 54 60  1  0
 55 54  1  0
 56 55  2  0
 57 51  2  0
 58 57  1  0
 58 53  2  0
 59 52  1  0
 60 50  1  0
 62 64  2  0
 63 62  1  0
 65 63  1  0
 66 75  2  0
 66 71  1  0
 67 63  1  0
 67 71  1  0
 68 67  1  0
 69 70  1  0
 69 68  1  0
 70 66  1  0
 71 72  2  0
 72 73  1  0
 74 73  2  0
 75 74  1  0
 76 50  1  0
 76 81  1  0
 76 77  1  0
 77 80  1  1
 77 78  1  0
 79 77  1  0
 81 84  1  0
 82 86  1  0
 82 81  1  0
 83 82  2  0
 86 85  1  0
 88 86  1  0
 88 89  1  0
 88 87  1  0
M  ISO  4   6 100  17 100  48 101  49 101
M  END
>  <TORSDO>  (15) 
F 20

>  <SCORE>  (15) 
-13.196

>  <name>  (15) 
14

>  <ligand_id>  (15) 
14

>  <original_smiles>  (15) 
[H]c1c([H])c([H])c2c(c1[H])C([H])([H])C([H])([H])C([H])([H])C2([H])N([H])C(=O)C1([H])N(C(=O)C([H])(N([H])C(=O)C([H])(N([H])C([H])([H])[H])C([H])([H])[H])C(C([H])([H])[H])(C([H])([H])[H])C([H])([H])[H])C([H])([H])c2c([H])c(OC([H])([H])C(=O)C([H])([H])[N+]([H])([H])C([H])([H])C3([H])N(C(=O)N4C([H])([H])C([H])([H])C([H])([H])C([H])(n5nc(-c6c([H])c([H])c(Oc7c([H])c([H])c(F)c([H])c7F)c([H])c6[H])c(C(=O)N([H])[H])c5N([H])[H])C4([H])[H])C([H])([H])C3([H])[H])c([H])c([H])c2C1([H])[H]

>  <smiles>  (15) 
[H]c1c([H])c([H])c2c(c1[H])C([H])([H])C([H])([H])C([H])([H])C2([H])N([H])C(=O)C1([H])N(C(=O)C([H])(N([H])C(=O)C([H])(N([H])C([H])([H])[H])C([H])([H])[H])C(C([H])([H])[H])(C([H])([H])[H])C([H])([H])[H])C([H])([H])c2c([H])c(OC([H])([H])C(=O)C([H])([H])[N+]([H])([H])C([H])([H])C3([H])N(C(=O)N4C([H])([H])C([H])([H])C([H])([H])C([H])(n5nc(-c6c([H])c([H])c(Oc7c([H])c([H])c(F)c([H])c7F)c([H])c6[H])c(C(=O)N([H])[H])c5N([H])[H])C4([H])[H])C([H])([H])C3([H])[H])c([H])c([H])c2C1([H])[H]

$$$$
15:0:0
     RDKit          3D

 92101  0  0  1  0  0  0  0  0999 V2000
  -28.6680  -21.1830   21.0080 C   0  0  0  0  0  2  0  0  0  0  0  0
  -29.0280  -22.0420   18.8670 C   0  0  0  0  0  2  0  0  0  0  0  0
  -31.0390  -18.6180   19.4050 C   0  0  0  0  0  2  0  0  0  0  0  0
  -28.8910  -19.7140   20.1390 C   0  0  0  0  0  3  0  0  0  0  0  0
  -29.4550  -20.4800   18.9170 C   0  0  0  0  0  3  0  0  0  0  0  0
  -28.8460  -22.7260   20.2680 C   0  0  0  0  0  3  0  0  0  0  0  0
  -29.9030  -18.2580   20.3920 C   0  0  0  0  0  3  0  0  0  0  0  0
  -30.9550  -20.1330   19.0350 C   0  0  0  0  0  3  0  0  0  0  0  0
  -30.3720  -15.3320   20.2200 C   0  0  0  0  0  0  0  0  0  0  0  0
  -30.3480  -12.8960   19.3200 C   0  0  0  0  0  2  0  0  0  0  0  0
  -29.4120  -12.6780   18.1050 C   0  0  0  0  0  2  0  0  0  0  0  0
  -27.9700  -12.3990   18.5660 C   0  0  0  0  0  2  0  0  0  0  0  0
  -27.5280  -13.3550   19.7010 C   0  0  0  0  0  3  0  0  0  0  0  0
  -28.5920  -13.5060   20.8070 C   0  0  0  0  0  2  0  0  0  0  0  0
  -29.8040  -14.0280   20.1550 N   0  0  0  0  0  0  0  0  0  0  0  0
  -31.5920  -15.3300   20.0030 O   0  0  0  0  0  0  0  0  0  0  0  0
  -29.6100  -16.6070   20.3230 N   0  0  0  0  0  0  0  0  0  0  0  0
  -28.6250  -16.4070   20.4200 H   0  0  0  0  0  0  0  0  0  0  0  0
  -25.1660  -13.8930   20.4980 C   0  0  0  0  0  0  0  0  0  0  0  0
  -24.1160  -13.1060   20.8810 C   0  0  0  0  0  0  0  0  0  0  0  0
  -24.5930  -11.7600   20.8360 C   0  0  0  0  0  0  0  0  0  0  0  0
  -26.2110  -13.0270   20.2320 N   0  0  0  0  0  0  0  0  0  0  0  0
  -25.8800  -11.7380   20.5040 N   0  0  0  0  0  0  0  0  0  0  0  0
  -23.8770  -10.4910   21.0280 C   0  0  0  0  0  0  0  0  0  0  0  0
  -24.3270   -9.5220   21.9520 C   0  0  0  0  0  3  0  0  0  0  0  0
  -23.6090   -8.3210   22.1360 C   0  0  0  0  0  3  0  0  0  0  0  0
  -22.4270   -8.0800   21.3960 C   0  0  0  0  0  0  0  0  0  0  0  0
  -21.9960   -9.0370   20.4610 C   0  0  0  0  0  3  0  0  0  0  0  0
  -22.7150  -10.2310   20.2760 C   0  0  0  0  0  3  0  0  0  0  0  0
  -21.6790   -6.9310   21.4880 O   0  0  0  0  0  0  0  0  0  0  0  0
  -21.6460   -6.1850   22.6390 C   0  0  0  0  0  0  0  0  0  0  0  0
  -21.2160   -6.7300   23.8690 C   0  0  0  0  0  3  0  0  0  0  0  0
  -21.1320   -5.9090   25.0120 C   0  0  0  0  0  3  0  0  0  0  0  0
  -21.4680   -4.5440   24.9250 C   0  0  0  0  0  0  0  0  0  0  0  0
  -21.8910   -3.9990   23.7000 C   0  0  0  0  0  3  0  0  0  0  0  0
  -21.9770   -4.8170   22.5600 C   0  0  0  0  0  0  0  0  0  0  0  0
  -22.3650   -4.2820   21.3780 F   0  0  0  0  0  0  0  0  0  0  0  0
  -21.3790   -3.7530   26.0200 F   0  0  0  0  0  0  0  0  0  0  0  0
  -22.7190  -13.5720   21.1660 C   0  0  0  0  0  0  0  0  0  0  0  0
  -22.0050  -12.8750   22.0430 N   0  0  0  0  0  0  0  0  0  0  0  0
  -22.2670  -14.5920   20.6460 O   0  0  0  0  0  0  0  0  0  0  0  0
  -22.3840  -12.0540   22.4910 H   0  0  0  0  0  0  0  0  0  0  0  0
  -21.0670  -13.1700   22.2730 H   0  0  0  0  0  0  0  0  0  0  0  0
  -25.3130  -15.2660   20.3240 N   0  0  0  0  0  0  0  0  0  0  0  0
  -24.5370  -15.9080   20.4490 H   0  0  0  0  0  0  0  0  0  0  0  0
  -26.1370  -15.7130   19.9450 H   0  0  0  0  0  0  0  0  0  0  0  0
  -31.7130  -20.4590   17.8150 N   0  0  0  0  0  4  0  0  0  0  0  0
  -31.3480  -19.9790   17.0120 H   0  0  0  0  0  0  0  0  0  0  0  0
  -32.6790  -20.2060   17.9240 H   0  0  0  0  0  0  0  0  0  0  0  0
  -31.6800  -21.4470   17.6350 H   0  0  0  0  0  0  0  0  0  0  0  0
  -27.9030  -24.2700   20.4130 C   0  0  0  0  0  2  0  0  0  0  0  0
  -28.1780  -25.8980   20.3090 O   0  0  0  0  0  0  0  0  0  0  0  0
  -24.6390  -31.9040   23.2570 C   0  0  0  0  0  0  0  0  0  0  0  0
  -27.1640  -26.9950   20.2720 C   0  0  0  0  0  0  0  0  0  0  0  0
  -23.4360  -30.5050   21.6300 C   0  0  0  0  0  3  0  0  0  0  0  0
  -24.8730  -28.8850   20.2160 C   0  0  0  0  0  0  0  0  0  0  0  0
  -26.0020  -30.7050   21.4750 C   0  0  0  0  0  2  0  0  0  0  0  0
  -26.0650  -29.2900   20.8300 C   0  0  0  0  0  0  0  0  0  0  0  0
  -27.2070  -28.3670   20.8300 C   0  0  0  0  0  3  0  0  0  0  0  0
  -25.9410  -26.7430   19.6100 C   0  0  0  0  0  3  0  0  0  0  0  0
  -24.8360  -27.6320   19.5850 C   0  0  0  0  0  3  0  0  0  0  0  0
  -23.6590  -29.8140   20.2570 C   0  0  0  0  0  2  0  0  0  0  0  0
  -24.7150  -31.0650   22.1740 N   0  0  0  0  0  0  0  0  0  0  0  0
  -23.5520  -32.2020   23.7790 O   0  0  0  0  0  0  0  0  0  0  0  0
  -22.7390  -29.5170   22.6020 C   0  0  0  0  0  0  0  0  0  0  0  0
  -21.4080  -29.3510   22.4740 N   0  0  0  0  0  0  0  0  0  0  0  0
  -23.4010  -28.9010   23.4400 O   0  0  0  0  0  0  0  0  0  0  0  0
  -20.9260  -29.9000   21.7770 H   0  0  0  0  0  0  0  0  0  0  0  0
  -18.0270  -28.1340   22.9750 C   0  0  0  0  0  0  0  0  0  0  0  0
  -20.5830  -28.4200   23.2530 C   0  0  0  0  0  3  0  0  0  0  0  0
  -20.6980  -26.9800   22.7010 C   0  0  0  0  0  2  0  0  0  0  0  0
  -19.6060  -26.6370   21.6830 C   0  0  0  0  0  2  0  0  0  0  0  0
  -18.2180  -26.7780   22.3150 C   0  0  0  0  0  2  0  0  0  0  0  0
  -19.1370  -28.9120   23.4010 C   0  0  0  0  0  0  0  0  0  0  0  0
  -18.9030  -30.1770   23.9810 C   0  0  0  0  0  3  0  0  0  0  0  0
  -17.5920  -30.6660   24.1380 C   0  0  0  0  0  3  0  0  0  0  0  0
  -16.4970  -29.8870   23.7260 C   0  0  0  0  0  3  0  0  0  0  0  0
  -16.7150  -28.6230   23.1490 C   0  0  0  0  0  3  0  0  0  0  0  0
  -25.9140  -32.5450   23.8830 C   0  0  0  0  0  3  0  0  0  0  0  0
  -26.4170  -31.7860   25.1740 C   0  0  1  0  0  0  0  0  0  0  0  0
  -25.3170  -31.5710   26.2400 C   0  0  0  0  0  1  0  0  0  0  0  0
  -26.9940  -30.4000   24.8110 C   0  0  0  0  0  1  0  0  0  0  0  0
  -27.5700  -32.5820   25.8320 C   0  0  0  0  0  1  0  0  0  0  0  0
  -25.6020  -33.9480   24.2100 N   0  0  0  0  0  0  0  0  0  0  0  0
  -25.9240  -35.0040   23.4500 C   0  0  0  0  0  0  0  0  0  0  0  0
  -26.5770  -34.9000   22.4090 O   0  0  0  0  0  0  0  0  0  0  0  0
  -25.0180  -34.1020   25.0180 H   0  0  0  0  0  0  0  0  0  0  0  0
  -24.1870  -36.8030   23.1430 C   0  0  0  0  0  1  0  0  0  0  0  0
  -25.4500  -36.3960   23.9190 C   0  0  0  0  0  3  0  0  0  0  0  0
  -27.6040  -37.2900   24.6900 C   0  0  0  0  0  1  0  0  0  0  0  0
  -26.4780  -37.4490   23.7730 N   0  0  0  0  0  0  0  0  0  0  0  0
  -26.0750  -38.3700   23.9220 H   0  0  0  0  0  0  0  0  0  0  0  0
  2  6  1  0
  3  7  1  0
  4  7  1  0
  4  1  1  0
  5  2  1  0
  5  8  1  0
  5  4  1  0
  6 51  1  0
  6  1  1  0
  7 17  1  0
  8 47  1  0
  8  3  1  0
  9 17  1  0
 10 15  1  0
 11 12  1  0
 11 10  1  0
 13 12  1  0
 13 22  1  0
 13 14  1  0
 15  9  1  0
 15 14  1  0
 16  9  2  0
 17 18  1  0
 19 20  2  0
 20 39  1  0
 21 20  1  0
 21 24  1  0
 22 19  1  0
 22 23  1  0
 23 21  2  0
 24 25  1  0
 25 26  2  0
 27 30  1  0
 27 26  1  0
 28 27  2  0
 29 28  1  0
 29 24  2  0
 30 31  1  0
 31 32  1  0
 32 33  2  0
 34 33  1  0
 34 38  1  0
 35 34  2  0
 36 31  2  0
 36 35  1  0
 37 36  1  0
 39 40  1  0
 40 43  1  0
 40 42  1  0
 41 39  2  0
 44 45  1  0
 44 19  1  0
 46 44  1  0
 47 49  1  0
 48 47  1  0
 50 47  1  0
 52 51  1  0
 53 64  2  0
 54 52  1  0
 54 59  1  0
 55 63  1  0
 55 65  1  0
 56 62  1  0
 56 58  1  0
 57 63  1  0
 58 59  2  0
 58 57  1  0
 60 54  2  0
 61 60  1  0
 61 56  2  0
 62 55  1  0
 63 53  1  0
 65 67  2  0
 66 65  1  0
 68 66  1  0
 69 78  2  0
 69 74  1  0
 70 66  1  0
 70 74  1  0
 71 70  1  0
 72 73  1  0
 72 71  1  0
 73 69  1  0
 74 75  2  0
 75 76  1  0
 77 76  2  0
 78 77  1  0
 79 53  1  0
 79 84  1  0
 79 80  1  0
 80 83  1  1
 80 81  1  0
 82 80  1  0
 84 87  1  0
 85 89  1  0
 85 84  1  0
 86 85  2  0
 89 88  1  0
 91 89  1  0
 91 92  1  0
 91 90  1  0
M  ISO  4   9 100  17 100  51 101  52 101
M  END
>  <TORSDO>  (16) 
F 18

>  <SCORE>  (16) 
-16.564

>  <name>  (16) 
15

>  <ligand_id>  (16) 
15

>  <original_smiles>  (16) 
[H]c1c([H])c([H])c2c(c1[H])C([H])([H])C([H])([H])C([H])([H])C2([H])N([H])C(=O)C1([H])N(C(=O)C([H])(N([H])C(=O)C([H])(N([H])C([H])([H])[H])C([H])([H])[H])C(C([H])([H])[H])(C([H])([H])[H])C([H])([H])[H])C([H])([H])c2c([H])c(OC([H])([H])C3([H])C([H])([H])C4([H])C([H])(N([H])C(=O)N5C([H])([H])C([H])([H])C([H])([H])C([H])(n6nc(-c7c([H])c([H])c(Oc8c([H])c([H])c(F)c([H])c8F)c([H])c7[H])c(C(=O)N([H])[H])c6N([H])[H])C5([H])[H])C([H])([H])C([H])([N+]([H])([H])[H])C4([H])C3([H])[H])c([H])c([H])c2C1([H])[H]

>  <smiles>  (16) 
[H]c1c([H])c([H])c2c(c1[H])C([H])([H])C([H])([H])C([H])([H])C2([H])N([H])C(=O)C1([H])N(C(=O)C([H])(N([H])C(=O)C([H])(N([H])C([H])([H])[H])C([H])([H])[H])C(C([H])([H])[H])(C([H])([H])[H])C([H])([H])[H])C([H])([H])c2c([H])c(OC([H])([H])C3([H])C([H])([H])C4([H])C([H])(N([H])C(=O)N5C([H])([H])C([H])([H])C([H])([H])C([H])(n6nc(-c7c([H])c([H])c(Oc8c([H])c([H])c(F)c([H])c8F)c([H])c7[H])c(C(=O)N([H])[H])c6N([H])[H])C5([H])[H])C([H])([H])C([H])([N+]([H])([H])[H])C4([H])C3([H])[H])c([H])c([H])c2C1([H])[H]

$$$$
16:0:0
     RDKit          3D

 95103  0  0  1  0  0  0  0  0999 V2000
  -31.3010  -23.4440   21.6770 C   0  0  0  0  0  3  0  0  0  0  0  0
  -31.8500  -22.3200   21.0840 C   0  0  0  0  0  3  0  0  0  0  0  0
  -29.9880  -23.7760   21.3610 C   0  0  0  0  0  3  0  0  0  0  0  0
  -31.0480  -21.3980   20.3920 C   0  0  0  0  0  0  0  0  0  0  0  0
  -29.1200  -22.9770   20.5760 C   0  0  0  0  0  0  0  0  0  0  0  0
  -29.6080  -21.4570   20.3630 C   0  0  0  0  0  0  0  0  0  0  0  0
  -31.8760  -20.3710   19.6380 C   0  0  0  0  0  1  0  0  0  0  0  0
  -27.9190  -24.1720   20.1800 C   0  0  0  0  0  2  0  0  0  0  0  0
  -28.1120  -25.8250   20.3030 O   0  0  0  0  0  0  0  0  0  0  0  0
  -24.6260  -31.8680   23.2150 C   0  0  0  0  0  0  0  0  0  0  0  0
  -27.1090  -26.9310   20.2260 C   0  0  0  0  0  0  0  0  0  0  0  0
  -23.4090  -30.4730   21.5920 C   0  0  0  0  0  3  0  0  0  0  0  0
  -24.8340  -28.8430   20.1720 C   0  0  0  0  0  0  0  0  0  0  0  0
  -25.9770  -30.6570   21.4310 C   0  0  0  0  0  2  0  0  0  0  0  0
  -26.0290  -29.2400   20.7850 C   0  0  0  0  0  0  0  0  0  0  0  0
  -27.1610  -28.3050   20.7850 C   0  0  0  0  0  3  0  0  0  0  0  0
  -25.8860  -26.6890   19.5630 C   0  0  0  0  0  3  0  0  0  0  0  0
  -24.7900  -27.5890   19.5400 C   0  0  0  0  0  3  0  0  0  0  0  0
  -23.6240  -29.7780   20.2190 C   0  0  0  0  0  2  0  0  0  0  0  0
  -24.6930  -31.0270   22.1330 N   0  0  0  0  0  0  0  0  0  0  0  0
  -23.5420  -32.1740   23.7400 O   0  0  0  0  0  0  0  0  0  0  0  0
  -22.7100  -29.4910   22.5680 C   0  0  0  0  0  0  0  0  0  0  0  0
  -21.3780  -29.3380   22.4510 N   0  0  0  0  0  0  0  0  0  0  0  0
  -23.3730  -28.8670   23.4000 O   0  0  0  0  0  0  0  0  0  0  0  0
  -20.8950  -29.8900   21.7560 H   0  0  0  0  0  0  0  0  0  0  0  0
  -17.9900  -28.1530   22.9760 C   0  0  0  0  0  0  0  0  0  0  0  0
  -20.5520  -28.4130   23.2340 C   0  0  0  0  0  3  0  0  0  0  0  0
  -20.6470  -26.9740   22.6750 C   0  0  0  0  0  2  0  0  0  0  0  0
  -19.5430  -26.6450   21.6660 C   0  0  0  0  0  2  0  0  0  0  0  0
  -18.1620  -26.7980   22.3100 C   0  0  0  0  0  2  0  0  0  0  0  0
  -19.1120  -28.9180   23.3960 C   0  0  0  0  0  0  0  0  0  0  0  0
  -18.8940  -30.1840   23.9820 C   0  0  0  0  0  3  0  0  0  0  0  0
  -17.5900  -30.6860   24.1510 C   0  0  0  0  0  3  0  0  0  0  0  0
  -16.4840  -29.9190   23.7450 C   0  0  0  0  0  3  0  0  0  0  0  0
  -16.6850  -28.6540   23.1650 C   0  0  0  0  0  3  0  0  0  0  0  0
  -25.9070  -32.5040   23.8370 C   0  0  0  0  0  3  0  0  0  0  0  0
  -25.6000  -33.9040   24.1780 N   0  0  0  0  0  0  0  0  0  0  0  0
  -25.9180  -34.9660   23.4260 C   0  0  0  0  0  0  0  0  0  0  0  0
  -26.5630  -34.8700   22.3790 O   0  0  0  0  0  0  0  0  0  0  0  0
  -25.0240  -34.0530   24.9940 H   0  0  0  0  0  0  0  0  0  0  0  0
  -24.1810  -36.7680   23.1410 C   0  0  0  0  0  1  0  0  0  0  0  0
  -25.4470  -36.3540   23.9080 C   0  0  0  0  0  3  0  0  0  0  0  0
  -27.6070  -37.2370   24.6760 C   0  0  0  0  0  1  0  0  0  0  0  0
  -26.4760  -37.4090   23.7680 N   0  0  0  0  0  0  0  0  0  0  0  0
  -26.0750  -38.3270   23.9330 H   0  0  0  0  0  0  0  0  0  0  0  0
  -26.4220  -31.7350   25.1160 C   0  0  1  0  0  0  0  0  0  0  0  0
  -25.3300  -31.5120   26.1890 C   0  0  0  0  0  1  0  0  0  0  0  0
  -26.9940  -30.3500   24.7380 C   0  0  0  0  0  1  0  0  0  0  0  0
  -27.5780  -32.5240   25.7740 C   0  0  0  0  0  1  0  0  0  0  0  0
  -29.0060  -19.7920   20.2800 C   0  0  0  0  0  3  0  0  0  0  0  0
  -27.8560  -19.6590   19.2650 C   0  0  0  0  0  2  0  0  0  0  0  0
  -28.2710  -19.7040   17.7820 C   0  0  0  0  0  2  0  0  0  0  0  0
  -27.9930  -21.0050   17.1500 N   0  0  0  0  0  4  0  0  0  0  0  0
  -27.0190  -21.2380   17.2340 H   0  0  0  0  0  0  0  0  0  0  0  0
  -28.2110  -20.9560   16.1700 H   0  0  0  0  0  0  0  0  0  0  0  0
  -28.5470  -21.7350   17.5620 H   0  0  0  0  0  0  0  0  0  0  0  0
  -29.9290  -18.2010   20.3190 C   0  0  0  0  0  2  0  0  0  0  0  0
  -30.3200  -15.2860   20.2360 C   0  0  0  0  0  0  0  0  0  0  0  0
  -30.2810  -12.8470   19.3470 C   0  0  0  0  0  2  0  0  0  0  0  0
  -29.3370  -12.6380   18.1360 C   0  0  0  0  0  2  0  0  0  0  0  0
  -27.9010  -12.3560   18.6080 C   0  0  0  0  0  2  0  0  0  0  0  0
  -27.4700  -13.3100   19.7490 C   0  0  0  0  0  3  0  0  0  0  0  0
  -28.5420  -13.4670   20.8490 C   0  0  0  0  0  2  0  0  0  0  0  0
  -29.7490  -13.9830   20.1870 N   0  0  0  0  0  0  0  0  0  0  0  0
  -31.5330  -15.2820   19.9860 O   0  0  0  0  0  0  0  0  0  0  0  0
  -29.5690  -16.5650   20.3650 N   0  0  0  0  0  0  0  0  0  0  0  0
  -28.5890  -16.3880   20.5250 H   0  0  0  0  0  0  0  0  0  0  0  0
  -25.1200  -13.8400   20.5740 C   0  0  0  0  0  0  0  0  0  0  0  0
  -24.0740  -13.0530   20.9590 C   0  0  0  0  0  0  0  0  0  0  0  0
  -24.5480  -11.7060   20.9000 C   0  0  0  0  0  0  0  0  0  0  0  0
  -26.1600  -12.9760   20.2930 N   0  0  0  0  0  0  0  0  0  0  0  0
  -25.8320  -11.6850   20.5570 N   0  0  0  0  0  0  0  0  0  0  0  0
  -23.8330  -10.4370   21.0940 C   0  0  0  0  0  0  0  0  0  0  0  0
  -24.2980   -9.4560   21.9960 C   0  0  0  0  0  3  0  0  0  0  0  0
  -23.5810   -8.2540   22.1800 C   0  0  0  0  0  3  0  0  0  0  0  0
  -22.3850   -8.0250   21.4590 C   0  0  0  0  0  0  0  0  0  0  0  0
  -21.9380   -8.9940   20.5450 C   0  0  0  0  0  3  0  0  0  0  0  0
  -22.6550  -10.1880   20.3590 C   0  0  0  0  0  3  0  0  0  0  0  0
  -21.6330   -6.8780   21.5530 O   0  0  0  0  0  0  0  0  0  0  0  0
  -21.6310   -6.1120   22.6910 C   0  0  0  0  0  0  0  0  0  0  0  0
  -21.2490   -6.6380   23.9440 C   0  0  0  0  0  3  0  0  0  0  0  0
  -21.1970   -5.7970   25.0740 C   0  0  0  0  0  3  0  0  0  0  0  0
  -21.5150   -4.4310   24.9510 C   0  0  0  0  0  0  0  0  0  0  0  0
  -21.8900   -3.9040   23.7030 C   0  0  0  0  0  3  0  0  0  0  0  0
  -21.9460   -4.7430   22.5760 C   0  0  0  0  0  0  0  0  0  0  0  0
  -22.2900   -4.2270   21.3700 F   0  0  0  0  0  0  0  0  0  0  0  0
  -21.4570   -3.6200   26.0340 F   0  0  0  0  0  0  0  0  0  0  0  0
  -22.6810  -13.5190   21.2660 C   0  0  0  0  0  0  0  0  0  0  0  0
  -21.9800  -12.8090   22.1420 N   0  0  0  0  0  0  0  0  0  0  0  0
  -22.2260  -14.5460   20.7630 O   0  0  0  0  0  0  0  0  0  0  0  0
  -22.3680  -11.9800   22.5680 H   0  0  0  0  0  0  0  0  0  0  0  0
  -21.0450  -13.0980   22.3940 H   0  0  0  0  0  0  0  0  0  0  0  0
  -25.2670  -15.2150   20.4050 N   0  0  0  0  0  0  0  0  0  0  0  0
  -24.4950  -15.8580   20.5270 H   0  0  0  0  0  0  0  0  0  0  0  0
  -26.0880  -15.6530   20.0100 H   0  0  0  0  0  0  0  0  0  0  0  0
  2  1  2  0
  3  1  1  0
  4  2  1  0
  5  3  2  0
  6  4  2  0
  6  5  1  0
  7  4  1  0
  8  9  1  0
  8  5  1  0
 10 21  2  0
 11  9  1  0
 11 16  1  0
 12 20  1  0
 12 22  1  0
 13 19  1  0
 13 15  1  0
 14 20  1  0
 15 16  2  0
 15 14  1  0
 17 11  2  0
 18 17  1  0
 18 13  2  0
 19 12  1  0
 20 10  1  0
 22 24  2  0
 23 22  1  0
 25 23  1  0
 26 35  2  0
 26 31  1  0
 27 23  1  0
 27 31  1  0
 28 27  1  0
 29 30  1  0
 29 28  1  0
 30 26  1  0
 31 32  2  0
 32 33  1  0
 34 33  2  0
 35 34  1  0
 36 10  1  0
 36 37  1  0
 36 46  1  0
 37 40  1  0
 38 42  1  0
 38 37  1  0
 39 38  2  0
 42 41  1  0
 44 42  1  0
 44 45  1  0
 44 43  1  0
 46 49  1  1
 46 47  1  0
 48 46  1  0
 50 51  1  0
 50 57  1  0
 50  6  1  0
 52 51  1  0
 53 54  1  0
 53 56  1  0
 53 52  1  0
 55 53  1  0
 57 66  1  0
 58 66  1  0
 59 64  1  0
 60 61  1  0
 60 59  1  0
 62 61  1  0
 62 71  1  0
 62 63  1  0
 64 58  1  0
 64 63  1  0
 65 58  2  0
 66 67  1  0
 68 69  2  0
 69 88  1  0
 70 69  1  0
 70 73  1  0
 71 72  1  0
 71 68  1  0
 72 70  2  0
 73 74  1  0
 74 75  2  0
 76 79  1  0
 76 75  1  0
 77 76  2  0
 78 77  1  0
 78 73  2  0
 79 80  1  0
 80 81  1  0
 81 82  2  0
 83 82  1  0
 83 87  1  0
 84 83  2  0
 85 80  2  0
 85 84  1  0
 86 85  1  0
 88 89  1  0
 89 92  1  0
 89 91  1  0
 90 88  2  0
 93 94  1  0
 93 68  1  0
 95 93  1  0
M  ISO  4   8 101   9 101  58 100  66 100
M  END
>  <TORSDO>  (17) 
F 22

>  <SCORE>  (17) 
-15.185

>  <name>  (17) 
16

>  <ligand_id>  (17) 
16

>  <original_smiles>  (17) 
[H]c1c([H])c(C([H])([H])[H])c(C([H])(C([H])([H])N([H])C(=O)N2C([H])([H])C([H])([H])C([H])([H])C([H])(n3nc(-c4c([H])c([H])c(Oc5c([H])c([H])c(F)c([H])c5F)c([H])c4[H])c(C(=O)N([H])[H])c3N([H])[H])C2([H])[H])C([H])([H])C([H])([H])[N+]([H])([H])[H])c(C([H])([H])Oc2c([H])c([H])c3c(c2[H])C([H])([H])N(C(=O)C([H])(N([H])C(=O)C([H])(N([H])C([H])([H])[H])C([H])([H])[H])C(C([H])([H])[H])(C([H])([H])[H])C([H])([H])[H])C([H])(C(=O)N([H])C2([H])c4c([H])c([H])c([H])c([H])c4C([H])([H])C([H])([H])C2([H])[H])C3([H])[H])c1[H]

>  <smiles>  (17) 
[H]c1c([H])c(C([H])([H])[H])c(C([H])(C([H])([H])N([H])C(=O)N2C([H])([H])C([H])([H])C([H])([H])C([H])(n3nc(-c4c([H])c([H])c(Oc5c([H])c([H])c(F)c([H])c5F)c([H])c4[H])c(C(=O)N([H])[H])c3N([H])[H])C2([H])[H])C([H])([H])C([H])([H])[N+]([H])([H])[H])c(C([H])([H])Oc2c([H])c([H])c3c(c2[H])C([H])([H])N(C(=O)C([H])(N([H])C(=O)C([H])(N([H])C([H])([H])[H])C([H])([H])[H])C(C([H])([H])[H])(C([H])([H])[H])C([H])([H])[H])C([H])(C(=O)N([H])C2([H])c4c([H])c([H])c([H])c([H])c4C([H])([H])C([H])([H])C2([H])[H])C3([H])[H])c1[H]

$$$$
17:0:0
     RDKit          3D

 89 97  0  0  1  0  0  0  0  0999 V2000
  -28.4320  -20.4890   20.6140 C   0  0  0  0  0  3  0  0  0  0  0  0
  -30.4370  -21.0990   19.6750 C   0  0  0  0  0  3  0  0  0  0  0  0
  -29.6970  -19.9410   20.1680 C   0  0  0  0  0  0  0  0  0  0  0  0
  -27.9940  -21.9120   20.5500 C   0  0  0  0  0  0  0  0  0  0  0  0
  -30.0210  -22.5230   19.5990 C   0  0  0  0  0  0  0  0  0  0  0  0
  -28.7490  -23.0700   20.0410 C   0  0  0  0  0  0  0  0  0  0  0  0
  -26.5820  -22.1760   21.0470 C   0  0  0  0  0  1  0  0  0  0  0  0
  -30.9990  -23.4940   18.9660 C   0  0  0  0  0  1  0  0  0  0  0  0
  -30.3920  -18.3490   20.2440 C   0  0  0  0  0  2  0  0  0  0  0  0
  -30.6460  -15.5000   20.2440 C   0  0  0  0  0  0  0  0  0  0  0  0
  -30.5750  -13.0790   19.3520 C   0  0  0  0  0  2  0  0  0  0  0  0
  -29.6590  -12.9120   18.1140 C   0  0  0  0  0  2  0  0  0  0  0  0
  -28.2030  -12.6640   18.5450 C   0  0  0  0  0  2  0  0  0  0  0  0
  -27.7600  -13.6220   19.6810 C   0  0  0  0  0  3  0  0  0  0  0  0
  -28.8050  -13.7420   20.8100 C   0  0  0  0  0  2  0  0  0  0  0  0
  -30.0490  -14.2170   20.1850 N   0  0  0  0  0  0  0  0  0  0  0  0
  -31.8640  -15.4880   20.0190 O   0  0  0  0  0  0  0  0  0  0  0  0
  -29.9240  -16.7770   20.3450 N   0  0  0  0  0  0  0  0  0  0  0  0
  -28.9310  -16.6600   20.4800 H   0  0  0  0  0  0  0  0  0  0  0  0
  -25.3820  -14.1840   20.4130 C   0  0  0  0  0  0  0  0  0  0  0  0
  -24.3190  -13.4070   20.7790 C   0  0  0  0  0  0  0  0  0  0  0  0
  -24.7890  -12.0580   20.7610 C   0  0  0  0  0  0  0  0  0  0  0  0
  -26.4290  -13.3090   20.1830 N   0  0  0  0  0  0  0  0  0  0  0  0
  -26.0830  -12.0250   20.4610 N   0  0  0  0  0  0  0  0  0  0  0  0
  -24.0620  -10.7950   20.9510 C   0  0  0  0  0  0  0  0  0  0  0  0
  -24.4620   -9.8500   21.9210 C   0  0  0  0  0  3  0  0  0  0  0  0
  -23.7330   -8.6550   22.1000 C   0  0  0  0  0  3  0  0  0  0  0  0
  -22.5900   -8.3950   21.3060 C   0  0  0  0  0  0  0  0  0  0  0  0
  -22.2100   -9.3280   20.3250 C   0  0  0  0  0  3  0  0  0  0  0  0
  -22.9400  -10.5140   20.1450 C   0  0  0  0  0  3  0  0  0  0  0  0
  -21.8360   -7.2490   21.3920 O   0  0  0  0  0  0  0  0  0  0  0  0
  -21.7260   -6.5450   22.5640 C   0  0  0  0  0  0  0  0  0  0  0  0
  -21.1860   -7.1230   23.7350 C   0  0  0  0  0  3  0  0  0  0  0  0
  -21.0300   -6.3420   24.8970 C   0  0  0  0  0  3  0  0  0  0  0  0
  -21.4020   -4.9850   24.8910 C   0  0  0  0  0  0  0  0  0  0  0  0
  -21.9350   -4.4060   23.7250 C   0  0  0  0  0  3  0  0  0  0  0  0
  -22.0940   -5.1840   22.5640 C   0  0  0  0  0  0  0  0  0  0  0  0
  -22.5880   -4.6160   21.4380 F   0  0  0  0  0  0  0  0  0  0  0  0
  -21.2450   -4.2330   26.0050 F   0  0  0  0  0  0  0  0  0  0  0  0
  -22.9170  -13.8830   21.0300 C   0  0  0  0  0  0  0  0  0  0  0  0
  -22.1850  -13.1980   21.9000 N   0  0  0  0  0  0  0  0  0  0  0  0
  -22.4820  -14.8980   20.4880 O   0  0  0  0  0  0  0  0  0  0  0  0
  -22.5530  -12.3770   22.3590 H   0  0  0  0  0  0  0  0  0  0  0  0
  -21.2450  -13.4980   22.1120 H   0  0  0  0  0  0  0  0  0  0  0  0
  -25.5390  -15.5540   20.2270 N   0  0  0  0  0  0  0  0  0  0  0  0
  -24.7640  -16.2010   20.3240 H   0  0  0  0  0  0  0  0  0  0  0  0
  -26.3750  -15.9930   19.8640 H   0  0  0  0  0  0  0  0  0  0  0  0
  -28.0600  -24.6440   19.7480 C   0  0  0  0  0  2  0  0  0  0  0  0
  -28.4050  -26.1950   20.0830 O   0  0  0  0  0  0  0  0  0  0  0  0
  -24.7130  -31.9370   23.2370 C   0  0  0  0  0  0  0  0  0  0  0  0
  -27.3890  -27.2760   20.0400 C   0  0  0  0  0  0  0  0  0  0  0  0
  -23.5560  -30.5850   21.5350 C   0  0  0  0  0  3  0  0  0  0  0  0
  -25.0480  -29.0830   20.0560 C   0  0  0  0  0  0  0  0  0  0  0  0
  -26.1160  -30.8680   21.4120 C   0  0  0  0  0  2  0  0  0  0  0  0
  -26.2220  -29.4920   20.7010 C   0  0  0  0  0  0  0  0  0  0  0  0
  -27.3890  -28.6090   20.6730 C   0  0  0  0  0  3  0  0  0  0  0  0
  -26.1840  -27.0190   19.3450 C   0  0  0  0  0  3  0  0  0  0  0  0
  -25.0510  -27.8660   19.3590 C   0  0  0  0  0  3  0  0  0  0  0  0
  -23.8070  -29.9690   20.1330 C   0  0  0  0  0  2  0  0  0  0  0  0
  -24.8160  -31.1530   22.1170 N   0  0  0  0  0  0  0  0  0  0  0  0
  -23.6160  -32.1810   23.7650 O   0  0  0  0  0  0  0  0  0  0  0  0
  -22.8820  -29.5340   22.4540 C   0  0  0  0  0  0  0  0  0  0  0  0
  -21.5540  -29.3520   22.3200 N   0  0  0  0  0  0  0  0  0  0  0  0
  -23.5570  -28.8830   23.2550 O   0  0  0  0  0  0  0  0  0  0  0  0
  -21.0610  -29.9300   21.6540 H   0  0  0  0  0  0  0  0  0  0  0  0
  -18.1840  -28.1020   22.8050 C   0  0  0  0  0  0  0  0  0  0  0  0
  -20.7450  -28.3700   23.0510 C   0  0  0  0  0  3  0  0  0  0  0  0
  -20.8480  -26.9720   22.3990 C   0  0  0  0  0  2  0  0  0  0  0  0
  -19.7340  -26.6970   21.3820 C   0  0  0  0  0  2  0  0  0  0  0  0
  -18.3600  -26.7960   22.0520 C   0  0  0  0  0  2  0  0  0  0  0  0
  -19.3030  -28.8490   23.2600 C   0  0  0  0  0  0  0  0  0  0  0  0
  -19.0810  -30.0720   23.9300 C   0  0  0  0  0  3  0  0  0  0  0  0
  -17.7750  -30.5490   24.1460 C   0  0  0  0  0  3  0  0  0  0  0  0
  -16.6700  -29.8000   23.7040 C   0  0  0  0  0  3  0  0  0  0  0  0
  -16.8760  -28.5770   23.0410 C   0  0  0  0  0  3  0  0  0  0  0  0
  -25.9680  -32.5790   23.9020 C   0  0  0  0  0  3  0  0  0  0  0  0
  -25.6410  -33.9780   24.2290 N   0  0  0  0  0  0  0  0  0  0  0  0
  -25.9490  -35.0360   23.4660 C   0  0  0  0  0  0  0  0  0  0  0  0
  -26.6030  -34.9370   22.4250 O   0  0  0  0  0  0  0  0  0  0  0  0
  -25.0580  -34.1260   25.0390 H   0  0  0  0  0  0  0  0  0  0  0  0
  -24.1740  -36.7980   23.1740 C   0  0  0  0  0  1  0  0  0  0  0  0
  -25.4580  -36.4220   23.9330 C   0  0  0  0  0  3  0  0  0  0  0  0
  -27.6040  -37.3640   24.6680 C   0  0  0  0  0  1  0  0  0  0  0  0
  -26.4640  -37.4930   23.7630 N   0  0  0  0  0  0  0  0  0  0  0  0
  -26.0450  -38.4070   23.9110 H   0  0  0  0  0  0  0  0  0  0  0  0
  -26.4400  -31.8140   25.1990 C   0  0  1  0  0  0  0  0  0  0  0  0
  -25.3110  -31.5790   26.2310 C   0  0  0  0  0  1  0  0  0  0  0  0
  -27.0380  -30.4350   24.8410 C   0  0  0  0  0  1  0  0  0  0  0  0
  -27.5650  -32.6120   25.8990 C   0  0  0  0  0  1  0  0  0  0  0  0
  2  3  1  0
  3  9  1  0
  3  1  2  0
  4  1  1  0
  4  7  1  0
  5  2  2  0
  5  6  1  0
  6  4  2  0
  8  5  1  0
  9 18  1  0
 10 18  1  0
 11 16  1  0
 12 13  1  0
 12 11  1  0
 14 13  1  0
 14 23  1  0
 14 15  1  0
 16 10  1  0
 16 15  1  0
 17 10  2  0
 18 19  1  0
 20 21  2  0
 21 40  1  0
 22 21  1  0
 22 25  1  0
 23 20  1  0
 23 24  1  0
 24 22  2  0
 25 26  1  0
 26 27  2  0
 28 31  1  0
 28 27  1  0
 29 28  2  0
 30 29  1  0
 30 25  2  0
 31 32  1  0
 32 37  2  0
 32 33  1  0
 33 34  2  0
 35 34  1  0
 35 39  1  0
 36 35  2  0
 37 36  1  0
 38 37  1  0
 40 41  1  0
 41 44  1  0
 41 43  1  0
 42 40  2  0
 45 46  1  0
 45 20  1  0
 47 45  1  0
 48  6  1  0
 48 49  1  0
 50 61  2  0
 51 49  1  0
 51 56  1  0
 52 60  1  0
 52 62  1  0
 53 59  1  0
 53 55  1  0
 54 60  1  0
 55 54  1  0
 56 55  2  0
 57 58  1  0
 57 51  2  0
 58 53  2  0
 59 52  1  0
 60 50  1  0
 62 64  2  0
 63 62  1  0
 65 63  1  0
 66 75  2  0
 66 71  1  0
 67 63  1  0
 67 71  1  0
 68 67  1  0
 69 70  1  0
 69 68  1  0
 70 66  1  0
 71 72  2  0
 72 73  1  0
 74 73  2  0
 75 74  1  0
 76 50  1  0
 76 77  1  0
 76 86  1  0
 77 80  1  0
 78 82  1  0
 78 77  1  0
 79 78  2  0
 82 81  1  0
 84 85  1  0
 84 82  1  0
 84 83  1  0
 86 89  1  1
 86 87  1  0
 88 86  1  0
M  ISO  4  10 100  18 100  48 101  49 101
M  END
>  <TORSDO>  (18) 
F 18

>  <SCORE>  (18) 
-15.105

>  <name>  (18) 
17

>  <ligand_id>  (18) 
17

>  <original_smiles>  (18) 
[H]c1c([H])c([H])c2c(c1[H])C([H])([H])C([H])([H])C([H])([H])C2([H])N([H])C(=O)C1([H])N(C(=O)C([H])(N([H])C(=O)C([H])(N([H])C([H])([H])[H])C([H])([H])[H])C(C([H])([H])[H])(C([H])([H])[H])C([H])([H])[H])C([H])([H])c2c([H])c(OC([H])([H])c3c(C([H])([H])[H])c([H])c(C([H])([H])N([H])C(=O)N4C([H])([H])C([H])([H])C([H])([H])C([H])(n5nc(-c6c([H])c([H])c(Oc7c([H])c([H])c(F)c([H])c7F)c([H])c6[H])c(C(=O)N([H])[H])c5N([H])[H])C4([H])[H])c([H])c3C([H])([H])[H])c([H])c([H])c2C1([H])[H]

>  <smiles>  (18) 
[H]c1c([H])c([H])c2c(c1[H])C([H])([H])C([H])([H])C([H])([H])C2([H])N([H])C(=O)C1([H])N(C(=O)C([H])(N([H])C(=O)C([H])(N([H])C([H])([H])[H])C([H])([H])[H])C(C([H])([H])[H])(C([H])([H])[H])C([H])([H])[H])C([H])([H])c2c([H])c(OC([H])([H])c3c(C([H])([H])[H])c([H])c(C([H])([H])N([H])C(=O)N4C([H])([H])C([H])([H])C([H])([H])C([H])(n5nc(-c6c([H])c([H])c(Oc7c([H])c([H])c(F)c([H])c7F)c([H])c6[H])c(C(=O)N([H])[H])c5N([H])[H])C4([H])[H])c([H])c3C([H])([H])[H])c([H])c([H])c2C1([H])[H]

$$$$
19:0:0
     RDKit          3D

100109  0  0  1  0  0  0  0  0999 V2000
  -29.6970  -20.8820   20.6340 C   0  0  0  0  0  0  0  0  0  0  0  0
  -29.1880  -19.7170   21.1230 N   0  0  0  0  0  0  0  0  0  0  0  0
  -30.9030  -21.1100   20.5270 O   0  0  0  0  0  0  0  0  0  0  0  0
  -28.2170  -19.8750   21.3530 H   0  0  0  0  0  0  0  0  0  0  0  0
  -31.0290  -14.9710   20.6360 C   0  0  0  0  0  0  0  0  0  0  0  0
  -30.7770  -12.7660   19.5450 C   0  0  0  0  0  2  0  0  0  0  0  0
  -29.8940  -12.9130   18.2860 C   0  0  0  0  0  2  0  0  0  0  0  0
  -28.4040  -12.7750   18.6550 C   0  0  0  0  0  2  0  0  0  0  0  0
  -27.9960  -13.6430   19.8730 C   0  0  0  0  0  3  0  0  0  0  0  0
  -29.0050  -13.5080   21.0330 C   0  0  0  0  0  2  0  0  0  0  0  0
  -30.3460  -13.7950   20.5040 N   0  0  0  0  0  0  0  0  0  0  0  0
  -32.2430  -15.0550   20.4340 O   0  0  0  0  0  0  0  0  0  0  0  0
  -30.1590  -16.6370   19.1460 C   0  0  0  0  0  2  0  0  0  0  0  0
  -30.2240  -17.2710   21.4250 C   0  0  0  0  0  2  0  0  0  0  0  0
  -29.6160  -18.0790   19.1970 C   0  0  0  0  0  3  0  0  0  0  0  0
  -29.3300  -18.3020   20.6830 C   0  0  0  0  0  3  0  0  0  0  0  0
  -30.2690  -16.0970   20.5120 N   0  0  0  0  0  0  0  0  0  0  0  0
  -25.5850  -14.2560   20.5030 C   0  0  0  0  0  0  0  0  0  0  0  0
  -24.4930  -13.4840   20.8130 C   0  0  0  0  0  0  0  0  0  0  0  0
  -24.9450  -12.1350   20.7750 C   0  0  0  0  0  0  0  0  0  0  0  0
  -26.6290  -13.3680   20.3000 N   0  0  0  0  0  0  0  0  0  0  0  0
  -26.2460  -12.0860   20.5210 N   0  0  0  0  0  0  0  0  0  0  0  0
  -24.2010  -10.8750   20.9140 C   0  0  0  0  0  0  0  0  0  0  0  0
  -24.5750   -9.8990   21.8610 C   0  0  0  0  0  3  0  0  0  0  0  0
  -23.8380   -8.7020   21.9850 C   0  0  0  0  0  3  0  0  0  0  0  0
  -22.7090   -8.4760   21.1610 C   0  0  0  0  0  0  0  0  0  0  0  0
  -22.3560   -9.4390   20.2030 C   0  0  0  0  0  3  0  0  0  0  0  0
  -23.0940  -10.6280   20.0790 C   0  0  0  0  0  3  0  0  0  0  0  0
  -21.9450   -7.3340   21.1970 O   0  0  0  0  0  0  0  0  0  0  0  0
  -21.8160   -6.5940   22.3440 C   0  0  0  0  0  0  0  0  0  0  0  0
  -21.3060   -7.1490   23.5370 C   0  0  0  0  0  3  0  0  0  0  0  0
  -21.1200   -6.3330   24.6710 C   0  0  0  0  0  3  0  0  0  0  0  0
  -21.4330   -4.9610   24.6130 C   0  0  0  0  0  0  0  0  0  0  0  0
  -21.9300   -4.4050   23.4210 C   0  0  0  0  0  3  0  0  0  0  0  0
  -22.1190   -5.2180   22.2900 C   0  0  0  0  0  0  0  0  0  0  0  0
  -22.5810   -4.6710   21.1400 F   0  0  0  0  0  0  0  0  0  0  0  0
  -21.2470   -4.1760   25.6980 F   0  0  0  0  0  0  0  0  0  0  0  0
  -23.0920  -13.9730   21.0360 C   0  0  0  0  0  0  0  0  0  0  0  0
  -22.3310  -13.2810   21.8800 N   0  0  0  0  0  0  0  0  0  0  0  0
  -22.6770  -14.9970   20.4990 O   0  0  0  0  0  0  0  0  0  0  0  0
  -22.6790  -12.4560   22.3440 H   0  0  0  0  0  0  0  0  0  0  0  0
  -21.3880  -13.5910   22.0660 H   0  0  0  0  0  0  0  0  0  0  0  0
  -25.7720  -15.6240   20.3580 N   0  0  0  0  0  0  0  0  0  0  0  0
  -25.0220  -16.2950   20.4790 H   0  0  0  0  0  0  0  0  0  0  0  0
  -26.6680  -16.0510   20.1710 H   0  0  0  0  0  0  0  0  0  0  0  0
  -28.3670  -18.2480   18.3040 C   0  0  0  0  0  2  0  0  0  0  0  0
  -28.6950  -18.9330   16.9570 C   0  0  0  0  0  2  0  0  0  0  0  0
  -27.6140  -18.7920   15.9720 N   0  0  0  0  0  4  0  0  0  0  0  0
  -27.4590  -17.8210   15.7620 H   0  0  0  0  0  0  0  0  0  0  0  0
  -27.8840  -19.2360   15.1130 H   0  0  0  0  0  0  0  0  0  0  0  0
  -26.7560  -19.2070   16.2850 H   0  0  0  0  0  0  0  0  0  0  0  0
  -26.4910  -22.3870   19.1940 C   0  0  0  0  0  2  0  0  0  0  0  0
  -27.1540  -21.7040   20.3950 C   0  0  0  0  0  2  0  0  0  0  0  0
  -27.5700  -23.3000   18.5620 C   0  0  0  0  0  2  0  0  0  0  0  0
  -28.6230  -21.8330   20.0020 C   0  0  0  0  0  3  0  0  0  0  0  0
  -28.8130  -23.2020   19.3850 N   0  0  2  0  0  4  0  0  0  0  0  0
  -29.6150  -23.1300   18.7780 H   0  0  0  0  0  0  0  0  0  0  0  0
  -29.0110  -24.4470   20.2310 C   0  0  0  0  0  2  0  0  0  0  0  0
  -29.0900  -25.8310   19.4270 C   0  0  0  0  0  2  0  0  0  0  0  0
  -28.8180  -27.0690   20.1560 O   0  0  0  0  0  0  0  0  0  0  0  0
  -24.6350  -31.9690   23.2870 C   0  0  0  0  0  0  0  0  0  0  0  0
  -27.5920  -27.7360   20.1070 C   0  0  0  0  0  0  0  0  0  0  0  0
  -23.5450  -30.5700   21.5690 C   0  0  0  0  0  3  0  0  0  0  0  0
  -25.1130  -29.1670   20.1090 C   0  0  0  0  0  0  0  0  0  0  0  0
  -26.0560  -31.0570   21.4410 C   0  0  0  0  0  2  0  0  0  0  0  0
  -26.2290  -29.7070   20.7570 C   0  0  0  0  0  0  0  0  0  0  0  0
  -27.4600  -29.0000   20.7520 C   0  0  0  0  0  3  0  0  0  0  0  0
  -26.4480  -27.2240   19.4450 C   0  0  0  0  0  3  0  0  0  0  0  0
  -25.2230  -27.9280   19.4480 C   0  0  0  0  0  3  0  0  0  0  0  0
  -23.8210  -29.9670   20.1680 C   0  0  0  0  0  2  0  0  0  0  0  0
  -24.7640  -31.2130   22.1600 N   0  0  0  0  0  0  0  0  0  0  0  0
  -23.5270  -32.1560   23.8100 O   0  0  0  0  0  0  0  0  0  0  0  0
  -22.9290  -29.4720   22.4700 C   0  0  0  0  0  0  0  0  0  0  0  0
  -21.6190  -29.2190   22.3050 N   0  0  0  0  0  0  0  0  0  0  0  0
  -23.6270  -28.8560   23.2810 O   0  0  0  0  0  0  0  0  0  0  0  0
  -21.0990  -29.8030   21.6620 H   0  0  0  0  0  0  0  0  0  0  0  0
  -18.3210  -27.7840   22.6370 C   0  0  0  0  0  0  0  0  0  0  0  0
  -20.8480  -28.1950   23.0130 C   0  0  0  0  0  3  0  0  0  0  0  0
  -21.0680  -26.7940   22.3900 C   0  0  0  0  0  2  0  0  0  0  0  0
  -20.0160  -26.4100   21.3410 C   0  0  0  0  0  2  0  0  0  0  0  0
  -18.6030  -26.4690   21.9320 C   0  0  0  0  0  2  0  0  0  0  0  0
  -19.3750  -28.5980   23.1370 C   0  0  0  0  0  0  0  0  0  0  0  0
  -19.0560  -29.8240   23.7590 C   0  0  0  0  0  3  0  0  0  0  0  0
  -17.7160  -30.2440   23.8820 C   0  0  0  0  0  3  0  0  0  0  0  0
  -16.6790  -29.4290   23.4000 C   0  0  0  0  0  3  0  0  0  0  0  0
  -16.9800  -28.2000   22.7860 C   0  0  0  0  0  3  0  0  0  0  0  0
  -25.8680  -32.6540   23.9560 C   0  0  0  0  0  3  0  0  0  0  0  0
  -25.4960  -34.0430   24.2540 N   0  0  0  0  0  0  0  0  0  0  0  0
  -25.8260  -35.0970   23.4950 C   0  0  0  0  0  0  0  0  0  0  0  0
  -26.5420  -35.0050   22.4940 O   0  0  0  0  0  0  0  0  0  0  0  0
  -24.8740  -34.1850   25.0360 H   0  0  0  0  0  0  0  0  0  0  0  0
  -24.0500  -36.8170   23.0440 C   0  0  0  0  0  1  0  0  0  0  0  0
  -25.2720  -36.4710   23.9100 C   0  0  0  0  0  3  0  0  0  0  0  0
  -27.3360  -37.4460   24.8130 C   0  0  0  0  0  1  0  0  0  0  0  0
  -26.2690  -37.5590   23.8230 N   0  0  0  0  0  0  0  0  0  0  0  0
  -25.8210  -38.4640   23.9380 H   0  0  0  0  0  0  0  0  0  0  0  0
  -26.3490  -31.9180   25.2670 C   0  0  1  0  0  0  0  0  0  0  0  0
  -25.2090  -31.6160   26.2710 C   0  0  0  0  0  1  0  0  0  0  0  0
  -27.0370  -30.5810   24.9070 C   0  0  0  0  0  1  0  0  0  0  0  0
  -27.4070  -32.7750   26.0010 C   0  0  0  0  0  1  0  0  0  0  0  0
  1  2  1  0
  2  4  1  0
  3  1  2  0
  6 11  1  0
  7  8  1  0
  7  6  1  0
  9  8  1  0
  9 21  1  0
  9 10  1  0
 11  5  1  0
 11 10  1  0
 12  5  2  0
 13 15  1  0
 13 17  1  0
 15 46  1  0
 15 16  1  0
 16  2  1  0
 16 14  1  0
 17  5  1  0
 17 14  1  0
 18 19  2  0
 19 38  1  0
 20 19  1  0
 20 23  1  0
 21 18  1  0
 21 22  1  0
 22 20  2  0
 23 24  1  0
 24 25  2  0
 26 29  1  0
 26 25  1  0
 27 26  2  0
 28 27  1  0
 28 23  2  0
 29 30  1  0
 30 31  1  0
 31 32  2  0
 33 32  1  0
 33 37  1  0
 34 33  2  0
 35 30  2  0
 35 34  1  0
 36 35  1  0
 38 39  1  0
 39 42  1  0
 39 41  1  0
 40 38  2  0
 43 44  1  0
 43 18  1  0
 45 43  1  0
 47 46  1  0
 48 51  1  0
 48 47  1  0
 49 48  1  0
 50 48  1  0
 52 53  1  0
 54 52  1  0
 54 56  1  0
 55 53  1  0
 55  1  1  0
 56 55  1  0
 56 58  1  0
 56 57  1  6
 59 60  1  0
 59 58  1  0
 61 72  2  0
 62 60  1  0
 62 67  1  0
 63 71  1  0
 63 73  1  0
 64 70  1  0
 64 66  1  0
 65 71  1  0
 66 65  1  0
 67 66  2  0
 68 69  1  0
 68 62  2  0
 69 64  2  0
 70 63  1  0
 71 61  1  0
 73 75  2  0
 74 73  1  0
 76 74  1  0
 77 86  2  0
 77 82  1  0
 78 74  1  0
 78 82  1  0
 79 78  1  0
 80 81  1  0
 80 79  1  0
 81 77  1  0
 82 83  2  0
 83 84  1  0
 85 84  2  0
 86 85  1  0
 87 61  1  0
 87 88  1  0
 87 97  1  0
 88 91  1  0
 89 93  1  0
 89 88  1  0
 90 89  2  0
 93 92  1  0
 95 93  1  0
 95 96  1  0
 95 94  1  0
 97100  1  1
 97 98  1  0
 99 97  1  0
M  ISO  4   5 100  17 100  59 101  60 101
M  END
>  <TORSDO>  (19) 
F 22

>  <SCORE>  (19) 
-13.066

>  <name>  (19) 
19

>  <ligand_id>  (19) 
19

>  <original_smiles>  (19) 
[H]c1c([H])c([H])c2c(c1[H])C([H])([H])C([H])([H])C([H])([H])C2([H])N([H])C(=O)C1([H])N(C(=O)C([H])(N([H])C(=O)C([H])(N([H])C([H])([H])[H])C([H])([H])[H])C(C([H])([H])[H])(C([H])([H])[H])C([H])([H])[H])C([H])([H])c2c([H])c(OC([H])([H])C([H])([H])[N+]3([H])C([H])([H])C([H])([H])C([H])([H])C3([H])C(=O)N([H])C3([H])C([H])([H])N(C(=O)N4C([H])([H])C([H])([H])C([H])([H])C([H])(n5nc(-c6c([H])c([H])c(Oc7c([H])c([H])c(F)c([H])c7F)c([H])c6[H])c(C(=O)N([H])[H])c5N([H])[H])C4([H])[H])C([H])([H])C3([H])C([H])([H])C([H])([H])[N+]([H])([H])[H])c([H])c([H])c2C1([H])[H]

>  <smiles>  (19) 
[H]c1c([H])c([H])c2c(c1[H])C([H])([H])C([H])([H])C([H])([H])C2([H])N([H])C(=O)C1([H])N(C(=O)C([H])(N([H])C(=O)C([H])(N([H])C([H])([H])[H])C([H])([H])[H])C(C([H])([H])[H])(C([H])([H])[H])C([H])([H])[H])C([H])([H])c2c([H])c(OC([H])([H])C([H])([H])[N+]3([H])C([H])([H])C([H])([H])C([H])([H])C3([H])C(=O)N([H])C3([H])C([H])([H])N(C(=O)N4C([H])([H])C([H])([H])C([H])([H])C([H])(n5nc(-c6c([H])c([H])c(Oc7c([H])c([H])c(F)c([H])c7F)c([H])c6[H])c(C(=O)N([H])[H])c5N([H])[H])C4([H])[H])C([H])([H])C3([H])C([H])([H])C([H])([H])[N+]([H])([H])[H])c([H])c([H])c2C1([H])[H]

$$$$
20:0:0
     RDKit          3D

 89 97  0  0  1  0  0  0  0  0999 V2000
  -29.1880  -20.6030   21.2130 C   0  0  0  0  0  3  0  0  0  0  0  0
  -29.4280  -19.1420   21.3050 C   0  0  0  0  0  3  0  0  0  0  0  0
  -29.6590  -20.4830   18.9770 C   0  0  0  0  0  3  0  0  0  0  0  0
  -29.2590  -21.4300   20.0260 C   0  0  0  0  0  0  0  0  0  0  0  0
  -29.8730  -19.0050   19.0520 C   0  0  0  0  0  0  0  0  0  0  0  0
  -29.7630  -18.1760   20.2470 C   0  0  0  0  0  0  0  0  0  0  0  0
  -30.2070  -18.2810   17.7620 C   0  0  0  0  0  1  0  0  0  0  0  0
  -30.5120  -15.3410   19.9900 C   0  0  0  0  0  0  0  0  0  0  0  0
  -30.4940  -12.9570   18.9330 C   0  0  0  0  0  2  0  0  0  0  0  0
  -29.4870  -12.8160   17.7570 C   0  0  0  0  0  2  0  0  0  0  0  0
  -28.0550  -12.5290   18.2510 C   0  0  0  0  0  2  0  0  0  0  0  0
  -27.6900  -13.3990   19.4770 C   0  0  0  0  0  3  0  0  0  0  0  0
  -28.8160  -13.3440   20.5300 C   0  0  0  0  0  2  0  0  0  0  0  0
  -29.9910  -14.0030   19.9050 N   0  0  0  0  0  0  0  0  0  0  0  0
  -31.6750  -15.4110   19.5580 O   0  0  0  0  0  0  0  0  0  0  0  0
  -28.8040  -16.2280   21.4970 C   0  0  0  0  0  1  0  0  0  0  0  0
  -29.7570  -16.5590   20.4290 N   0  0  0  0  0  0  0  0  0  0  0  0
  -25.3380  -13.9460   20.3180 C   0  0  0  0  0  0  0  0  0  0  0  0
  -24.2980  -13.1590   20.7300 C   0  0  0  0  0  0  0  0  0  0  0  0
  -24.7720  -11.8130   20.6580 C   0  0  0  0  0  0  0  0  0  0  0  0
  -26.3790  -13.0800   20.0260 N   0  0  0  0  0  0  0  0  0  0  0  0
  -26.0480  -11.7900   20.2920 N   0  0  0  0  0  0  0  0  0  0  0  0
  -24.0600  -10.5450   20.8610 C   0  0  0  0  0  0  0  0  0  0  0  0
  -24.4930   -9.6000   21.8160 C   0  0  0  0  0  3  0  0  0  0  0  0
  -23.7780   -8.3970   22.0060 C   0  0  0  0  0  3  0  0  0  0  0  0
  -22.6170   -8.1310   21.2410 C   0  0  0  0  0  0  0  0  0  0  0  0
  -22.2040   -9.0670   20.2760 C   0  0  0  0  0  3  0  0  0  0  0  0
  -22.9190  -10.2600   20.0840 C   0  0  0  0  0  3  0  0  0  0  0  0
  -21.8760   -6.9790   21.3390 O   0  0  0  0  0  0  0  0  0  0  0  0
  -21.7620   -6.2960   22.5240 C   0  0  0  0  0  0  0  0  0  0  0  0
  -21.2420   -6.9050   23.6870 C   0  0  0  0  0  3  0  0  0  0  0  0
  -21.0770   -6.1470   24.8640 C   0  0  0  0  0  3  0  0  0  0  0  0
  -21.4200   -4.7820   24.8780 C   0  0  0  0  0  0  0  0  0  0  0  0
  -21.9330   -4.1730   23.7190 C   0  0  0  0  0  3  0  0  0  0  0  0
  -22.1000   -4.9280   22.5440 C   0  0  0  0  0  0  0  0  0  0  0  0
  -22.5750   -4.3320   21.4240 F   0  0  0  0  0  0  0  0  0  0  0  0
  -21.2550   -4.0520   26.0050 F   0  0  0  0  0  0  0  0  0  0  0  0
  -22.9130  -13.6260   21.0690 C   0  0  0  0  0  0  0  0  0  0  0  0
  -22.2290  -12.9160   21.9590 N   0  0  0  0  0  0  0  0  0  0  0  0
  -22.4470  -14.6540   20.5810 O   0  0  0  0  0  0  0  0  0  0  0  0
  -22.6190  -12.0830   22.3750 H   0  0  0  0  0  0  0  0  0  0  0  0
  -21.3020  -13.2110   22.2300 H   0  0  0  0  0  0  0  0  0  0  0  0
  -25.4680  -15.3200   20.1380 N   0  0  0  0  0  0  0  0  0  0  0  0
  -24.6910  -15.9560   20.2820 H   0  0  0  0  0  0  0  0  0  0  0  0
  -26.2870  -15.7760   19.7580 H   0  0  0  0  0  0  0  0  0  0  0  0
  -29.1920  -23.1330   19.8390 C   0  0  0  0  0  0  0  0  0  0  0  0
  -30.0990  -23.5760   19.1260 O   0  0  0  0  0  0  0  0  0  0  0  0
  -28.1280  -24.4000   20.3420 C   0  0  0  0  0  2  0  0  0  0  0  0
  -28.3680  -26.0130   20.1830 O   0  0  0  0  0  0  0  0  0  0  0  0
  -24.6800  -31.8870   23.1440 C   0  0  0  0  0  0  0  0  0  0  0  0
  -27.3210  -27.0640   20.1600 C   0  0  0  0  0  0  0  0  0  0  0  0
  -23.5160  -30.4810   21.4920 C   0  0  0  0  0  3  0  0  0  0  0  0
  -24.9940  -28.8910   20.0920 C   0  0  0  0  0  0  0  0  0  0  0  0
  -26.0790  -30.7260   21.3700 C   0  0  0  0  0  2  0  0  0  0  0  0
  -26.1720  -29.3190   20.7180 C   0  0  0  0  0  0  0  0  0  0  0  0
  -27.3320  -28.4280   20.7240 C   0  0  0  0  0  3  0  0  0  0  0  0
  -26.1100  -26.7740   19.4940 C   0  0  0  0  0  3  0  0  0  0  0  0
  -24.9860  -27.6370   19.4600 C   0  0  0  0  0  3  0  0  0  0  0  0
  -23.7660  -29.7980   20.1200 C   0  0  0  0  0  2  0  0  0  0  0  0
  -24.7790  -31.0580   22.0570 N   0  0  0  0  0  0  0  0  0  0  0  0
  -23.5830  -32.1670   23.6540 O   0  0  0  0  0  0  0  0  0  0  0  0
  -22.8200  -29.4790   22.4490 C   0  0  0  0  0  0  0  0  0  0  0  0
  -21.4940  -29.3000   22.3050 N   0  0  0  0  0  0  0  0  0  0  0  0
  -23.4800  -28.8630   23.2890 O   0  0  0  0  0  0  0  0  0  0  0  0
  -21.0140  -29.8480   21.6040 H   0  0  0  0  0  0  0  0  0  0  0  0
  -18.1160  -28.0620   22.7690 C   0  0  0  0  0  0  0  0  0  0  0  0
  -20.6690  -28.3560   23.0670 C   0  0  0  0  0  3  0  0  0  0  0  0
  -20.7930  -26.9230   22.4950 C   0  0  0  0  0  2  0  0  0  0  0  0
  -19.7080  -26.5880   21.4670 C   0  0  0  0  0  2  0  0  0  0  0  0
  -18.3160  -26.7160   22.0940 C   0  0  0  0  0  2  0  0  0  0  0  0
  -19.2200  -28.8390   23.2110 C   0  0  0  0  0  0  0  0  0  0  0  0
  -18.9760  -30.0970   23.8060 C   0  0  0  0  0  3  0  0  0  0  0  0
  -17.6630  -30.5790   23.9600 C   0  0  0  0  0  3  0  0  0  0  0  0
  -16.5740  -29.8000   23.5310 C   0  0  0  0  0  3  0  0  0  0  0  0
  -16.8010  -28.5430   22.9420 C   0  0  0  0  0  3  0  0  0  0  0  0
  -25.9400  -32.5380   23.7920 C   0  0  0  0  0  3  0  0  0  0  0  0
  -25.6070  -33.9330   24.1270 N   0  0  0  0  0  0  0  0  0  0  0  0
  -25.9490  -35.0020   23.3950 C   0  0  0  0  0  0  0  0  0  0  0  0
  -26.6410  -34.9170   22.3770 O   0  0  0  0  0  0  0  0  0  0  0  0
  -24.9920  -34.0710   24.9160 H   0  0  0  0  0  0  0  0  0  0  0  0
  -24.2250  -36.8020   23.0290 C   0  0  0  0  0  1  0  0  0  0  0  0
  -25.4470  -36.3830   23.8630 C   0  0  0  0  0  3  0  0  0  0  0  0
  -27.5560  -37.2650   24.7640 C   0  0  0  0  0  1  0  0  0  0  0  0
  -26.4790  -37.4410   23.7930 N   0  0  0  0  0  0  0  0  0  0  0  0
  -26.0670  -38.3580   23.9410 H   0  0  0  0  0  0  0  0  0  0  0  0
  -26.4390  -31.7740   25.0800 C   0  0  1  0  0  0  0  0  0  0  0  0
  -25.3270  -31.5220   26.1270 C   0  0  0  0  0  1  0  0  0  0  0  0
  -27.0480  -30.4030   24.7080 C   0  0  0  0  0  1  0  0  0  0  0  0
  -27.5650  -32.5830   25.7660 C   0  0  0  0  0  1  0  0  0  0  0  0
  1  2  1  0
  3  5  2  0
  3  4  1  0
  4  1  2  0
  5  6  1  0
  6 17  1  0
  6  2  2  0
  7  5  1  0
  8 17  1  0
  9 14  1  0
 10 11  1  0
 10  9  1  0
 12 11  1  0
 12 21  1  0
 12 13  1  0
 14  8  1  0
 14 13  1  0
 15  8  2  0
 17 16  1  0
 18 19  2  0
 19 38  1  0
 20 19  1  0
 20 23  1  0
 21 22  1  0
 21 18  1  0
 22 20  2  0
 23 24  1  0
 24 25  2  0
 26 29  1  0
 26 25  1  0
 27 26  2  0
 28 27  1  0
 28 23  2  0
 29 30  1  0
 30 35  2  0
 30 31  1  0
 31 32  2  0
 32 33  1  0
 33 37  1  0
 34 33  2  0
 35 34  1  0
 36 35  1  0
 38 39  1  0
 39 42  1  0
 39 41  1  0
 40 38  2  0
 43 44  1  0
 43 18  1  0
 45 43  1  0
 46  4  1  0
 46 48  1  0
 47 46  2  0
 49 48  1  0
 50 61  2  0
 51 49  1  0
 51 56  1  0
 52 60  1  0
 52 62  1  0
 53 59  1  0
 53 55  1  0
 54 60  1  0
 55 56  2  0
 55 54  1  0
 57 51  2  0
 58 57  1  0
 58 53  2  0
 59 52  1  0
 60 50  1  0
 62 64  2  0
 63 62  1  0
 65 63  1  0
 66 75  2  0
 66 71  1  0
 67 63  1  0
 67 71  1  0
 68 67  1  0
 69 70  1  0
 69 68  1  0
 70 66  1  0
 71 72  2  0
 72 73  1  0
 74 73  2  0
 75 74  1  0
 76 50  1  0
 76 77  1  0
 76 86  1  0
 77 80  1  0
 78 82  1  0
 78 77  1  0
 79 78  2  0
 82 81  1  0
 84 82  1  0
 84 85  1  0
 84 83  1  0
 86 89  1  1
 86 87  1  0
 88 86  1  0
M  ISO  4   8 100  17 100  48 101  49 101
M  END
>  <TORSDO>  (20) 
F 18

>  <SCORE>  (20) 
-14.472

>  <name>  (20) 
20

>  <ligand_id>  (20) 
20

>  <original_smiles>  (20) 
[H]c1c([H])c([H])c2c(c1[H])C([H])([H])C([H])([H])C([H])([H])C2([H])N([H])C(=O)C1([H])N(C(=O)C([H])(N([H])C(=O)C([H])(N([H])C([H])([H])[H])C([H])([H])[H])C(C([H])([H])[H])(C([H])([H])[H])C([H])([H])[H])C([H])([H])c2c([H])c(OC([H])([H])C(=O)c3c([H])c([H])c(N(C(=O)N4C([H])([H])C([H])([H])C([H])([H])C([H])(n5nc(-c6c([H])c([H])c(Oc7c([H])c([H])c(F)c([H])c7F)c([H])c6[H])c(C(=O)N([H])[H])c5N([H])[H])C4([H])[H])C([H])([H])[H])c(C([H])([H])[H])c3[H])c([H])c([H])c2C1([H])[H]

>  <smiles>  (20) 
[H]c1c([H])c([H])c2c(c1[H])C([H])([H])C([H])([H])C([H])([H])C2([H])N([H])C(=O)C1([H])N(C(=O)C([H])(N([H])C(=O)C([H])(N([H])C([H])([H])[H])C([H])([H])[H])C(C([H])([H])[H])(C([H])([H])[H])C([H])([H])[H])C([H])([H])c2c([H])c(OC([H])([H])C(=O)c3c([H])c([H])c(N(C(=O)N4C([H])([H])C([H])([H])C([H])([H])C([H])(n5nc(-c6c([H])c([H])c(Oc7c([H])c([H])c(F)c([H])c7F)c([H])c6[H])c(C(=O)N([H])[H])c5N([H])[H])C4([H])[H])C([H])([H])[H])c(C([H])([H])[H])c3[H])c([H])c([H])c2C1([H])[H]

$$$$
21:0:0
     RDKit          3D

 93102  0  0  1  0  0  0  0  0999 V2000
  -29.5670  -20.6220   21.4650 C   0  0  0  0  0  2  0  0  0  0  0  0
  -28.9940  -22.1320   21.3930 C   0  0  0  0  0  3  0  0  0  0  0  0
  -29.1600  -19.8120   20.1780 C   0  0  0  0  0  3  0  0  0  0  0  0
  -29.0470  -22.6200   19.9040 C   0  0  0  0  0  3  0  0  0  0  0  0
  -29.0550  -21.1340   19.2430 N   0  0  0  0  0  4  0  0  0  0  0  0
  -28.2380  -21.0270   18.6620 H   0  0  0  0  0  0  0  0  0  0  0  0
  -29.8410  -21.1070   18.6120 H   0  0  0  0  0  0  0  0  0  0  0  0
  -29.6990  -23.1100   22.3620 C   0  0  0  0  0  0  0  0  0  0  0  0
  -30.7340  -23.6930   22.0250 O   0  0  0  0  0  0  0  0  0  0  0  0
  -29.7640  -24.2750   24.7260 C   0  0  0  0  0  2  0  0  0  0  0  0
  -28.5790  -24.8010   23.9620 C   0  0  0  0  0  2  0  0  0  0  0  0
  -29.0590  -23.3820   23.7090 C   0  0  0  0  0  3  0  0  0  0  0  0
  -29.9500  -18.2100   19.7630 C   0  0  0  0  0  2  0  0  0  0  0  0
  -30.4770  -15.2770   20.0290 C   0  0  0  0  0  0  0  0  0  0  0  0
  -30.4040  -12.7900   19.2400 C   0  0  0  0  0  2  0  0  0  0  0  0
  -29.4800  -12.5560   18.0160 C   0  0  0  0  0  2  0  0  0  0  0  0
  -28.0370  -12.2900   18.4810 C   0  0  0  0  0  2  0  0  0  0  0  0
  -27.5990  -13.2990   19.5730 C   0  0  0  0  0  3  0  0  0  0  0  0
  -28.6550  -13.4900   20.6880 C   0  0  0  0  0  2  0  0  0  0  0  0
  -29.8900  -13.9720   20.0410 N   0  0  0  0  0  0  0  0  0  0  0  0
  -31.6670  -15.2390   19.6770 O   0  0  0  0  0  0  0  0  0  0  0  0
  -29.7770  -16.5860   20.2220 N   0  0  0  0  0  0  0  0  0  0  0  0
  -28.8580  -16.4350   20.6210 H   0  0  0  0  0  0  0  0  0  0  0  0
  -25.2480  -13.9050   20.3610 C   0  0  0  0  0  0  0  0  0  0  0  0
  -24.1790  -13.1520   20.7600 C   0  0  0  0  0  0  0  0  0  0  0  0
  -24.6200  -11.7930   20.7340 C   0  0  0  0  0  0  0  0  0  0  0  0
  -26.2720  -13.0080   20.1080 N   0  0  0  0  0  0  0  0  0  0  0  0
  -25.9050  -11.7320   20.3990 N   0  0  0  0  0  0  0  0  0  0  0  0
  -23.8730  -10.5470   20.9530 C   0  0  0  0  0  0  0  0  0  0  0  0
  -24.2840   -9.5950   21.9140 C   0  0  0  0  0  3  0  0  0  0  0  0
  -23.5340   -8.4170   22.1240 C   0  0  0  0  0  3  0  0  0  0  0  0
  -22.3610   -8.1820   21.3700 C   0  0  0  0  0  0  0  0  0  0  0  0
  -21.9670   -9.1200   20.4000 C   0  0  0  0  0  3  0  0  0  0  0  0
  -22.7190  -10.2890   20.1880 C   0  0  0  0  0  3  0  0  0  0  0  0
  -21.5840   -7.0540   21.4810 O   0  0  0  0  0  0  0  0  0  0  0  0
  -21.4980   -6.3530   22.6570 C   0  0  0  0  0  0  0  0  0  0  0  0
  -21.0150   -6.9460   23.8440 C   0  0  0  0  0  3  0  0  0  0  0  0
  -20.8750   -6.1720   25.0120 C   0  0  0  0  0  3  0  0  0  0  0  0
  -21.2130   -4.8060   24.9970 C   0  0  0  0  0  0  0  0  0  0  0  0
  -21.6870   -4.2110   23.8150 C   0  0  0  0  0  3  0  0  0  0  0  0
  -21.8250   -4.9820   22.6470 C   0  0  0  0  0  0  0  0  0  0  0  0
  -22.2640   -4.4000   21.5050 F   0  0  0  0  0  0  0  0  0  0  0  0
  -21.0720   -4.0610   26.1170 F   0  0  0  0  0  0  0  0  0  0  0  0
  -22.7970  -13.6600   21.0470 C   0  0  0  0  0  0  0  0  0  0  0  0
  -22.0700  -12.9970   21.9400 N   0  0  0  0  0  0  0  0  0  0  0  0
  -22.3680  -14.6810   20.5120 O   0  0  0  0  0  0  0  0  0  0  0  0
  -22.4260  -12.1750   22.4050 H   0  0  0  0  0  0  0  0  0  0  0  0
  -21.1420  -13.3240   22.1710 H   0  0  0  0  0  0  0  0  0  0  0  0
  -25.4270  -15.2710   20.1580 N   0  0  0  0  0  0  0  0  0  0  0  0
  -24.6700  -15.9370   20.2710 H   0  0  0  0  0  0  0  0  0  0  0  0
  -26.2610  -15.6860   19.7640 H   0  0  0  0  0  0  0  0  0  0  0  0
  -28.1390  -24.1180   19.3930 C   0  0  0  0  0  2  0  0  0  0  0  0
  -28.3060  -25.7680   19.5350 O   0  0  0  0  0  0  0  0  0  0  0  0
  -24.6540  -31.5170   22.8120 C   0  0  0  0  0  0  0  0  0  0  0  0
  -27.2570  -26.8400   19.5190 C   0  0  0  0  0  0  0  0  0  0  0  0
  -23.4560  -30.1780   21.1290 C   0  0  0  0  0  3  0  0  0  0  0  0
  -24.9120  -28.6760   19.5980 C   0  0  0  0  0  0  0  0  0  0  0  0
  -26.0120  -30.4570   20.9370 C   0  0  0  0  0  2  0  0  0  0  0  0
  -26.1010  -29.0790   20.2150 C   0  0  0  0  0  0  0  0  0  0  0  0
  -27.2630  -28.1820   20.1500 C   0  0  0  0  0  3  0  0  0  0  0  0
  -26.0310  -26.5930   18.8610 C   0  0  0  0  0  3  0  0  0  0  0  0
  -24.8990  -27.4560   18.9000 C   0  0  0  0  0  3  0  0  0  0  0  0
  -23.6700  -29.5650   19.7170 C   0  0  0  0  0  2  0  0  0  0  0  0
  -24.7300  -30.7400   21.6810 N   0  0  0  0  0  0  0  0  0  0  0  0
  -23.5710  -31.7570   23.3660 O   0  0  0  0  0  0  0  0  0  0  0  0
  -22.7980  -29.1230   22.0590 C   0  0  0  0  0  0  0  0  0  0  0  0
  -21.4610  -28.9840   21.9940 N   0  0  0  0  0  0  0  0  0  0  0  0
  -23.4970  -28.4340   22.8060 O   0  0  0  0  0  0  0  0  0  0  0  0
  -20.9490  -29.5950   21.3730 H   0  0  0  0  0  0  0  0  0  0  0  0
  -18.0870  -27.8140   22.6420 C   0  0  0  0  0  0  0  0  0  0  0  0
  -20.6650  -27.9990   22.7360 C   0  0  0  0  0  3  0  0  0  0  0  0
  -20.6820  -26.6220   22.0300 C   0  0  0  0  0  2  0  0  0  0  0  0
  -19.5020  -26.4210   21.0750 C   0  0  0  0  0  2  0  0  0  0  0  0
  -18.1740  -26.5320   21.8320 C   0  0  0  0  0  2  0  0  0  0  0  0
  -19.2550  -28.5120   23.0520 C   0  0  0  0  0  0  0  0  0  0  0  0
  -19.1120  -29.7130   23.7790 C   0  0  0  0  0  3  0  0  0  0  0  0
  -17.8370  -30.2200   24.0960 C   0  0  0  0  0  3  0  0  0  0  0  0
  -16.6840  -29.5200   23.6970 C   0  0  0  0  0  3  0  0  0  0  0  0
  -16.8120  -28.3190   22.9760 C   0  0  0  0  0  3  0  0  0  0  0  0
  -25.9230  -32.1530   23.4560 C   0  0  0  0  0  3  0  0  0  0  0  0
  -26.4980  -31.3040   24.6580 C   0  0  1  0  0  0  0  0  0  0  0  0
  -25.4470  -30.9580   25.7400 C   0  0  0  0  0  1  0  0  0  0  0  0
  -27.0990  -29.9740   24.1510 C   0  0  0  0  0  1  0  0  0  0  0  0
  -27.6540  -32.0740   25.3380 C   0  0  0  0  0  1  0  0  0  0  0  0
  -25.5700  -33.5080   23.9160 N   0  0  0  0  0  0  0  0  0  0  0  0
  -25.9210  -34.6440   23.2990 C   0  0  0  0  0  0  0  0  0  0  0  0
  -26.6370  -34.6610   22.2940 O   0  0  0  0  0  0  0  0  0  0  0  0
  -24.9340  -33.5640   24.6990 H   0  0  0  0  0  0  0  0  0  0  0  0
  -24.1990  -36.4670   23.0690 C   0  0  0  0  0  1  0  0  0  0  0  0
  -25.4000  -35.9730   23.8880 C   0  0  0  0  0  3  0  0  0  0  0  0
  -27.4750  -36.7710   24.9300 C   0  0  0  0  0  1  0  0  0  0  0  0
  -26.4300  -37.0320   23.9470 N   0  0  0  0  0  0  0  0  0  0  0  0
  -26.0060  -37.9310   24.1680 H   0  0  0  0  0  0  0  0  0  0  0  0
  2  1  1  0
  2  8  1  0
  3 13  1  0
  3  1  1  0
  4 52  1  0
  4  2  1  0
  5  4  1  0
  5  3  1  0
  6  5  1  0
  7  5  1  0
  8 12  1  0
  9  8  2  0
 11 10  1  0
 12 11  1  0
 12 10  1  0
 13 22  1  0
 14 20  1  0
 14 22  1  0
 15 20  1  0
 16 17  1  0
 16 15  1  0
 18 17  1  0
 18 27  1  0
 18 19  1  0
 20 19  1  0
 21 14  2  0
 22 23  1  0
 24 25  2  0
 25 44  1  0
 26 25  1  0
 26 29  1  0
 27 24  1  0
 27 28  1  0
 28 26  2  0
 29 30  1  0
 30 31  2  0
 32 35  1  0
 32 31  1  0
 33 32  2  0
 34 33  1  0
 34 29  2  0
 35 36  1  0
 36 37  1  0
 37 38  2  0
 39 38  1  0
 39 43  1  0
 40 39  2  0
 41 36  2  0
 41 40  1  0
 42 41  1  0
 44 45  1  0
 45 48  1  0
 45 47  1  0
 46 44  2  0
 49 50  1  0
 49 24  1  0
 51 49  1  0
 52 53  1  0
 54 65  2  0
 55 53  1  0
 55 60  1  0
 56 64  1  0
 56 66  1  0
 57 63  1  0
 57 59  1  0
 58 64  1  0
 59 58  1  0
 60 59  2  0
 61 62  1  0
 61 55  2  0
 62 57  2  0
 63 56  1  0
 64 54  1  0
 66 68  2  0
 67 66  1  0
 69 67  1  0
 70 79  2  0
 70 75  1  0
 71 67  1  0
 71 75  1  0
 72 71  1  0
 73 74  1  0
 73 72  1  0
 74 70  1  0
 75 76  2  0
 76 77  1  0
 78 77  2  0
 79 78  1  0
 80 54  1  0
 80 85  1  0
 80 81  1  0
 81 84  1  1
 81 82  1  0
 83 81  1  0
 85 88  1  0
 86 90  1  0
 86 85  1  0
 87 86  2  0
 90 89  1  0
 90 92  1  0
 92 93  1  0
 92 91  1  0
M  ISO  4  14 100  22 100  52 101  53 101
M  END
>  <TORSDO>  (21) 
F 20

>  <SCORE>  (21) 
-12.168

>  <name>  (21) 
21

>  <ligand_id>  (21) 
21

>  <original_smiles>  (21) 
[H]c1c([H])c([H])c2c(c1[H])C([H])([H])C([H])([H])C([H])([H])C2([H])N([H])C(=O)C1([H])N(C(=O)C([H])(N([H])C(=O)C([H])(N([H])C([H])([H])[H])C([H])([H])[H])C(C([H])([H])[H])(C([H])([H])[H])C([H])([H])[H])C([H])([H])c2c([H])c(OC([H])([H])C3([H])C([H])(C(=O)C4([H])C([H])([H])C4([H])[H])C([H])([H])C([H])(C([H])([H])N([H])C(=O)N4C([H])([H])C([H])([H])C([H])([H])C([H])(n5nc(-c6c([H])c([H])c(Oc7c([H])c([H])c(F)c([H])c7F)c([H])c6[H])c(C(=O)N([H])[H])c5N([H])[H])C4([H])[H])[N+]3([H])[H])c([H])c([H])c2C1([H])[H]

>  <smiles>  (21) 
[H]c1c([H])c([H])c2c(c1[H])C([H])([H])C([H])([H])C([H])([H])C2([H])N([H])C(=O)C1([H])N(C(=O)C([H])(N([H])C(=O)C([H])(N([H])C([H])([H])[H])C([H])([H])[H])C(C([H])([H])[H])(C([H])([H])[H])C([H])([H])[H])C([H])([H])c2c([H])c(OC([H])([H])C3([H])C([H])(C(=O)C4([H])C([H])([H])C4([H])[H])C([H])([H])C([H])(C([H])([H])N([H])C(=O)N4C([H])([H])C([H])([H])C([H])([H])C([H])(n5nc(-c6c([H])c([H])c(Oc7c([H])c([H])c(F)c([H])c7F)c([H])c6[H])c(C(=O)N([H])[H])c5N([H])[H])C4([H])[H])[N+]3([H])[H])c([H])c([H])c2C1([H])[H]

$$$$
22:0:0
     RDKit          3D

 90 98  0  0  1  0  0  0  0  0999 V2000
  -29.6390  -21.2590   21.7230 C   0  0  0  0  0  2  0  0  0  0  0  0
  -28.9760  -22.6920   21.8480 C   0  0  0  0  0  2  0  0  0  0  0  0
  -28.9670  -20.5800   20.4960 C   0  0  0  0  0  3  0  0  0  0  0  0
  -28.6100  -23.1170   20.4000 C   0  0  0  0  0  3  0  0  0  0  0  0
  -28.8580  -21.8220   19.5720 N   0  0  0  0  0  4  0  0  0  0  0  0
  -28.1390  -21.6580   18.8860 H   0  0  0  0  0  0  0  0  0  0  0  0
  -29.7340  -21.9190   19.0820 H   0  0  0  0  0  0  0  0  0  0  0  0
  -29.5330  -19.0860   19.8760 C   0  0  0  0  0  0  0  0  0  0  0  0
  -29.6010  -18.9830   18.6430 O   0  0  0  0  0  0  0  0  0  0  0  0
  -29.9570  -17.7110   20.7120 C   0  0  0  0  0  2  0  0  0  0  0  0
  -30.4870  -15.0130   20.3050 C   0  0  0  0  0  0  0  0  0  0  0  0
  -30.3750  -12.6560   19.3530 C   0  0  0  0  0  2  0  0  0  0  0  0
  -29.4420  -12.6320   18.1220 C   0  0  0  0  0  2  0  0  0  0  0  0
  -27.9590  -12.4720   18.5390 C   0  0  0  0  0  2  0  0  0  0  0  0
  -27.5690  -13.3330   19.7690 C   0  0  0  0  0  3  0  0  0  0  0  0
  -28.6450  -13.3220   20.8690 C   0  0  0  0  0  2  0  0  0  0  0  0
  -29.8950  -13.7620   20.2280 N   0  0  0  0  0  0  0  0  0  0  0  0
  -31.7130  -15.0540   20.1820 O   0  0  0  0  0  0  0  0  0  0  0  0
  -29.7000  -16.1980   20.2830 N   0  0  0  0  0  0  0  0  0  0  0  0
  -28.7070  -16.0330   20.1080 H   0  0  0  0  0  0  0  0  0  0  0  0
  -25.1930  -13.8900   20.5320 C   0  0  0  0  0  0  0  0  0  0  0  0
  -24.1350  -13.1090   20.9110 C   0  0  0  0  0  0  0  0  0  0  0  0
  -24.6050  -11.7610   20.8720 C   0  0  0  0  0  0  0  0  0  0  0  0
  -26.2390  -13.0190   20.2830 N   0  0  0  0  0  0  0  0  0  0  0  0
  -25.8950  -11.7310   20.5500 N   0  0  0  0  0  0  0  0  0  0  0  0
  -23.8810  -10.4960   21.0660 C   0  0  0  0  0  0  0  0  0  0  0  0
  -24.3260   -9.5230   21.9860 C   0  0  0  0  0  3  0  0  0  0  0  0
  -23.6000   -8.3250   22.1690 C   0  0  0  0  0  3  0  0  0  0  0  0
  -22.4140   -8.0960   21.4310 C   0  0  0  0  0  0  0  0  0  0  0  0
  -21.9850   -9.0620   20.5030 C   0  0  0  0  0  3  0  0  0  0  0  0
  -22.7110  -10.2490   20.3200 C   0  0  0  0  0  3  0  0  0  0  0  0
  -21.6560   -6.9520   21.5260 O   0  0  0  0  0  0  0  0  0  0  0  0
  -21.6400   -6.1910   22.6670 C   0  0  0  0  0  0  0  0  0  0  0  0
  -21.2620   -6.7310   23.9160 C   0  0  0  0  0  3  0  0  0  0  0  0
  -21.1890   -5.8970   25.0500 C   0  0  0  0  0  3  0  0  0  0  0  0
  -21.4880   -4.5260   24.9370 C   0  0  0  0  0  0  0  0  0  0  0  0
  -21.8570   -3.9860   23.6920 C   0  0  0  0  0  3  0  0  0  0  0  0
  -21.9290   -4.8160   22.5610 C   0  0  0  0  0  0  0  0  0  0  0  0
  -22.2670   -4.2870   21.3590 F   0  0  0  0  0  0  0  0  0  0  0  0
  -21.4120   -3.7230   26.0240 F   0  0  0  0  0  0  0  0  0  0  0  0
  -22.7390  -13.5850   21.1900 C   0  0  0  0  0  0  0  0  0  0  0  0
  -22.0190  -12.8860   22.0610 N   0  0  0  0  0  0  0  0  0  0  0  0
  -22.2950  -14.6080   20.6700 O   0  0  0  0  0  0  0  0  0  0  0  0
  -22.3870  -12.0560   22.4970 H   0  0  0  0  0  0  0  0  0  0  0  0
  -21.0830  -13.1900   22.2930 H   0  0  0  0  0  0  0  0  0  0  0  0
  -25.3480  -15.2610   20.3510 N   0  0  0  0  0  0  0  0  0  0  0  0
  -24.5720  -15.9070   20.4510 H   0  0  0  0  0  0  0  0  0  0  0  0
  -26.1850  -15.7030   19.9990 H   0  0  0  0  0  0  0  0  0  0  0  0
  -27.9870  -24.6370   19.8770 C   0  0  0  0  0  2  0  0  0  0  0  0
  -28.2100  -26.1340   20.2980 O   0  0  0  0  0  0  0  0  0  0  0  0
  -24.6280  -31.9050   23.2550 C   0  0  0  0  0  0  0  0  0  0  0  0
  -27.1750  -27.1520   20.2040 C   0  0  0  0  0  0  0  0  0  0  0  0
  -23.4190  -30.5070   21.6290 C   0  0  0  0  0  3  0  0  0  0  0  0
  -24.8550  -28.9290   20.1890 C   0  0  0  0  0  0  0  0  0  0  0  0
  -25.9770  -30.7480   21.4610 C   0  0  0  0  0  2  0  0  0  0  0  0
  -26.0390  -29.3530   20.8090 C   0  0  0  0  0  0  0  0  0  0  0  0
  -27.1930  -28.4780   20.8080 C   0  0  0  0  0  3  0  0  0  0  0  0
  -25.9710  -26.8530   19.5210 C   0  0  0  0  0  3  0  0  0  0  0  0
  -24.8390  -27.6880   19.5350 C   0  0  0  0  0  3  0  0  0  0  0  0
  -23.6290  -29.8200   20.2510 C   0  0  0  0  0  2  0  0  0  0  0  0
  -24.6960  -31.0750   22.1670 N   0  0  0  0  0  0  0  0  0  0  0  0
  -23.5420  -32.2000   23.7780 O   0  0  0  0  0  0  0  0  0  0  0  0
  -22.7400  -29.5030   22.5910 C   0  0  0  0  0  0  0  0  0  0  0  0
  -21.4070  -29.3480   22.4750 N   0  0  0  0  0  0  0  0  0  0  0  0
  -23.4100  -28.8630   23.4040 O   0  0  0  0  0  0  0  0  0  0  0  0
  -20.9190  -29.9300   21.8090 H   0  0  0  0  0  0  0  0  0  0  0  0
  -18.0220  -28.1640   22.9630 C   0  0  0  0  0  0  0  0  0  0  0  0
  -20.5810  -28.4150   23.2460 C   0  0  0  0  0  3  0  0  0  0  0  0
  -20.6700  -26.9780   22.6750 C   0  0  0  0  0  2  0  0  0  0  0  0
  -19.5850  -26.6880   21.6320 C   0  0  0  0  0  2  0  0  0  0  0  0
  -18.1960  -26.8150   22.2800 C   0  0  0  0  0  2  0  0  0  0  0  0
  -19.1430  -28.9260   23.3930 C   0  0  0  0  0  0  0  0  0  0  0  0
  -18.9300  -30.1940   23.9720 C   0  0  0  0  0  3  0  0  0  0  0  0
  -17.6280  -30.7000   24.1300 C   0  0  0  0  0  3  0  0  0  0  0  0
  -16.5230  -29.9370   23.7270 C   0  0  0  0  0  3  0  0  0  0  0  0
  -16.7200  -28.6670   23.1490 C   0  0  0  0  0  3  0  0  0  0  0  0
  -25.9100  -32.5350   23.8790 C   0  0  0  0  0  3  0  0  0  0  0  0
  -26.4170  -31.7650   25.1610 C   0  0  1  0  0  0  0  0  0  0  0  0
  -25.3150  -31.5390   26.2260 C   0  0  0  0  0  1  0  0  0  0  0  0
  -26.9910  -30.3810   24.7810 C   0  0  0  0  0  1  0  0  0  0  0  0
  -27.5680  -32.5540   25.8270 C   0  0  0  0  0  1  0  0  0  0  0  0
  -25.6030  -33.9360   24.2100 N   0  0  0  0  0  0  0  0  0  0  0  0
  -25.9270  -34.9910   23.4530 C   0  0  0  0  0  0  0  0  0  0  0  0
  -26.5820  -34.8900   22.4090 O   0  0  0  0  0  0  0  0  0  0  0  0
  -25.0270  -34.0940   25.0270 H   0  0  0  0  0  0  0  0  0  0  0  0
  -24.1910  -36.7870   23.1350 C   0  0  0  0  0  1  0  0  0  0  0  0
  -25.4510  -36.3800   23.9200 C   0  0  0  0  0  3  0  0  0  0  0  0
  -27.6020  -37.2660   24.7070 C   0  0  0  0  0  1  0  0  0  0  0  0
  -26.4820  -37.4340   23.7840 N   0  0  0  0  0  0  0  0  0  0  0  0
  -26.0790  -38.3550   23.9380 H   0  0  0  0  0  0  0  0  0  0  0  0
  1  2  1  0
  3  8  1  0
  3  1  1  0
  4 49  1  0
  4  2  1  0
  5  4  1  0
  5  3  1  0
  6  5  1  0
  7  5  1  0
  8 10  1  0
  9  8  2  0
 12 17  1  0
 13 14  1  0
 13 12  1  0
 15 14  1  0
 15 24  1  0
 15 16  1  0
 17 11  1  0
 17 16  1  0
 18 11  2  0
 19 11  1  0
 19 10  1  0
 20 19  1  0
 21 22  2  0
 22 41  1  0
 23 22  1  0
 23 26  1  0
 24 21  1  0
 24 25  1  0
 25 23  2  0
 26 27  1  0
 27 28  2  0
 29 32  1  0
 29 28  1  0
 30 29  2  0
 31 30  1  0
 31 26  2  0
 32 33  1  0
 33 34  1  0
 34 35  2  0
 36 35  1  0
 36 40  1  0
 37 36  2  0
 38 33  2  0
 38 37  1  0
 39 38  1  0
 41 42  1  0
 42 45  1  0
 42 44  1  0
 43 41  2  0
 46 47  1  0
 46 21  1  0
 48 46  1  0
 49 50  1  0
 51 62  2  0
 52 50  1  0
 52 57  1  0
 53 61  1  0
 53 63  1  0
 54 60  1  0
 54 56  1  0
 55 61  1  0
 56 55  1  0
 57 56  2  0
 58 59  1  0
 58 52  2  0
 59 54  2  0
 60 53  1  0
 61 51  1  0
 63 65  2  0
 64 63  1  0
 66 64  1  0
 67 76  2  0
 67 72  1  0
 68 64  1  0
 68 72  1  0
 69 68  1  0
 70 71  1  0
 70 69  1  0
 71 67  1  0
 72 73  2  0
 73 74  1  0
 75 74  2  0
 76 75  1  0
 77 51  1  0
 77 82  1  0
 77 78  1  0
 78 81  1  1
 78 79  1  0
 80 78  1  0
 82 85  1  0
 83 87  1  0
 83 82  1  0
 84 83  2  0
 87 86  1  0
 89 87  1  0
 89 90  1  0
 89 88  1  0
M  ISO  4  11 100  19 100  49 101  50 101
M  END
>  <TORSDO>  (22) 
F 19

>  <SCORE>  (22) 
-15.302

>  <name>  (22) 
22

>  <ligand_id>  (22) 
22

>  <original_smiles>  (22) 
[H]c1c([H])c([H])c2c(c1[H])C([H])([H])C([H])([H])C([H])([H])C2([H])N([H])C(=O)C1([H])N(C(=O)C([H])(N([H])C(=O)C([H])(N([H])C([H])([H])[H])C([H])([H])[H])C(C([H])([H])[H])(C([H])([H])[H])C([H])([H])[H])C([H])([H])c2c([H])c(OC([H])([H])C3([H])C([H])([H])C([H])([H])C([H])(C(=O)C([H])([H])N([H])C(=O)N4C([H])([H])C([H])([H])C([H])([H])C([H])(n5nc(-c6c([H])c([H])c(Oc7c([H])c([H])c(F)c([H])c7F)c([H])c6[H])c(C(=O)N([H])[H])c5N([H])[H])C4([H])[H])[N+]3([H])[H])c([H])c([H])c2C1([H])[H]

>  <smiles>  (22) 
[H]c1c([H])c([H])c2c(c1[H])C([H])([H])C([H])([H])C([H])([H])C2([H])N([H])C(=O)C1([H])N(C(=O)C([H])(N([H])C(=O)C([H])(N([H])C([H])([H])[H])C([H])([H])[H])C(C([H])([H])[H])(C([H])([H])[H])C([H])([H])[H])C([H])([H])c2c([H])c(OC([H])([H])C3([H])C([H])([H])C([H])([H])C([H])(C(=O)C([H])([H])N([H])C(=O)N4C([H])([H])C([H])([H])C([H])([H])C([H])(n5nc(-c6c([H])c([H])c(Oc7c([H])c([H])c(F)c([H])c7F)c([H])c6[H])c(C(=O)N([H])[H])c5N([H])[H])C4([H])[H])[N+]3([H])[H])c([H])c([H])c2C1([H])[H]

$$$$
23:0:0
     RDKit          3D

 90 98  0  0  1  0  0  0  0  0999 V2000
  -28.0110  -21.5250   18.8970 C   0  0  0  0  0  3  0  0  0  0  0  0
  -27.9010  -20.2180   18.3560 C   0  0  0  0  0  3  0  0  0  0  0  0
  -29.2570  -20.5340   20.7110 C   0  0  0  0  0  3  0  0  0  0  0  0
  -28.7050  -21.7740   20.0930 C   0  0  0  0  0  0  0  0  0  0  0  0
  -28.4680  -19.0560   18.9530 C   0  0  0  0  0  0  0  0  0  0  0  0
  -29.1820  -19.1350   20.1820 C   0  0  0  0  0  0  0  0  0  0  0  0
  -28.2920  -17.7330   18.2140 C   0  0  0  0  0  1  0  0  0  0  0  0
  -31.2770  -18.0490   21.3540 C   0  0  0  0  0  1  0  0  0  0  0  0
  -29.8350  -17.7720   20.8970 C   0  0  0  0  0  0  0  0  0  0  0  0
  -30.4810  -15.0670   20.3710 C   0  0  0  0  0  0  0  0  0  0  0  0
  -30.4110  -12.7120   19.4030 C   0  0  0  0  0  2  0  0  0  0  0  0
  -29.4610  -12.6530   18.1860 C   0  0  0  0  0  2  0  0  0  0  0  0
  -28.0100  -12.4160   18.6450 C   0  0  0  0  0  2  0  0  0  0  0  0
  -27.6040  -13.3360   19.8240 C   0  0  0  0  0  3  0  0  0  0  0  0
  -28.6690  -13.3420   20.9350 C   0  0  0  0  0  2  0  0  0  0  0  0
  -29.9170  -13.7920   20.3050 N   0  0  0  0  0  0  0  0  0  0  0  0
  -31.6890  -15.1490   20.1230 O   0  0  0  0  0  0  0  0  0  0  0  0
  -29.6530  -16.2280   20.5280 N   0  0  0  0  0  4  0  0  0  0  0  0
  -28.6780  -15.9680   20.5700 H   0  0  0  0  0  0  0  0  0  0  0  0
  -25.2350  -13.8960   20.5970 C   0  0  0  0  0  0  0  0  0  0  0  0
  -24.1820  -13.1150   20.9760 C   0  0  0  0  0  0  0  0  0  0  0  0
  -24.6500  -11.7640   20.9190 C   0  0  0  0  0  0  0  0  0  0  0  0
  -26.2760  -13.0230   20.3310 N   0  0  0  0  0  0  0  0  0  0  0  0
  -25.9380  -11.7350   20.5910 N   0  0  0  0  0  0  0  0  0  0  0  0
  -23.9320  -10.4980   21.1020 C   0  0  0  0  0  0  0  0  0  0  0  0
  -24.3650   -9.5350   22.0380 C   0  0  0  0  0  3  0  0  0  0  0  0
  -23.6460   -8.3310   22.2100 C   0  0  0  0  0  3  0  0  0  0  0  0
  -22.4820   -8.0850   21.4440 C   0  0  0  0  0  0  0  0  0  0  0  0
  -22.0700   -9.0390   20.4960 C   0  0  0  0  0  3  0  0  0  0  0  0
  -22.7890  -10.2330   20.3250 C   0  0  0  0  0  3  0  0  0  0  0  0
  -21.7350   -6.9360   21.5250 O   0  0  0  0  0  0  0  0  0  0  0  0
  -21.6600   -6.2060   22.6860 C   0  0  0  0  0  0  0  0  0  0  0  0
  -21.1460   -6.7590   23.8800 C   0  0  0  0  0  3  0  0  0  0  0  0
  -21.0220   -5.9550   25.0300 C   0  0  0  0  0  3  0  0  0  0  0  0
  -21.4000   -4.6000   24.9880 C   0  0  0  0  0  0  0  0  0  0  0  0
  -21.9050   -4.0470   23.8000 C   0  0  0  0  0  3  0  0  0  0  0  0
  -22.0320   -4.8470   22.6500 C   0  0  0  0  0  0  0  0  0  0  0  0
  -22.5000   -4.3050   21.5010 F   0  0  0  0  0  0  0  0  0  0  0  0
  -21.2720   -3.8250   26.0900 F   0  0  0  0  0  0  0  0  0  0  0  0
  -22.7860  -13.5820   21.2660 C   0  0  0  0  0  0  0  0  0  0  0  0
  -22.0670  -12.8640   22.1210 N   0  0  0  0  0  0  0  0  0  0  0  0
  -22.3410  -14.6180   20.7700 O   0  0  0  0  0  0  0  0  0  0  0  0
  -22.4360  -12.0230   22.5390 H   0  0  0  0  0  0  0  0  0  0  0  0
  -21.1320  -13.1560   22.3610 H   0  0  0  0  0  0  0  0  0  0  0  0
  -25.3910  -15.2710   20.4310 N   0  0  0  0  0  0  0  0  0  0  0  0
  -24.6190  -15.9160   20.5460 H   0  0  0  0  0  0  0  0  0  0  0  0
  -26.2110  -15.7060   20.0280 H   0  0  0  0  0  0  0  0  0  0  0  0
  -28.8510  -23.3550   20.5880 C   0  0  0  0  0  3  0  0  0  0  0  0
  -28.0430  -24.7110   19.9610 C   0  0  0  0  0  3  0  0  0  0  0  0
  -28.2250  -26.2210   20.3380 O   0  0  0  0  0  0  0  0  0  0  0  0
  -24.5750  -31.9180   23.2610 C   0  0  0  0  0  0  0  0  0  0  0  0
  -27.1760  -27.2100   20.2410 C   0  0  0  0  0  0  0  0  0  0  0  0
  -23.3900  -30.5300   21.6030 C   0  0  0  0  0  3  0  0  0  0  0  0
  -24.8550  -28.9630   20.1850 C   0  0  0  0  0  0  0  0  0  0  0  0
  -25.9470  -30.7920   21.4710 C   0  0  0  0  0  2  0  0  0  0  0  0
  -26.0250  -29.4030   20.8150 C   0  0  0  0  0  0  0  0  0  0  0  0
  -27.1840  -28.5410   20.8340 C   0  0  0  0  0  3  0  0  0  0  0  0
  -25.9850  -26.8810   19.5590 C   0  0  0  0  0  3  0  0  0  0  0  0
  -24.8490  -27.7170   19.5400 C   0  0  0  0  0  3  0  0  0  0  0  0
  -23.6250  -29.8550   20.2240 C   0  0  0  0  0  2  0  0  0  0  0  0
  -24.6570  -31.1030   22.1670 N   0  0  0  0  0  0  0  0  0  0  0  0
  -23.4860  -32.2020   23.7780 O   0  0  0  0  0  0  0  0  0  0  0  0
  -22.7030  -29.5190   22.5550 C   0  0  0  0  0  0  0  0  0  0  0  0
  -21.3790  -29.3400   22.4040 N   0  0  0  0  0  0  0  0  0  0  0  0
  -23.3630  -28.9020   23.3920 O   0  0  0  0  0  0  0  0  0  0  0  0
  -20.9020  -29.8880   21.7010 H   0  0  0  0  0  0  0  0  0  0  0  0
  -17.9990  -28.1270   22.8550 C   0  0  0  0  0  0  0  0  0  0  0  0
  -20.5520  -28.3970   23.1630 C   0  0  0  0  0  3  0  0  0  0  0  0
  -20.6670  -26.9640   22.5930 C   0  0  0  0  0  2  0  0  0  0  0  0
  -19.5860  -26.6350   21.5570 C   0  0  0  0  0  2  0  0  0  0  0  0
  -18.1860  -26.7860   22.1680 C   0  0  0  0  0  2  0  0  0  0  0  0
  -19.1070  -28.8900   23.3090 C   0  0  0  0  0  0  0  0  0  0  0  0
  -18.8740  -30.1460   23.9110 C   0  0  0  0  0  3  0  0  0  0  0  0
  -17.5640  -30.6380   24.0600 C   0  0  0  0  0  3  0  0  0  0  0  0
  -16.4690  -29.8730   23.6170 C   0  0  0  0  0  3  0  0  0  0  0  0
  -16.6880  -28.6190   23.0230 C   0  0  0  0  0  3  0  0  0  0  0  0
  -25.8500  -32.5520   23.9030 C   0  0  0  0  0  3  0  0  0  0  0  0
  -26.3330  -31.7950   25.2020 C   0  0  1  0  0  0  0  0  0  0  0  0
  -25.2130  -31.5770   26.2460 C   0  0  0  0  0  1  0  0  0  0  0  0
  -26.9170  -30.4090   24.8480 C   0  0  0  0  0  1  0  0  0  0  0  0
  -27.4700  -32.5940   25.8790 C   0  0  0  0  0  1  0  0  0  0  0  0
  -25.5420  -33.9560   24.2140 N   0  0  0  0  0  0  0  0  0  0  0  0
  -25.8870  -35.0060   23.4540 C   0  0  0  0  0  0  0  0  0  0  0  0
  -26.5630  -34.8890   22.4290 O   0  0  0  0  0  0  0  0  0  0  0  0
  -24.9390  -34.1190   25.0080 H   0  0  0  0  0  0  0  0  0  0  0  0
  -24.1810  -36.8140   23.0680 C   0  0  0  0  0  1  0  0  0  0  0  0
  -25.4070  -36.3980   23.8990 C   0  0  0  0  0  3  0  0  0  0  0  0
  -27.5290  -37.2770   24.7680 C   0  0  0  0  0  1  0  0  0  0  0  0
  -26.4500  -37.4440   23.7970 N   0  0  0  0  0  0  0  0  0  0  0  0
  -26.0480  -38.3690   23.9250 H   0  0  0  0  0  0  0  0  0  0  0  0
  1  4  1  0
  2  1  2  0
  2  5  1  0
  4 48  1  0
  4  3  2  0
  5  6  2  0
  6  3  1  0
  6  9  1  0
  7  5  1  0
  9  8  1  0
 10 18  1  0
 11 16  1  0
 12 13  1  0
 12 11  1  0
 14 13  1  0
 14 23  1  0
 14 15  1  0
 16 10  1  0
 16 15  1  0
 17 10  2  0
 18 19  1  0
 18  9  2  0
 20 21  2  0
 21 40  1  0
 22 21  1  0
 22 25  1  0
 23 24  1  0
 23 20  1  0
 24 22  2  0
 25 26  1  0
 26 27  2  0
 28 31  1  0
 28 27  1  0
 29 28  2  0
 30 29  1  0
 30 25  2  0
 31 32  1  0
 32 33  1  0
 33 34  2  0
 35 34  1  0
 35 39  1  0
 36 35  2  0
 37 32  2  0
 37 36  1  0
 38 37  1  0
 40 41  1  0
 41 44  1  0
 41 43  1  0
 42 40  2  0
 45 46  1  0
 45 20  1  0
 47 45  1  0
 49 50  1  0
 49 48  2  0
 51 62  2  0
 52 50  1  0
 52 57  1  0
 53 61  1  0
 53 63  1  0
 54 60  1  0
 54 56  1  0
 55 61  1  0
 56 57  2  0
 56 55  1  0
 58 52  2  0
 59 58  1  0
 59 54  2  0
 60 53  1  0
 61 51  1  0
 63 65  2  0
 64 63  1  0
 66 64  1  0
 67 76  2  0
 67 72  1  0
 68 64  1  0
 68 72  1  0
 69 68  1  0
 70 71  1  0
 70 69  1  0
 71 67  1  0
 72 73  2  0
 73 74  1  0
 75 74  2  0
 76 75  1  0
 77 51  1  0
 77 82  1  0
 77 78  1  0
 78 81  1  1
 78 79  1  0
 80 78  1  0
 82 85  1  0
 83 87  1  0
 83 82  1  0
 84 83  2  0
 87 86  1  0
 89 87  1  0
 89 90  1  0
 89 88  1  0
M  ISO  4  10 100  18 100  49 101  50 101
M  END
>  <TORSDO>  (23) 
F 19

>  <SCORE>  (23) 
-15.409

>  <name>  (23) 
23

>  <ligand_id>  (23) 
23

>  <original_smiles>  (23) 
[H]c1c([H])c([H])c2c(c1[H])C([H])([H])C([H])([H])C([H])([H])C2([H])N([H])C(=O)C1([H])N(C(=O)C([H])(N([H])C(=O)C([H])(N([H])C([H])([H])[H])C([H])([H])[H])C(C([H])([H])[H])(C([H])([H])[H])C([H])([H])[H])C([H])([H])c2c([H])c(OC([H])([H])C([H])([H])c3c([H])c([H])c(C([H])([H])[H])c(C([H])(N([H])C(=O)N4C([H])([H])C([H])([H])C([H])([H])C([H])(n5nc(-c6c([H])c([H])c(Oc7c([H])c([H])c(F)c([H])c7F)c([H])c6[H])c(C(=O)N([H])[H])c5N([H])[H])C4([H])[H])C([H])([H])[H])c3[H])c([H])c([H])c2C1([H])[H]

>  <smiles>  (23) 
[H]c1c([H])c([H])c2c(c1[H])C([H])([H])C([H])([H])C([H])([H])C2([H])N([H])C(=O)C1([H])N(C(=O)C([H])(N([H])C(=O)C([H])(N([H])C([H])([H])[H])C([H])([H])[H])C(C([H])([H])[H])(C([H])([H])[H])C([H])([H])[H])C([H])([H])c2c([H])c(OC([H])([H])C([H])([H])c3c([H])c([H])c(C([H])([H])[H])c(C([H])(N([H])C(=O)N4C([H])([H])C([H])([H])C([H])([H])C([H])(n5nc(-c6c([H])c([H])c(Oc7c([H])c([H])c(F)c([H])c7F)c([H])c6[H])c(C(=O)N([H])[H])c5N([H])[H])C4([H])[H])C([H])([H])[H])c3[H])c([H])c([H])c2C1([H])[H]

$$$$
24:0:0
     RDKit          3D

 90 98  0  0  1  0  0  0  0  0999 V2000
  -27.4450  -21.2370   20.4000 C   0  0  0  0  0  2  0  0  0  0  0  0
  -29.2830  -20.3910   19.7570 C   0  0  0  0  0  3  0  0  0  0  0  0
  -28.8420  -21.8520   20.4510 C   0  0  0  0  0  3  0  0  0  0  0  0
  -27.8920  -20.3430   19.3240 N   0  0  0  0  0  4  0  0  0  0  0  0
  -27.7750  -20.7550   18.4140 H   0  0  0  0  0  0  0  0  0  0  0  0
  -27.4910  -19.4210   19.3710 H   0  0  0  0  0  0  0  0  0  0  0  0
  -29.5620  -18.9260   20.4740 C   0  0  0  0  0  0  0  0  0  0  0  0
  -29.3430  -18.7280   21.6740 O   0  0  0  0  0  0  0  0  0  0  0  0
  -30.1180  -17.6110   19.6590 C   0  0  0  0  0  2  0  0  0  0  0  0
  -30.6860  -14.9660   19.8960 C   0  0  0  0  0  0  0  0  0  0  0  0
  -30.4890  -12.6400   18.9370 C   0  0  0  0  0  2  0  0  0  0  0  0
  -29.4770  -12.6470   17.7700 C   0  0  0  0  0  2  0  0  0  0  0  0
  -28.0390  -12.4550   18.2930 C   0  0  0  0  0  2  0  0  0  0  0  0
  -27.7280  -13.3400   19.5300 C   0  0  0  0  0  3  0  0  0  0  0  0
  -28.8610  -13.2980   20.5780 C   0  0  0  0  0  2  0  0  0  0  0  0
  -30.0940  -13.7090   19.8980 N   0  0  0  0  0  0  0  0  0  0  0  0
  -31.8400  -15.0570   19.4670 O   0  0  0  0  0  0  0  0  0  0  0  0
  -29.9260  -16.1260   20.1520 N   0  0  0  0  0  0  0  0  0  0  0  0
  -29.0290  -15.9480   20.5750 H   0  0  0  0  0  0  0  0  0  0  0  0
  -25.3990  -13.9040   20.4360 C   0  0  0  0  0  0  0  0  0  0  0  0
  -24.3570  -13.1190   20.8510 C   0  0  0  0  0  0  0  0  0  0  0  0
  -24.8130  -11.7690   20.7500 C   0  0  0  0  0  0  0  0  0  0  0  0
  -26.4220  -13.0320   20.1030 N   0  0  0  0  0  0  0  0  0  0  0  0
  -26.0810  -11.7410   20.3520 N   0  0  0  0  0  0  0  0  0  0  0  0
  -24.0970  -10.5020   20.9510 C   0  0  0  0  0  0  0  0  0  0  0  0
  -24.5340   -9.5470   21.8940 C   0  0  0  0  0  3  0  0  0  0  0  0
  -23.8140   -8.3470   22.0850 C   0  0  0  0  0  3  0  0  0  0  0  0
  -22.6440   -8.0940   21.3290 C   0  0  0  0  0  0  0  0  0  0  0  0
  -22.2290   -9.0380   20.3710 C   0  0  0  0  0  3  0  0  0  0  0  0
  -22.9510  -10.2290   20.1810 C   0  0  0  0  0  3  0  0  0  0  0  0
  -21.8970   -6.9460   21.4260 O   0  0  0  0  0  0  0  0  0  0  0  0
  -21.7880   -6.2570   22.6080 C   0  0  0  0  0  0  0  0  0  0  0  0
  -21.2520   -6.8520   23.7720 C   0  0  0  0  0  3  0  0  0  0  0  0
  -21.0900   -6.0870   24.9440 C   0  0  0  0  0  3  0  0  0  0  0  0
  -21.4580   -4.7280   24.9540 C   0  0  0  0  0  0  0  0  0  0  0  0
  -21.9870   -4.1320   23.7960 C   0  0  0  0  0  3  0  0  0  0  0  0
  -22.1490   -4.8950   22.6250 C   0  0  0  0  0  0  0  0  0  0  0  0
  -22.6390   -4.3110   21.5060 F   0  0  0  0  0  0  0  0  0  0  0  0
  -21.2970   -3.9900   26.0780 F   0  0  0  0  0  0  0  0  0  0  0  0
  -22.9850  -13.5920   21.2290 C   0  0  0  0  0  0  0  0  0  0  0  0
  -22.3100  -12.8640   22.1120 N   0  0  0  0  0  0  0  0  0  0  0  0
  -22.5220  -14.6390   20.7800 O   0  0  0  0  0  0  0  0  0  0  0  0
  -22.6960  -12.0120   22.4920 H   0  0  0  0  0  0  0  0  0  0  0  0
  -21.3930  -13.1650   22.4130 H   0  0  0  0  0  0  0  0  0  0  0  0
  -25.5560  -15.2780   20.2860 N   0  0  0  0  0  0  0  0  0  0  0  0
  -24.8080  -15.9310   20.4960 H   0  0  0  0  0  0  0  0  0  0  0  0
  -26.3640  -15.7210   19.8720 H   0  0  0  0  0  0  0  0  0  0  0  0
  -29.0030  -23.4270   19.8790 C   0  0  0  0  0  3  0  0  0  0  0  0
  -28.0610  -24.7370   20.3560 C   0  0  0  0  0  3  0  0  0  0  0  0
  -28.3260  -26.2480   20.1050 O   0  0  0  0  0  0  0  0  0  0  0  0
  -24.6340  -31.8460   23.1600 C   0  0  0  0  0  0  0  0  0  0  0  0
  -27.2560  -27.2100   20.0740 C   0  0  0  0  0  0  0  0  0  0  0  0
  -23.4550  -30.4780   21.4790 C   0  0  0  0  0  3  0  0  0  0  0  0
  -24.9230  -28.9380   20.0380 C   0  0  0  0  0  0  0  0  0  0  0  0
  -26.0080  -30.7580   21.3490 C   0  0  0  0  0  2  0  0  0  0  0  0
  -26.0910  -29.3790   20.6760 C   0  0  0  0  0  0  0  0  0  0  0  0
  -27.2580  -28.5300   20.6790 C   0  0  0  0  0  3  0  0  0  0  0  0
  -26.0700  -26.8750   19.3870 C   0  0  0  0  0  3  0  0  0  0  0  0
  -24.9240  -27.7000   19.3780 C   0  0  0  0  0  3  0  0  0  0  0  0
  -23.6960  -29.8330   20.0880 C   0  0  0  0  0  2  0  0  0  0  0  0
  -24.7170  -31.0480   22.0510 N   0  0  0  0  0  0  0  0  0  0  0  0
  -23.5430  -32.1130   23.6850 O   0  0  0  0  0  0  0  0  0  0  0  0
  -22.7780  -29.4460   22.4160 C   0  0  0  0  0  0  0  0  0  0  0  0
  -21.4450  -29.2970   22.3040 N   0  0  0  0  0  0  0  0  0  0  0  0
  -23.4540  -28.7830   23.2080 O   0  0  0  0  0  0  0  0  0  0  0  0
  -20.9550  -29.8860   21.6440 H   0  0  0  0  0  0  0  0  0  0  0  0
  -18.0580  -28.1350   22.8410 C   0  0  0  0  0  0  0  0  0  0  0  0
  -20.6260  -28.3450   23.0570 C   0  0  0  0  0  3  0  0  0  0  0  0
  -20.6900  -26.9350   22.4260 C   0  0  0  0  0  2  0  0  0  0  0  0
  -19.5610  -26.6710   21.4270 C   0  0  0  0  0  2  0  0  0  0  0  0
  -18.1970  -26.8120   22.1070 C   0  0  0  0  0  2  0  0  0  0  0  0
  -19.1990  -28.8650   23.2710 C   0  0  0  0  0  0  0  0  0  0  0  0
  -19.0150  -30.1050   23.9210 C   0  0  0  0  0  3  0  0  0  0  0  0
  -17.7230  -30.6180   24.1390 C   0  0  0  0  0  3  0  0  0  0  0  0
  -16.5980  -29.8880   23.7200 C   0  0  0  0  0  3  0  0  0  0  0  0
  -16.7670  -28.6480   23.0780 C   0  0  0  0  0  3  0  0  0  0  0  0
  -25.9050  -32.4790   23.8050 C   0  0  0  0  0  3  0  0  0  0  0  0
  -26.4220  -31.6810   25.0650 C   0  0  1  0  0  0  0  0  0  0  0  0
  -25.3270  -31.4030   26.1220 C   0  0  0  0  0  1  0  0  0  0  0  0
  -27.0240  -30.3170   24.6490 C   0  0  0  0  0  1  0  0  0  0  0  0
  -27.5590  -32.4690   25.7560 C   0  0  0  0  0  1  0  0  0  0  0  0
  -25.5770  -33.8640   24.1750 N   0  0  0  0  0  0  0  0  0  0  0  0
  -25.8990  -34.9440   23.4520 C   0  0  0  0  0  0  0  0  0  0  0  0
  -26.5710  -34.8810   22.4180 O   0  0  0  0  0  0  0  0  0  0  0  0
  -24.9920  -33.9900   24.9880 H   0  0  0  0  0  0  0  0  0  0  0  0
  -24.1660  -36.7410   23.1400 C   0  0  0  0  0  1  0  0  0  0  0  0
  -25.3990  -36.3140   23.9510 C   0  0  0  0  0  3  0  0  0  0  0  0
  -27.5120  -37.1940   24.8420 C   0  0  0  0  0  1  0  0  0  0  0  0
  -26.4250  -37.3760   23.8850 N   0  0  0  0  0  0  0  0  0  0  0  0
  -26.0100  -38.2900   24.0460 H   0  0  0  0  0  0  0  0  0  0  0  0
  1  3  1  0
  2  3  1  0
  2  7  1  0
  3 48  1  0
  4  6  1  0
  4  2  1  0
  4  1  1  0
  5  4  1  0
  7  8  2  0
  9 18  1  0
  9  7  1  0
 10 16  1  0
 10 18  1  0
 11 16  1  0
 12 13  1  0
 12 11  1  0
 14 13  1  0
 14 23  1  0
 14 15  1  0
 16 15  1  0
 17 10  2  0
 18 19  1  0
 20 21  2  0
 21 40  1  0
 22 21  1  0
 22 25  1  0
 23 24  1  0
 23 20  1  0
 24 22  2  0
 25 26  1  0
 26 27  2  0
 28 31  1  0
 28 27  1  0
 29 28  2  0
 30 29  1  0
 30 25  2  0
 31 32  1  0
 32 37  2  0
 32 33  1  0
 33 34  2  0
 34 35  1  0
 35 39  1  0
 36 35  2  0
 37 36  1  0
 38 37  1  0
 40 41  1  0
 41 44  1  0
 41 43  1  0
 42 40  2  0
 45 20  1  0
 45 46  1  0
 47 45  1  0
 48 49  2  0
 50 49  1  0
 51 62  2  0
 52 50  1  0
 52 57  1  0
 53 61  1  0
 53 63  1  0
 54 60  1  0
 54 56  1  0
 55 61  1  0
 56 57  2  0
 56 55  1  0
 58 52  2  0
 59 58  1  0
 59 54  2  0
 60 53  1  0
 61 51  1  0
 63 65  2  0
 64 63  1  0
 66 64  1  0
 67 76  2  0
 67 72  1  0
 68 64  1  0
 68 72  1  0
 69 68  1  0
 70 71  1  0
 70 69  1  0
 71 67  1  0
 72 73  2  0
 73 74  1  0
 75 74  2  0
 76 75  1  0
 77 51  1  0
 77 82  1  0
 77 78  1  0
 78 81  1  1
 78 79  1  0
 80 78  1  0
 82 85  1  0
 83 87  1  0
 83 82  1  0
 84 83  2  0
 87 86  1  0
 89 87  1  0
 89 90  1  0
 89 88  1  0
M  ISO  4  10 100  18 100  49 101  50 101
M  END
>  <TORSDO>  (24) 
F 20

>  <SCORE>  (24) 
-12.809

>  <name>  (24) 
24

>  <ligand_id>  (24) 
24

>  <original_smiles>  (24) 
[H]c1c([H])c([H])c2c(c1[H])C([H])([H])C([H])([H])C([H])([H])C2([H])N([H])C(=O)C1([H])N(C(=O)C([H])(N([H])C(=O)C([H])(N([H])C([H])([H])[H])C([H])([H])[H])C(C([H])([H])[H])(C([H])([H])[H])C([H])([H])[H])C([H])([H])c2c([H])c(OC([H])([H])C([H])([H])C3([H])C([H])([H])[N+]([H])([H])C3([H])C(=O)C([H])([H])N([H])C(=O)N3C([H])([H])C([H])([H])C([H])([H])C([H])(n4nc(-c5c([H])c([H])c(Oc6c([H])c([H])c(F)c([H])c6F)c([H])c5[H])c(C(=O)N([H])[H])c4N([H])[H])C3([H])[H])c([H])c([H])c2C1([H])[H]

>  <smiles>  (24) 
[H]c1c([H])c([H])c2c(c1[H])C([H])([H])C([H])([H])C([H])([H])C2([H])N([H])C(=O)C1([H])N(C(=O)C([H])(N([H])C(=O)C([H])(N([H])C([H])([H])[H])C([H])([H])[H])C(C([H])([H])[H])(C([H])([H])[H])C([H])([H])[H])C([H])([H])c2c([H])c(OC([H])([H])C([H])([H])C3([H])C([H])([H])[N+]([H])([H])C3([H])C(=O)C([H])([H])N([H])C(=O)N3C([H])([H])C([H])([H])C([H])([H])C([H])(n4nc(-c5c([H])c([H])c(Oc6c([H])c([H])c(F)c([H])c6F)c([H])c5[H])c(C(=O)N([H])[H])c4N([H])[H])C3([H])[H])c([H])c([H])c2C1([H])[H]

$$$$
25:0:0
     RDKit          3D

 91100  0  0  1  0  0  0  0  0999 V2000
  -29.1990  -22.3640   20.1590 C   0  0  0  0  0  3  0  0  0  0  0  0
  -30.4370  -22.6300   20.9280 N   0  0  0  0  0  4  0  0  0  0  0  0
  -31.1530  -21.9520   20.7360 H   0  0  0  0  0  0  0  0  0  0  0  0
  -30.2520  -22.6090   21.9160 H   0  0  0  0  0  0  0  0  0  0  0  0
  -30.8130  -23.5350   20.6930 H   0  0  0  0  0  0  0  0  0  0  0  0
  -28.9770  -20.4450   20.3890 C   0  0  0  0  0  0  0  0  0  0  0  0
  -27.9220  -20.1670   20.9610 O   0  0  0  0  0  0  0  0  0  0  0  0
  -30.4220  -15.7190   20.1790 C   0  0  0  0  0  0  0  0  0  0  0  0
  -30.4590  -13.1960   19.3460 C   0  0  0  0  0  2  0  0  0  0  0  0
  -29.5530  -12.8150   18.1410 C   0  0  0  0  0  2  0  0  0  0  0  0
  -28.1210  -12.4810   18.5930 C   0  0  0  0  0  2  0  0  0  0  0  0
  -27.6240  -13.4550   19.6880 C   0  0  0  0  0  3  0  0  0  0  0  0
  -28.6790  -13.7800   20.7750 C   0  0  0  0  0  2  0  0  0  0  0  0
  -29.8490  -14.3800   20.0880 N   0  0  0  0  0  0  0  0  0  0  0  0
  -31.6620  -15.6240   20.1810 O   0  0  0  0  0  0  0  0  0  0  0  0
  -31.4590  -18.2590   17.7660 C   0  0  0  0  0  2  0  0  0  0  0  0
  -29.3100  -16.9790   18.5220 C   0  0  0  0  0  2  0  0  0  0  0  0
  -30.0100  -18.8530   19.9960 C   0  0  0  0  0  3  0  0  0  0  0  0
  -29.9530  -18.1250   17.7290 C   0  0  0  0  0  3  0  0  0  0  0  0
  -30.5640  -19.1510   18.6020 C   0  0  0  0  0  3  0  0  0  0  0  0
  -29.7220  -17.0940   19.9500 N   0  0  0  0  0  0  0  0  0  0  0  0
  -25.2620  -13.9530   20.4930 C   0  0  0  0  0  0  0  0  0  0  0  0
  -24.2120  -13.1620   20.8540 C   0  0  0  0  0  0  0  0  0  0  0  0
  -24.6970  -11.8140   20.8100 C   0  0  0  0  0  0  0  0  0  0  0  0
  -26.3160  -13.0960   20.2280 N   0  0  0  0  0  0  0  0  0  0  0  0
  -25.9910  -11.8010   20.4890 N   0  0  0  0  0  0  0  0  0  0  0  0
  -23.9820  -10.5430   20.9900 C   0  0  0  0  0  0  0  0  0  0  0  0
  -24.4100   -9.5820   21.9310 C   0  0  0  0  0  3  0  0  0  0  0  0
  -23.6890   -8.3800   22.1060 C   0  0  0  0  0  3  0  0  0  0  0  0
  -22.5280   -8.1290   21.3380 C   0  0  0  0  0  0  0  0  0  0  0  0
  -22.1170   -9.0820   20.3910 C   0  0  0  0  0  3  0  0  0  0  0  0
  -22.8360  -10.2750   20.2130 C   0  0  0  0  0  3  0  0  0  0  0  0
  -21.7790   -6.9790   21.4190 O   0  0  0  0  0  0  0  0  0  0  0  0
  -21.7060   -6.2470   22.5780 C   0  0  0  0  0  0  0  0  0  0  0  0
  -21.2160   -6.8050   23.7800 C   0  0  0  0  0  3  0  0  0  0  0  0
  -21.0900   -6.0020   24.9300 C   0  0  0  0  0  3  0  0  0  0  0  0
  -21.4430   -4.6380   24.8780 C   0  0  0  0  0  0  0  0  0  0  0  0
  -21.9240   -4.0790   23.6820 C   0  0  0  0  0  3  0  0  0  0  0  0
  -22.0510   -4.8820   22.5350 C   0  0  0  0  0  0  0  0  0  0  0  0
  -22.4940   -4.3320   21.3790 F   0  0  0  0  0  0  0  0  0  0  0  0
  -21.3160   -3.8640   25.9810 F   0  0  0  0  0  0  0  0  0  0  0  0
  -22.8090  -13.6200   21.1250 C   0  0  0  0  0  0  0  0  0  0  0  0
  -22.0940  -12.9220   21.9960 N   0  0  0  0  0  0  0  0  0  0  0  0
  -22.3550  -14.6370   20.6020 O   0  0  0  0  0  0  0  0  0  0  0  0
  -22.4720  -12.1000   22.4440 H   0  0  0  0  0  0  0  0  0  0  0  0
  -21.1520  -13.2090   22.2170 H   0  0  0  0  0  0  0  0  0  0  0  0
  -25.4080  -15.3300   20.3250 N   0  0  0  0  0  0  0  0  0  0  0  0
  -24.6360  -15.9790   20.4440 H   0  0  0  0  0  0  0  0  0  0  0  0
  -26.2640  -15.7830   20.0280 H   0  0  0  0  0  0  0  0  0  0  0  0
  -28.1210  -23.9550   20.3350 C   0  0  0  0  0  2  0  0  0  0  0  0
  -28.2380  -25.7000   20.2430 O   0  0  0  0  0  0  0  0  0  0  0  0
  -24.6340  -31.9000   23.1860 C   0  0  0  0  0  0  0  0  0  0  0  0
  -27.2120  -26.8580   20.2290 C   0  0  0  0  0  0  0  0  0  0  0  0
  -23.4490  -30.4820   21.5610 C   0  0  0  0  0  3  0  0  0  0  0  0
  -24.9070  -28.8380   20.1640 C   0  0  0  0  0  0  0  0  0  0  0  0
  -26.0250  -30.6570   21.4240 C   0  0  0  0  0  2  0  0  0  0  0  0
  -26.1010  -29.2220   20.7840 C   0  0  0  0  0  0  0  0  0  0  0  0
  -27.2360  -28.2590   20.7830 C   0  0  0  0  0  3  0  0  0  0  0  0
  -25.9740  -26.6660   19.5610 C   0  0  0  0  0  3  0  0  0  0  0  0
  -24.8810  -27.5830   19.5270 C   0  0  0  0  0  3  0  0  0  0  0  0
  -23.6920  -29.7790   20.1920 C   0  0  0  0  0  2  0  0  0  0  0  0
  -24.7270  -31.0480   22.1080 N   0  0  0  0  0  0  0  0  0  0  0  0
  -23.5420  -32.1930   23.6990 O   0  0  0  0  0  0  0  0  0  0  0  0
  -22.7460  -29.5060   22.5400 C   0  0  0  0  0  0  0  0  0  0  0  0
  -21.4140  -29.3430   22.4240 N   0  0  0  0  0  0  0  0  0  0  0  0
  -23.4100  -28.8970   23.3800 O   0  0  0  0  0  0  0  0  0  0  0  0
  -20.9260  -29.8830   21.7240 H   0  0  0  0  0  0  0  0  0  0  0  0
  -18.0320  -28.1110   22.9540 C   0  0  0  0  0  0  0  0  0  0  0  0
  -20.5910  -28.4070   23.2050 C   0  0  0  0  0  3  0  0  0  0  0  0
  -20.7080  -26.9680   22.6480 C   0  0  0  0  0  2  0  0  0  0  0  0
  -19.6080  -26.6250   21.6400 C   0  0  0  0  0  2  0  0  0  0  0  0
  -18.2230  -26.7590   22.2850 C   0  0  0  0  0  2  0  0  0  0  0  0
  -19.1440  -28.8920   23.3700 C   0  0  0  0  0  0  0  0  0  0  0  0
  -18.9110  -30.1500   23.9620 C   0  0  0  0  0  3  0  0  0  0  0  0
  -17.6000  -30.6320   24.1370 C   0  0  0  0  0  3  0  0  0  0  0  0
  -16.5030  -29.8510   23.7340 C   0  0  0  0  0  3  0  0  0  0  0  0
  -16.7200  -28.5910   23.1500 C   0  0  0  0  0  3  0  0  0  0  0  0
  -25.8960  -32.5650   23.8120 C   0  0  0  0  0  3  0  0  0  0  0  0
  -26.4140  -31.8130   25.1000 C   0  0  1  0  0  0  0  0  0  0  0  0
  -25.3210  -31.5810   26.1690 C   0  0  0  0  0  1  0  0  0  0  0  0
  -27.0090  -30.4340   24.7360 C   0  0  0  0  0  1  0  0  0  0  0  0
  -27.5580  -32.6200   25.7570 C   0  0  0  0  0  1  0  0  0  0  0  0
  -25.5610  -33.9610   24.1550 N   0  0  0  0  0  0  0  0  0  0  0  0
  -25.8680  -35.0340   23.4090 C   0  0  0  0  0  0  0  0  0  0  0  0
  -26.5170  -34.9520   22.3630 O   0  0  0  0  0  0  0  0  0  0  0  0
  -24.9810  -34.0980   24.9670 H   0  0  0  0  0  0  0  0  0  0  0  0
  -24.1110  -36.8180   23.1260 C   0  0  0  0  0  1  0  0  0  0  0  0
  -25.3790  -36.4130   23.8970 C   0  0  0  0  0  3  0  0  0  0  0  0
  -27.5200  -37.3220   24.6840 C   0  0  0  0  0  1  0  0  0  0  0  0
  -26.3930  -37.4820   23.7670 N   0  0  0  0  0  0  0  0  0  0  0  0
  -25.9790  -38.3930   23.9330 H   0  0  0  0  0  0  0  0  0  0  0  0
  1 50  1  0
  1  6  1  0
  1  2  1  0
  2  4  1  0
  3  2  1  0
  5  2  1  0
  6  7  2  0
  8 15  2  0
  9 14  1  0
 10 11  1  0
 10  9  1  0
 12 11  1  0
 12 25  1  0
 12 13  1  0
 14  8  1  0
 14 13  1  0
 17 21  1  0
 18  6  1  0
 19 16  1  0
 19 17  1  0
 19 20  1  0
 20 16  1  0
 20 18  1  0
 21 18  1  0
 21  8  1  0
 22 23  2  0
 23 42  1  0
 24 23  1  0
 24 27  1  0
 25 26  1  0
 25 22  1  0
 26 24  2  0
 27 28  1  0
 28 29  2  0
 30 33  1  0
 30 29  1  0
 31 30  2  0
 32 31  1  0
 32 27  2  0
 33 34  1  0
 34 35  1  0
 35 36  2  0
 37 36  1  0
 37 41  1  0
 38 37  2  0
 39 34  2  0
 39 38  1  0
 40 39  1  0
 42 43  1  0
 43 46  1  0
 43 45  1  0
 44 42  2  0
 47 48  1  0
 47 22  1  0
 49 47  1  0
 51 50  1  0
 52 63  2  0
 53 51  1  0
 53 58  1  0
 54 62  1  0
 54 64  1  0
 55 61  1  0
 55 57  1  0
 56 62  1  0
 57 56  1  0
 58 57  2  0
 59 53  2  0
 60 59  1  0
 60 55  2  0
 61 54  1  0
 62 52  1  0
 64 66  2  0
 65 64  1  0
 67 65  1  0
 68 77  2  0
 68 73  1  0
 69 65  1  0
 69 73  1  0
 70 69  1  0
 71 72  1  0
 71 70  1  0
 72 68  1  0
 73 74  2  0
 74 75  1  0
 76 75  2  0
 77 76  1  0
 78 52  1  0
 78 83  1  0
 78 79  1  0
 79 82  1  1
 79 80  1  0
 81 79  1  0
 83 86  1  0
 84 88  1  0
 84 83  1  0
 85 84  2  0
 88 87  1  0
 90 88  1  0
 90 91  1  0
 90 89  1  0
M  ISO  4   8 100  21 100  50 101  51 101
M  END
>  <TORSDO>  (25) 
F 19

>  <SCORE>  (25) 
-16.262

>  <name>  (25) 
25

>  <ligand_id>  (25) 
25

>  <original_smiles>  (25) 
[H]c1c([H])c([H])c2c(c1[H])C([H])([H])C([H])([H])C([H])([H])C2([H])N([H])C(=O)C1([H])N(C(=O)C([H])(N([H])C(=O)C([H])(N([H])C([H])([H])[H])C([H])([H])[H])C(C([H])([H])[H])(C([H])([H])[H])C([H])([H])[H])C([H])([H])c2c([H])c(OC([H])([H])C([H])(C(=O)C3([H])N(C(=O)N4C([H])([H])C([H])([H])C([H])([H])C([H])(n5nc(-c6c([H])c([H])c(Oc7c([H])c([H])c(F)c([H])c7F)c([H])c6[H])c(C(=O)N([H])[H])c5N([H])[H])C4([H])[H])C([H])([H])C4([H])C([H])([H])C34[H])[N+]([H])([H])[H])c([H])c([H])c2C1([H])[H]

>  <smiles>  (25) 
[H]c1c([H])c([H])c2c(c1[H])C([H])([H])C([H])([H])C([H])([H])C2([H])N([H])C(=O)C1([H])N(C(=O)C([H])(N([H])C(=O)C([H])(N([H])C([H])([H])[H])C([H])([H])[H])C(C([H])([H])[H])(C([H])([H])[H])C([H])([H])[H])C([H])([H])c2c([H])c(OC([H])([H])C([H])(C(=O)C3([H])N(C(=O)N4C([H])([H])C([H])([H])C([H])([H])C([H])(n5nc(-c6c([H])c([H])c(Oc7c([H])c([H])c(F)c([H])c7F)c([H])c6[H])c(C(=O)N([H])[H])c5N([H])[H])C4([H])[H])C([H])([H])C4([H])C([H])([H])C34[H])[N+]([H])([H])[H])c([H])c([H])c2C1([H])[H]

$$$$
27:0:0
     RDKit          3D

 88 96  0  0  1  0  0  0  0  0999 V2000
  -30.8950  -19.4770   20.6670 C   0  0  0  0  0  2  0  0  0  0  0  0
  -28.5320  -20.3120   20.2530 C   0  0  0  0  0  2  0  0  0  0  0  0
  -30.3470  -22.1510   19.9390 C   0  0  0  0  0  2  0  0  0  0  0  0
  -29.6190  -18.7880   20.1400 C   0  0  0  0  0  3  0  0  0  0  0  0
  -31.2330  -20.8200   19.8940 C   0  0  0  0  0  3  0  0  0  0  0  0
  -28.8860  -22.1480   20.4950 C   0  0  2  0  0  0  0  0  0  0  0  0
  -28.9920  -22.2440   22.0300 C   0  0  0  0  0  1  0  0  0  0  0  0
  -32.4670  -21.1730   20.2570 F   0  0  0  0  0  0  0  0  0  0  0  0
  -30.2670  -15.6650   20.2380 C   0  0  0  0  0  0  0  0  0  0  0  0
  -30.3460  -13.1290   19.4100 C   0  0  0  0  0  2  0  0  0  0  0  0
  -29.4500  -12.7610   18.1920 C   0  0  0  0  0  2  0  0  0  0  0  0
  -28.0270  -12.4140   18.6490 C   0  0  0  0  0  2  0  0  0  0  0  0
  -27.5260  -13.4010   19.7260 C   0  0  0  0  0  3  0  0  0  0  0  0
  -28.5600  -13.6930   20.8410 C   0  0  0  0  0  2  0  0  0  0  0  0
  -29.7390  -14.3030   20.1880 N   0  0  0  0  0  0  0  0  0  0  0  0
  -31.4890  -15.6110   20.0080 O   0  0  0  0  0  0  0  0  0  0  0  0
  -29.5080  -17.0200   20.3540 N   0  0  0  0  0  0  0  0  0  0  0  0
  -28.5460  -16.7870   20.5540 H   0  0  0  0  0  0  0  0  0  0  0  0
  -25.1630  -13.9220   20.5000 C   0  0  0  0  0  0  0  0  0  0  0  0
  -24.1090  -13.1340   20.8670 C   0  0  0  0  0  0  0  0  0  0  0  0
  -24.5880  -11.7870   20.8280 C   0  0  0  0  0  0  0  0  0  0  0  0
  -26.2120  -13.0570   20.2480 N   0  0  0  0  0  0  0  0  0  0  0  0
  -25.8790  -11.7650   20.5130 N   0  0  0  0  0  0  0  0  0  0  0  0
  -23.8670  -10.5200   21.0160 C   0  0  0  0  0  0  0  0  0  0  0  0
  -24.2910   -9.5580   21.9590 C   0  0  0  0  0  3  0  0  0  0  0  0
  -23.5660   -8.3610   22.1360 C   0  0  0  0  0  3  0  0  0  0  0  0
  -22.4030   -8.1140   21.3680 C   0  0  0  0  0  0  0  0  0  0  0  0
  -21.9980   -9.0640   20.4140 C   0  0  0  0  0  3  0  0  0  0  0  0
  -22.7240  -10.2540   20.2370 C   0  0  0  0  0  3  0  0  0  0  0  0
  -21.6510   -6.9670   21.4530 O   0  0  0  0  0  0  0  0  0  0  0  0
  -21.5770   -6.2390   22.6150 C   0  0  0  0  0  0  0  0  0  0  0  0
  -21.0940   -6.8020   23.8160 C   0  0  0  0  0  3  0  0  0  0  0  0
  -20.9680   -6.0000   24.9680 C   0  0  0  0  0  3  0  0  0  0  0  0
  -21.3150   -4.6370   24.9190 C   0  0  0  0  0  0  0  0  0  0  0  0
  -21.7910   -4.0730   23.7220 C   0  0  0  0  0  3  0  0  0  0  0  0
  -21.9190   -4.8730   22.5730 C   0  0  0  0  0  0  0  0  0  0  0  0
  -22.3560   -4.3200   21.4160 F   0  0  0  0  0  0  0  0  0  0  0  0
  -21.1870   -3.8640   26.0230 F   0  0  0  0  0  0  0  0  0  0  0  0
  -22.7110  -13.6030   21.1370 C   0  0  0  0  0  0  0  0  0  0  0  0
  -21.9900  -12.9050   22.0050 N   0  0  0  0  0  0  0  0  0  0  0  0
  -22.2690  -14.6250   20.6130 O   0  0  0  0  0  0  0  0  0  0  0  0
  -22.3620  -12.0790   22.4500 H   0  0  0  0  0  0  0  0  0  0  0  0
  -21.0520  -13.2030   22.2330 H   0  0  0  0  0  0  0  0  0  0  0  0
  -25.3130  -15.2940   20.3250 N   0  0  0  0  0  0  0  0  0  0  0  0
  -24.5350  -15.9370   20.4280 H   0  0  0  0  0  0  0  0  0  0  0  0
  -26.1490  -15.7380   19.9690 H   0  0  0  0  0  0  0  0  0  0  0  0
  -28.0080  -23.8460   20.1350 C   0  0  0  0  0  2  0  0  0  0  0  0
  -28.1550  -25.5800   20.3870 O   0  0  0  0  0  0  0  0  0  0  0  0
  -24.6610  -31.8690   23.2690 C   0  0  0  0  0  0  0  0  0  0  0  0
  -27.1830  -26.7860   20.3040 C   0  0  0  0  0  0  0  0  0  0  0  0
  -23.4730  -30.4710   21.6330 C   0  0  0  0  0  3  0  0  0  0  0  0
  -24.9190  -28.8160   20.2300 C   0  0  0  0  0  0  0  0  0  0  0  0
  -26.0520  -30.6060   21.5210 C   0  0  0  0  0  2  0  0  0  0  0  0
  -26.1130  -29.1740   20.8670 C   0  0  0  0  0  0  0  0  0  0  0  0
  -27.2290  -28.1860   20.8710 C   0  0  0  0  0  3  0  0  0  0  0  0
  -25.9560  -26.6340   19.6070 C   0  0  0  0  0  3  0  0  0  0  0  0
  -24.8790  -27.5720   19.5750 C   0  0  0  0  0  3  0  0  0  0  0  0
  -23.7140  -29.7690   20.2650 C   0  0  0  0  0  2  0  0  0  0  0  0
  -24.7530  -31.0150   22.1930 N   0  0  0  0  0  0  0  0  0  0  0  0
  -23.5670  -32.1750   23.7760 O   0  0  0  0  0  0  0  0  0  0  0  0
  -22.7520  -29.4990   22.6040 C   0  0  0  0  0  0  0  0  0  0  0  0
  -21.4200  -29.3460   22.4740 N   0  0  0  0  0  0  0  0  0  0  0  0
  -23.4010  -28.8790   23.4500 O   0  0  0  0  0  0  0  0  0  0  0  0
  -20.9460  -29.8940   21.7700 H   0  0  0  0  0  0  0  0  0  0  0  0
  -18.0290  -28.1410   22.9720 C   0  0  0  0  0  0  0  0  0  0  0  0
  -20.5880  -28.4160   23.2470 C   0  0  0  0  0  3  0  0  0  0  0  0
  -20.6940  -26.9790   22.6850 C   0  0  0  0  0  2  0  0  0  0  0  0
  -19.6000  -26.6470   21.6660 C   0  0  0  0  0  2  0  0  0  0  0  0
  -18.2140  -26.7900   22.3010 C   0  0  0  0  0  2  0  0  0  0  0  0
  -19.1430  -28.9110   23.4020 C   0  0  0  0  0  0  0  0  0  0  0  0
  -18.9130  -30.1710   23.9960 C   0  0  0  0  0  3  0  0  0  0  0  0
  -17.6040  -30.6630   24.1610 C   0  0  0  0  0  3  0  0  0  0  0  0
  -16.5060  -29.8910   23.7430 C   0  0  0  0  0  3  0  0  0  0  0  0
  -16.7190  -28.6310   23.1560 C   0  0  0  0  0  3  0  0  0  0  0  0
  -25.9250  -32.5170   23.9120 C   0  0  0  0  0  3  0  0  0  0  0  0
  -25.6110  -33.9240   24.2310 N   0  0  0  0  0  0  0  0  0  0  0  0
  -25.9320  -34.9790   23.4690 C   0  0  0  0  0  0  0  0  0  0  0  0
  -26.5820  -34.8700   22.4260 O   0  0  0  0  0  0  0  0  0  0  0  0
  -25.0290  -34.0810   25.0400 H   0  0  0  0  0  0  0  0  0  0  0  0
  -24.1890  -36.7760   23.1710 C   0  0  0  0  0  1  0  0  0  0  0  0
  -25.4630  -36.3740   23.9330 C   0  0  0  0  0  3  0  0  0  0  0  0
  -27.6230  -37.2820   24.6750 C   0  0  0  0  0  1  0  0  0  0  0  0
  -26.4880  -37.4280   23.7660 N   0  0  0  0  0  0  0  0  0  0  0  0
  -26.0850  -38.3500   23.9100 H   0  0  0  0  0  0  0  0  0  0  0  0
  -26.4060  -31.7700   25.2180 C   0  0  1  0  0  0  0  0  0  0  0  0
  -25.2880  -31.5660   26.2680 C   0  0  0  0  0  1  0  0  0  0  0  0
  -26.9840  -30.3770   24.8820 C   0  0  0  0  0  1  0  0  0  0  0  0
  -27.5510  -32.5680   25.8860 C   0  0  0  0  0  1  0  0  0  0  0  0
  2  6  1  0
  3  6  1  0
  4  2  1  0
  4 17  1  0
  4  1  1  0
  5  3  1  0
  5  8  1  0
  5  1  1  0
  6  7  1  1
  9 17  1  0
 10 15  1  0
 11 12  1  0
 11 10  1  0
 13 12  1  0
 13 22  1  0
 13 14  1  0
 15  9  1  0
 15 14  1  0
 16  9  2  0
 17 18  1  0
 19 20  2  0
 20 39  1  0
 21 20  1  0
 21 24  1  0
 22 19  1  0
 22 23  1  0
 23 21  2  0
 24 25  1  0
 25 26  2  0
 27 30  1  0
 27 26  1  0
 28 27  2  0
 29 28  1  0
 29 24  2  0
 30 31  1  0
 31 32  1  0
 32 33  2  0
 34 33  1  0
 34 38  1  0
 35 34  2  0
 36 31  2  0
 36 35  1  0
 37 36  1  0
 39 40  1  0
 40 43  1  0
 40 42  1  0
 41 39  2  0
 44 45  1  0
 44 19  1  0
 46 44  1  0
 47 48  1  0
 47  6  1  0
 49 60  2  0
 50 48  1  0
 50 55  1  0
 51 59  1  0
 51 61  1  0
 52 58  1  0
 52 54  1  0
 53 59  1  0
 54 55  2  0
 54 53  1  0
 56 50  2  0
 57 56  1  0
 57 52  2  0
 58 51  1  0
 59 49  1  0
 61 63  2  0
 62 61  1  0
 64 62  1  0
 65 74  2  0
 65 70  1  0
 66 62  1  0
 66 70  1  0
 67 66  1  0
 68 69  1  0
 68 67  1  0
 69 65  1  0
 70 71  2  0
 71 72  1  0
 73 72  2  0
 74 73  1  0
 75 49  1  0
 75 76  1  0
 75 85  1  0
 76 79  1  0
 77 81  1  0
 77 76  1  0
 78 77  2  0
 81 80  1  0
 83 84  1  0
 83 81  1  0
 83 82  1  0
 85 88  1  1
 85 86  1  0
 87 85  1  0
M  ISO  4   9 100  17 100  47 101  48 101
M  END
>  <TORSDO>  (26) 
F 17

>  <SCORE>  (26) 
-16.706

>  <name>  (26) 
27

>  <ligand_id>  (26) 
27

>  <original_smiles>  (26) 
[H]c1c([H])c([H])c2c(c1[H])C([H])([H])C([H])([H])C([H])([H])C2([H])N([H])C(=O)C1([H])N(C(=O)C([H])(N([H])C(=O)C([H])(N([H])C([H])([H])[H])C([H])([H])[H])C(C([H])([H])[H])(C([H])([H])[H])C([H])([H])[H])C([H])([H])c2c([H])c(OC([H])([H])C3(C([H])([H])[H])C([H])([H])C([H])(F)C([H])([H])C([H])(N([H])C(=O)N4C([H])([H])C([H])([H])C([H])([H])C([H])(n5nc(-c6c([H])c([H])c(Oc7c([H])c([H])c(F)c([H])c7F)c([H])c6[H])c(C(=O)N([H])[H])c5N([H])[H])C4([H])[H])C3([H])[H])c([H])c([H])c2C1([H])[H]

>  <smiles>  (26) 
[H]c1c([H])c([H])c2c(c1[H])C([H])([H])C([H])([H])C([H])([H])C2([H])N([H])C(=O)C1([H])N(C(=O)C([H])(N([H])C(=O)C([H])(N([H])C([H])([H])[H])C([H])([H])[H])C(C([H])([H])[H])(C([H])([H])[H])C([H])([H])[H])C([H])([H])c2c([H])c(OC([H])([H])C3(C([H])([H])[H])C([H])([H])C([H])(F)C([H])([H])C([H])(N([H])C(=O)N4C([H])([H])C([H])([H])C([H])([H])C([H])(n5nc(-c6c([H])c([H])c(Oc7c([H])c([H])c(F)c([H])c7F)c([H])c6[H])c(C(=O)N([H])[H])c5N([H])[H])C4([H])[H])C3([H])[H])c([H])c([H])c2C1([H])[H]

$$$$
28:0:0
     RDKit          3D

 91 93  0  0  1  0  0  0  0  0999 V2000
  -32.4230  -13.1120   18.4570 C   0  0  0  0  0  2  0  0  0  0  0  0
  -31.0570  -12.1350   18.5480 C   0  0  0  0  0  2  0  0  0  0  0  0
  -30.9830  -12.2700   20.5610 C   0  0  0  0  0  2  0  0  0  0  0  0
  -31.1160  -16.1660   19.1250 C   0  0  0  0  0  1  0  0  0  0  0  0
  -32.3250  -14.5450   19.3280 C   0  0  0  0  0  2  0  0  0  0  0  0
  -32.2280  -13.3500   20.5950 C   0  0  0  0  0  3  0  0  0  0  0  0
  -29.7880  -12.8510   19.5350 C   0  0  0  0  0  2  0  0  0  0  0  0
  -29.3340  -15.9000   19.2480 N   0  0  0  0  0  2  0  0  0  0  0  0
  -28.9900  -15.8810   18.3030 H   0  0  0  0  0  0  0  0  0  0  0  0
  -31.0780  -14.8550   21.6280 C   0  0  0  0  0  3  0  0  0  0  0  0
  -30.1260  -14.2450   18.0630 C   0  0  0  0  0  1  0  0  0  0  0  0
  -28.7390  -13.4880   17.5020 C   0  0  0  0  0  2  0  0  0  0  0  0
  -27.5540  -13.0190   18.5110 C   0  0  0  0  0  2  0  0  0  0  0  0
  -27.4510  -13.5890   20.0710 C   0  0  0  0  0  3  0  0  0  0  0  0
  -28.6370  -14.0240   21.2580 C   0  0  0  0  0  3  0  0  0  0  0  0
  -30.1370  -14.5190   20.7320 N   0  0  0  0  0  0  0  0  0  0  0  0
  -31.7900  -15.8120   21.5230 O   0  0  0  0  0  1  0  0  0  0  0  0
  -31.8910  -13.8800   21.8710 N   0  0  0  0  0  0  0  0  0  0  0  0
  -32.6640  -14.0910   22.4880 H   0  0  0  0  0  0  0  0  0  0  0  0
  -25.1080  -13.6920   20.8350 C   0  0  0  0  0  0  0  0  0  0  0  0
  -24.1340  -12.8040   21.1410 C   0  0  0  0  0  0  0  0  0  0  0  0
  -24.7100  -11.4950   21.0470 C   0  0  0  0  0  0  0  0  0  0  0  0
  -26.2430  -12.9670   20.5970 N   0  0  0  0  0  0  0  0  0  0  0  0
  -26.0190  -11.6120   20.7350 N   0  0  0  0  0  0  0  0  0  0  0  0
  -24.0280  -10.1850   21.1990 C   0  0  0  0  0  0  0  0  0  0  0  0
  -24.4540   -9.2050   22.1280 C   0  0  0  0  0  3  0  0  0  0  0  0
  -23.7360   -7.9950   22.2910 C   0  0  0  0  0  3  0  0  0  0  0  0
  -22.5660   -7.7490   21.5290 C   0  0  0  0  0  0  0  0  0  0  0  0
  -22.1540   -8.7110   20.5930 C   0  0  0  0  0  3  0  0  0  0  0  0
  -22.8750   -9.9110   20.4250 C   0  0  0  0  0  3  0  0  0  0  0  0
  -21.8240   -6.5920   21.6020 O   0  0  0  0  0  0  0  0  0  0  0  0
  -21.7470   -5.8520   22.7580 C   0  0  0  0  0  0  0  0  0  0  0  0
  -21.2780   -6.4090   23.9660 C   0  0  0  0  0  3  0  0  0  0  0  0
  -21.1550   -5.6020   25.1160 C   0  0  0  0  0  3  0  0  0  0  0  0
  -21.4820   -4.2320   25.0540 C   0  0  0  0  0  0  0  0  0  0  0  0
  -21.9340   -3.6720   23.8470 C   0  0  0  0  0  3  0  0  0  0  0  0
  -22.0650   -4.4790   22.7020 C   0  0  0  0  0  0  0  0  0  0  0  0
  -22.4840   -3.9290   21.5380 F   0  0  0  0  0  0  0  0  0  0  0  0
  -21.3580   -3.4520   26.1540 F   0  0  0  0  0  0  0  0  0  0  0  0
  -22.7180  -13.1900   21.4230 C   0  0  0  0  0  0  0  0  0  0  0  0
  -22.0390  -12.4560   22.2930 N   0  0  0  0  0  0  0  0  0  0  0  0
  -22.2340  -14.2060   20.9240 O   0  0  0  0  0  0  0  0  0  0  0  0
  -22.4590  -11.6520   22.7370 H   0  0  0  0  0  0  0  0  0  0  0  0
  -21.0930  -12.7120   22.5400 H   0  0  0  0  0  0  0  0  0  0  0  0
  -25.1010  -15.0770   20.7010 N   0  0  0  0  0  0  0  0  0  0  0  0
  -24.2080  -15.5590   20.6940 H   0  0  0  0  0  0  0  0  0  0  0  0
  -25.8350  -15.6120   20.2620 H   0  0  0  0  0  0  0  0  0  0  0  0
  -28.6430  -17.7850   19.7700 C   0  0  0  0  0 15  0  0  0  0  0  0
  -28.7100  -20.1430   19.6030 C   0  0  0  0  0 15  0  0  0  0  0  0
  -27.8950  -22.3580   19.8040 C   0  0  0  0  0 15  0  0  0  0  0  0
  -27.9790  -24.4610   20.0000 O   0  0  0  0  0  1  0  0  0  0  0  0
  -24.7020  -31.6830   22.9950 C   0  0  0  0  0  0  0  0  0  0  0  0
  -27.1290  -25.9890   20.0480 C   0  0  0  0  0  0  0  0  0  0  0  0
  -23.5360  -30.2460   21.3930 C   0  0  0  0  0  3  0  0  0  0  0  0
  -24.9650  -28.4480   20.0300 C   0  0  0  0  0  0  0  0  0  0  0  0
  -26.1390  -30.1750   21.3500 C   0  0  0  0  0  2  0  0  0  0  0  0
  -26.1800  -28.6700   20.6860 C   0  0  0  0  0  0  0  0  0  0  0  0
  -27.2160  -27.4890   20.6510 C   0  0  0  0  0  3  0  0  0  0  0  0
  -25.8780  -26.1500   19.3520 C   0  0  0  0  0  3  0  0  0  0  0  0
  -24.8920  -27.2180   19.3420 C   0  0  0  0  0  3  0  0  0  0  0  0
  -23.8000  -29.4870   20.0510 C   0  0  0  0  0  2  0  0  0  0  0  0
  -24.8270  -30.7500   21.9640 N   0  0  0  0  0  0  0  0  0  0  0  0
  -23.5970  -32.0220   23.4620 O   0  0  0  0  0  0  0  0  0  0  0  0
  -22.7570  -29.3440   22.3940 C   0  0  0  0  0  0  0  0  0  0  0  0
  -21.4150  -29.2420   22.2850 N   0  0  0  0  0  0  0  0  0  0  0  0
  -23.3860  -28.7220   23.2520 O   0  0  0  0  0  0  0  0  0  0  0  0
  -20.9470  -29.7900   21.5760 H   0  0  0  0  0  0  0  0  0  0  0  0
  -18.0040  -28.0930   22.8690 C   0  0  0  0  0  0  0  0  0  0  0  0
  -20.5730  -28.3330   23.0790 C   0  0  0  0  0  3  0  0  0  0  0  0
  -20.6400  -26.8920   22.5200 C   0  0  0  0  0  2  0  0  0  0  0  0
  -19.5210  -26.5810   21.5210 C   0  0  0  0  0  2  0  0  0  0  0  0
  -18.1500  -26.7430   22.1860 C   0  0  0  0  0  2  0  0  0  0  0  0
  -19.1400  -28.8470   23.2720 C   0  0  0  0  0  0  0  0  0  0  0  0
  -18.9420  -30.1040   23.8820 C   0  0  0  0  0  3  0  0  0  0  0  0
  -17.6450  -30.6120   24.0850 C   0  0  0  0  0  3  0  0  0  0  0  0
  -16.5250  -29.8600   23.6920 C   0  0  0  0  0  3  0  0  0  0  0  0
  -16.7050  -28.6020   23.0900 C   0  0  0  0  0  3  0  0  0  0  0  0
  -25.9350  -32.3840   23.6530 C   0  0  0  0  0  3  0  0  0  0  0  0
  -26.4410  -31.6410   24.9520 C   0  0  1  0  0  0  0  0  0  0  0  0
  -25.3390  -31.4100   26.0130 C   0  0  0  0  0  1  0  0  0  0  0  0
  -27.0480  -30.2660   24.6110 C   0  0  0  0  0  1  0  0  0  0  0  0
  -27.5730  -32.4610   25.6180 C   0  0  0  0  0  1  0  0  0  0  0  0
  -25.5670  -33.7770   24.0120 N   0  0  0  0  0  0  0  0  0  0  0  0
  -25.8870  -34.8800   23.3190 C   0  0  0  0  0  0  0  0  0  0  0  0
  -26.5630  -34.8370   22.2900 O   0  0  0  0  0  0  0  0  0  0  0  0
  -24.9620  -33.8840   24.8130 H   0  0  0  0  0  0  0  0  0  0  0  0
  -24.1310  -36.6790   23.0680 C   0  0  0  0  0  1  0  0  0  0  0  0
  -25.3870  -36.2480   23.8440 C   0  0  0  0  0  3  0  0  0  0  0  0
  -27.5170  -37.1400   24.6910 C   0  0  0  0  0  1  0  0  0  0  0  0
  -26.4000  -37.3260   23.7670 N   0  0  0  0  0  0  0  0  0  0  0  0
  -25.9770  -38.2300   23.9640 H   0  0  0  0  0  0  0  0  0  0  0  0
  1  2  1  0
  1  5  1  0
  2  7  1  0
  3  6  1  0
  4  8  1  0
  5  6  1  0
  6 18  1  0
  7  3  1  0
  9  8  1  0
 10 17  1  0
 10 18  1  0
 12 11  1  0
 12 13  1  0
 14 13  1  0
 14 23  1  0
 14 15  1  0
 16 15  2  0
 16 10  1  0
 18 19  1  0
 20 21  2  0
 21 40  1  0
 22 21  1  0
 22 25  1  0
 23 24  1  0
 23 20  1  0
 24 22  2  0
 25 26  1  0
 26 27  2  0
 28 31  1  0
 28 27  1  0
 29 28  2  0
 30 29  1  0
 30 25  2  0
 31 32  1  0
 32 33  1  0
 33 34  2  0
 35 34  1  0
 35 39  1  0
 36 35  2  0
 37 32  2  0
 37 36  1  0
 38 37  1  0
 40 41  1  0
 41 44  1  0
 41 43  1  0
 42 40  2  0
 45 20  1  0
 46 45  1  0
 47 45  1  0
 51 53  1  0
 52 63  2  0
 53 58  1  0
 54 62  1  0
 54 64  1  0
 55 61  1  0
 55 57  1  0
 56 62  1  0
 57 56  1  0
 58 57  2  0
 59 53  2  0
 60 59  1  0
 60 55  2  0
 61 54  1  0
 62 52  1  0
 64 66  2  0
 65 64  1  0
 67 65  1  0
 68 77  2  0
 68 73  1  0
 69 65  1  0
 69 73  1  0
 70 69  1  0
 71 72  1  0
 71 70  1  0
 72 68  1  0
 73 74  2  0
 74 75  1  0
 76 75  2  0
 77 76  1  0
 78 52  1  0
 78 83  1  0
 78 79  1  0
 79 82  1  1
 79 80  1  0
 81 79  1  0
 83 86  1  0
 84 88  1  0
 84 83  1  0
 85 84  2  0
 88 87  1  0
 90 88  1  0
 90 91  1  0
 90 89  1  0
M  ISO  4  10 100  18 100  50 101  51 101
M  END
>  <TORSDO>  (27) 
F 19

>  <SCORE>  (27) 
-13.969

>  <name>  (27) 
28

>  <ligand_id>  (27) 
28

>  <original_smiles>  (27) 
[H]c1c([H])c([H])c2c(c1[H])C([H])([H])C([H])([H])C([H])([H])C2([H])N([H])C(=O)C1([H])N(C(=O)C([H])(N([H])C(=O)C([H])(N([H])C([H])([H])[H])C([H])([H])[H])C(C([H])([H])[H])(C([H])([H])[H])C([H])([H])[H])C([H])([H])c2c([H])c(OC([H])([H])C([H])([H])C([H])([H])[N+]3([H])C([H])([H])C4([H])C([H])([H])C([H])([H])C3([H])C([H])([H])C4([H])N([H])C(=O)N3C([H])([H])C([H])([H])C([H])([H])C([H])(n4nc(-c5c([H])c([H])c(Oc6c([H])c([H])c(F)c([H])c6F)c([H])c5[H])c(C(=O)N([H])[H])c4N([H])[H])C3([H])[H])c([H])c([H])c2C1([H])[H]

>  <smiles>  (27) 
[H]c1c([H])c([H])c2c(c1[H])C([H])([H])C([H])([H])C([H])([H])C2([H])N([H])C(=O)C1([H])N(C(=O)C([H])(N([H])C(=O)C([H])(N([H])C([H])([H])[H])C([H])([H])[H])C(C([H])([H])[H])(C([H])([H])[H])C([H])([H])[H])C([H])([H])c2c([H])c(OC([H])([H])C([H])([H])C([H])([H])[N+]3([H])C([H])([H])C4([H])C([H])([H])C([H])([H])C3([H])C([H])([H])C4([H])N([H])C(=O)N3C([H])([H])C([H])([H])C([H])([H])C([H])(n4nc(-c5c([H])c([H])c(Oc6c([H])c([H])c(F)c([H])c6F)c([H])c5[H])c(C(=O)N([H])[H])c4N([H])[H])C3([H])[H])c([H])c([H])c2C1([H])[H]

$$$$
29:0:0
     RDKit          3D

 88 96  0  0  1  0  0  0  0  0999 V2000
  -29.0240  -20.5270   21.7310 C   0  0  0  0  0  2  0  0  0  0  0  0
  -30.8840  -19.0870   21.2350 C   0  0  0  0  0  2  0  0  0  0  0  0
  -28.9170  -20.5190   20.2110 C   0  0  0  0  0  3  0  0  0  0  0  0
  -29.9400  -18.9000   20.0230 C   0  0  0  0  0  3  0  0  0  0  0  0
  -30.4480  -20.2690   22.0010 N   0  0  0  0  0  4  0  0  0  0  0  0
  -30.6090  -20.1310   22.9850 H   0  0  0  0  0  0  0  0  0  0  0  0
  -30.9870  -21.0640   21.7040 H   0  0  0  0  0  0  0  0  0  0  0  0
  -30.4900  -15.8040   19.9160 C   0  0  0  0  0  0  0  0  0  0  0  0
  -30.5610  -13.2780   19.0930 C   0  0  0  0  0  2  0  0  0  0  0  0
  -29.6130  -12.8830   17.9270 C   0  0  0  0  0  2  0  0  0  0  0  0
  -28.2140  -12.5250   18.4530 C   0  0  0  0  0  2  0  0  0  0  0  0
  -27.7500  -13.5190   19.5430 C   0  0  0  0  0  3  0  0  0  0  0  0
  -28.8330  -13.8320   20.6000 C   0  0  0  0  0  2  0  0  0  0  0  0
  -29.9680  -14.4460   19.8790 N   0  0  0  0  0  0  0  0  0  0  0  0
  -31.7130  -15.7680   19.6990 O   0  0  0  0  0  0  0  0  0  0  0  0
  -29.7220  -17.1460   20.0010 N   0  0  0  0  0  0  0  0  0  0  0  0
  -28.7400  -16.9310   20.0890 H   0  0  0  0  0  0  0  0  0  0  0  0
  -25.4360  -14.0170   20.4680 C   0  0  0  0  0  0  0  0  0  0  0  0
  -24.4030  -13.2190   20.8710 C   0  0  0  0  0  0  0  0  0  0  0  0
  -24.8760  -11.8740   20.7650 C   0  0  0  0  0  0  0  0  0  0  0  0
  -26.4670  -13.1600   20.1310 N   0  0  0  0  0  0  0  0  0  0  0  0
  -26.1480  -11.8610   20.3770 N   0  0  0  0  0  0  0  0  0  0  0  0
  -24.1650  -10.6020   20.9530 C   0  0  0  0  0  0  0  0  0  0  0  0
  -24.5940   -9.6470   21.9010 C   0  0  0  0  0  3  0  0  0  0  0  0
  -23.8780   -8.4430   22.0780 C   0  0  0  0  0  3  0  0  0  0  0  0
  -22.7200   -8.1850   21.3080 C   0  0  0  0  0  0  0  0  0  0  0  0
  -22.3110   -9.1280   20.3480 C   0  0  0  0  0  3  0  0  0  0  0  0
  -23.0270  -10.3240   20.1700 C   0  0  0  0  0  3  0  0  0  0  0  0
  -21.9780   -7.0320   21.3930 O   0  0  0  0  0  0  0  0  0  0  0  0
  -21.8520   -6.3420   22.5730 C   0  0  0  0  0  0  0  0  0  0  0  0
  -21.2500   -6.9190   23.7120 C   0  0  0  0  0  3  0  0  0  0  0  0
  -21.0780   -6.1520   24.8830 C   0  0  0  0  0  3  0  0  0  0  0  0
  -21.4980   -4.8090   24.9120 C   0  0  0  0  0  0  0  0  0  0  0  0
  -22.0920   -4.2310   23.7760 C   0  0  0  0  0  3  0  0  0  0  0  0
  -22.2660   -4.9950   22.6090 C   0  0  0  0  0  0  0  0  0  0  0  0
  -22.8190   -4.4280   21.5110 F   0  0  0  0  0  0  0  0  0  0  0  0
  -21.3260   -4.0690   26.0320 F   0  0  0  0  0  0  0  0  0  0  0  0
  -23.0210  -13.6780   21.2310 C   0  0  0  0  0  0  0  0  0  0  0  0
  -22.3410  -12.9470   22.1050 N   0  0  0  0  0  0  0  0  0  0  0  0
  -22.5570  -14.7220   20.7730 O   0  0  0  0  0  0  0  0  0  0  0  0
  -22.7320  -12.1020   22.4960 H   0  0  0  0  0  0  0  0  0  0  0  0
  -21.4150  -13.2350   22.3870 H   0  0  0  0  0  0  0  0  0  0  0  0
  -25.5780  -15.3940   20.3250 N   0  0  0  0  0  0  0  0  0  0  0  0
  -24.8080  -16.0320   20.4920 H   0  0  0  0  0  0  0  0  0  0  0  0
  -26.3840  -15.8470   19.9150 H   0  0  0  0  0  0  0  0  0  0  0  0
  -29.0440  -22.4100   19.8560 C   0  0  0  0  0  3  0  0  0  0  0  0
  -28.0550  -24.0430   20.0820 C   0  0  0  0  0  3  0  0  0  0  0  0
  -28.2210  -25.7770   19.9950 O   0  0  0  0  0  0  0  0  0  0  0  0
  -24.6880  -31.9050   23.1400 C   0  0  0  0  0  0  0  0  0  0  0  0
  -27.2130  -26.9440   20.0150 C   0  0  0  0  0  0  0  0  0  0  0  0
  -23.4770  -30.5140   21.5130 C   0  0  0  0  0  3  0  0  0  0  0  0
  -24.9100  -28.9130   20.0440 C   0  0  0  0  0  0  0  0  0  0  0  0
  -26.0480  -30.7090   21.3240 C   0  0  0  0  0  2  0  0  0  0  0  0
  -26.1150  -29.2900   20.6480 C   0  0  0  0  0  0  0  0  0  0  0  0
  -27.2540  -28.3340   20.5990 C   0  0  0  0  0  3  0  0  0  0  0  0
  -25.9670  -26.7640   19.3660 C   0  0  0  0  0  3  0  0  0  0  0  0
  -24.8700  -27.6750   19.3800 C   0  0  0  0  0  3  0  0  0  0  0  0
  -23.6890  -29.8410   20.1280 C   0  0  0  0  0  2  0  0  0  0  0  0
  -24.7620  -31.0740   22.0450 N   0  0  0  0  0  0  0  0  0  0  0  0
  -23.6060  -32.1810   23.6840 O   0  0  0  0  0  0  0  0  0  0  0  0
  -22.8030  -29.5110   22.4870 C   0  0  0  0  0  0  0  0  0  0  0  0
  -21.4840  -29.2770   22.3390 N   0  0  0  0  0  0  0  0  0  0  0  0
  -23.4770  -28.9400   23.3470 O   0  0  0  0  0  0  0  0  0  0  0  0
  -20.9880  -29.7900   21.6250 H   0  0  0  0  0  0  0  0  0  0  0  0
  -18.1720  -27.8480   22.7730 C   0  0  0  0  0  0  0  0  0  0  0  0
  -20.6970  -28.3080   23.1120 C   0  0  0  0  0  3  0  0  0  0  0  0
  -20.9180  -26.8690   22.5900 C   0  0  0  0  0  2  0  0  0  0  0  0
  -19.8800  -26.4370   21.5490 C   0  0  0  0  0  2  0  0  0  0  0  0
  -18.4690  -26.4980   22.1430 C   0  0  0  0  0  2  0  0  0  0  0  0
  -19.2170  -28.7040   23.2140 C   0  0  0  0  0  0  0  0  0  0  0  0
  -18.8840  -29.9590   23.7690 C   0  0  0  0  0  3  0  0  0  0  0  0
  -17.5400  -30.3610   23.8840 C   0  0  0  0  0  3  0  0  0  0  0  0
  -16.5100  -29.5060   23.4570 C   0  0  0  0  0  3  0  0  0  0  0  0
  -16.8260  -28.2500   22.9070 C   0  0  0  0  0  3  0  0  0  0  0  0
  -25.9590  -32.5620   23.7570 C   0  0  0  0  0  3  0  0  0  0  0  0
  -25.6320  -33.9580   24.1060 N   0  0  0  0  0  0  0  0  0  0  0  0
  -25.9580  -35.0330   23.3750 C   0  0  0  0  0  0  0  0  0  0  0  0
  -26.6250  -34.9530   22.3410 O   0  0  0  0  0  0  0  0  0  0  0  0
  -25.0370  -34.0910   24.9090 H   0  0  0  0  0  0  0  0  0  0  0  0
  -24.2430  -36.8520   23.0570 C   0  0  0  0  0  1  0  0  0  0  0  0
  -25.4740  -36.4140   23.8670 C   0  0  0  0  0  3  0  0  0  0  0  0
  -27.5920  -37.2830   24.7580 C   0  0  0  0  0  1  0  0  0  0  0  0
  -26.5120  -37.4660   23.7920 N   0  0  0  0  0  0  0  0  0  0  0  0
  -26.1050  -38.3860   23.9410 H   0  0  0  0  0  0  0  0  0  0  0  0
  -26.4900  -31.8010   25.0360 C   0  0  1  0  0  0  0  0  0  0  0  0
  -25.4010  -31.5440   26.1060 C   0  0  0  0  0  1  0  0  0  0  0  0
  -27.0980  -30.4330   24.6560 C   0  0  0  0  0  1  0  0  0  0  0  0
  -27.6260  -32.6160   25.6960 C   0  0  0  0  0  1  0  0  0  0  0  0
  1  5  1  0
  2  5  1  0
  3 46  1  0
  3  1  1  0
  4 16  1  0
  4  3  1  0
  4  2  1  0
  5  6  1  0
  7  5  1  0
  8 16  1  0
  9 14  1  0
 10 11  1  0
 10  9  1  0
 12 11  1  0
 12 21  1  0
 12 13  1  0
 14  8  1  0
 14 13  1  0
 15  8  2  0
 16 17  1  0
 18 19  2  0
 19 38  1  0
 20 19  1  0
 20 23  1  0
 21 22  1  0
 21 18  1  0
 22 20  2  0
 23 24  1  0
 24 25  2  0
 26 29  1  0
 26 25  1  0
 27 26  2  0
 28 27  1  0
 28 23  2  0
 29 30  1  0
 30 35  2  0
 30 31  1  0
 31 32  2  0
 32 33  1  0
 33 37  1  0
 34 33  2  0
 35 34  1  0
 36 35  1  0
 38 39  1  0
 39 42  1  0
 39 41  1  0
 40 38  2  0
 43 18  1  0
 43 44  1  0
 45 43  1  0
 46 47  2  0
 48 50  1  0
 48 47  1  0
 49 60  2  0
 50 55  1  0
 51 59  1  0
 51 61  1  0
 52 58  1  0
 52 54  1  0
 53 59  1  0
 54 53  1  0
 55 54  2  0
 56 57  1  0
 56 50  2  0
 57 52  2  0
 58 51  1  0
 59 49  1  0
 61 63  2  0
 62 61  1  0
 64 62  1  0
 65 74  2  0
 65 70  1  0
 66 62  1  0
 66 70  1  0
 67 66  1  0
 68 69  1  0
 68 67  1  0
 69 65  1  0
 70 71  2  0
 71 72  1  0
 73 72  2  0
 74 73  1  0
 75 49  1  0
 75 76  1  0
 75 85  1  0
 76 79  1  0
 77 81  1  0
 77 76  1  0
 78 77  2  0
 81 80  1  0
 83 81  1  0
 83 84  1  0
 83 82  1  0
 85 88  1  1
 85 86  1  0
 87 85  1  0
M  ISO  4   8 100  16 100  47 101  48 101
M  END
>  <TORSDO>  (28) 
F 18

>  <SCORE>  (28) 
-15.958

>  <name>  (28) 
29

>  <ligand_id>  (28) 
29

>  <original_smiles>  (28) 
[H]c1c([H])c([H])c2c(c1[H])C([H])([H])C([H])([H])C([H])([H])C2([H])N([H])C(=O)C1([H])N(C(=O)C([H])(N([H])C(=O)C([H])(N([H])C([H])([H])[H])C([H])([H])[H])C(C([H])([H])[H])(C([H])([H])[H])C([H])([H])[H])C([H])([H])c2c([H])c(OC([H])([H])C([H])([H])C3([H])C([H])(N([H])C(=O)N4C([H])([H])C([H])([H])C([H])([H])C([H])(n5nc(-c6c([H])c([H])c(Oc7c([H])c([H])c(F)c([H])c7F)c([H])c6[H])c(C(=O)N([H])[H])c5N([H])[H])C4([H])[H])C([H])([H])[N+]([H])([H])C3([H])[H])c([H])c([H])c2C1([H])[H]

>  <smiles>  (28) 
[H]c1c([H])c([H])c2c(c1[H])C([H])([H])C([H])([H])C([H])([H])C2([H])N([H])C(=O)C1([H])N(C(=O)C([H])(N([H])C(=O)C([H])(N([H])C([H])([H])[H])C([H])([H])[H])C(C([H])([H])[H])(C([H])([H])[H])C([H])([H])[H])C([H])([H])c2c([H])c(OC([H])([H])C([H])([H])C3([H])C([H])(N([H])C(=O)N4C([H])([H])C([H])([H])C([H])([H])C([H])(n5nc(-c6c([H])c([H])c(Oc7c([H])c([H])c(F)c([H])c7F)c([H])c6[H])c(C(=O)N([H])[H])c5N([H])[H])C4([H])[H])C([H])([H])[N+]([H])([H])C3([H])[H])c([H])c([H])c2C1([H])[H]

$$$$
30:0:0
     RDKit          3D

 93103  0  0  1  0  0  0  0  0999 V2000
  -29.9130  -21.6430   20.5050 C   0  0  0  0  0  0  0  0  0  0  0  0
  -29.0560  -22.6560   20.1930 N   0  0  0  0  0  0  0  0  0  0  0  0
  -31.0330  -21.9290   20.9300 O   0  0  0  0  0  0  0  0  0  0  0  0
  -28.1440  -22.4080   19.8330 H   0  0  0  0  0  0  0  0  0  0  0  0
  -30.7930  -14.6830   19.9850 C   0  0  0  0  0  0  0  0  0  0  0  0
  -30.4590  -12.4690   18.9310 C   0  0  0  0  0  2  0  0  0  0  0  0
  -29.4540  -12.6150   17.7700 C   0  0  0  0  0  2  0  0  0  0  0  0
  -28.0120  -12.4540   18.2900 C   0  0  0  0  0  2  0  0  0  0  0  0
  -27.7250  -13.3040   19.5580 C   0  0  0  0  0  3  0  0  0  0  0  0
  -28.8540  -13.1800   20.6050 C   0  0  0  0  0  2  0  0  0  0  0  0
  -30.1150  -13.4970   19.9300 N   0  0  0  0  0  0  0  0  0  0  0  0
  -31.9680  -14.7520   19.6100 O   0  0  0  0  0  0  0  0  0  0  0  0
  -30.3240  -19.4470   19.1290 C   0  0  0  0  0  2  0  0  0  0  0  0
  -31.2380  -18.9110   21.7730 C   0  0  0  0  0  2  0  0  0  0  0  0
  -29.1180  -17.7860   21.5610 C   0  0  0  0  0  2  0  0  0  0  0  0
  -30.1050  -16.8020   18.9660 C   0  0  0  0  0  2  0  0  0  0  0  0
  -29.5300  -20.1110   20.3180 C   0  0  0  0  0  3  0  0  0  0  0  0
  -30.9830  -18.0310   19.3630 C   0  0  0  0  0  3  0  0  0  0  0  0
  -29.7470  -19.2310   21.6110 C   0  0  0  0  0  3  0  0  0  0  0  0
  -31.3840  -17.7310   20.8180 C   0  0  0  0  0  3  0  0  0  0  0  0
  -30.2790  -16.7740   21.2400 C   0  0  0  0  0  3  0  0  0  0  0  0
  -30.0560  -15.8460   20.1040 N   0  0  0  0  0  0  0  0  0  0  0  0
  -25.3900  -13.8560   20.4660 C   0  0  0  0  0  0  0  0  0  0  0  0
  -24.3510  -13.0630   20.8710 C   0  0  0  0  0  0  0  0  0  0  0  0
  -24.8130  -11.7150   20.7540 C   0  0  0  0  0  0  0  0  0  0  0  0
  -26.4180  -12.9920   20.1270 N   0  0  0  0  0  0  0  0  0  0  0  0
  -26.0810  -11.6960   20.3640 N   0  0  0  0  0  0  0  0  0  0  0  0
  -24.1030  -10.4430   20.9400 C   0  0  0  0  0  0  0  0  0  0  0  0
  -24.5360   -9.4840   21.8830 C   0  0  0  0  0  3  0  0  0  0  0  0
  -23.8240   -8.2780   22.0570 C   0  0  0  0  0  3  0  0  0  0  0  0
  -22.6640   -8.0210   21.2870 C   0  0  0  0  0  0  0  0  0  0  0  0
  -22.2500   -8.9680   20.3340 C   0  0  0  0  0  3  0  0  0  0  0  0
  -22.9640  -10.1670   20.1580 C   0  0  0  0  0  3  0  0  0  0  0  0
  -21.9250   -6.8650   21.3700 O   0  0  0  0  0  0  0  0  0  0  0  0
  -21.7810   -6.1850   22.5530 C   0  0  0  0  0  0  0  0  0  0  0  0
  -21.2200   -6.7920   23.6990 C   0  0  0  0  0  3  0  0  0  0  0  0
  -21.0260   -6.0360   24.8720 C   0  0  0  0  0  3  0  0  0  0  0  0
  -21.3840   -4.6740   24.9010 C   0  0  0  0  0  0  0  0  0  0  0  0
  -21.9380   -4.0670   23.7600 C   0  0  0  0  0  3  0  0  0  0  0  0
  -22.1320   -4.8200   22.5880 C   0  0  0  0  0  0  0  0  0  0  0  0
  -22.6460   -4.2240   21.4850 F   0  0  0  0  0  0  0  0  0  0  0  0
  -21.1910   -3.9470   26.0250 F   0  0  0  0  0  0  0  0  0  0  0  0
  -22.9730  -13.5230   21.2510 C   0  0  0  0  0  0  0  0  0  0  0  0
  -22.3090  -12.7960   22.1430 N   0  0  0  0  0  0  0  0  0  0  0  0
  -22.4960  -14.5600   20.7920 O   0  0  0  0  0  0  0  0  0  0  0  0
  -22.7090  -11.9560   22.5340 H   0  0  0  0  0  0  0  0  0  0  0  0
  -21.3880  -13.0850   22.4410 H   0  0  0  0  0  0  0  0  0  0  0  0
  -25.5420  -15.2330   20.3350 N   0  0  0  0  0  0  0  0  0  0  0  0
  -24.7870  -15.8820   20.5300 H   0  0  0  0  0  0  0  0  0  0  0  0
  -26.3810  -15.6870   19.9980 H   0  0  0  0  0  0  0  0  0  0  0  0
  -29.3770  -24.1220   20.3090 C   0  0  0  0  0  3  0  0  0  0  0  0
  -28.2180  -25.1210   19.9370 C   0  0  0  0  0  3  0  0  0  0  0  0
  -28.4300  -26.5600   20.1830 O   0  0  0  0  0  0  0  0  0  0  0  0
  -24.6860  -31.8820   23.2730 C   0  0  0  0  0  0  0  0  0  0  0  0
  -27.3040  -27.3920   20.1440 C   0  0  0  0  0  0  0  0  0  0  0  0
  -23.4860  -30.5110   21.6070 C   0  0  0  0  0  3  0  0  0  0  0  0
  -24.9380  -28.9880   20.1620 C   0  0  0  0  0  0  0  0  0  0  0  0
  -26.0260  -30.8350   21.4380 C   0  0  0  0  0  2  0  0  0  0  0  0
  -26.1050  -29.4710   20.7670 C   0  0  0  0  0  0  0  0  0  0  0  0
  -27.2920  -28.6840   20.7490 C   0  0  0  0  0  3  0  0  0  0  0  0
  -26.1100  -26.9580   19.5210 C   0  0  0  0  0  3  0  0  0  0  0  0
  -24.9400  -27.7360   19.5330 C   0  0  0  0  0  3  0  0  0  0  0  0
  -23.7020  -29.8590   20.2180 C   0  0  0  0  0  2  0  0  0  0  0  0
  -24.7510  -31.0920   22.1630 N   0  0  0  0  0  0  0  0  0  0  0  0
  -23.6000  -32.1530   23.8060 O   0  0  0  0  0  0  0  0  0  0  0  0
  -22.8210  -29.4760   22.5460 C   0  0  0  0  0  0  0  0  0  0  0  0
  -21.4960  -29.2930   22.4030 N   0  0  0  0  0  0  0  0  0  0  0  0
  -23.4940  -28.8420   23.3630 O   0  0  0  0  0  0  0  0  0  0  0  0
  -21.0120  -29.8580   21.7190 H   0  0  0  0  0  0  0  0  0  0  0  0
  -18.1180  -28.0830   22.8510 C   0  0  0  0  0  0  0  0  0  0  0  0
  -20.6730  -28.3430   23.1530 C   0  0  0  0  0  3  0  0  0  0  0  0
  -20.7840  -26.9190   22.5590 C   0  0  0  0  0  2  0  0  0  0  0  0
  -19.6930  -26.6080   21.5280 C   0  0  0  0  0  2  0  0  0  0  0  0
  -18.3050  -26.7440   22.1600 C   0  0  0  0  0  2  0  0  0  0  0  0
  -19.2310  -28.8420   23.3030 C   0  0  0  0  0  0  0  0  0  0  0  0
  -19.0030  -30.0970   23.9060 C   0  0  0  0  0  3  0  0  0  0  0  0
  -17.6970  -30.5960   24.0640 C   0  0  0  0  0  3  0  0  0  0  0  0
  -16.5970  -29.8330   23.6320 C   0  0  0  0  0  3  0  0  0  0  0  0
  -16.8100  -28.5790   23.0310 C   0  0  0  0  0  3  0  0  0  0  0  0
  -25.9670  -32.4990   23.9110 C   0  0  0  0  0  3  0  0  0  0  0  0
  -25.6670  -33.8980   24.2430 N   0  0  0  0  0  0  0  0  0  0  0  0
  -25.9830  -34.9480   23.4740 C   0  0  0  0  0  0  0  0  0  0  0  0
  -26.6320  -34.8410   22.4290 O   0  0  0  0  0  0  0  0  0  0  0  0
  -25.0870  -34.0570   25.0550 H   0  0  0  0  0  0  0  0  0  0  0  0
  -24.2310  -36.7280   23.1730 C   0  0  0  0  0  1  0  0  0  0  0  0
  -25.5060  -36.3380   23.9370 C   0  0  0  0  0  3  0  0  0  0  0  0
  -27.6640  -37.2480   24.6800 C   0  0  0  0  0  1  0  0  0  0  0  0
  -26.5280  -37.3950   23.7730 N   0  0  0  0  0  0  0  0  0  0  0  0
  -26.1220  -38.3160   23.9150 H   0  0  0  0  0  0  0  0  0  0  0  0
  -26.4650  -31.7200   25.1910 C   0  0  1  0  0  0  0  0  0  0  0  0
  -25.3570  -31.4860   26.2440 C   0  0  0  0  0  1  0  0  0  0  0  0
  -27.0470  -30.3410   24.8020 C   0  0  0  0  0  1  0  0  0  0  0  0
  -27.6120  -32.5070   25.8680 C   0  0  0  0  0  1  0  0  0  0  0  0
  1  3  2  0
  2 51  1  0
  2  1  1  0
  4  2  1  0
  5 22  1  0
  6 11  1  0
  7  8  1  0
  7  6  1  0
  9  8  1  0
  9 26  1  0
  9 10  1  0
 11  5  1  0
 11 10  1  0
 12  5  2  0
 13 18  1  0
 13 17  1  0
 16 22  1  0
 17  1  1  0
 17 19  1  0
 18 16  1  0
 18 20  1  0
 19 15  1  0
 19 14  1  0
 20 21  1  0
 20 14  1  0
 21 15  1  0
 22 21  1  0
 23 24  2  0
 24 43  1  0
 25 24  1  0
 25 28  1  0
 26 27  1  0
 26 23  1  0
 27 25  2  0
 28 29  1  0
 29 30  2  0
 31 34  1  0
 31 30  1  0
 32 31  2  0
 33 32  1  0
 33 28  2  0
 34 35  1  0
 35 40  2  0
 35 36  1  0
 36 37  2  0
 37 38  1  0
 38 42  1  0
 39 38  2  0
 40 39  1  0
 41 40  1  0
 43 44  1  0
 44 47  1  0
 44 46  1  0
 45 43  2  0
 48 23  1  0
 48 49  1  0
 50 48  1  0
 52 53  1  0
 52 51  2  0
 54 65  2  0
 55 53  1  0
 55 60  1  0
 56 64  1  0
 56 66  1  0
 57 63  1  0
 57 59  1  0
 58 64  1  0
 59 58  1  0
 60 59  2  0
 61 62  1  0
 61 55  2  0
 62 57  2  0
 63 56  1  0
 64 54  1  0
 66 68  2  0
 67 66  1  0
 69 67  1  0
 70 79  2  0
 70 75  1  0
 71 67  1  0
 71 75  1  0
 72 71  1  0
 73 74  1  0
 73 72  1  0
 74 70  1  0
 75 76  2  0
 76 77  1  0
 78 77  2  0
 79 78  1  0
 80 54  1  0
 80 81  1  0
 80 90  1  0
 81 84  1  0
 82 86  1  0
 82 81  1  0
 83 82  2  0
 86 85  1  0
 88 89  1  0
 88 86  1  0
 88 87  1  0
 90 93  1  1
 90 91  1  0
 92 90  1  0
M  ISO  4   5 100  22 100  52 101  53 101
M  END
>  <TORSDO>  (29) 
F 18

>  <SCORE>  (29) 
-13.698

>  <name>  (29) 
30

>  <ligand_id>  (29) 
30

>  <original_smiles>  (29) 
[H]c1c([H])c([H])c2c(c1[H])C([H])([H])C([H])([H])C([H])([H])C2([H])N([H])C(=O)C1([H])N(C(=O)C([H])(N([H])C(=O)C([H])(N([H])C([H])([H])[H])C([H])([H])[H])C(C([H])([H])[H])(C([H])([H])[H])C([H])([H])[H])C([H])([H])c2c([H])c(OC([H])([H])C([H])([H])N([H])C(=O)C3([H])C([H])([H])C4([H])C([H])([H])N(C(=O)N5C([H])([H])C([H])([H])C([H])([H])C([H])(n6nc(-c7c([H])c([H])c(Oc8c([H])c([H])c(F)c([H])c8F)c([H])c7[H])c(C(=O)N([H])[H])c6N([H])[H])C5([H])[H])C5([H])C([H])([H])C3([H])C([H])([H])C54[H])c([H])c([H])c2C1([H])[H]

>  <smiles>  (29) 
[H]c1c([H])c([H])c2c(c1[H])C([H])([H])C([H])([H])C([H])([H])C2([H])N([H])C(=O)C1([H])N(C(=O)C([H])(N([H])C(=O)C([H])(N([H])C([H])([H])[H])C([H])([H])[H])C(C([H])([H])[H])(C([H])([H])[H])C([H])([H])[H])C([H])([H])c2c([H])c(OC([H])([H])C([H])([H])N([H])C(=O)C3([H])C([H])([H])C4([H])C([H])([H])N(C(=O)N5C([H])([H])C([H])([H])C([H])([H])C([H])(n6nc(-c7c([H])c([H])c(Oc8c([H])c([H])c(F)c([H])c8F)c([H])c7[H])c(C(=O)N([H])[H])c6N([H])[H])C5([H])[H])C5([H])C([H])([H])C3([H])C([H])([H])C54[H])c([H])c([H])c2C1([H])[H]

$$$$
31:0:0
     RDKit          3D

 88 97  0  0  1  0  0  0  0  0999 V2000
  -30.4290  -15.4070   20.3100 C   0  0  0  0  0  0  0  0  0  0  0  0
  -30.4290  -12.9050   19.5370 C   0  0  0  0  0  2  0  0  0  0  0  0
  -29.5610  -12.5770   18.2960 C   0  0  0  0  0  2  0  0  0  0  0  0
  -28.1070  -12.2960   18.7100 C   0  0  0  0  0  2  0  0  0  0  0  0
  -27.6000  -13.3180   19.7570 C   0  0  0  0  0  3  0  0  0  0  0  0
  -28.6090  -13.5760   20.8980 C   0  0  0  0  0  2  0  0  0  0  0  0
  -29.8350  -14.0980   20.2630 N   0  0  0  0  0  0  0  0  0  0  0  0
  -31.6630  -15.3200   20.1840 O   0  0  0  0  0  0  0  0  0  0  0  0
  -27.2650  -19.4870   19.3820 C   0  0  0  0  0  3  0  0  0  0  0  0
  -27.6760  -20.7580   19.1750 C   0  0  0  0  0  3  0  0  0  0  0  0
  -28.9270  -22.6400   20.2320 C   0  0  0  0  0  0  0  0  0  0  0  0
  -28.3220  -17.1490   20.2570 C   0  0  0  0  0  2  0  0  0  0  0  0
  -30.2450  -18.3230   20.0910 C   0  0  0  0  0  2  0  0  0  0  0  0
  -28.0200  -18.7360   20.4630 C   0  0  0  0  0  3  0  0  0  0  0  0
  -29.2520  -19.6640   20.5900 C   0  0  0  0  0  3  0  0  0  0  0  0
  -28.7720  -21.1580   19.9440 N   0  0  0  0  0  0  0  0  0  0  0  0
  -29.7660  -16.7770   20.2840 N   0  0  0  0  0  0  0  0  0  0  0  0
  -29.8430  -22.9190   21.0140 O   0  0  0  0  0  0  0  0  0  0  0  0
  -25.2130  -13.8840   20.4310 C   0  0  0  0  0  0  0  0  0  0  0  0
  -24.1410  -13.1150   20.7830 C   0  0  0  0  0  0  0  0  0  0  0  0
  -24.6090  -11.7660   20.8000 C   0  0  0  0  0  0  0  0  0  0  0  0
  -26.2630  -13.0060   20.2410 N   0  0  0  0  0  0  0  0  0  0  0  0
  -25.9110  -11.7260   20.5330 N   0  0  0  0  0  0  0  0  0  0  0  0
  -23.8750  -10.5080   20.9930 C   0  0  0  0  0  0  0  0  0  0  0  0
  -24.2850   -9.5500   21.9470 C   0  0  0  0  0  3  0  0  0  0  0  0
  -23.5470   -8.3610   22.1290 C   0  0  0  0  0  3  0  0  0  0  0  0
  -22.3850   -8.1200   21.3590 C   0  0  0  0  0  0  0  0  0  0  0  0
  -21.9940   -9.0650   20.3950 C   0  0  0  0  0  3  0  0  0  0  0  0
  -22.7330  -10.2460   20.2090 C   0  0  0  0  0  3  0  0  0  0  0  0
  -21.6200   -6.9830   21.4490 O   0  0  0  0  0  0  0  0  0  0  0  0
  -21.5590   -6.2470   22.6060 C   0  0  0  0  0  0  0  0  0  0  0  0
  -21.1520   -6.8190   23.8330 C   0  0  0  0  0  3  0  0  0  0  0  0
  -21.0370   -6.0110   24.9820 C   0  0  0  0  0  3  0  0  0  0  0  0
  -21.3170   -4.6340   24.9060 C   0  0  0  0  0  0  0  0  0  0  0  0
  -21.7170   -4.0630   23.6850 C   0  0  0  0  0  3  0  0  0  0  0  0
  -21.8340   -4.8660   22.5390 C   0  0  0  0  0  0  0  0  0  0  0  0
  -22.1990   -4.3070   21.3590 F   0  0  0  0  0  0  0  0  0  0  0  0
  -21.1990   -3.8560   26.0080 F   0  0  0  0  0  0  0  0  0  0  0  0
  -22.7350  -13.5980   20.9890 C   0  0  0  0  0  0  0  0  0  0  0  0
  -21.9790  -12.9310   21.8530 N   0  0  0  0  0  0  0  0  0  0  0  0
  -22.3170  -14.6040   20.4170 O   0  0  0  0  0  0  0  0  0  0  0  0
  -22.3320  -12.1190   22.3370 H   0  0  0  0  0  0  0  0  0  0  0  0
  -21.0350  -13.2390   22.0350 H   0  0  0  0  0  0  0  0  0  0  0  0
  -25.3750  -15.2500   20.2240 N   0  0  0  0  0  0  0  0  0  0  0  0
  -24.5990  -15.9000   20.2960 H   0  0  0  0  0  0  0  0  0  0  0  0
  -26.2270  -15.6840   19.8980 H   0  0  0  0  0  0  0  0  0  0  0  0
  -28.0200  -24.0940   19.7050 C   0  0  0  0  0  2  0  0  0  0  0  0
  -28.2480  -25.7380   20.0100 O   0  0  0  0  0  0  0  0  0  0  0  0
  -24.6560  -31.7440   23.0270 C   0  0  0  0  0  0  0  0  0  0  0  0
  -27.2460  -26.8690   19.9490 C   0  0  0  0  0  0  0  0  0  0  0  0
  -23.4710  -30.3490   21.3820 C   0  0  0  0  0  3  0  0  0  0  0  0
  -24.9300  -28.7680   19.9330 C   0  0  0  0  0  0  0  0  0  0  0  0
  -26.0380  -30.5750   21.2300 C   0  0  0  0  0  2  0  0  0  0  0  0
  -26.1190  -29.1650   20.5570 C   0  0  0  0  0  0  0  0  0  0  0  0
  -27.2680  -28.2400   20.5390 C   0  0  0  0  0  3  0  0  0  0  0  0
  -26.0240  -26.6440   19.2730 C   0  0  0  0  0  3  0  0  0  0  0  0
  -24.9120  -27.5290   19.2700 C   0  0  0  0  0  3  0  0  0  0  0  0
  -23.7030  -29.6800   19.9980 C   0  0  0  0  0  2  0  0  0  0  0  0
  -24.7440  -30.9190   21.9320 N   0  0  0  0  0  0  0  0  0  0  0  0
  -23.5650  -32.0160   23.5560 O   0  0  0  0  0  0  0  0  0  0  0  0
  -22.7880  -29.3410   22.3430 C   0  0  0  0  0  0  0  0  0  0  0  0
  -21.4550  -29.1830   22.2440 N   0  0  0  0  0  0  0  0  0  0  0  0
  -23.4670  -28.7000   23.1490 O   0  0  0  0  0  0  0  0  0  0  0  0
  -20.9580  -29.7500   21.5710 H   0  0  0  0  0  0  0  0  0  0  0  0
  -18.0770  -27.9770   22.8110 C   0  0  0  0  0  0  0  0  0  0  0  0
  -20.6460  -28.2300   23.0130 C   0  0  0  0  0  3  0  0  0  0  0  0
  -20.7260  -26.8120   22.4030 C   0  0  0  0  0  2  0  0  0  0  0  0
  -19.5970  -26.5170   21.4100 C   0  0  0  0  0  2  0  0  0  0  0  0
  -18.2330  -26.6460   22.0930 C   0  0  0  0  0  2  0  0  0  0  0  0
  -19.2090  -28.7280   23.2280 C   0  0  0  0  0  0  0  0  0  0  0  0
  -19.0060  -29.9710   23.8650 C   0  0  0  0  0  3  0  0  0  0  0  0
  -17.7070  -30.4660   24.0850 C   0  0  0  0  0  3  0  0  0  0  0  0
  -16.5900  -29.7130   23.6800 C   0  0  0  0  0  3  0  0  0  0  0  0
  -16.7770  -28.4690   23.0500 C   0  0  0  0  0  3  0  0  0  0  0  0
  -25.9190  -32.3980   23.6620 C   0  0  0  0  0  3  0  0  0  0  0  0
  -25.5710  -33.7760   24.0540 N   0  0  0  0  0  0  0  0  0  0  0  0
  -25.8630  -34.8750   23.3450 C   0  0  0  0  0  0  0  0  0  0  0  0
  -26.5140  -34.8370   22.2980 O   0  0  0  0  0  0  0  0  0  0  0  0
  -24.9890  -33.8760   24.8720 H   0  0  0  0  0  0  0  0  0  0  0  0
  -24.0800  -36.6420   23.1240 C   0  0  0  0  0  1  0  0  0  0  0  0
  -25.3550  -36.2310   23.8790 C   0  0  0  0  0  3  0  0  0  0  0  0
  -27.4910  -37.1380   24.6860 C   0  0  0  0  0  1  0  0  0  0  0  0
  -26.3570  -37.3170   23.7830 N   0  0  0  0  0  0  0  0  0  0  0  0
  -25.9310  -38.2170   23.9840 H   0  0  0  0  0  0  0  0  0  0  0  0
  -26.4660  -31.6040   24.9130 C   0  0  1  0  0  0  0  0  0  0  0  0
  -25.3910  -31.3190   25.9890 C   0  0  0  0  0  1  0  0  0  0  0  0
  -27.0690  -30.2470   24.4870 C   0  0  0  0  0  1  0  0  0  0  0  0
  -27.6100  -32.4020   25.5820 C   0  0  0  0  0  1  0  0  0  0  0  0
  2  7  1  0
  3  4  1  0
  3  2  1  0
  5  4  1  0
  5 22  1  0
  5  6  1  0
  7  1  1  0
  7  6  1  0
  8  1  2  0
 10  9  2  0
 10 16  1  0
 11 18  2  0
 12 17  1  0
 12 14  1  0
 13 17  1  0
 14  9  1  0
 14 15  1  0
 15 13  1  0
 16 11  1  0
 16 15  1  0
 17  1  1  0
 19 20  2  0
 20 21  1  0
 20 39  1  0
 21 24  1  0
 22 19  1  0
 22 23  1  0
 23 21  2  0
 24 25  1  0
 25 26  2  0
 27 30  1  0
 27 26  1  0
 28 27  2  0
 29 28  1  0
 29 24  2  0
 30 31  1  0
 31 32  1  0
 32 33  2  0
 34 33  1  0
 34 38  1  0
 35 34  2  0
 36 31  2  0
 36 35  1  0
 37 36  1  0
 39 40  1  0
 40 43  1  0
 40 42  1  0
 41 39  2  0
 44 45  1  0
 44 19  1  0
 46 44  1  0
 47 48  1  0
 47 11  1  0
 49 60  2  0
 50 48  1  0
 50 55  1  0
 51 59  1  0
 51 61  1  0
 52 58  1  0
 52 54  1  0
 53 59  1  0
 54 53  1  0
 55 54  2  0
 56 50  2  0
 57 56  1  0
 57 52  2  0
 58 51  1  0
 59 49  1  0
 61 63  2  0
 62 61  1  0
 64 62  1  0
 65 74  2  0
 65 70  1  0
 66 62  1  0
 66 70  1  0
 67 66  1  0
 68 69  1  0
 68 67  1  0
 69 65  1  0
 70 71  2  0
 71 72  1  0
 73 72  2  0
 74 73  1  0
 75 49  1  0
 75 76  1  0
 75 85  1  0
 76 79  1  0
 77 81  1  0
 77 76  1  0
 78 77  2  0
 81 80  1  0
 83 81  1  0
 83 84  1  0
 83 82  1  0
 85 88  1  1
 85 86  1  0
 87 85  1  0
M  ISO  4   1 100  17 100  47 101  48 101
M  END
>  <TORSDO>  (30) 
F 16

>  <SCORE>  (30) 
-16.358

>  <name>  (30) 
31

>  <ligand_id>  (30) 
31

>  <original_smiles>  (30) 
[H]C1=C([H])C2([H])C([H])([H])N(C(=O)N3C([H])([H])C([H])([H])C([H])([H])C([H])(n4nc(-c5c([H])c([H])c(Oc6c([H])c([H])c(F)c([H])c6F)c([H])c5[H])c(C(=O)N([H])[H])c4N([H])[H])C3([H])[H])C([H])([H])C2([H])N1C(=O)C([H])([H])Oc1c([H])c([H])c2c(c1[H])C([H])([H])N(C(=O)C([H])(N([H])C(=O)C([H])(N([H])C([H])([H])[H])C([H])([H])[H])C(C([H])([H])[H])(C([H])([H])[H])C([H])([H])[H])C([H])(C(=O)N([H])C1([H])c3c([H])c([H])c([H])c([H])c3C([H])([H])C([H])([H])C1([H])[H])C2([H])[H]

>  <smiles>  (30) 
[H]C1=C([H])C2([H])C([H])([H])N(C(=O)N3C([H])([H])C([H])([H])C([H])([H])C([H])(n4nc(-c5c([H])c([H])c(Oc6c([H])c([H])c(F)c([H])c6F)c([H])c5[H])c(C(=O)N([H])[H])c4N([H])[H])C3([H])[H])C([H])([H])C2([H])N1C(=O)C([H])([H])Oc1c([H])c([H])c2c(c1[H])C([H])([H])N(C(=O)C([H])(N([H])C(=O)C([H])(N([H])C([H])([H])[H])C([H])([H])[H])C(C([H])([H])[H])(C([H])([H])[H])C([H])([H])[H])C([H])(C(=O)N([H])C1([H])c3c([H])c([H])c([H])c([H])c3C([H])([H])C([H])([H])C1([H])[H])C2([H])[H]

$$$$
32:0:0
     RDKit          3D

 93101  0  0  1  0  0  0  0  0999 V2000
  -30.3860  -19.1380   18.8880 C   0  0  0  0  0  2  0  0  0  0  0  0
  -29.9700  -19.5560   21.2680 C   0  0  0  0  0  2  0  0  0  0  0  0
  -29.6010  -20.4600   18.5650 C   0  0  0  0  0  2  0  0  0  0  0  0
  -29.1470  -20.8400   20.9100 C   0  0  0  0  0  2  0  0  0  0  0  0
  -29.9570  -18.4130   20.1920 C   0  0  0  0  0  3  0  0  0  0  0  0
  -29.6170  -21.4900   19.6570 N   0  0  2  0  0  4  0  0  0  0  0  0
  -30.5830  -21.7450   19.8010 H   0  0  0  0  0  0  0  0  0  0  0  0
  -28.9010  -22.7750   19.2580 C   0  0  0  0  0  2  0  0  0  0  0  0
  -29.0050  -24.0660   20.1780 C   0  0  0  0  0  2  0  0  0  0  0  0
  -28.7290  -25.4370   19.4270 C   0  0  0  0  0  2  0  0  0  0  0  0
  -28.5270  -26.6680   20.2100 O   0  0  0  0  0  0  0  0  0  0  0  0
  -24.5820  -31.8620   23.2420 C   0  0  0  0  0  0  0  0  0  0  0  0
  -27.3470  -27.4230   20.1570 C   0  0  0  0  0  0  0  0  0  0  0  0
  -23.4330  -30.4600   21.5640 C   0  0  0  0  0  3  0  0  0  0  0  0
  -24.9350  -28.9590   20.1490 C   0  0  0  0  0  0  0  0  0  0  0  0
  -25.9650  -30.8410   21.4220 C   0  0  0  0  0  2  0  0  0  0  0  0
  -26.0840  -29.4740   20.7620 C   0  0  0  0  0  0  0  0  0  0  0  0
  -27.2880  -28.7160   20.7590 C   0  0  0  0  0  3  0  0  0  0  0  0
  -26.1630  -26.9430   19.5480 C   0  0  0  0  0  3  0  0  0  0  0  0
  -24.9750  -27.6960   19.5400 C   0  0  0  0  0  3  0  0  0  0  0  0
  -23.6790  -29.8020   20.1830 C   0  0  0  0  0  2  0  0  0  0  0  0
  -24.6780  -31.0710   22.1340 N   0  0  0  0  0  0  0  0  0  0  0  0
  -23.4850  -32.1090   23.7620 O   0  0  0  0  0  0  0  0  0  0  0  0
  -22.7780  -29.4160   22.5020 C   0  0  0  0  0  0  0  0  0  0  0  0
  -21.4660  -29.1850   22.3220 N   0  0  0  0  0  0  0  0  0  0  0  0
  -23.4500  -28.8170   23.3450 O   0  0  0  0  0  0  0  0  0  0  0  0
  -20.9860  -29.7200   21.6130 H   0  0  0  0  0  0  0  0  0  0  0  0
  -18.1250  -27.8530   22.6860 C   0  0  0  0  0  0  0  0  0  0  0  0
  -20.6550  -28.2190   23.0640 C   0  0  0  0  0  3  0  0  0  0  0  0
  -20.8410  -26.7900   22.5020 C   0  0  0  0  0  2  0  0  0  0  0  0
  -19.8000  -26.4150   21.4440 C   0  0  0  0  0  2  0  0  0  0  0  0
  -18.3860  -26.5090   22.0250 C   0  0  0  0  0  2  0  0  0  0  0  0
  -19.1920  -28.6630   23.1590 C   0  0  0  0  0  0  0  0  0  0  0  0
  -18.8950  -29.9170   23.7340 C   0  0  0  0  0  3  0  0  0  0  0  0
  -17.5650  -30.3640   23.8420 C   0  0  0  0  0  3  0  0  0  0  0  0
  -16.5120  -29.5530   23.3880 C   0  0  0  0  0  3  0  0  0  0  0  0
  -16.7940  -28.2980   22.8150 C   0  0  0  0  0  3  0  0  0  0  0  0
  -25.8410  -32.5110   23.8950 C   0  0  0  0  0  3  0  0  0  0  0  0
  -25.5120  -33.9110   24.1980 N   0  0  0  0  0  0  0  0  0  0  0  0
  -25.8350  -34.9540   23.4220 C   0  0  0  0  0  0  0  0  0  0  0  0
  -26.5130  -34.8390   22.3970 O   0  0  0  0  0  0  0  0  0  0  0  0
  -24.9100  -34.0730   24.9930 H   0  0  0  0  0  0  0  0  0  0  0  0
  -24.0720  -36.7070   23.0440 C   0  0  0  0  0  1  0  0  0  0  0  0
  -25.3270  -36.3440   23.8520 C   0  0  0  0  0  3  0  0  0  0  0  0
  -27.4510  -37.2910   24.6430 C   0  0  0  0  0  1  0  0  0  0  0  0
  -26.3400  -37.4120   23.7030 N   0  0  0  0  0  0  0  0  0  0  0  0
  -25.9180  -38.3290   23.8250 H   0  0  0  0  0  0  0  0  0  0  0  0
  -26.3220  -31.7610   25.1980 C   0  0  1  0  0  0  0  0  0  0  0  0
  -25.1960  -31.5190   26.2320 C   0  0  0  0  0  1  0  0  0  0  0  0
  -26.9370  -30.3880   24.8420 C   0  0  0  0  0  1  0  0  0  0  0  0
  -27.4400  -32.5780   25.8900 C   0  0  0  0  0  1  0  0  0  0  0  0
  -30.8500  -17.1100   20.5170 C   0  0  0  0  0  3  0  0  0  0  0  0
  -31.0390  -14.7230   19.5060 C   0  0  0  0  0  0  0  0  0  0  0  0
  -30.6090  -12.5060   18.4550 C   0  0  0  0  0  2  0  0  0  0  0  0
  -29.5340  -12.6660   17.3580 C   0  0  0  0  0  2  0  0  0  0  0  0
  -28.1150  -12.5730   17.9580 C   0  0  0  0  0  2  0  0  0  0  0  0
  -27.9390  -13.4580   19.2200 C   0  0  0  0  0  3  0  0  0  0  0  0
  -29.1100  -13.2510   20.2030 C   0  0  0  0  0  2  0  0  0  0  0  0
  -30.3510  -13.5410   19.4710 N   0  0  0  0  0  0  0  0  0  0  0  0
  -32.1650  -14.8330   19.0160 O   0  0  0  0  0  0  0  0  0  0  0  0
  -30.3480  -15.8010   19.9870 N   0  0  0  0  0  0  0  0  0  0  0  0
  -29.3940  -15.5890   20.2340 H   0  0  0  0  0  0  0  0  0  0  0  0
  -25.7220  -14.1760   20.3030 C   0  0  0  0  0  0  0  0  0  0  0  0
  -24.6510  -13.4560   20.7560 C   0  0  0  0  0  0  0  0  0  0  0  0
  -24.9870  -12.0810   20.5640 C   0  0  0  0  0  0  0  0  0  0  0  0
  -26.6470  -13.2420   19.8630 N   0  0  0  0  0  0  0  0  0  0  0  0
  -26.2180  -11.9720   20.0790 N   0  0  0  0  0  0  0  0  0  0  0  0
  -24.1890  -10.8650   20.7570 C   0  0  0  0  0  0  0  0  0  0  0  0
  -24.6360   -9.8100   21.5830 C   0  0  0  0  0  3  0  0  0  0  0  0
  -23.8410   -8.6590   21.7680 C   0  0  0  0  0  3  0  0  0  0  0  0
  -22.5840   -8.5540   21.1270 C   0  0  0  0  0  0  0  0  0  0  0  0
  -22.1530   -9.5980   20.2870 C   0  0  0  0  0  3  0  0  0  0  0  0
  -22.9480  -10.7400   20.1000 C   0  0  0  0  0  3  0  0  0  0  0  0
  -21.7540   -7.4630   21.2260 O   0  0  0  0  0  0  0  0  0  0  0  0
  -21.7150   -6.6890   22.3590 C   0  0  0  0  0  0  0  0  0  0  0  0
  -21.3790   -7.2310   23.6200 C   0  0  0  0  0  3  0  0  0  0  0  0
  -21.2820   -6.3890   24.7450 C   0  0  0  0  0  3  0  0  0  0  0  0
  -21.5130   -5.0060   24.6110 C   0  0  0  0  0  0  0  0  0  0  0  0
  -21.8430   -4.4650   23.3570 C   0  0  0  0  0  3  0  0  0  0  0  0
  -21.9420   -5.3040   22.2340 C   0  0  0  0  0  0  0  0  0  0  0  0
  -22.2400   -4.7750   21.0220 F   0  0  0  0  0  0  0  0  0  0  0  0
  -21.4120   -4.1950   25.6900 F   0  0  0  0  0  0  0  0  0  0  0  0
  -23.3460  -14.0110   21.2490 C   0  0  0  0  0  0  0  0  0  0  0  0
  -22.6880  -13.3050   22.1630 N   0  0  0  0  0  0  0  0  0  0  0  0
  -22.9250  -15.0990   20.8590 O   0  0  0  0  0  0  0  0  0  0  0  0
  -23.0430  -12.4210   22.4940 H   0  0  0  0  0  0  0  0  0  0  0  0
  -21.8170  -13.6530   22.5370 H   0  0  0  0  0  0  0  0  0  0  0  0
  -25.9790  -15.5410   20.2040 N   0  0  0  0  0  0  0  0  0  0  0  0
  -25.2870  -16.2380   20.4570 H   0  0  0  0  0  0  0  0  0  0  0  0
  -26.7990  -15.9430   19.7690 H   0  0  0  0  0  0  0  0  0  0  0  0
  -29.8370  -16.5380   22.8330 C   0  0  0  0  0  1  0  0  0  0  0  0
  -32.2210  -15.8690   22.3200 C   0  0  0  0  0  1  0  0  0  0  0  0
  -31.1120  -16.9020   22.0410 C   0  0  0  0  0  3  0  0  0  0  0  0
  1  5  1  0
  3  1  1  0
  3  6  1  0
  4  2  1  0
  5 52  1  0
  5  2  1  0
  6  7  1  1
  6  4  1  0
  8  6  1  0
  8  9  1  0
 10  9  1  0
 10 11  1  0
 12 23  2  0
 13 11  1  0
 13 18  1  0
 14 22  1  0
 14 24  1  0
 15 21  1  0
 15 17  1  0
 16 22  1  0
 17 16  1  0
 18 17  2  0
 19 13  2  0
 20 19  1  0
 20 15  2  0
 21 14  1  0
 22 12  1  0
 24 26  2  0
 25 24  1  0
 27 25  1  0
 28 37  2  0
 28 33  1  0
 29 25  1  0
 29 33  1  0
 30 29  1  0
 31 32  1  0
 31 30  1  0
 32 28  1  0
 33 34  2  0
 34 35  1  0
 36 35  2  0
 37 36  1  0
 38 12  1  0
 38 39  1  0
 38 48  1  0
 39 42  1  0
 40 44  1  0
 40 39  1  0
 41 40  2  0
 44 43  1  0
 46 47  1  0
 46 44  1  0
 46 45  1  0
 48 51  1  1
 48 49  1  0
 50 48  1  0
 52 93  1  0
 53 61  1  0
 54 59  1  0
 55 56  1  0
 55 54  1  0
 57 56  1  0
 57 66  1  0
 57 58  1  0
 59 53  1  0
 59 58  1  0
 60 53  2  0
 61 62  1  0
 61 52  1  0
 63 64  2  0
 64 83  1  0
 65 64  1  0
 65 68  1  0
 66 67  1  0
 66 63  1  0
 67 65  2  0
 68 69  1  0
 69 70  2  0
 71 74  1  0
 71 70  1  0
 72 71  2  0
 73 72  1  0
 73 68  2  0
 74 75  1  0
 75 76  1  0
 76 77  2  0
 78 77  1  0
 78 82  1  0
 79 78  2  0
 80 75  2  0
 80 79  1  0
 81 80  1  0
 83 84  1  0
 84 86  1  0
 84 87  1  0
 85 83  2  0
 88 63  1  0
 88 89  1  0
 90 88  1  0
 93 92  1  0
 93 91  1  0
M  ISO  4  10 101  11 101  53 100  61 100
M  END
>  <TORSDO>  (31) 
F 21

>  <SCORE>  (31) 
-8.795

>  <name>  (31) 
32

>  <ligand_id>  (31) 
32

>  <original_smiles>  (31) 
[H]c1c([H])c([H])c2c(c1[H])C([H])([H])C([H])([H])C([H])([H])C2([H])N([H])C(=O)C1([H])N(C(=O)C([H])(N([H])C(=O)C([H])(N([H])C([H])([H])[H])C([H])([H])[H])C(C([H])([H])[H])(C([H])([H])[H])C([H])([H])[H])C([H])([H])c2c([H])c(OC([H])([H])C([H])([H])C([H])([H])[N+]3([H])C([H])([H])C([H])([H])C([H])(C([H])(N([H])C(=O)N4C([H])([H])C([H])([H])C([H])([H])C([H])(n5nc(-c6c([H])c([H])c(Oc7c([H])c([H])c(F)c([H])c7F)c([H])c6[H])c(C(=O)N([H])[H])c5N([H])[H])C4([H])[H])C([H])(C([H])([H])[H])C([H])([H])[H])C([H])([H])C3([H])[H])c([H])c([H])c2C1([H])[H]

>  <smiles>  (31) 
[H]c1c([H])c([H])c2c(c1[H])C([H])([H])C([H])([H])C([H])([H])C2([H])N([H])C(=O)C1([H])N(C(=O)C([H])(N([H])C(=O)C([H])(N([H])C([H])([H])[H])C([H])([H])[H])C(C([H])([H])[H])(C([H])([H])[H])C([H])([H])[H])C([H])([H])c2c([H])c(OC([H])([H])C([H])([H])C([H])([H])[N+]3([H])C([H])([H])C([H])([H])C([H])(C([H])(N([H])C(=O)N4C([H])([H])C([H])([H])C([H])([H])C([H])(n5nc(-c6c([H])c([H])c(Oc7c([H])c([H])c(F)c([H])c7F)c([H])c6[H])c(C(=O)N([H])[H])c5N([H])[H])C4([H])[H])C([H])(C([H])([H])[H])C([H])([H])[H])C([H])([H])C3([H])[H])c([H])c([H])c2C1([H])[H]

$$$$
33:0:0
     RDKit          3D

 96104  0  0  1  0  0  0  0  0999 V2000
  -28.4150  -18.7440   18.9930 C   0  0  0  0  0  2  0  0  0  0  0  0
  -28.2970  -19.3870   20.3550 C   0  0  0  0  0  3  0  0  0  0  0  0
  -28.5360  -17.7780   20.1530 C   0  0  2  0  0  0  0  0  0  0  0  0
  -30.5640  -14.4470   20.3100 C   0  0  0  0  0  0  0  0  0  0  0  0
  -30.5120  -12.0100   19.7480 C   0  0  0  0  0  2  0  0  0  0  0  0
  -29.5950  -11.8030   18.5230 C   0  0  0  0  0  2  0  0  0  0  0  0
  -28.1280  -11.6230   18.9660 C   0  0  0  0  0  2  0  0  0  0  0  0
  -27.6790  -12.7050   19.9840 C   0  0  0  0  0  3  0  0  0  0  0  0
  -28.7190  -12.8840   21.1130 C   0  0  0  0  0  2  0  0  0  0  0  0
  -30.0110  -13.1940   20.4830 N   0  0  0  0  0  0  0  0  0  0  0  0
  -31.7460  -14.5460   19.9680 O   0  0  0  0  0  0  0  0  0  0  0  0
  -29.8360  -16.8890   20.0580 C   0  0  0  0  0  0  0  0  0  0  0  0
  -29.6960  -15.5270   20.3410 N   0  0  0  0  0  0  0  0  0  0  0  0
  -30.9160  -17.3960   19.7470 O   0  0  0  0  0  0  0  0  0  0  0  0
  -28.7550  -15.2720   20.5820 H   0  0  0  0  0  0  0  0  0  0  0  0
  -25.3070  -13.3400   20.7530 C   0  0  0  0  0  0  0  0  0  0  0  0
  -24.2420  -12.5850   21.1580 C   0  0  0  0  0  0  0  0  0  0  0  0
  -24.6830  -11.2280   21.1200 C   0  0  0  0  0  0  0  0  0  0  0  0
  -26.3380  -12.4460   20.5040 N   0  0  0  0  0  0  0  0  0  0  0  0
  -25.9660  -11.1700   20.7820 N   0  0  0  0  0  0  0  0  0  0  0  0
  -23.9380   -9.9790   21.3220 C   0  0  0  0  0  0  0  0  0  0  0  0
  -24.3780   -8.9940   22.2360 C   0  0  0  0  0  3  0  0  0  0  0  0
  -23.6310   -7.8130   22.4270 C   0  0  0  0  0  3  0  0  0  0  0  0
  -22.4310   -7.6070   21.7070 C   0  0  0  0  0  0  0  0  0  0  0  0
  -22.0110   -8.5790   20.7820 C   0  0  0  0  0  3  0  0  0  0  0  0
  -22.7570   -9.7510   20.5870 C   0  0  0  0  0  3  0  0  0  0  0  0
  -21.6530   -6.4790   21.8150 O   0  0  0  0  0  0  0  0  0  0  0  0
  -21.6200   -5.7330   22.9670 C   0  0  0  0  0  0  0  0  0  0  0  0
  -21.2060   -6.2850   24.2000 C   0  0  0  0  0  3  0  0  0  0  0  0
  -21.1150   -5.4680   25.3440 C   0  0  0  0  0  3  0  0  0  0  0  0
  -21.4320   -4.0990   25.2590 C   0  0  0  0  0  0  0  0  0  0  0  0
  -21.8440   -3.5460   24.0330 C   0  0  0  0  0  3  0  0  0  0  0  0
  -21.9330   -4.3610   22.8900 C   0  0  0  0  0  0  0  0  0  0  0  0
  -22.3080   -3.8180   21.7060 F   0  0  0  0  0  0  0  0  0  0  0  0
  -21.3410   -3.3110   26.3560 F   0  0  0  0  0  0  0  0  0  0  0  0
  -22.8600  -13.0900   21.4570 C   0  0  0  0  0  0  0  0  0  0  0  0
  -22.1440  -12.4300   22.3620 N   0  0  0  0  0  0  0  0  0  0  0  0
  -22.4280  -14.1120   20.9230 O   0  0  0  0  0  0  0  0  0  0  0  0
  -22.5030  -11.6050   22.8180 H   0  0  0  0  0  0  0  0  0  0  0  0
  -21.2170  -12.7530   22.5950 H   0  0  0  0  0  0  0  0  0  0  0  0
  -25.4620  -14.7100   20.5520 N   0  0  0  0  0  0  0  0  0  0  0  0
  -24.5540  -15.0970   20.3090 H   0  0  0  0  0  0  0  0  0  0  0  0
  -26.1150  -14.9040   19.8000 H   0  0  0  0  0  0  0  0  0  0  0  0
  -29.1700  -20.6680   20.5350 C   0  0  0  0  0  0  0  0  0  0  0  0
  -28.4930  -21.8810   20.5680 N   0  0  0  0  0  0  0  0  0  0  0  0
  -30.3960  -20.6170   20.6330 O   0  0  0  0  0  0  0  0  0  0  0  0
  -27.4900  -21.7930   20.4590 H   0  0  0  0  0  0  0  0  0  0  0  0
  -28.9690  -23.3280   20.7510 C   0  0  0  0  0  3  0  0  0  0  0  0
  -27.8820  -24.5240   20.5720 C   0  0  0  0  0  3  0  0  0  0  0  0
  -28.2160  -26.0010   20.5590 O   0  0  0  0  0  0  0  0  0  0  0  0
  -24.6680  -31.7280   23.3180 C   0  0  0  0  0  0  0  0  0  0  0  0
  -27.1550  -26.9390   20.4580 C   0  0  0  0  0  0  0  0  0  0  0  0
  -23.4460  -30.3260   21.6980 C   0  0  0  0  0  3  0  0  0  0  0  0
  -24.8650  -28.6820   20.3450 C   0  0  0  0  0  0  0  0  0  0  0  0
  -26.0050  -30.5320   21.5610 C   0  0  0  0  0  2  0  0  0  0  0  0
  -26.0450  -29.1300   20.9540 C   0  0  0  0  0  0  0  0  0  0  0  0
  -27.1960  -28.2740   20.9930 C   0  0  0  0  0  3  0  0  0  0  0  0
  -25.9540  -26.5700   19.8100 C   0  0  0  0  0  3  0  0  0  0  0  0
  -24.8270  -27.4100   19.7600 C   0  0  0  0  0  3  0  0  0  0  0  0
  -23.6640  -29.6090   20.3410 C   0  0  0  0  0  2  0  0  0  0  0  0
  -24.7260  -30.8800   22.2490 N   0  0  0  0  0  0  0  0  0  0  0  0
  -23.5840  -32.0600   23.8210 O   0  0  0  0  0  0  0  0  0  0  0  0
  -22.7270  -29.3630   22.6730 C   0  0  0  0  0  0  0  0  0  0  0  0
  -21.3980  -29.2240   22.5190 N   0  0  0  0  0  0  0  0  0  0  0  0
  -23.3640  -28.7430   23.5280 O   0  0  0  0  0  0  0  0  0  0  0  0
  -20.9440  -29.7740   21.8050 H   0  0  0  0  0  0  0  0  0  0  0  0
  -17.9620  -28.2000   23.0230 C   0  0  0  0  0  0  0  0  0  0  0  0
  -20.5300  -28.3400   23.3000 C   0  0  0  0  0  3  0  0  0  0  0  0
  -20.5640  -26.8950   22.7470 C   0  0  0  0  0  2  0  0  0  0  0  0
  -19.4500  -26.6120   21.7330 C   0  0  0  0  0  2  0  0  0  0  0  0
  -18.0750  -26.8340   22.3690 C   0  0  0  0  0  2  0  0  0  0  0  0
  -19.1150  -28.9130   23.4470 C   0  0  0  0  0  0  0  0  0  0  0  0
  -18.9560  -30.1940   24.0190 C   0  0  0  0  0  3  0  0  0  0  0  0
  -17.6760  -30.7590   24.1730 C   0  0  0  0  0  3  0  0  0  0  0  0
  -16.5370  -30.0420   23.7650 C   0  0  0  0  0  3  0  0  0  0  0  0
  -16.6820  -28.7660   23.1950 C   0  0  0  0  0  3  0  0  0  0  0  0
  -25.9590  -32.3340   23.9470 C   0  0  0  0  0  3  0  0  0  0  0  0
  -25.6660  -33.7290   24.3080 N   0  0  0  0  0  0  0  0  0  0  0  0
  -25.9830  -34.7920   23.5570 C   0  0  0  0  0  0  0  0  0  0  0  0
  -26.6220  -34.7020   22.5050 O   0  0  0  0  0  0  0  0  0  0  0  0
  -25.0960  -33.8730   25.1270 H   0  0  0  0  0  0  0  0  0  0  0  0
  -24.2480  -36.5950   23.2930 C   0  0  0  0  0  1  0  0  0  0  0  0
  -25.5180  -36.1750   24.0500 C   0  0  0  0  0  3  0  0  0  0  0  0
  -27.6810  -37.0520   24.8120 C   0  0  0  0  0  1  0  0  0  0  0  0
  -26.5480  -37.2280   23.9080 N   0  0  0  0  0  0  0  0  0  0  0  0
  -26.1510  -38.1490   24.0730 H   0  0  0  0  0  0  0  0  0  0  0  0
  -26.4690  -31.5320   25.2080 C   0  0  1  0  0  0  0  0  0  0  0  0
  -25.3670  -31.2540   26.2570 C   0  0  0  0  0  1  0  0  0  0  0  0
  -27.0700  -30.1710   24.7870 C   0  0  0  0  0  1  0  0  0  0  0  0
  -27.6040  -32.3190   25.9040 C   0  0  0  0  0  1  0  0  0  0  0  0
  -27.3570  -16.8320   20.4900 C   0  0  0  0  0  2  0  0  0  0  0  0
  -25.9260  -17.2600   20.1030 C   0  0  0  0  0  2  0  0  0  0  0  0
  -25.0350  -16.0920   19.9970 N   0  0  0  0  0  4  0  0  0  0  0  0
  -25.4230  -15.4360   19.3250 H   0  0  0  0  0  0  0  0  0  0  0  0
  -24.1250  -16.3740   19.6780 H   0  0  0  0  0  0  0  0  0  0  0  0
  -24.9340  -15.6330   20.8840 H   0  0  0  0  0  0  0  0  0  0  0  0
  1  3  1  0
  1  2  1  0
  2 44  1  0
  3  2  1  0
  3 91  1  6
  4 13  1  0
  4 10  1  0
  5 10  1  0
  6  7  1  0
  6  5  1  0
  8  7  1  0
  8 19  1  0
  8  9  1  0
 10  9  1  0
 11  4  2  0
 12  3  1  0
 12 13  1  0
 13 15  1  0
 14 12  2  0
 16 17  2  0
 17 36  1  0
 18 17  1  0
 18 21  1  0
 19 16  1  0
 19 20  1  0
 20 18  2  0
 21 22  1  0
 22 23  2  0
 24 27  1  0
 24 23  1  0
 25 24  2  0
 26 25  1  0
 26 21  2  0
 27 28  1  0
 28 29  1  0
 29 30  2  0
 31 30  1  0
 31 35  1  0
 32 31  2  0
 33 28  2  0
 33 32  1  0
 34 33  1  0
 36 37  1  0
 37 40  1  0
 37 39  1  0
 38 36  2  0
 41 16  1  0
 42 41  1  0
 43 41  1  0
 44 45  1  0
 44 46  2  0
 45 48  1  0
 47 45  1  0
 49 48  2  0
 50 49  1  0
 51 62  2  0
 52 50  1  0
 52 57  1  0
 53 61  1  0
 53 63  1  0
 54 56  1  0
 55 61  1  0
 56 57  2  0
 56 55  1  0
 58 52  2  0
 59 58  1  0
 59 54  2  0
 60 54  1  0
 60 53  1  0
 61 51  1  0
 63 65  2  0
 64 63  1  0
 66 64  1  0
 67 76  2  0
 67 72  1  0
 68 64  1  0
 68 72  1  0
 69 68  1  0
 70 71  1  0
 70 69  1  0
 71 67  1  0
 72 73  2  0
 73 74  1  0
 75 74  2  0
 76 75  1  0
 77 51  1  0
 77 78  1  0
 77 87  1  0
 78 81  1  0
 79 83  1  0
 79 78  1  0
 80 79  2  0
 83 82  1  0
 85 83  1  0
 85 86  1  0
 85 84  1  0
 87 90  1  1
 87 88  1  0
 89 87  1  0
 92 91  1  0
 93 92  1  0
 93 96  1  0
 94 93  1  0
 95 93  1  0
M  ISO  4   4 100  13 100  49 101  50 101
M  END
>  <TORSDO>  (32) 
F 22

>  <SCORE>  (32) 
-12.344

>  <name>  (32) 
33

>  <ligand_id>  (32) 
33

>  <original_smiles>  (32) 
[H]c1c([H])c([H])c2c(c1[H])C([H])([H])C([H])([H])C([H])([H])C2([H])N([H])C(=O)C1([H])N(C(=O)C([H])(N([H])C(=O)C([H])(N([H])C([H])([H])[H])C([H])([H])[H])C(C([H])([H])[H])(C([H])([H])[H])C([H])([H])[H])C([H])([H])c2c([H])c(OC([H])([H])C([H])([H])N([H])C(=O)C3([H])C([H])([H])C3(C(=O)N([H])C(=O)N3C([H])([H])C([H])([H])C([H])([H])C([H])(n4nc(-c5c([H])c([H])c(Oc6c([H])c([H])c(F)c([H])c6F)c([H])c5[H])c(C(=O)N([H])[H])c4N([H])[H])C3([H])[H])C([H])([H])C([H])([H])[N+]([H])([H])[H])c([H])c([H])c2C1([H])[H]

>  <smiles>  (32) 
[H]c1c([H])c([H])c2c(c1[H])C([H])([H])C([H])([H])C([H])([H])C2([H])N([H])C(=O)C1([H])N(C(=O)C([H])(N([H])C(=O)C([H])(N([H])C([H])([H])[H])C([H])([H])[H])C(C([H])([H])[H])(C([H])([H])[H])C([H])([H])[H])C([H])([H])c2c([H])c(OC([H])([H])C([H])([H])N([H])C(=O)C3([H])C([H])([H])C3(C(=O)N([H])C(=O)N3C([H])([H])C([H])([H])C([H])([H])C([H])(n4nc(-c5c([H])c([H])c(Oc6c([H])c([H])c(F)c([H])c6F)c([H])c5[H])c(C(=O)N([H])[H])c4N([H])[H])C3([H])[H])C([H])([H])C([H])([H])[N+]([H])([H])[H])c([H])c([H])c2C1([H])[H]

$$$$
34:0:0
     RDKit          3D

 94103  0  0  1  0  0  0  0  0999 V2000
  -28.9630  -21.1180   20.3130 C   0  0  0  0  0  2  0  0  0  0  0  0
  -32.8290  -20.2870   19.7410 C   0  0  0  0  0  2  0  0  0  0  0  0
  -31.3550  -20.1810   19.3320 C   0  0  0  0  0  3  0  0  0  0  0  0
  -31.5100  -18.6620   19.2840 C   0  0  0  0  0  3  0  0  0  0  0  0
  -32.8590  -18.7860   20.0360 C   0  0  0  0  0  3  0  0  0  0  0  0
  -30.1930  -20.0570   20.3390 C   0  0  0  0  0  3  0  0  0  0  0  0
  -30.1550  -18.4610   19.9950 C   0  0  0  0  0  3  0  0  0  0  0  0
  -34.0720  -17.9740   19.5930 C   0  0  0  0  0  1  0  0  0  0  0  0
  -30.1520  -17.2570   21.0530 C   0  0  0  0  0  2  0  0  0  0  0  0
  -30.6130  -14.7220   20.4040 C   0  0  0  0  0  0  0  0  0  0  0  0
  -30.4020  -12.4750   19.3340 C   0  0  0  0  0  2  0  0  0  0  0  0
  -29.4520  -12.5580   18.1200 C   0  0  0  0  0  2  0  0  0  0  0  0
  -27.9790  -12.4130   18.5480 C   0  0  0  0  0  2  0  0  0  0  0  0
  -27.6150  -13.2850   19.7800 C   0  0  0  0  0  3  0  0  0  0  0  0
  -28.6760  -13.1540   20.8920 C   0  0  0  0  0  2  0  0  0  0  0  0
  -29.9750  -13.5080   20.2990 N   0  0  0  0  0  0  0  0  0  0  0  0
  -31.8060  -14.8360   20.1180 O   0  0  0  0  0  0  0  0  0  0  0  0
  -29.8280  -15.8270   20.6460 N   0  0  0  0  0  0  0  0  0  0  0  0
  -28.8500  -15.5930   20.7400 H   0  0  0  0  0  0  0  0  0  0  0  0
  -25.2170  -13.8820   20.4820 C   0  0  0  0  0  0  0  0  0  0  0  0
  -24.1480  -13.1110   20.8520 C   0  0  0  0  0  0  0  0  0  0  0  0
  -24.6130  -11.7590   20.8350 C   0  0  0  0  0  0  0  0  0  0  0  0
  -26.2650  -13.0010   20.2640 N   0  0  0  0  0  0  0  0  0  0  0  0
  -25.9060  -11.7190   20.5370 N   0  0  0  0  0  0  0  0  0  0  0  0
  -23.8840  -10.4970   21.0270 C   0  0  0  0  0  0  0  0  0  0  0  0
  -24.3080   -9.5330   21.9680 C   0  0  0  0  0  3  0  0  0  0  0  0
  -23.5800   -8.3370   22.1460 C   0  0  0  0  0  3  0  0  0  0  0  0
  -22.4130   -8.0950   21.3820 C   0  0  0  0  0  0  0  0  0  0  0  0
  -22.0090   -9.0480   20.4290 C   0  0  0  0  0  3  0  0  0  0  0  0
  -22.7380  -10.2350   20.2490 C   0  0  0  0  0  3  0  0  0  0  0  0
  -21.6580   -6.9510   21.4690 O   0  0  0  0  0  0  0  0  0  0  0  0
  -21.6010   -6.2130   22.6260 C   0  0  0  0  0  0  0  0  0  0  0  0
  -21.1640   -6.7730   23.8460 C   0  0  0  0  0  3  0  0  0  0  0  0
  -21.0540   -5.9620   24.9940 C   0  0  0  0  0  3  0  0  0  0  0  0
  -21.3710   -4.5930   24.9220 C   0  0  0  0  0  0  0  0  0  0  0  0
  -21.8000   -4.0310   23.7070 C   0  0  0  0  0  3  0  0  0  0  0  0
  -21.9120   -4.8400   22.5610 C   0  0  0  0  0  0  0  0  0  0  0  0
  -22.3050   -4.2900   21.3880 F   0  0  0  0  0  0  0  0  0  0  0  0
  -21.2590   -3.8120   26.0220 F   0  0  0  0  0  0  0  0  0  0  0  0
  -22.7480  -13.5870   21.1080 C   0  0  0  0  0  0  0  0  0  0  0  0
  -22.0110  -12.8950   21.9700 N   0  0  0  0  0  0  0  0  0  0  0  0
  -22.3150  -14.6120   20.5810 O   0  0  0  0  0  0  0  0  0  0  0  0
  -22.3700  -12.0650   22.4160 H   0  0  0  0  0  0  0  0  0  0  0  0
  -21.0710  -13.1990   22.1870 H   0  0  0  0  0  0  0  0  0  0  0  0
  -25.3840  -15.2500   20.2910 N   0  0  0  0  0  0  0  0  0  0  0  0
  -24.6150  -15.9090   20.3710 H   0  0  0  0  0  0  0  0  0  0  0  0
  -26.2310  -15.6770   19.9380 H   0  0  0  0  0  0  0  0  0  0  0  0
  -29.0680  -22.4910   19.5950 N   0  0  1  0  0  4  0  0  0  0  0  0
  -30.0510  -22.6460   19.4290 H   0  0  0  0  0  0  0  0  0  0  0  0
  -28.8260  -21.3500   17.2880 C   0  0  0  0  0  1  0  0  0  0  0  0
  -28.3870  -22.4550   18.2600 C   0  0  0  0  0  2  0  0  0  0  0  0
  -28.5810  -23.7490   20.3680 C   0  0  0  0  0  3  0  0  0  0  0  0
  -28.5280  -25.1780   19.5920 C   0  0  0  0  0  3  0  0  0  0  0  0
  -28.3560  -26.4950   20.2770 O   0  0  0  0  0  0  0  0  0  0  0  0
  -24.5900  -31.8830   23.2340 C   0  0  0  0  0  0  0  0  0  0  0  0
  -27.2110  -27.3120   20.1820 C   0  0  0  0  0  0  0  0  0  0  0  0
  -23.3880  -30.4860   21.5890 C   0  0  0  0  0  3  0  0  0  0  0  0
  -24.8440  -28.9380   20.1600 C   0  0  0  0  0  0  0  0  0  0  0  0
  -25.9250  -30.8080   21.4040 C   0  0  0  0  0  2  0  0  0  0  0  0
  -26.0080  -29.4220   20.7670 C   0  0  0  0  0  0  0  0  0  0  0  0
  -27.1860  -28.6180   20.7750 C   0  0  0  0  0  3  0  0  0  0  0  0
  -26.0210  -26.8840   19.5530 C   0  0  0  0  0  3  0  0  0  0  0  0
  -24.8560  -27.6770   19.5420 C   0  0  0  0  0  3  0  0  0  0  0  0
  -23.6040  -29.8100   20.2100 C   0  0  0  0  0  2  0  0  0  0  0  0
  -24.6560  -31.0750   22.1350 N   0  0  0  0  0  0  0  0  0  0  0  0
  -23.5070  -32.1590   23.7690 O   0  0  0  0  0  0  0  0  0  0  0  0
  -22.7260  -29.4670   22.5490 C   0  0  0  0  0  0  0  0  0  0  0  0
  -21.4000  -29.2890   22.4250 N   0  0  0  0  0  0  0  0  0  0  0  0
  -23.4050  -28.8390   23.3660 O   0  0  0  0  0  0  0  0  0  0  0  0
  -20.9120  -29.8460   21.7390 H   0  0  0  0  0  0  0  0  0  0  0  0
  -18.0220  -28.0920   22.9160 C   0  0  0  0  0  0  0  0  0  0  0  0
  -20.5810  -28.3520   23.1980 C   0  0  0  0  0  3  0  0  0  0  0  0
  -20.6870  -26.9180   22.6280 C   0  0  0  0  0  2  0  0  0  0  0  0
  -19.5890  -26.5920   21.6120 C   0  0  0  0  0  2  0  0  0  0  0  0
  -18.2020  -26.7390   22.2470 C   0  0  0  0  0  2  0  0  0  0  0  0
  -19.1390  -28.8540   23.3480 C   0  0  0  0  0  0  0  0  0  0  0  0
  -18.9180  -30.1180   23.9360 C   0  0  0  0  0  3  0  0  0  0  0  0
  -17.6110  -30.6190   24.0970 C   0  0  0  0  0  3  0  0  0  0  0  0
  -16.5090  -29.8520   23.6820 C   0  0  0  0  0  3  0  0  0  0  0  0
  -16.7150  -28.5900   23.0960 C   0  0  0  0  0  3  0  0  0  0  0  0
  -25.8710  -32.5190   23.8560 C   0  0  0  0  0  3  0  0  0  0  0  0
  -25.5600  -33.9170   24.1840 N   0  0  0  0  0  0  0  0  0  0  0  0
  -25.9010  -34.9700   23.4270 C   0  0  0  0  0  0  0  0  0  0  0  0
  -26.5740  -34.8640   22.3990 O   0  0  0  0  0  0  0  0  0  0  0  0
  -24.9540  -34.0750   24.9770 H   0  0  0  0  0  0  0  0  0  0  0  0
  -24.1740  -36.7670   23.0700 C   0  0  0  0  0  1  0  0  0  0  0  0
  -25.4130  -36.3590   23.8830 C   0  0  0  0  0  3  0  0  0  0  0  0
  -27.5460  -37.2380   24.7200 C   0  0  0  0  0  1  0  0  0  0  0  0
  -26.4470  -37.4110   23.7750 N   0  0  0  0  0  0  0  0  0  0  0  0
  -26.0430  -38.3320   23.9240 H   0  0  0  0  0  0  0  0  0  0  0  0
  -26.3850  -31.7480   25.1330 C   0  0  1  0  0  0  0  0  0  0  0  0
  -25.2850  -31.5130   26.1970 C   0  0  0  0  0  1  0  0  0  0  0  0
  -26.9660  -30.3720   24.7390 C   0  0  0  0  0  1  0  0  0  0  0  0
  -27.5400  -32.5390   25.7930 C   0  0  0  0  0  1  0  0  0  0  0  0
  1  6  1  0
  2  5  1  0
  3  2  1  0
  3  6  1  0
  4  3  1  0
  4  7  1  0
  4  5  1  0
  7  6  1  0
  7  9  1  0
  8  5  1  0
 10 18  1  0
 11 16  1  0
 12 13  1  0
 12 11  1  0
 13 14  1  0
 14 23  1  0
 14 15  1  0
 16 10  1  0
 16 15  1  0
 17 10  2  0
 18 19  1  0
 18  9  1  0
 20 21  2  0
 21 40  1  0
 22 21  1  0
 22 25  1  0
 23 20  1  0
 23 24  1  0
 24 22  2  0
 25 26  1  0
 26 27  2  0
 28 31  1  0
 28 27  1  0
 29 28  2  0
 30 29  1  0
 30 25  2  0
 31 32  1  0
 32 33  1  0
 33 34  2  0
 35 34  1  0
 35 39  1  0
 36 35  2  0
 37 32  2  0
 37 36  1  0
 38 37  1  0
 40 41  1  0
 41 44  1  0
 41 43  1  0
 42 40  2  0
 45 46  1  0
 45 20  1  0
 47 45  1  0
 48  1  1  0
 48 52  1  0
 48 49  1  6
 50 51  1  0
 51 48  1  0
 53 54  1  0
 53 52  2  0
 55 66  2  0
 55 81  1  0
 56 54  1  0
 56 61  1  0
 57 65  1  0
 57 67  1  0
 58 64  1  0
 58 60  1  0
 59 65  1  0
 60 61  2  0
 60 59  1  0
 62 56  2  0
 63 62  1  0
 63 58  2  0
 64 57  1  0
 65 55  1  0
 67 69  2  0
 68 67  1  0
 68 72  1  0
 70 68  1  0
 71 80  2  0
 71 76  1  0
 72 76  1  0
 73 72  1  0
 74 75  1  0
 74 73  1  0
 75 71  1  0
 76 77  2  0
 77 78  1  0
 79 78  2  0
 80 79  1  0
 81 82  1  0
 81 91  1  0
 82 85  1  0
 83 87  1  0
 83 82  1  0
 84 83  2  0
 86 87  1  0
 89 87  1  0
 89 90  1  0
 89 88  1  0
 91 94  1  1
 91 92  1  0
 93 91  1  0
M  ISO  4  10 100  18 100  53 101  54 101
M  END
>  <TORSDO>  (33) 
F 22

>  <SCORE>  (33) 
-13.242

>  <name>  (33) 
34

>  <ligand_id>  (33) 
34

>  <original_smiles>  (33) 
[H]c1c([H])c([H])c2c(c1[H])C([H])([H])C([H])([H])C([H])([H])C2([H])N([H])C(=O)C1([H])N(C(=O)C([H])(N([H])C(=O)C([H])(N([H])C([H])([H])[H])C([H])([H])[H])C(C([H])([H])[H])(C([H])([H])[H])C([H])([H])[H])C([H])([H])c2c([H])c(OC([H])([H])C([H])([H])[N+]([H])(C([H])([H])C([H])([H])[H])C([H])([H])C3([H])C([H])(C([H])([H])N([H])C(=O)N4C([H])([H])C([H])([H])C([H])([H])C([H])(n5nc(-c6c([H])c([H])c(Oc7c([H])c([H])c(F)c([H])c7F)c([H])c6[H])c(C(=O)N([H])[H])c5N([H])[H])C4([H])[H])C4([H])C([H])(C([H])([H])[H])C([H])([H])C43[H])c([H])c([H])c2C1([H])[H]

>  <smiles>  (33) 
[H]c1c([H])c([H])c2c(c1[H])C([H])([H])C([H])([H])C([H])([H])C2([H])N([H])C(=O)C1([H])N(C(=O)C([H])(N([H])C(=O)C([H])(N([H])C([H])([H])[H])C([H])([H])[H])C(C([H])([H])[H])(C([H])([H])[H])C([H])([H])[H])C([H])([H])c2c([H])c(OC([H])([H])C([H])([H])[N+]([H])(C([H])([H])C([H])([H])[H])C([H])([H])C3([H])C([H])(C([H])([H])N([H])C(=O)N4C([H])([H])C([H])([H])C([H])([H])C([H])(n5nc(-c6c([H])c([H])c(Oc7c([H])c([H])c(F)c([H])c7F)c([H])c6[H])c(C(=O)N([H])[H])c5N([H])[H])C4([H])[H])C4([H])C([H])(C([H])([H])[H])C([H])([H])C43[H])c([H])c([H])c2C1([H])[H]

$$$$
35:0:0
     RDKit          3D

 94103  0  0  1  0  0  0  0  0999 V2000
  -28.0780  -22.4940   19.5140 C   0  0  0  0  0  2  0  0  0  0  0  0
  -28.9340  -21.7710   20.5790 C   0  0  0  0  0  3  0  0  0  0  0  0
  -28.3640  -23.8200   20.2770 C   0  0  0  0  0  3  0  0  0  0  0  0
  -29.5920  -23.0930   20.7050 N   0  0  0  0  0  4  0  0  0  0  0  0
  -30.3470  -23.1440   20.0390 H   0  0  0  0  0  0  0  0  0  0  0  0
  -29.9100  -23.2900   21.6390 H   0  0  0  0  0  0  0  0  0  0  0  0
  -29.8970  -20.5810   20.1630 C   0  0  0  0  0  0  0  0  0  0  0  0
  -29.6080  -17.7650   18.6370 C   0  0  0  0  0  2  0  0  0  0  0  0
  -28.6070  -18.8880   18.9270 C   0  0  0  0  0  2  0  0  0  0  0  0
  -30.2580  -17.9960   20.0070 C   0  0  0  0  0  3  0  0  0  0  0  0
  -29.4010  -19.2390   20.1010 N   0  0  0  0  0  0  0  0  0  0  0  0
  -31.0990  -20.8060   20.0050 O   0  0  0  0  0  0  0  0  0  0  0  0
  -30.6640  -14.6250   20.1110 C   0  0  0  0  0  0  0  0  0  0  0  0
  -30.4160  -12.4450   18.9170 C   0  0  0  0  0  2  0  0  0  0  0  0
  -29.3930  -12.6380   17.7720 C   0  0  0  0  0  2  0  0  0  0  0  0
  -27.9450  -12.4710   18.2770 C   0  0  0  0  0  2  0  0  0  0  0  0
  -27.6740  -13.2730   19.5750 C   0  0  0  0  0  3  0  0  0  0  0  0
  -28.7880  -13.0030   20.6140 C   0  0  0  0  0  2  0  0  0  0  0  0
  -30.0760  -13.3870   20.0020 N   0  0  0  0  0  0  0  0  0  0  0  0
  -31.7200  -14.8920   19.5270 O   0  0  0  0  0  0  0  0  0  0  0  0
  -29.8910  -16.8640   21.0450 C   0  0  0  0  0  0  0  0  0  0  0  0
  -29.9580  -15.5080   20.8730 N   0  0  0  0  0  0  0  0  0  0  0  0
  -29.3810  -17.2570   22.0980 O   0  0  0  0  0  0  0  0  0  0  0  0
  -29.3320  -15.0280   21.4990 H   0  0  0  0  0  0  0  0  0  0  0  0
  -25.3190  -13.8870   20.4140 C   0  0  0  0  0  0  0  0  0  0  0  0
  -24.2650  -13.1170   20.8250 C   0  0  0  0  0  0  0  0  0  0  0  0
  -24.7120  -11.7630   20.7490 C   0  0  0  0  0  0  0  0  0  0  0  0
  -26.3440  -13.0000   20.1160 N   0  0  0  0  0  0  0  0  0  0  0  0
  -25.9840  -11.7170   20.3730 N   0  0  0  0  0  0  0  0  0  0  0  0
  -23.9850  -10.5040   20.9570 C   0  0  0  0  0  0  0  0  0  0  0  0
  -24.4430   -9.5300   21.8720 C   0  0  0  0  0  3  0  0  0  0  0  0
  -23.7190   -8.3350   22.0670 C   0  0  0  0  0  3  0  0  0  0  0  0
  -22.5220   -8.1060   21.3490 C   0  0  0  0  0  0  0  0  0  0  0  0
  -22.0820   -9.0670   20.4230 C   0  0  0  0  0  3  0  0  0  0  0  0
  -22.8070  -10.2540   20.2250 C   0  0  0  0  0  3  0  0  0  0  0  0
  -21.7650   -6.9630   21.4540 O   0  0  0  0  0  0  0  0  0  0  0  0
  -21.7250   -6.2310   22.6130 C   0  0  0  0  0  0  0  0  0  0  0  0
  -21.3220   -6.8010   23.8400 C   0  0  0  0  0  3  0  0  0  0  0  0
  -21.2280   -5.9960   24.9940 C   0  0  0  0  0  3  0  0  0  0  0  0
  -21.5270   -4.6220   24.9210 C   0  0  0  0  0  0  0  0  0  0  0  0
  -21.9240   -4.0520   23.6980 C   0  0  0  0  0  3  0  0  0  0  0  0
  -22.0200   -4.8540   22.5470 C   0  0  0  0  0  0  0  0  0  0  0  0
  -22.3820   -4.2960   21.3670 F   0  0  0  0  0  0  0  0  0  0  0  0
  -21.4300   -3.8470   26.0250 F   0  0  0  0  0  0  0  0  0  0  0  0
  -22.8880  -13.6010   21.1800 C   0  0  0  0  0  0  0  0  0  0  0  0
  -22.2010  -12.8970   22.0730 N   0  0  0  0  0  0  0  0  0  0  0  0
  -22.4320  -14.6380   20.6990 O   0  0  0  0  0  0  0  0  0  0  0  0
  -22.5830  -12.0590   22.4840 H   0  0  0  0  0  0  0  0  0  0  0  0
  -21.2790  -13.2040   22.3510 H   0  0  0  0  0  0  0  0  0  0  0  0
  -25.4860  -15.2590   20.2530 N   0  0  0  0  0  0  0  0  0  0  0  0
  -24.7290  -15.9150   20.4120 H   0  0  0  0  0  0  0  0  0  0  0  0
  -26.3240  -15.6990   19.8940 H   0  0  0  0  0  0  0  0  0  0  0  0
  -28.5440  -25.2090   19.5160 C   0  0  0  0  0  2  0  0  0  0  0  0
  -28.3830  -26.5070   20.2100 O   0  0  0  0  0  0  0  0  0  0  0  0
  -24.6190  -31.8530   23.2140 C   0  0  0  0  0  0  0  0  0  0  0  0
  -27.2230  -27.2950   20.1480 C   0  0  0  0  0  0  0  0  0  0  0  0
  -23.4040  -30.4510   21.5810 C   0  0  0  0  0  3  0  0  0  0  0  0
  -24.8450  -28.8900   20.1530 C   0  0  0  0  0  0  0  0  0  0  0  0
  -25.9390  -30.7700   21.3810 C   0  0  0  0  0  2  0  0  0  0  0  0
  -26.0140  -29.3880   20.7400 C   0  0  0  0  0  0  0  0  0  0  0  0
  -27.2000  -28.6000   20.7290 C   0  0  0  0  0  3  0  0  0  0  0  0
  -26.0250  -26.8350   19.5550 C   0  0  0  0  0  3  0  0  0  0  0  0
  -24.8520  -27.6180   19.5550 C   0  0  0  0  0  3  0  0  0  0  0  0
  -23.6100  -29.7650   20.2030 C   0  0  0  0  0  2  0  0  0  0  0  0
  -24.6730  -31.0420   22.1150 N   0  0  0  0  0  0  0  0  0  0  0  0
  -23.5380  -32.1320   23.7540 O   0  0  0  0  0  0  0  0  0  0  0  0
  -22.7440  -29.4400   22.5490 C   0  0  0  0  0  0  0  0  0  0  0  0
  -21.4190  -29.2600   22.4230 N   0  0  0  0  0  0  0  0  0  0  0  0
  -23.4250  -28.8200   23.3710 O   0  0  0  0  0  0  0  0  0  0  0  0
  -20.9290  -29.8130   21.7340 H   0  0  0  0  0  0  0  0  0  0  0  0
  -18.0480  -28.0430   22.9130 C   0  0  0  0  0  0  0  0  0  0  0  0
  -20.6010  -28.3250   23.2000 C   0  0  0  0  0  3  0  0  0  0  0  0
  -20.7190  -26.8880   22.6440 C   0  0  0  0  0  2  0  0  0  0  0  0
  -19.6280  -26.5440   21.6240 C   0  0  0  0  0  2  0  0  0  0  0  0
  -18.2400  -26.6870   22.2550 C   0  0  0  0  0  2  0  0  0  0  0  0
  -19.1580  -28.8190   23.3420 C   0  0  0  0  0  0  0  0  0  0  0  0
  -18.9250  -30.0860   23.9180 C   0  0  0  0  0  3  0  0  0  0  0  0
  -17.6150  -30.5800   24.0680 C   0  0  0  0  0  3  0  0  0  0  0  0
  -16.5200  -29.8010   23.6540 C   0  0  0  0  0  3  0  0  0  0  0  0
  -16.7380  -28.5350   23.0830 C   0  0  0  0  0  3  0  0  0  0  0  0
  -25.9050  -32.4850   23.8280 C   0  0  0  0  0  3  0  0  0  0  0  0
  -25.5960  -33.8810   24.1700 N   0  0  0  0  0  0  0  0  0  0  0  0
  -25.9190  -34.9390   23.4160 C   0  0  0  0  0  0  0  0  0  0  0  0
  -26.5790  -34.8440   22.3780 O   0  0  0  0  0  0  0  0  0  0  0  0
  -25.0100  -34.0280   24.9800 H   0  0  0  0  0  0  0  0  0  0  0  0
  -24.1850  -36.7310   23.0890 C   0  0  0  0  0  1  0  0  0  0  0  0
  -25.4340  -36.3250   23.8870 C   0  0  0  0  0  3  0  0  0  0  0  0
  -27.5760  -37.2070   24.7000 C   0  0  0  0  0  1  0  0  0  0  0  0
  -26.4640  -37.3800   23.7700 N   0  0  0  0  0  0  0  0  0  0  0  0
  -26.0580  -38.2990   23.9280 H   0  0  0  0  0  0  0  0  0  0  0  0
  -26.4350  -31.7080   25.0960 C   0  0  1  0  0  0  0  0  0  0  0  0
  -25.3520  -31.4660   26.1740 C   0  0  0  0  0  1  0  0  0  0  0  0
  -27.0150  -30.3330   24.6920 C   0  0  0  0  0  1  0  0  0  0  0  0
  -27.5920  -32.4990   25.7500 C   0  0  0  0  0  1  0  0  0  0  0  0
  1  3  1  0
  1  2  1  0
  2  7  1  0
  2  4  1  0
  3 53  1  0
  3  4  1  0
  4  6  1  0
  5  4  1  0
  8  9  1  0
  8 10  1  0
  9 11  1  0
 10 11  1  0
 10 21  1  0
 11  7  1  0
 12  7  2  0
 13 22  1  0
 14 19  1  0
 15 16  1  0
 15 14  1  0
 17 16  1  0
 17 28  1  0
 17 18  1  0
 19 13  1  0
 19 18  1  0
 20 13  2  0
 21 23  2  0
 22 21  1  0
 22 24  1  0
 25 26  2  0
 26 45  1  0
 27 26  1  0
 27 30  1  0
 28 29  1  0
 28 25  1  0
 29 27  2  0
 30 31  1  0
 31 32  2  0
 33 36  1  0
 33 32  1  0
 34 33  2  0
 35 34  1  0
 35 30  2  0
 36 37  1  0
 37 38  1  0
 38 39  2  0
 40 39  1  0
 40 44  1  0
 41 40  2  0
 42 37  2  0
 42 41  1  0
 43 42  1  0
 45 46  1  0
 46 49  1  0
 46 48  1  0
 47 45  2  0
 50 51  1  0
 50 25  1  0
 52 50  1  0
 53 54  1  0
 55 66  2  0
 56 54  1  0
 56 61  1  0
 57 65  1  0
 57 67  1  0
 58 64  1  0
 58 60  1  0
 59 65  1  0
 60 59  1  0
 61 60  2  0
 62 63  1  0
 62 56  2  0
 63 58  2  0
 64 57  1  0
 65 55  1  0
 67 69  2  0
 68 67  1  0
 70 68  1  0
 71 80  2  0
 71 76  1  0
 72 68  1  0
 72 76  1  0
 73 72  1  0
 74 75  1  0
 74 73  1  0
 75 71  1  0
 76 77  2  0
 77 78  1  0
 79 78  2  0
 80 79  1  0
 81 55  1  0
 81 82  1  0
 81 91  1  0
 82 85  1  0
 83 87  1  0
 83 82  1  0
 84 83  2  0
 87 86  1  0
 89 87  1  0
 89 90  1  0
 89 88  1  0
 91 94  1  1
 91 92  1  0
 93 91  1  0
M  ISO  4  13 100  22 100  53 101  54 101
M  END
>  <TORSDO>  (34) 
F 18

>  <SCORE>  (34) 
-14.445

>  <name>  (34) 
35

>  <ligand_id>  (34) 
35

>  <original_smiles>  (34) 
[H]c1c([H])c([H])c2c(c1[H])C([H])([H])C([H])([H])C([H])([H])C2([H])N([H])C(=O)C1([H])N(C(=O)C([H])(N([H])C(=O)C([H])(N([H])C([H])([H])[H])C([H])([H])[H])C(C([H])([H])[H])(C([H])([H])[H])C([H])([H])[H])C([H])([H])c2c([H])c(OC([H])([H])C3([H])C([H])([H])C([H])(C(=O)N4C([H])([H])C([H])([H])C4([H])C(=O)N([H])C(=O)N4C([H])([H])C([H])([H])C([H])([H])C([H])(n5nc(-c6c([H])c([H])c(Oc7c([H])c([H])c(F)c([H])c7F)c([H])c6[H])c(C(=O)N([H])[H])c5N([H])[H])C4([H])[H])[N+]3([H])[H])c([H])c([H])c2C1([H])[H]

>  <smiles>  (34) 
[H]c1c([H])c([H])c2c(c1[H])C([H])([H])C([H])([H])C([H])([H])C2([H])N([H])C(=O)C1([H])N(C(=O)C([H])(N([H])C(=O)C([H])(N([H])C([H])([H])[H])C([H])([H])[H])C(C([H])([H])[H])(C([H])([H])[H])C([H])([H])[H])C([H])([H])c2c([H])c(OC([H])([H])C3([H])C([H])([H])C([H])(C(=O)N4C([H])([H])C([H])([H])C4([H])C(=O)N([H])C(=O)N4C([H])([H])C([H])([H])C([H])([H])C([H])(n5nc(-c6c([H])c([H])c(Oc7c([H])c([H])c(F)c([H])c7F)c([H])c6[H])c(C(=O)N([H])[H])c5N([H])[H])C4([H])[H])[N+]3([H])[H])c([H])c([H])c2C1([H])[H]

$$$$
36:0:0
     RDKit          3D

 95104  0  0  1  0  0  0  0  0999 V2000
  -29.6200  -18.7770   21.4120 C   0  0  0  0  0  3  0  0  0  0  0  0
  -29.5550  -20.1500   21.7540 C   0  0  0  0  0  3  0  0  0  0  0  0
  -31.4640  -19.2700   19.9170 C   0  0  0  0  0  0  0  0  0  0  0  0
  -31.4040  -20.6170   20.2570 C   0  0  0  0  0  3  0  0  0  0  0  0
  -30.5860  -18.3190   20.4820 C   0  0  0  0  0  0  0  0  0  0  0  0
  -30.4540  -21.0870   21.1830 C   0  0  0  0  0  0  0  0  0  0  0  0
  -32.5670  -19.0050   18.9200 C   0  0  0  0  0  3  0  0  0  0  0  0
  -32.4430  -21.4250   19.5110 C   0  0  0  0  0  3  0  0  0  0  0  0
  -33.2650  -20.3730   18.7340 C   0  0  0  0  0  3  0  0  0  0  0  0
  -30.7280  -16.8660   20.0460 C   0  0  0  0  0  2  0  0  0  0  0  0
  -30.8090  -14.4880   20.3290 C   0  0  0  0  0  0  0  0  0  0  0  0
  -30.3940  -12.3610   19.1970 C   0  0  0  0  0  2  0  0  0  0  0  0
  -29.4680  -12.6230   17.9950 C   0  0  0  0  0  2  0  0  0  0  0  0
  -27.9920  -12.5230   18.4220 C   0  0  0  0  0  2  0  0  0  0  0  0
  -27.6740  -13.3320   19.7120 C   0  0  0  0  0  3  0  0  0  0  0  0
  -28.7380  -13.1120   20.8130 C   0  0  0  0  0  2  0  0  0  0  0  0
  -30.0640  -13.3580   20.2260 N   0  0  0  0  0  0  0  0  0  0  0  0
  -31.9730  -14.5520   19.9330 O   0  0  0  0  0  0  0  0  0  0  0  0
  -30.1570  -15.6300   20.5970 N   0  0  0  0  0  0  0  0  0  0  0  0
  -29.1820  -15.5980   20.8530 H   0  0  0  0  0  0  0  0  0  0  0  0
  -25.2720  -13.9250   20.4140 C   0  0  0  0  0  0  0  0  0  0  0  0
  -24.2090  -13.1530   20.7910 C   0  0  0  0  0  0  0  0  0  0  0  0
  -24.6770  -11.8030   20.7760 C   0  0  0  0  0  0  0  0  0  0  0  0
  -26.3240  -13.0500   20.1970 N   0  0  0  0  0  0  0  0  0  0  0  0
  -25.9690  -11.7680   20.4740 N   0  0  0  0  0  0  0  0  0  0  0  0
  -23.9550  -10.5400   20.9810 C   0  0  0  0  0  0  0  0  0  0  0  0
  -24.3950   -9.5840   21.9220 C   0  0  0  0  0  3  0  0  0  0  0  0
  -23.6760   -8.3850   22.1130 C   0  0  0  0  0  3  0  0  0  0  0  0
  -22.5010   -8.1340   21.3650 C   0  0  0  0  0  0  0  0  0  0  0  0
  -22.0820   -9.0790   20.4120 C   0  0  0  0  0  3  0  0  0  0  0  0
  -22.8010  -10.2700   20.2190 C   0  0  0  0  0  3  0  0  0  0  0  0
  -21.7520   -6.9860   21.4640 O   0  0  0  0  0  0  0  0  0  0  0  0
  -21.7140   -6.2500   22.6210 C   0  0  0  0  0  0  0  0  0  0  0  0
  -21.2940   -6.8100   23.8480 C   0  0  0  0  0  3  0  0  0  0  0  0
  -21.2040   -6.0000   24.9970 C   0  0  0  0  0  3  0  0  0  0  0  0
  -21.5230   -4.6310   24.9220 C   0  0  0  0  0  0  0  0  0  0  0  0
  -21.9360   -4.0710   23.7010 C   0  0  0  0  0  3  0  0  0  0  0  0
  -22.0290   -4.8780   22.5530 C   0  0  0  0  0  0  0  0  0  0  0  0
  -22.4070   -4.3280   21.3740 F   0  0  0  0  0  0  0  0  0  0  0  0
  -21.4290   -3.8510   26.0250 F   0  0  0  0  0  0  0  0  0  0  0  0
  -22.8110  -13.6260   21.0550 C   0  0  0  0  0  0  0  0  0  0  0  0
  -22.0870  -12.9350   21.9280 N   0  0  0  0  0  0  0  0  0  0  0  0
  -22.3670  -14.6420   20.5220 O   0  0  0  0  0  0  0  0  0  0  0  0
  -22.4610  -12.1130   22.3790 H   0  0  0  0  0  0  0  0  0  0  0  0
  -21.1470  -13.2330   22.1490 H   0  0  0  0  0  0  0  0  0  0  0  0
  -25.4330  -15.2950   20.2180 N   0  0  0  0  0  0  0  0  0  0  0  0
  -24.6640  -15.9480   20.3190 H   0  0  0  0  0  0  0  0  0  0  0  0
  -26.2810  -15.7280   19.8750 H   0  0  0  0  0  0  0  0  0  0  0  0
  -30.3850  -22.5640   21.5490 C   0  0  0  0  0  2  0  0  0  0  0  0
  -29.5180  -23.2880   20.6020 N   0  0  0  0  0  4  0  0  0  0  0  0
  -28.5750  -22.9640   20.7550 H   0  0  0  0  0  0  0  0  0  0  0  0
  -29.7790  -23.0210   19.6660 H   0  0  0  0  0  0  0  0  0  0  0  0
  -29.5640  -24.7610   20.7320 C   0  0  0  0  0  2  0  0  0  0  0  0
  -28.4860  -25.4390   19.8700 C   0  0  0  0  0  2  0  0  0  0  0  0
  -28.4590  -26.8270   20.2050 O   0  0  0  0  0  0  0  0  0  0  0  0
  -24.5930  -31.9320   23.2650 C   0  0  0  0  0  0  0  0  0  0  0  0
  -27.2570  -27.5040   20.1830 C   0  0  0  0  0  0  0  0  0  0  0  0
  -23.3940  -30.5310   21.6170 C   0  0  0  0  0  3  0  0  0  0  0  0
  -24.8530  -28.9960   20.1980 C   0  0  0  0  0  0  0  0  0  0  0  0
  -25.9180  -30.8950   21.4270 C   0  0  0  0  0  2  0  0  0  0  0  0
  -26.0060  -29.5230   20.7900 C   0  0  0  0  0  0  0  0  0  0  0  0
  -27.2070  -28.7800   20.7860 C   0  0  0  0  0  3  0  0  0  0  0  0
  -26.0840  -26.9940   19.5730 C   0  0  0  0  0  3  0  0  0  0  0  0
  -24.8860  -27.7310   19.5890 C   0  0  0  0  0  3  0  0  0  0  0  0
  -23.6080  -29.8510   20.2380 C   0  0  0  0  0  2  0  0  0  0  0  0
  -24.6530  -31.1320   22.1630 N   0  0  0  0  0  0  0  0  0  0  0  0
  -23.5090  -32.2030   23.7990 O   0  0  0  0  0  0  0  0  0  0  0  0
  -22.7420  -29.5060   22.5740 C   0  0  0  0  0  0  0  0  0  0  0  0
  -21.4180  -29.3240   22.4430 N   0  0  0  0  0  0  0  0  0  0  0  0
  -23.4250  -28.8770   23.3870 O   0  0  0  0  0  0  0  0  0  0  0  0
  -20.9300  -29.8810   21.7560 H   0  0  0  0  0  0  0  0  0  0  0  0
  -18.0430  -28.1380   22.9320 C   0  0  0  0  0  0  0  0  0  0  0  0
  -20.5990  -28.3870   23.2110 C   0  0  0  0  0  3  0  0  0  0  0  0
  -20.6990  -26.9570   22.6300 C   0  0  0  0  0  2  0  0  0  0  0  0
  -19.5980  -26.6420   21.6130 C   0  0  0  0  0  2  0  0  0  0  0  0
  -18.2160  -26.7910   22.2550 C   0  0  0  0  0  2  0  0  0  0  0  0
  -19.1620  -28.8950   23.3690 C   0  0  0  0  0  0  0  0  0  0  0  0
  -18.9480  -30.1590   23.9610 C   0  0  0  0  0  3  0  0  0  0  0  0
  -17.6440  -30.6650   24.1230 C   0  0  0  0  0  3  0  0  0  0  0  0
  -16.5380  -29.9050   23.7030 C   0  0  0  0  0  3  0  0  0  0  0  0
  -16.7380  -28.6440   23.1150 C   0  0  0  0  0  3  0  0  0  0  0  0
  -25.8760  -32.5640   23.8880 C   0  0  0  0  0  3  0  0  0  0  0  0
  -25.5690  -33.9650   24.2070 N   0  0  0  0  0  0  0  0  0  0  0  0
  -25.9080  -35.0090   23.4390 C   0  0  0  0  0  0  0  0  0  0  0  0
  -26.5820  -34.8960   22.4120 O   0  0  0  0  0  0  0  0  0  0  0  0
  -24.9750  -34.1290   25.0040 H   0  0  0  0  0  0  0  0  0  0  0  0
  -24.1860  -36.8000   23.0590 C   0  0  0  0  0  1  0  0  0  0  0  0
  -25.4210  -36.4020   23.8820 C   0  0  0  0  0  3  0  0  0  0  0  0
  -27.5490  -37.2900   24.7230 C   0  0  0  0  0  1  0  0  0  0  0  0
  -26.4560  -37.4510   23.7680 N   0  0  0  0  0  0  0  0  0  0  0  0
  -26.0510  -38.3740   23.9030 H   0  0  0  0  0  0  0  0  0  0  0  0
  -26.3860  -31.7990   25.1690 C   0  0  1  0  0  0  0  0  0  0  0  0
  -25.2860  -31.5680   26.2310 C   0  0  0  0  0  1  0  0  0  0  0  0
  -26.9680  -30.4190   24.7810 C   0  0  0  0  0  1  0  0  0  0  0  0
  -27.5350  -32.5940   25.8340 C   0  0  0  0  0  1  0  0  0  0  0  0
  1  2  1  0
  3  4  1  0
  3  5  1  0
  4  8  1  0
  4  6  1  0
  5  1  2  0
  6 49  1  0
  6  2  2  0
  7  3  2  0
  9  7  1  0
  9  8  2  0
 10  5  1  0
 10 19  1  0
 11 19  1  0
 12 17  1  0
 13 14  1  0
 13 12  1  0
 15 14  1  0
 15 24  1  0
 15 16  1  0
 17 11  1  0
 17 16  1  0
 18 11  2  0
 19 20  1  0
 21 22  2  0
 22 41  1  0
 23 22  1  0
 23 26  1  0
 24 21  1  0
 24 25  1  0
 25 23  2  0
 26 27  1  0
 27 28  2  0
 29 32  1  0
 29 28  1  0
 30 29  2  0
 31 30  1  0
 31 26  2  0
 32 33  1  0
 33 34  1  0
 34 35  2  0
 36 35  1  0
 36 40  1  0
 37 36  2  0
 38 33  2  0
 38 37  1  0
 39 38  1  0
 41 42  1  0
 42 45  1  0
 42 44  1  0
 43 41  2  0
 46 47  1  0
 46 21  1  0
 48 46  1  0
 50 53  1  0
 50 51  1  0
 50 49  1  0
 52 50  1  0
 54 55  1  0
 54 53  1  0
 56 67  2  0
 57 55  1  0
 57 62  1  0
 58 66  1  0
 58 68  1  0
 59 65  1  0
 59 61  1  0
 60 66  1  0
 61 60  1  0
 62 61  2  0
 63 64  1  0
 63 57  2  0
 64 59  2  0
 65 58  1  0
 66 56  1  0
 68 70  2  0
 69 68  1  0
 71 69  1  0
 72 81  2  0
 72 77  1  0
 73 69  1  0
 73 77  1  0
 74 73  1  0
 75 76  1  0
 75 74  1  0
 76 72  1  0
 77 78  2  0
 78 79  1  0
 80 79  2  0
 81 80  1  0
 82 56  1  0
 82 83  1  0
 82 92  1  0
 83 86  1  0
 84 88  1  0
 84 83  1  0
 85 84  2  0
 88 87  1  0
 90 88  1  0
 90 91  1  0
 90 89  1  0
 92 95  1  1
 92 93  1  0
 94 92  1  0
M  ISO  4  11 100  19 100  54 101  55 101
M  END
>  <TORSDO>  (35) 
F 21

>  <SCORE>  (35) 
-12.972

>  <name>  (35) 
36

>  <ligand_id>  (35) 
36

>  <original_smiles>  (35) 
[H]c1c([H])c([H])c2c(c1[H])C([H])([H])C([H])([H])C([H])([H])C2([H])N([H])C(=O)C1([H])N(C(=O)C([H])(N([H])C(=O)C([H])(N([H])C([H])([H])[H])C([H])([H])[H])C(C([H])([H])[H])(C([H])([H])[H])C([H])([H])[H])C([H])([H])c2c([H])c(OC([H])([H])C([H])([H])[N+]([H])([H])C([H])([H])c3c([H])c([H])c(C([H])([H])N([H])C(=O)N4C([H])([H])C([H])([H])C([H])([H])C([H])(n5nc(-c6c([H])c([H])c(Oc7c([H])c([H])c(F)c([H])c7F)c([H])c6[H])c(C(=O)N([H])[H])c5N([H])[H])C4([H])[H])c4c3C([H])([H])C([H])([H])C4([H])[H])c([H])c([H])c2C1([H])[H]

>  <smiles>  (35) 
[H]c1c([H])c([H])c2c(c1[H])C([H])([H])C([H])([H])C([H])([H])C2([H])N([H])C(=O)C1([H])N(C(=O)C([H])(N([H])C(=O)C([H])(N([H])C([H])([H])[H])C([H])([H])[H])C(C([H])([H])[H])(C([H])([H])[H])C([H])([H])[H])C([H])([H])c2c([H])c(OC([H])([H])C([H])([H])[N+]([H])([H])C([H])([H])c3c([H])c([H])c(C([H])([H])N([H])C(=O)N4C([H])([H])C([H])([H])C([H])([H])C([H])(n5nc(-c6c([H])c([H])c(Oc7c([H])c([H])c(F)c([H])c7F)c([H])c6[H])c(C(=O)N([H])[H])c5N([H])[H])C4([H])[H])c4c3C([H])([H])C([H])([H])C4([H])[H])c([H])c([H])c2C1([H])[H]

$$$$
37:0:0
     RDKit          3D

 97105  0  0  1  0  0  0  0  0999 V2000
  -29.3720  -18.9490   19.5790 C   0  0  0  0  0  2  0  0  0  0  0  0
  -28.4820  -20.2680   19.8920 C   0  0  0  0  0  2  0  0  0  0  0  0
  -28.7460  -21.5730   19.1350 N   0  0  0  0  0  4  0  0  0  0  0  0
  -29.6890  -21.8590   19.3400 H   0  0  0  0  0  0  0  0  0  0  0  0
  -28.7020  -21.3860   18.1470 H   0  0  0  0  0  0  0  0  0  0  0  0
  -27.8220  -22.7600   19.4150 C   0  0  0  0  0  2  0  0  0  0  0  0
  -28.3220  -24.2570   19.0830 C   0  0  0  0  0  3  0  0  0  0  0  0
  -27.2330  -25.4300   19.1890 C   0  0  0  0  0  3  0  0  0  0  0  0
  -27.5800  -26.8830   19.2620 O   0  0  0  0  0  0  0  0  0  0  0  0
  -24.5000  -31.9710   23.4190 C   0  0  0  0  0  0  0  0  0  0  0  0
  -26.5210  -27.7940   19.4740 C   0  0  0  0  0  0  0  0  0  0  0  0
  -23.0560  -30.8650   21.7550 C   0  0  0  0  0  3  0  0  0  0  0  0
  -24.2600  -29.4900   19.9710 C   0  0  0  0  0  0  0  0  0  0  0  0
  -25.5740  -31.1160   21.3210 C   0  0  0  0  0  2  0  0  0  0  0  0
  -25.5130  -29.8390   20.4880 C   0  0  0  0  0  0  0  0  0  0  0  0
  -26.6470  -29.0030   20.2330 C   0  0  0  0  0  3  0  0  0  0  0  0
  -25.2390  -27.5190   18.9400 C   0  0  0  0  0  3  0  0  0  0  0  0
  -24.1250  -28.3370   19.1880 C   0  0  0  0  0  3  0  0  0  0  0  0
  -23.0830  -30.3920   20.2790 C   0  0  0  0  0  2  0  0  0  0  0  0
  -24.4040  -31.3260   22.2200 N   0  0  0  0  0  0  0  0  0  0  0  0
  -23.4970  -32.2040   24.1090 O   0  0  0  0  0  0  0  0  0  0  0  0
  -22.4530  -29.7410   22.6320 C   0  0  0  0  0  0  0  0  0  0  0  0
  -21.1300  -29.5310   22.5230 N   0  0  0  0  0  0  0  0  0  0  0  0
  -23.1750  -29.0670   23.3720 O   0  0  0  0  0  0  0  0  0  0  0  0
  -20.6030  -30.1340   21.9080 H   0  0  0  0  0  0  0  0  0  0  0  0
  -17.8380  -28.0660   22.8660 C   0  0  0  0  0  0  0  0  0  0  0  0
  -20.3630  -28.5010   23.2270 C   0  0  0  0  0  3  0  0  0  0  0  0
  -20.5870  -27.1080   22.5940 C   0  0  0  0  0  2  0  0  0  0  0  0
  -19.5410  -26.7510   21.5330 C   0  0  0  0  0  2  0  0  0  0  0  0
  -18.1350  -26.7650   22.1380 C   0  0  0  0  0  2  0  0  0  0  0  0
  -18.8850  -28.8880   23.3630 C   0  0  0  0  0  0  0  0  0  0  0  0
  -18.5540  -30.1030   24.0010 C   0  0  0  0  0  3  0  0  0  0  0  0
  -17.2110  -30.4980   24.1500 C   0  0  0  0  0  3  0  0  0  0  0  0
  -16.1800  -29.6720   23.6680 C   0  0  0  0  0  3  0  0  0  0  0  0
  -16.4940  -28.4590   23.0310 C   0  0  0  0  0  3  0  0  0  0  0  0
  -25.8730  -32.4650   23.9690 C   0  0  0  0  0  3  0  0  0  0  0  0
  -25.6950  -33.8490   24.4300 N   0  0  0  0  0  0  0  0  0  0  0  0
  -26.0550  -34.9370   23.7380 C   0  0  0  0  0  0  0  0  0  0  0  0
  -26.6450  -34.8750   22.6550 O   0  0  0  0  0  0  0  0  0  0  0  0
  -25.1710  -33.9750   25.2850 H   0  0  0  0  0  0  0  0  0  0  0  0
  -24.4560  -36.8780   23.6510 C   0  0  0  0  0  1  0  0  0  0  0  0
  -25.7090  -36.3130   24.3390 C   0  0  0  0  0  3  0  0  0  0  0  0
  -27.9530  -36.9720   25.0920 C   0  0  0  0  0  1  0  0  0  0  0  0
  -26.8120  -37.2940   24.2380 N   0  0  0  0  0  0  0  0  0  0  0  0
  -26.4880  -38.2270   24.4820 H   0  0  0  0  0  0  0  0  0  0  0  0
  -26.4370  -31.5590   25.1300 C   0  0  1  0  0  0  0  0  0  0  0  0
  -25.4240  -31.3120   26.2730 C   0  0  0  0  0  1  0  0  0  0  0  0
  -26.8790  -30.1810   24.5850 C   0  0  0  0  0  1  0  0  0  0  0  0
  -27.6960  -32.2160   25.7430 C   0  0  0  0  0  1  0  0  0  0  0  0
  -29.7740  -17.9770   20.8080 C   0  0  0  0  0  0  0  0  0  0  0  0
  -30.6050  -15.4140   20.5840 C   0  0  0  0  0  0  0  0  0  0  0  0
  -30.7230  -12.9740   20.0760 C   0  0  0  0  0  2  0  0  0  0  0  0
  -29.9170  -12.6840   18.7920 C   0  0  0  0  0  2  0  0  0  0  0  0
  -28.4310  -12.4450   19.1280 C   0  0  0  0  0  2  0  0  0  0  0  0
  -27.8490  -13.5340   20.0710 C   0  0  0  0  0  3  0  0  0  0  0  0
  -28.7860  -13.7920   21.2700 C   0  0  0  0  0  2  0  0  0  0  0  0
  -30.1070  -14.1450   20.7320 N   0  0  0  0  0  0  0  0  0  0  0  0
  -31.7780  -15.6080   20.2530 O   0  0  0  0  0  0  0  0  0  0  0  0
  -29.7080  -16.4550   20.6780 N   0  0  0  0  0  4  0  0  0  0  0  0
  -28.7730  -16.1020   20.8230 H   0  0  0  0  0  0  0  0  0  0  0  0
  -25.4210  -14.0790   20.7110 C   0  0  0  0  0  0  0  0  0  0  0  0
  -24.3530  -13.2830   21.0240 C   0  0  0  0  0  0  0  0  0  0  0  0
  -24.8380  -11.9400   20.9880 C   0  0  0  0  0  0  0  0  0  0  0  0
  -26.4870  -13.2190   20.5000 N   0  0  0  0  0  0  0  0  0  0  0  0
  -26.1410  -11.9270   20.7310 N   0  0  0  0  0  0  0  0  0  0  0  0
  -24.1250  -10.6640   21.1290 C   0  0  0  0  0  0  0  0  0  0  0  0
  -24.5160   -9.7010   22.0850 C   0  0  0  0  0  3  0  0  0  0  0  0
  -23.8040   -8.4900   22.2130 C   0  0  0  0  0  3  0  0  0  0  0  0
  -22.6870   -8.2320   21.3850 C   0  0  0  0  0  0  0  0  0  0  0  0
  -22.3160   -9.1850   20.4190 C   0  0  0  0  0  3  0  0  0  0  0  0
  -23.0280  -10.3880   20.2890 C   0  0  0  0  0  3  0  0  0  0  0  0
  -21.9490   -7.0750   21.4210 O   0  0  0  0  0  0  0  0  0  0  0  0
  -21.7990   -6.3510   22.5770 C   0  0  0  0  0  0  0  0  0  0  0  0
  -21.2200   -6.9110   23.7370 C   0  0  0  0  0  3  0  0  0  0  0  0
  -21.0220   -6.1130   24.8810 C   0  0  0  0  0  3  0  0  0  0  0  0
  -21.3910   -4.7550   24.8640 C   0  0  0  0  0  0  0  0  0  0  0  0
  -21.9600   -4.1930   23.7070 C   0  0  0  0  0  3  0  0  0  0  0  0
  -22.1600   -4.9880   22.5660 C   0  0  0  0  0  0  0  0  0  0  0  0
  -22.6900   -4.4370   21.4470 F   0  0  0  0  0  0  0  0  0  0  0  0
  -21.1930   -3.9850   25.9590 F   0  0  0  0  0  0  0  0  0  0  0  0
  -22.9370  -13.7350   21.2420 C   0  0  0  0  0  0  0  0  0  0  0  0
  -22.1870  -13.0260   22.0760 N   0  0  0  0  0  0  0  0  0  0  0  0
  -22.5030  -14.7520   20.7030 O   0  0  0  0  0  0  0  0  0  0  0  0
  -22.5460  -12.2070   22.5430 H   0  0  0  0  0  0  0  0  0  0  0  0
  -21.2350  -13.3110   22.2560 H   0  0  0  0  0  0  0  0  0  0  0  0
  -25.5630  -15.4550   20.5640 N   0  0  0  0  0  0  0  0  0  0  0  0
  -24.7650  -16.0750   20.6490 H   0  0  0  0  0  0  0  0  0  0  0  0
  -26.4000  -15.9250   20.2420 H   0  0  0  0  0  0  0  0  0  0  0  0
  -32.0750  -20.3440   22.8960 C   0  0  0  0  0  2  0  0  0  0  0  0
  -30.7210  -19.6740   22.6190 C   0  0  0  0  0  2  0  0  0  0  0  0
  -33.1230  -19.5450   22.1200 C   0  0  0  0  0  2  0  0  0  0  0  0
  -30.9840  -18.4760   21.6810 C   0  0  0  0  0  3  0  0  0  0  0  0
  -32.3550  -18.7880   21.0310 C   0  0  0  0  0  3  0  0  0  0  0  0
  -32.2520  -19.5670   19.7860 N   0  0  0  0  0  4  0  0  0  0  0  0
  -31.6560  -20.3690   19.8740 H   0  0  0  0  0  0  0  0  0  0  0  0
  -31.9010  -18.9400   19.0700 H   0  0  0  0  0  0  0  0  0  0  0  0
  -33.1620  -19.8690   19.4870 H   0  0  0  0  0  0  0  0  0  0  0  0
  1  2  1  0
  1 50  1  0
  3  4  1  0
  3  6  1  0
  3  2  1  0
  5  3  1  0
  7  8  2  0
  7  6  1  0
  8  9  1  0
  9 11  1  0
 10 21  2  0
 11 16  1  0
 12 20  1  0
 12 22  1  0
 13 19  1  0
 13 15  1  0
 14 20  1  0
 15 14  1  0
 16 15  2  0
 17 18  1  0
 17 11  2  0
 18 13  2  0
 19 12  1  0
 20 10  1  0
 22 24  2  0
 23 22  1  0
 25 23  1  0
 26 35  2  0
 26 31  1  0
 27 23  1  0
 27 31  1  0
 28 27  1  0
 29 30  1  0
 29 28  1  0
 30 26  1  0
 31 32  2  0
 32 33  1  0
 34 33  2  0
 35 34  1  0
 36 10  1  0
 36 37  1  0
 36 46  1  0
 37 40  1  0
 38 42  1  0
 38 37  1  0
 39 38  2  0
 42 41  1  0
 44 42  1  0
 44 45  1  0
 44 43  1  0
 46 49  1  1
 46 47  1  0
 48 46  1  0
 51 59  1  0
 51 57  1  0
 52 57  1  0
 53 54  1  0
 53 52  1  0
 55 54  1  0
 55 64  1  0
 55 56  1  0
 57 56  1  0
 58 51  2  0
 59 50  2  0
 59 60  1  0
 61 62  2  0
 62 81  1  0
 63 62  1  0
 63 66  1  0
 64 61  1  0
 64 65  1  0
 65 63  2  0
 66 67  1  0
 67 68  2  0
 69 72  1  0
 69 68  1  0
 70 69  2  0
 71 70  1  0
 71 66  2  0
 72 73  1  0
 73 74  1  0
 74 75  2  0
 76 75  1  0
 76 80  1  0
 77 76  2  0
 78 73  2  0
 78 77  1  0
 79 78  1  0
 81 82  1  0
 82 85  1  0
 82 84  1  0
 83 81  2  0
 86 87  1  0
 86 61  1  0
 88 86  1  0
 90 89  1  0
 91 89  1  0
 92 50  1  0
 92 90  1  0
 93 94  1  0
 93 92  1  0
 93 91  1  0
 94 95  1  0
 96 94  1  0
 97 94  1  0
M  ISO  4   8 101   9 101  51 100  59 100
M  END
>  <TORSDO>  (36) 
F 24

>  <SCORE>  (36) 
-11.770

>  <name>  (36) 
37

>  <ligand_id>  (36) 
37

>  <original_smiles>  (36) 
[H]c1c([H])c([H])c2c(c1[H])C([H])([H])C([H])([H])C([H])([H])C2([H])N([H])C(=O)C1([H])N(C(=O)C([H])(N([H])C(=O)C([H])(N([H])C([H])([H])[H])C([H])([H])[H])C(C([H])([H])[H])(C([H])([H])[H])C([H])([H])[H])C([H])([H])c2c([H])c(OC([H])([H])C([H])([H])C([H])([H])[N+]([H])([H])C([H])([H])C([H])([H])C([H])(N([H])C(=O)N3C([H])([H])C([H])([H])C([H])([H])C([H])(n4nc(-c5c([H])c([H])c(Oc6c([H])c([H])c(F)c([H])c6F)c([H])c5[H])c(C(=O)N([H])[H])c4N([H])[H])C3([H])[H])C3([H])C([H])([H])C([H])([H])C([H])([H])C3([H])[N+]([H])([H])[H])c([H])c([H])c2C1([H])[H]

>  <smiles>  (36) 
[H]c1c([H])c([H])c2c(c1[H])C([H])([H])C([H])([H])C([H])([H])C2([H])N([H])C(=O)C1([H])N(C(=O)C([H])(N([H])C(=O)C([H])(N([H])C([H])([H])[H])C([H])([H])[H])C(C([H])([H])[H])(C([H])([H])[H])C([H])([H])[H])C([H])([H])c2c([H])c(OC([H])([H])C([H])([H])C([H])([H])[N+]([H])([H])C([H])([H])C([H])([H])C([H])(N([H])C(=O)N3C([H])([H])C([H])([H])C([H])([H])C([H])(n4nc(-c5c([H])c([H])c(Oc6c([H])c([H])c(F)c([H])c6F)c([H])c5[H])c(C(=O)N([H])[H])c4N([H])[H])C3([H])[H])C3([H])C([H])([H])C([H])([H])C([H])([H])C3([H])[N+]([H])([H])[H])c([H])c([H])c2C1([H])[H]

$$$$
39:0:0
     RDKit          3D

 91100  0  0  1  0  0  0  0  0999 V2000
  -31.0690  -19.6230   18.9110 C   0  0  0  0  0  2  0  0  0  0  0  0
  -31.2540  -19.2750   20.3990 C   0  0  0  0  0  2  0  0  0  0  0  0
  -29.1010  -18.1000   18.8140 C   0  0  0  0  0  2  0  0  0  0  0  0
  -29.2660  -17.6710   20.2890 C   0  0  0  0  0  3  0  0  0  0  0  0
  -29.5270  -19.6230   18.7810 C   0  0  0  0  0  3  0  0  0  0  0  0
  -29.7920  -19.1380   20.8550 C   0  0  0  0  0  3  0  0  0  0  0  0
  -29.0770  -20.2810   20.0510 N   0  0  1  0  0  4  0  0  0  0  0  0
  -28.0760  -20.1740   20.1380 H   0  0  0  0  0  0  0  0  0  0  0  0
  -30.4420  -15.0240   20.3830 C   0  0  0  0  0  0  0  0  0  0  0  0
  -30.3950  -12.6450   19.4770 C   0  0  0  0  0  2  0  0  0  0  0  0
  -29.4780  -12.5940   18.2300 C   0  0  0  0  0  2  0  0  0  0  0  0
  -28.0060  -12.3870   18.6330 C   0  0  0  0  0  2  0  0  0  0  0  0
  -27.5840  -13.3080   19.8080 C   0  0  0  0  0  3  0  0  0  0  0  0
  -28.6220  -13.3040   20.9520 C   0  0  0  0  0  2  0  0  0  0  0  0
  -29.9050  -13.7320   20.3770 N   0  0  0  0  0  0  0  0  0  0  0  0
  -31.6130  -15.1470   20.0070 O   0  0  0  0  0  0  0  0  0  0  0  0
  -29.5890  -16.1350   20.6510 N   0  0  0  0  0  0  0  0  0  0  0  0
  -28.7670  -15.7480   21.0940 H   0  0  0  0  0  0  0  0  0  0  0  0
  -25.1910  -13.8960   20.4970 C   0  0  0  0  0  0  0  0  0  0  0  0
  -24.1200  -13.1270   20.8590 C   0  0  0  0  0  0  0  0  0  0  0  0
  -24.5820  -11.7750   20.8480 C   0  0  0  0  0  0  0  0  0  0  0  0
  -26.2370  -13.0150   20.2830 N   0  0  0  0  0  0  0  0  0  0  0  0
  -25.8790  -11.7340   20.5580 N   0  0  0  0  0  0  0  0  0  0  0  0
  -23.8500  -10.5160   21.0380 C   0  0  0  0  0  0  0  0  0  0  0  0
  -24.2690   -9.5520   21.9810 C   0  0  0  0  0  3  0  0  0  0  0  0
  -23.5370   -8.3590   22.1600 C   0  0  0  0  0  3  0  0  0  0  0  0
  -22.3700   -8.1210   21.3960 C   0  0  0  0  0  0  0  0  0  0  0  0
  -21.9680   -9.0740   20.4420 C   0  0  0  0  0  3  0  0  0  0  0  0
  -22.7020  -10.2580   20.2610 C   0  0  0  0  0  3  0  0  0  0  0  0
  -21.6090   -6.9800   21.4820 O   0  0  0  0  0  0  0  0  0  0  0  0
  -21.5510   -6.2390   22.6360 C   0  0  0  0  0  0  0  0  0  0  0  0
  -21.1270   -6.8000   23.8600 C   0  0  0  0  0  3  0  0  0  0  0  0
  -21.0170   -5.9870   25.0070 C   0  0  0  0  0  3  0  0  0  0  0  0
  -21.3200   -4.6140   24.9280 C   0  0  0  0  0  0  0  0  0  0  0  0
  -21.7360   -4.0530   23.7080 C   0  0  0  0  0  3  0  0  0  0  0  0
  -21.8480   -4.8630   22.5640 C   0  0  0  0  0  0  0  0  0  0  0  0
  -22.2290   -4.3130   21.3860 F   0  0  0  0  0  0  0  0  0  0  0  0
  -21.2070   -3.8310   26.0260 F   0  0  0  0  0  0  0  0  0  0  0  0
  -22.7200  -13.6100   21.1020 C   0  0  0  0  0  0  0  0  0  0  0  0
  -21.9750  -12.9230   21.9610 N   0  0  0  0  0  0  0  0  0  0  0  0
  -22.2940  -14.6310   20.5650 O   0  0  0  0  0  0  0  0  0  0  0  0
  -22.3310  -12.0970   22.4190 H   0  0  0  0  0  0  0  0  0  0  0  0
  -21.0340  -13.2280   22.1640 H   0  0  0  0  0  0  0  0  0  0  0  0
  -25.3610  -15.2660   20.3060 N   0  0  0  0  0  0  0  0  0  0  0  0
  -24.5890  -15.9200   20.3850 H   0  0  0  0  0  0  0  0  0  0  0  0
  -26.1990  -15.6890   19.9270 H   0  0  0  0  0  0  0  0  0  0  0  0
  -29.4150  -21.8620   20.0960 C   0  0  0  0  0  2  0  0  0  0  0  0
  -28.3770  -23.3720   21.9810 C   0  0  0  0  0  1  0  0  0  0  0  0
  -28.3820  -23.1750   20.4580 C   0  0  0  0  0  3  0  0  0  0  0  0
  -28.4510  -24.7230   19.7280 C   0  0  0  0  0  2  0  0  0  0  0  0
  -28.3300  -26.1870   20.2850 O   0  0  0  0  0  0  0  0  0  0  0  0
  -24.6650  -31.8660   23.2040 C   0  0  0  0  0  0  0  0  0  0  0  0
  -27.2490  -27.1450   20.1630 C   0  0  0  0  0  0  0  0  0  0  0  0
  -23.4610  -30.4630   21.5720 C   0  0  0  0  0  3  0  0  0  0  0  0
  -24.9080  -28.8870   20.1350 C   0  0  0  0  0  0  0  0  0  0  0  0
  -26.0110  -30.7350   21.3920 C   0  0  0  0  0  2  0  0  0  0  0  0
  -26.0860  -29.3400   20.7410 C   0  0  0  0  0  0  0  0  0  0  0  0
  -27.2490  -28.4820   20.7410 C   0  0  0  0  0  3  0  0  0  0  0  0
  -26.0460  -26.7940   19.5150 C   0  0  0  0  0  3  0  0  0  0  0  0
  -24.9020  -27.6310   19.5060 C   0  0  0  0  0  3  0  0  0  0  0  0
  -23.6770  -29.7810   20.1920 C   0  0  0  0  0  2  0  0  0  0  0  0
  -24.7330  -31.0460   22.1100 N   0  0  0  0  0  0  0  0  0  0  0  0
  -23.5820  -32.1470   23.7390 O   0  0  0  0  0  0  0  0  0  0  0  0
  -22.7910  -29.4580   22.5420 C   0  0  0  0  0  0  0  0  0  0  0  0
  -21.4620  -29.2870   22.4280 N   0  0  0  0  0  0  0  0  0  0  0  0
  -23.4700  -28.8330   23.3610 O   0  0  0  0  0  0  0  0  0  0  0  0
  -20.9710  -29.8390   21.7390 H   0  0  0  0  0  0  0  0  0  0  0  0
  -18.0880  -28.0770   22.9530 C   0  0  0  0  0  0  0  0  0  0  0  0
  -20.6480  -28.3480   23.2050 C   0  0  0  0  0  3  0  0  0  0  0  0
  -20.7510  -26.9160   22.6300 C   0  0  0  0  0  2  0  0  0  0  0  0
  -19.6450  -26.5880   21.6230 C   0  0  0  0  0  2  0  0  0  0  0  0
  -18.2660  -26.7280   22.2750 C   0  0  0  0  0  2  0  0  0  0  0  0
  -19.2060  -28.8440   23.3750 C   0  0  0  0  0  0  0  0  0  0  0  0
  -18.9850  -30.1050   23.9710 C   0  0  0  0  0  3  0  0  0  0  0  0
  -17.6790  -30.5990   24.1480 C   0  0  0  0  0  3  0  0  0  0  0  0
  -16.5760  -29.8290   23.7420 C   0  0  0  0  0  3  0  0  0  0  0  0
  -16.7810  -28.5690   23.1500 C   0  0  0  0  0  3  0  0  0  0  0  0
  -25.9440  -32.5090   23.8250 C   0  0  0  0  0  3  0  0  0  0  0  0
  -26.4690  -31.7390   25.0980 C   0  0  1  0  0  0  0  0  0  0  0  0
  -25.3830  -31.4960   26.1730 C   0  0  0  0  0  1  0  0  0  0  0  0
  -27.0530  -30.3640   24.7030 C   0  0  0  0  0  1  0  0  0  0  0  0
  -27.6220  -32.5340   25.7550 C   0  0  0  0  0  1  0  0  0  0  0  0
  -25.6240  -33.9050   24.1690 N   0  0  0  0  0  0  0  0  0  0  0  0
  -25.9420  -34.9700   23.4200 C   0  0  0  0  0  0  0  0  0  0  0  0
  -26.6010  -34.8810   22.3810 O   0  0  0  0  0  0  0  0  0  0  0  0
  -25.0400  -34.0450   24.9790 H   0  0  0  0  0  0  0  0  0  0  0  0
  -24.1990  -36.7580   23.1110 C   0  0  0  0  0  1  0  0  0  0  0  0
  -25.4530  -36.3520   23.9000 C   0  0  0  0  0  3  0  0  0  0  0  0
  -27.5950  -37.2430   24.7080 C   0  0  0  0  0  1  0  0  0  0  0  0
  -26.4780  -37.4130   23.7830 N   0  0  0  0  0  0  0  0  0  0  0  0
  -26.0680  -38.3280   23.9450 H   0  0  0  0  0  0  0  0  0  0  0  0
  1  2  1  0
  3  4  1  0
  4 17  1  0
  4  6  1  0
  5  3  1  0
  5  1  1  0
  5  7  1  0
  6  2  1  0
  7 47  1  0
  7  8  1  6
  7  6  1  0
  9 17  1  0
 10 15  1  0
 11 12  1  0
 11 10  1  0
 13 12  1  0
 13 22  1  0
 13 14  1  0
 15  9  1  0
 15 14  1  0
 16  9  2  0
 17 18  1  0
 19 20  2  0
 20 39  1  0
 21 20  1  0
 21 24  1  0
 22 19  1  0
 22 23  1  0
 23 21  2  0
 24 25  1  0
 25 26  2  0
 27 30  1  0
 27 26  1  0
 28 27  2  0
 29 28  1  0
 29 24  2  0
 30 31  1  0
 31 32  1  0
 32 33  2  0
 34 33  1  0
 34 38  1  0
 35 34  2  0
 36 31  2  0
 36 35  1  0
 37 36  1  0
 39 40  1  0
 40 43  1  0
 40 42  1  0
 41 39  2  0
 44 45  1  0
 44 19  1  0
 46 44  1  0
 47 49  1  0
 49 48  1  0
 50 51  1  0
 50 49  1  0
 52 63  2  0
 53 51  1  0
 53 58  1  0
 54 62  1  0
 54 64  1  0
 55 61  1  0
 55 57  1  0
 56 62  1  0
 57 56  1  0
 58 57  2  0
 59 53  2  0
 60 59  1  0
 60 55  2  0
 61 54  1  0
 62 52  1  0
 64 66  2  0
 65 64  1  0
 67 65  1  0
 68 77  2  0
 68 73  1  0
 69 65  1  0
 69 73  1  0
 70 69  1  0
 71 72  1  0
 71 70  1  0
 72 68  1  0
 73 74  2  0
 74 75  1  0
 76 75  2  0
 77 76  1  0
 78 52  1  0
 78 83  1  0
 78 79  1  0
 79 82  1  1
 79 80  1  0
 81 79  1  0
 83 86  1  0
 84 88  1  0
 84 83  1  0
 85 84  2  0
 88 87  1  0
 90 88  1  0
 90 91  1  0
 90 89  1  0
M  ISO  4   9 100  17 100  50 101  51 101
M  END
>  <TORSDO>  (37) 
F 19

>  <SCORE>  (37) 
-15.452

>  <name>  (37) 
39

>  <ligand_id>  (37) 
39

>  <original_smiles>  (37) 
[H]c1c([H])c([H])c2c(c1[H])C([H])([H])C([H])([H])C([H])([H])C2([H])N([H])C(=O)C1([H])N(C(=O)C([H])(N([H])C(=O)C([H])(N([H])C([H])([H])[H])C([H])([H])[H])C(C([H])([H])[H])(C([H])([H])[H])C([H])([H])[H])C([H])([H])c2c([H])c(OC([H])([H])C([H])(C([H])([H])[H])C([H])([H])[N+]3([H])C4([H])C([H])([H])C([H])([H])C3([H])C([H])(N([H])C(=O)N3C([H])([H])C([H])([H])C([H])([H])C([H])(n5nc(-c6c([H])c([H])c(Oc7c([H])c([H])c(F)c([H])c7F)c([H])c6[H])c(C(=O)N([H])[H])c5N([H])[H])C3([H])[H])C4([H])[H])c([H])c([H])c2C1([H])[H]

>  <smiles>  (37) 
[H]c1c([H])c([H])c2c(c1[H])C([H])([H])C([H])([H])C([H])([H])C2([H])N([H])C(=O)C1([H])N(C(=O)C([H])(N([H])C(=O)C([H])(N([H])C([H])([H])[H])C([H])([H])[H])C(C([H])([H])[H])(C([H])([H])[H])C([H])([H])[H])C([H])([H])c2c([H])c(OC([H])([H])C([H])(C([H])([H])[H])C([H])([H])[N+]3([H])C4([H])C([H])([H])C([H])([H])C3([H])C([H])(N([H])C(=O)N3C([H])([H])C([H])([H])C([H])([H])C([H])(n5nc(-c6c([H])c([H])c(Oc7c([H])c([H])c(F)c([H])c7F)c([H])c6[H])c(C(=O)N([H])[H])c5N([H])[H])C3([H])[H])C4([H])[H])c([H])c([H])c2C1([H])[H]

$$$$
40:0:0
     RDKit          3D

 96106  0  0  1  0  0  0  0  0999 V2000
  -31.5230  -19.5360   19.0260 C   0  0  0  0  0  2  0  0  0  0  0  0
  -32.2440  -20.8690   18.8600 C   0  0  0  0  0  2  0  0  0  0  0  0
  -31.5330  -23.2670   19.5350 C   0  0  0  0  0  2  0  0  0  0  0  0
  -29.3480  -22.4540   19.0910 C   0  0  0  0  0  2  0  0  0  0  0  0
  -30.0350  -19.9240   19.1360 C   0  0  0  0  0  3  0  0  0  0  0  0
  -31.5280  -21.7700   19.8670 C   0  0  0  0  0  3  0  0  0  0  0  0
  -30.0620  -21.3150   19.8290 C   0  0  0  0  0  3  0  0  0  0  0  0
  -30.1120  -23.6640   19.4580 N   0  0  2  0  0  4  0  0  0  0  0  0
  -29.8200  -23.8870   20.3970 H   0  0  0  0  0  0  0  0  0  0  0  0
  -29.1470  -18.8760   19.8380 C   0  0  0  0  0  0  0  0  0  0  0  0
  -28.1980  -19.2210   20.5480 O   0  0  0  0  0  0  0  0  0  0  0  0
  -29.4070  -17.3870   19.5710 C   0  0  0  0  0  2  0  0  0  0  0  0
  -30.8730  -14.3950   19.8620 C   0  0  0  0  0  0  0  0  0  0  0  0
  -30.4380  -12.2370   18.7450 C   0  0  0  0  0  2  0  0  0  0  0  0
  -29.3980  -12.4090   17.6220 C   0  0  0  0  0  2  0  0  0  0  0  0
  -27.9670  -12.2890   18.1850 C   0  0  0  0  0  2  0  0  0  0  0  0
  -27.7360  -13.1700   19.4410 C   0  0  0  0  0  3  0  0  0  0  0  0
  -28.8770  -12.9740   20.4610 C   0  0  0  0  0  2  0  0  0  0  0  0
  -30.1560  -13.2430   19.7790 N   0  0  0  0  0  0  0  0  0  0  0  0
  -31.8710  -14.6110   19.1650 O   0  0  0  0  0  0  0  0  0  0  0  0
  -30.6050  -16.9930   21.9190 C   0  0  0  0  0  2  0  0  0  0  0  0
  -30.8660  -15.5020   22.0410 C   0  0  0  0  0  2  0  0  0  0  0  0
  -30.5550  -16.7990   20.4100 C   0  0  0  0  0  3  0  0  0  0  0  0
  -30.3660  -15.3530   20.6670 N   0  0  0  0  0  0  0  0  0  0  0  0
  -25.4400  -13.8200   20.4150 C   0  0  0  0  0  0  0  0  0  0  0  0
  -24.3900  -13.0650   20.8610 C   0  0  0  0  0  0  0  0  0  0  0  0
  -24.7940  -11.7030   20.7180 C   0  0  0  0  0  0  0  0  0  0  0  0
  -26.4250  -12.9180   20.0410 N   0  0  0  0  0  0  0  0  0  0  0  0
  -26.0440  -11.6380   20.2780 N   0  0  0  0  0  0  0  0  0  0  0  0
  -24.0470  -10.4540   20.9230 C   0  0  0  0  0  0  0  0  0  0  0  0
  -24.4850   -9.4710   21.8370 C   0  0  0  0  0  3  0  0  0  0  0  0
  -23.7380   -8.2890   22.0270 C   0  0  0  0  0  3  0  0  0  0  0  0
  -22.5390   -8.0830   21.3050 C   0  0  0  0  0  0  0  0  0  0  0  0
  -22.1210   -9.0530   20.3780 C   0  0  0  0  0  3  0  0  0  0  0  0
  -22.8680  -10.2270   20.1850 C   0  0  0  0  0  3  0  0  0  0  0  0
  -21.7640   -6.9510   21.4050 O   0  0  0  0  0  0  0  0  0  0  0  0
  -21.6700   -6.2430   22.5770 C   0  0  0  0  0  0  0  0  0  0  0  0
  -21.1860   -6.8300   23.7660 C   0  0  0  0  0  3  0  0  0  0  0  0
  -21.0440   -6.0480   24.9290 C   0  0  0  0  0  3  0  0  0  0  0  0
  -21.3740   -4.6800   24.9030 C   0  0  0  0  0  0  0  0  0  0  0  0
  -21.8490   -4.0920   23.7170 C   0  0  0  0  0  3  0  0  0  0  0  0
  -21.9940   -4.8710   22.5560 C   0  0  0  0  0  0  0  0  0  0  0  0
  -22.4320   -4.2960   21.4110 F   0  0  0  0  0  0  0  0  0  0  0  0
  -21.2290   -3.9250   26.0160 F   0  0  0  0  0  0  0  0  0  0  0  0
  -23.0440  -13.5700   21.3000 C   0  0  0  0  0  0  0  0  0  0  0  0
  -22.3890  -12.8610   22.2140 N   0  0  0  0  0  0  0  0  0  0  0  0
  -22.5870  -14.6250   20.8660 O   0  0  0  0  0  0  0  0  0  0  0  0
  -22.7770  -12.0100   22.5940 H   0  0  0  0  0  0  0  0  0  0  0  0
  -21.4840  -13.1750   22.5360 H   0  0  0  0  0  0  0  0  0  0  0  0
  -25.6350  -15.1900   20.2800 N   0  0  0  0  0  0  0  0  0  0  0  0
  -24.9060  -15.8650   20.4820 H   0  0  0  0  0  0  0  0  0  0  0  0
  -26.4650  -15.6100   19.8780 H   0  0  0  0  0  0  0  0  0  0  0  0
  -29.8530  -24.8580   18.6210 C   0  0  0  0  0  2  0  0  0  0  0  0
  -30.4820  -26.1280   19.2400 C   0  0  0  0  0  2  0  0  0  0  0  0
  -29.4710  -27.2680   19.3890 C   0  0  0  0  0  2  0  0  0  0  0  0
  -28.4430  -26.7660   20.2270 O   0  0  0  0  0  0  0  0  0  0  0  0
  -24.5570  -31.8490   23.2770 C   0  0  0  0  0  0  0  0  0  0  0  0
  -27.2900  -27.4950   20.2090 C   0  0  0  0  0  0  0  0  0  0  0  0
  -23.3910  -30.4570   21.5950 C   0  0  0  0  0  3  0  0  0  0  0  0
  -24.8800  -28.9420   20.1910 C   0  0  0  0  0  0  0  0  0  0  0  0
  -25.9090  -30.8470   21.4450 C   0  0  0  0  0  2  0  0  0  0  0  0
  -26.0200  -29.4830   20.8010 C   0  0  0  0  0  0  0  0  0  0  0  0
  -27.2300  -28.7650   20.8130 C   0  0  0  0  0  3  0  0  0  0  0  0
  -26.1410  -26.9450   19.6090 C   0  0  0  0  0  3  0  0  0  0  0  0
  -24.9300  -27.6670   19.5950 C   0  0  0  0  0  3  0  0  0  0  0  0
  -23.6330  -29.7950   20.2130 C   0  0  0  0  0  2  0  0  0  0  0  0
  -24.6370  -31.0620   22.1670 N   0  0  0  0  0  0  0  0  0  0  0  0
  -23.4660  -32.1090   23.7970 O   0  0  0  0  0  0  0  0  0  0  0  0
  -22.7230  -29.4250   22.5310 C   0  0  0  0  0  0  0  0  0  0  0  0
  -21.3980  -29.2570   22.3840 N   0  0  0  0  0  0  0  0  0  0  0  0
  -23.3910  -28.7810   23.3450 O   0  0  0  0  0  0  0  0  0  0  0  0
  -20.9210  -29.8310   21.7030 H   0  0  0  0  0  0  0  0  0  0  0  0
  -18.0030  -28.1140   22.8510 C   0  0  0  0  0  0  0  0  0  0  0  0
  -20.5640  -28.3150   23.1310 C   0  0  0  0  0  3  0  0  0  0  0  0
  -20.6410  -26.8980   22.5160 C   0  0  0  0  0  2  0  0  0  0  0  0
  -19.5340  -26.6220   21.4940 C   0  0  0  0  0  2  0  0  0  0  0  0
  -18.1550  -26.7780   22.1420 C   0  0  0  0  0  2  0  0  0  0  0  0
  -19.1360  -28.8410   23.2990 C   0  0  0  0  0  0  0  0  0  0  0  0
  -18.9430  -30.0930   23.9240 C   0  0  0  0  0  3  0  0  0  0  0  0
  -17.6490  -30.6150   24.1030 C   0  0  0  0  0  3  0  0  0  0  0  0
  -16.5290  -29.8830   23.6690 C   0  0  0  0  0  3  0  0  0  0  0  0
  -16.7080  -28.6340   23.0490 C   0  0  0  0  0  3  0  0  0  0  0  0
  -25.8290  -32.4750   23.9290 C   0  0  0  0  0  3  0  0  0  0  0  0
  -25.5120  -33.8680   24.2700 N   0  0  0  0  0  0  0  0  0  0  0  0
  -25.8600  -34.9290   23.5300 C   0  0  0  0  0  0  0  0  0  0  0  0
  -26.5540  -34.8400   22.5140 O   0  0  0  0  0  0  0  0  0  0  0  0
  -24.8940  -34.0130   25.0570 H   0  0  0  0  0  0  0  0  0  0  0  0
  -24.1410  -36.7250   23.1460 C   0  0  0  0  0  1  0  0  0  0  0  0
  -25.3560  -36.3110   23.9910 C   0  0  0  0  0  3  0  0  0  0  0  0
  -27.4610  -37.1840   24.9050 C   0  0  0  0  0  1  0  0  0  0  0  0
  -26.3910  -37.3650   23.9270 N   0  0  0  0  0  0  0  0  0  0  0  0
  -25.9810  -38.2840   24.0730 H   0  0  0  0  0  0  0  0  0  0  0  0
  -26.3280  -31.6850   25.2010 C   0  0  1  0  0  0  0  0  0  0  0  0
  -25.2200  -31.4180   26.2450 C   0  0  0  0  0  1  0  0  0  0  0  0
  -26.9290  -30.3210   24.7890 C   0  0  0  0  0  1  0  0  0  0  0  0
  -27.4590  -32.4780   25.8990 C   0  0  0  0  0  1  0  0  0  0  0  0
  1  5  1  0
  2  1  1  0
  3  6  1  0
  4  8  1  0
  5  7  1  0
  5 10  1  0
  6  2  1  0
  7  4  1  0
  7  6  1  0
  8  3  1  0
  8  9  1  1
 10 11  2  0
 12 10  1  0
 13 24  1  0
 14 19  1  0
 15 16  1  0
 15 14  1  0
 17 16  1  0
 17 28  1  0
 17 18  1  0
 19 13  1  0
 19 18  1  0
 20 13  2  0
 21 22  1  0
 23 12  1  0
 23 24  1  0
 23 21  1  0
 24 22  1  0
 25 26  2  0
 26 45  1  0
 27 26  1  0
 27 30  1  0
 28 29  1  0
 28 25  1  0
 29 27  2  0
 30 31  1  0
 31 32  2  0
 33 36  1  0
 33 32  1  0
 34 33  2  0
 35 34  1  0
 35 30  2  0
 36 37  1  0
 37 38  1  0
 38 39  2  0
 40 39  1  0
 40 44  1  0
 41 40  2  0
 42 37  2  0
 42 41  1  0
 43 42  1  0
 45 46  1  0
 46 49  1  0
 46 48  1  0
 47 45  2  0
 50 25  1  0
 50 51  1  0
 52 50  1  0
 53 54  1  0
 53  8  1  0
 54 55  1  0
 55 56  1  0
 57 68  2  0
 58 56  1  0
 58 63  1  0
 59 67  1  0
 59 69  1  0
 60 66  1  0
 60 62  1  0
 61 67  1  0
 62 63  2  0
 62 61  1  0
 64 58  2  0
 65 64  1  0
 65 60  2  0
 66 59  1  0
 67 57  1  0
 69 71  2  0
 70 69  1  0
 72 70  1  0
 73 82  2  0
 73 78  1  0
 74 70  1  0
 74 78  1  0
 75 74  1  0
 76 77  1  0
 76 75  1  0
 77 73  1  0
 78 79  2  0
 79 80  1  0
 81 80  2  0
 82 81  1  0
 83 57  1  0
 83 84  1  0
 83 93  1  0
 84 87  1  0
 85 89  1  0
 85 84  1  0
 86 85  2  0
 89 88  1  0
 91 89  1  0
 91 92  1  0
 91 90  1  0
 93 96  1  1
 93 94  1  0
 95 93  1  0
M  ISO  4  13 100  24 100  55 101  56 101
M  END
>  <TORSDO>  (38) 
F 21

>  <SCORE>  (38) 
-13.287

>  <name>  (38) 
40

>  <ligand_id>  (38) 
40

>  <original_smiles>  (38) 
[H]c1c([H])c([H])c2c(c1[H])C([H])([H])C([H])([H])C([H])([H])C2([H])N([H])C(=O)C1([H])N(C(=O)C([H])(N([H])C(=O)C([H])(N([H])C([H])([H])[H])C([H])([H])[H])C(C([H])([H])[H])(C([H])([H])[H])C([H])([H])[H])C([H])([H])c2c([H])c(OC([H])([H])C([H])([H])C([H])([H])[N+]3([H])C([H])([H])C4([H])C([H])([H])C([H])([H])C([H])(C(=O)C([H])([H])C5([H])N(C(=O)N6C([H])([H])C([H])([H])C([H])([H])C([H])(n7nc(-c8c([H])c([H])c(Oc9c([H])c([H])c(F)c([H])c9F)c([H])c8[H])c(C(=O)N([H])[H])c7N([H])[H])C6([H])[H])C([H])([H])C5([H])[H])C4([H])C3([H])[H])c([H])c([H])c2C1([H])[H]

>  <smiles>  (38) 
[H]c1c([H])c([H])c2c(c1[H])C([H])([H])C([H])([H])C([H])([H])C2([H])N([H])C(=O)C1([H])N(C(=O)C([H])(N([H])C(=O)C([H])(N([H])C([H])([H])[H])C([H])([H])[H])C(C([H])([H])[H])(C([H])([H])[H])C([H])([H])[H])C([H])([H])c2c([H])c(OC([H])([H])C([H])([H])C([H])([H])[N+]3([H])C([H])([H])C4([H])C([H])([H])C([H])([H])C([H])(C(=O)C([H])([H])C5([H])N(C(=O)N6C([H])([H])C([H])([H])C([H])([H])C([H])(n7nc(-c8c([H])c([H])c(Oc9c([H])c([H])c(F)c([H])c9F)c([H])c8[H])c(C(=O)N([H])[H])c7N([H])[H])C6([H])[H])C([H])([H])C5([H])[H])C4([H])C3([H])[H])c([H])c([H])c2C1([H])[H]

$$$$
41:0:0
     RDKit          3D

 90 99  0  0  1  0  0  0  0  0999 V2000
  -30.0500  -21.0990   21.5350 C   0  0  0  0  0  3  0  0  0  0  0  0
  -30.6210  -18.6470   21.5570 C   0  0  0  0  0  3  0  0  0  0  0  0
  -29.2230  -21.0690   20.3940 C   0  0  0  0  0  0  0  0  0  0  0  0
  -30.7300  -19.9690   22.0750 C   0  0  0  0  0  0  0  0  0  0  0  0
  -29.1610  -19.5970   19.8780 C   0  0  0  0  0  0  0  0  0  0  0  0
  -29.8070  -18.3050   20.4530 C   0  0  0  0  0  0  0  0  0  0  0  0
  -31.6290  -20.2070   23.2770 C   0  0  0  0  0  1  0  0  0  0  0  0
  -28.4660  -19.3710   18.5520 C   0  0  0  0  0  1  0  0  0  0  0  0
  -30.4180  -15.4220   20.1880 C   0  0  0  0  0  0  0  0  0  0  0  0
  -30.3740  -12.9660   19.2930 C   0  0  0  0  0  2  0  0  0  0  0  0
  -29.4190  -12.7050   18.1030 C   0  0  0  0  0  2  0  0  0  0  0  0
  -27.9870  -12.4190   18.5930 C   0  0  0  0  0  2  0  0  0  0  0  0
  -27.5500  -13.4000   19.7080 C   0  0  0  0  0  3  0  0  0  0  0  0
  -28.6380  -13.5980   20.7880 C   0  0  0  0  0  2  0  0  0  0  0  0
  -29.8320  -14.1200   20.1010 N   0  0  0  0  0  0  0  0  0  0  0  0
  -31.6490  -15.3870   20.0460 O   0  0  0  0  0  0  0  0  0  0  0  0
  -29.6570  -16.7110   20.1300 N   0  0  0  0  0  0  0  0  0  0  0  0
  -28.6980  -16.4870   19.9140 H   0  0  0  0  0  0  0  0  0  0  0  0
  -25.2020  -13.9390   20.5500 C   0  0  0  0  0  0  0  0  0  0  0  0
  -24.1490  -13.1570   20.9310 C   0  0  0  0  0  0  0  0  0  0  0  0
  -24.6160  -11.8060   20.8680 C   0  0  0  0  0  0  0  0  0  0  0  0
  -26.2400  -13.0710   20.2620 N   0  0  0  0  0  0  0  0  0  0  0  0
  -25.9020  -11.7810   20.5240 N   0  0  0  0  0  0  0  0  0  0  0  0
  -23.8910  -10.5420   21.0520 C   0  0  0  0  0  0  0  0  0  0  0  0
  -24.3370   -9.5600   21.9670 C   0  0  0  0  0  3  0  0  0  0  0  0
  -23.6110   -8.3630   22.1440 C   0  0  0  0  0  3  0  0  0  0  0  0
  -22.4240   -8.1370   21.4080 C   0  0  0  0  0  0  0  0  0  0  0  0
  -21.9970   -9.1050   20.4810 C   0  0  0  0  0  3  0  0  0  0  0  0
  -22.7240  -10.2930   20.3010 C   0  0  0  0  0  3  0  0  0  0  0  0
  -21.6680   -6.9950   21.4980 O   0  0  0  0  0  0  0  0  0  0  0  0
  -21.6270   -6.2430   22.6450 C   0  0  0  0  0  0  0  0  0  0  0  0
  -21.1960   -6.7850   23.8760 C   0  0  0  0  0  3  0  0  0  0  0  0
  -21.1050   -5.9600   25.0150 C   0  0  0  0  0  3  0  0  0  0  0  0
  -21.4350   -4.5950   24.9240 C   0  0  0  0  0  0  0  0  0  0  0  0
  -21.8610   -4.0530   23.6980 C   0  0  0  0  0  3  0  0  0  0  0  0
  -21.9530   -4.8740   22.5620 C   0  0  0  0  0  0  0  0  0  0  0  0
  -22.3420   -4.3440   21.3770 F   0  0  0  0  0  0  0  0  0  0  0  0
  -21.3420   -3.7990   26.0140 F   0  0  0  0  0  0  0  0  0  0  0  0
  -22.7580  -13.6260   21.2380 C   0  0  0  0  0  0  0  0  0  0  0  0
  -22.0430  -12.9180   22.1020 N   0  0  0  0  0  0  0  0  0  0  0  0
  -22.3120  -14.6620   20.7430 O   0  0  0  0  0  0  0  0  0  0  0  0
  -22.4120  -12.0760   22.5260 H   0  0  0  0  0  0  0  0  0  0  0  0
  -21.1120  -13.2220   22.3520 H   0  0  0  0  0  0  0  0  0  0  0  0
  -25.3570  -15.3140   20.3910 N   0  0  0  0  0  0  0  0  0  0  0  0
  -24.5910  -15.9610   20.5310 H   0  0  0  0  0  0  0  0  0  0  0  0
  -26.1970  -15.7650   20.0520 H   0  0  0  0  0  0  0  0  0  0  0  0
  -27.2930  -23.2830   20.0580 C   0  0  0  0  0  2  0  0  0  0  0  0
  -28.6980  -22.7000   19.8890 C   0  0  0  0  0  3  0  0  0  0  0  0
  -28.2870  -24.2840   20.6340 C   0  0  0  0  0  3  0  0  0  0  0  0
  -28.2640  -25.9090   20.2340 O   0  0  0  0  0  0  0  0  0  0  0  0
  -24.6330  -31.9170   23.2510 C   0  0  0  0  0  0  0  0  0  0  0  0
  -27.2100  -26.9750   20.2930 C   0  0  0  0  0  0  0  0  0  0  0  0
  -23.4510  -30.4960   21.6250 C   0  0  0  0  0  3  0  0  0  0  0  0
  -24.9070  -28.8710   20.2270 C   0  0  0  0  0  0  0  0  0  0  0  0
  -26.0190  -30.7040   21.4850 C   0  0  0  0  0  2  0  0  0  0  0  0
  -26.0930  -29.2780   20.8510 C   0  0  0  0  0  0  0  0  0  0  0  0
  -27.2410  -28.3550   20.8460 C   0  0  0  0  0  3  0  0  0  0  0  0
  -25.9820  -26.7180   19.6430 C   0  0  0  0  0  3  0  0  0  0  0  0
  -24.8780  -27.6110   19.6040 C   0  0  0  0  0  3  0  0  0  0  0  0
  -23.6920  -29.8030   20.2550 C   0  0  0  0  0  2  0  0  0  0  0  0
  -24.7230  -31.0690   22.1740 N   0  0  0  0  0  0  0  0  0  0  0  0
  -23.5400  -32.2110   23.7650 O   0  0  0  0  0  0  0  0  0  0  0  0
  -22.7600  -29.5080   22.6000 C   0  0  0  0  0  0  0  0  0  0  0  0
  -21.4310  -29.3340   22.4700 N   0  0  0  0  0  0  0  0  0  0  0  0
  -23.4240  -28.9010   23.4430 O   0  0  0  0  0  0  0  0  0  0  0  0
  -20.9480  -29.8790   21.7690 H   0  0  0  0  0  0  0  0  0  0  0  0
  -18.0550  -28.0990   22.9620 C   0  0  0  0  0  0  0  0  0  0  0  0
  -20.6100  -28.4000   23.2470 C   0  0  0  0  0  3  0  0  0  0  0  0
  -20.7330  -26.9600   22.6950 C   0  0  0  0  0  2  0  0  0  0  0  0
  -19.6440  -26.6090   21.6750 C   0  0  0  0  0  2  0  0  0  0  0  0
  -18.2550  -26.7440   22.3040 C   0  0  0  0  0  2  0  0  0  0  0  0
  -19.1600  -28.8830   23.3890 C   0  0  0  0  0  0  0  0  0  0  0  0
  -18.9160  -30.1480   23.9700 C   0  0  0  0  0  3  0  0  0  0  0  0
  -17.6030  -30.6290   24.1260 C   0  0  0  0  0  3  0  0  0  0  0  0
  -16.5120  -29.8440   23.7130 C   0  0  0  0  0  3  0  0  0  0  0  0
  -16.7400  -28.5820   23.1360 C   0  0  0  0  0  3  0  0  0  0  0  0
  -25.8990  -32.5720   23.8820 C   0  0  0  0  0  3  0  0  0  0  0  0
  -25.5770  -33.9770   24.1930 N   0  0  0  0  0  0  0  0  0  0  0  0
  -25.9120  -35.0270   23.4310 C   0  0  0  0  0  0  0  0  0  0  0  0
  -26.5870  -34.9180   22.4030 O   0  0  0  0  0  0  0  0  0  0  0  0
  -24.9740  -34.1380   24.9860 H   0  0  0  0  0  0  0  0  0  0  0  0
  -24.1810  -36.8230   23.0690 C   0  0  0  0  0  1  0  0  0  0  0  0
  -25.4250  -36.4190   23.8790 C   0  0  0  0  0  3  0  0  0  0  0  0
  -27.5550  -37.3190   24.7120 C   0  0  0  0  0  1  0  0  0  0  0  0
  -26.4550  -37.4740   23.7640 N   0  0  0  0  0  0  0  0  0  0  0  0
  -26.0430  -38.3920   23.9080 H   0  0  0  0  0  0  0  0  0  0  0  0
  -26.3950  -31.8310   25.1840 C   0  0  1  0  0  0  0  0  0  0  0  0
  -25.2850  -31.6150   26.2410 C   0  0  0  0  0  1  0  0  0  0  0  0
  -26.9860  -30.4460   24.8380 C   0  0  0  0  0  1  0  0  0  0  0  0
  -27.5340  -32.6400   25.8500 C   0  0  0  0  0  1  0  0  0  0  0  0
  1  4  1  0
  2  4  2  0
  3  1  2  0
  4  7  1  0
  5  3  1  0
  5  6  2  0
  6  2  1  0
  8  5  1  0
 10 15  1  0
 11 12  1  0
 11 10  1  0
 13 12  1  0
 13 22  1  0
 13 14  1  0
 15  9  1  0
 15 14  1  0
 16  9  2  0
 17  9  1  0
 17  6  1  0
 18 17  1  0
 19 20  2  0
 20 39  1  0
 21 20  1  0
 21 24  1  0
 22 23  1  0
 22 19  1  0
 23 21  2  0
 24 25  1  0
 25 26  2  0
 27 30  1  0
 27 26  1  0
 28 27  2  0
 29 28  1  0
 29 24  2  0
 30 31  1  0
 31 32  1  0
 32 33  2  0
 34 33  1  0
 34 38  1  0
 35 34  2  0
 36 31  2  0
 36 35  1  0
 37 36  1  0
 39 40  1  0
 40 43  1  0
 40 42  1  0
 41 39  2  0
 44 45  1  0
 44 19  1  0
 46 44  1  0
 47 49  1  0
 48 47  1  0
 48  3  1  0
 48 49  1  0
 49 50  1  0
 50 52  1  0
 51 62  2  0
 52 57  1  0
 53 61  1  0
 53 63  1  0
 54 60  1  0
 54 56  1  0
 55 61  1  0
 56 55  1  0
 57 56  2  0
 58 52  2  0
 59 58  1  0
 59 54  2  0
 60 53  1  0
 61 51  1  0
 63 65  2  0
 64 63  1  0
 66 64  1  0
 67 76  2  0
 67 72  1  0
 68 64  1  0
 68 72  1  0
 69 68  1  0
 70 71  1  0
 70 69  1  0
 71 67  1  0
 72 73  2  0
 73 74  1  0
 75 74  2  0
 76 75  1  0
 77 51  1  0
 77 78  1  0
 77 87  1  0
 78 81  1  0
 79 83  1  0
 79 78  1  0
 80 79  2  0
 83 82  1  0
 85 83  1  0
 85 86  1  0
 85 84  1  0
 87 90  1  1
 87 88  1  0
 89 87  1  0
M  ISO  4   9 100  17 100  49 101  50 101
M  END
>  <TORSDO>  (39) 
F 17

>  <SCORE>  (39) 
-16.566

>  <name>  (39) 
41

>  <ligand_id>  (39) 
41

>  <original_smiles>  (39) 
[H]c1c([H])c([H])c2c(c1[H])C([H])([H])C([H])([H])C([H])([H])C2([H])N([H])C(=O)C1([H])N(C(=O)C([H])(N([H])C(=O)C([H])(N([H])C([H])([H])[H])C([H])([H])[H])C(C([H])([H])[H])(C([H])([H])[H])C([H])([H])[H])C([H])([H])c2c([H])c(OC3([H])C([H])([H])C3([H])c3c([H])c(C([H])([H])[H])c([H])c(N([H])C(=O)N4C([H])([H])C([H])([H])C([H])([H])C([H])(n5nc(-c6c([H])c([H])c(Oc7c([H])c([H])c(F)c([H])c7F)c([H])c6[H])c(C(=O)N([H])[H])c5N([H])[H])C4([H])[H])c3C([H])([H])[H])c([H])c([H])c2C1([H])[H]

>  <smiles>  (39) 
[H]c1c([H])c([H])c2c(c1[H])C([H])([H])C([H])([H])C([H])([H])C2([H])N([H])C(=O)C1([H])N(C(=O)C([H])(N([H])C(=O)C([H])(N([H])C([H])([H])[H])C([H])([H])[H])C(C([H])([H])[H])(C([H])([H])[H])C([H])([H])[H])C([H])([H])c2c([H])c(OC3([H])C([H])([H])C3([H])c3c([H])c(C([H])([H])[H])c([H])c(N([H])C(=O)N4C([H])([H])C([H])([H])C([H])([H])C([H])(n5nc(-c6c([H])c([H])c(Oc7c([H])c([H])c(F)c([H])c7F)c([H])c6[H])c(C(=O)N([H])[H])c5N([H])[H])C4([H])[H])c3C([H])([H])[H])c([H])c([H])c2C1([H])[H]

$$$$
42:0:0
     RDKit          3D

 92101  0  0  1  0  0  0  0  0999 V2000
  -28.8380  -20.9630   20.7630 C   0  0  0  0  0  2  0  0  0  0  0  0
  -31.2620  -19.1800   21.8860 C   0  0  0  0  0  2  0  0  0  0  0  0
  -30.1630  -18.5600   21.3980 C   0  0  0  0  0  3  0  0  0  0  0  0
  -31.2720  -20.1120   20.7650 C   0  0  0  0  0  0  0  0  0  0  0  0
  -29.4820  -18.4140   19.5170 C   0  0  0  0  0  2  0  0  0  0  0  0
  -30.3750  -17.4160   20.3490 C   0  0  0  0  0  3  0  0  0  0  0  0
  -29.8290  -19.7220   20.3720 C   0  0  2  0  0  0  0  0  0  0  0  0
  -32.1030  -20.9490   20.4050 O   0  0  0  0  0  0  0  0  0  0  0  0
  -30.6350  -14.8060   20.3670 C   0  0  0  0  0  0  0  0  0  0  0  0
  -30.4380  -12.5140   19.3820 C   0  0  0  0  0  2  0  0  0  0  0  0
  -29.5100  -12.5550   18.1490 C   0  0  0  0  0  2  0  0  0  0  0  0
  -28.0410  -12.3770   18.5730 C   0  0  0  0  0  2  0  0  0  0  0  0
  -27.6530  -13.2800   19.7740 C   0  0  0  0  0  3  0  0  0  0  0  0
  -28.7040  -13.2250   20.9030 C   0  0  0  0  0  2  0  0  0  0  0  0
  -29.9970  -13.5840   20.3110 N   0  0  0  0  0  0  0  0  0  0  0  0
  -31.8200  -14.8780   20.0280 O   0  0  0  0  0  0  0  0  0  0  0  0
  -29.9000  -15.9720   20.5850 N   0  0  0  0  0  0  0  0  0  0  0  0
  -28.9340  -15.8480   20.8510 H   0  0  0  0  0  0  0  0  0  0  0  0
  -25.2610  -13.8590   20.4920 C   0  0  0  0  0  0  0  0  0  0  0  0
  -24.1970  -13.0810   20.8600 C   0  0  0  0  0  0  0  0  0  0  0  0
  -24.6660  -11.7320   20.8310 C   0  0  0  0  0  0  0  0  0  0  0  0
  -26.3100  -12.9840   20.2610 N   0  0  0  0  0  0  0  0  0  0  0  0
  -25.9590  -11.6990   20.5280 N   0  0  0  0  0  0  0  0  0  0  0  0
  -23.9450  -10.4660   21.0170 C   0  0  0  0  0  0  0  0  0  0  0  0
  -24.3620   -9.5100   21.9700 C   0  0  0  0  0  3  0  0  0  0  0  0
  -23.6390   -8.3100   22.1420 C   0  0  0  0  0  3  0  0  0  0  0  0
  -22.4840   -8.0580   21.3640 C   0  0  0  0  0  0  0  0  0  0  0  0
  -22.0870   -9.0030   20.4010 C   0  0  0  0  0  3  0  0  0  0  0  0
  -22.8110  -10.1940   20.2260 C   0  0  0  0  0  3  0  0  0  0  0  0
  -21.7330   -6.9100   21.4470 O   0  0  0  0  0  0  0  0  0  0  0  0
  -21.6430   -6.1910   22.6120 C   0  0  0  0  0  0  0  0  0  0  0  0
  -21.1400   -6.7610   23.8030 C   0  0  0  0  0  3  0  0  0  0  0  0
  -21.0000   -5.9660   24.9580 C   0  0  0  0  0  3  0  0  0  0  0  0
  -21.3530   -4.6040   24.9240 C   0  0  0  0  0  0  0  0  0  0  0  0
  -21.8500   -4.0340   23.7390 C   0  0  0  0  0  3  0  0  0  0  0  0
  -21.9910   -4.8260   22.5850 C   0  0  0  0  0  0  0  0  0  0  0  0
  -22.4500   -4.2670   21.4390 F   0  0  0  0  0  0  0  0  0  0  0  0
  -21.2130   -3.8390   26.0320 F   0  0  0  0  0  0  0  0  0  0  0  0
  -22.7970  -13.5520   21.1240 C   0  0  0  0  0  0  0  0  0  0  0  0
  -22.0650  -12.8490   21.9810 N   0  0  0  0  0  0  0  0  0  0  0  0
  -22.3610  -14.5800   20.6070 O   0  0  0  0  0  0  0  0  0  0  0  0
  -22.4300  -12.0170   22.4200 H   0  0  0  0  0  0  0  0  0  0  0  0
  -21.1260  -13.1460   22.2010 H   0  0  0  0  0  0  0  0  0  0  0  0
  -25.4210  -15.2300   20.3100 N   0  0  0  0  0  0  0  0  0  0  0  0
  -24.6460  -15.8800   20.3990 H   0  0  0  0  0  0  0  0  0  0  0  0
  -26.2600  -15.6630   19.9500 H   0  0  0  0  0  0  0  0  0  0  0  0
  -28.9600  -22.3170   20.0120 N   0  0  0  0  0  4  0  0  0  0  0  0
  -28.5050  -22.1890   19.1210 H   0  0  0  0  0  0  0  0  0  0  0  0
  -29.9380  -22.4560   19.8090 H   0  0  0  0  0  0  0  0  0  0  0  0
  -28.4450  -23.6490   20.6320 C   0  0  0  0  0  3  0  0  0  0  0  0
  -28.4460  -25.0110   19.7260 C   0  0  0  0  0  3  0  0  0  0  0  0
  -28.3460  -26.4170   20.2830 O   0  0  0  0  0  0  0  0  0  0  0  0
  -24.6160  -31.9100   23.2100 C   0  0  0  0  0  0  0  0  0  0  0  0
  -27.2200  -27.2740   20.1920 C   0  0  0  0  0  0  0  0  0  0  0  0
  -23.4100  -30.4950   21.5850 C   0  0  0  0  0  3  0  0  0  0  0  0
  -24.8580  -28.9260   20.1670 C   0  0  0  0  0  0  0  0  0  0  0  0
  -25.9530  -30.8010   21.3940 C   0  0  0  0  0  2  0  0  0  0  0  0
  -26.0300  -29.4120   20.7570 C   0  0  0  0  0  0  0  0  0  0  0  0
  -27.2090  -28.5960   20.7580 C   0  0  0  0  0  3  0  0  0  0  0  0
  -26.0180  -26.8520   19.5810 C   0  0  0  0  0  3  0  0  0  0  0  0
  -24.8590  -27.6560   19.5690 C   0  0  0  0  0  3  0  0  0  0  0  0
  -23.6220  -29.8040   20.2110 C   0  0  0  0  0  2  0  0  0  0  0  0
  -24.6800  -31.0900   22.1170 N   0  0  0  0  0  0  0  0  0  0  0  0
  -23.5340  -32.1910   23.7440 O   0  0  0  0  0  0  0  0  0  0  0  0
  -22.7510  -29.4900   22.5580 C   0  0  0  0  0  0  0  0  0  0  0  0
  -21.4240  -29.3100   22.4400 N   0  0  0  0  0  0  0  0  0  0  0  0
  -23.4320  -28.8730   23.3810 O   0  0  0  0  0  0  0  0  0  0  0  0
  -20.9310  -29.8590   21.7500 H   0  0  0  0  0  0  0  0  0  0  0  0
  -18.0480  -28.1220   22.9730 C   0  0  0  0  0  0  0  0  0  0  0  0
  -20.6100  -28.3780   23.2220 C   0  0  0  0  0  3  0  0  0  0  0  0
  -20.7040  -26.9430   22.6530 C   0  0  0  0  0  2  0  0  0  0  0  0
  -19.5940  -26.6180   21.6490 C   0  0  0  0  0  2  0  0  0  0  0  0
  -18.2170  -26.7690   22.3020 C   0  0  0  0  0  2  0  0  0  0  0  0
  -19.1720  -28.8850   23.3910 C   0  0  0  0  0  0  0  0  0  0  0  0
  -18.9600  -30.1510   23.9770 C   0  0  0  0  0  3  0  0  0  0  0  0
  -17.6560  -30.6540   24.1540 C   0  0  0  0  0  3  0  0  0  0  0  0
  -16.5490  -29.8870   23.7540 C   0  0  0  0  0  3  0  0  0  0  0  0
  -16.7450  -28.6240   23.1670 C   0  0  0  0  0  3  0  0  0  0  0  0
  -25.8990  -32.5530   23.8230 C   0  0  0  0  0  3  0  0  0  0  0  0
  -26.4240  -31.7930   25.1020 C   0  0  1  0  0  0  0  0  0  0  0  0
  -25.3370  -31.5540   26.1770 C   0  0  0  0  0  1  0  0  0  0  0  0
  -27.0120  -30.4160   24.7170 C   0  0  0  0  0  1  0  0  0  0  0  0
  -27.5730  -32.5960   25.7550 C   0  0  0  0  0  1  0  0  0  0  0  0
  -25.5840  -33.9520   24.1510 N   0  0  0  0  0  0  0  0  0  0  0  0
  -25.9100  -35.0060   23.3890 C   0  0  0  0  0  0  0  0  0  0  0  0
  -26.5760  -34.9040   22.3560 O   0  0  0  0  0  0  0  0  0  0  0  0
  -24.9970  -34.1080   24.9560 H   0  0  0  0  0  0  0  0  0  0  0  0
  -24.1800  -36.7990   23.0370 C   0  0  0  0  0  1  0  0  0  0  0  0
  -25.4200  -36.3930   23.8490 C   0  0  0  0  0  3  0  0  0  0  0  0
  -27.5490  -37.2820   24.6900 C   0  0  0  0  0  1  0  0  0  0  0  0
  -26.4510  -37.4480   23.7430 N   0  0  0  0  0  0  0  0  0  0  0  0
  -26.0410  -38.3670   23.8920 H   0  0  0  0  0  0  0  0  0  0  0  0
  3  2  1  0
  4  2  1  0
  5  6  1  0
  5  7  1  0
  6 17  1  0
  6  3  1  0
  7  1  1  1
  7  4  1  0
  7  3  1  0
  8  4  2  0
  9 17  1  0
 10 15  1  0
 11 12  1  0
 11 10  1  0
 13 12  1  0
 13 22  1  0
 13 14  1  0
 15  9  1  0
 15 14  1  0
 16  9  2  0
 17 18  1  0
 19 20  2  0
 20 39  1  0
 21 20  1  0
 21 24  1  0
 22 19  1  0
 22 23  1  0
 23 21  2  0
 24 25  1  0
 25 26  2  0
 27 30  1  0
 27 26  1  0
 28 27  2  0
 29 28  1  0
 29 24  2  0
 30 31  1  0
 31 32  1  0
 32 33  2  0
 34 33  1  0
 34 38  1  0
 35 34  2  0
 36 31  2  0
 36 35  1  0
 37 36  1  0
 39 40  1  0
 40 43  1  0
 40 42  1  0
 41 39  2  0
 44 45  1  0
 44 19  1  0
 46 44  1  0
 47 50  1  0
 47  1  1  0
 48 47  1  0
 49 47  1  0
 51 52  1  0
 51 50  2  0
 53 64  2  0
 54 52  1  0
 54 59  1  0
 55 63  1  0
 55 65  1  0
 56 62  1  0
 56 58  1  0
 57 63  1  0
 58 59  2  0
 58 57  1  0
 60 54  2  0
 61 60  1  0
 61 56  2  0
 62 55  1  0
 63 53  1  0
 65 67  2  0
 66 65  1  0
 68 66  1  0
 69 78  2  0
 69 74  1  0
 70 66  1  0
 70 74  1  0
 71 70  1  0
 72 73  1  0
 72 71  1  0
 73 69  1  0
 74 75  2  0
 75 76  1  0
 77 76  2  0
 78 77  1  0
 79 53  1  0
 79 84  1  0
 79 80  1  0
 80 83  1  1
 80 81  1  0
 82 80  1  0
 84 87  1  0
 85 89  1  0
 85 84  1  0
 86 85  2  0
 89 88  1  0
 91 89  1  0
 91 92  1  0
 91 90  1  0
M  ISO  4   9 100  17 100  51 101  52 101
M  END
>  <TORSDO>  (40) 
F 20

>  <SCORE>  (40) 
-13.851

>  <name>  (40) 
42

>  <ligand_id>  (40) 
42

>  <original_smiles>  (40) 
[H]C1=C2C([H])(N([H])C(=O)N3C([H])([H])C([H])([H])C([H])([H])C([H])(n4nc(-c5c([H])c([H])c(Oc6c([H])c([H])c(F)c([H])c6F)c([H])c5[H])c(C(=O)N([H])[H])c4N([H])[H])C3([H])[H])C([H])([H])C2(C([H])([H])[N+]([H])([H])C([H])([H])C([H])([H])Oc2c([H])c([H])c3c(c2[H])C([H])([H])N(C(=O)C([H])(N([H])C(=O)C([H])(N([H])C([H])([H])[H])C([H])([H])[H])C(C([H])([H])[H])(C([H])([H])[H])C([H])([H])[H])C([H])(C(=O)N([H])C2([H])c4c([H])c([H])c([H])c([H])c4C([H])([H])C([H])([H])C2([H])[H])C3([H])[H])C1=O

>  <smiles>  (40) 
[H]C1=C2C([H])(N([H])C(=O)N3C([H])([H])C([H])([H])C([H])([H])C([H])(n4nc(-c5c([H])c([H])c(Oc6c([H])c([H])c(F)c([H])c6F)c([H])c5[H])c(C(=O)N([H])[H])c4N([H])[H])C3([H])[H])C([H])([H])C2(C([H])([H])[N+]([H])([H])C([H])([H])C([H])([H])Oc2c([H])c([H])c3c(c2[H])C([H])([H])N(C(=O)C([H])(N([H])C(=O)C([H])(N([H])C([H])([H])[H])C([H])([H])[H])C(C([H])([H])[H])(C([H])([H])[H])C([H])([H])[H])C([H])(C(=O)N([H])C2([H])c4c([H])c([H])c([H])c([H])c4C([H])([H])C([H])([H])C2([H])[H])C3([H])[H])C1=O

$$$$
43:0:0
     RDKit          3D

 87 95  0  0  1  0  0  0  0  0999 V2000
  -28.4810  -21.2040   18.7550 C   0  0  0  0  0  2  0  0  0  0  0  0
  -28.4860  -22.7840   18.8480 C   0  0  0  0  0  2  0  0  0  0  0  0
  -29.1100  -21.8920   20.9240 C   0  0  0  0  0  2  0  0  0  0  0  0
  -28.7740  -20.4990   20.1240 C   0  0  0  0  0  3  0  0  0  0  0  0
  -28.2870  -23.1920   20.3150 C   0  0  0  0  0  3  0  0  0  0  0  0
  -29.6290  -19.0320   19.9060 C   0  0  0  0  0  2  0  0  0  0  0  0
  -29.7960  -17.6470   20.8570 C   0  0  0  0  0  2  0  0  0  0  0  0
  -30.4890  -14.9650   20.3110 C   0  0  0  0  0  0  0  0  0  0  0  0
  -30.3790  -12.6240   19.3240 C   0  0  0  0  0  2  0  0  0  0  0  0
  -29.4260  -12.5760   18.1060 C   0  0  0  0  0  2  0  0  0  0  0  0
  -27.9670  -12.3670   18.5560 C   0  0  0  0  0  2  0  0  0  0  0  0
  -27.5730  -13.2870   19.7400 C   0  0  0  0  0  3  0  0  0  0  0  0
  -28.6410  -13.2820   20.8520 C   0  0  0  0  0  2  0  0  0  0  0  0
  -29.9000  -13.7050   20.2260 N   0  0  0  0  0  0  0  0  0  0  0  0
  -31.7060  -15.0400   20.1110 O   0  0  0  0  0  0  0  0  0  0  0  0
  -29.6680  -16.1250   20.4110 N   0  0  0  0  0  0  0  0  0  0  0  0
  -28.6980  -15.8500   20.3600 H   0  0  0  0  0  0  0  0  0  0  0  0
  -25.1970  -13.8700   20.4930 C   0  0  0  0  0  0  0  0  0  0  0  0
  -24.1340  -13.0960   20.8690 C   0  0  0  0  0  0  0  0  0  0  0  0
  -24.5980  -11.7450   20.8380 C   0  0  0  0  0  0  0  0  0  0  0  0
  -26.2380  -12.9910   20.2490 N   0  0  0  0  0  0  0  0  0  0  0  0
  -25.8880  -11.7080   20.5230 N   0  0  0  0  0  0  0  0  0  0  0  0
  -23.8710  -10.4830   21.0310 C   0  0  0  0  0  0  0  0  0  0  0  0
  -24.3060   -9.5140   21.9620 C   0  0  0  0  0  3  0  0  0  0  0  0
  -23.5780   -8.3190   22.1430 C   0  0  0  0  0  3  0  0  0  0  0  0
  -22.4020   -8.0830   21.3920 C   0  0  0  0  0  0  0  0  0  0  0  0
  -21.9880   -9.0400   20.4490 C   0  0  0  0  0  3  0  0  0  0  0  0
  -22.7160  -10.2270   20.2660 C   0  0  0  0  0  3  0  0  0  0  0  0
  -21.6460   -6.9400   21.4820 O   0  0  0  0  0  0  0  0  0  0  0  0
  -21.6000   -6.1960   22.6340 C   0  0  0  0  0  0  0  0  0  0  0  0
  -21.1760   -6.7500   23.8610 C   0  0  0  0  0  3  0  0  0  0  0  0
  -21.0780   -5.9330   25.0050 C   0  0  0  0  0  3  0  0  0  0  0  0
  -21.3930   -4.5630   24.9230 C   0  0  0  0  0  0  0  0  0  0  0  0
  -21.8090   -4.0080   23.6990 C   0  0  0  0  0  3  0  0  0  0  0  0
  -21.9090   -4.8230   22.5580 C   0  0  0  0  0  0  0  0  0  0  0  0
  -22.2910   -4.2800   21.3770 F   0  0  0  0  0  0  0  0  0  0  0  0
  -21.2910   -3.7770   26.0200 F   0  0  0  0  0  0  0  0  0  0  0  0
  -22.7380  -13.5740   21.1420 C   0  0  0  0  0  0  0  0  0  0  0  0
  -22.0090  -12.8790   22.0070 N   0  0  0  0  0  0  0  0  0  0  0  0
  -22.3020  -14.6010   20.6200 O   0  0  0  0  0  0  0  0  0  0  0  0
  -22.3750  -12.0480   22.4490 H   0  0  0  0  0  0  0  0  0  0  0  0
  -21.0730  -13.1820   22.2330 H   0  0  0  0  0  0  0  0  0  0  0  0
  -25.3560  -15.2410   20.3110 N   0  0  0  0  0  0  0  0  0  0  0  0
  -24.5800  -15.8860   20.4160 H   0  0  0  0  0  0  0  0  0  0  0  0
  -26.1860  -15.6840   19.9420 H   0  0  0  0  0  0  0  0  0  0  0  0
  -28.4660  -24.8090   20.8170 C   0  0  0  0  0  2  0  0  0  0  0  0
  -28.3240  -26.2130   20.1540 O   0  0  0  0  0  0  0  0  0  0  0  0
  -24.6170  -31.8510   23.2390 C   0  0  0  0  0  0  0  0  0  0  0  0
  -27.2190  -27.1310   20.2450 C   0  0  0  0  0  0  0  0  0  0  0  0
  -23.4260  -30.4460   21.5990 C   0  0  0  0  0  3  0  0  0  0  0  0
  -24.8830  -28.8580   20.1960 C   0  0  0  0  0  0  0  0  0  0  0  0
  -25.9790  -30.7200   21.4390 C   0  0  0  0  0  2  0  0  0  0  0  0
  -26.0580  -29.3210   20.8020 C   0  0  0  0  0  0  0  0  0  0  0  0
  -27.2320  -28.4750   20.7980 C   0  0  0  0  0  3  0  0  0  0  0  0
  -26.0140  -26.7590   19.6190 C   0  0  0  0  0  3  0  0  0  0  0  0
  -24.8720  -27.5910   19.5900 C   0  0  0  0  0  3  0  0  0  0  0  0
  -23.6550  -29.7580   20.2260 C   0  0  0  0  0  2  0  0  0  0  0  0
  -24.6950  -31.0290   22.1470 N   0  0  0  0  0  0  0  0  0  0  0  0
  -23.5280  -32.1340   23.7620 O   0  0  0  0  0  0  0  0  0  0  0  0
  -22.7450  -29.4430   22.5630 C   0  0  0  0  0  0  0  0  0  0  0  0
  -21.4180  -29.2750   22.4360 N   0  0  0  0  0  0  0  0  0  0  0  0
  -23.4160  -28.8150   23.3870 O   0  0  0  0  0  0  0  0  0  0  0  0
  -20.9330  -29.8330   21.7450 H   0  0  0  0  0  0  0  0  0  0  0  0
  -18.0330  -28.0820   22.9420 C   0  0  0  0  0  0  0  0  0  0  0  0
  -20.5930  -28.3390   23.2060 C   0  0  0  0  0  3  0  0  0  0  0  0
  -20.6910  -26.9070   22.6280 C   0  0  0  0  0  2  0  0  0  0  0  0
  -19.5860  -26.5890   21.6150 C   0  0  0  0  0  2  0  0  0  0  0  0
  -18.2070  -26.7350   22.2610 C   0  0  0  0  0  2  0  0  0  0  0  0
  -19.1540  -28.8420   23.3710 C   0  0  0  0  0  0  0  0  0  0  0  0
  -18.9380  -30.1030   23.9680 C   0  0  0  0  0  3  0  0  0  0  0  0
  -17.6340  -30.6050   24.1400 C   0  0  0  0  0  3  0  0  0  0  0  0
  -16.5280  -29.8420   23.7250 C   0  0  0  0  0  3  0  0  0  0  0  0
  -16.7280  -28.5830   23.1330 C   0  0  0  0  0  3  0  0  0  0  0  0
  -25.8920  -32.4900   23.8700 C   0  0  0  0  0  3  0  0  0  0  0  0
  -26.3990  -31.7240   25.1540 C   0  0  1  0  0  0  0  0  0  0  0  0
  -25.2990  -31.4900   26.2160 C   0  0  0  0  0  1  0  0  0  0  0  0
  -26.9850  -30.3450   24.7750 C   0  0  0  0  0  1  0  0  0  0  0  0
  -27.5460  -32.5210   25.8190 C   0  0  0  0  0  1  0  0  0  0  0  0
  -25.5740  -33.8880   24.2000 N   0  0  0  0  0  0  0  0  0  0  0  0
  -25.9080  -34.9460   23.4500 C   0  0  0  0  0  0  0  0  0  0  0  0
  -26.5820  -34.8480   22.4210 O   0  0  0  0  0  0  0  0  0  0  0  0
  -24.9740  -34.0360   24.9980 H   0  0  0  0  0  0  0  0  0  0  0  0
  -24.1820  -36.7440   23.1000 C   0  0  0  0  0  1  0  0  0  0  0  0
  -25.4200  -36.3340   23.9130 C   0  0  0  0  0  3  0  0  0  0  0  0
  -27.5530  -37.2160   24.7560 C   0  0  0  0  0  1  0  0  0  0  0  0
  -26.4530  -37.3870   23.8090 N   0  0  0  0  0  0  0  0  0  0  0  0
  -26.0470  -38.3060   23.9620 H   0  0  0  0  0  0  0  0  0  0  0  0
  1  2  1  0
  1  4  1  0
  2  5  1  0
  4  6  1  0
  4  3  1  0
  5 46  1  0
  5  3  1  0
  6  7  1  0
  8 16  1  0
  9 14  1  0
 10 11  1  0
 10  9  1  0
 12 11  1  0
 12 21  1  0
 12 13  1  0
 14  8  1  0
 14 13  1  0
 15  8  2  0
 16  7  1  0
 17 16  1  0
 18 19  2  0
 19 38  1  0
 20 19  1  0
 20 23  1  0
 21 18  1  0
 21 22  1  0
 22 20  2  0
 23 24  1  0
 24 25  2  0
 26 29  1  0
 26 25  1  0
 27 26  2  0
 28 27  1  0
 28 23  2  0
 29 30  1  0
 30 31  1  0
 31 32  2  0
 33 32  1  0
 33 37  1  0
 34 33  2  0
 35 30  2  0
 35 34  1  0
 36 35  1  0
 38 39  1  0
 39 42  1  0
 39 41  1  0
 40 38  2  0
 43 44  1  0
 43 18  1  0
 45 43  1  0
 47 49  1  0
 47 46  1  0
 48 59  2  0
 49 54  1  0
 50 58  1  0
 50 60  1  0
 51 57  1  0
 51 53  1  0
 52 58  1  0
 53 52  1  0
 54 53  2  0
 55 49  2  0
 56 55  1  0
 56 51  2  0
 57 50  1  0
 58 48  1  0
 60 62  2  0
 61 60  1  0
 63 61  1  0
 64 73  2  0
 64 69  1  0
 65 61  1  0
 65 69  1  0
 66 65  1  0
 67 68  1  0
 67 66  1  0
 68 64  1  0
 69 70  2  0
 70 71  1  0
 72 71  2  0
 73 72  1  0
 74 48  1  0
 74 79  1  0
 74 75  1  0
 75 78  1  1
 75 76  1  0
 77 75  1  0
 79 82  1  0
 80 84  1  0
 80 79  1  0
 81 80  2  0
 84 83  1  0
 86 84  1  0
 86 87  1  0
 86 85  1  0
M  ISO  4   8 100  16 100  46 101  47 101
M  END
>  <TORSDO>  (41) 
F 19

>  <SCORE>  (41) 
-15.314

>  <name>  (41) 
43

>  <ligand_id>  (41) 
43

>  <original_smiles>  (41) 
[H]c1c([H])c([H])c2c(c1[H])C([H])([H])C([H])([H])C([H])([H])C2([H])N([H])C(=O)C1([H])N(C(=O)C([H])(N([H])C(=O)C([H])(N([H])C([H])([H])[H])C([H])([H])[H])C(C([H])([H])[H])(C([H])([H])[H])C([H])([H])[H])C([H])([H])c2c([H])c(OC([H])([H])C3([H])C([H])([H])C([H])([H])C([H])(C([H])([H])C([H])([H])N([H])C(=O)N4C([H])([H])C([H])([H])C([H])([H])C([H])(n5nc(-c6c([H])c([H])c(Oc7c([H])c([H])c(F)c([H])c7F)c([H])c6[H])c(C(=O)N([H])[H])c5N([H])[H])C4([H])[H])C3([H])[H])c([H])c([H])c2C1([H])[H]

>  <smiles>  (41) 
[H]c1c([H])c([H])c2c(c1[H])C([H])([H])C([H])([H])C([H])([H])C2([H])N([H])C(=O)C1([H])N(C(=O)C([H])(N([H])C(=O)C([H])(N([H])C([H])([H])[H])C([H])([H])[H])C(C([H])([H])[H])(C([H])([H])[H])C([H])([H])[H])C([H])([H])c2c([H])c(OC([H])([H])C3([H])C([H])([H])C([H])([H])C([H])(C([H])([H])C([H])([H])N([H])C(=O)N4C([H])([H])C([H])([H])C([H])([H])C([H])(n5nc(-c6c([H])c([H])c(Oc7c([H])c([H])c(F)c([H])c7F)c([H])c6[H])c(C(=O)N([H])[H])c5N([H])[H])C4([H])[H])C3([H])[H])c([H])c([H])c2C1([H])[H]

$$$$
44:0:0
     RDKit          3D

 91 99  0  0  1  0  0  0  0  0999 V2000
  -29.6670  -22.1810   18.0060 C   0  0  0  0  0  3  0  0  0  0  0  0
  -28.7990  -21.8980   20.5800 C   0  0  0  0  0  3  0  0  0  0  0  0
  -29.6720  -20.8790   18.5690 C   0  0  0  0  0  0  0  0  0  0  0  0
  -29.2240  -23.3460   18.6760 C   0  0  0  0  0  0  0  0  0  0  0  0
  -29.2530  -20.6390   19.9080 C   0  0  0  0  0  0  0  0  0  0  0  0
  -28.7570  -23.2860   20.0100 C   0  0  0  0  0  0  0  0  0  0  0  0
  -30.0940  -19.7550   17.6420 C   0  0  0  0  0  1  0  0  0  0  0  0
  -29.2430  -24.6560   17.9080 C   0  0  0  0  0  1  0  0  0  0  0  0
  -26.7970  -24.3870   21.3470 C   0  0  0  0  0  1  0  0  0  0  0  0
  -28.1870  -24.6680   20.7460 C   0  0  0  0  0  3  0  0  0  0  0  0
  -28.3340  -26.1560   20.2360 O   0  0  0  0  0  0  0  0  0  0  0  0
  -24.6620  -31.8580   23.2160 C   0  0  0  0  0  0  0  0  0  0  0  0
  -27.2760  -27.1430   20.2140 C   0  0  0  0  0  0  0  0  0  0  0  0
  -23.4810  -30.4570   21.5680 C   0  0  0  0  0  3  0  0  0  0  0  0
  -24.9470  -28.8880   20.1510 C   0  0  0  0  0  0  0  0  0  0  0  0
  -26.0350  -30.7320   21.4230 C   0  0  0  0  0  2  0  0  0  0  0  0
  -26.1190  -29.3370   20.7740 C   0  0  0  0  0  0  0  0  0  0  0  0
  -27.2870  -28.4800   20.7870 C   0  0  0  0  0  3  0  0  0  0  0  0
  -26.0900  -26.8130   19.5280 C   0  0  0  0  0  3  0  0  0  0  0  0
  -24.9470  -27.6400   19.5100 C   0  0  0  0  0  3  0  0  0  0  0  0
  -23.7150  -29.7800   20.1900 C   0  0  0  0  0  2  0  0  0  0  0  0
  -24.7450  -31.0380   22.1230 N   0  0  0  0  0  0  0  0  0  0  0  0
  -23.5710  -32.1370   23.7360 O   0  0  0  0  0  0  0  0  0  0  0  0
  -22.7980  -29.4470   22.5260 C   0  0  0  0  0  0  0  0  0  0  0  0
  -21.4700  -29.2810   22.3970 N   0  0  0  0  0  0  0  0  0  0  0  0
  -23.4660  -28.8160   23.3480 O   0  0  0  0  0  0  0  0  0  0  0  0
  -20.9870  -29.8440   21.7130 H   0  0  0  0  0  0  0  0  0  0  0  0
  -18.0850  -28.0850   22.8960 C   0  0  0  0  0  0  0  0  0  0  0  0
  -20.6450  -28.3410   23.1630 C   0  0  0  0  0  3  0  0  0  0  0  0
  -20.7430  -26.9120   22.5810 C   0  0  0  0  0  2  0  0  0  0  0  0
  -19.6400  -26.5970   21.5650 C   0  0  0  0  0  2  0  0  0  0  0  0
  -18.2580  -26.7390   22.2110 C   0  0  0  0  0  2  0  0  0  0  0  0
  -19.2050  -28.8430   23.3290 C   0  0  0  0  0  0  0  0  0  0  0  0
  -18.9890  -30.1000   23.9310 C   0  0  0  0  0  3  0  0  0  0  0  0
  -17.6870  -30.6010   24.1070 C   0  0  0  0  0  3  0  0  0  0  0  0
  -16.5800  -29.8410   23.6890 C   0  0  0  0  0  3  0  0  0  0  0  0
  -16.7800  -28.5860   23.0890 C   0  0  0  0  0  3  0  0  0  0  0  0
  -25.9310  -32.5010   23.8520 C   0  0  0  0  0  3  0  0  0  0  0  0
  -26.4300  -31.7390   25.1420 C   0  0  1  0  0  0  0  0  0  0  0  0
  -25.3240  -31.5080   26.1970 C   0  0  0  0  0  1  0  0  0  0  0  0
  -27.0210  -30.3580   24.7740 C   0  0  0  0  0  1  0  0  0  0  0  0
  -27.5700  -32.5410   25.8130 C   0  0  0  0  0  1  0  0  0  0  0  0
  -25.6090  -33.9000   24.1780 N   0  0  0  0  0  0  0  0  0  0  0  0
  -25.9420  -34.9580   23.4260 C   0  0  0  0  0  0  0  0  0  0  0  0
  -26.6180  -34.8580   22.3990 O   0  0  0  0  0  0  0  0  0  0  0  0
  -25.0040  -34.0500   24.9720 H   0  0  0  0  0  0  0  0  0  0  0  0
  -24.2090  -36.7520   23.0700 C   0  0  0  0  0  1  0  0  0  0  0  0
  -25.4480  -36.3460   23.8850 C   0  0  0  0  0  3  0  0  0  0  0  0
  -27.5760  -37.2370   24.7260 C   0  0  0  0  0  1  0  0  0  0  0  0
  -26.4780  -37.4020   23.7780 N   0  0  0  0  0  0  0  0  0  0  0  0
  -26.0670  -38.3210   23.9250 H   0  0  0  0  0  0  0  0  0  0  0  0
  -29.1550  -19.0700   20.4950 C   0  0  0  0  0  3  0  0  0  0  0  0
  -30.1680  -17.7210   20.2090 C   0  0  0  0  0  3  0  0  0  0  0  0
  -30.5910  -14.9940   20.3090 C   0  0  0  0  0  0  0  0  0  0  0  0
  -30.4570  -12.6520   19.3430 C   0  0  0  0  0  2  0  0  0  0  0  0
  -29.5230  -12.6300   18.1100 C   0  0  0  0  0  2  0  0  0  0  0  0
  -28.0610  -12.4150   18.5450 C   0  0  0  0  0  2  0  0  0  0  0  0
  -27.6590  -13.3240   19.7370 C   0  0  0  0  0  3  0  0  0  0  0  0
  -28.7170  -13.3190   20.8600 C   0  0  0  0  0  2  0  0  0  0  0  0
  -29.9880  -13.7370   20.2550 N   0  0  0  0  0  0  0  0  0  0  0  0
  -31.7860  -15.0540   20.0000 O   0  0  0  0  0  0  0  0  0  0  0  0
  -29.8320  -16.1890   20.4930 N   0  0  0  0  0  0  0  0  0  0  0  0
  -28.8700  -16.0140   20.7450 H   0  0  0  0  0  0  0  0  0  0  0  0
  -25.2730  -13.8870   20.4670 C   0  0  0  0  0  0  0  0  0  0  0  0
  -24.2140  -13.1060   20.8370 C   0  0  0  0  0  0  0  0  0  0  0  0
  -24.6890  -11.7580   20.8150 C   0  0  0  0  0  0  0  0  0  0  0  0
  -26.3230  -13.0170   20.2340 N   0  0  0  0  0  0  0  0  0  0  0  0
  -25.9820  -11.7310   20.5100 N   0  0  0  0  0  0  0  0  0  0  0  0
  -23.9720  -10.4910   21.0070 C   0  0  0  0  0  0  0  0  0  0  0  0
  -24.3990   -9.5340   21.9540 C   0  0  0  0  0  3  0  0  0  0  0  0
  -23.6780   -8.3340   22.1350 C   0  0  0  0  0  3  0  0  0  0  0  0
  -22.5150   -8.0820   21.3690 C   0  0  0  0  0  0  0  0  0  0  0  0
  -22.1080   -9.0270   20.4110 C   0  0  0  0  0  3  0  0  0  0  0  0
  -22.8290  -10.2190   20.2280 C   0  0  0  0  0  3  0  0  0  0  0  0
  -21.7660   -6.9340   21.4590 O   0  0  0  0  0  0  0  0  0  0  0  0
  -21.7020   -6.2050   22.6200 C   0  0  0  0  0  0  0  0  0  0  0  0
  -21.2390   -6.7700   23.8300 C   0  0  0  0  0  3  0  0  0  0  0  0
  -21.1240   -5.9680   24.9820 C   0  0  0  0  0  3  0  0  0  0  0  0
  -21.4590   -4.6020   24.9260 C   0  0  0  0  0  0  0  0  0  0  0  0
  -21.9120   -4.0360   23.7220 C   0  0  0  0  0  3  0  0  0  0  0  0
  -22.0300   -4.8360   22.5710 C   0  0  0  0  0  0  0  0  0  0  0  0
  -22.4480   -4.2810   21.4080 F   0  0  0  0  0  0  0  0  0  0  0  0
  -21.3390   -3.8290   26.0310 F   0  0  0  0  0  0  0  0  0  0  0  0
  -22.8120  -13.5740   21.1000 C   0  0  0  0  0  0  0  0  0  0  0  0
  -22.0840  -12.8730   21.9620 N   0  0  0  0  0  0  0  0  0  0  0  0
  -22.3710  -14.5960   20.5750 O   0  0  0  0  0  0  0  0  0  0  0  0
  -22.4540  -12.0460   22.4060 H   0  0  0  0  0  0  0  0  0  0  0  0
  -21.1430  -13.1680   22.1820 H   0  0  0  0  0  0  0  0  0  0  0  0
  -25.4260  -15.2590   20.2820 N   0  0  0  0  0  0  0  0  0  0  0  0
  -24.6480  -15.9040   20.3780 H   0  0  0  0  0  0  0  0  0  0  0  0
  -26.2580  -15.6990   19.9140 H   0  0  0  0  0  0  0  0  0  0  0  0
  1  3  2  0
  1  4  1  0
  3  5  1  0
  4  6  2  0
  5 52  1  0
  5  2  2  0
  6  2  1  0
  6 10  1  0
  7  3  1  0
  8  4  1  0
 10  9  1  0
 11 10  1  0
 12 23  2  0
 13 11  1  0
 13 18  1  0
 14 22  1  0
 14 24  1  0
 15 21  1  0
 15 17  1  0
 16 22  1  0
 17 18  2  0
 17 16  1  0
 19 13  2  0
 20 19  1  0
 20 15  2  0
 21 14  1  0
 22 12  1  0
 24 26  2  0
 25 24  1  0
 27 25  1  0
 28 37  2  0
 28 33  1  0
 29 25  1  0
 29 33  1  0
 30 29  1  0
 31 32  1  0
 31 30  1  0
 32 28  1  0
 33 34  2  0
 34 35  1  0
 36 35  2  0
 37 36  1  0
 38 12  1  0
 38 43  1  0
 38 39  1  0
 39 42  1  1
 39 40  1  0
 41 39  1  0
 43 46  1  0
 44 48  1  0
 44 43  1  0
 45 44  2  0
 48 47  1  0
 50 48  1  0
 50 51  1  0
 50 49  1  0
 53 62  1  0
 53 52  2  0
 54 62  1  0
 55 60  1  0
 56 57  1  0
 56 55  1  0
 58 57  1  0
 58 67  1  0
 58 59  1  0
 60 54  1  0
 60 59  1  0
 61 54  2  0
 62 63  1  0
 64 65  2  0
 65 84  1  0
 66 65  1  0
 66 69  1  0
 67 64  1  0
 67 68  1  0
 68 66  2  0
 69 70  1  0
 70 71  2  0
 72 75  1  0
 72 71  1  0
 73 72  2  0
 74 73  1  0
 74 69  2  0
 75 76  1  0
 76 77  1  0
 77 78  2  0
 79 78  1  0
 79 83  1  0
 80 79  2  0
 81 76  2  0
 81 80  1  0
 82 81  1  0
 84 85  1  0
 85 88  1  0
 85 87  1  0
 86 84  2  0
 89 90  1  0
 89 64  1  0
 91 89  1  0
M  ISO  4  10 101  11 101  54 100  62 100
M  END
>  <TORSDO>  (42) 
F 19

>  <SCORE>  (42) 
-15.064

>  <name>  (42) 
44

>  <ligand_id>  (42) 
44

>  <original_smiles>  (42) 
[H]c1c([H])c([H])c2c(c1[H])C([H])([H])C([H])([H])C([H])([H])C2([H])N([H])C(=O)C1([H])N(C(=O)C([H])(N([H])C(=O)C([H])(N([H])C([H])([H])[H])C([H])([H])[H])C(C([H])([H])[H])(C([H])([H])[H])C([H])([H])[H])C([H])([H])c2c([H])c(OC([H])(c3c([H])c(C([H])([H])C([H])([H])N([H])C(=O)N4C([H])([H])C([H])([H])C([H])([H])C([H])(n5nc(-c6c([H])c([H])c(Oc7c([H])c([H])c(F)c([H])c7F)c([H])c6[H])c(C(=O)N([H])[H])c5N([H])[H])C4([H])[H])c(C([H])([H])[H])c([H])c3C([H])([H])[H])C([H])([H])[H])c([H])c([H])c2C1([H])[H]

>  <smiles>  (42) 
[H]c1c([H])c([H])c2c(c1[H])C([H])([H])C([H])([H])C([H])([H])C2([H])N([H])C(=O)C1([H])N(C(=O)C([H])(N([H])C(=O)C([H])(N([H])C([H])([H])[H])C([H])([H])[H])C(C([H])([H])[H])(C([H])([H])[H])C([H])([H])[H])C([H])([H])c2c([H])c(OC([H])(c3c([H])c(C([H])([H])C([H])([H])N([H])C(=O)N4C([H])([H])C([H])([H])C([H])([H])C([H])(n5nc(-c6c([H])c([H])c(Oc7c([H])c([H])c(F)c([H])c7F)c([H])c6[H])c(C(=O)N([H])[H])c5N([H])[H])C4([H])[H])c(C([H])([H])[H])c([H])c3C([H])([H])[H])C([H])([H])[H])c([H])c([H])c2C1([H])[H]

$$$$
45:0:0
     RDKit          3D

 95103  0  0  1  0  0  0  0  0999 V2000
  -29.1250  -18.9700   21.4430 C   0  0  0  0  0  2  0  0  0  0  0  0
  -28.5430  -20.2020   20.6700 C   0  0  0  0  0  2  0  0  0  0  0  0
  -30.7230  -20.8020   19.8240 C   0  0  0  0  0  2  0  0  0  0  0  0
  -30.4820  -18.3950   20.9400 C   0  0  0  0  0  3  0  0  0  0  0  0
  -31.4110  -19.6290   20.6120 C   0  0  0  0  0  3  0  0  0  0  0  0
  -29.5060  -21.3400   20.5010 N   0  0  1  0  0  4  0  0  0  0  0  0
  -29.7610  -21.6340   21.4320 H   0  0  0  0  0  0  0  0  0  0  0  0
  -30.4000  -17.2010   19.8930 C   0  0  0  0  0  2  0  0  0  0  0  0
  -30.9290  -14.7000   20.0540 C   0  0  0  0  0  0  0  0  0  0  0  0
  -30.6020  -12.5000   18.9650 C   0  0  0  0  0  2  0  0  0  0  0  0
  -29.6130  -12.6940   17.7930 C   0  0  0  0  0  2  0  0  0  0  0  0
  -28.1600  -12.5410   18.2840 C   0  0  0  0  0  2  0  0  0  0  0  0
  -27.8710  -13.3760   19.5620 C   0  0  0  0  0  3  0  0  0  0  0  0
  -28.9780  -13.1880   20.6260 C   0  0  0  0  0  2  0  0  0  0  0  0
  -30.2680  -13.5030   19.9970 N   0  0  0  0  0  0  0  0  0  0  0  0
  -32.0620  -14.8300   19.5860 O   0  0  0  0  0  0  0  0  0  0  0  0
  -30.2000  -15.8030   20.4120 N   0  0  0  0  0  0  0  0  0  0  0  0
  -29.3020  -15.6080   20.8310 H   0  0  0  0  0  0  0  0  0  0  0  0
  -25.5220  -13.9790   20.4080 C   0  0  0  0  0  0  0  0  0  0  0  0
  -24.4670  -13.2070   20.8120 C   0  0  0  0  0  0  0  0  0  0  0  0
  -24.9140  -11.8520   20.7300 C   0  0  0  0  0  0  0  0  0  0  0  0
  -26.5450  -13.0950   20.1030 N   0  0  0  0  0  0  0  0  0  0  0  0
  -26.1870  -11.8090   20.3570 N   0  0  0  0  0  0  0  0  0  0  0  0
  -24.1860  -10.5920   20.9290 C   0  0  0  0  0  0  0  0  0  0  0  0
  -24.6130   -9.6340   21.8750 C   0  0  0  0  0  3  0  0  0  0  0  0
  -23.8850   -8.4400   22.0610 C   0  0  0  0  0  3  0  0  0  0  0  0
  -22.7160   -8.1940   21.3020 C   0  0  0  0  0  0  0  0  0  0  0  0
  -22.3090   -9.1400   20.3450 C   0  0  0  0  0  3  0  0  0  0  0  0
  -23.0370  -10.3270   20.1570 C   0  0  0  0  0  3  0  0  0  0  0  0
  -21.9590   -7.0510   21.3960 O   0  0  0  0  0  0  0  0  0  0  0  0
  -21.8530   -6.3530   22.5730 C   0  0  0  0  0  0  0  0  0  0  0  0
  -21.3140   -6.9370   23.7390 C   0  0  0  0  0  3  0  0  0  0  0  0
  -21.1620   -6.1630   24.9080 C   0  0  0  0  0  3  0  0  0  0  0  0
  -21.5350   -4.8070   24.9080 C   0  0  0  0  0  0  0  0  0  0  0  0
  -22.0660   -4.2210   23.7440 C   0  0  0  0  0  3  0  0  0  0  0  0
  -22.2220   -4.9930   22.5790 C   0  0  0  0  0  0  0  0  0  0  0  0
  -22.7150   -4.4190   21.4560 F   0  0  0  0  0  0  0  0  0  0  0  0
  -21.3810   -4.0610   26.0270 F   0  0  0  0  0  0  0  0  0  0  0  0
  -23.0890  -13.6910   21.1630 C   0  0  0  0  0  0  0  0  0  0  0  0
  -22.3970  -12.9830   22.0500 N   0  0  0  0  0  0  0  0  0  0  0  0
  -22.6350  -14.7280   20.6840 O   0  0  0  0  0  0  0  0  0  0  0  0
  -22.7750  -12.1400   22.4550 H   0  0  0  0  0  0  0  0  0  0  0  0
  -21.4750  -13.2880   22.3240 H   0  0  0  0  0  0  0  0  0  0  0  0
  -25.6900  -15.3520   20.2510 N   0  0  0  0  0  0  0  0  0  0  0  0
  -24.9300  -16.0070   20.4040 H   0  0  0  0  0  0  0  0  0  0  0  0
  -26.5210  -15.7920   19.8790 H   0  0  0  0  0  0  0  0  0  0  0  0
  -32.7670  -19.2000   19.9850 C   0  0  0  0  0  2  0  0  0  0  0  0
  -33.8560  -20.1820   20.1610 N   0  0  0  0  0  4  0  0  0  0  0  0
  -33.6830  -21.0380   19.6670 H   0  0  0  0  0  0  0  0  0  0  0  0
  -34.7080  -19.7940   19.7950 H   0  0  0  0  0  0  0  0  0  0  0  0
  -34.0130  -20.3880   21.1320 H   0  0  0  0  0  0  0  0  0  0  0  0
  -28.8820  -22.5520   19.8230 C   0  0  0  0  0  2  0  0  0  0  0  0
  -29.3290  -24.0150   20.2610 C   0  0  0  0  0  2  0  0  0  0  0  0
  -28.3100  -25.1410   19.8110 C   0  0  0  0  0  2  0  0  0  0  0  0
  -28.5200  -26.5720   20.1120 O   0  0  0  0  0  0  0  0  0  0  0  0
  -24.6070  -31.8000   23.1500 C   0  0  0  0  0  0  0  0  0  0  0  0
  -27.3870  -27.4010   20.0380 C   0  0  0  0  0  0  0  0  0  0  0  0
  -23.4670  -30.4180   21.4520 C   0  0  0  0  0  3  0  0  0  0  0  0
  -24.9820  -28.9500   20.0140 C   0  0  0  0  0  0  0  0  0  0  0  0
  -26.0000  -30.8100   21.3220 C   0  0  0  0  0  2  0  0  0  0  0  0
  -26.1270  -29.4520   20.6450 C   0  0  0  0  0  0  0  0  0  0  0  0
  -27.3320  -28.6900   20.6500 C   0  0  0  0  0  3  0  0  0  0  0  0
  -26.2150  -26.9560   19.3750 C   0  0  0  0  0  3  0  0  0  0  0  0
  -25.0280  -27.7050   19.3710 C   0  0  0  0  0  3  0  0  0  0  0  0
  -23.7210  -29.7860   20.0600 C   0  0  0  0  0  2  0  0  0  0  0  0
  -24.7090  -31.0240   22.0330 N   0  0  0  0  0  0  0  0  0  0  0  0
  -23.5080  -32.0360   23.6700 O   0  0  0  0  0  0  0  0  0  0  0  0
  -22.8140  -29.3570   22.3700 C   0  0  0  0  0  0  0  0  0  0  0  0
  -21.4910  -29.1700   22.2300 N   0  0  0  0  0  0  0  0  0  0  0  0
  -23.4970  -28.7080   23.1670 O   0  0  0  0  0  0  0  0  0  0  0  0
  -20.9990  -29.7470   21.5610 H   0  0  0  0  0  0  0  0  0  0  0  0
  -18.1150  -27.9700   22.7160 C   0  0  0  0  0  0  0  0  0  0  0  0
  -20.6770  -28.1990   22.9650 C   0  0  0  0  0  3  0  0  0  0  0  0
  -20.7630  -26.7970   22.3160 C   0  0  0  0  0  2  0  0  0  0  0  0
  -19.6450  -26.5320   21.3030 C   0  0  0  0  0  2  0  0  0  0  0  0
  -18.2730  -26.6550   21.9710 C   0  0  0  0  0  2  0  0  0  0  0  0
  -19.2440  -28.7020   23.1690 C   0  0  0  0  0  0  0  0  0  0  0  0
  -19.0410  -29.9360   23.8240 C   0  0  0  0  0  3  0  0  0  0  0  0
  -17.7410  -30.4360   24.0320 C   0  0  0  0  0  3  0  0  0  0  0  0
  -16.6270  -29.6980   23.5980 C   0  0  0  0  0  3  0  0  0  0  0  0
  -16.8140  -28.4670   22.9450 C   0  0  0  0  0  3  0  0  0  0  0  0
  -25.8630  -32.4470   23.8110 C   0  0  0  0  0  3  0  0  0  0  0  0
  -25.5270  -33.8410   24.1340 N   0  0  0  0  0  0  0  0  0  0  0  0
  -25.8440  -34.8970   23.3740 C   0  0  0  0  0  0  0  0  0  0  0  0
  -26.5270  -34.8030   22.3500 O   0  0  0  0  0  0  0  0  0  0  0  0
  -24.9260  -33.9860   24.9330 H   0  0  0  0  0  0  0  0  0  0  0  0
  -24.0890  -36.6580   22.9930 C   0  0  0  0  0  1  0  0  0  0  0  0
  -25.3260  -36.2770   23.8220 C   0  0  0  0  0  3  0  0  0  0  0  0
  -27.4230  -37.2130   24.6900 C   0  0  0  0  0  1  0  0  0  0  0  0
  -26.3410  -37.3490   23.7200 N   0  0  0  0  0  0  0  0  0  0  0  0
  -25.9120  -38.2610   23.8490 H   0  0  0  0  0  0  0  0  0  0  0  0
  -26.3500  -31.6800   25.0990 C   0  0  1  0  0  0  0  0  0  0  0  0
  -25.2250  -31.4140   26.1270 C   0  0  0  0  0  1  0  0  0  0  0  0
  -26.9720  -30.3150   24.7210 C   0  0  0  0  0  1  0  0  0  0  0  0
  -27.4640  -32.4880   25.8040 C   0  0  0  0  0  1  0  0  0  0  0  0
  2  1  1  0
  3  6  1  0
  3  5  1  0
  4  8  1  0
  4  1  1  0
  5 47  1  0
  5  4  1  0
  6  2  1  0
  6  7  1  1
  8 17  1  0
  9 17  1  0
 10 15  1  0
 11 12  1  0
 11 10  1  0
 13 12  1  0
 13 22  1  0
 13 14  1  0
 15  9  1  0
 15 14  1  0
 16  9  2  0
 17 18  1  0
 19 20  2  0
 20 39  1  0
 21 20  1  0
 21 24  1  0
 22 23  1  0
 22 19  1  0
 23 21  2  0
 24 25  1  0
 25 26  2  0
 27 30  1  0
 27 26  1  0
 28 27  2  0
 29 28  1  0
 29 24  2  0
 30 31  1  0
 31 36  2  0
 31 32  1  0
 32 33  2  0
 34 33  1  0
 34 38  1  0
 35 34  2  0
 36 35  1  0
 37 36  1  0
 39 40  1  0
 40 43  1  0
 40 42  1  0
 41 39  2  0
 44 45  1  0
 44 19  1  0
 46 44  1  0
 47 48  1  0
 48 51  1  0
 49 48  1  0
 50 48  1  0
 52 53  1  0
 52  6  1  0
 54 55  1  0
 54 53  1  0
 56 67  2  0
 57 55  1  0
 57 62  1  0
 58 66  1  0
 58 68  1  0
 59 65  1  0
 59 61  1  0
 60 66  1  0
 61 62  2  0
 61 60  1  0
 63 57  2  0
 64 63  1  0
 64 59  2  0
 65 58  1  0
 66 56  1  0
 68 70  2  0
 69 68  1  0
 71 69  1  0
 72 81  2  0
 72 77  1  0
 73 69  1  0
 73 77  1  0
 74 73  1  0
 75 76  1  0
 75 74  1  0
 76 72  1  0
 77 78  2  0
 78 79  1  0
 80 79  2  0
 81 80  1  0
 82 56  1  0
 82 83  1  0
 82 92  1  0
 83 86  1  0
 84 88  1  0
 84 83  1  0
 85 84  2  0
 88 87  1  0
 90 88  1  0
 90 91  1  0
 90 89  1  0
 92 95  1  1
 92 93  1  0
 94 92  1  0
M  ISO  4   9 100  17 100  54 101  55 101
M  END
>  <TORSDO>  (43) 
F 22

>  <SCORE>  (43) 
-12.485

>  <name>  (43) 
45

>  <ligand_id>  (43) 
45

>  <original_smiles>  (43) 
[H]c1c([H])c([H])c2c(c1[H])C([H])([H])C([H])([H])C([H])([H])C2([H])N([H])C(=O)C1([H])N(C(=O)C([H])(N([H])C(=O)C([H])(N([H])C([H])([H])[H])C([H])([H])[H])C(C([H])([H])[H])(C([H])([H])[H])C([H])([H])[H])C([H])([H])c2c([H])c(OC([H])([H])C([H])([H])C([H])([H])[N+]3([H])C([H])([H])C([H])([H])C([H])(C([H])([H])N([H])C(=O)N4C([H])([H])C([H])([H])C([H])([H])C([H])(n5nc(-c6c([H])c([H])c(Oc7c([H])c([H])c(F)c([H])c7F)c([H])c6[H])c(C(=O)N([H])[H])c5N([H])[H])C4([H])[H])C([H])(C([H])([H])[N+]([H])([H])[H])C3([H])[H])c([H])c([H])c2C1([H])[H]

>  <smiles>  (43) 
[H]c1c([H])c([H])c2c(c1[H])C([H])([H])C([H])([H])C([H])([H])C2([H])N([H])C(=O)C1([H])N(C(=O)C([H])(N([H])C(=O)C([H])(N([H])C([H])([H])[H])C([H])([H])[H])C(C([H])([H])[H])(C([H])([H])[H])C([H])([H])[H])C([H])([H])c2c([H])c(OC([H])([H])C([H])([H])C([H])([H])[N+]3([H])C([H])([H])C([H])([H])C([H])(C([H])([H])N([H])C(=O)N4C([H])([H])C([H])([H])C([H])([H])C([H])(n5nc(-c6c([H])c([H])c(Oc7c([H])c([H])c(F)c([H])c7F)c([H])c6[H])c(C(=O)N([H])[H])c5N([H])[H])C4([H])[H])C([H])(C([H])([H])[N+]([H])([H])[H])C3([H])[H])c([H])c([H])c2C1([H])[H]

$$$$
46:0:0
     RDKit          3D

 93102  0  0  1  0  0  0  0  0999 V2000
  -30.0820  -21.2570   20.1480 C   0  0  0  0  0  2  0  0  0  0  0  0
  -27.4520  -21.6380   19.2900 C   0  0  0  0  0  2  0  0  0  0  0  0
  -28.8120  -23.8480   20.0270 C   0  0  0  0  0  3  0  0  0  0  0  0
  -29.6210  -22.6720   20.7800 C   0  0  0  0  0  3  0  0  0  0  0  0
  -27.6370  -22.8480   20.2580 C   0  0  0  0  0  3  0  0  0  0  0  0
  -29.1300  -19.9710   20.3400 C   0  0  0  0  0  3  0  0  0  0  0  0
  -28.1190  -23.0680   22.7310 C   0  0  0  0  0  1  0  0  0  0  0  0
  -28.3620  -22.3960   21.4510 N   0  0  0  0  0  0  0  0  0  0  0  0
  -27.7320  -20.2990   19.9010 N   0  0  0  0  0  4  0  0  0  0  0  0
  -27.4130  -19.5870   19.2660 H   0  0  0  0  0  0  0  0  0  0  0  0
  -27.1540  -20.2500   20.7240 H   0  0  0  0  0  0  0  0  0  0  0  0
  -28.6350  -25.3600   20.5750 C   0  0  0  0  0  2  0  0  0  0  0  0
  -28.5990  -26.5860   19.7390 O   0  0  0  0  0  0  0  0  0  0  0  0
  -24.7170  -31.7460   23.0480 C   0  0  0  0  0  0  0  0  0  0  0  0
  -27.4530  -27.3950   19.8070 C   0  0  0  0  0  0  0  0  0  0  0  0
  -23.5410  -30.3590   21.3730 C   0  0  0  0  0  3  0  0  0  0  0  0
  -25.0290  -28.9110   19.8810 C   0  0  0  0  0  0  0  0  0  0  0  0
  -26.0630  -30.7830   21.1660 C   0  0  0  0  0  2  0  0  0  0  0  0
  -26.1880  -29.4300   20.4740 C   0  0  0  0  0  0  0  0  0  0  0  0
  -27.4080  -28.6870   20.4190 C   0  0  0  0  0  3  0  0  0  0  0  0
  -26.2690  -26.9180   19.2130 C   0  0  0  0  0  3  0  0  0  0  0  0
  -25.0710  -27.6610   19.2410 C   0  0  0  0  0  3  0  0  0  0  0  0
  -23.7620  -29.7380   19.9680 C   0  0  0  0  0  2  0  0  0  0  0  0
  -24.7930  -30.9780   21.9200 N   0  0  0  0  0  0  0  0  0  0  0  0
  -23.6330  -31.9640   23.6080 O   0  0  0  0  0  0  0  0  0  0  0  0
  -22.9290  -29.2890   22.3080 C   0  0  0  0  0  0  0  0  0  0  0  0
  -21.6090  -29.0660   22.1900 N   0  0  0  0  0  0  0  0  0  0  0  0
  -23.6390  -28.6650   23.1000 O   0  0  0  0  0  0  0  0  0  0  0  0
  -21.0910  -29.6250   21.5260 H   0  0  0  0  0  0  0  0  0  0  0  0
  -18.2840  -27.7270   22.6850 C   0  0  0  0  0  0  0  0  0  0  0  0
  -20.8330  -28.0750   22.9380 C   0  0  0  0  0  3  0  0  0  0  0  0
  -20.9830  -26.6660   22.3160 C   0  0  0  0  0  2  0  0  0  0  0  0
  -19.8840  -26.3350   21.3030 C   0  0  0  0  0  2  0  0  0  0  0  0
  -18.5040  -26.4070   21.9650 C   0  0  0  0  0  2  0  0  0  0  0  0
  -19.3770  -28.5170   23.1280 C   0  0  0  0  0  0  0  0  0  0  0  0
  -19.1170  -29.7500   23.7640 C   0  0  0  0  0  3  0  0  0  0  0  0
  -17.7970  -30.1960   23.9600 C   0  0  0  0  0  3  0  0  0  0  0  0
  -16.7170  -29.4030   23.5310 C   0  0  0  0  0  3  0  0  0  0  0  0
  -16.9620  -28.1710   22.9000 C   0  0  0  0  0  3  0  0  0  0  0  0
  -25.9870  -32.4030   23.6750 C   0  0  0  0  0  3  0  0  0  0  0  0
  -26.5480  -31.6080   24.9170 C   0  0  1  0  0  0  0  0  0  0  0  0
  -25.4820  -31.3010   25.9940 C   0  0  0  0  0  1  0  0  0  0  0  0
  -27.1660  -30.2630   24.4720 C   0  0  0  0  0  1  0  0  0  0  0  0
  -27.6850  -32.4170   25.5890 C   0  0  0  0  0  1  0  0  0  0  0  0
  -25.6320  -33.7770   24.0580 N   0  0  0  0  0  0  0  0  0  0  0  0
  -25.9210  -34.8680   23.3360 C   0  0  0  0  0  0  0  0  0  0  0  0
  -26.5810  -34.8240   22.2950 O   0  0  0  0  0  0  0  0  0  0  0  0
  -25.0410  -33.8830   24.8700 H   0  0  0  0  0  0  0  0  0  0  0  0
  -24.1360  -36.6190   23.0570 C   0  0  0  0  0  1  0  0  0  0  0  0
  -25.3920  -36.2210   23.8490 C   0  0  0  0  0  3  0  0  0  0  0  0
  -27.4930  -37.1440   24.7190 C   0  0  0  0  0  1  0  0  0  0  0  0
  -26.3890  -37.3100   23.7770 N   0  0  0  0  0  0  0  0  0  0  0  0
  -25.9520  -38.2100   23.9580 H   0  0  0  0  0  0  0  0  0  0  0  0
  -29.5460  -18.4990   19.7850 C   0  0  0  0  0  2  0  0  0  0  0  0
  -30.2190  -17.3730   20.7220 C   0  0  0  0  0  2  0  0  0  0  0  0
  -30.6780  -14.8090   20.1960 C   0  0  0  0  0  0  0  0  0  0  0  0
  -30.4600  -12.5630   19.1380 C   0  0  0  0  0  2  0  0  0  0  0  0
  -29.4810  -12.6510   17.9460 C   0  0  0  0  0  2  0  0  0  0  0  0
  -28.0220  -12.4820   18.4150 C   0  0  0  0  0  2  0  0  0  0  0  0
  -27.6820  -13.3490   19.6570 C   0  0  0  0  0  3  0  0  0  0  0  0
  -28.7710  -13.2310   20.7440 C   0  0  0  0  0  2  0  0  0  0  0  0
  -30.0550  -13.5890   20.1210 N   0  0  0  0  0  0  0  0  0  0  0  0
  -31.8520  -14.9420   19.8420 O   0  0  0  0  0  0  0  0  0  0  0  0
  -29.8900  -15.9020   20.4910 N   0  0  0  0  0  0  0  0  0  0  0  0
  -28.9340  -15.6500   20.6940 H   0  0  0  0  0  0  0  0  0  0  0  0
  -25.3110  -13.9330   20.4490 C   0  0  0  0  0  0  0  0  0  0  0  0
  -24.2550  -13.1550   20.8410 C   0  0  0  0  0  0  0  0  0  0  0  0
  -24.7210  -11.8050   20.7880 C   0  0  0  0  0  0  0  0  0  0  0  0
  -26.3510  -13.0580   20.1800 N   0  0  0  0  0  0  0  0  0  0  0  0
  -26.0030  -11.7730   20.4450 N   0  0  0  0  0  0  0  0  0  0  0  0
  -24.0020  -10.5390   20.9880 C   0  0  0  0  0  0  0  0  0  0  0  0
  -24.4450   -9.5760   21.9220 C   0  0  0  0  0  3  0  0  0  0  0  0
  -23.7250   -8.3760   22.1100 C   0  0  0  0  0  3  0  0  0  0  0  0
  -22.5480   -8.1310   21.3630 C   0  0  0  0  0  0  0  0  0  0  0  0
  -22.1230   -9.0830   20.4180 C   0  0  0  0  0  3  0  0  0  0  0  0
  -22.8450  -10.2740   20.2300 C   0  0  0  0  0  3  0  0  0  0  0  0
  -21.8000   -6.9830   21.4590 O   0  0  0  0  0  0  0  0  0  0  0  0
  -21.7480   -6.2520   22.6180 C   0  0  0  0  0  0  0  0  0  0  0  0
  -21.2760   -6.8070   23.8290 C   0  0  0  0  0  3  0  0  0  0  0  0
  -21.1740   -6.0020   24.9790 C   0  0  0  0  0  3  0  0  0  0  0  0
  -21.5340   -4.6420   24.9230 C   0  0  0  0  0  0  0  0  0  0  0  0
  -22.0000   -4.0860   23.7190 C   0  0  0  0  0  3  0  0  0  0  0  0
  -22.1040   -4.8890   22.5680 C   0  0  0  0  0  0  0  0  0  0  0  0
  -22.5330   -4.3450   21.4040 F   0  0  0  0  0  0  0  0  0  0  0  0
  -21.4300   -3.8650   26.0260 F   0  0  0  0  0  0  0  0  0  0  0  0
  -22.8640  -13.6280   21.1470 C   0  0  0  0  0  0  0  0  0  0  0  0
  -22.1560  -12.9290   22.0270 N   0  0  0  0  0  0  0  0  0  0  0  0
  -22.4090  -14.6530   20.6390 O   0  0  0  0  0  0  0  0  0  0  0  0
  -22.5350  -12.1020   22.4620 H   0  0  0  0  0  0  0  0  0  0  0  0
  -21.2230  -13.2310   22.2700 H   0  0  0  0  0  0  0  0  0  0  0  0
  -25.4640  -15.3050   20.2740 N   0  0  0  0  0  0  0  0  0  0  0  0
  -24.6860  -15.9440   20.3960 H   0  0  0  0  0  0  0  0  0  0  0  0
  -26.2790  -15.7460   19.8670 H   0  0  0  0  0  0  0  0  0  0  0  0
  1  6  1  0
  2  9  1  0
  3  5  1  0
  3 12  1  0
  3  4  1  0
  4  1  1  0
  4  8  1  0
  5  2  1  0
  5  8  1  0
  6 54  1  0
  8  7  1  0
  9  6  1  0
  9 11  1  0
 10  9  1  0
 13 15  1  0
 13 12  1  0
 14 25  2  0
 15 20  1  0
 16 24  1  0
 16 26  1  0
 17 23  1  0
 17 19  1  0
 18 24  1  0
 19 18  1  0
 20 19  2  0
 21 22  1  0
 21 15  2  0
 22 17  2  0
 23 16  1  0
 24 14  1  0
 26 28  2  0
 27 26  1  0
 29 27  1  0
 30 39  2  0
 30 35  1  0
 31 27  1  0
 31 35  1  0
 32 31  1  0
 33 34  1  0
 33 32  1  0
 34 30  1  0
 35 36  2  0
 36 37  1  0
 38 37  2  0
 39 38  1  0
 40 14  1  0
 40 45  1  0
 40 41  1  0
 41 44  1  1
 41 42  1  0
 43 41  1  0
 45 48  1  0
 46 50  1  0
 46 45  1  0
 47 46  2  0
 50 49  1  0
 52 50  1  0
 52 53  1  0
 52 51  1  0
 54 55  1  0
 56 64  1  0
 57 62  1  0
 58 59  1  0
 58 57  1  0
 60 59  1  0
 60 69  1  0
 60 61  1  0
 62 56  1  0
 62 61  1  0
 63 56  2  0
 64 65  1  0
 64 55  1  0
 66 67  2  0
 67 86  1  0
 68 67  1  0
 68 71  1  0
 69 70  1  0
 69 66  1  0
 70 68  2  0
 71 72  1  0
 72 73  2  0
 74 77  1  0
 74 73  1  0
 75 74  2  0
 76 75  1  0
 76 71  2  0
 77 78  1  0
 78 79  1  0
 79 80  2  0
 81 80  1  0
 81 85  1  0
 82 81  2  0
 83 78  2  0
 83 82  1  0
 84 83  1  0
 86 87  1  0
 87 90  1  0
 87 89  1  0
 88 86  2  0
 91 92  1  0
 91 66  1  0
 93 91  1  0
M  ISO  4  12 101  13 101  56 100  64 100
M  END
>  <TORSDO>  (44) 
F 19

>  <SCORE>  (44) 
-13.351

>  <name>  (44) 
46

>  <ligand_id>  (44) 
46

>  <original_smiles>  (44) 
[H]c1c([H])c([H])c2c(c1[H])C([H])([H])C([H])([H])C([H])([H])C2([H])N([H])C(=O)C1([H])N(C(=O)C([H])(N([H])C(=O)C([H])(N([H])C([H])([H])[H])C([H])([H])[H])C(C([H])([H])[H])(C([H])([H])[H])C([H])([H])[H])C([H])([H])c2c([H])c(OC([H])([H])C3([H])C4([H])N(C([H])([H])[H])C3([H])C([H])([H])[N+]([H])([H])C([H])(C([H])([H])C([H])([H])N([H])C(=O)N3C([H])([H])C([H])([H])C([H])([H])C([H])(n5nc(-c6c([H])c([H])c(Oc7c([H])c([H])c(F)c([H])c7F)c([H])c6[H])c(C(=O)N([H])[H])c5N([H])[H])C3([H])[H])C4([H])[H])c([H])c([H])c2C1([H])[H]

>  <smiles>  (44) 
[H]c1c([H])c([H])c2c(c1[H])C([H])([H])C([H])([H])C([H])([H])C2([H])N([H])C(=O)C1([H])N(C(=O)C([H])(N([H])C(=O)C([H])(N([H])C([H])([H])[H])C([H])([H])[H])C(C([H])([H])[H])(C([H])([H])[H])C([H])([H])[H])C([H])([H])c2c([H])c(OC([H])([H])C3([H])C4([H])N(C([H])([H])[H])C3([H])C([H])([H])[N+]([H])([H])C([H])(C([H])([H])C([H])([H])N([H])C(=O)N3C([H])([H])C([H])([H])C([H])([H])C([H])(n5nc(-c6c([H])c([H])c(Oc7c([H])c([H])c(F)c([H])c7F)c([H])c6[H])c(C(=O)N([H])[H])c5N([H])[H])C3([H])[H])C4([H])[H])c([H])c([H])c2C1([H])[H]

$$$$
47:0:0
     RDKit          3D

 91100  0  0  1  0  0  0  0  0999 V2000
  -31.9870  -21.7040   20.7800 C   0  0  0  0  0  2  0  0  0  0  0  0
  -31.8970  -20.2220   21.1550 C   0  0  0  0  0  2  0  0  0  0  0  0
  -30.6950  -21.5410   19.9650 C   0  0  0  0  0  3  0  0  0  0  0  0
  -30.9510  -20.0040   19.9570 C   0  0  0  0  0  3  0  0  0  0  0  0
  -29.3290  -21.8520   20.5960 C   0  0  0  0  0  3  0  0  0  0  0  0
  -29.6430  -19.1990   20.1040 C   0  0  0  0  0  3  0  0  0  0  0  0
  -28.7210  -20.3970   20.5690 N   0  0  0  0  0  4  0  0  0  0  0  0
  -27.9170  -20.4010   19.9620 H   0  0  0  0  0  0  0  0  0  0  0  0
  -28.3700  -20.1980   21.4920 H   0  0  0  0  0  0  0  0  0  0  0  0
  -28.5780  -23.2800   20.0070 C   0  0  0  0  0  2  0  0  0  0  0  0
  -28.4110  -24.7860   20.7830 C   0  0  0  0  0  2  0  0  0  0  0  0
  -28.3950  -26.2510   20.2300 O   0  0  0  0  0  0  0  0  0  0  0  0
  -24.6580  -31.9060   23.2410 C   0  0  0  0  0  0  0  0  0  0  0  0
  -27.2900  -27.1790   20.2710 C   0  0  0  0  0  0  0  0  0  0  0  0
  -23.4730  -30.4970   21.6000 C   0  0  0  0  0  3  0  0  0  0  0  0
  -24.9400  -28.9030   20.2110 C   0  0  0  0  0  0  0  0  0  0  0  0
  -26.0300  -30.7640   21.4550 C   0  0  0  0  0  2  0  0  0  0  0  0
  -26.1140  -29.3680   20.8150 C   0  0  0  0  0  0  0  0  0  0  0  0
  -27.2910  -28.5260   20.8200 C   0  0  0  0  0  3  0  0  0  0  0  0
  -26.0850  -26.8010   19.6470 C   0  0  0  0  0  3  0  0  0  0  0  0
  -24.9360  -27.6300   19.6130 C   0  0  0  0  0  3  0  0  0  0  0  0
  -23.7080  -29.8030   20.2320 C   0  0  0  0  0  2  0  0  0  0  0  0
  -24.7390  -31.0790   22.1540 N   0  0  0  0  0  0  0  0  0  0  0  0
  -23.5670  -32.1930   23.7590 O   0  0  0  0  0  0  0  0  0  0  0  0
  -22.7870  -29.4980   22.5650 C   0  0  0  0  0  0  0  0  0  0  0  0
  -21.4640  -29.3120   22.4200 N   0  0  0  0  0  0  0  0  0  0  0  0
  -23.4530  -28.8910   23.4080 O   0  0  0  0  0  0  0  0  0  0  0  0
  -20.9850  -29.8520   21.7140 H   0  0  0  0  0  0  0  0  0  0  0  0
  -18.0870  -28.0870   22.8960 C   0  0  0  0  0  0  0  0  0  0  0  0
  -20.6410  -28.3740   23.1900 C   0  0  0  0  0  3  0  0  0  0  0  0
  -20.7610  -26.9380   22.6320 C   0  0  0  0  0  2  0  0  0  0  0  0
  -19.6740  -26.5950   21.6070 C   0  0  0  0  0  2  0  0  0  0  0  0
  -18.2830  -26.7330   22.2330 C   0  0  0  0  0  2  0  0  0  0  0  0
  -19.1950  -28.8630   23.3300 C   0  0  0  0  0  0  0  0  0  0  0  0
  -18.9590  -30.1280   23.9120 C   0  0  0  0  0  3  0  0  0  0  0  0
  -17.6480  -30.6170   24.0630 C   0  0  0  0  0  3  0  0  0  0  0  0
  -16.5540  -29.8380   23.6450 C   0  0  0  0  0  3  0  0  0  0  0  0
  -16.7750  -28.5760   23.0670 C   0  0  0  0  0  3  0  0  0  0  0  0
  -25.9300  -32.5490   23.8720 C   0  0  0  0  0  3  0  0  0  0  0  0
  -26.4250  -31.8010   25.1720 C   0  0  1  0  0  0  0  0  0  0  0  0
  -25.3150  -31.5850   26.2280 C   0  0  0  0  0  1  0  0  0  0  0  0
  -27.0160  -30.4160   24.8230 C   0  0  0  0  0  1  0  0  0  0  0  0
  -27.5650  -32.6090   25.8350 C   0  0  0  0  0  1  0  0  0  0  0  0
  -25.6140  -33.9540   24.1830 N   0  0  0  0  0  0  0  0  0  0  0  0
  -25.9620  -35.0040   23.4260 C   0  0  0  0  0  0  0  0  0  0  0  0
  -26.6460  -34.8920   22.4050 O   0  0  0  0  0  0  0  0  0  0  0  0
  -25.0110  -34.1160   24.9740 H   0  0  0  0  0  0  0  0  0  0  0  0
  -24.2510  -36.8060   23.0340 C   0  0  0  0  0  1  0  0  0  0  0  0
  -25.4730  -36.3960   23.8710 C   0  0  0  0  0  3  0  0  0  0  0  0
  -27.5930  -37.2700   24.7460 C   0  0  0  0  0  1  0  0  0  0  0  0
  -26.5120  -37.4440   23.7790 N   0  0  0  0  0  0  0  0  0  0  0  0
  -26.1050  -38.3660   23.9220 H   0  0  0  0  0  0  0  0  0  0  0  0
  -29.8420  -17.7240   20.9520 C   0  0  0  0  0  2  0  0  0  0  0  0
  -30.4690  -15.0310   20.3510 C   0  0  0  0  0  0  0  0  0  0  0  0
  -30.3650  -12.6830   19.3620 C   0  0  0  0  0  2  0  0  0  0  0  0
  -29.4140  -12.6030   18.1440 C   0  0  0  0  0  2  0  0  0  0  0  0
  -27.9550  -12.3880   18.5960 C   0  0  0  0  0  2  0  0  0  0  0  0
  -27.5550  -13.3160   19.7720 C   0  0  0  0  0  3  0  0  0  0  0  0
  -28.6230  -13.3310   20.8850 C   0  0  0  0  0  2  0  0  0  0  0  0
  -29.8770  -13.7710   20.2570 N   0  0  0  0  0  0  0  0  0  0  0  0
  -31.6850  -15.0990   20.1450 O   0  0  0  0  0  0  0  0  0  0  0  0
  -29.6650  -16.2080   20.4760 N   0  0  0  0  0  0  0  0  0  0  0  0
  -28.6900  -15.9510   20.4630 H   0  0  0  0  0  0  0  0  0  0  0  0
  -25.1790  -13.8890   20.5300 C   0  0  0  0  0  0  0  0  0  0  0  0
  -24.1160  -13.1110   20.8970 C   0  0  0  0  0  0  0  0  0  0  0  0
  -24.5820  -11.7610   20.8560 C   0  0  0  0  0  0  0  0  0  0  0  0
  -26.2220  -13.0130   20.2810 N   0  0  0  0  0  0  0  0  0  0  0  0
  -25.8710  -11.7270   20.5430 N   0  0  0  0  0  0  0  0  0  0  0  0
  -23.8560  -10.4980   21.0360 C   0  0  0  0  0  0  0  0  0  0  0  0
  -24.2850   -9.5220   21.9630 C   0  0  0  0  0  3  0  0  0  0  0  0
  -23.5550   -8.3250   22.1320 C   0  0  0  0  0  3  0  0  0  0  0  0
  -22.3840   -8.0940   21.3730 C   0  0  0  0  0  0  0  0  0  0  0  0
  -21.9760   -9.0570   20.4330 C   0  0  0  0  0  3  0  0  0  0  0  0
  -22.7070  -10.2450   20.2620 C   0  0  0  0  0  3  0  0  0  0  0  0
  -21.6260   -6.9510   21.4520 O   0  0  0  0  0  0  0  0  0  0  0  0
  -21.5660   -6.2070   22.6030 C   0  0  0  0  0  0  0  0  0  0  0  0
  -21.1130   -6.7560   23.8230 C   0  0  0  0  0  3  0  0  0  0  0  0
  -21.0000   -5.9380   24.9650 C   0  0  0  0  0  3  0  0  0  0  0  0
  -21.3300   -4.5720   24.8890 C   0  0  0  0  0  0  0  0  0  0  0  0
  -21.7760   -4.0230   23.6750 C   0  0  0  0  0  3  0  0  0  0  0  0
  -21.8900   -4.8370   22.5350 C   0  0  0  0  0  0  0  0  0  0  0  0
  -22.2990   -4.2970   21.3610 F   0  0  0  0  0  0  0  0  0  0  0  0
  -21.2150   -3.7850   25.9840 F   0  0  0  0  0  0  0  0  0  0  0  0
  -22.7200  -13.5850   21.1750 C   0  0  0  0  0  0  0  0  0  0  0  0
  -21.9900  -12.8750   22.0270 N   0  0  0  0  0  0  0  0  0  0  0  0
  -22.2870  -14.6200   20.6720 O   0  0  0  0  0  0  0  0  0  0  0  0
  -22.3560  -12.0360   22.4530 H   0  0  0  0  0  0  0  0  0  0  0  0
  -21.0520  -13.1730   22.2580 H   0  0  0  0  0  0  0  0  0  0  0  0
  -25.3380  -15.2610   20.3610 N   0  0  0  0  0  0  0  0  0  0  0  0
  -24.5610  -15.9050   20.4580 H   0  0  0  0  0  0  0  0  0  0  0  0
  -26.1720  -15.7050   20.0020 H   0  0  0  0  0  0  0  0  0  0  0  0
  1  2  1  0
  3  5  1  0
  3  1  1  0
  4  3  1  0
  4  6  1  0
  4  2  1  0
  5 10  1  0
  6  7  1  0
  6 53  1  0
  7  5  1  0
  7  9  1  0
  8  7  1  0
 10 11  1  0
 12 14  1  0
 12 11  1  0
 13 24  2  0
 14 19  1  0
 15 23  1  0
 15 25  1  0
 16 22  1  0
 16 18  1  0
 17 23  1  0
 18 19  2  0
 18 17  1  0
 20 14  2  0
 21 20  1  0
 21 16  2  0
 22 15  1  0
 23 13  1  0
 25 27  2  0
 26 25  1  0
 28 26  1  0
 29 38  2  0
 29 34  1  0
 30 26  1  0
 30 34  1  0
 31 30  1  0
 32 33  1  0
 32 31  1  0
 33 29  1  0
 34 35  2  0
 35 36  1  0
 37 36  2  0
 38 37  1  0
 39 13  1  0
 39 44  1  0
 39 40  1  0
 40 43  1  1
 40 41  1  0
 42 40  1  0
 44 47  1  0
 45 49  1  0
 45 44  1  0
 46 45  2  0
 49 48  1  0
 51 49  1  0
 51 52  1  0
 51 50  1  0
 54 62  1  0
 55 60  1  0
 56 57  1  0
 56 55  1  0
 58 57  1  0
 58 67  1  0
 58 59  1  0
 60 54  1  0
 60 59  1  0
 61 54  2  0
 62 53  1  0
 63 62  1  0
 64 65  2  0
 65 84  1  0
 66 65  1  0
 66 69  1  0
 67 64  1  0
 67 68  1  0
 68 66  2  0
 69 70  1  0
 70 71  2  0
 72 75  1  0
 72 71  1  0
 73 72  2  0
 74 73  1  0
 74 69  2  0
 75 76  1  0
 76 77  1  0
 77 78  2  0
 79 78  1  0
 79 83  1  0
 80 79  2  0
 81 76  2  0
 81 80  1  0
 82 81  1  0
 84 85  1  0
 85 88  1  0
 85 87  1  0
 86 84  2  0
 89 90  1  0
 89 64  1  0
 91 89  1  0
M  ISO  4  11 101  12 101  54 100  62 100
M  END
>  <TORSDO>  (45) 
F 19

>  <SCORE>  (45) 
-16.074

>  <name>  (45) 
47

>  <ligand_id>  (45) 
47

>  <original_smiles>  (45) 
[H]c1c([H])c([H])c2c(c1[H])C([H])([H])C([H])([H])C([H])([H])C2([H])N([H])C(=O)C1([H])N(C(=O)C([H])(N([H])C(=O)C([H])(N([H])C([H])([H])[H])C([H])([H])[H])C(C([H])([H])[H])(C([H])([H])[H])C([H])([H])[H])C([H])([H])c2c([H])c(OC([H])([H])C([H])([H])C3([H])C4([H])C([H])([H])C([H])([H])C4([H])C([H])(C([H])([H])N([H])C(=O)N4C([H])([H])C([H])([H])C([H])([H])C([H])(n5nc(-c6c([H])c([H])c(Oc7c([H])c([H])c(F)c([H])c7F)c([H])c6[H])c(C(=O)N([H])[H])c5N([H])[H])C4([H])[H])[N+]3([H])[H])c([H])c([H])c2C1([H])[H]

>  <smiles>  (45) 
[H]c1c([H])c([H])c2c(c1[H])C([H])([H])C([H])([H])C([H])([H])C2([H])N([H])C(=O)C1([H])N(C(=O)C([H])(N([H])C(=O)C([H])(N([H])C([H])([H])[H])C([H])([H])[H])C(C([H])([H])[H])(C([H])([H])[H])C([H])([H])[H])C([H])([H])c2c([H])c(OC([H])([H])C([H])([H])C3([H])C4([H])C([H])([H])C([H])([H])C4([H])C([H])(C([H])([H])N([H])C(=O)N4C([H])([H])C([H])([H])C([H])([H])C([H])(n5nc(-c6c([H])c([H])c(Oc7c([H])c([H])c(F)c([H])c7F)c([H])c6[H])c(C(=O)N([H])[H])c5N([H])[H])C4([H])[H])[N+]3([H])[H])c([H])c([H])c2C1([H])[H]

$$$$
48:0:0
     RDKit          3D

 92100  0  0  1  0  0  0  0  0999 V2000
  -30.9900  -18.7720   23.0890 C   0  0  0  0  0  2  0  0  0  0  0  0
  -31.1660  -17.8420   21.8760 C   0  0  0  0  0  2  0  0  0  0  0  0
  -30.8610  -20.8350   21.4340 C   0  0  0  0  0  2  0  0  0  0  0  0
  -29.4550  -19.1100   20.2340 C   0  0  0  0  0  2  0  0  0  0  0  0
  -31.1680  -20.2870   22.8510 C   0  0  0  0  0  3  0  0  0  0  0  0
  -29.8610  -17.6890   21.0610 C   0  0  0  0  0  3  0  0  0  0  0  0
  -32.5790  -20.7300   23.2880 C   0  0  0  0  0  1  0  0  0  0  0  0
  -29.5010  -20.5620   20.9000 N   0  0  2  0  0  4  0  0  0  0  0  0
  -28.9230  -20.4840   21.7240 H   0  0  0  0  0  0  0  0  0  0  0  0
  -30.4910  -15.0260   20.3870 C   0  0  0  0  0  0  0  0  0  0  0  0
  -30.3770  -12.6900   19.3910 C   0  0  0  0  0  2  0  0  0  0  0  0
  -29.4450  -12.6410   18.1570 C   0  0  0  0  0  2  0  0  0  0  0  0
  -27.9740  -12.4410   18.5760 C   0  0  0  0  0  2  0  0  0  0  0  0
  -27.5620  -13.3530   19.7630 C   0  0  0  0  0  3  0  0  0  0  0  0
  -28.6140  -13.3560   20.8910 C   0  0  0  0  0  2  0  0  0  0  0  0
  -29.8870  -13.7740   20.2870 N   0  0  0  0  0  0  0  0  0  0  0  0
  -31.7040  -15.0910   20.1630 O   0  0  0  0  0  0  0  0  0  0  0  0
  -29.6970  -16.1930   20.5450 N   0  0  0  0  0  0  0  0  0  0  0  0
  -28.7200  -15.9450   20.5000 H   0  0  0  0  0  0  0  0  0  0  0  0
  -25.1730  -13.9290   20.4860 C   0  0  0  0  0  0  0  0  0  0  0  0
  -24.1100  -13.1520   20.8510 C   0  0  0  0  0  0  0  0  0  0  0  0
  -24.5780  -11.8020   20.8310 C   0  0  0  0  0  0  0  0  0  0  0  0
  -26.2220  -13.0530   20.2560 N   0  0  0  0  0  0  0  0  0  0  0  0
  -25.8710  -11.7680   20.5290 N   0  0  0  0  0  0  0  0  0  0  0  0
  -23.8550  -10.5390   21.0220 C   0  0  0  0  0  0  0  0  0  0  0  0
  -24.2760   -9.5770   21.9660 C   0  0  0  0  0  3  0  0  0  0  0  0
  -23.5480   -8.3810   22.1440 C   0  0  0  0  0  3  0  0  0  0  0  0
  -22.3830   -8.1380   21.3780 C   0  0  0  0  0  0  0  0  0  0  0  0
  -21.9800   -9.0880   20.4240 C   0  0  0  0  0  3  0  0  0  0  0  0
  -22.7100  -10.2740   20.2440 C   0  0  0  0  0  3  0  0  0  0  0  0
  -21.6280   -6.9930   21.4630 O   0  0  0  0  0  0  0  0  0  0  0  0
  -21.5610   -6.2600   22.6220 C   0  0  0  0  0  0  0  0  0  0  0  0
  -21.1070   -6.8240   23.8350 C   0  0  0  0  0  3  0  0  0  0  0  0
  -20.9900   -6.0170   24.9850 C   0  0  0  0  0  3  0  0  0  0  0  0
  -21.3130   -4.6480   24.9230 C   0  0  0  0  0  0  0  0  0  0  0  0
  -21.7620   -4.0860   23.7140 C   0  0  0  0  0  3  0  0  0  0  0  0
  -21.8810   -4.8900   22.5660 C   0  0  0  0  0  0  0  0  0  0  0  0
  -22.2920   -4.3380   21.3990 F   0  0  0  0  0  0  0  0  0  0  0  0
  -21.1930   -3.8720   26.0240 F   0  0  0  0  0  0  0  0  0  0  0  0
  -22.7080  -13.6290   21.1040 C   0  0  0  0  0  0  0  0  0  0  0  0
  -21.9690  -12.9360   21.9630 N   0  0  0  0  0  0  0  0  0  0  0  0
  -22.2760  -14.6520   20.5760 O   0  0  0  0  0  0  0  0  0  0  0  0
  -22.3270  -12.1080   22.4170 H   0  0  0  0  0  0  0  0  0  0  0  0
  -21.0300  -13.2420   22.1770 H   0  0  0  0  0  0  0  0  0  0  0  0
  -25.3300  -15.2990   20.3040 N   0  0  0  0  0  0  0  0  0  0  0  0
  -24.5480  -15.9390   20.4030 H   0  0  0  0  0  0  0  0  0  0  0  0
  -26.1600  -15.7440   19.9360 H   0  0  0  0  0  0  0  0  0  0  0  0
  -28.8750  -21.8360   20.1480 C   0  0  0  0  0  2  0  0  0  0  0  0
  -30.4250  -24.0170   20.0740 C   0  0  0  0  0  1  0  0  0  0  0  0
  -29.0650  -23.4820   20.5780 C   0  0  0  0  0  3  0  0  0  0  0  0
  -28.0100  -24.7260   20.1440 C   0  0  0  0  0  2  0  0  0  0  0  0
  -28.2350  -26.2530   20.3610 O   0  0  0  0  0  0  0  0  0  0  0  0
  -24.6100  -31.9550   23.2510 C   0  0  0  0  0  0  0  0  0  0  0  0
  -27.1750  -27.2240   20.2620 C   0  0  0  0  0  0  0  0  0  0  0  0
  -23.4040  -30.5530   21.6210 C   0  0  0  0  0  3  0  0  0  0  0  0
  -24.8500  -28.9660   20.2040 C   0  0  0  0  0  0  0  0  0  0  0  0
  -25.9580  -30.8150   21.4540 C   0  0  0  0  0  2  0  0  0  0  0  0
  -26.0290  -29.4190   20.8110 C   0  0  0  0  0  0  0  0  0  0  0  0
  -27.1920  -28.5640   20.8200 C   0  0  0  0  0  3  0  0  0  0  0  0
  -25.9720  -26.8690   19.6130 C   0  0  0  0  0  3  0  0  0  0  0  0
  -24.8350  -27.7070   19.5860 C   0  0  0  0  0  3  0  0  0  0  0  0
  -23.6240  -29.8660   20.2450 C   0  0  0  0  0  2  0  0  0  0  0  0
  -24.6770  -31.1300   22.1640 N   0  0  0  0  0  0  0  0  0  0  0  0
  -23.5250  -32.2460   23.7780 O   0  0  0  0  0  0  0  0  0  0  0  0
  -22.7240  -29.5530   22.5890 C   0  0  0  0  0  0  0  0  0  0  0  0
  -21.3940  -29.3850   22.4630 N   0  0  0  0  0  0  0  0  0  0  0  0
  -23.3930  -28.9310   23.4170 O   0  0  0  0  0  0  0  0  0  0  0  0
  -20.9120  -29.9350   21.7660 H   0  0  0  0  0  0  0  0  0  0  0  0
  -18.0090  -28.2040   22.9720 C   0  0  0  0  0  0  0  0  0  0  0  0
  -20.5700  -28.4570   23.2410 C   0  0  0  0  0  3  0  0  0  0  0  0
  -20.6650  -27.0200   22.6770 C   0  0  0  0  0  2  0  0  0  0  0  0
  -19.5630  -26.6950   21.6640 C   0  0  0  0  0  2  0  0  0  0  0  0
  -18.1810  -26.8500   22.3050 C   0  0  0  0  0  2  0  0  0  0  0  0
  -19.1310  -28.9650   23.3980 C   0  0  0  0  0  0  0  0  0  0  0  0
  -18.9150  -30.2310   23.9850 C   0  0  0  0  0  3  0  0  0  0  0  0
  -17.6110  -30.7360   24.1470 C   0  0  0  0  0  3  0  0  0  0  0  0
  -16.5050  -29.9730   23.7350 C   0  0  0  0  0  3  0  0  0  0  0  0
  -16.7050  -28.7080   23.1550 C   0  0  0  0  0  3  0  0  0  0  0  0
  -25.8900  -32.5890   23.8760 C   0  0  0  0  0  3  0  0  0  0  0  0
  -26.3980  -31.8250   25.1590 C   0  0  1  0  0  0  0  0  0  0  0  0
  -25.2970  -31.5970   26.2210 C   0  0  0  0  0  1  0  0  0  0  0  0
  -26.9820  -30.4440   24.7810 C   0  0  0  0  0  1  0  0  0  0  0  0
  -27.5460  -32.6210   25.8230 C   0  0  0  0  0  1  0  0  0  0  0  0
  -25.5820  -33.9910   24.2050 N   0  0  0  0  0  0  0  0  0  0  0  0
  -25.9090  -35.0420   23.4420 C   0  0  0  0  0  0  0  0  0  0  0  0
  -26.5680  -34.9350   22.4040 O   0  0  0  0  0  0  0  0  0  0  0  0
  -24.9920  -34.1480   25.0080 H   0  0  0  0  0  0  0  0  0  0  0  0
  -24.1740  -36.8360   23.1140 C   0  0  0  0  0  1  0  0  0  0  0  0
  -25.4300  -36.4330   23.9030 C   0  0  0  0  0  3  0  0  0  0  0  0
  -27.5790  -37.3200   24.6950 C   0  0  0  0  0  1  0  0  0  0  0  0
  -26.4600  -37.4860   23.7700 N   0  0  0  0  0  0  0  0  0  0  0  0
  -26.0560  -38.4050   23.9240 H   0  0  0  0  0  0  0  0  0  0  0  0
  2  1  1  0
  3  5  1  0
  4  8  1  0
  4  6  1  0
  5  1  1  0
  5  7  1  0
  6 18  1  0
  6  2  1  0
  8  3  1  0
  8  9  1  1
 10 18  1  0
 11 16  1  0
 12 13  1  0
 12 11  1  0
 14 13  1  0
 14 23  1  0
 14 15  1  0
 16 10  1  0
 16 15  1  0
 17 10  2  0
 19 18  1  0
 20 21  2  0
 21 40  1  0
 22 21  1  0
 22 25  1  0
 23 20  1  0
 23 24  1  0
 24 22  2  0
 25 26  1  0
 26 27  2  0
 28 31  1  0
 28 27  1  0
 29 28  2  0
 30 29  1  0
 30 25  2  0
 31 32  1  0
 32 33  1  0
 33 34  2  0
 35 34  1  0
 35 39  1  0
 36 35  2  0
 37 32  2  0
 37 36  1  0
 38 37  1  0
 40 41  1  0
 41 44  1  0
 41 43  1  0
 42 40  2  0
 45 46  1  0
 45 20  1  0
 47 45  1  0
 48 50  1  0
 48  8  1  0
 50 49  1  0
 51 52  1  0
 51 50  1  0
 53 64  2  0
 54 52  1  0
 54 59  1  0
 55 63  1  0
 55 65  1  0
 56 62  1  0
 56 58  1  0
 57 63  1  0
 58 59  2  0
 58 57  1  0
 60 54  2  0
 61 60  1  0
 61 56  2  0
 62 55  1  0
 63 53  1  0
 65 67  2  0
 66 65  1  0
 68 66  1  0
 69 78  2  0
 69 74  1  0
 70 66  1  0
 70 74  1  0
 71 70  1  0
 72 73  1  0
 72 71  1  0
 73 69  1  0
 74 75  2  0
 75 76  1  0
 77 76  2  0
 78 77  1  0
 79 53  1  0
 79 84  1  0
 79 80  1  0
 80 83  1  1
 80 81  1  0
 82 80  1  0
 84 87  1  0
 85 89  1  0
 85 84  1  0
 86 85  2  0
 89 88  1  0
 91 89  1  0
 91 92  1  0
 91 90  1  0
M  ISO  4  10 100  18 100  51 101  52 101
M  END
>  <TORSDO>  (46) 
F 19

>  <SCORE>  (46) 
-14.898

>  <name>  (46) 
48

>  <ligand_id>  (46) 
48

>  <original_smiles>  (46) 
[H]c1c([H])c([H])c2c(c1[H])C([H])([H])C([H])([H])C([H])([H])C2([H])N([H])C(=O)C1([H])N(C(=O)C([H])(N([H])C(=O)C([H])(N([H])C([H])([H])[H])C([H])([H])[H])C(C([H])([H])[H])(C([H])([H])[H])C([H])([H])[H])C([H])([H])c2c([H])c(OC([H])([H])C([H])(C([H])([H])[H])C([H])([H])[N+]3([H])C([H])([H])C([H])(N([H])C(=O)N4C([H])([H])C([H])([H])C([H])([H])C([H])(n5nc(-c6c([H])c([H])c(Oc7c([H])c([H])c(F)c([H])c7F)c([H])c6[H])c(C(=O)N([H])[H])c5N([H])[H])C4([H])[H])C([H])([H])C([H])([H])C([H])(C([H])([H])[H])C3([H])[H])c([H])c([H])c2C1([H])[H]

>  <smiles>  (46) 
[H]c1c([H])c([H])c2c(c1[H])C([H])([H])C([H])([H])C([H])([H])C2([H])N([H])C(=O)C1([H])N(C(=O)C([H])(N([H])C(=O)C([H])(N([H])C([H])([H])[H])C([H])([H])[H])C(C([H])([H])[H])(C([H])([H])[H])C([H])([H])[H])C([H])([H])c2c([H])c(OC([H])([H])C([H])(C([H])([H])[H])C([H])([H])[N+]3([H])C([H])([H])C([H])(N([H])C(=O)N4C([H])([H])C([H])([H])C([H])([H])C([H])(n5nc(-c6c([H])c([H])c(Oc7c([H])c([H])c(F)c([H])c7F)c([H])c6[H])c(C(=O)N([H])[H])c5N([H])[H])C4([H])[H])C([H])([H])C([H])([H])C([H])(C([H])([H])[H])C3([H])[H])c([H])c([H])c2C1([H])[H]

$$$$
49:0:0
     RDKit          3D

 93102  0  0  1  0  0  0  0  0999 V2000
  -27.6420  -22.1780   19.7690 C   0  0  0  0  0  2  0  0  0  0  0  0
  -28.3380  -24.5600   19.5810 C   0  0  0  0  0  0  0  0  0  0  0  0
  -28.1470  -23.4430   20.2960 N   0  0  0  0  0  0  0  0  0  0  0  0
  -28.2380  -24.5810   18.3510 O   0  0  0  0  0  0  0  0  0  0  0  0
  -28.2690  -23.5120   21.2990 H   0  0  0  0  0  0  0  0  0  0  0  0
  -28.6620  -25.8400   20.3730 C   0  0  0  0  0  2  0  0  0  0  0  0
  -28.5490  -27.0160   19.5600 O   0  0  0  0  0  0  0  0  0  0  0  0
  -24.6200  -31.7740   23.0970 C   0  0  0  0  0  0  0  0  0  0  0  0
  -27.3470  -27.6750   19.6610 C   0  0  0  0  0  0  0  0  0  0  0  0
  -23.4180  -30.4210   21.4090 C   0  0  0  0  0  3  0  0  0  0  0  0
  -24.8870  -29.0440   19.8450 C   0  0  0  0  0  0  0  0  0  0  0  0
  -25.9130  -30.9130   21.1490 C   0  0  0  0  0  2  0  0  0  0  0  0
  -26.0380  -29.5900   20.4260 C   0  0  0  0  0  0  0  0  0  0  0  0
  -27.2730  -28.9130   20.3310 C   0  0  0  0  0  3  0  0  0  0  0  0
  -26.1810  -27.1330   19.0800 C   0  0  0  0  0  3  0  0  0  0  0  0
  -24.9520  -27.8120   19.1690 C   0  0  0  0  0  3  0  0  0  0  0  0
  -23.6070  -29.8360   19.9840 C   0  0  0  0  0  2  0  0  0  0  0  0
  -24.6700  -31.0490   21.9430 N   0  0  0  0  0  0  0  0  0  0  0  0
  -23.5480  -31.9600   23.6890 O   0  0  0  0  0  0  0  0  0  0  0  0
  -22.8500  -29.3140   22.3250 C   0  0  0  0  0  0  0  0  0  0  0  0
  -21.5360  -29.0580   22.2080 N   0  0  0  0  0  0  0  0  0  0  0  0
  -23.5860  -28.6920   23.0960 O   0  0  0  0  0  0  0  0  0  0  0  0
  -20.9980  -29.6210   21.5630 H   0  0  0  0  0  0  0  0  0  0  0  0
  -18.2580  -27.6090   22.6660 C   0  0  0  0  0  0  0  0  0  0  0  0
  -20.7930  -28.0340   22.9420 C   0  0  0  0  0  3  0  0  0  0  0  0
  -20.9940  -26.6390   22.3080 C   0  0  0  0  0  2  0  0  0  0  0  0
  -19.9110  -26.2770   21.2880 C   0  0  0  0  0  2  0  0  0  0  0  0
  -18.5250  -26.3020   21.9380 C   0  0  0  0  0  2  0  0  0  0  0  0
  -19.3240  -28.4300   23.1230 C   0  0  0  0  0  0  0  0  0  0  0  0
  -19.0200  -29.6520   23.7610 C   0  0  0  0  0  3  0  0  0  0  0  0
  -17.6840  -30.0550   23.9480 C   0  0  0  0  0  3  0  0  0  0  0  0
  -16.6340  -29.2300   23.5070 C   0  0  0  0  0  3  0  0  0  0  0  0
  -16.9210  -28.0090   22.8720 C   0  0  0  0  0  3  0  0  0  0  0  0
  -25.9000  -32.4220   23.7110 C   0  0  0  0  0  3  0  0  0  0  0  0
  -25.5510  -33.7920   24.1120 N   0  0  0  0  0  0  0  0  0  0  0  0
  -25.8380  -34.8880   23.3970 C   0  0  0  0  0  0  0  0  0  0  0  0
  -26.4950  -34.8540   22.3530 O   0  0  0  0  0  0  0  0  0  0  0  0
  -24.9600  -33.8880   24.9250 H   0  0  0  0  0  0  0  0  0  0  0  0
  -24.0450  -36.6330   23.1460 C   0  0  0  0  0  1  0  0  0  0  0  0
  -25.3120  -36.2370   23.9230 C   0  0  0  0  0  3  0  0  0  0  0  0
  -27.4280  -37.1530   24.7650 C   0  0  0  0  0  1  0  0  0  0  0  0
  -26.3080  -37.3280   23.8440 N   0  0  0  0  0  0  0  0  0  0  0  0
  -25.8740  -38.2270   24.0360 H   0  0  0  0  0  0  0  0  0  0  0  0
  -26.4810  -31.6120   24.9350 C   0  0  1  0  0  0  0  0  0  0  0  0
  -25.4300  -31.2830   26.0190 C   0  0  0  0  0  1  0  0  0  0  0  0
  -27.1030  -30.2790   24.4600 C   0  0  0  0  0  1  0  0  0  0  0  0
  -27.6240  -32.4180   25.5990 C   0  0  0  0  0  1  0  0  0  0  0  0
  -27.4140  -21.1600   20.9070 C   0  0  0  0  0  2  0  0  0  0  0  0
  -29.9270  -20.3370   20.6560 C   0  0  0  0  0  2  0  0  0  0  0  0
  -28.1600  -18.6830   20.5410 C   0  0  0  0  0  2  0  0  0  0  0  0
  -30.5830  -18.9710   20.6350 C   0  0  0  0  0  3  0  0  0  0  0  0
  -29.4750  -17.9360   20.5980 C   0  0  0  0  0  3  0  0  0  0  0  0
  -28.4860  -20.0650   21.1210 C   0  0  0  0  0  3  0  0  0  0  0  0
  -30.4960  -17.9800   19.4900 C   0  0  0  0  0  3  0  0  0  0  0  0
  -31.5620  -16.9020   19.3600 C   0  0  0  0  0  2  0  0  0  0  0  0
  -31.7250  -14.4080   19.2290 C   0  0  0  0  0  0  0  0  0  0  0  0
  -31.4370  -11.9790   18.9210 C   0  0  0  0  0  2  0  0  0  0  0  0
  -30.4400  -11.7080   17.7780 C   0  0  0  0  0  2  0  0  0  0  0  0
  -28.9900  -11.7190   18.2990 C   0  0  0  0  0  2  0  0  0  0  0  0
  -28.6780  -12.9640   19.1720 C   0  0  0  0  0  3  0  0  0  0  0  0
  -29.7760  -13.1670   20.2400 C   0  0  0  0  0  2  0  0  0  0  0  0
  -31.0720  -13.2600   19.5440 N   0  0  0  0  0  0  0  0  0  0  0  0
  -32.7820  -14.4340   18.5900 O   0  0  0  0  0  0  0  0  0  0  0  0
  -31.1040  -15.5330   19.6000 N   0  0  0  0  0  0  0  0  0  0  0  0
  -30.2380  -15.4180   20.1040 H   0  0  0  0  0  0  0  0  0  0  0  0
  -26.4610  -13.8780   20.1090 C   0  0  0  0  0  0  0  0  0  0  0  0
  -25.3330  -13.2480   20.5660 C   0  0  0  0  0  0  0  0  0  0  0  0
  -25.5970  -11.8480   20.4730 C   0  0  0  0  0  0  0  0  0  0  0  0
  -27.3480  -12.8680   19.7710 N   0  0  0  0  0  0  0  0  0  0  0  0
  -26.8350  -11.6400   20.0440 N   0  0  0  0  0  0  0  0  0  0  0  0
  -24.7230  -10.6900   20.7130 C   0  0  0  0  0  0  0  0  0  0  0  0
  -25.0110   -9.7400   21.7180 C   0  0  0  0  0  3  0  0  0  0  0  0
  -24.1460   -8.6470   21.9400 C   0  0  0  0  0  3  0  0  0  0  0  0
  -22.9780   -8.4970   21.1560 C   0  0  0  0  0  0  0  0  0  0  0  0
  -22.7070   -9.4320   20.1410 C   0  0  0  0  0  3  0  0  0  0  0  0
  -23.5730  -10.5170   19.9180 C   0  0  0  0  0  3  0  0  0  0  0  0
  -22.0920   -7.4530   21.2830 O   0  0  0  0  0  0  0  0  0  0  0  0
  -21.8230   -6.8830   22.5010 C   0  0  0  0  0  0  0  0  0  0  0  0
  -21.2990   -7.6360   23.5750 C   0  0  0  0  0  3  0  0  0  0  0  0
  -20.9710   -6.9980   24.7880 C   0  0  0  0  0  3  0  0  0  0  0  0
  -21.1570   -5.6100   24.9270 C   0  0  0  0  0  0  0  0  0  0  0  0
  -21.6750   -4.8580   23.8590 C   0  0  0  0  0  3  0  0  0  0  0  0
  -22.0040   -5.4940   22.6480 C   0  0  0  0  0  0  0  0  0  0  0  0
  -22.4830   -4.7610   21.6140 F   0  0  0  0  0  0  0  0  0  0  0  0
  -20.8350   -4.9950   26.0900 F   0  0  0  0  0  0  0  0  0  0  0  0
  -24.0450  -13.9020   20.9760 C   0  0  0  0  0  0  0  0  0  0  0  0
  -23.3280  -13.3020   21.9190 N   0  0  0  0  0  0  0  0  0  0  0  0
  -23.6920  -14.9780   20.4960 O   0  0  0  0  0  0  0  0  0  0  0  0
  -23.6250  -12.4270   22.3240 H   0  0  0  0  0  0  0  0  0  0  0  0
  -22.4680  -13.7260   22.2410 H   0  0  0  0  0  0  0  0  0  0  0  0
  -26.7990  -15.2160   19.9350 N   0  0  0  0  0  0  0  0  0  0  0  0
  -26.1550  -15.9750   20.1260 H   0  0  0  0  0  0  0  0  0  0  0  0
  -27.6760  -15.5340   19.5400 H   0  0  0  0  0  0  0  0  0  0  0  0
  1  3  1  0
  1 48  1  0
  2  3  1  0
  2  6  1  0
  3  5  1  0
  4  2  2  0
  7  9  1  0
  7  6  1  0
  8 19  2  0
  9 14  1  0
 10 18  1  0
 10 20  1  0
 11 17  1  0
 11 13  1  0
 12 18  1  0
 13 12  1  0
 14 13  2  0
 15 16  1  0
 15  9  2  0
 16 11  2  0
 17 10  1  0
 18  8  1  0
 20 22  2  0
 21 20  1  0
 23 21  1  0
 24 33  2  0
 24 29  1  0
 25 21  1  0
 25 29  1  0
 26 25  1  0
 27 28  1  0
 27 26  1  0
 28 24  1  0
 29 30  2  0
 30 31  1  0
 32 31  2  0
 33 32  1  0
 34  8  1  0
 34 35  1  0
 34 44  1  0
 35 38  1  0
 36 40  1  0
 36 35  1  0
 37 36  2  0
 40 39  1  0
 42 40  1  0
 42 43  1  0
 42 41  1  0
 44 47  1  1
 44 45  1  0
 46 44  1  0
 49 53  1  0
 50 53  1  0
 51 49  1  0
 52 50  1  0
 52 51  1  0
 53 48  1  0
 54 55  1  0
 54 52  1  0
 54 51  1  0
 55 64  1  0
 56 62  1  0
 56 64  1  0
 57 62  1  0
 58 59  1  0
 58 57  1  0
 60 59  1  0
 60 69  1  0
 60 61  1  0
 62 61  1  0
 63 56  2  0
 64 65  1  0
 66 67  2  0
 67 86  1  0
 68 67  1  0
 68 71  1  0
 69 70  1  0
 69 66  1  0
 70 68  2  0
 71 72  1  0
 72 73  2  0
 74 77  1  0
 74 73  1  0
 75 74  2  0
 76 75  1  0
 76 71  2  0
 77 78  1  0
 78 83  2  0
 78 79  1  0
 79 80  2  0
 80 81  1  0
 81 85  1  0
 82 81  2  0
 83 82  1  0
 84 83  1  0
 86 87  1  0
 87 90  1  0
 87 89  1  0
 88 86  2  0
 91 66  1  0
 91 92  1  0
 93 91  1  0
M  ISO  4   6 101   7 101  56 100  64 100
M  END
>  <TORSDO>  (47) 
F 21

>  <SCORE>  (47) 
-10.905

>  <name>  (47) 
49

>  <ligand_id>  (47) 
49

>  <original_smiles>  (47) 
[H]c1c([H])c([H])c2c(c1[H])C([H])([H])C([H])([H])C([H])([H])C2([H])N([H])C(=O)C1([H])N(C(=O)C([H])(N([H])C(=O)C([H])(N([H])C([H])([H])[H])C([H])([H])[H])C(C([H])([H])[H])(C([H])([H])[H])C([H])([H])[H])C([H])([H])c2c([H])c(OC([H])([H])C(=O)N([H])C([H])([H])C([H])([H])C3([H])C([H])([H])C4([H])C([H])(C([H])([H])N([H])C(=O)N5C([H])([H])C([H])([H])C([H])([H])C([H])(n6nc(-c7c([H])c([H])c(Oc8c([H])c([H])c(F)c([H])c8F)c([H])c7[H])c(C(=O)N([H])[H])c6N([H])[H])C5([H])[H])C4([H])C3([H])[H])c([H])c([H])c2C1([H])[H]

>  <smiles>  (47) 
[H]c1c([H])c([H])c2c(c1[H])C([H])([H])C([H])([H])C([H])([H])C2([H])N([H])C(=O)C1([H])N(C(=O)C([H])(N([H])C(=O)C([H])(N([H])C([H])([H])[H])C([H])([H])[H])C(C([H])([H])[H])(C([H])([H])[H])C([H])([H])[H])C([H])([H])c2c([H])c(OC([H])([H])C(=O)N([H])C([H])([H])C([H])([H])C3([H])C([H])([H])C4([H])C([H])(C([H])([H])N([H])C(=O)N5C([H])([H])C([H])([H])C([H])([H])C([H])(n6nc(-c7c([H])c([H])c(Oc8c([H])c([H])c(F)c([H])c8F)c([H])c7[H])c(C(=O)N([H])[H])c6N([H])[H])C5([H])[H])C4([H])C3([H])[H])c([H])c([H])c2C1([H])[H]

$$$$
50:0:0
     RDKit          3D

 92101  0  0  1  0  0  0  0  0999 V2000
  -27.3900  -19.5290   20.2700 C   0  0  0  0  0  3  0  0  0  0  0  0
  -27.5510  -19.0570   17.8530 C   0  0  0  0  0  2  0  0  0  0  0  0
  -29.8560  -19.3870   18.0610 C   0  0  0  0  0  2  0  0  0  0  0  0
  -27.3290  -21.0200   19.7970 C   0  0  0  0  0  3  0  0  0  0  0  0
  -27.9440  -18.4860   19.2500 C   0  0  0  0  0  3  0  0  0  0  0  0
  -29.5190  -18.5250   19.3380 C   0  0  0  0  0  3  0  0  0  0  0  0
  -28.5700  -20.2230   17.6570 C   0  0  0  0  0  3  0  0  0  0  0  0
  -28.0980  -21.3880   18.5600 N   0  0  2  0  0  4  0  0  0  0  0  0
  -27.2420  -21.2960   18.0490 H   0  0  0  0  0  0  0  0  0  0  0  0
  -30.4230  -17.3330   19.9780 C   0  0  0  0  0  2  0  0  0  0  0  0
  -30.9780  -14.7740   20.1830 C   0  0  0  0  0  0  0  0  0  0  0  0
  -30.8070  -12.4530   19.3260 C   0  0  0  0  0  2  0  0  0  0  0  0
  -29.8960  -12.5940   18.0760 C   0  0  0  0  0  2  0  0  0  0  0  0
  -28.4050  -12.4850   18.4890 C   0  0  0  0  0  2  0  0  0  0  0  0
  -28.0540  -13.3710   19.7230 C   0  0  0  0  0  3  0  0  0  0  0  0
  -29.1120  -13.2110   20.8430 C   0  0  0  0  0  2  0  0  0  0  0  0
  -30.4100  -13.5300   20.2330 N   0  0  0  0  0  0  0  0  0  0  0  0
  -32.2110  -14.8600   20.2020 O   0  0  0  0  0  0  0  0  0  0  0  0
  -30.1610  -15.8350   19.8880 N   0  0  0  0  0  0  0  0  0  0  0  0
  -29.2600  -15.5620   19.5190 H   0  0  0  0  0  0  0  0  0  0  0  0
  -25.6780  -14.0160   20.4110 C   0  0  0  0  0  0  0  0  0  0  0  0
  -24.5970  -13.2740   20.7720 C   0  0  0  0  0  0  0  0  0  0  0  0
  -25.0290  -11.9040   20.7780 C   0  0  0  0  0  0  0  0  0  0  0  0
  -26.7000  -13.1180   20.2080 N   0  0  0  0  0  0  0  0  0  0  0  0
  -26.3210  -11.8450   20.4950 N   0  0  0  0  0  0  0  0  0  0  0  0
  -24.2820  -10.6570   20.9600 C   0  0  0  0  0  0  0  0  0  0  0  0
  -24.6550   -9.7190   21.9470 C   0  0  0  0  0  3  0  0  0  0  0  0
  -23.9040   -8.5390   22.1150 C   0  0  0  0  0  3  0  0  0  0  0  0
  -22.7780   -8.2910   21.2950 C   0  0  0  0  0  0  0  0  0  0  0  0
  -22.4290   -9.2200   20.3080 C   0  0  0  0  0  3  0  0  0  0  0  0
  -23.1740  -10.3940   20.1310 C   0  0  0  0  0  3  0  0  0  0  0  0
  -22.0040   -7.1590   21.3770 O   0  0  0  0  0  0  0  0  0  0  0  0
  -21.8500   -6.4770   22.5620 C   0  0  0  0  0  0  0  0  0  0  0  0
  -21.2370   -7.0710   23.6870 C   0  0  0  0  0  3  0  0  0  0  0  0
  -21.0340   -6.3120   24.8600 C   0  0  0  0  0  3  0  0  0  0  0  0
  -21.4360   -4.9610   24.9020 C   0  0  0  0  0  0  0  0  0  0  0  0
  -22.0390   -4.3710   23.7780 C   0  0  0  0  0  3  0  0  0  0  0  0
  -22.2410   -5.1260   22.6120 C   0  0  0  0  0  0  0  0  0  0  0  0
  -22.8090   -4.5450   21.5250 F   0  0  0  0  0  0  0  0  0  0  0  0
  -21.2320   -4.2330   26.0220 F   0  0  0  0  0  0  0  0  0  0  0  0
  -23.1990  -13.7780   21.0030 C   0  0  0  0  0  0  0  0  0  0  0  0
  -22.4360  -13.1170   21.8720 N   0  0  0  0  0  0  0  0  0  0  0  0
  -22.7840  -14.7920   20.4430 O   0  0  0  0  0  0  0  0  0  0  0  0
  -22.7740  -12.2980   22.3530 H   0  0  0  0  0  0  0  0  0  0  0  0
  -21.4980  -13.4460   22.0690 H   0  0  0  0  0  0  0  0  0  0  0  0
  -25.8640  -15.3740   20.1990 N   0  0  0  0  0  0  0  0  0  0  0  0
  -25.0680  -15.9960   20.1480 H   0  0  0  0  0  0  0  0  0  0  0  0
  -26.6880  -15.7360   19.7480 H   0  0  0  0  0  0  0  0  0  0  0  0
  -27.9880  -22.8940   18.2120 C   0  0  0  0  0  2  0  0  0  0  0  0
  -29.1940  -23.9200   18.5020 C   0  0  0  0  0  2  0  0  0  0  0  0
  -28.9760  -25.5480   18.7830 C   0  0  0  0  0  2  0  0  0  0  0  0
  -28.7890  -26.3710   20.0610 O   0  0  0  0  0  0  0  0  0  0  0  0
  -24.7820  -31.7580   23.2810 C   0  0  0  0  0  0  0  0  0  0  0  0
  -27.6890  -27.2630   20.1750 C   0  0  0  0  0  0  0  0  0  0  0  0
  -23.7610  -30.3260   21.5810 C   0  0  0  0  0  3  0  0  0  0  0  0
  -25.3010  -28.8520   20.2270 C   0  0  0  0  0  0  0  0  0  0  0  0
  -26.3070  -30.7110   21.5520 C   0  0  0  0  0  2  0  0  0  0  0  0
  -26.4350  -29.3380   20.8820 C   0  0  0  0  0  0  0  0  0  0  0  0
  -27.6230  -28.5260   20.8840 C   0  0  0  0  0  3  0  0  0  0  0  0
  -26.5110  -26.8550   19.5390 C   0  0  0  0  0  3  0  0  0  0  0  0
  -25.3270  -27.5950   19.6010 C   0  0  0  0  0  3  0  0  0  0  0  0
  -24.0600  -29.7050   20.2050 C   0  0  0  0  0  2  0  0  0  0  0  0
  -24.9600  -30.9530   22.1920 N   0  0  0  0  0  0  0  0  0  0  0  0
  -23.6510  -31.9900   23.7360 O   0  0  0  0  0  0  0  0  0  0  0  0
  -23.0780  -29.2600   22.4640 C   0  0  0  0  0  0  0  0  0  0  0  0
  -21.7810  -29.0250   22.2620 N   0  0  0  0  0  0  0  0  0  0  0  0
  -23.7570  -28.6270   23.3000 O   0  0  0  0  0  0  0  0  0  0  0  0
  -21.2750  -29.6220   21.6390 H   0  0  0  0  0  0  0  0  0  0  0  0
  -18.4460  -27.6980   22.4620 C   0  0  0  0  0  0  0  0  0  0  0  0
  -20.9890  -28.0270   22.9710 C   0  0  0  0  0  3  0  0  0  0  0  0
  -21.1470  -26.6020   22.3600 C   0  0  0  0  0  2  0  0  0  0  0  0
  -20.1620  -26.2700   21.2000 C   0  0  0  0  0  2  0  0  0  0  0  0
  -18.6680  -26.4060   21.6550 C   0  0  0  0  0  2  0  0  0  0  0  0
  -19.5180  -28.4550   23.0310 C   0  0  0  0  0  0  0  0  0  0  0  0
  -19.2560  -29.6260   23.7630 C   0  0  0  0  0  3  0  0  0  0  0  0
  -17.9410  -30.1430   23.8390 C   0  0  0  0  0  3  0  0  0  0  0  0
  -16.8630  -29.4120   23.2890 C   0  0  0  0  0  3  0  0  0  0  0  0
  -17.1320  -28.1830   22.6400 C   0  0  0  0  0  3  0  0  0  0  0  0
  -25.9780  -32.4440   23.9870 C   0  0  0  0  0  3  0  0  0  0  0  0
  -26.4040  -31.7140   25.3190 C   0  0  1  0  0  0  0  0  0  0  0  0
  -25.2290  -31.4160   26.2780 C   0  0  0  0  0  1  0  0  0  0  0  0
  -27.1250  -30.3800   25.0010 C   0  0  0  0  0  1  0  0  0  0  0  0
  -27.4310  -32.5880   26.0730 C   0  0  0  0  0  1  0  0  0  0  0  0
  -25.5750  -33.8370   24.2500 N   0  0  0  0  0  0  0  0  0  0  0  0
  -25.8920  -34.8790   23.4730 C   0  0  0  0  0  0  0  0  0  0  0  0
  -26.6220  -34.7700   22.4840 O   0  0  0  0  0  0  0  0  0  0  0  0
  -24.9500  -33.9930   25.0280 H   0  0  0  0  0  0  0  0  0  0  0  0
  -24.1130  -36.5810   22.9830 C   0  0  0  0  0  1  0  0  0  0  0  0
  -25.3180  -36.2570   23.8750 C   0  0  0  0  0  3  0  0  0  0  0  0
  -27.3490  -37.2780   24.7960 C   0  0  0  0  0  1  0  0  0  0  0  0
  -26.3010  -37.3510   23.7840 N   0  0  0  0  0  0  0  0  0  0  0  0
  -25.8460  -38.2550   23.8710 H   0  0  0  0  0  0  0  0  0  0  0  0
  3  6  1  0
  4  1  2  0
  5  2  1  0
  5  6  1  0
  5  1  1  0
  6 10  1  0
  7  2  1  0
  7  3  1  0
  7  8  1  0
  8  4  1  0
  8  9  1  6
 11 18  2  0
 11 17  1  0
 12 17  1  0
 13 14  1  0
 13 12  1  0
 15 14  1  0
 15 24  1  0
 15 16  1  0
 17 16  1  0
 19 10  1  0
 19 11  1  0
 20 19  1  0
 21 22  2  0
 22 23  1  0
 22 41  1  0
 23 26  1  0
 24 21  1  0
 24 25  1  0
 25 23  2  0
 26 27  1  0
 27 28  2  0
 29 32  1  0
 29 28  1  0
 30 29  2  0
 31 30  1  0
 31 26  2  0
 32 33  1  0
 33 38  2  0
 33 34  1  0
 34 35  2  0
 35 36  1  0
 36 40  1  0
 37 36  2  0
 38 37  1  0
 39 38  1  0
 41 42  1  0
 42 45  1  0
 42 44  1  0
 43 41  2  0
 46 21  1  0
 47 46  1  0
 48 46  1  0
 49 50  1  0
 49  8  1  0
 50 51  1  0
 51 52  1  0
 52 54  1  0
 53 64  2  0
 54 59  1  0
 55 63  1  0
 55 65  1  0
 56 58  1  0
 57 63  1  0
 58 59  2  0
 58 57  1  0
 60 61  1  0
 60 54  2  0
 61 56  2  0
 62 56  1  0
 62 55  1  0
 63 53  1  0
 65 67  2  0
 66 65  1  0
 68 66  1  0
 69 78  2  0
 69 74  1  0
 70 66  1  0
 70 74  1  0
 71 70  1  0
 72 73  1  0
 72 71  1  0
 73 69  1  0
 74 75  2  0
 75 76  1  0
 77 76  2  0
 78 77  1  0
 79 53  1  0
 79 84  1  0
 79 80  1  0
 80 83  1  1
 80 81  1  0
 82 80  1  0
 84 87  1  0
 85 89  1  0
 85 84  1  0
 86 85  2  0
 89 88  1  0
 91 92  1  0
 91 89  1  0
 91 90  1  0
M  ISO  4  11 100  19 100  51 101  52 101
M  END
>  <TORSDO>  (48) 
F 20

>  <SCORE>  (48) 
-12.768

>  <name>  (48) 
50

>  <ligand_id>  (48) 
50

>  <original_smiles>  (48) 
[H]c1c([H])c([H])c2c(c1[H])C([H])([H])C([H])([H])C([H])([H])C2([H])N([H])C(=O)C1([H])N(C(=O)C([H])(N([H])C(=O)C([H])(N([H])C([H])([H])[H])C([H])([H])[H])C(C([H])([H])[H])(C([H])([H])[H])C([H])([H])[H])C([H])([H])c2c([H])c(OC([H])([H])C([H])([H])C([H])([H])[N+]3([H])C([H])([H])C([H])([H])C4([H])C([H])([H])C3([H])C([H])([H])C4([H])C([H])([H])N([H])C(=O)N3C([H])([H])C([H])([H])C([H])([H])C([H])(n4nc(-c5c([H])c([H])c(Oc6c([H])c([H])c(F)c([H])c6F)c([H])c5[H])c(C(=O)N([H])[H])c4N([H])[H])C3([H])[H])c([H])c([H])c2C1([H])[H]

>  <smiles>  (48) 
[H]c1c([H])c([H])c2c(c1[H])C([H])([H])C([H])([H])C([H])([H])C2([H])N([H])C(=O)C1([H])N(C(=O)C([H])(N([H])C(=O)C([H])(N([H])C([H])([H])[H])C([H])([H])[H])C(C([H])([H])[H])(C([H])([H])[H])C([H])([H])[H])C([H])([H])c2c([H])c(OC([H])([H])C([H])([H])C([H])([H])[N+]3([H])C([H])([H])C([H])([H])C4([H])C([H])([H])C3([H])C([H])([H])C4([H])C([H])([H])N([H])C(=O)N3C([H])([H])C([H])([H])C([H])([H])C([H])(n4nc(-c5c([H])c([H])c(Oc6c([H])c([H])c(F)c([H])c6F)c([H])c5[H])c(C(=O)N([H])[H])c4N([H])[H])C3([H])[H])c([H])c([H])c2C1([H])[H]

$$$$
52:0:0
     RDKit          3D

 94103  0  0  1  0  0  0  0  0999 V2000
  -28.9560  -17.5290   18.9400 C   0  0  0  0  0  3  0  0  0  0  0  0
  -29.4250  -16.2070   19.0480 C   0  0  0  0  0  3  0  0  0  0  0  0
  -30.5140  -16.7470   21.1510 C   0  0  0  0  0  3  0  0  0  0  0  0
  -29.2760  -18.4860   19.9250 C   0  0  0  0  0  0  0  0  0  0  0  0
  -30.2230  -15.8020   20.1390 C   0  0  0  0  0  0  0  0  0  0  0  0
  -30.0260  -18.0790   21.0580 C   0  0  0  0  0  0  0  0  0  0  0  0
  -28.8770  -19.9130   19.7030 C   0  0  0  0  0  0  0  0  0  0  0  0
  -30.3490  -19.0940   22.1420 C   0  0  0  0  0  2  0  0  0  0  0  0
  -30.5860  -20.4930   21.5440 C   0  0  0  0  0  2  0  0  0  0  0  0
  -29.4110  -20.9940   20.6650 C   0  0  0  0  0  3  0  0  0  0  0  0
  -28.1750  -20.2490   18.7410 O   0  0  0  0  0  0  0  0  0  0  0  0
  -30.9370  -14.4750   20.0540 C   0  0  0  0  0  0  0  0  0  0  0  0
  -30.4880  -12.3560   18.9160 C   0  0  0  0  0  2  0  0  0  0  0  0
  -29.4890  -12.6240   17.7700 C   0  0  0  0  0  2  0  0  0  0  0  0
  -28.0420  -12.5050   18.2870 C   0  0  0  0  0  2  0  0  0  0  0  0
  -27.7920  -13.3300   19.5760 C   0  0  0  0  0  3  0  0  0  0  0  0
  -28.9070  -13.1040   20.6190 C   0  0  0  0  0  2  0  0  0  0  0  0
  -30.2040  -13.3340   19.9730 N   0  0  0  0  0  0  0  0  0  0  0  0
  -32.1160  -14.5400   19.7030 O   0  0  0  0  0  0  0  0  0  0  0  0
  -25.4610  -13.9640   20.4530 C   0  0  0  0  0  0  0  0  0  0  0  0
  -24.3970  -13.2010   20.8540 C   0  0  0  0  0  0  0  0  0  0  0  0
  -24.8270  -11.8420   20.7610 C   0  0  0  0  0  0  0  0  0  0  0  0
  -26.4690  -13.0670   20.1360 N   0  0  0  0  0  0  0  0  0  0  0  0
  -26.1000  -11.7850   20.3860 N   0  0  0  0  0  0  0  0  0  0  0  0
  -24.0840  -10.5900   20.9500 C   0  0  0  0  0  0  0  0  0  0  0  0
  -24.5110   -9.6090   21.8740 C   0  0  0  0  0  3  0  0  0  0  0  0
  -23.7690   -8.4220   22.0520 C   0  0  0  0  0  3  0  0  0  0  0  0
  -22.5880   -8.2050   21.3040 C   0  0  0  0  0  0  0  0  0  0  0  0
  -22.1790   -9.1730   20.3690 C   0  0  0  0  0  3  0  0  0  0  0  0
  -22.9230  -10.3510   20.1900 C   0  0  0  0  0  3  0  0  0  0  0  0
  -21.8160   -7.0710   21.3940 O   0  0  0  0  0  0  0  0  0  0  0  0
  -21.7140   -6.3590   22.5630 C   0  0  0  0  0  0  0  0  0  0  0  0
  -21.2330   -6.9480   23.7510 C   0  0  0  0  0  3  0  0  0  0  0  0
  -21.0780   -6.1610   24.9110 C   0  0  0  0  0  3  0  0  0  0  0  0
  -21.3960   -4.7900   24.8830 C   0  0  0  0  0  0  0  0  0  0  0  0
  -21.8720   -4.2030   23.6960 C   0  0  0  0  0  3  0  0  0  0  0  0
  -22.0280   -4.9860   22.5390 C   0  0  0  0  0  0  0  0  0  0  0  0
  -22.4670   -4.4100   21.3940 F   0  0  0  0  0  0  0  0  0  0  0  0
  -21.2400   -4.0340   25.9950 F   0  0  0  0  0  0  0  0  0  0  0  0
  -23.0270  -13.6990   21.2150 C   0  0  0  0  0  0  0  0  0  0  0  0
  -22.3280  -12.9870   22.0940 N   0  0  0  0  0  0  0  0  0  0  0  0
  -22.5850  -14.7500   20.7530 O   0  0  0  0  0  0  0  0  0  0  0  0
  -22.7010  -12.1350   22.4830 H   0  0  0  0  0  0  0  0  0  0  0  0
  -21.4130  -13.2990   22.3810 H   0  0  0  0  0  0  0  0  0  0  0  0
  -25.6500  -15.3330   20.3110 N   0  0  0  0  0  0  0  0  0  0  0  0
  -24.9170  -16.0110   20.4920 H   0  0  0  0  0  0  0  0  0  0  0  0
  -26.5120  -15.7570   19.9920 H   0  0  0  0  0  0  0  0  0  0  0  0
  -29.8080  -22.1200   19.7850 N   0  0  0  0  0  4  0  0  0  0  0  0
  -29.2140  -22.0400   18.9690 H   0  0  0  0  0  0  0  0  0  0  0  0
  -30.7470  -21.9480   19.4630 H   0  0  0  0  0  0  0  0  0  0  0  0
  -29.7240  -23.4900   20.3530 C   0  0  0  0  0  2  0  0  0  0  0  0
  -28.4810  -24.2860   19.8680 C   0  0  0  0  0  2  0  0  0  0  0  0
  -28.7970  -25.6180   19.1400 C   0  0  0  0  0  2  0  0  0  0  0  0
  -28.6150  -26.7730   19.9670 O   0  0  0  0  0  0  0  0  0  0  0  0
  -24.5920  -31.7130   23.1390 C   0  0  0  0  0  0  0  0  0  0  0  0
  -27.3920  -27.4200   19.9740 C   0  0  0  0  0  0  0  0  0  0  0  0
  -23.4360  -30.3180   21.4580 C   0  0  0  0  0  3  0  0  0  0  0  0
  -24.9400  -28.8460   20.0210 C   0  0  0  0  0  0  0  0  0  0  0  0
  -25.9470  -30.7520   21.2810 C   0  0  0  0  0  2  0  0  0  0  0  0
  -26.0790  -29.3920   20.6260 C   0  0  0  0  0  0  0  0  0  0  0  0
  -27.3030  -28.6850   20.6060 C   0  0  0  0  0  3  0  0  0  0  0  0
  -26.2240  -26.8810   19.3790 C   0  0  0  0  0  3  0  0  0  0  0  0
  -25.0060  -27.5870   19.4030 C   0  0  0  0  0  3  0  0  0  0  0  0
  -23.6770  -29.6770   20.0650 C   0  0  0  0  0  2  0  0  0  0  0  0
  -24.6770  -30.9420   22.0200 N   0  0  0  0  0  0  0  0  0  0  0  0
  -23.5000  -31.9400   23.6790 O   0  0  0  0  0  0  0  0  0  0  0  0
  -22.8100  -29.2560   22.3890 C   0  0  0  0  0  0  0  0  0  0  0  0
  -21.4880  -29.0610   22.2700 N   0  0  0  0  0  0  0  0  0  0  0  0
  -23.5110  -28.6110   23.1750 O   0  0  0  0  0  0  0  0  0  0  0  0
  -20.9840  -29.6360   21.6090 H   0  0  0  0  0  0  0  0  0  0  0  0
  -18.1340  -27.8190   22.7810 C   0  0  0  0  0  0  0  0  0  0  0  0
  -20.6920  -28.0890   23.0200 C   0  0  0  0  0  3  0  0  0  0  0  0
  -20.7950  -26.6810   22.3890 C   0  0  0  0  0  2  0  0  0  0  0  0
  -19.6800  -26.3870   21.3810 C   0  0  0  0  0  2  0  0  0  0  0  0
  -18.3100  -26.4970   22.0530 C   0  0  0  0  0  2  0  0  0  0  0  0
  -19.2520  -28.5750   23.2220 C   0  0  0  0  0  0  0  0  0  0  0  0
  -19.0340  -29.8150   23.8600 C   0  0  0  0  0  3  0  0  0  0  0  0
  -17.7270  -30.3010   24.0590 C   0  0  0  0  0  3  0  0  0  0  0  0
  -16.6230  -29.5430   23.6310 C   0  0  0  0  0  3  0  0  0  0  0  0
  -16.8270  -28.3030   23.0010 C   0  0  0  0  0  3  0  0  0  0  0  0
  -25.8560  -32.3650   23.7820 C   0  0  0  0  0  3  0  0  0  0  0  0
  -26.3870  -31.5830   25.0450 C   0  0  1  0  0  0  0  0  0  0  0  0
  -25.2970  -31.2960   26.1040 C   0  0  0  0  0  1  0  0  0  0  0  0
  -27.0080  -30.2290   24.6220 C   0  0  0  0  0  1  0  0  0  0  0  0
  -27.5150  -32.3930   25.7270 C   0  0  0  0  0  1  0  0  0  0  0  0
  -25.5050  -33.7480   24.1320 N   0  0  0  0  0  0  0  0  0  0  0  0
  -25.8100  -34.8200   23.3880 C   0  0  0  0  0  0  0  0  0  0  0  0
  -26.4880  -34.7510   22.3600 O   0  0  0  0  0  0  0  0  0  0  0  0
  -24.8960  -33.8760   24.9260 H   0  0  0  0  0  0  0  0  0  0  0  0
  -24.0310  -36.5710   23.0460 C   0  0  0  0  0  1  0  0  0  0  0  0
  -25.2780  -36.1880   23.8580 C   0  0  0  0  0  3  0  0  0  0  0  0
  -27.3780  -37.1270   24.7240 C   0  0  0  0  0  1  0  0  0  0  0  0
  -26.2790  -37.2710   23.7720 N   0  0  0  0  0  0  0  0  0  0  0  0
  -25.8430  -38.1740   23.9320 H   0  0  0  0  0  0  0  0  0  0  0  0
  1  2  2  0
  1  4  1  0
  2  5  1  0
  4  6  2  0
  5  3  2  0
  6  3  1  0
  6  8  1  0
  7  4  1  0
  7 10  1  0
  9  8  1  0
 10 48  1  0
 10  9  1  0
 11  7  2  0
 12  5  1  0
 13 18  1  0
 14 15  1  0
 14 13  1  0
 16 15  1  0
 16 23  1  0
 16 17  1  0
 18 12  1  0
 18 17  1  0
 19 12  2  0
 20 21  2  0
 21 40  1  0
 22 21  1  0
 22 25  1  0
 23 24  1  0
 23 20  1  0
 24 22  2  0
 25 26  1  0
 26 27  2  0
 28 31  1  0
 28 27  1  0
 29 28  2  0
 30 29  1  0
 30 25  2  0
 31 32  1  0
 32 33  1  0
 33 34  2  0
 35 34  1  0
 35 39  1  0
 36 35  2  0
 37 32  2  0
 37 36  1  0
 38 37  1  0
 40 41  1  0
 41 44  1  0
 41 43  1  0
 42 40  2  0
 45 20  1  0
 45 46  1  0
 47 45  1  0
 48 51  1  0
 49 48  1  0
 50 48  1  0
 52 51  1  0
 53 52  1  0
 53 54  1  0
 54 56  1  0
 55 66  2  0
 56 61  1  0
 57 65  1  0
 57 67  1  0
 58 64  1  0
 58 60  1  0
 59 65  1  0
 60 59  1  0
 61 60  2  0
 62 63  1  0
 62 56  2  0
 63 58  2  0
 64 57  1  0
 65 55  1  0
 67 69  2  0
 68 67  1  0
 70 68  1  0
 71 80  2  0
 71 76  1  0
 72 68  1  0
 72 76  1  0
 73 72  1  0
 74 75  1  0
 74 73  1  0
 75 71  1  0
 76 77  2  0
 77 78  1  0
 79 78  2  0
 80 79  1  0
 81 55  1  0
 81 86  1  0
 81 82  1  0
 82 85  1  1
 82 83  1  0
 84 82  1  0
 86 89  1  0
 87 91  1  0
 87 86  1  0
 88 87  2  0
 91 90  1  0
 93 91  1  0
 93 94  1  0
 93 92  1  0
M  ISO  4   5 100  12 100  53 101  54 101
M  END
>  <TORSDO>  (49) 
F 20

>  <SCORE>  (49) 
-13.402

>  <name>  (49) 
52

>  <ligand_id>  (49) 
52

>  <original_smiles>  (49) 
[H]c1c([H])c([H])c2c(c1[H])C([H])([H])C([H])([H])C([H])([H])C2([H])N([H])C(=O)C1([H])N(C(=O)C([H])(N([H])C(=O)C([H])(N([H])C([H])([H])[H])C([H])([H])[H])C(C([H])([H])[H])(C([H])([H])[H])C([H])([H])[H])C([H])([H])c2c([H])c(OC([H])([H])C([H])([H])C([H])([H])[N+]([H])([H])C3([H])C(=O)c4c([H])c([H])c(C(=O)N5C([H])([H])C([H])([H])C([H])([H])C([H])(n6nc(-c7c([H])c([H])c(Oc8c([H])c([H])c(F)c([H])c8F)c([H])c7[H])c(C(=O)N([H])[H])c6N([H])[H])C5([H])[H])c([H])c4C([H])([H])C3([H])[H])c([H])c([H])c2C1([H])[H]

>  <smiles>  (49) 
[H]c1c([H])c([H])c2c(c1[H])C([H])([H])C([H])([H])C([H])([H])C2([H])N([H])C(=O)C1([H])N(C(=O)C([H])(N([H])C(=O)C([H])(N([H])C([H])([H])[H])C([H])([H])[H])C(C([H])([H])[H])(C([H])([H])[H])C([H])([H])[H])C([H])([H])c2c([H])c(OC([H])([H])C([H])([H])C([H])([H])[N+]([H])([H])C3([H])C(=O)c4c([H])c([H])c(C(=O)N5C([H])([H])C([H])([H])C([H])([H])C([H])(n6nc(-c7c([H])c([H])c(Oc8c([H])c([H])c(F)c([H])c8F)c([H])c7[H])c(C(=O)N([H])[H])c6N([H])[H])C5([H])[H])c([H])c4C([H])([H])C3([H])[H])c([H])c([H])c2C1([H])[H]

$$$$
53:0:0
     RDKit          3D

 91100  0  0  1  0  0  0  0  0999 V2000
  -27.6700  -21.3110   20.2890 C   0  0  0  0  0  2  0  0  0  0  0  0
  -28.0840  -22.2650   21.4220 C   0  0  0  0  0  3  0  0  0  0  0  0
  -28.9370  -22.9970   20.3500 C   0  0  0  0  0  3  0  0  0  0  0  0
  -28.7200  -21.8640   22.7670 C   0  0  0  0  0  1  0  0  0  0  0  0
  -29.0270  -21.3950   19.7850 N   0  0  1  0  0  4  0  0  0  0  0  0
  -29.0740  -21.3920   18.7790 H   0  0  0  0  0  0  0  0  0  0  0  0
  -27.5470  -25.0980   21.2980 C   0  0  0  0  0  1  0  0  0  0  0  0
  -28.0450  -24.5500   19.9150 C   0  0  0  0  0  3  0  0  0  0  0  0
  -28.2830  -26.1030   19.3960 O   0  0  0  0  0  0  0  0  0  0  0  0
  -24.7070  -31.7200   22.8830 C   0  0  0  0  0  0  0  0  0  0  0  0
  -27.2600  -27.1960   19.4160 C   0  0  0  0  0  0  0  0  0  0  0  0
  -23.4760  -30.4070   21.2040 C   0  0  0  0  0  3  0  0  0  0  0  0
  -24.9060  -28.9850   19.5870 C   0  0  0  0  0  0  0  0  0  0  0  0
  -26.0220  -30.7330   20.9530 C   0  0  0  0  0  2  0  0  0  0  0  0
  -26.1080  -29.3870   20.1850 C   0  0  0  0  0  0  0  0  0  0  0  0
  -27.2800  -28.5150   20.0750 C   0  0  0  0  0  3  0  0  0  0  0  0
  -26.0290  -26.9550   18.7630 C   0  0  0  0  0  3  0  0  0  0  0  0
  -24.8910  -27.7930   18.8490 C   0  0  0  0  0  3  0  0  0  0  0  0
  -23.6550  -29.8440   19.7710 C   0  0  0  0  0  2  0  0  0  0  0  0
  -24.7580  -30.9790   21.7320 N   0  0  0  0  0  0  0  0  0  0  0  0
  -23.6400  -31.9250   23.4850 O   0  0  0  0  0  0  0  0  0  0  0  0
  -22.8720  -29.3150   22.1280 C   0  0  0  0  0  0  0  0  0  0  0  0
  -21.5410  -29.1150   22.0650 N   0  0  0  0  0  0  0  0  0  0  0  0
  -23.6070  -28.6540   22.8640 O   0  0  0  0  0  0  0  0  0  0  0  0
  -20.9970  -29.7070   21.4520 H   0  0  0  0  0  0  0  0  0  0  0  0
  -18.2370  -27.7310   22.6510 C   0  0  0  0  0  0  0  0  0  0  0  0
  -20.7940  -28.0940   22.8080 C   0  0  0  0  0  3  0  0  0  0  0  0
  -20.9260  -26.7100   22.1330 C   0  0  0  0  0  2  0  0  0  0  0  0
  -19.7880  -26.4070   21.1520 C   0  0  0  0  0  2  0  0  0  0  0  0
  -18.4350  -26.4450   21.8690 C   0  0  0  0  0  2  0  0  0  0  0  0
  -19.3440  -28.5130   23.0800 C   0  0  0  0  0  0  0  0  0  0  0  0
  -19.1040  -29.7120   23.7840 C   0  0  0  0  0  3  0  0  0  0  0  0
  -17.7890  -30.1420   24.0490 C   0  0  0  0  0  3  0  0  0  0  0  0
  -16.6960  -29.3580   23.6350 C   0  0  0  0  0  3  0  0  0  0  0  0
  -16.9230  -28.1530   22.9470 C   0  0  0  0  0  3  0  0  0  0  0  0
  -25.9910  -32.3590   23.4940 C   0  0  0  0  0  3  0  0  0  0  0  0
  -25.6390  -33.7060   23.9720 N   0  0  0  0  0  0  0  0  0  0  0  0
  -25.9190  -34.8470   23.3290 C   0  0  0  0  0  0  0  0  0  0  0  0
  -26.5650  -34.8790   22.2800 O   0  0  0  0  0  0  0  0  0  0  0  0
  -25.0480  -33.7480   24.7900 H   0  0  0  0  0  0  0  0  0  0  0  0
  -24.1310  -36.6210   23.2280 C   0  0  0  0  0  1  0  0  0  0  0  0
  -25.4060  -36.1620   23.9490 C   0  0  0  0  0  3  0  0  0  0  0  0
  -27.5350  -37.0330   24.8100 C   0  0  0  0  0  1  0  0  0  0  0  0
  -26.4010  -37.2550   23.9180 N   0  0  0  0  0  0  0  0  0  0  0  0
  -25.9680  -38.1390   24.1740 H   0  0  0  0  0  0  0  0  0  0  0  0
  -26.6050  -31.5060   24.6730 C   0  0  1  0  0  0  0  0  0  0  0  0
  -25.5830  -31.1440   25.7770 C   0  0  0  0  0  1  0  0  0  0  0  0
  -27.2070  -30.1820   24.1450 C   0  0  0  0  0  1  0  0  0  0  0  0
  -27.7680  -32.2880   25.3290 C   0  0  0  0  0  1  0  0  0  0  0  0
  -29.7710  -20.0190   20.4040 C   0  0  0  0  0  2  0  0  0  0  0  0
  -30.8900  -15.6530   19.9570 C   0  0  0  0  0  0  0  0  0  0  0  0
  -30.8580  -13.1680   19.2230 C   0  0  0  0  0  2  0  0  0  0  0  0
  -29.9190  -12.8390   18.0350 C   0  0  0  0  0  2  0  0  0  0  0  0
  -28.4690  -12.6150   18.5110 C   0  0  0  0  0  2  0  0  0  0  0  0
  -28.0210  -13.6280   19.5940 C   0  0  0  0  0  3  0  0  0  0  0  0
  -29.0980  -13.8770   20.6720 C   0  0  0  0  0  2  0  0  0  0  0  0
  -30.3070  -14.3520   19.9720 N   0  0  0  0  0  0  0  0  0  0  0  0
  -32.1260  -15.6230   19.8580 O   0  0  0  0  0  0  0  0  0  0  0  0
  -30.1920  -17.5180   17.4660 C   0  0  0  0  0  2  0  0  0  0  0  0
  -30.5040  -18.8520   18.1050 C   0  0  0  0  0  2  0  0  0  0  0  0
  -29.3360  -16.8530   18.5370 C   0  0  0  0  0  2  0  0  0  0  0  0
  -30.4550  -18.5730   19.6240 C   0  0  0  0  0  3  0  0  0  0  0  0
  -30.1370  -16.9330   19.7720 N   0  0  0  0  0  0  0  0  0  0  0  0
  -25.7030  -14.2330   20.4600 C   0  0  0  0  0  0  0  0  0  0  0  0
  -24.6250  -13.4750   20.8270 C   0  0  0  0  0  0  0  0  0  0  0  0
  -25.0510  -12.1150   20.7260 C   0  0  0  0  0  0  0  0  0  0  0  0
  -26.7090  -13.3350   20.1490 N   0  0  0  0  0  0  0  0  0  0  0  0
  -26.3310  -12.0520   20.3740 N   0  0  0  0  0  0  0  0  0  0  0  0
  -24.2910  -10.8670   20.8820 C   0  0  0  0  0  0  0  0  0  0  0  0
  -24.6740   -9.8790   21.8150 C   0  0  0  0  0  3  0  0  0  0  0  0
  -23.9100   -8.7000   21.9610 C   0  0  0  0  0  3  0  0  0  0  0  0
  -22.7510   -8.5020   21.1750 C   0  0  0  0  0  0  0  0  0  0  0  0
  -22.3910   -9.4770   20.2290 C   0  0  0  0  0  3  0  0  0  0  0  0
  -23.1550  -10.6480   20.0800 C   0  0  0  0  0  3  0  0  0  0  0  0
  -21.9660   -7.3740   21.2300 O   0  0  0  0  0  0  0  0  0  0  0  0
  -21.8070   -6.6640   22.3930 C   0  0  0  0  0  0  0  0  0  0  0  0
  -21.2840   -7.2590   23.5620 C   0  0  0  0  0  3  0  0  0  0  0  0
  -21.0770   -6.4810   24.7180 C   0  0  0  0  0  3  0  0  0  0  0  0
  -21.3800   -5.1060   24.7030 C   0  0  0  0  0  0  0  0  0  0  0  0
  -21.8920   -4.5090   23.5380 C   0  0  0  0  0  3  0  0  0  0  0  0
  -22.1050   -5.2870   22.3870 C   0  0  0  0  0  0  0  0  0  0  0  0
  -22.5840   -4.7020   21.2620 F   0  0  0  0  0  0  0  0  0  0  0  0
  -21.1690   -4.3560   25.8110 F   0  0  0  0  0  0  0  0  0  0  0  0
  -23.2530  -13.9850   21.1540 C   0  0  0  0  0  0  0  0  0  0  0  0
  -22.5400  -13.2820   22.0300 N   0  0  0  0  0  0  0  0  0  0  0  0
  -22.8260  -15.0350   20.6770 O   0  0  0  0  0  0  0  0  0  0  0  0
  -22.9010  -12.4260   22.4230 H   0  0  0  0  0  0  0  0  0  0  0  0
  -21.6240  -13.6010   22.3080 H   0  0  0  0  0  0  0  0  0  0  0  0
  -25.9070  -15.6040   20.3360 N   0  0  0  0  0  0  0  0  0  0  0  0
  -25.1790  -16.2900   20.4980 H   0  0  0  0  0  0  0  0  0  0  0  0
  -26.7770  -16.0160   20.0250 H   0  0  0  0  0  0  0  0  0  0  0  0
  1  2  1  0
  2  4  1  0
  3  8  1  0
  3  2  1  0
  5  1  1  0
  5  3  1  0
  5 50  1  0
  5  6  1  6
  8  7  1  0
  9 11  1  0
  9  8  1  0
 10 21  2  0
 11 16  1  0
 12 20  1  0
 12 22  1  0
 13 19  1  0
 13 15  1  0
 14 20  1  0
 15 14  1  0
 16 15  2  0
 17 18  1  0
 17 11  2  0
 18 13  2  0
 19 12  1  0
 20 10  1  0
 22 24  2  0
 23 22  1  0
 25 23  1  0
 26 35  2  0
 26 31  1  0
 27 23  1  0
 27 31  1  0
 28 27  1  0
 29 30  1  0
 29 28  1  0
 30 26  1  0
 31 32  2  0
 32 33  1  0
 34 33  2  0
 35 34  1  0
 36 10  1  0
 36 37  1  0
 36 46  1  0
 37 40  1  0
 38 42  1  0
 38 37  1  0
 39 38  2  0
 42 41  1  0
 44 42  1  0
 44 45  1  0
 44 43  1  0
 46 49  1  1
 46 47  1  0
 48 46  1  0
 51 57  1  0
 52 57  1  0
 53 54  1  0
 53 52  1  0
 55 54  1  0
 55 67  1  0
 55 56  1  0
 57 56  1  0
 58 51  2  0
 59 60  1  0
 59 61  1  0
 60 62  1  0
 61 63  1  0
 62 63  1  0
 62 50  1  0
 63 51  1  0
 64 65  2  0
 65 84  1  0
 66 65  1  0
 66 69  1  0
 67 68  1  0
 67 64  1  0
 68 66  2  0
 69 70  1  0
 70 71  2  0
 72 75  1  0
 72 71  1  0
 73 72  2  0
 74 73  1  0
 74 69  2  0
 75 76  1  0
 76 77  1  0
 77 78  2  0
 79 78  1  0
 79 83  1  0
 80 79  2  0
 81 76  2  0
 81 80  1  0
 82 81  1  0
 84 85  1  0
 85 88  1  0
 85 87  1  0
 86 84  2  0
 89 64  1  0
 89 90  1  0
 91 89  1  0
M  ISO  4   8 101   9 101  51 100  63 100
M  END
>  <TORSDO>  (50) 
F 18

>  <SCORE>  (50) 
-14.249

>  <name>  (50) 
53

>  <ligand_id>  (50) 
53

>  <original_smiles>  (50) 
[H]c1c([H])c([H])c2c(c1[H])C([H])([H])C([H])([H])C([H])([H])C2([H])N([H])C(=O)C1([H])N(C(=O)C([H])(N([H])C(=O)C([H])(N([H])C([H])([H])[H])C([H])([H])[H])C(C([H])([H])[H])(C([H])([H])[H])C([H])([H])[H])C([H])([H])c2c([H])c(OC([H])(C([H])([H])[H])C3([H])C([H])(C([H])([H])[H])C([H])([H])[N+]3([H])C([H])([H])C3([H])N(C(=O)N4C([H])([H])C([H])([H])C([H])([H])C([H])(n5nc(-c6c([H])c([H])c(Oc7c([H])c([H])c(F)c([H])c7F)c([H])c6[H])c(C(=O)N([H])[H])c5N([H])[H])C4([H])[H])C([H])([H])C([H])([H])C3([H])[H])c([H])c([H])c2C1([H])[H]

>  <smiles>  (50) 
[H]c1c([H])c([H])c2c(c1[H])C([H])([H])C([H])([H])C([H])([H])C2([H])N([H])C(=O)C1([H])N(C(=O)C([H])(N([H])C(=O)C([H])(N([H])C([H])([H])[H])C([H])([H])[H])C(C([H])([H])[H])(C([H])([H])[H])C([H])([H])[H])C([H])([H])c2c([H])c(OC([H])(C([H])([H])[H])C3([H])C([H])(C([H])([H])[H])C([H])([H])[N+]3([H])C([H])([H])C3([H])N(C(=O)N4C([H])([H])C([H])([H])C([H])([H])C([H])(n5nc(-c6c([H])c([H])c(Oc7c([H])c([H])c(F)c([H])c7F)c([H])c6[H])c(C(=O)N([H])[H])c5N([H])[H])C4([H])[H])C([H])([H])C([H])([H])C3([H])[H])c([H])c([H])c2C1([H])[H]

$$$$
54:0:0
     RDKit          3D

 88 96  0  0  1  0  0  0  0  0999 V2000
  -29.2910  -22.7020   21.7110 C   0  0  0  0  0  3  0  0  0  0  0  0
  -29.9020  -21.5530   22.2830 C   0  0  0  0  0  3  0  0  0  0  0  0
  -28.8730  -21.2980   19.8030 C   0  0  0  0  0  3  0  0  0  0  0  0
  -28.7160  -22.7190   20.4230 C   0  0  0  0  0  0  0  0  0  0  0  0
  -30.0270  -20.2720   21.6690 C   0  0  0  0  0  0  0  0  0  0  0  0
  -29.5240  -19.9960   20.3650 C   0  0  0  0  0  0  0  0  0  0  0  0
  -30.7600  -19.2070   22.4750 C   0  0  0  0  0  1  0  0  0  0  0  0
  -29.8570  -18.4060   19.6530 C   0  0  0  0  0  2  0  0  0  0  0  0
  -30.6180  -15.5080   19.9030 C   0  0  0  0  0  0  0  0  0  0  0  0
  -30.5840  -13.0530   19.0220 C   0  0  0  0  0  2  0  0  0  0  0  0
  -29.6030  -12.8420   17.8380 C   0  0  0  0  0  2  0  0  0  0  0  0
  -28.1810  -12.5560   18.3490 C   0  0  0  0  0  2  0  0  0  0  0  0
  -27.7880  -13.4910   19.5220 C   0  0  0  0  0  3  0  0  0  0  0  0
  -28.8990  -13.6340   20.5870 C   0  0  0  0  0  2  0  0  0  0  0  0
  -30.0810  -14.1820   19.8970 N   0  0  0  0  0  0  0  0  0  0  0  0
  -31.8040  -15.5240   19.5360 O   0  0  0  0  0  0  0  0  0  0  0  0
  -29.8510  -16.7750   20.1220 N   0  0  0  0  0  0  0  0  0  0  0  0
  -28.9420  -16.5350   20.4910 H   0  0  0  0  0  0  0  0  0  0  0  0
  -25.4760  -14.0160   20.4530 C   0  0  0  0  0  0  0  0  0  0  0  0
  -24.4370  -13.2250   20.8570 C   0  0  0  0  0  0  0  0  0  0  0  0
  -24.8970  -11.8760   20.7400 C   0  0  0  0  0  0  0  0  0  0  0  0
  -26.4960  -13.1510   20.1040 N   0  0  0  0  0  0  0  0  0  0  0  0
  -26.1660  -11.8550   20.3450 N   0  0  0  0  0  0  0  0  0  0  0  0
  -24.1790  -10.6080   20.9260 C   0  0  0  0  0  0  0  0  0  0  0  0
  -24.5950   -9.6530   21.8780 C   0  0  0  0  0  3  0  0  0  0  0  0
  -23.8700   -8.4530   22.0540 C   0  0  0  0  0  3  0  0  0  0  0  0
  -22.7150   -8.2010   21.2740 C   0  0  0  0  0  0  0  0  0  0  0  0
  -22.3170   -9.1470   20.3120 C   0  0  0  0  0  3  0  0  0  0  0  0
  -23.0430  -10.3360   20.1360 C   0  0  0  0  0  3  0  0  0  0  0  0
  -21.9650   -7.0520   21.3530 O   0  0  0  0  0  0  0  0  0  0  0  0
  -21.8010   -6.3800   22.5380 C   0  0  0  0  0  0  0  0  0  0  0  0
  -21.1940   -6.9870   23.6600 C   0  0  0  0  0  3  0  0  0  0  0  0
  -20.9820   -6.2420   24.8360 C   0  0  0  0  0  3  0  0  0  0  0  0
  -21.3640   -4.8880   24.8900 C   0  0  0  0  0  0  0  0  0  0  0  0
  -21.9640   -4.2790   23.7730 C   0  0  0  0  0  3  0  0  0  0  0  0
  -22.1780   -5.0240   22.6000 C   0  0  0  0  0  0  0  0  0  0  0  0
  -22.7350   -4.4280   21.5200 F   0  0  0  0  0  0  0  0  0  0  0  0
  -21.1550   -4.1680   26.0180 F   0  0  0  0  0  0  0  0  0  0  0  0
  -23.0620  -13.6940   21.2290 C   0  0  0  0  0  0  0  0  0  0  0  0
  -22.3910  -12.9800   22.1270 N   0  0  0  0  0  0  0  0  0  0  0  0
  -22.5940  -14.7320   20.7660 O   0  0  0  0  0  0  0  0  0  0  0  0
  -22.7830  -12.1440   22.5310 H   0  0  0  0  0  0  0  0  0  0  0  0
  -21.4700  -13.2810   22.4150 H   0  0  0  0  0  0  0  0  0  0  0  0
  -25.6290  -15.3940   20.3240 N   0  0  0  0  0  0  0  0  0  0  0  0
  -24.8690  -16.0380   20.5200 H   0  0  0  0  0  0  0  0  0  0  0  0
  -26.4330  -15.8460   19.9100 H   0  0  0  0  0  0  0  0  0  0  0  0
  -27.8670  -24.2060   19.9650 C   0  0  0  0  0  2  0  0  0  0  0  0
  -28.0790  -25.8340   20.2740 O   0  0  0  0  0  0  0  0  0  0  0  0
  -24.5300  -31.9130   23.1090 C   0  0  0  0  0  0  0  0  0  0  0  0
  -27.0900  -26.9640   20.1550 C   0  0  0  0  0  0  0  0  0  0  0  0
  -23.3400  -30.4860   21.4980 C   0  0  0  0  0  3  0  0  0  0  0  0
  -24.7880  -28.8640   20.0880 C   0  0  0  0  0  0  0  0  0  0  0  0
  -25.9060  -30.6940   21.3400 C   0  0  0  0  0  2  0  0  0  0  0  0
  -25.9780  -29.2710   20.7040 C   0  0  0  0  0  0  0  0  0  0  0  0
  -27.1190  -28.3410   20.7170 C   0  0  0  0  0  3  0  0  0  0  0  0
  -25.8750  -26.7240   19.4730 C   0  0  0  0  0  3  0  0  0  0  0  0
  -24.7660  -27.6110   19.4490 C   0  0  0  0  0  3  0  0  0  0  0  0
  -23.5680  -29.7840   20.1290 C   0  0  0  0  0  2  0  0  0  0  0  0
  -24.6140  -31.0600   22.0340 N   0  0  0  0  0  0  0  0  0  0  0  0
  -23.4410  -32.2030   23.6300 O   0  0  0  0  0  0  0  0  0  0  0  0
  -22.6510  -29.5040   22.4820 C   0  0  0  0  0  0  0  0  0  0  0  0
  -21.3250  -29.3060   22.3460 N   0  0  0  0  0  0  0  0  0  0  0  0
  -23.3160  -28.9170   23.3390 O   0  0  0  0  0  0  0  0  0  0  0  0
  -20.8390  -29.8300   21.6320 H   0  0  0  0  0  0  0  0  0  0  0  0
  -17.9680  -28.0040   22.8190 C   0  0  0  0  0  0  0  0  0  0  0  0
  -20.5120  -28.3690   23.1300 C   0  0  0  0  0  3  0  0  0  0  0  0
  -20.6750  -26.9220   22.6110 C   0  0  0  0  0  2  0  0  0  0  0  0
  -19.6080  -26.5250   21.5830 C   0  0  0  0  0  2  0  0  0  0  0  0
  -18.2070  -26.6420   22.1920 C   0  0  0  0  0  2  0  0  0  0  0  0
  -19.0490  -28.8220   23.2450 C   0  0  0  0  0  0  0  0  0  0  0  0
  -18.7700  -30.0920   23.7950 C   0  0  0  0  0  3  0  0  0  0  0  0
  -17.4440  -30.5480   23.9200 C   0  0  0  0  0  3  0  0  0  0  0  0
  -16.3790  -29.7290   23.5090 C   0  0  0  0  0  3  0  0  0  0  0  0
  -16.6400  -28.4590   22.9650 C   0  0  0  0  0  3  0  0  0  0  0  0
  -25.7970  -32.5750   23.7300 C   0  0  0  0  0  3  0  0  0  0  0  0
  -25.4560  -33.9630   24.0880 N   0  0  0  0  0  0  0  0  0  0  0  0
  -25.7730  -35.0450   23.3660 C   0  0  0  0  0  0  0  0  0  0  0  0
  -26.4460  -34.9810   22.3340 O   0  0  0  0  0  0  0  0  0  0  0  0
  -24.8530  -34.0810   24.8900 H   0  0  0  0  0  0  0  0  0  0  0  0
  -24.0370  -36.8440   23.0500 C   0  0  0  0  0  1  0  0  0  0  0  0
  -25.2700  -36.4170   23.8630 C   0  0  0  0  0  3  0  0  0  0  0  0
  -27.3800  -37.2990   24.7610 C   0  0  0  0  0  1  0  0  0  0  0  0
  -26.2970  -37.4820   23.7990 N   0  0  0  0  0  0  0  0  0  0  0  0
  -25.8800  -38.3960   23.9580 H   0  0  0  0  0  0  0  0  0  0  0  0
  -26.3350  -31.8070   25.0010 C   0  0  1  0  0  0  0  0  0  0  0  0
  -25.2470  -31.5140   26.0620 C   0  0  0  0  0  1  0  0  0  0  0  0
  -26.9680  -30.4570   24.5980 C   0  0  0  0  0  1  0  0  0  0  0  0
  -27.4590  -32.6290   25.6740 C   0  0  0  0  0  1  0  0  0  0  0  0
  1  2  1  0
  3  6  2  0
  3  4  1  0
  4  1  2  0
  5  2  2  0
  5  7  1  0
  6  5  1  0
  8 17  1  0
  8  6  1  0
  9 17  1  0
 10 15  1  0
 11 12  1  0
 11 10  1  0
 13 12  1  0
 13 22  1  0
 13 14  1  0
 15  9  1  0
 15 14  1  0
 16  9  2  0
 17 18  1  0
 19 20  2  0
 20 39  1  0
 21 20  1  0
 21 24  1  0
 22 23  1  0
 22 19  1  0
 23 21  2  0
 24 25  1  0
 25 26  2  0
 27 30  1  0
 27 26  1  0
 28 27  2  0
 29 28  1  0
 29 24  2  0
 30 31  1  0
 31 36  2  0
 31 32  1  0
 32 33  2  0
 33 34  1  0
 34 38  1  0
 35 34  2  0
 36 35  1  0
 37 36  1  0
 39 40  1  0
 40 43  1  0
 40 42  1  0
 41 39  2  0
 44 19  1  0
 44 45  1  0
 46 44  1  0
 47 48  1  0
 47  4  1  0
 49 60  2  0
 50 48  1  0
 50 55  1  0
 51 59  1  0
 51 61  1  0
 52 58  1  0
 52 54  1  0
 53 59  1  0
 54 55  2  0
 54 53  1  0
 56 50  2  0
 57 56  1  0
 57 52  2  0
 58 51  1  0
 59 49  1  0
 61 63  2  0
 62 61  1  0
 64 62  1  0
 65 74  2  0
 65 70  1  0
 66 62  1  0
 66 70  1  0
 67 66  1  0
 68 69  1  0
 68 67  1  0
 69 65  1  0
 70 71  2  0
 71 72  1  0
 73 72  2  0
 74 73  1  0
 75 49  1  0
 75 76  1  0
 75 85  1  0
 76 79  1  0
 77 81  1  0
 77 76  1  0
 78 77  2  0
 81 80  1  0
 83 81  1  0
 83 84  1  0
 83 82  1  0
 85 88  1  1
 85 86  1  0
 87 85  1  0
M  ISO  4   9 100  17 100  47 101  48 101
M  END
>  <TORSDO>  (51) 
F 18

>  <SCORE>  (51) 
-16.119

>  <name>  (51) 
54

>  <ligand_id>  (51) 
54

>  <original_smiles>  (51) 
[H]c1c([H])c([H])c2c(c1[H])C([H])([H])C([H])([H])C([H])([H])C2([H])N([H])C(=O)C1([H])N(C(=O)C([H])(N([H])C(=O)C([H])(N([H])C([H])([H])[H])C([H])([H])[H])C(C([H])([H])[H])(C([H])([H])[H])C([H])([H])[H])C([H])([H])c2c([H])c(OC([H])([H])c3c([H])c([H])c(C([H])([H])[H])c(C([H])([H])N([H])C(=O)N4C([H])([H])C([H])([H])C([H])([H])C([H])(n5nc(-c6c([H])c([H])c(Oc7c([H])c([H])c(F)c([H])c7F)c([H])c6[H])c(C(=O)N([H])[H])c5N([H])[H])C4([H])[H])c3[H])c([H])c([H])c2C1([H])[H]

>  <smiles>  (51) 
[H]c1c([H])c([H])c2c(c1[H])C([H])([H])C([H])([H])C([H])([H])C2([H])N([H])C(=O)C1([H])N(C(=O)C([H])(N([H])C(=O)C([H])(N([H])C([H])([H])[H])C([H])([H])[H])C(C([H])([H])[H])(C([H])([H])[H])C([H])([H])[H])C([H])([H])c2c([H])c(OC([H])([H])c3c([H])c([H])c(C([H])([H])[H])c(C([H])([H])N([H])C(=O)N4C([H])([H])C([H])([H])C([H])([H])C([H])(n5nc(-c6c([H])c([H])c(Oc7c([H])c([H])c(F)c([H])c7F)c([H])c6[H])c(C(=O)N([H])[H])c5N([H])[H])C4([H])[H])c3[H])c([H])c([H])c2C1([H])[H]

$$$$
55:0:0
     RDKit          3D

 92100  0  0  1  0  0  0  0  0999 V2000
  -29.4190  -21.7730   20.8990 N   0  0  0  0  0  4  0  0  0  0  0  0
  -30.3230  -22.0230   21.2650 H   0  0  0  0  0  0  0  0  0  0  0  0
  -28.7750  -21.7420   21.6730 H   0  0  0  0  0  0  0  0  0  0  0  0
  -29.5190  -20.4020   20.3330 C   0  0  0  0  0  2  0  0  0  0  0  0
  -30.9670  -18.1420   22.6600 C   0  0  0  0  0  2  0  0  0  0  0  0
  -30.5880  -19.6210   22.6290 C   0  0  0  0  0  2  0  0  0  0  0  0
  -30.3980  -18.0040   21.2410 C   0  0  0  0  0  3  0  0  0  0  0  0
  -30.5540  -19.5470   21.0930 C   0  0  0  0  0  3  0  0  0  0  0  0
  -31.1000  -17.0360   20.2760 C   0  0  0  0  0  2  0  0  0  0  0  0
  -31.3080  -14.5730   20.0050 C   0  0  0  0  0  0  0  0  0  0  0  0
  -30.9000  -12.3770   18.9740 C   0  0  0  0  0  2  0  0  0  0  0  0
  -29.9430  -12.5660   17.7800 C   0  0  0  0  0  2  0  0  0  0  0  0
  -28.4720  -12.5090   18.2380 C   0  0  0  0  0  2  0  0  0  0  0  0
  -28.1930  -13.4170   19.4670 C   0  0  0  0  0  3  0  0  0  0  0  0
  -29.2620  -13.2130   20.5650 C   0  0  0  0  0  2  0  0  0  0  0  0
  -30.5870  -13.4240   19.9580 N   0  0  0  0  0  0  0  0  0  0  0  0
  -32.4320  -14.6870   19.5050 O   0  0  0  0  0  0  0  0  0  0  0  0
  -30.6490  -15.6520   20.4580 N   0  0  0  0  0  0  0  0  0  0  0  0
  -29.7190  -15.5060   20.8160 H   0  0  0  0  0  0  0  0  0  0  0  0
  -25.8540  -14.1570   20.2490 C   0  0  0  0  0  0  0  0  0  0  0  0
  -24.7570  -13.4450   20.6530 C   0  0  0  0  0  0  0  0  0  0  0  0
  -25.1420  -12.0700   20.6130 C   0  0  0  0  0  0  0  0  0  0  0  0
  -26.8410  -13.2200   19.9870 N   0  0  0  0  0  0  0  0  0  0  0  0
  -26.4180  -11.9610   20.2660 N   0  0  0  0  0  0  0  0  0  0  0  0
  -24.3540  -10.8480   20.8270 C   0  0  0  0  0  0  0  0  0  0  0  0
  -24.7290   -9.8880   21.7940 C   0  0  0  0  0  3  0  0  0  0  0  0
  -23.9440   -8.7320   21.9950 C   0  0  0  0  0  3  0  0  0  0  0  0
  -22.7710   -8.5270   21.2310 C   0  0  0  0  0  0  0  0  0  0  0  0
  -22.4140   -9.4750   20.2560 C   0  0  0  0  0  3  0  0  0  0  0  0
  -23.1990  -10.6230   20.0530 C   0  0  0  0  0  3  0  0  0  0  0  0
  -21.9620   -7.4220   21.3390 O   0  0  0  0  0  0  0  0  0  0  0  0
  -21.8150   -6.7500   22.5260 C   0  0  0  0  0  0  0  0  0  0  0  0
  -21.3670   -7.3970   23.6990 C   0  0  0  0  0  3  0  0  0  0  0  0
  -21.1640   -6.6540   24.8780 C   0  0  0  0  0  3  0  0  0  0  0  0
  -21.4010   -5.2660   24.8890 C   0  0  0  0  0  0  0  0  0  0  0  0
  -21.8460   -4.6210   23.7210 C   0  0  0  0  0  3  0  0  0  0  0  0
  -22.0500   -5.3610   22.5430 C   0  0  0  0  0  0  0  0  0  0  0  0
  -22.4560   -4.7290   21.4160 F   0  0  0  0  0  0  0  0  0  0  0  0
  -21.2010   -4.5510   26.0200 F   0  0  0  0  0  0  0  0  0  0  0  0
  -23.3950  -13.9970   20.9620 C   0  0  0  0  0  0  0  0  0  0  0  0
  -22.6620  -13.3590   21.8680 N   0  0  0  0  0  0  0  0  0  0  0  0
  -22.9890  -15.0300   20.4290 O   0  0  0  0  0  0  0  0  0  0  0  0
  -23.0000  -12.5210   22.3190 H   0  0  0  0  0  0  0  0  0  0  0  0
  -21.7490  -13.7140   22.1110 H   0  0  0  0  0  0  0  0  0  0  0  0
  -26.0890  -15.5170   20.0610 N   0  0  0  0  0  0  0  0  0  0  0  0
  -25.3740  -16.2180   20.2090 H   0  0  0  0  0  0  0  0  0  0  0  0
  -26.9500  -15.9030   19.6960 H   0  0  0  0  0  0  0  0  0  0  0  0
  -28.9860  -22.8410   19.9550 C   0  0  0  0  0  2  0  0  0  0  0  0
  -30.1130  -24.6350   21.4070 C   0  0  0  0  0  1  0  0  0  0  0  0
  -28.8460  -24.2540   20.6110 C   0  0  0  0  0  3  0  0  0  0  0  0
  -28.5060  -25.3560   19.5610 C   0  0  0  0  0  2  0  0  0  0  0  0
  -28.3540  -26.6740   20.1410 O   0  0  0  0  0  0  0  0  0  0  0  0
  -24.5770  -31.8720   23.2170 C   0  0  0  0  0  0  0  0  0  0  0  0
  -27.1550  -27.3720   20.1260 C   0  0  0  0  0  0  0  0  0  0  0  0
  -23.3450  -30.4770   21.5890 C   0  0  0  0  0  3  0  0  0  0  0  0
  -24.7700  -28.9210   20.1580 C   0  0  0  0  0  0  0  0  0  0  0  0
  -25.8720  -30.8080   21.3630 C   0  0  0  0  0  2  0  0  0  0  0  0
  -25.9380  -29.4280   20.7360 C   0  0  0  0  0  0  0  0  0  0  0  0
  -27.1260  -28.6610   20.7180 C   0  0  0  0  0  3  0  0  0  0  0  0
  -25.9570  -26.8810   19.5510 C   0  0  0  0  0  3  0  0  0  0  0  0
  -24.7750  -27.6470   19.5670 C   0  0  0  0  0  3  0  0  0  0  0  0
  -23.5350  -29.7920   20.2100 C   0  0  0  0  0  2  0  0  0  0  0  0
  -24.6190  -31.0670   22.1170 N   0  0  0  0  0  0  0  0  0  0  0  0
  -23.5020  -32.1560   23.7640 O   0  0  0  0  0  0  0  0  0  0  0  0
  -22.6910  -29.4660   22.5580 C   0  0  0  0  0  0  0  0  0  0  0  0
  -21.3690  -29.2670   22.4210 N   0  0  0  0  0  0  0  0  0  0  0  0
  -23.3720  -28.8610   23.3910 O   0  0  0  0  0  0  0  0  0  0  0  0
  -20.8770  -29.8110   21.7280 H   0  0  0  0  0  0  0  0  0  0  0  0
  -18.0140  -28.0010   22.8520 C   0  0  0  0  0  0  0  0  0  0  0  0
  -20.5550  -28.3300   23.1950 C   0  0  0  0  0  3  0  0  0  0  0  0
  -20.7090  -26.8860   22.6650 C   0  0  0  0  0  2  0  0  0  0  0  0
  -19.6490  -26.5040   21.6270 C   0  0  0  0  0  2  0  0  0  0  0  0
  -18.2450  -26.6370   22.2250 C   0  0  0  0  0  2  0  0  0  0  0  0
  -19.1010  -28.8030   23.2930 C   0  0  0  0  0  0  0  0  0  0  0  0
  -18.8330  -30.0790   23.8360 C   0  0  0  0  0  3  0  0  0  0  0  0
  -17.5130  -30.5530   23.9460 C   0  0  0  0  0  3  0  0  0  0  0  0
  -16.4410  -29.7470   23.5240 C   0  0  0  0  0  3  0  0  0  0  0  0
  -16.6920  -28.4750   22.9810 C   0  0  0  0  0  3  0  0  0  0  0  0
  -25.8720  -32.4960   23.8260 C   0  0  0  0  0  3  0  0  0  0  0  0
  -25.5750  -33.8930   24.1670 N   0  0  0  0  0  0  0  0  0  0  0  0
  -25.9080  -34.9460   23.4090 C   0  0  0  0  0  0  0  0  0  0  0  0
  -26.5700  -34.8450   22.3730 O   0  0  0  0  0  0  0  0  0  0  0  0
  -24.9910  -34.0480   24.9750 H   0  0  0  0  0  0  0  0  0  0  0  0
  -24.1880  -36.7500   23.0800 C   0  0  0  0  0  1  0  0  0  0  0  0
  -25.4330  -36.3350   23.8770 C   0  0  0  0  0  3  0  0  0  0  0  0
  -27.5820  -37.2010   24.6930 C   0  0  0  0  0  1  0  0  0  0  0  0
  -26.4700  -37.3820   23.7620 N   0  0  0  0  0  0  0  0  0  0  0  0
  -26.0700  -38.3020   23.9240 H   0  0  0  0  0  0  0  0  0  0  0  0
  -26.4050  -31.7140   25.0890 C   0  0  1  0  0  0  0  0  0  0  0  0
  -25.3250  -31.4600   26.1660 C   0  0  0  0  0  1  0  0  0  0  0  0
  -26.9870  -30.3440   24.6720 C   0  0  0  0  0  1  0  0  0  0  0  0
  -27.5610  -32.5050   25.7490 C   0  0  0  0  0  1  0  0  0  0  0  0
  1  2  1  0
  1  3  1  0
  4  1  1  0
  6  5  1  0
  7  9  1  0
  7  5  1  0
  8  4  1  0
  8  7  1  0
  8  6  1  0
  9 18  1  0
 10 18  1  0
 11 16  1  0
 12 13  1  0
 12 11  1  0
 14 13  1  0
 14 23  1  0
 14 15  1  0
 16 10  1  0
 16 15  1  0
 17 10  2  0
 18 19  1  0
 20 21  2  0
 21 40  1  0
 22 21  1  0
 22 25  1  0
 23 20  1  0
 23 24  1  0
 24 22  2  0
 25 26  1  0
 26 27  2  0
 28 31  1  0
 28 27  1  0
 29 28  2  0
 30 29  1  0
 30 25  2  0
 31 32  1  0
 32 37  2  0
 32 33  1  0
 33 34  2  0
 34 35  1  0
 35 39  1  0
 36 35  2  0
 37 36  1  0
 38 37  1  0
 40 41  1  0
 41 44  1  0
 41 43  1  0
 42 40  2  0
 45 46  1  0
 45 20  1  0
 47 45  1  0
 48 50  1  0
 48  1  1  0
 50 49  1  0
 51 52  1  0
 51 50  1  0
 53 64  2  0
 54 52  1  0
 54 59  1  0
 55 63  1  0
 55 65  1  0
 56 62  1  0
 56 58  1  0
 57 63  1  0
 58 57  1  0
 59 58  2  0
 60 61  1  0
 60 54  2  0
 61 56  2  0
 62 55  1  0
 63 53  1  0
 65 67  2  0
 66 65  1  0
 68 66  1  0
 69 78  2  0
 69 74  1  0
 70 66  1  0
 70 74  1  0
 71 70  1  0
 72 73  1  0
 72 71  1  0
 73 69  1  0
 74 75  2  0
 75 76  1  0
 77 76  2  0
 78 77  1  0
 79 53  1  0
 79 80  1  0
 79 89  1  0
 80 83  1  0
 81 85  1  0
 81 80  1  0
 82 81  2  0
 85 84  1  0
 87 85  1  0
 87 88  1  0
 87 86  1  0
 89 92  1  1
 89 90  1  0
 91 89  1  0
M  ISO  4  10 100  18 100  51 101  52 101
M  END
>  <TORSDO>  (52) 
F 22

>  <SCORE>  (52) 
-12.215

>  <name>  (52) 
55

>  <ligand_id>  (52) 
55

>  <original_smiles>  (52) 
[H]c1c([H])c([H])c2c(c1[H])C([H])([H])C([H])([H])C([H])([H])C2([H])N([H])C(=O)C1([H])N(C(=O)C([H])(N([H])C(=O)C([H])(N([H])C([H])([H])[H])C([H])([H])[H])C(C([H])([H])[H])(C([H])([H])[H])C([H])([H])[H])C([H])([H])c2c([H])c(OC([H])([H])C([H])(C([H])([H])[H])C([H])([H])[N+]([H])([H])C([H])([H])C3([H])C([H])([H])C([H])([H])C3([H])C([H])([H])N([H])C(=O)N3C([H])([H])C([H])([H])C([H])([H])C([H])(n4nc(-c5c([H])c([H])c(Oc6c([H])c([H])c(F)c([H])c6F)c([H])c5[H])c(C(=O)N([H])[H])c4N([H])[H])C3([H])[H])c([H])c([H])c2C1([H])[H]

>  <smiles>  (52) 
[H]c1c([H])c([H])c2c(c1[H])C([H])([H])C([H])([H])C([H])([H])C2([H])N([H])C(=O)C1([H])N(C(=O)C([H])(N([H])C(=O)C([H])(N([H])C([H])([H])[H])C([H])([H])[H])C(C([H])([H])[H])(C([H])([H])[H])C([H])([H])[H])C([H])([H])c2c([H])c(OC([H])([H])C([H])(C([H])([H])[H])C([H])([H])[N+]([H])([H])C([H])([H])C3([H])C([H])([H])C([H])([H])C3([H])C([H])([H])N([H])C(=O)N3C([H])([H])C([H])([H])C([H])([H])C([H])(n4nc(-c5c([H])c([H])c(Oc6c([H])c([H])c(F)c([H])c6F)c([H])c5[H])c(C(=O)N([H])[H])c4N([H])[H])C3([H])[H])c([H])c([H])c2C1([H])[H]

$$$$
56:0:0
     RDKit          3D

 94103  0  0  1  0  0  0  0  0999 V2000
  -30.5800  -15.1710   20.3760 C   0  0  0  0  0  0  0  0  0  0  0  0
  -30.4120  -12.7780   19.4750 C   0  0  0  0  0  2  0  0  0  0  0  0
  -29.5150  -12.6140   18.2280 C   0  0  0  0  0  2  0  0  0  0  0  0
  -28.0570  -12.3790   18.6530 C   0  0  0  0  0  2  0  0  0  0  0  0
  -27.6040  -13.3540   19.7690 C   0  0  0  0  0  3  0  0  0  0  0  0
  -28.6410  -13.5020   20.9050 C   0  0  0  0  0  2  0  0  0  0  0  0
  -29.8930  -13.9430   20.2730 N   0  0  0  0  0  0  0  0  0  0  0  0
  -31.8040  -15.0530   20.2300 O   0  0  0  0  0  0  0  0  0  0  0  0
  -30.3500  -19.0600   18.4410 C   0  0  0  0  0  2  0  0  0  0  0  0
  -30.8970  -17.8000   20.5970 C   0  0  0  0  0  2  0  0  0  0  0  0
  -28.6420  -17.1540   20.4580 C   0  0  0  0  0  2  0  0  0  0  0  0
  -28.9220  -18.5080   18.3140 C   0  0  0  0  0  3  0  0  0  0  0  0
  -30.4870  -19.2730   19.9550 C   0  0  0  0  0  3  0  0  0  0  0  0
  -28.3910  -18.6450   19.7760 C   0  0  0  0  0  3  0  0  0  0  0  0
  -30.0320  -16.5370   20.4260 N   0  0  0  0  0  0  0  0  0  0  0  0
  -29.1420  -19.8720   20.3510 N   0  0  2  0  0  4  0  0  0  0  0  0
  -29.0500  -19.8530   21.3560 H   0  0  0  0  0  0  0  0  0  0  0  0
  -25.2230  -13.9260   20.4820 C   0  0  0  0  0  0  0  0  0  0  0  0
  -24.1520  -13.1510   20.8320 C   0  0  0  0  0  0  0  0  0  0  0  0
  -24.6180  -11.8010   20.8200 C   0  0  0  0  0  0  0  0  0  0  0  0
  -26.2690  -13.0490   20.2640 N   0  0  0  0  0  0  0  0  0  0  0  0
  -25.9160  -11.7650   20.5360 N   0  0  0  0  0  0  0  0  0  0  0  0
  -23.8880  -10.5400   20.9990 C   0  0  0  0  0  0  0  0  0  0  0  0
  -24.3000   -9.5730   21.9420 C   0  0  0  0  0  3  0  0  0  0  0  0
  -23.5660   -8.3800   22.1110 C   0  0  0  0  0  3  0  0  0  0  0  0
  -22.4040   -8.1460   21.3380 C   0  0  0  0  0  0  0  0  0  0  0  0
  -22.0110   -9.1010   20.3830 C   0  0  0  0  0  3  0  0  0  0  0  0
  -22.7470  -10.2850   20.2120 C   0  0  0  0  0  3  0  0  0  0  0  0
  -21.6430   -7.0040   21.4160 O   0  0  0  0  0  0  0  0  0  0  0  0
  -21.5710   -6.2640   22.5690 C   0  0  0  0  0  0  0  0  0  0  0  0
  -21.1270   -6.8240   23.7860 C   0  0  0  0  0  3  0  0  0  0  0  0
  -21.0020   -6.0120   24.9300 C   0  0  0  0  0  3  0  0  0  0  0  0
  -21.3120   -4.6400   24.8580 C   0  0  0  0  0  0  0  0  0  0  0  0
  -21.7520   -4.0810   23.6460 C   0  0  0  0  0  3  0  0  0  0  0  0
  -21.8770   -4.8900   22.5040 C   0  0  0  0  0  0  0  0  0  0  0  0
  -22.2810   -4.3420   21.3330 F   0  0  0  0  0  0  0  0  0  0  0  0
  -21.1850   -3.8580   25.9560 F   0  0  0  0  0  0  0  0  0  0  0  0
  -22.7500  -13.6320   21.0640 C   0  0  0  0  0  0  0  0  0  0  0  0
  -22.0010  -12.9440   21.9180 N   0  0  0  0  0  0  0  0  0  0  0  0
  -22.3280  -14.6550   20.5240 O   0  0  0  0  0  0  0  0  0  0  0  0
  -22.3570  -12.1210   22.3790 H   0  0  0  0  0  0  0  0  0  0  0  0
  -21.0590  -13.2490   22.1170 H   0  0  0  0  0  0  0  0  0  0  0  0
  -25.3830  -15.2950   20.3000 N   0  0  0  0  0  0  0  0  0  0  0  0
  -24.6050  -15.9390   20.3890 H   0  0  0  0  0  0  0  0  0  0  0  0
  -26.2280  -15.7350   19.9660 H   0  0  0  0  0  0  0  0  0  0  0  0
  -28.0980  -19.2060   17.2200 C   0  0  0  0  0  0  0  0  0  0  0  0
  -28.4240  -18.9470   15.9580 N   0  0  0  0  0  0  0  0  0  0  0  0
  -27.1710  -19.9650   17.4870 O   0  0  0  0  0  0  0  0  0  0  0  0
  -29.1850  -18.3170   15.7380 H   0  0  0  0  0  0  0  0  0  0  0  0
  -27.9180  -19.3820   15.2000 H   0  0  0  0  0  0  0  0  0  0  0  0
  -28.6540  -21.3700   19.8490 C   0  0  0  0  0  2  0  0  0  0  0  0
  -28.8710  -22.9860   20.4860 C   0  0  0  0  0  3  0  0  0  0  0  0
  -28.0390  -24.4650   20.0220 C   0  0  0  0  0  3  0  0  0  0  0  0
  -28.2490  -26.0260   20.3640 O   0  0  0  0  0  0  0  0  0  0  0  0
  -24.6370  -31.8860   23.2630 C   0  0  0  0  0  0  0  0  0  0  0  0
  -27.2250  -27.0770   20.2680 C   0  0  0  0  0  0  0  0  0  0  0  0
  -23.4540  -30.4840   21.6200 C   0  0  0  0  0  3  0  0  0  0  0  0
  -24.9130  -28.8940   20.2080 C   0  0  0  0  0  0  0  0  0  0  0  0
  -26.0150  -30.7230   21.4830 C   0  0  0  0  0  2  0  0  0  0  0  0
  -26.0920  -29.3200   20.8310 C   0  0  0  0  0  0  0  0  0  0  0  0
  -27.2450  -28.4280   20.8420 C   0  0  0  0  0  3  0  0  0  0  0  0
  -26.0210  -26.7850   19.5910 C   0  0  0  0  0  3  0  0  0  0  0  0
  -24.8970  -27.6450   19.5680 C   0  0  0  0  0  3  0  0  0  0  0  0
  -23.6890  -29.8040   20.2450 C   0  0  0  0  0  2  0  0  0  0  0  0
  -24.7230  -31.0570   22.1770 N   0  0  0  0  0  0  0  0  0  0  0  0
  -23.5450  -32.1720   23.7790 O   0  0  0  0  0  0  0  0  0  0  0  0
  -22.7620  -29.4840   22.5820 C   0  0  0  0  0  0  0  0  0  0  0  0
  -21.4340  -29.3180   22.4500 N   0  0  0  0  0  0  0  0  0  0  0  0
  -23.4260  -28.8600   23.4150 O   0  0  0  0  0  0  0  0  0  0  0  0
  -20.9520  -29.8720   21.7550 H   0  0  0  0  0  0  0  0  0  0  0  0
  -18.0470  -28.1210   22.9490 C   0  0  0  0  0  0  0  0  0  0  0  0
  -20.6070  -28.3820   23.2210 C   0  0  0  0  0  3  0  0  0  0  0  0
  -20.7070  -26.9500   22.6470 C   0  0  0  0  0  2  0  0  0  0  0  0
  -19.6070  -26.6280   21.6300 C   0  0  0  0  0  2  0  0  0  0  0  0
  -18.2240  -26.7730   22.2710 C   0  0  0  0  0  2  0  0  0  0  0  0
  -19.1660  -28.8830   23.3810 C   0  0  0  0  0  0  0  0  0  0  0  0
  -18.9450  -30.1420   23.9790 C   0  0  0  0  0  3  0  0  0  0  0  0
  -17.6390  -30.6420   24.1470 C   0  0  0  0  0  3  0  0  0  0  0  0
  -16.5350  -29.8770   23.7280 C   0  0  0  0  0  3  0  0  0  0  0  0
  -16.7410  -28.6190   23.1350 C   0  0  0  0  0  3  0  0  0  0  0  0
  -25.9050  -32.5290   23.9010 C   0  0  0  0  0  3  0  0  0  0  0  0
  -26.3930  -31.7770   25.2010 C   0  0  1  0  0  0  0  0  0  0  0  0
  -25.2790  -31.5660   26.2530 C   0  0  0  0  0  1  0  0  0  0  0  0
  -26.9750  -30.3910   24.8480 C   0  0  0  0  0  1  0  0  0  0  0  0
  -27.5370  -32.5770   25.8680 C   0  0  0  0  0  1  0  0  0  0  0  0
  -25.5900  -33.9330   24.2140 N   0  0  0  0  0  0  0  0  0  0  0  0
  -25.9270  -34.9830   23.4520 C   0  0  0  0  0  0  0  0  0  0  0  0
  -26.6010  -34.8720   22.4260 O   0  0  0  0  0  0  0  0  0  0  0  0
  -24.9880  -34.0920   25.0080 H   0  0  0  0  0  0  0  0  0  0  0  0
  -24.2030  -36.7810   23.0870 C   0  0  0  0  0  1  0  0  0  0  0  0
  -25.4440  -36.3770   23.9010 C   0  0  0  0  0  3  0  0  0  0  0  0
  -27.5780  -37.2690   24.7260 C   0  0  0  0  0  1  0  0  0  0  0  0
  -26.4770  -37.4280   23.7800 N   0  0  0  0  0  0  0  0  0  0  0  0
  -26.0720  -38.3510   23.9160 H   0  0  0  0  0  0  0  0  0  0  0  0
  1 15  1  0
  2  7  1  0
  3  4  1  0
  3  2  1  0
  5  4  1  0
  5 21  1  0
  5  6  1  0
  7  1  1  0
  7  6  1  0
  8  1  2  0
 12 46  1  0
 12  9  1  0
 12 14  1  0
 13  9  1  0
 13 16  1  0
 13 10  1  0
 14 16  1  0
 14 11  1  0
 15 11  1  0
 15 10  1  0
 16 17  1  1
 18 19  2  0
 19 38  1  0
 20 19  1  0
 20 23  1  0
 21 18  1  0
 21 22  1  0
 22 20  2  0
 23 24  1  0
 24 25  2  0
 26 29  1  0
 26 25  1  0
 27 26  2  0
 28 27  1  0
 28 23  2  0
 29 30  1  0
 30 31  1  0
 31 32  2  0
 33 32  1  0
 33 37  1  0
 34 33  2  0
 35 30  2  0
 35 34  1  0
 36 35  1  0
 38 39  1  0
 39 42  1  0
 39 41  1  0
 40 38  2  0
 43 44  1  0
 43 18  1  0
 45 43  1  0
 46 48  2  0
 47 46  1  0
 49 47  1  0
 50 47  1  0
 51 16  1  0
 51 52  1  0
 53 54  1  0
 53 52  2  0
 55 66  2  0
 56 54  1  0
 56 61  1  0
 57 65  1  0
 57 67  1  0
 58 64  1  0
 58 60  1  0
 59 65  1  0
 60 61  2  0
 60 59  1  0
 62 56  2  0
 63 62  1  0
 63 58  2  0
 64 57  1  0
 65 55  1  0
 67 69  2  0
 68 67  1  0
 70 68  1  0
 71 80  2  0
 71 76  1  0
 72 68  1  0
 72 76  1  0
 73 72  1  0
 74 75  1  0
 74 73  1  0
 75 71  1  0
 76 77  2  0
 77 78  1  0
 79 78  2  0
 80 79  1  0
 81 55  1  0
 81 86  1  0
 81 82  1  0
 82 85  1  1
 82 83  1  0
 84 82  1  0
 86 89  1  0
 87 91  1  0
 87 86  1  0
 88 87  2  0
 91 90  1  0
 93 91  1  0
 93 94  1  0
 93 92  1  0
M  ISO  4   1 100  15 100  53 101  54 101
M  END
>  <TORSDO>  (53) 
F 19

>  <SCORE>  (53) 
-16.018

>  <name>  (53) 
56

>  <ligand_id>  (53) 
56

>  <original_smiles>  (53) 
[H]c1c([H])c([H])c2c(c1[H])C([H])([H])C([H])([H])C([H])([H])C2([H])N([H])C(=O)C1([H])N(C(=O)C([H])(N([H])C(=O)C([H])(N([H])C([H])([H])[H])C([H])([H])[H])C(C([H])([H])[H])(C([H])([H])[H])C([H])([H])[H])C([H])([H])c2c([H])c(OC([H])([H])C([H])([H])C([H])([H])[N+]3([H])C4([H])C([H])([H])N(C(=O)N5C([H])([H])C([H])([H])C([H])([H])C([H])(n6nc(-c7c([H])c([H])c(Oc8c([H])c([H])c(F)c([H])c8F)c([H])c7[H])c(C(=O)N([H])[H])c6N([H])[H])C5([H])[H])C([H])([H])C3([H])C([H])(C(=O)N([H])[H])C4([H])[H])c([H])c([H])c2C1([H])[H]

>  <smiles>  (53) 
[H]c1c([H])c([H])c2c(c1[H])C([H])([H])C([H])([H])C([H])([H])C2([H])N([H])C(=O)C1([H])N(C(=O)C([H])(N([H])C(=O)C([H])(N([H])C([H])([H])[H])C([H])([H])[H])C(C([H])([H])[H])(C([H])([H])[H])C([H])([H])[H])C([H])([H])c2c([H])c(OC([H])([H])C([H])([H])C([H])([H])[N+]3([H])C4([H])C([H])([H])N(C(=O)N5C([H])([H])C([H])([H])C([H])([H])C([H])(n6nc(-c7c([H])c([H])c(Oc8c([H])c([H])c(F)c([H])c8F)c([H])c7[H])c(C(=O)N([H])[H])c6N([H])[H])C5([H])[H])C([H])([H])C3([H])C([H])(C(=O)N([H])[H])C4([H])[H])c([H])c([H])c2C1([H])[H]

$$$$
57:0:0
     RDKit          3D

 97105  0  0  1  0  0  0  0  0999 V2000
  -29.9660  -21.0380   18.1640 C   0  0  0  0  0  3  0  0  0  0  0  0
  -30.0440  -21.7630   16.9750 C   0  0  0  0  0  3  0  0  0  0  0  0
  -29.0520  -23.6480   18.0910 C   0  0  0  0  0  3  0  0  0  0  0  0
  -29.3840  -21.4690   19.3880 C   0  0  0  0  0  0  0  0  0  0  0  0
  -28.9390  -23.0170   19.3650 C   0  0  0  0  0  0  0  0  0  0  0  0
  -29.5490  -23.0560   16.9210 C   0  0  0  0  0  0  0  0  0  0  0  0
  -29.5520  -23.7430   15.7080 N   0  0  0  0  0  0  0  0  0  0  0  0
  -29.7040  -23.2060   14.8560 H   0  0  0  0  0  0  0  0  0  0  0  0
  -28.8670  -24.4800   15.5750 H   0  0  0  0  0  0  0  0  0  0  0  0
  -28.2290  -24.3090   20.2870 C   0  0  0  0  0  2  0  0  0  0  0  0
  -28.3740  -25.9560   20.0680 O   0  0  0  0  0  0  0  0  0  0  0  0
  -24.6300  -31.8260   23.1590 C   0  0  0  0  0  0  0  0  0  0  0  0
  -27.3240  -27.0250   20.0910 C   0  0  0  0  0  0  0  0  0  0  0  0
  -23.4890  -30.4280   21.4870 C   0  0  0  0  0  3  0  0  0  0  0  0
  -24.9900  -28.8680   20.0650 C   0  0  0  0  0  0  0  0  0  0  0  0
  -26.0540  -30.6820   21.3800 C   0  0  0  0  0  2  0  0  0  0  0  0
  -26.1610  -29.2810   20.7060 C   0  0  0  0  0  0  0  0  0  0  0  0
  -27.3270  -28.3840   20.6870 C   0  0  0  0  0  3  0  0  0  0  0  0
  -26.1150  -26.7690   19.4080 C   0  0  0  0  0  3  0  0  0  0  0  0
  -24.9910  -27.6350   19.3950 C   0  0  0  0  0  3  0  0  0  0  0  0
  -23.7510  -29.7640   20.1090 C   0  0  0  0  0  2  0  0  0  0  0  0
  -24.7450  -31.0080   22.0630 N   0  0  0  0  0  0  0  0  0  0  0  0
  -23.5270  -32.0830   23.6710 O   0  0  0  0  0  0  0  0  0  0  0  0
  -22.8000  -29.4060   22.4290 C   0  0  0  0  0  0  0  0  0  0  0  0
  -21.4710  -29.2300   22.2960 N   0  0  0  0  0  0  0  0  0  0  0  0
  -23.4670  -28.7720   23.2490 O   0  0  0  0  0  0  0  0  0  0  0  0
  -20.9820  -29.7960   21.6140 H   0  0  0  0  0  0  0  0  0  0  0  0
  -18.0970  -27.9840   22.7830 C   0  0  0  0  0  0  0  0  0  0  0  0
  -20.6560  -28.2660   23.0450 C   0  0  0  0  0  3  0  0  0  0  0  0
  -20.7650  -26.8490   22.4370 C   0  0  0  0  0  2  0  0  0  0  0  0
  -19.6650  -26.5430   21.4140 C   0  0  0  0  0  2  0  0  0  0  0  0
  -18.2850  -26.6560   22.0670 C   0  0  0  0  0  2  0  0  0  0  0  0
  -19.2110  -28.7480   23.2260 C   0  0  0  0  0  0  0  0  0  0  0  0
  -18.9770  -29.9890   23.8580 C   0  0  0  0  0  3  0  0  0  0  0  0
  -17.6680  -30.4700   24.0450 C   0  0  0  0  0  3  0  0  0  0  0  0
  -16.5700  -29.7040   23.6160 C   0  0  0  0  0  3  0  0  0  0  0  0
  -16.7850  -28.4630   22.9920 C   0  0  0  0  0  3  0  0  0  0  0  0
  -25.8770  -32.4890   23.8180 C   0  0  0  0  0  3  0  0  0  0  0  0
  -26.3650  -31.7360   25.1190 C   0  0  1  0  0  0  0  0  0  0  0  0
  -25.2490  -31.4810   26.1570 C   0  0  0  0  0  1  0  0  0  0  0  0
  -26.9810  -30.3660   24.7610 C   0  0  0  0  0  1  0  0  0  0  0  0
  -27.4840  -32.5510   25.8100 C   0  0  0  0  0  1  0  0  0  0  0  0
  -25.5310  -33.8860   24.1460 N   0  0  0  0  0  0  0  0  0  0  0  0
  -25.8720  -34.9550   23.4140 C   0  0  0  0  0  0  0  0  0  0  0  0
  -26.5780  -34.8710   22.4050 O   0  0  0  0  0  0  0  0  0  0  0  0
  -24.9140  -34.0200   24.9340 H   0  0  0  0  0  0  0  0  0  0  0  0
  -24.1610  -36.7560   23.0020 C   0  0  0  0  0  1  0  0  0  0  0  0
  -25.3580  -36.3370   23.8710 C   0  0  0  0  0  3  0  0  0  0  0  0
  -27.4350  -37.2240   24.8370 C   0  0  0  0  0  1  0  0  0  0  0  0
  -26.3890  -37.3960   23.8310 N   0  0  0  0  0  0  0  0  0  0  0  0
  -25.9700  -38.3120   23.9680 H   0  0  0  0  0  0  0  0  0  0  0  0
  -29.4040  -19.9900   20.3340 C   0  0  0  0  0  3  0  0  0  0  0  0
  -29.7370  -20.3390   21.8030 C   0  0  0  0  0  2  0  0  0  0  0  0
  -30.9770  -21.2510   21.9700 C   0  0  0  0  0  2  0  0  0  0  0  0
  -31.4170  -21.3870   23.3700 N   0  0  0  0  0  4  0  0  0  0  0  0
  -30.6550  -21.6200   23.9810 H   0  0  0  0  0  0  0  0  0  0  0  0
  -32.1010  -22.1190   23.4340 H   0  0  0  0  0  0  0  0  0  0  0  0
  -31.8480  -20.5400   23.6900 H   0  0  0  0  0  0  0  0  0  0  0  0
  -30.1750  -18.3720   19.8930 C   0  0  0  0  0  2  0  0  0  0  0  0
  -30.6930  -15.4640   20.0960 C   0  0  0  0  0  0  0  0  0  0  0  0
  -30.6360  -13.0200   19.1960 C   0  0  0  0  0  2  0  0  0  0  0  0
  -29.7020  -12.8620   17.9680 C   0  0  0  0  0  2  0  0  0  0  0  0
  -28.2530  -12.5980   18.4120 C   0  0  0  0  0  2  0  0  0  0  0  0
  -27.8300  -13.5190   19.5830 C   0  0  0  0  0  3  0  0  0  0  0  0
  -28.8980  -13.6440   20.6930 C   0  0  0  0  0  2  0  0  0  0  0  0
  -30.1210  -14.1560   20.0530 N   0  0  0  0  0  0  0  0  0  0  0  0
  -31.8980  -15.4560   19.8040 O   0  0  0  0  0  0  0  0  0  0  0  0
  -29.9490  -16.7460   20.2630 N   0  0  0  0  0  0  0  0  0  0  0  0
  -28.9950  -16.5620   20.5470 H   0  0  0  0  0  0  0  0  0  0  0  0
  -25.4680  -14.0640   20.3710 C   0  0  0  0  0  0  0  0  0  0  0  0
  -24.4160  -13.2850   20.7560 C   0  0  0  0  0  0  0  0  0  0  0  0
  -24.8850  -11.9360   20.7170 C   0  0  0  0  0  0  0  0  0  0  0  0
  -26.5100  -13.1930   20.1090 N   0  0  0  0  0  0  0  0  0  0  0  0
  -26.1720  -11.9050   20.3810 N   0  0  0  0  0  0  0  0  0  0  0  0
  -24.1580  -10.6740   20.9160 C   0  0  0  0  0  0  0  0  0  0  0  0
  -24.5560   -9.7370   21.8950 C   0  0  0  0  0  3  0  0  0  0  0  0
  -23.8280   -8.5410   22.0810 C   0  0  0  0  0  3  0  0  0  0  0  0
  -22.6870   -8.2760   21.2860 C   0  0  0  0  0  0  0  0  0  0  0  0
  -22.3070   -9.2000   20.2970 C   0  0  0  0  0  3  0  0  0  0  0  0
  -23.0370  -10.3860   20.1120 C   0  0  0  0  0  3  0  0  0  0  0  0
  -21.9330   -7.1300   21.3810 O   0  0  0  0  0  0  0  0  0  0  0  0
  -21.8010   -6.4470   22.5640 C   0  0  0  0  0  0  0  0  0  0  0  0
  -21.2270   -7.0440   23.7080 C   0  0  0  0  0  3  0  0  0  0  0  0
  -21.0470   -6.2850   24.8810 C   0  0  0  0  0  3  0  0  0  0  0  0
  -21.4310   -4.9310   24.9120 C   0  0  0  0  0  0  0  0  0  0  0  0
  -21.9950   -4.3330   23.7710 C   0  0  0  0  0  3  0  0  0  0  0  0
  -22.1780   -5.0890   22.5990 C   0  0  0  0  0  0  0  0  0  0  0  0
  -22.7050   -4.5020   21.4960 F   0  0  0  0  0  0  0  0  0  0  0  0
  -21.2490   -4.2000   26.0350 F   0  0  0  0  0  0  0  0  0  0  0  0
  -23.0210  -13.7610   21.0420 C   0  0  0  0  0  0  0  0  0  0  0  0
  -22.2960  -13.0600   21.9060 N   0  0  0  0  0  0  0  0  0  0  0  0
  -22.5830  -14.7900   20.5330 O   0  0  0  0  0  0  0  0  0  0  0  0
  -22.6630  -12.2260   22.3410 H   0  0  0  0  0  0  0  0  0  0  0  0
  -21.3570  -13.3590   22.1260 H   0  0  0  0  0  0  0  0  0  0  0  0
  -25.6230  -15.4360   20.1880 N   0  0  0  0  0  0  0  0  0  0  0  0
  -24.8430  -16.0780   20.2890 H   0  0  0  0  0  0  0  0  0  0  0  0
  -26.4340  -15.8670   19.7680 H   0  0  0  0  0  0  0  0  0  0  0  0
  1  4  1  0
  2  1  2  0
  3  5  1  0
  4 52  1  0
  5  4  2  0
  5 10  1  0
  6  2  1  0
  6  3  2  0
  7  6  1  0
  8  7  1  0
  9  7  1  0
 11 13  1  0
 11 10  1  0
 12 23  2  0
 13 18  1  0
 14 22  1  0
 14 24  1  0
 15 21  1  0
 15 17  1  0
 16 22  1  0
 17 16  1  0
 18 17  2  0
 19 13  2  0
 20 19  1  0
 20 15  2  0
 21 14  1  0
 22 12  1  0
 24 26  2  0
 25 24  1  0
 27 25  1  0
 28 37  2  0
 28 33  1  0
 29 25  1  0
 29 33  1  0
 30 29  1  0
 31 32  1  0
 31 30  1  0
 32 28  1  0
 33 34  2  0
 34 35  1  0
 36 35  2  0
 37 36  1  0
 38 12  1  0
 38 43  1  0
 38 39  1  0
 39 42  1  1
 39 40  1  0
 41 39  1  0
 43 46  1  0
 44 48  1  0
 44 43  1  0
 45 44  2  0
 48 47  1  0
 50 48  1  0
 50 51  1  0
 50 49  1  0
 52 59  1  0
 52 53  1  0
 53 54  1  0
 54 55  1  0
 55 57  1  0
 55 58  1  0
 55 56  1  0
 59 68  1  0
 60 68  1  0
 61 66  1  0
 62 63  1  0
 62 61  1  0
 64 63  1  0
 64 73  1  0
 64 65  1  0
 66 60  1  0
 66 65  1  0
 67 60  2  0
 68 69  1  0
 70 71  2  0
 71 90  1  0
 72 71  1  0
 72 75  1  0
 73 70  1  0
 73 74  1  0
 74 72  2  0
 75 76  1  0
 76 77  2  0
 78 81  1  0
 78 77  1  0
 79 78  2  0
 80 79  1  0
 80 75  2  0
 81 82  1  0
 82 87  2  0
 82 83  1  0
 83 84  2  0
 84 85  1  0
 85 89  1  0
 86 85  2  0
 87 86  1  0
 88 87  1  0
 90 91  1  0
 91 94  1  0
 91 93  1  0
 92 90  2  0
 95 96  1  0
 95 70  1  0
 97 95  1  0
M  ISO  4  10 101  11 101  60 100  68 100
M  END
>  <TORSDO>  (54) 
F 23

>  <SCORE>  (54) 
-15.308

>  <name>  (54) 
57

>  <ligand_id>  (54) 
57

>  <original_smiles>  (54) 
[H]c1c([H])c([H])c2c(c1[H])C([H])([H])C([H])([H])C([H])([H])C2([H])N([H])C(=O)C1([H])N(C(=O)C([H])(N([H])C(=O)C([H])(N([H])C([H])([H])[H])C([H])([H])[H])C(C([H])([H])[H])(C([H])([H])[H])C([H])([H])[H])C([H])([H])c2c([H])c(OC([H])([H])c3c([H])c(N([H])[H])c([H])c([H])c3C([H])(C([H])([H])N([H])C(=O)N3C([H])([H])C([H])([H])C([H])([H])C([H])(n4nc(-c5c([H])c([H])c(Oc6c([H])c([H])c(F)c([H])c6F)c([H])c5[H])c(C(=O)N([H])[H])c4N([H])[H])C3([H])[H])C([H])([H])C([H])([H])[N+]([H])([H])[H])c([H])c([H])c2C1([H])[H]

>  <smiles>  (54) 
[H]c1c([H])c([H])c2c(c1[H])C([H])([H])C([H])([H])C([H])([H])C2([H])N([H])C(=O)C1([H])N(C(=O)C([H])(N([H])C(=O)C([H])(N([H])C([H])([H])[H])C([H])([H])[H])C(C([H])([H])[H])(C([H])([H])[H])C([H])([H])[H])C([H])([H])c2c([H])c(OC([H])([H])c3c([H])c(N([H])[H])c([H])c([H])c3C([H])(C([H])([H])N([H])C(=O)N3C([H])([H])C([H])([H])C([H])([H])C([H])(n4nc(-c5c([H])c([H])c(Oc6c([H])c([H])c(F)c([H])c6F)c([H])c5[H])c(C(=O)N([H])[H])c4N([H])[H])C3([H])[H])C([H])([H])C([H])([H])[N+]([H])([H])[H])c([H])c([H])c2C1([H])[H]

$$$$
58:0:0
     RDKit          3D

 94103  0  0  1  0  0  0  0  0999 V2000
  -30.5890  -21.3820   18.6040 C   0  0  0  0  0  2  0  0  0  0  0  0
  -31.2980  -18.4370   19.7010 C   0  0  0  0  0  2  0  0  0  0  0  0
  -30.5650  -21.8030   20.0590 C   0  0  0  0  0  2  0  0  0  0  0  0
  -29.8620  -20.0090   18.5290 C   0  0  0  0  0  3  0  0  0  0  0  0
  -29.9770  -18.2470   20.4570 C   0  0  0  0  0  3  0  0  0  0  0  0
  -29.1430  -19.7810   19.9090 C   0  0  0  0  0  3  0  0  0  0  0  0
  -30.8260  -18.8250   18.3020 C   0  0  0  0  0  3  0  0  0  0  0  0
  -29.2520  -21.3460   20.5020 N   0  0  2  0  0  4  0  0  0  0  0  0
  -29.3330  -21.2140   21.5020 H   0  0  0  0  0  0  0  0  0  0  0  0
  -30.3930  -15.2920   20.2620 C   0  0  0  0  0  0  0  0  0  0  0  0
  -30.3550  -12.8510   19.3720 C   0  0  0  0  0  2  0  0  0  0  0  0
  -29.4370  -12.6410   18.1480 C   0  0  0  0  0  2  0  0  0  0  0  0
  -27.9950  -12.3460   18.6010 C   0  0  0  0  0  2  0  0  0  0  0  0
  -27.5380  -13.3150   19.7210 C   0  0  0  0  0  3  0  0  0  0  0  0
  -28.5890  -13.4890   20.8360 C   0  0  0  0  0  2  0  0  0  0  0  0
  -29.8050  -13.9980   20.1850 N   0  0  0  0  0  0  0  0  0  0  0  0
  -31.6220  -15.2450   20.1090 O   0  0  0  0  0  0  0  0  0  0  0  0
  -29.6580  -16.5920   20.2980 N   0  0  0  0  0  0  0  0  0  0  0  0
  -28.6630  -16.4180   20.2700 H   0  0  0  0  0  0  0  0  0  0  0  0
  -25.1760  -13.8610   20.5020 C   0  0  0  0  0  0  0  0  0  0  0  0
  -24.1230  -13.0810   20.8840 C   0  0  0  0  0  0  0  0  0  0  0  0
  -24.5970  -11.7350   20.8520 C   0  0  0  0  0  0  0  0  0  0  0  0
  -26.2180  -12.9900   20.2460 N   0  0  0  0  0  0  0  0  0  0  0  0
  -25.8870  -11.7040   20.5310 N   0  0  0  0  0  0  0  0  0  0  0  0
  -23.8770  -10.4670   21.0440 C   0  0  0  0  0  0  0  0  0  0  0  0
  -24.3180   -9.5030   21.9770 C   0  0  0  0  0  3  0  0  0  0  0  0
  -23.6000   -8.3010   22.1600 C   0  0  0  0  0  3  0  0  0  0  0  0
  -22.4230   -8.0570   21.4130 C   0  0  0  0  0  0  0  0  0  0  0  0
  -22.0000   -9.0100   20.4700 C   0  0  0  0  0  3  0  0  0  0  0  0
  -22.7200  -10.2020   20.2850 C   0  0  0  0  0  3  0  0  0  0  0  0
  -21.6730   -6.9100   21.5080 O   0  0  0  0  0  0  0  0  0  0  0  0
  -21.6350   -6.1650   22.6590 C   0  0  0  0  0  0  0  0  0  0  0  0
  -21.2120   -6.7140   23.8900 C   0  0  0  0  0  3  0  0  0  0  0  0
  -21.1260   -5.8950   25.0340 C   0  0  0  0  0  3  0  0  0  0  0  0
  -21.4510   -4.5290   24.9480 C   0  0  0  0  0  0  0  0  0  0  0  0
  -21.8690   -3.9790   23.7230 C   0  0  0  0  0  3  0  0  0  0  0  0
  -21.9570   -4.7950   22.5820 C   0  0  0  0  0  0  0  0  0  0  0  0
  -22.3390   -4.2550   21.4000 F   0  0  0  0  0  0  0  0  0  0  0  0
  -21.3610   -3.7420   26.0450 F   0  0  0  0  0  0  0  0  0  0  0  0
  -22.7240  -13.5520   21.1540 C   0  0  0  0  0  0  0  0  0  0  0  0
  -21.9930  -12.8560   22.0180 N   0  0  0  0  0  0  0  0  0  0  0  0
  -22.2840  -14.5740   20.6310 O   0  0  0  0  0  0  0  0  0  0  0  0
  -22.3570  -12.0300   22.4680 H   0  0  0  0  0  0  0  0  0  0  0  0
  -21.0530  -13.1570   22.2350 H   0  0  0  0  0  0  0  0  0  0  0  0
  -25.3350  -15.2310   20.3160 N   0  0  0  0  0  0  0  0  0  0  0  0
  -24.5730  -15.8900   20.4310 H   0  0  0  0  0  0  0  0  0  0  0  0
  -26.1660  -15.6490   19.9180 H   0  0  0  0  0  0  0  0  0  0  0  0
  -31.9250  -19.0540   17.3390 N   0  0  0  0  0  4  0  0  0  0  0  0
  -32.5820  -19.7430   17.6570 H   0  0  0  0  0  0  0  0  0  0  0  0
  -31.5690  -19.3460   16.4450 H   0  0  0  0  0  0  0  0  0  0  0  0
  -32.4330  -18.1990   17.1890 H   0  0  0  0  0  0  0  0  0  0  0  0
  -28.1940  -22.6390   20.4110 C   0  0  0  0  0  2  0  0  0  0  0  0
  -28.3580  -24.3520   19.8530 C   0  0  0  0  0  2  0  0  0  0  0  0
  -28.2210  -25.9000   20.3940 O   0  0  0  0  0  0  0  0  0  0  0  0
  -24.6130  -31.8440   23.2040 C   0  0  0  0  0  0  0  0  0  0  0  0
  -27.1970  -26.9680   20.2350 C   0  0  0  0  0  0  0  0  0  0  0  0
  -23.4310  -30.4350   21.5690 C   0  0  0  0  0  3  0  0  0  0  0  0
  -24.8890  -28.8270   20.1550 C   0  0  0  0  0  0  0  0  0  0  0  0
  -25.9960  -30.6560   21.4330 C   0  0  0  0  0  2  0  0  0  0  0  0
  -26.0670  -29.2430   20.7860 C   0  0  0  0  0  0  0  0  0  0  0  0
  -27.2100  -28.3290   20.8070 C   0  0  0  0  0  3  0  0  0  0  0  0
  -25.9940  -26.6940   19.5460 C   0  0  0  0  0  3  0  0  0  0  0  0
  -24.8770  -27.5740   19.5160 C   0  0  0  0  0  3  0  0  0  0  0  0
  -23.6630  -29.7360   20.1990 C   0  0  0  0  0  2  0  0  0  0  0  0
  -24.7000  -31.0080   22.1210 N   0  0  0  0  0  0  0  0  0  0  0  0
  -23.5210  -32.1340   23.7170 O   0  0  0  0  0  0  0  0  0  0  0  0
  -22.7360  -29.4440   22.5400 C   0  0  0  0  0  0  0  0  0  0  0  0
  -21.4060  -29.2830   22.4140 N   0  0  0  0  0  0  0  0  0  0  0  0
  -23.3990  -28.8210   23.3710 O   0  0  0  0  0  0  0  0  0  0  0  0
  -20.9240  -29.8320   21.7170 H   0  0  0  0  0  0  0  0  0  0  0  0
  -18.0180  -28.0960   22.9300 C   0  0  0  0  0  0  0  0  0  0  0  0
  -20.5800  -28.3510   23.1880 C   0  0  0  0  0  3  0  0  0  0  0  0
  -20.6730  -26.9200   22.6110 C   0  0  0  0  0  2  0  0  0  0  0  0
  -19.5660  -26.6010   21.6010 C   0  0  0  0  0  2  0  0  0  0  0  0
  -18.1880  -26.7480   22.2500 C   0  0  0  0  0  2  0  0  0  0  0  0
  -19.1400  -28.8560   23.3550 C   0  0  0  0  0  0  0  0  0  0  0  0
  -18.9240  -30.1160   23.9540 C   0  0  0  0  0  3  0  0  0  0  0  0
  -17.6190  -30.6150   24.1350 C   0  0  0  0  0  3  0  0  0  0  0  0
  -16.5130  -29.8520   23.7250 C   0  0  0  0  0  3  0  0  0  0  0  0
  -16.7130  -28.5960   23.1270 C   0  0  0  0  0  3  0  0  0  0  0  0
  -25.8800  -32.4920   23.8410 C   0  0  0  0  0  3  0  0  0  0  0  0
  -26.3800  -31.7370   25.1350 C   0  0  1  0  0  0  0  0  0  0  0  0
  -25.2730  -31.5130   26.1920 C   0  0  0  0  0  1  0  0  0  0  0  0
  -26.9670  -30.3530   24.7770 C   0  0  0  0  0  1  0  0  0  0  0  0
  -27.5260  -32.5370   25.7990 C   0  0  0  0  0  1  0  0  0  0  0  0
  -25.5600  -33.8950   24.1630 N   0  0  0  0  0  0  0  0  0  0  0  0
  -25.8980  -34.9510   23.4110 C   0  0  0  0  0  0  0  0  0  0  0  0
  -26.5750  -34.8480   22.3860 O   0  0  0  0  0  0  0  0  0  0  0  0
  -24.9550  -34.0490   24.9580 H   0  0  0  0  0  0  0  0  0  0  0  0
  -24.1740  -36.7510   23.0520 C   0  0  0  0  0  1  0  0  0  0  0  0
  -25.4100  -36.3420   23.8690 C   0  0  0  0  0  3  0  0  0  0  0  0
  -27.5400  -37.2280   24.7140 C   0  0  0  0  0  1  0  0  0  0  0  0
  -26.4450  -37.3940   23.7610 N   0  0  0  0  0  0  0  0  0  0  0  0
  -26.0370  -38.3150   23.8990 H   0  0  0  0  0  0  0  0  0  0  0  0
  1  3  1  0
  2  5  1  0
  3  8  1  0
  4  1  1  0
  4  6  1  0
  5 18  1  0
  6  5  1  0
  6  8  1  0
  7 48  1  0
  7  4  1  0
  7  2  1  0
  8  9  1  1
 10 18  1  0
 11 16  1  0
 12 13  1  0
 12 11  1  0
 14 13  1  0
 14 23  1  0
 14 15  1  0
 16 10  1  0
 16 15  1  0
 17 10  2  0
 19 18  1  0
 20 21  2  0
 21 40  1  0
 22 21  1  0
 22 25  1  0
 23 20  1  0
 23 24  1  0
 24 22  2  0
 25 26  1  0
 26 27  2  0
 28 31  1  0
 28 27  1  0
 29 28  2  0
 30 29  1  0
 30 25  2  0
 31 32  1  0
 32 33  1  0
 33 34  2  0
 35 34  1  0
 35 39  1  0
 36 35  2  0
 37 32  2  0
 37 36  1  0
 38 37  1  0
 40 41  1  0
 41 44  1  0
 41 43  1  0
 42 40  2  0
 45 46  1  0
 45 20  1  0
 47 45  1  0
 48 49  1  0
 50 48  1  0
 51 48  1  0
 52  8  1  0
 53 54  1  0
 53 52  1  0
 55 66  2  0
 56 54  1  0
 56 61  1  0
 57 65  1  0
 57 67  1  0
 58 64  1  0
 58 60  1  0
 59 65  1  0
 60 61  2  0
 60 59  1  0
 62 56  2  0
 63 62  1  0
 63 58  2  0
 64 57  1  0
 65 55  1  0
 67 69  2  0
 68 67  1  0
 70 68  1  0
 71 80  2  0
 71 76  1  0
 72 68  1  0
 72 76  1  0
 73 72  1  0
 74 75  1  0
 74 73  1  0
 75 71  1  0
 76 77  2  0
 77 78  1  0
 79 78  2  0
 80 79  1  0
 81 55  1  0
 81 86  1  0
 81 82  1  0
 82 85  1  1
 82 83  1  0
 84 82  1  0
 86 89  1  0
 87 91  1  0
 87 86  1  0
 88 87  2  0
 91 90  1  0
 93 91  1  0
 93 94  1  0
 93 92  1  0
M  ISO  4  10 100  18 100  53 101  54 101
M  END
>  <TORSDO>  (55) 
F 19

>  <SCORE>  (55) 
-15.973

>  <name>  (55) 
58

>  <ligand_id>  (55) 
58

>  <original_smiles>  (55) 
[H]c1c([H])c([H])c2c(c1[H])C([H])([H])C([H])([H])C([H])([H])C2([H])N([H])C(=O)C1([H])N(C(=O)C([H])(N([H])C(=O)C([H])(N([H])C([H])([H])[H])C([H])([H])[H])C(C([H])([H])[H])(C([H])([H])[H])C([H])([H])[H])C([H])([H])c2c([H])c(OC([H])([H])C([H])([H])[N+]3([H])C([H])([H])C([H])([H])C4([H])C([H])([N+]([H])([H])[H])C([H])([H])C([H])(N([H])C(=O)N5C([H])([H])C([H])([H])C([H])([H])C([H])(n6nc(-c7c([H])c([H])c(Oc8c([H])c([H])c(F)c([H])c8F)c([H])c7[H])c(C(=O)N([H])[H])c6N([H])[H])C5([H])[H])C43[H])c([H])c([H])c2C1([H])[H]

>  <smiles>  (55) 
[H]c1c([H])c([H])c2c(c1[H])C([H])([H])C([H])([H])C([H])([H])C2([H])N([H])C(=O)C1([H])N(C(=O)C([H])(N([H])C(=O)C([H])(N([H])C([H])([H])[H])C([H])([H])[H])C(C([H])([H])[H])(C([H])([H])[H])C([H])([H])[H])C([H])([H])c2c([H])c(OC([H])([H])C([H])([H])[N+]3([H])C([H])([H])C([H])([H])C4([H])C([H])([N+]([H])([H])[H])C([H])([H])C([H])(N([H])C(=O)N5C([H])([H])C([H])([H])C([H])([H])C([H])(n6nc(-c7c([H])c([H])c(Oc8c([H])c([H])c(F)c([H])c8F)c([H])c7[H])c(C(=O)N([H])[H])c6N([H])[H])C5([H])[H])C43[H])c([H])c([H])c2C1([H])[H]

$$$$
59:0:0
     RDKit          3D

 90 98  0  0  1  0  0  0  0  0999 V2000
  -29.5800  -20.5930   20.3040 C   0  0  0  0  0  0  0  0  0  0  0  0
  -28.7360  -21.7470   20.2060 N   0  0  0  0  0  0  0  0  0  0  0  0
  -30.7820  -20.8110   20.4580 O   0  0  0  0  0  0  0  0  0  0  0  0
  -27.7550  -21.5390   20.0660 H   0  0  0  0  0  0  0  0  0  0  0  0
  -30.6510  -15.1080   19.9570 C   0  0  0  0  0  0  0  0  0  0  0  0
  -30.4920  -12.7750   18.9420 C   0  0  0  0  0  2  0  0  0  0  0  0
  -29.4800  -12.7420   17.7730 C   0  0  0  0  0  2  0  0  0  0  0  0
  -28.0540  -12.4880   18.2980 C   0  0  0  0  0  2  0  0  0  0  0  0
  -27.7190  -13.3640   19.5330 C   0  0  0  0  0  3  0  0  0  0  0  0
  -28.8490  -13.3610   20.5830 C   0  0  0  0  0  2  0  0  0  0  0  0
  -30.0570  -13.8390   19.9000 N   0  0  0  0  0  0  0  0  0  0  0  0
  -31.8070  -15.1680   19.5180 O   0  0  0  0  0  0  0  0  0  0  0  0
  -29.1940  -18.2520   21.6360 C   0  0  0  0  0  2  0  0  0  0  0  0
  -29.2400  -16.6870   21.4410 C   0  0  0  0  0  2  0  0  0  0  0  0
  -29.1620  -18.9630   20.2650 C   0  0  0  0  0  3  0  0  0  0  0  0
  -30.0110  -17.7420   19.5090 C   0  0  0  0  0  3  0  0  0  0  0  0
  -29.8990  -16.3260   20.1710 N   0  0  0  0  0  0  0  0  0  0  0  0
  -25.3970  -13.8780   20.4690 C   0  0  0  0  0  0  0  0  0  0  0  0
  -24.3680  -13.0740   20.8790 C   0  0  0  0  0  0  0  0  0  0  0  0
  -24.8430  -11.7320   20.7560 C   0  0  0  0  0  0  0  0  0  0  0  0
  -26.4260  -13.0240   20.1130 N   0  0  0  0  0  0  0  0  0  0  0  0
  -26.1080  -11.7250   20.3500 N   0  0  0  0  0  0  0  0  0  0  0  0
  -24.1430  -10.4540   20.9430 C   0  0  0  0  0  0  0  0  0  0  0  0
  -24.5850   -9.4990   21.8860 C   0  0  0  0  0  3  0  0  0  0  0  0
  -23.8810   -8.2880   22.0630 C   0  0  0  0  0  3  0  0  0  0  0  0
  -22.7220   -8.0220   21.2940 C   0  0  0  0  0  0  0  0  0  0  0  0
  -22.3010   -8.9650   20.3400 C   0  0  0  0  0  3  0  0  0  0  0  0
  -23.0060  -10.1670   20.1620 C   0  0  0  0  0  3  0  0  0  0  0  0
  -21.9920   -6.8600   21.3780 O   0  0  0  0  0  0  0  0  0  0  0  0
  -21.8500   -6.1820   22.5630 C   0  0  0  0  0  0  0  0  0  0  0  0
  -21.2790   -6.7890   23.7040 C   0  0  0  0  0  3  0  0  0  0  0  0
  -21.0880   -6.0350   24.8800 C   0  0  0  0  0  3  0  0  0  0  0  0
  -21.4590   -4.6770   24.9130 C   0  0  0  0  0  0  0  0  0  0  0  0
  -22.0240   -4.0710   23.7790 C   0  0  0  0  0  3  0  0  0  0  0  0
  -22.2170   -4.8220   22.6050 C   0  0  0  0  0  0  0  0  0  0  0  0
  -22.7400   -4.2290   21.5050 F   0  0  0  0  0  0  0  0  0  0  0  0
  -21.2720   -3.9510   26.0390 F   0  0  0  0  0  0  0  0  0  0  0  0
  -22.9900  -13.5250   21.2690 C   0  0  0  0  0  0  0  0  0  0  0  0
  -22.3440  -12.8000   22.1760 N   0  0  0  0  0  0  0  0  0  0  0  0
  -22.4980  -14.5550   20.8100 O   0  0  0  0  0  0  0  0  0  0  0  0
  -22.7600  -11.9690   22.5670 H   0  0  0  0  0  0  0  0  0  0  0  0
  -21.4250  -13.0820   22.4850 H   0  0  0  0  0  0  0  0  0  0  0  0
  -25.5360  -15.2560   20.3430 N   0  0  0  0  0  0  0  0  0  0  0  0
  -24.7800  -15.8990   20.5540 H   0  0  0  0  0  0  0  0  0  0  0  0
  -26.3630  -15.7180   19.9880 H   0  0  0  0  0  0  0  0  0  0  0  0
  -29.9090  -18.8250   17.1520 C   0  0  0  0  0  1  0  0  0  0  0  0
  -29.5980  -17.6040   18.0270 C   0  0  0  0  0  2  0  0  0  0  0  0
  -29.0620  -23.3120   20.3290 C   0  0  0  0  0  3  0  0  0  0  0  0
  -28.0000  -24.6310   20.0940 C   0  0  0  0  0  3  0  0  0  0  0  0
  -28.2820  -26.1740   20.2530 O   0  0  0  0  0  0  0  0  0  0  0  0
  -24.6430  -31.8610   23.2700 C   0  0  0  0  0  0  0  0  0  0  0  0
  -27.2390  -27.1780   20.1860 C   0  0  0  0  0  0  0  0  0  0  0  0
  -23.4580  -30.4920   21.5970 C   0  0  0  0  0  3  0  0  0  0  0  0
  -24.9190  -28.9480   20.1510 C   0  0  0  0  0  0  0  0  0  0  0  0
  -26.0140  -30.7600   21.4540 C   0  0  0  0  0  2  0  0  0  0  0  0
  -26.0960  -29.3770   20.7790 C   0  0  0  0  0  0  0  0  0  0  0  0
  -27.2580  -28.5110   20.7780 C   0  0  0  0  0  3  0  0  0  0  0  0
  -26.0380  -26.8610   19.5150 C   0  0  0  0  0  3  0  0  0  0  0  0
  -24.9070  -27.7060   19.5020 C   0  0  0  0  0  3  0  0  0  0  0  0
  -23.6890  -29.8450   20.2060 C   0  0  0  0  0  2  0  0  0  0  0  0
  -24.7250  -31.0610   22.1620 N   0  0  0  0  0  0  0  0  0  0  0  0
  -23.5530  -32.1350   23.7940 O   0  0  0  0  0  0  0  0  0  0  0  0
  -22.7750  -29.4670   22.5370 C   0  0  0  0  0  0  0  0  0  0  0  0
  -21.4470  -29.2970   22.3980 N   0  0  0  0  0  0  0  0  0  0  0  0
  -23.4390  -28.8300   23.3590 O   0  0  0  0  0  0  0  0  0  0  0  0
  -20.9660  -29.8590   21.7100 H   0  0  0  0  0  0  0  0  0  0  0  0
  -18.0580  -28.1080   22.8770 C   0  0  0  0  0  0  0  0  0  0  0  0
  -20.6190  -28.3470   23.1490 C   0  0  0  0  0  3  0  0  0  0  0  0
  -20.7100  -26.9320   22.5360 C   0  0  0  0  0  2  0  0  0  0  0  0
  -19.6070  -26.6440   21.5140 C   0  0  0  0  0  2  0  0  0  0  0  0
  -18.2260  -26.7790   22.1630 C   0  0  0  0  0  2  0  0  0  0  0  0
  -19.1820  -28.8530   23.3240 C   0  0  0  0  0  0  0  0  0  0  0  0
  -18.9710  -30.0970   23.9540 C   0  0  0  0  0  3  0  0  0  0  0  0
  -17.6680  -30.5990   24.1400 C   0  0  0  0  0  3  0  0  0  0  0  0
  -16.5590  -29.8510   23.7050 C   0  0  0  0  0  3  0  0  0  0  0  0
  -16.7540  -28.6070   23.0820 C   0  0  0  0  0  3  0  0  0  0  0  0
  -25.9140  -32.4890   23.9170 C   0  0  0  0  0  3  0  0  0  0  0  0
  -26.4010  -31.7120   25.2020 C   0  0  1  0  0  0  0  0  0  0  0  0
  -25.2840  -31.4760   26.2460 C   0  0  0  0  0  1  0  0  0  0  0  0
  -26.9880  -30.3340   24.8230 C   0  0  0  0  0  1  0  0  0  0  0  0
  -27.5400  -32.4990   25.8900 C   0  0  0  0  0  1  0  0  0  0  0  0
  -25.6010  -33.8870   24.2530 N   0  0  0  0  0  0  0  0  0  0  0  0
  -25.9160  -34.9470   23.4950 C   0  0  0  0  0  0  0  0  0  0  0  0
  -26.5690  -34.8500   22.4530 O   0  0  0  0  0  0  0  0  0  0  0  0
  -25.0250  -34.0330   25.0700 H   0  0  0  0  0  0  0  0  0  0  0  0
  -24.1660  -36.7290   23.1980 C   0  0  0  0  0  1  0  0  0  0  0  0
  -25.4370  -36.3340   23.9670 C   0  0  0  0  0  3  0  0  0  0  0  0
  -27.5870  -37.2450   24.7300 C   0  0  0  0  0  1  0  0  0  0  0  0
  -26.4580  -37.3950   23.8160 N   0  0  0  0  0  0  0  0  0  0  0  0
  -26.0500  -38.3130   23.9640 H   0  0  0  0  0  0  0  0  0  0  0  0
  1  3  2  0
  2  1  1  0
  2 48  1  0
  4  2  1  0
  5 17  1  0
  6 11  1  0
  7  8  1  0
  7  6  1  0
  9  8  1  0
  9 21  1  0
  9 10  1  0
 11  5  1  0
 11 10  1  0
 12  5  2  0
 14 13  1  0
 15  1  1  0
 15 13  1  0
 16 47  1  0
 16 17  1  0
 16 15  1  0
 17 14  1  0
 18 19  2  0
 19 38  1  0
 20 19  1  0
 20 23  1  0
 21 22  1  0
 21 18  1  0
 22 20  2  0
 23 24  1  0
 24 25  2  0
 26 29  1  0
 26 25  1  0
 27 26  2  0
 28 27  1  0
 28 23  2  0
 29 30  1  0
 30 35  2  0
 30 31  1  0
 31 32  2  0
 32 33  1  0
 33 37  1  0
 34 33  2  0
 35 34  1  0
 36 35  1  0
 38 39  1  0
 39 42  1  0
 39 41  1  0
 40 38  2  0
 43 18  1  0
 43 44  1  0
 45 43  1  0
 46 47  1  0
 49 50  1  0
 49 48  2  0
 51 62  2  0
 52 50  1  0
 52 57  1  0
 53 61  1  0
 53 63  1  0
 54 60  1  0
 54 56  1  0
 55 61  1  0
 56 55  1  0
 57 56  2  0
 58 52  2  0
 59 58  1  0
 59 54  2  0
 60 53  1  0
 61 51  1  0
 63 65  2  0
 64 63  1  0
 66 64  1  0
 67 76  2  0
 67 72  1  0
 68 64  1  0
 68 72  1  0
 69 68  1  0
 70 71  1  0
 70 69  1  0
 71 67  1  0
 72 73  2  0
 73 74  1  0
 75 74  2  0
 76 75  1  0
 77 51  1  0
 77 82  1  0
 77 78  1  0
 78 81  1  1
 78 79  1  0
 80 78  1  0
 82 85  1  0
 83 87  1  0
 83 82  1  0
 84 83  2  0
 87 86  1  0
 89 90  1  0
 89 87  1  0
 89 88  1  0
M  ISO  4   5 100  17 100  49 101  50 101
M  END
>  <TORSDO>  (56) 
F 19

>  <SCORE>  (56) 
-13.623

>  <name>  (56) 
59

>  <ligand_id>  (56) 
59

>  <original_smiles>  (56) 
[H]c1c([H])c([H])c2c(c1[H])C([H])([H])C([H])([H])C([H])([H])C2([H])N([H])C(=O)C1([H])N(C(=O)C([H])(N([H])C(=O)C([H])(N([H])C([H])([H])[H])C([H])([H])[H])C(C([H])([H])[H])(C([H])([H])[H])C([H])([H])[H])C([H])([H])c2c([H])c(OC([H])([H])C([H])([H])N([H])C(=O)C3([H])C([H])([H])C([H])([H])N(C(=O)N4C([H])([H])C([H])([H])C([H])([H])C([H])(n5nc(-c6c([H])c([H])c(Oc7c([H])c([H])c(F)c([H])c7F)c([H])c6[H])c(C(=O)N([H])[H])c5N([H])[H])C4([H])[H])C3([H])C([H])([H])C([H])([H])[H])c([H])c([H])c2C1([H])[H]

>  <smiles>  (56) 
[H]c1c([H])c([H])c2c(c1[H])C([H])([H])C([H])([H])C([H])([H])C2([H])N([H])C(=O)C1([H])N(C(=O)C([H])(N([H])C(=O)C([H])(N([H])C([H])([H])[H])C([H])([H])[H])C(C([H])([H])[H])(C([H])([H])[H])C([H])([H])[H])C([H])([H])c2c([H])c(OC([H])([H])C([H])([H])N([H])C(=O)C3([H])C([H])([H])C([H])([H])N(C(=O)N4C([H])([H])C([H])([H])C([H])([H])C([H])(n5nc(-c6c([H])c([H])c(Oc7c([H])c([H])c(F)c([H])c7F)c([H])c6[H])c(C(=O)N([H])[H])c5N([H])[H])C4([H])[H])C3([H])C([H])([H])C([H])([H])[H])c([H])c([H])c2C1([H])[H]

$$$$
60:0:0
     RDKit          3D

 88 97  0  0  1  0  0  0  0  0999 V2000
  -28.9900  -20.3820   19.6920 C   0  0  0  0  0  0  0  0  0  0  0  0
  -27.9370  -20.1450   19.0930 O   0  0  0  0  0  0  0  0  0  0  0  0
  -30.5740  -15.6630   19.5860 C   0  0  0  0  0  0  0  0  0  0  0  0
  -30.5690  -13.1460   18.6750 C   0  0  0  0  0  2  0  0  0  0  0  0
  -29.5020  -12.7820   17.6020 C   0  0  0  0  0  2  0  0  0  0  0  0
  -28.1510  -12.4200   18.2440 C   0  0  0  0  0  2  0  0  0  0  0  0
  -27.8240  -13.3620   19.4280 C   0  0  0  0  0  3  0  0  0  0  0  0
  -29.0250  -13.5800   20.3770 C   0  0  0  0  0  2  0  0  0  0  0  0
  -30.0730  -14.2810   19.5860 N   0  0  0  0  0  0  0  0  0  0  0  0
  -31.6960  -15.6520   19.0400 O   0  0  0  0  0  0  0  0  0  0  0  0
  -31.5010  -18.1000   22.0880 C   0  0  0  0  0  2  0  0  0  0  0  0
  -30.8490  -16.7100   22.2990 C   0  0  0  0  0  2  0  0  0  0  0  0
  -29.1180  -18.2600   22.0410 C   0  0  0  0  0  2  0  0  0  0  0  0
  -30.0510  -18.7910   20.0350 C   0  0  0  0  0  3  0  0  0  0  0  0
  -30.3430  -18.9740   21.5350 C   0  0  0  0  0  3  0  0  0  0  0  0
  -29.5380  -16.8990   21.4910 C   0  0  0  0  0  3  0  0  0  0  0  0
  -29.9080  -17.0080   20.0430 N   0  0  0  0  0  0  0  0  0  0  0  0
  -25.6940  -13.8370   20.7360 C   0  0  0  0  0  0  0  0  0  0  0  0
  -24.6730  -13.0420   21.1780 C   0  0  0  0  0  0  0  0  0  0  0  0
  -25.0300  -11.7050   20.8240 C   0  0  0  0  0  0  0  0  0  0  0  0
  -26.6050  -12.9860   20.1340 N   0  0  0  0  0  0  0  0  0  0  0  0
  -26.2290  -11.6840   20.2470 N   0  0  0  0  0  0  0  0  0  0  0  0
  -24.2640  -10.4550   20.9440 C   0  0  0  0  0  0  0  0  0  0  0  0
  -24.7270   -9.3750   21.7260 C   0  0  0  0  0  3  0  0  0  0  0  0
  -23.9600   -8.1960   21.8480 C   0  0  0  0  0  3  0  0  0  0  0  0
  -22.7110   -8.0910   21.1880 C   0  0  0  0  0  0  0  0  0  0  0  0
  -22.2650   -9.1610   20.3930 C   0  0  0  0  0  3  0  0  0  0  0  0
  -23.0340  -10.3300   20.2690 C   0  0  0  0  0  3  0  0  0  0  0  0
  -21.9110   -6.9750   21.2250 O   0  0  0  0  0  0  0  0  0  0  0  0
  -21.8330   -6.1820   22.3430 C   0  0  0  0  0  0  0  0  0  0  0  0
  -21.4320   -6.6980   23.5960 C   0  0  0  0  0  3  0  0  0  0  0  0
  -21.2960   -5.8350   24.7020 C   0  0  0  0  0  3  0  0  0  0  0  0
  -21.5490   -4.4590   24.5570 C   0  0  0  0  0  0  0  0  0  0  0  0
  -21.9430   -3.9410   23.3120 C   0  0  0  0  0  3  0  0  0  0  0  0
  -22.0800   -4.8000   22.2070 C   0  0  0  0  0  0  0  0  0  0  0  0
  -22.4380   -4.2940   21.0020 F   0  0  0  0  0  0  0  0  0  0  0  0
  -21.4120   -3.6280   25.6190 F   0  0  0  0  0  0  0  0  0  0  0  0
  -23.3930  -13.5150   21.8020 C   0  0  0  0  0  0  0  0  0  0  0  0
  -22.8120  -12.7200   22.6940 N   0  0  0  0  0  0  0  0  0  0  0  0
  -22.9230  -14.6210   21.5400 O   0  0  0  0  0  0  0  0  0  0  0  0
  -23.2130  -11.8270   22.9410 H   0  0  0  0  0  0  0  0  0  0  0  0
  -21.9560  -13.0150   23.1410 H   0  0  0  0  0  0  0  0  0  0  0  0
  -25.9120  -15.2110   20.7680 N   0  0  0  0  0  0  0  0  0  0  0  0
  -25.2300  -15.8510   21.1590 H   0  0  0  0  0  0  0  0  0  0  0  0
  -26.7080  -15.6840   20.3560 H   0  0  0  0  0  0  0  0  0  0  0  0
  -29.1440  -22.1980   20.0550 C   0  0  0  0  0  3  0  0  0  0  0  0
  -28.1400  -23.8430   19.9040 C   0  0  0  0  0  3  0  0  0  0  0  0
  -28.2860  -25.5680   20.1640 O   0  0  0  0  0  0  0  0  0  0  0  0
  -24.7870  -31.7720   23.1840 C   0  0  0  0  0  0  0  0  0  0  0  0
  -27.3020  -26.7610   20.1140 C   0  0  0  0  0  0  0  0  0  0  0  0
  -23.5850  -30.3900   21.5420 C   0  0  0  0  0  3  0  0  0  0  0  0
  -25.0210  -28.7640   20.0990 C   0  0  0  0  0  0  0  0  0  0  0  0
  -26.1600  -30.5470   21.3970 C   0  0  0  0  0  2  0  0  0  0  0  0
  -26.2210  -29.1260   20.7240 C   0  0  0  0  0  0  0  0  0  0  0  0
  -27.3470  -28.1520   20.6980 C   0  0  0  0  0  3  0  0  0  0  0  0
  -26.0690  -26.6000   19.4350 C   0  0  0  0  0  3  0  0  0  0  0  0
  -24.9830  -27.5280   19.4300 C   0  0  0  0  0  3  0  0  0  0  0  0
  -23.8100  -29.7060   20.1640 C   0  0  0  0  0  2  0  0  0  0  0  0
  -24.8680  -30.9340   22.0940 N   0  0  0  0  0  0  0  0  0  0  0  0
  -23.6990  -32.0620   23.7100 O   0  0  0  0  0  0  0  0  0  0  0  0
  -22.8840  -29.4000   22.5120 C   0  0  0  0  0  0  0  0  0  0  0  0
  -21.5550  -29.2190   22.3770 N   0  0  0  0  0  0  0  0  0  0  0  0
  -23.5460  -28.7910   23.3550 O   0  0  0  0  0  0  0  0  0  0  0  0
  -21.0670  -29.7630   21.6770 H   0  0  0  0  0  0  0  0  0  0  0  0
  -18.1900  -27.9380   22.8630 C   0  0  0  0  0  0  0  0  0  0  0  0
  -20.7420  -28.2690   23.1470 C   0  0  0  0  0  3  0  0  0  0  0  0
  -20.8790  -26.8340   22.5860 C   0  0  0  0  0  2  0  0  0  0  0  0
  -19.7960  -26.4790   21.5610 C   0  0  0  0  0  2  0  0  0  0  0  0
  -18.4070  -26.5920   22.1910 C   0  0  0  0  0  2  0  0  0  0  0  0
  -19.2860  -28.7310   23.2970 C   0  0  0  0  0  0  0  0  0  0  0  0
  -19.0270  -29.9870   23.8880 C   0  0  0  0  0  3  0  0  0  0  0  0
  -17.7060  -30.4510   24.0470 C   0  0  0  0  0  3  0  0  0  0  0  0
  -16.6260  -29.6560   23.6250 C   0  0  0  0  0  3  0  0  0  0  0  0
  -16.8690  -28.4000   23.0400 C   0  0  0  0  0  3  0  0  0  0  0  0
  -26.0560  -32.4170   23.8190 C   0  0  0  0  0  3  0  0  0  0  0  0
  -25.7340  -33.8120   24.1740 N   0  0  0  0  0  0  0  0  0  0  0  0
  -26.0250  -34.8870   23.4270 C   0  0  0  0  0  0  0  0  0  0  0  0
  -26.6530  -34.8090   22.3680 O   0  0  0  0  0  0  0  0  0  0  0  0
  -25.1680  -33.9460   25.0000 H   0  0  0  0  0  0  0  0  0  0  0  0
  -24.2630  -36.6770   23.1980 C   0  0  0  0  0  1  0  0  0  0  0  0
  -25.5510  -36.2680   23.9320 C   0  0  0  0  0  3  0  0  0  0  0  0
  -27.7140  -37.1780   24.6600 C   0  0  0  0  0  1  0  0  0  0  0  0
  -26.5630  -37.3360   23.7760 N   0  0  0  0  0  0  0  0  0  0  0  0
  -26.1520  -38.2490   23.9490 H   0  0  0  0  0  0  0  0  0  0  0  0
  -26.5690  -31.6460   25.1000 C   0  0  1  0  0  0  0  0  0  0  0  0
  -25.4710  -31.3970   26.1610 C   0  0  0  0  0  1  0  0  0  0  0  0
  -27.1680  -30.2740   24.7210 C   0  0  0  0  0  1  0  0  0  0  0  0
  -27.7070  -32.4500   25.7730 C   0  0  0  0  0  1  0  0  0  0  0  0
  1 46  1  0
  2  1  2  0
  3 17  1  0
  4  9  1  0
  5  6  1  0
  5  4  1  0
  7  6  1  0
  7 21  1  0
  7  8  1  0
  9  3  1  0
  9  8  1  0
 10  3  2  0
 11 12  1  0
 14  1  1  0
 14 17  1  0
 14 15  1  0
 15 13  1  0
 15 11  1  0
 16 13  1  0
 16 12  1  0
 17 16  1  0
 18 43  1  0
 18 19  2  0
 19 38  1  0
 20 23  1  0
 20 19  1  0
 21 22  1  0
 21 18  1  0
 22 20  2  0
 23 24  1  0
 24 25  2  0
 26 29  1  0
 26 25  1  0
 27 26  2  0
 28 27  1  0
 28 23  2  0
 29 30  1  0
 30 31  1  0
 31 32  2  0
 33 32  1  0
 33 37  1  0
 34 33  2  0
 35 30  2  0
 35 34  1  0
 36 35  1  0
 38 39  1  0
 39 41  1  0
 39 42  1  0
 40 38  2  0
 43 44  1  0
 45 43  1  0
 47 46  2  0
 47 48  1  0
 49 60  2  0
 50 48  1  0
 50 55  1  0
 51 59  1  0
 51 61  1  0
 52 58  1  0
 52 54  1  0
 53 59  1  0
 54 53  1  0
 55 54  2  0
 56 50  2  0
 57 56  1  0
 57 52  2  0
 58 51  1  0
 59 49  1  0
 61 63  2  0
 62 61  1  0
 64 62  1  0
 65 74  2  0
 65 70  1  0
 66 62  1  0
 66 70  1  0
 67 66  1  0
 68 69  1  0
 68 67  1  0
 69 65  1  0
 70 71  2  0
 71 72  1  0
 73 72  2  0
 74 73  1  0
 75 49  1  0
 75 76  1  0
 75 85  1  0
 76 79  1  0
 77 81  1  0
 77 76  1  0
 78 77  2  0
 81 80  1  0
 83 81  1  0
 83 84  1  0
 83 82  1  0
 85 88  1  1
 85 86  1  0
 87 85  1  0
M  ISO  4   3 100  17 100  47 101  48 101
M  END
>  <TORSDO>  (57) 
F 18

>  <SCORE>  (57) 
-12.422

>  <name>  (57) 
60

>  <ligand_id>  (57) 
60

>  <original_smiles>  (57) 
[H]c1c([H])c([H])c2c(c1[H])C([H])([H])C([H])([H])C([H])([H])C2([H])N([H])C(=O)C1([H])N(C(=O)C([H])(N([H])C(=O)C([H])(N([H])C([H])([H])[H])C([H])([H])[H])C(C([H])([H])[H])(C([H])([H])[H])C([H])([H])[H])C([H])([H])c2c([H])c(OC([H])([H])C([H])([H])C(=O)C3([H])N(C(=O)N4C([H])([H])C([H])([H])C([H])([H])C([H])(n5nc(-c6c([H])c([H])c(Oc7c([H])c([H])c(F)c([H])c7F)c([H])c6[H])c(C(=O)N([H])[H])c5N([H])[H])C4([H])[H])C4([H])C([H])([H])C([H])([H])C3([H])C4([H])[H])c([H])c([H])c2C1([H])[H]

>  <smiles>  (57) 
[H]c1c([H])c([H])c2c(c1[H])C([H])([H])C([H])([H])C([H])([H])C2([H])N([H])C(=O)C1([H])N(C(=O)C([H])(N([H])C(=O)C([H])(N([H])C([H])([H])[H])C([H])([H])[H])C(C([H])([H])[H])(C([H])([H])[H])C([H])([H])[H])C([H])([H])c2c([H])c(OC([H])([H])C([H])([H])C(=O)C3([H])N(C(=O)N4C([H])([H])C([H])([H])C([H])([H])C([H])(n5nc(-c6c([H])c([H])c(Oc7c([H])c([H])c(F)c([H])c7F)c([H])c6[H])c(C(=O)N([H])[H])c5N([H])[H])C4([H])[H])C4([H])C([H])([H])C([H])([H])C3([H])C4([H])[H])c([H])c([H])c2C1([H])[H]

$$$$
61:0:0
     RDKit          3D

 91100  0  0  1  0  0  0  0  0999 V2000
  -29.6270  -22.0840   22.6180 C   0  0  0  0  0  0  0  0  0  0  0  0
  -30.7920  -21.1370   22.3570 C   0  0  0  0  0  2  0  0  0  0  0  0
  -29.5560  -23.3050   21.7170 C   0  0  0  0  0  2  0  0  0  0  0  0
  -30.8930  -21.3850   19.6810 C   0  0  0  0  0  2  0  0  0  0  0  0
  -30.8400  -20.4990   20.9520 C   0  0  0  0  0  3  0  0  0  0  0  0
  -29.3650  -21.4790   19.7200 C   0  0  0  0  0  3  0  0  0  0  0  0
  -28.7910  -23.0280   20.4090 C   0  0  0  0  0  3  0  0  0  0  0  0
  -29.6050  -19.8130   20.3300 C   0  0  0  0  0  3  0  0  0  0  0  0
  -28.7680  -21.8710   23.5230 N   0  0  0  0  0  0  0  0  0  0  0  0
  -28.9560  -21.0140   24.0310 H   0  0  0  0  0  0  0  0  0  0  0  0
  -30.0350  -18.2460   19.5910 C   0  0  0  0  0  2  0  0  0  0  0  0
  -30.7060  -15.4290   19.8760 C   0  0  0  0  0  0  0  0  0  0  0  0
  -30.5990  -13.0060   18.9970 C   0  0  0  0  0  2  0  0  0  0  0  0
  -29.6080  -12.8660   17.8140 C   0  0  0  0  0  2  0  0  0  0  0  0
  -28.1800  -12.6140   18.3290 C   0  0  0  0  0  2  0  0  0  0  0  0
  -27.8130  -13.5560   19.5040 C   0  0  0  0  0  3  0  0  0  0  0  0
  -28.9270  -13.6530   20.5720 C   0  0  0  0  0  2  0  0  0  0  0  0
  -30.1360  -14.1310   19.8860 N   0  0  0  0  0  0  0  0  0  0  0  0
  -31.8830  -15.4510   19.4910 O   0  0  0  0  0  0  0  0  0  0  0  0
  -29.9560  -16.6750   20.0970 N   0  0  0  0  0  0  0  0  0  0  0  0
  -29.0500  -16.4670   20.4900 H   0  0  0  0  0  0  0  0  0  0  0  0
  -25.5030  -14.1220   20.4260 C   0  0  0  0  0  0  0  0  0  0  0  0
  -24.4550  -13.3450   20.8360 C   0  0  0  0  0  0  0  0  0  0  0  0
  -24.8970  -11.9900   20.7240 C   0  0  0  0  0  0  0  0  0  0  0  0
  -26.5140  -13.2420   20.0830 N   0  0  0  0  0  0  0  0  0  0  0  0
  -26.1650  -11.9510   20.3290 N   0  0  0  0  0  0  0  0  0  0  0  0
  -24.1640  -10.7310   20.9130 C   0  0  0  0  0  0  0  0  0  0  0  0
  -24.5890   -9.7610   21.8460 C   0  0  0  0  0  3  0  0  0  0  0  0
  -23.8530   -8.5690   22.0250 C   0  0  0  0  0  3  0  0  0  0  0  0
  -22.6770   -8.3400   21.2720 C   0  0  0  0  0  0  0  0  0  0  0  0
  -22.2710   -9.3000   20.3290 C   0  0  0  0  0  3  0  0  0  0  0  0
  -23.0070  -10.4820   20.1470 C   0  0  0  0  0  3  0  0  0  0  0  0
  -21.9150   -7.2010   21.3610 O   0  0  0  0  0  0  0  0  0  0  0  0
  -21.8090   -6.4950   22.5320 C   0  0  0  0  0  0  0  0  0  0  0  0
  -21.2840   -7.0740   23.7070 C   0  0  0  0  0  3  0  0  0  0  0  0
  -21.1290   -6.2920   24.8690 C   0  0  0  0  0  3  0  0  0  0  0  0
  -21.4870   -4.9320   24.8560 C   0  0  0  0  0  0  0  0  0  0  0  0
  -22.0050   -4.3510   23.6840 C   0  0  0  0  0  3  0  0  0  0  0  0
  -22.1620   -5.1310   22.5250 C   0  0  0  0  0  0  0  0  0  0  0  0
  -22.6410   -4.5600   21.3930 F   0  0  0  0  0  0  0  0  0  0  0  0
  -21.3320   -4.1780   25.9700 F   0  0  0  0  0  0  0  0  0  0  0  0
  -23.0860  -13.8300   21.2110 C   0  0  0  0  0  0  0  0  0  0  0  0
  -22.4080  -13.1220   22.1050 N   0  0  0  0  0  0  0  0  0  0  0  0
  -22.6290  -14.8750   20.7450 O   0  0  0  0  0  0  0  0  0  0  0  0
  -22.7920  -12.2770   22.5020 H   0  0  0  0  0  0  0  0  0  0  0  0
  -21.4910  -13.4280   22.3980 H   0  0  0  0  0  0  0  0  0  0  0  0
  -25.6720  -15.4960   20.2870 N   0  0  0  0  0  0  0  0  0  0  0  0
  -24.9180  -16.1510   20.4670 H   0  0  0  0  0  0  0  0  0  0  0  0
  -26.4890  -15.9360   19.8840 H   0  0  0  0  0  0  0  0  0  0  0  0
  -28.5330  -24.6130   19.6410 C   0  0  0  0  0  2  0  0  0  0  0  0
  -28.4530  -26.1610   20.1560 O   0  0  0  0  0  0  0  0  0  0  0  0
  -24.7640  -31.9480   23.1400 C   0  0  0  0  0  0  0  0  0  0  0  0
  -27.4020  -27.1970   20.0460 C   0  0  0  0  0  0  0  0  0  0  0  0
  -23.5890  -30.5570   21.4820 C   0  0  0  0  0  3  0  0  0  0  0  0
  -25.0630  -29.0040   20.0290 C   0  0  0  0  0  0  0  0  0  0  0  0
  -26.1480  -30.8250   21.3330 C   0  0  0  0  0  2  0  0  0  0  0  0
  -26.2380  -29.4310   20.6550 C   0  0  0  0  0  0  0  0  0  0  0  0
  -27.3990  -28.5440   20.6460 C   0  0  0  0  0  3  0  0  0  0  0  0
  -26.1970  -26.9110   19.3670 C   0  0  0  0  0  3  0  0  0  0  0  0
  -25.0630  -27.7650   19.3660 C   0  0  0  0  0  3  0  0  0  0  0  0
  -23.8250  -29.8970   20.0940 C   0  0  0  0  0  2  0  0  0  0  0  0
  -24.8540  -31.1360   22.0390 N   0  0  0  0  0  0  0  0  0  0  0  0
  -23.6720  -32.2130   23.6690 O   0  0  0  0  0  0  0  0  0  0  0  0
  -22.9170  -29.5340   22.4330 C   0  0  0  0  0  0  0  0  0  0  0  0
  -21.5930  -29.3340   22.2940 N   0  0  0  0  0  0  0  0  0  0  0  0
  -23.5910  -28.9230   23.2660 O   0  0  0  0  0  0  0  0  0  0  0  0
  -21.1010  -29.8790   21.6000 H   0  0  0  0  0  0  0  0  0  0  0  0
  -18.2440  -28.0170   22.7430 C   0  0  0  0  0  0  0  0  0  0  0  0
  -20.7880  -28.3690   23.0510 C   0  0  0  0  0  3  0  0  0  0  0  0
  -20.9470  -26.9420   22.4790 C   0  0  0  0  0  2  0  0  0  0  0  0
  -19.8750  -26.5830   21.4440 C   0  0  0  0  0  2  0  0  0  0  0  0
  -18.4780  -26.6780   22.0650 C   0  0  0  0  0  2  0  0  0  0  0  0
  -19.3280  -28.8190   23.1900 C   0  0  0  0  0  0  0  0  0  0  0  0
  -19.0530  -30.0690   23.7860 C   0  0  0  0  0  3  0  0  0  0  0  0
  -17.7280  -30.5210   23.9360 C   0  0  0  0  0  3  0  0  0  0  0  0
  -16.6590  -29.7180   23.5020 C   0  0  0  0  0  3  0  0  0  0  0  0
  -16.9170  -28.4680   22.9110 C   0  0  0  0  0  3  0  0  0  0  0  0
  -26.0280  -32.6010   23.7800 C   0  0  0  0  0  3  0  0  0  0  0  0
  -25.6980  -34.0000   24.1060 N   0  0  0  0  0  0  0  0  0  0  0  0
  -26.0290  -35.0610   23.3580 C   0  0  0  0  0  0  0  0  0  0  0  0
  -26.7060  -34.9650   22.3300 O   0  0  0  0  0  0  0  0  0  0  0  0
  -25.0960  -34.1460   24.9030 H   0  0  0  0  0  0  0  0  0  0  0  0
  -24.2940  -36.8520   23.0050 C   0  0  0  0  0  1  0  0  0  0  0  0
  -25.5330  -36.4470   23.8190 C   0  0  0  0  0  3  0  0  0  0  0  0
  -27.6510  -37.3510   24.6740 C   0  0  0  0  0  1  0  0  0  0  0  0
  -26.5610  -37.5060   23.7150 N   0  0  0  0  0  0  0  0  0  0  0  0
  -26.1470  -38.4250   23.8500 H   0  0  0  0  0  0  0  0  0  0  0  0
  -26.5270  -31.8450   25.0740 C   0  0  1  0  0  0  0  0  0  0  0  0
  -25.4150  -31.5960   26.1190 C   0  0  0  0  0  1  0  0  0  0  0  0
  -27.1410  -30.4740   24.7100 C   0  0  0  0  0  1  0  0  0  0  0  0
  -27.6510  -32.6610   25.7570 C   0  0  0  0  0  1  0  0  0  0  0  0
  1  9  2  0
  2  1  1  0
  3  1  1  0
  5  4  1  0
  5  2  1  0
  6  4  1  0
  6  8  1  0
  6  7  1  0
  7 50  1  0
  7  3  1  0
  8 11  1  0
  8  5  1  0
  9 10  1  0
 11 20  1  0
 12 18  1  0
 12 20  1  0
 13 18  1  0
 14 15  1  0
 14 13  1  0
 16 15  1  0
 16 25  1  0
 16 17  1  0
 18 17  1  0
 19 12  2  0
 20 21  1  0
 22 23  2  0
 23 42  1  0
 24 23  1  0
 24 27  1  0
 25 26  1  0
 25 22  1  0
 26 24  2  0
 27 28  1  0
 28 29  2  0
 30 33  1  0
 30 29  1  0
 31 30  2  0
 32 31  1  0
 32 27  2  0
 33 34  1  0
 34 35  1  0
 35 36  2  0
 37 36  1  0
 37 41  1  0
 38 37  2  0
 39 34  2  0
 39 38  1  0
 40 39  1  0
 42 43  1  0
 43 46  1  0
 43 45  1  0
 44 42  2  0
 47 22  1  0
 47 48  1  0
 49 47  1  0
 50 51  1  0
 52 63  2  0
 53 51  1  0
 53 58  1  0
 54 62  1  0
 54 64  1  0
 55 61  1  0
 55 57  1  0
 56 62  1  0
 57 56  1  0
 58 57  2  0
 59 53  2  0
 60 59  1  0
 60 55  2  0
 61 54  1  0
 62 52  1  0
 64 66  2  0
 65 64  1  0
 67 65  1  0
 68 77  2  0
 68 73  1  0
 69 65  1  0
 69 73  1  0
 70 69  1  0
 71 72  1  0
 71 70  1  0
 72 68  1  0
 73 74  2  0
 74 75  1  0
 76 75  2  0
 77 76  1  0
 78 52  1  0
 78 79  1  0
 78 88  1  0
 79 82  1  0
 80 84  1  0
 80 79  1  0
 81 80  2  0
 84 83  1  0
 86 84  1  0
 86 87  1  0
 86 85  1  0
 88 91  1  1
 88 89  1  0
 90 88  1  0
M  ISO  4  12 100  20 100  50 101  51 101
M  END
>  <TORSDO>  (58) 
F 18

>  <SCORE>  (58) 
-15.118

>  <name>  (58) 
61

>  <ligand_id>  (58) 
61

>  <original_smiles>  (58) 
[H]N=C1C([H])([H])C([H])(C([H])([H])Oc2c([H])c([H])c3c(c2[H])C([H])([H])N(C(=O)C([H])(N([H])C(=O)C([H])(N([H])C([H])([H])[H])C([H])([H])[H])C(C([H])([H])[H])(C([H])([H])[H])C([H])([H])[H])C([H])(C(=O)N([H])C2([H])c4c([H])c([H])c([H])c([H])c4C([H])([H])C([H])([H])C2([H])[H])C3([H])[H])C2([H])C([H])([H])C([H])(C1([H])[H])C2([H])C([H])([H])N([H])C(=O)N1C([H])([H])C([H])([H])C([H])([H])C([H])(n2nc(-c3c([H])c([H])c(Oc4c([H])c([H])c(F)c([H])c4F)c([H])c3[H])c(C(=O)N([H])[H])c2N([H])[H])C1([H])[H]

>  <smiles>  (58) 
[H]N=C1C([H])([H])C([H])(C([H])([H])Oc2c([H])c([H])c3c(c2[H])C([H])([H])N(C(=O)C([H])(N([H])C(=O)C([H])(N([H])C([H])([H])[H])C([H])([H])[H])C(C([H])([H])[H])(C([H])([H])[H])C([H])([H])[H])C([H])(C(=O)N([H])C2([H])c4c([H])c([H])c([H])c([H])c4C([H])([H])C([H])([H])C2([H])[H])C3([H])[H])C2([H])C([H])([H])C([H])(C1([H])[H])C2([H])C([H])([H])N([H])C(=O)N1C([H])([H])C([H])([H])C([H])([H])C([H])(n2nc(-c3c([H])c([H])c(Oc4c([H])c([H])c(F)c([H])c4F)c([H])c3[H])c(C(=O)N([H])[H])c2N([H])[H])C1([H])[H]

$$$$
62:0:0
     RDKit          3D

 95105  0  0  1  0  0  0  0  0999 V2000
  -29.2660  -20.8700   20.1530 C   0  0  0  0  0  2  0  0  0  0  0  0
  -30.0920  -19.7560   19.4590 N   0  0  0  0  0  4  0  0  0  0  0  0
  -29.5660  -19.4050   18.6780 H   0  0  0  0  0  0  0  0  0  0  0  0
  -30.8740  -20.2490   19.0600 H   0  0  0  0  0  0  0  0  0  0  0  0
  -30.1470  -18.9470   22.5380 C   0  0  0  0  0  2  0  0  0  0  0  0
  -31.7300  -17.7150   22.3320 C   0  0  0  0  0  2  0  0  0  0  0  0
  -30.2180  -17.4770   22.1180 C   0  0  1  0  0  0  0  0  0  0  0  0
  -31.3060  -18.9510   21.5220 C   0  0  2  0  0  0  0  0  0  0  0  0
  -29.9440  -17.2470   20.6220 C   0  0  0  0  0  3  0  0  0  0  0  0
  -30.7860  -18.5430   20.1450 C   0  0  0  0  0  3  0  0  0  0  0  0
  -31.1380  -14.7930   20.0500 C   0  0  0  0  0  0  0  0  0  0  0  0
  -30.8880  -12.5690   18.9140 C   0  0  0  0  0  2  0  0  0  0  0  0
  -29.8560  -12.7380   17.7720 C   0  0  0  0  0  2  0  0  0  0  0  0
  -28.4090  -12.6000   18.2910 C   0  0  0  0  0  2  0  0  0  0  0  0
  -28.1620  -13.4220   19.5820 C   0  0  0  0  0  3  0  0  0  0  0  0
  -29.2850  -13.1630   20.6130 C   0  0  0  0  0  2  0  0  0  0  0  0
  -30.5600  -13.5440   19.9770 N   0  0  0  0  0  0  0  0  0  0  0  0
  -32.2380  -15.0180   19.5340 O   0  0  0  0  0  0  0  0  0  0  0  0
  -30.3080  -15.7550   20.5850 N   0  0  0  0  0  0  0  0  0  0  0  0
  -29.5590  -15.2460   21.0280 H   0  0  0  0  0  0  0  0  0  0  0  0
  -25.8860  -14.1020   20.5650 C   0  0  0  0  0  0  0  0  0  0  0  0
  -24.7910  -13.3680   20.9310 C   0  0  0  0  0  0  0  0  0  0  0  0
  -25.1380  -12.0010   20.6990 C   0  0  0  0  0  0  0  0  0  0  0  0
  -26.8340  -13.1840   20.1380 N   0  0  0  0  0  0  0  0  0  0  0  0
  -26.3920  -11.9080   20.2770 N   0  0  0  0  0  0  0  0  0  0  0  0
  -24.3290  -10.7790   20.7990 C   0  0  0  0  0  0  0  0  0  0  0  0
  -24.6920   -9.7240   21.6650 C   0  0  0  0  0  3  0  0  0  0  0  0
  -23.8890   -8.5670   21.7580 C   0  0  0  0  0  3  0  0  0  0  0  0
  -22.7100   -8.4580   20.9850 C   0  0  0  0  0  0  0  0  0  0  0  0
  -22.3650   -9.5010   20.1080 C   0  0  0  0  0  3  0  0  0  0  0  0
  -23.1670  -10.6510   20.0120 C   0  0  0  0  0  3  0  0  0  0  0  0
  -21.8820   -7.3600   20.9900 O   0  0  0  0  0  0  0  0  0  0  0  0
  -21.7060   -6.5990   22.1180 C   0  0  0  0  0  0  0  0  0  0  0  0
  -21.2390   -7.1560   23.3290 C   0  0  0  0  0  3  0  0  0  0  0  0
  -21.0050   -6.3250   24.4420 C   0  0  0  0  0  3  0  0  0  0  0  0
  -21.2290   -4.9370   24.3460 C   0  0  0  0  0  0  0  0  0  0  0  0
  -21.6880   -4.3810   23.1400 C   0  0  0  0  0  3  0  0  0  0  0  0
  -21.9240   -5.2090   22.0290 C   0  0  0  0  0  0  0  0  0  0  0  0
  -22.3460   -4.6640   20.8620 F   0  0  0  0  0  0  0  0  0  0  0  0
  -20.9960   -4.1380   25.4130 F   0  0  0  0  0  0  0  0  0  0  0  0
  -23.4620  -13.9040   21.3790 C   0  0  0  0  0  0  0  0  0  0  0  0
  -22.7660  -13.1730   22.2430 N   0  0  0  0  0  0  0  0  0  0  0  0
  -23.0520  -15.0010   21.0000 O   0  0  0  0  0  0  0  0  0  0  0  0
  -23.1100  -12.2820   22.5680 H   0  0  0  0  0  0  0  0  0  0  0  0
  -21.8770  -13.5100   22.5850 H   0  0  0  0  0  0  0  0  0  0  0  0
  -26.1480  -15.4690   20.5380 N   0  0  0  0  0  0  0  0  0  0  0  0
  -25.4500  -16.1590   20.7930 H   0  0  0  0  0  0  0  0  0  0  0  0
  -26.9900  -15.8820   20.1580 H   0  0  0  0  0  0  0  0  0  0  0  0
  -29.4860  -22.4460   18.0850 C   0  0  0  0  0  1  0  0  0  0  0  0
  -29.3650  -22.4170   19.6250 C   0  0  0  0  0  3  0  0  0  0  0  0
  -28.2390  -23.5390   20.0400 C   0  0  0  0  0  3  0  0  0  0  0  0
  -27.3440  -22.9320   20.9570 O   0  0  0  0  0  0  0  0  0  0  0  0
  -27.7350  -22.9700   21.8240 H   0  0  0  0  0  0  0  0  0  0  0  0
  -28.6170  -25.0000   20.6490 C   0  0  0  0  0  2  0  0  0  0  0  0
  -28.4980  -26.3240   19.9640 O   0  0  0  0  0  0  0  0  0  0  0  0
  -24.6290  -31.6680   23.0540 C   0  0  0  0  0  0  0  0  0  0  0  0
  -27.3390  -27.1200   20.0380 C   0  0  0  0  0  0  0  0  0  0  0  0
  -23.4560  -30.2280   21.4270 C   0  0  0  0  0  3  0  0  0  0  0  0
  -24.9390  -28.6870   20.0170 C   0  0  0  0  0  0  0  0  0  0  0  0
  -25.9880  -30.5960   21.2360 C   0  0  0  0  0  2  0  0  0  0  0  0
  -26.0990  -29.2090   20.6040 C   0  0  0  0  0  0  0  0  0  0  0  0
  -27.3050  -28.4410   20.5940 C   0  0  0  0  0  3  0  0  0  0  0  0
  -26.1530  -26.6430   19.4500 C   0  0  0  0  0  3  0  0  0  0  0  0
  -24.9680  -27.4090   19.4320 C   0  0  0  0  0  3  0  0  0  0  0  0
  -23.6850  -29.5420   20.0540 C   0  0  0  0  0  2  0  0  0  0  0  0
  -24.7100  -30.8490   21.9630 N   0  0  0  0  0  0  0  0  0  0  0  0
  -23.5380  -31.9260   23.5860 O   0  0  0  0  0  0  0  0  0  0  0  0
  -22.8190  -29.2070   22.3990 C   0  0  0  0  0  0  0  0  0  0  0  0
  -21.5020  -28.9740   22.2550 N   0  0  0  0  0  0  0  0  0  0  0  0
  -23.5100  -28.6250   23.2390 O   0  0  0  0  0  0  0  0  0  0  0  0
  -21.0010  -29.4980   21.5520 H   0  0  0  0  0  0  0  0  0  0  0  0
  -18.1730  -27.6320   22.7000 C   0  0  0  0  0  0  0  0  0  0  0  0
  -20.7090  -28.0180   23.0290 C   0  0  0  0  0  3  0  0  0  0  0  0
  -20.8920  -26.5790   22.4930 C   0  0  0  0  0  2  0  0  0  0  0  0
  -19.8340  -26.1780   21.4600 C   0  0  0  0  0  2  0  0  0  0  0  0
  -18.4310  -26.2760   22.0650 C   0  0  0  0  0  2  0  0  0  0  0  0
  -19.2440  -28.4570   23.1390 C   0  0  0  0  0  0  0  0  0  0  0  0
  -18.9530  -29.7230   23.6880 C   0  0  0  0  0  3  0  0  0  0  0  0
  -17.6210  -30.1630   23.8130 C   0  0  0  0  0  3  0  0  0  0  0  0
  -16.5650  -29.3360   23.3940 C   0  0  0  0  0  3  0  0  0  0  0  0
  -16.8420  -28.0750   22.8400 C   0  0  0  0  0  3  0  0  0  0  0  0
  -25.8960  -32.3350   23.6700 C   0  0  0  0  0  3  0  0  0  0  0  0
  -25.5340  -33.7050   24.0610 N   0  0  0  0  0  0  0  0  0  0  0  0
  -25.8060  -34.8020   23.3390 C   0  0  0  0  0  0  0  0  0  0  0  0
  -26.4560  -34.7670   22.2930 O   0  0  0  0  0  0  0  0  0  0  0  0
  -24.9490  -33.8030   24.8780 H   0  0  0  0  0  0  0  0  0  0  0  0
  -23.9960  -36.5300   23.0970 C   0  0  0  0  0  1  0  0  0  0  0  0
  -25.2720  -36.1480   23.8660 C   0  0  0  0  0  3  0  0  0  0  0  0
  -27.3850  -37.0900   24.6870 C   0  0  0  0  0  1  0  0  0  0  0  0
  -26.2550  -37.2480   23.7740 N   0  0  0  0  0  0  0  0  0  0  0  0
  -25.8140  -38.1430   23.9670 H   0  0  0  0  0  0  0  0  0  0  0  0
  -26.4740  -31.5450   24.9060 C   0  0  1  0  0  0  0  0  0  0  0  0
  -25.4140  -31.2030   25.9800 C   0  0  0  0  0  1  0  0  0  0  0  0
  -27.1290  -30.2220   24.4480 C   0  0  0  0  0  1  0  0  0  0  0  0
  -27.5850  -32.3770   25.5880 C   0  0  0  0  0  1  0  0  0  0  0  0
  2  1  1  0
  3  2  1  0
  4  2  1  0
  7  6  1  1
  7  5  1  0
  8  7  1  0
  8  6  1  6
  8  5  1  0
  9 19  1  0
  9  7  1  0
 10  2  1  0
 10  9  1  0
 10  8  1  0
 11 19  1  0
 12 17  1  0
 13 14  1  0
 13 12  1  0
 15 14  1  0
 15 24  1  0
 15 16  1  0
 17 11  1  0
 17 16  1  0
 18 11  2  0
 19 20  1  0
 21 22  2  0
 22 41  1  0
 23 26  1  0
 23 22  1  0
 24 25  1  0
 24 21  1  0
 25 23  2  0
 26 27  1  0
 27 28  2  0
 29 32  1  0
 29 28  1  0
 30 29  2  0
 31 30  1  0
 31 26  2  0
 32 33  1  0
 33 34  1  0
 34 35  2  0
 36 35  1  0
 36 40  1  0
 37 36  2  0
 38 33  2  0
 38 37  1  0
 39 38  1  0
 41 42  1  0
 42 44  1  0
 42 45  1  0
 43 41  2  0
 46 21  1  0
 46 47  1  0
 48 46  1  0
 50 49  1  0
 50 51  1  0
 50  1  1  0
 51 54  1  0
 51 52  1  0
 52 53  1  0
 55 57  1  0
 55 54  1  0
 56 67  2  0
 57 62  1  0
 58 66  1  0
 58 68  1  0
 59 65  1  0
 59 61  1  0
 60 66  1  0
 61 60  1  0
 62 61  2  0
 63 57  2  0
 64 63  1  0
 64 59  2  0
 65 58  1  0
 66 56  1  0
 68 70  2  0
 69 68  1  0
 71 69  1  0
 72 81  2  0
 72 77  1  0
 73 69  1  0
 73 77  1  0
 74 73  1  0
 75 76  1  0
 75 74  1  0
 76 72  1  0
 77 78  2  0
 78 79  1  0
 80 79  2  0
 81 80  1  0
 82 56  1  0
 82 83  1  0
 82 92  1  0
 83 86  1  0
 84 88  1  0
 84 83  1  0
 85 84  2  0
 88 87  1  0
 90 88  1  0
 90 91  1  0
 90 89  1  0
 92 95  1  1
 92 93  1  0
 94 92  1  0
M  ISO  4  11 100  19 100  54 101  55 101
M  END
>  <TORSDO>  (59) 
F 22

>  <SCORE>  (59) 
-10.806

>  <name>  (59) 
62

>  <ligand_id>  (59) 
62

>  <original_smiles>  (59) 
[H]OC([H])(C([H])([H])Oc1c([H])c([H])c2c(c1[H])C([H])([H])N(C(=O)C([H])(N([H])C(=O)C([H])(N([H])C([H])([H])[H])C([H])([H])[H])C(C([H])([H])[H])(C([H])([H])[H])C([H])([H])[H])C([H])(C(=O)N([H])C1([H])c3c([H])c([H])c([H])c([H])c3C([H])([H])C([H])([H])C1([H])[H])C2([H])[H])C([H])(C([H])([H])[H])C([H])([H])[N+]([H])([H])C1([H])C([H])(N([H])C(=O)N2C([H])([H])C([H])([H])C([H])([H])C([H])(n3nc(-c4c([H])c([H])c(Oc5c([H])c([H])c(F)c([H])c5F)c([H])c4[H])c(C(=O)N([H])[H])c3N([H])[H])C2([H])[H])C2([H])C([H])([H])C1([H])C2([H])[H]

>  <smiles>  (59) 
[H]OC([H])(C([H])([H])Oc1c([H])c([H])c2c(c1[H])C([H])([H])N(C(=O)C([H])(N([H])C(=O)C([H])(N([H])C([H])([H])[H])C([H])([H])[H])C(C([H])([H])[H])(C([H])([H])[H])C([H])([H])[H])C([H])(C(=O)N([H])C1([H])c3c([H])c([H])c([H])c([H])c3C([H])([H])C([H])([H])C1([H])[H])C2([H])[H])C([H])(C([H])([H])[H])C([H])([H])[N+]([H])([H])C1([H])C([H])(N([H])C(=O)N2C([H])([H])C([H])([H])C([H])([H])C([H])(n3nc(-c4c([H])c([H])c(Oc5c([H])c([H])c(F)c([H])c5F)c([H])c4[H])c(C(=O)N([H])[H])c3N([H])[H])C2([H])[H])C2([H])C([H])([H])C1([H])C2([H])[H]

$$$$
63:0:0
     RDKit          3D

 97107  0  0  1  0  0  0  0  0999 V2000
  -28.4510  -20.1200   21.1790 C   0  0  0  0  0  2  0  0  0  0  0  0
  -28.2100  -18.2620   19.5520 C   0  0  0  0  0  2  0  0  0  0  0  0
  -28.1950  -19.7950   19.7020 C   0  0  1  0  0  0  0  0  0  0  0  0
  -29.7730  -19.4240   20.7450 C   0  0  1  0  0  0  0  0  0  0  0  0
  -29.6280  -20.3620   19.4940 C   0  0  0  0  0  3  0  0  0  0  0  0
  -29.4230  -17.9330   20.4590 C   0  0  1  0  0  0  0  0  0  0  0  0
  -29.0040  -17.2940   21.7300 N   0  0  0  0  0  4  0  0  0  0  0  0
  -28.3550  -17.8920   22.2100 H   0  0  0  0  0  0  0  0  0  0  0  0
  -29.7950  -17.1640   22.3360 H   0  0  0  0  0  0  0  0  0  0  0  0
  -28.5590  -16.4050   21.5940 H   0  0  0  0  0  0  0  0  0  0  0  0
  -29.9280  -21.8370   19.7060 N   0  0  0  0  0  4  0  0  0  0  0  0
  -30.9140  -21.9800   19.5530 H   0  0  0  0  0  0  0  0  0  0  0  0
  -29.7560  -22.0340   20.6770 H   0  0  0  0  0  0  0  0  0  0  0  0
  -29.1720  -22.8670   18.9230 C   0  0  0  0  0  2  0  0  0  0  0  0
  -29.3820  -24.3450   19.4370 C   0  0  0  0  0  3  0  0  0  0  0  0
  -28.3030  -25.3690   18.9630 C   0  0  0  0  0  3  0  0  0  0  0  0
  -28.3770  -26.7040   19.5510 O   0  0  0  0  0  0  0  0  0  0  0  0
  -24.6370  -31.6820   23.1420 C   0  0  0  0  0  0  0  0  0  0  0  0
  -27.2070  -27.4610   19.6300 C   0  0  0  0  0  0  0  0  0  0  0  0
  -23.3850  -30.3710   21.4660 C   0  0  0  0  0  3  0  0  0  0  0  0
  -24.7970  -28.9680   19.8690 C   0  0  0  0  0  0  0  0  0  0  0  0
  -25.9030  -30.7710   21.1930 C   0  0  0  0  0  2  0  0  0  0  0  0
  -25.9790  -29.4470   20.4480 C   0  0  0  0  0  0  0  0  0  0  0  0
  -27.1810  -28.7000   20.3320 C   0  0  0  0  0  3  0  0  0  0  0  0
  -25.9980  -27.0300   19.0310 C   0  0  0  0  0  3  0  0  0  0  0  0
  -24.8050  -27.7590   19.1580 C   0  0  0  0  0  3  0  0  0  0  0  0
  -23.5430  -29.7980   20.0350 C   0  0  0  0  0  2  0  0  0  0  0  0
  -24.6630  -30.9540   21.9910 N   0  0  0  0  0  0  0  0  0  0  0  0
  -23.5730  -31.8990   23.7410 O   0  0  0  0  0  0  0  0  0  0  0  0
  -22.7930  -29.2720   22.3800 C   0  0  0  0  0  0  0  0  0  0  0  0
  -21.4840  -29.0090   22.2350 N   0  0  0  0  0  0  0  0  0  0  0  0
  -23.5110  -28.6610   23.1770 O   0  0  0  0  0  0  0  0  0  0  0  0
  -20.9620  -29.5570   21.5640 H   0  0  0  0  0  0  0  0  0  0  0  0
  -18.2090  -27.5250   22.6020 C   0  0  0  0  0  0  0  0  0  0  0  0
  -20.7260  -27.9930   22.9630 C   0  0  0  0  0  3  0  0  0  0  0  0
  -20.9680  -26.5860   22.3680 C   0  0  0  0  0  2  0  0  0  0  0  0
  -19.9300  -26.1910   21.3130 C   0  0  0  0  0  2  0  0  0  0  0  0
  -18.5210  -26.2080   21.9110 C   0  0  0  0  0  2  0  0  0  0  0  0
  -19.2450  -28.3700   23.0820 C   0  0  0  0  0  0  0  0  0  0  0  0
  -18.9020  -29.6000   23.6830 C   0  0  0  0  0  3  0  0  0  0  0  0
  -17.5540  -29.9880   23.8120 C   0  0  0  0  0  3  0  0  0  0  0  0
  -16.5320  -29.1410   23.3500 C   0  0  0  0  0  3  0  0  0  0  0  0
  -16.8600  -27.9110   22.7510 C   0  0  0  0  0  3  0  0  0  0  0  0
  -25.9350  -32.3000   23.7460 C   0  0  0  0  0  3  0  0  0  0  0  0
  -25.6270  -33.6820   24.1360 N   0  0  0  0  0  0  0  0  0  0  0  0
  -25.9210  -34.7640   23.4020 C   0  0  0  0  0  0  0  0  0  0  0  0
  -26.5530  -34.7020   22.3440 O   0  0  0  0  0  0  0  0  0  0  0  0
  -25.0620  -33.8030   24.9630 H   0  0  0  0  0  0  0  0  0  0  0  0
  -24.1590  -36.5430   23.1810 C   0  0  0  0  0  1  0  0  0  0  0  0
  -25.4380  -36.1300   23.9250 C   0  0  0  0  0  3  0  0  0  0  0  0
  -27.5900  -37.0210   24.7000 C   0  0  0  0  0  1  0  0  0  0  0  0
  -26.4530  -37.1990   23.8010 N   0  0  0  0  0  0  0  0  0  0  0  0
  -26.0410  -38.1100   23.9840 H   0  0  0  0  0  0  0  0  0  0  0  0
  -26.4930  -31.4870   24.9790 C   0  0  1  0  0  0  0  0  0  0  0  0
  -25.4290  -31.1920   26.0620 C   0  0  0  0  0  1  0  0  0  0  0  0
  -27.0860  -30.1340   24.5190 C   0  0  0  0  0  1  0  0  0  0  0  0
  -27.6470  -32.2710   25.6460 C   0  0  0  0  0  1  0  0  0  0  0  0
  -31.9240  -17.2670   20.3270 C   0  0  0  0  0  1  0  0  0  0  0  0
  -30.5070  -17.0220   19.7610 C   0  0  0  0  0  3  0  0  0  0  0  0
  -30.8800  -14.5320   19.3650 C   0  0  0  0  0  0  0  0  0  0  0  0
  -30.5960  -12.2240   18.5340 C   0  0  0  0  0  2  0  0  0  0  0  0
  -29.5330  -12.2230   17.4170 C   0  0  0  0  0  2  0  0  0  0  0  0
  -28.1140  -12.0860   18.0080 C   0  0  0  0  0  2  0  0  0  0  0  0
  -27.8570  -13.0720   19.1780 C   0  0  0  0  0  3  0  0  0  0  0  0
  -29.0210  -13.0380   20.1920 C   0  0  0  0  0  2  0  0  0  0  0  0
  -30.2670  -13.3200   19.4580 N   0  0  0  0  0  0  0  0  0  0  0  0
  -31.9400  -14.7010   18.7560 O   0  0  0  0  0  0  0  0  0  0  0  0
  -30.1750  -15.5740   19.8580 N   0  0  0  0  0  0  0  0  0  0  0  0
  -29.2780  -15.3140   20.2320 H   0  0  0  0  0  0  0  0  0  0  0  0
  -25.5820  -13.7170   20.1960 C   0  0  0  0  0  0  0  0  0  0  0  0
  -24.5560  -12.9610   20.6940 C   0  0  0  0  0  0  0  0  0  0  0  0
  -24.9810  -11.6020   20.5930 C   0  0  0  0  0  0  0  0  0  0  0  0
  -26.5690  -12.8180   19.8200 N   0  0  0  0  0  0  0  0  0  0  0  0
  -26.2200  -11.5410   20.1180 N   0  0  0  0  0  0  0  0  0  0  0  0
  -24.2620  -10.3510   20.8640 C   0  0  0  0  0  0  0  0  0  0  0  0
  -24.7050   -9.4470   21.8530 C   0  0  0  0  0  3  0  0  0  0  0  0
  -23.9880   -8.2600   22.1110 C   0  0  0  0  0  3  0  0  0  0  0  0
  -22.8130   -7.9670   21.3780 C   0  0  0  0  0  0  0  0  0  0  0  0
  -22.3880   -8.8600   20.3780 C   0  0  0  0  0  3  0  0  0  0  0  0
  -23.1060  -10.0400   20.1190 C   0  0  0  0  0  3  0  0  0  0  0  0
  -22.0680   -6.8240   21.5380 O   0  0  0  0  0  0  0  0  0  0  0  0
  -21.9060   -6.2370   22.7680 C   0  0  0  0  0  0  0  0  0  0  0  0
  -21.3200   -6.9280   23.8510 C   0  0  0  0  0  3  0  0  0  0  0  0
  -21.1080   -6.2650   25.0760 C   0  0  0  0  0  3  0  0  0  0  0  0
  -21.4720   -4.9140   25.2180 C   0  0  0  0  0  0  0  0  0  0  0  0
  -22.0500   -4.2210   24.1390 C   0  0  0  0  0  3  0  0  0  0  0  0
  -22.2650   -4.8830   22.9160 C   0  0  0  0  0  0  0  0  0  0  0  0
  -22.8010   -4.2060   21.8730 F   0  0  0  0  0  0  0  0  0  0  0  0
  -21.2610   -4.2740   26.3920 F   0  0  0  0  0  0  0  0  0  0  0  0
  -23.2130  -13.4630   21.1420 C   0  0  0  0  0  0  0  0  0  0  0  0
  -22.5900  -12.7850   22.1010 N   0  0  0  0  0  0  0  0  0  0  0  0
  -22.7260  -14.4910   20.6740 O   0  0  0  0  0  0  0  0  0  0  0  0
  -22.9960  -11.9530   22.5040 H   0  0  0  0  0  0  0  0  0  0  0  0
  -21.6940  -13.1070   22.4380 H   0  0  0  0  0  0  0  0  0  0  0  0
  -25.7510  -15.0860   20.0090 N   0  0  0  0  0  0  0  0  0  0  0  0
  -24.9730  -15.7180   20.1680 H   0  0  0  0  0  0  0  0  0  0  0  0
  -26.4390  -15.4630   19.3700 H   0  0  0  0  0  0  0  0  0  0  0  0
  2  6  1  0
  3  2  1  6
  3  4  1  0
  3  1  1  0
  4  1  1  1
  5  3  1  0
  5 11  1  0
  5  4  1  0
  6  4  1  0
  6  7  1  0
  7  8  1  0
  7  9  1  0
 10  7  1  0
 11 13  1  0
 12 11  1  0
 14 15  1  0
 14 11  1  0
 16 15  2  0
 16 17  1  0
 17 19  1  0
 18 29  2  0
 19 24  1  0
 20 28  1  0
 20 30  1  0
 21 27  1  0
 21 23  1  0
 22 28  1  0
 23 22  1  0
 24 23  2  0
 25 26  1  0
 25 19  2  0
 26 21  2  0
 27 20  1  0
 28 18  1  0
 30 32  2  0
 31 30  1  0
 33 31  1  0
 34 43  2  0
 34 39  1  0
 35 31  1  0
 35 39  1  0
 36 35  1  0
 37 38  1  0
 37 36  1  0
 38 34  1  0
 39 40  2  0
 40 41  1  0
 42 41  2  0
 43 42  1  0
 44 18  1  0
 44 45  1  0
 44 54  1  0
 45 48  1  0
 46 50  1  0
 46 45  1  0
 47 46  2  0
 50 49  1  0
 52 50  1  0
 52 53  1  0
 52 51  1  0
 54 57  1  1
 54 55  1  0
 56 54  1  0
 59 68  1  0
 59 58  1  0
  6 59  1  6
 60 66  1  0
 60 68  1  0
 61 66  1  0
 62 63  1  0
 62 61  1  0
 64 63  1  0
 64 73  1  0
 64 65  1  0
 66 65  1  0
 67 60  2  0
 68 69  1  0
 70 71  2  0
 71 90  1  0
 72 71  1  0
 72 75  1  0
 73 74  1  0
 73 70  1  0
 74 72  2  0
 75 76  1  0
 76 77  2  0
 78 81  1  0
 78 77  1  0
 79 78  2  0
 80 79  1  0
 80 75  2  0
 81 82  1  0
 82 87  2  0
 82 83  1  0
 83 84  2  0
 84 85  1  0
 85 89  1  0
 86 85  2  0
 87 86  1  0
 88 87  1  0
 90 91  1  0
 91 94  1  0
 91 93  1  0
 92 90  2  0
 95 96  1  0
 95 70  1  0
 97 95  1  0
M  ISO  4  16 101  17 101  60 100  68 100
M  END
>  <TORSDO>  (60) 
F 22

>  <SCORE>  (60) 
-11.401

>  <name>  (60) 
63

>  <ligand_id>  (60) 
63

>  <original_smiles>  (60) 
[H]c1c([H])c([H])c2c(c1[H])C([H])([H])C([H])([H])C([H])([H])C2([H])N([H])C(=O)C1([H])N(C(=O)C([H])(N([H])C(=O)C([H])(N([H])C([H])([H])[H])C([H])([H])[H])C(C([H])([H])[H])(C([H])([H])[H])C([H])([H])[H])C([H])([H])c2c([H])c(OC([H])([H])C([H])([H])C([H])([H])[N+]([H])([H])C3([H])C4([H])C([H])([H])C3([H])C(C([H])(N([H])C(=O)N3C([H])([H])C([H])([H])C([H])([H])C([H])(n5nc(-c6c([H])c([H])c(Oc7c([H])c([H])c(F)c([H])c7F)c([H])c6[H])c(C(=O)N([H])[H])c5N([H])[H])C3([H])[H])C([H])([H])[H])([N+]([H])([H])[H])C4([H])[H])c([H])c([H])c2C1([H])[H]

>  <smiles>  (60) 
[H]c1c([H])c([H])c2c(c1[H])C([H])([H])C([H])([H])C([H])([H])C2([H])N([H])C(=O)C1([H])N(C(=O)C([H])(N([H])C(=O)C([H])(N([H])C([H])([H])[H])C([H])([H])[H])C(C([H])([H])[H])(C([H])([H])[H])C([H])([H])[H])C([H])([H])c2c([H])c(OC([H])([H])C([H])([H])C([H])([H])[N+]([H])([H])C3([H])C4([H])C([H])([H])C3([H])C(C([H])(N([H])C(=O)N3C([H])([H])C([H])([H])C([H])([H])C([H])(n5nc(-c6c([H])c([H])c(Oc7c([H])c([H])c(F)c([H])c7F)c([H])c6[H])c(C(=O)N([H])[H])c5N([H])[H])C3([H])[H])C([H])([H])[H])([N+]([H])([H])[H])C4([H])[H])c([H])c([H])c2C1([H])[H]

$$$$
64:0:0
     RDKit          3D

 90 96  0  0  1  0  0  0  0  0999 V2000
  -25.7570  -15.6030   21.6730 C   0  0  0  0  0  3  0  0  0  0  0  0
  -26.4660  -16.6160   20.9570 C   0  0  0  0  0  3  0  0  0  0  0  0
  -26.0320  -14.2070   21.7400 C   0  0  0  0  0  2  0  0  0  0  0  0
  -27.7460  -16.5080   20.3490 C   0  0  0  0  0  2  0  0  0  0  0  0
  -27.0310  -13.5840   20.9260 C   0  0  0  0  0  3  0  0  0  0  0  0
  -28.1300  -14.8820   20.5920 C   0  0  0  0  0  3  0  0  0  0  0  0
  -26.3460  -10.9150   18.6460 C   0  0  0  0  0 15  0  0  0  0  0  0
  -30.9510  -13.9570   20.9860 C   0  0  0  0  0  0  0  0  0  0  0  0
  -31.7600  -11.5050   21.0100 C   0  0  0  0  0  2  0  0  0  0  0  0
  -31.2200  -10.7930   19.7220 C   0  0  0  0  0  2  0  0  0  0  0  0
  -29.6960  -10.6080   19.7200 C   0  0  0  0  0  2  0  0  0  0  0  0
  -29.1570  -11.9320   20.1800 C   0  0  0  0  0  3  0  0  0  0  0  0
  -29.6240  -12.1730   21.6490 C   0  0  0  0  0  2  0  0  0  0  0  0
  -30.8810  -12.6580   21.3870 N   0  0  0  0  0  0  0  0  0  0  0  0
  -32.1340  -14.3170   20.7850 O   0  0  0  0  0  0  0  0  0  0  0  0
  -29.7380  -14.7550   20.6640 N   0  0  0  0  0  0  0  0  0  0  0  0
  -30.1220  -15.6270   20.3290 H   0  0  0  0  0  0  0  0  0  0  0  0
  -26.3700  -12.9600   19.6250 C   0  0  2  0  0  0  0  0  0  0  0  0
  -25.1650  -12.3840   20.5780 C   0  0  0  0  0  3  0  0  0  0  0  0
  -25.6510  -11.1560   21.5410 C   0  0  0  0  0  3  0  0  0  0  0  0
  -27.8310  -11.9720   20.2310 N   0  0  0  0  0  0  0  0  0  0  0  0
  -27.1730  -11.0210   21.4460 N   0  0  0  0  0  2  0  0  0  0  0  0
  -24.8600   -9.7310   21.5740 C   0  0  0  0  0  0  0  0  0  0  0  0
  -25.0370   -8.7470   22.5920 C   0  0  0  0  0  3  0  0  0  0  0  0
  -24.3060   -7.5150   22.6630 C   0  0  0  0  0  3  0  0  0  0  0  0
  -23.3590   -7.1410   21.6780 C   0  0  0  0  0  0  0  0  0  0  0  0
  -23.2500   -8.0090   20.5750 C   0  0  0  0  0  3  0  0  0  0  0  0
  -23.9690   -9.2420   20.5330 C   0  0  0  0  0  3  0  0  0  0  0  0
  -22.5880   -5.9820   21.7140 O   0  0  0  0  0  0  0  0  0  0  0  0
  -22.1080   -5.4440   22.8960 C   0  0  0  0  0  0  0  0  0  0  0  0
  -21.2530   -6.1710   23.7540 C   0  0  0  0  0  3  0  0  0  0  0  0
  -20.7600   -5.5850   24.9410 C   0  0  0  0  0  3  0  0  0  0  0  0
  -21.1090   -4.2630   25.2750 C   0  0  0  0  0  0  0  0  0  0  0  0
  -21.9370   -3.5220   24.4140 C   0  0  0  0  0  3  0  0  0  0  0  0
  -22.4260   -4.1050   23.2290 C   0  0  0  0  0  0  0  0  0  0  0  0
  -23.2040   -3.3640   22.4030 F   0  0  0  0  0  0  0  0  0  0  0  0
  -20.6470   -3.7050   26.4200 F   0  0  0  0  0  0  0  0  0  0  0  0
  -23.7150  -12.6700   20.4470 C   0  0  0  0  0  0  0  0  0  0  0  0
  -22.8630  -12.0580   21.2740 N   0  0  0  0  0  0  0  0  0  0  0  0
  -23.3350  -13.4550   19.5990 O   0  0  0  0  0  0  0  0  0  0  0  0
  -23.1760  -11.3990   21.9720 H   0  0  0  0  0  0  0  0  0  0  0  0
  -21.8760  -12.2520   21.1980 H   0  0  0  0  0  0  0  0  0  0  0  0
  -26.5100  -14.1230   18.9410 N   0  0  0  0  0  0  0  0  0  0  0  0
  -25.7320  -14.7430   18.7540 H   0  0  0  0  0  0  0  0  0  0  0  0
  -27.4020  -14.4920   18.6380 H   0  0  0  0  0  0  0  0  0  0  0  0
  -27.4650  -19.5260   20.3000 C   0  0  0  0  0  2  0  0  0  0  0  0
  -28.3640  -18.3640   19.8900 C   0  0  0  0  0  1  0  0  0  0  0  0
  -28.1610  -20.2870   19.1910 C   0  0  0  0  0  1  0  0  0  0  0  0
  -28.2610  -22.3180   19.3480 C   0  0  0  0  0  1  0  0  0  0  0  0
  -28.5760  -24.0120   18.6350 O   0  0  0  0  0  0  0  0  0  0  0  0
  -26.9860  -30.1180   23.2930 C   0  0  0  0  0  0  0  0  0  0  0  0
  -28.1620  -25.5120   18.9610 C   0  0  0  0  0  0  0  0  0  0  0  0
  -25.5810  -29.5520   21.3660 C   0  0  0  0  0  3  0  0  0  0  0  0
  -26.6540  -28.1170   19.4750 C   0  0  0  0  0  0  0  0  0  0  0  0
  -28.1190  -29.0930   21.2110 C   0  0  0  0  0  2  0  0  0  0  0  0
  -27.8500  -27.9190   20.1740 C   0  0  0  0  0  0  0  0  0  0  0  0
  -28.6140  -26.6540   19.8860 C   0  0  0  0  0  3  0  0  0  0  0  0
  -27.0770  -26.0130   18.2100 C   0  0  0  0  0  3  0  0  0  0  0  0
  -26.3400  -27.2050   18.4580 C   0  0  0  0  0  3  0  0  0  0  0  0
  -25.7180  -29.2790   19.8400 C   0  0  0  0  0  2  0  0  0  0  0  0
  -26.9290  -29.6050   22.0140 N   0  0  0  0  0  0  0  0  0  0  0  0
  -25.9640  -30.4850   23.9000 O   0  0  0  0  0  0  0  0  0  0  0  0
  -24.6470  -28.4970   22.0200 C   0  0  0  0  0  0  0  0  0  0  0  0
  -23.3160  -28.6640   21.8980 N   0  0  0  0  0  0  0  0  0  0  0  0
  -25.1330  -27.5340   22.6180 O   0  0  0  0  0  0  0  0  0  0  0  0
  -22.9810  -29.4830   21.4100 H   0  0  0  0  0  0  0  0  0  0  0  0
  -19.7390  -28.0850   22.1720 C   0  0  0  0  0  0  0  0  0  0  0  0
  -22.2940  -27.7300   22.3900 C   0  0  0  0  0  3  0  0  0  0  0  0
  -22.1030  -26.5500   21.4100 C   0  0  0  0  0  2  0  0  0  0  0  0
  -20.9820  -26.7830   20.3930 C   0  0  0  0  0  2  0  0  0  0  0  0
  -19.6470  -27.0030   21.1090 C   0  0  0  0  0  2  0  0  0  0  0  0
  -20.9830  -28.4370   22.7620 C   0  0  0  0  0  0  0  0  0  0  0  0
  -21.0130  -29.4700   23.7240 C   0  0  0  0  0  3  0  0  0  0  0  0
  -19.8340  -30.1430   24.0970 C   0  0  0  0  0  3  0  0  0  0  0  0
  -18.6060  -29.7830   23.5180 C   0  0  0  0  0  3  0  0  0  0  0  0
  -18.5590  -28.7530   22.5620 C   0  0  0  0  0  3  0  0  0  0  0  0
  -28.3330  -30.2800   24.0560 C   0  0  0  0  0  3  0  0  0  0  0  0
  -28.1240  -31.2380   25.1610 N   0  0  0  0  0  0  0  0  0  0  0  0
  -28.5680  -32.5020   25.1900 C   0  0  0  0  0  0  0  0  0  0  0  0
  -29.2550  -32.9820   24.2850 O   0  0  0  0  0  0  0  0  0  0  0  0
  -27.5200  -30.9300   25.9100 H   0  0  0  0  0  0  0  0  0  0  0  0
  -27.0490  -34.3250   26.0450 C   0  0  0  0  0  1  0  0  0  0  0  0
  -28.1980  -33.3720   26.4120 C   0  0  0  0  0  3  0  0  0  0  0  0
  -30.3580  -33.3350   27.5870 C   0  0  0  0  0  1  0  0  0  0  0  0
  -29.3330  -34.1570   26.9490 N   0  0  0  0  0  0  0  0  0  0  0  0
  -29.0070  -34.8400   27.6280 H   0  0  0  0  0  0  0  0  0  0  0  0
  -28.8840  -28.9160   24.6360 C   0  0  1  0  0  0  0  0  0  0  0  0
  -27.8520  -28.1360   25.4840 C   0  0  0  0  0  1  0  0  0  0  0  0
  -29.3540  -27.9760   23.5050 C   0  0  0  0  0  1  0  0  0  0  0  0
  -30.1240  -29.1880   25.5200 C   0  0  0  0  0  1  0  0  0  0  0  0
  1  3  1  0
  2  1  2  0
  4  2  1  0
  5  3  1  0
  6  4  1  0
  6 16  1  0
  6  5  1  0
  8 14  1  0
  9 14  1  0
 10  9  1  0
 11 10  1  0
 12 11  1  0
 12 21  1  0
 12 13  1  0
 14 13  1  0
 15  8  2  0
 16  8  1  0
 17 16  1  0
 18 43  1  1
 18 21  1  0
 18 19  1  0
 18  5  1  0
 19 38  1  0
 19 20  1  0
 20 23  1  0
 21 22  1  0
 22 20  1  0
 23 24  1  0
 24 25  2  0
 26 29  1  0
 26 25  1  0
 27 26  2  0
 28 27  1  0
 28 23  2  0
 29 30  1  0
 30 35  2  0
 30 31  1  0
 31 32  2  0
 32 33  1  0
 33 37  1  0
 34 33  2  0
 35 34  1  0
 36 35  1  0
 38 39  1  0
 39 41  1  0
 40 38  2  0
 42 39  1  0
 44 43  1  0
 45 43  1  0
 47 46  1  0
 48 46  1  0
 50 52  1  0
 50 49  1  0
 51 62  2  0
 52 57  1  0
 53 61  1  0
 53 63  1  0
 54 60  1  0
 54 56  1  0
 55 61  1  0
 56 55  1  0
 57 56  2  0
 58 59  1  0
 58 52  2  0
 59 54  2  0
 60 53  1  0
 61 51  1  0
 63 65  2  0
 64 63  1  0
 66 64  1  0
 67 76  2  0
 67 72  1  0
 68 64  1  0
 68 72  1  0
 69 68  1  0
 70 71  1  0
 70 69  1  0
 71 67  1  0
 72 73  2  0
 73 74  1  0
 75 74  2  0
 76 75  1  0
 77 51  1  0
 77 87  1  0
 77 78  1  0
 78 79  1  0
 78 81  1  0
 79 83  1  0
 80 79  2  0
 83 82  1  0
 83 85  1  0
 85 84  1  0
 85 86  1  0
 87 88  1  1
 87 90  1  0
 89 87  1  0
M  ISO  4   8 100  16 100  49 101  50 101
M  END
>  <TORSDO>  (61) 
F 18

>  <SCORE>  (61) 
-2.645

>  <name>  (61) 
64

>  <ligand_id>  (61) 
64

>  <original_smiles>  (61) 
[H]c1c([H])c([H])c2c(c1[H])C([H])([H])C([H])([H])C([H])([H])C2([H])N([H])C(=O)C1([H])N(C(=O)C([H])(N([H])C(=O)C([H])(N([H])C([H])([H])[H])C([H])([H])[H])C(C([H])([H])[H])(C([H])([H])[H])C([H])([H])[H])C([H])([H])c2c([H])c(OC([H])([H])C3([H])C([H])([H])C3([H])c3c([H])c([H])c([H])c(C([H])([H])[H])c3N([H])C(=O)N3C([H])([H])C([H])([H])C([H])([H])C([H])(n4nc(-c5c([H])c([H])c(Oc6c([H])c([H])c(F)c([H])c6F)c([H])c5[H])c(C(=O)N([H])[H])c4N([H])[H])C3([H])[H])c([H])c([H])c2C1([H])[H]

>  <smiles>  (61) 
[H]c1c([H])c([H])c2c(c1[H])C([H])([H])C([H])([H])C([H])([H])C2([H])N([H])C(=O)C1([H])N(C(=O)C([H])(N([H])C(=O)C([H])(N([H])C([H])([H])[H])C([H])([H])[H])C(C([H])([H])[H])(C([H])([H])[H])C([H])([H])[H])C([H])([H])c2c([H])c(OC([H])([H])C3([H])C([H])([H])C3([H])c3c([H])c([H])c([H])c(C([H])([H])[H])c3N([H])C(=O)N3C([H])([H])C([H])([H])C([H])([H])C([H])(n4nc(-c5c([H])c([H])c(Oc6c([H])c([H])c(F)c([H])c6F)c([H])c5[H])c(C(=O)N([H])[H])c4N([H])[H])C3([H])[H])c([H])c([H])c2C1([H])[H]

$$$$
65:0:0
     RDKit          3D

 90 98  0  0  1  0  0  0  0  0999 V2000
  -30.2450  -22.7370   19.5440 C   0  0  0  0  0  3  0  0  0  0  0  0
  -28.7950  -21.0830   20.5010 C   0  0  0  0  0  3  0  0  0  0  0  0
  -29.0100  -22.5970   20.2090 C   0  0  0  0  0  0  0  0  0  0  0  0
  -31.1210  -21.6540   19.2220 C   0  0  0  0  0  0  0  0  0  0  0  0
  -29.6710  -19.8390   20.1720 C   0  0  0  0  0  0  0  0  0  0  0  0
  -30.8470  -20.2650   19.4950 C   0  0  0  0  0  0  0  0  0  0  0  0
  -32.4560  -22.0380   18.5930 C   0  0  0  0  0  1  0  0  0  0  0  0
  -31.9020  -19.2160   19.1430 C   0  0  0  0  0  1  0  0  0  0  0  0
  -30.3260  -18.1230   22.0740 C   0  0  0  0  0  1  0  0  0  0  0  0
  -29.5980  -18.1530   20.7200 C   0  0  0  0  0  0  0  0  0  0  0  0
  -30.4800  -15.3000   19.9830 C   0  0  0  0  0  0  0  0  0  0  0  0
  -30.4210  -12.8750   18.9820 C   0  0  0  0  0  2  0  0  0  0  0  0
  -29.4170  -12.6780   17.8150 C   0  0  0  0  0  2  0  0  0  0  0  0
  -28.0030  -12.3890   18.3550 C   0  0  0  0  0  2  0  0  0  0  0  0
  -27.6290  -13.3300   19.5270 C   0  0  0  0  0  3  0  0  0  0  0  0
  -28.7510  -13.4360   20.5800 C   0  0  0  0  0  2  0  0  0  0  0  0
  -29.9150  -13.9920   19.8690 N   0  0  0  0  0  0  0  0  0  0  0  0
  -31.7020  -15.2960   19.7750 O   0  0  0  0  0  0  0  0  0  0  0  0
  -29.6840  -16.5660   20.1090 N   0  0  0  0  0  4  0  0  0  0  0  0
  -28.7270  -16.2700   19.9790 H   0  0  0  0  0  0  0  0  0  0  0  0
  -25.3240  -13.8970   20.4620 C   0  0  0  0  0  0  0  0  0  0  0  0
  -24.2760  -13.1250   20.8740 C   0  0  0  0  0  0  0  0  0  0  0  0
  -24.7170  -11.7710   20.7640 C   0  0  0  0  0  0  0  0  0  0  0  0
  -26.3330  -13.0150   20.1150 N   0  0  0  0  0  0  0  0  0  0  0  0
  -25.9840  -11.7260   20.3630 N   0  0  0  0  0  0  0  0  0  0  0  0
  -23.9800  -10.5140   20.9640 C   0  0  0  0  0  0  0  0  0  0  0  0
  -24.4210   -9.5400   21.8860 C   0  0  0  0  0  3  0  0  0  0  0  0
  -23.6860   -8.3490   22.0770 C   0  0  0  0  0  3  0  0  0  0  0  0
  -22.4980   -8.1250   21.3410 C   0  0  0  0  0  0  0  0  0  0  0  0
  -22.0740   -9.0900   20.4090 C   0  0  0  0  0  3  0  0  0  0  0  0
  -22.8090  -10.2720   20.2180 C   0  0  0  0  0  3  0  0  0  0  0  0
  -21.7380   -6.9850   21.4370 O   0  0  0  0  0  0  0  0  0  0  0  0
  -21.6650   -6.2620   22.6000 C   0  0  0  0  0  0  0  0  0  0  0  0
  -21.1920   -6.8310   23.8010 C   0  0  0  0  0  3  0  0  0  0  0  0
  -21.0670   -6.0340   24.9560 C   0  0  0  0  0  3  0  0  0  0  0  0
  -21.4100   -4.6680   24.9120 C   0  0  0  0  0  0  0  0  0  0  0  0
  -21.8800   -4.0990   23.7140 C   0  0  0  0  0  3  0  0  0  0  0  0
  -22.0040   -4.8940   22.5610 C   0  0  0  0  0  0  0  0  0  0  0  0
  -22.4360   -4.3360   21.4060 F   0  0  0  0  0  0  0  0  0  0  0  0
  -21.2850   -3.9000   26.0200 F   0  0  0  0  0  0  0  0  0  0  0  0
  -22.9090  -13.6160   21.2480 C   0  0  0  0  0  0  0  0  0  0  0  0
  -22.2200  -12.9060   22.1330 N   0  0  0  0  0  0  0  0  0  0  0  0
  -22.4610  -14.6660   20.7900 O   0  0  0  0  0  0  0  0  0  0  0  0
  -22.5970  -12.0600   22.5320 H   0  0  0  0  0  0  0  0  0  0  0  0
  -21.3040  -13.2220   22.4180 H   0  0  0  0  0  0  0  0  0  0  0  0
  -25.4980  -15.2720   20.3340 N   0  0  0  0  0  0  0  0  0  0  0  0
  -24.7590  -15.9270   20.5600 H   0  0  0  0  0  0  0  0  0  0  0  0
  -26.3280  -15.7230   19.9750 H   0  0  0  0  0  0  0  0  0  0  0  0
  -28.0590  -24.0650   20.5080 C   0  0  0  0  0  2  0  0  0  0  0  0
  -28.3450  -25.7130   20.3860 O   0  0  0  0  0  0  0  0  0  0  0  0
  -24.6620  -31.7920   23.1260 C   0  0  0  0  0  0  0  0  0  0  0  0
  -27.3340  -26.8300   20.3020 C   0  0  0  0  0  0  0  0  0  0  0  0
  -23.5290  -30.3540   21.4830 C   0  0  0  0  0  3  0  0  0  0  0  0
  -25.0330  -28.7270   20.1380 C   0  0  0  0  0  0  0  0  0  0  0  0
  -26.1010  -30.5720   21.4110 C   0  0  0  0  0  2  0  0  0  0  0  0
  -26.2020  -29.1450   20.7830 C   0  0  0  0  0  0  0  0  0  0  0  0
  -27.3500  -28.2220   20.8330 C   0  0  0  0  0  3  0  0  0  0  0  0
  -26.1350  -26.5770   19.5990 C   0  0  0  0  0  3  0  0  0  0  0  0
  -25.0280  -27.4650   19.5190 C   0  0  0  0  0  3  0  0  0  0  0  0
  -23.8060  -29.6440   20.1300 C   0  0  0  0  0  2  0  0  0  0  0  0
  -24.7840  -30.9360   22.0580 N   0  0  0  0  0  0  0  0  0  0  0  0
  -23.5550  -32.0850   23.6060 O   0  0  0  0  0  0  0  0  0  0  0  0
  -22.8120  -29.3740   22.4480 C   0  0  0  0  0  0  0  0  0  0  0  0
  -21.4830  -29.2140   22.3090 N   0  0  0  0  0  0  0  0  0  0  0  0
  -23.4610  -28.7550   23.2960 O   0  0  0  0  0  0  0  0  0  0  0  0
  -21.0140  -29.7620   21.6020 H   0  0  0  0  0  0  0  0  0  0  0  0
  -18.0860  -28.0350   22.7940 C   0  0  0  0  0  0  0  0  0  0  0  0
  -20.6450  -28.2900   23.0800 C   0  0  0  0  0  3  0  0  0  0  0  0
  -20.7430  -26.8520   22.5170 C   0  0  0  0  0  2  0  0  0  0  0  0
  -19.6480  -26.5290   21.4950 C   0  0  0  0  0  2  0  0  0  0  0  0
  -18.2620  -26.6830   22.1250 C   0  0  0  0  0  2  0  0  0  0  0  0
  -19.2040  -28.7970   23.2290 C   0  0  0  0  0  0  0  0  0  0  0  0
  -18.9790  -30.0600   23.8200 C   0  0  0  0  0  3  0  0  0  0  0  0
  -17.6720  -30.5610   23.9770 C   0  0  0  0  0  3  0  0  0  0  0  0
  -16.5710  -29.7960   23.5550 C   0  0  0  0  0  3  0  0  0  0  0  0
  -16.7790  -28.5350   22.9690 C   0  0  0  0  0  3  0  0  0  0  0  0
  -25.9080  -32.4600   23.7820 C   0  0  0  0  0  3  0  0  0  0  0  0
  -25.5540  -33.8520   24.1120 N   0  0  0  0  0  0  0  0  0  0  0  0
  -25.8900  -34.9240   23.3790 C   0  0  0  0  0  0  0  0  0  0  0  0
  -26.5860  -34.8430   22.3650 O   0  0  0  0  0  0  0  0  0  0  0  0
  -24.9380  -33.9850   24.8990 H   0  0  0  0  0  0  0  0  0  0  0  0
  -24.1510  -36.7060   23.0010 C   0  0  0  0  0  1  0  0  0  0  0  0
  -25.3720  -36.3020   23.8420 C   0  0  0  0  0  3  0  0  0  0  0  0
  -27.4650  -37.2120   24.7530 C   0  0  0  0  0  1  0  0  0  0  0  0
  -26.3940  -37.3700   23.7740 N   0  0  0  0  0  0  0  0  0  0  0  0
  -25.9720  -38.2840   23.9120 H   0  0  0  0  0  0  0  0  0  0  0  0
  -26.4010  -31.7060   25.0780 C   0  0  1  0  0  0  0  0  0  0  0  0
  -25.2810  -31.4510   26.1150 C   0  0  0  0  0  1  0  0  0  0  0  0
  -27.0230  -30.3360   24.7230 C   0  0  0  0  0  1  0  0  0  0  0  0
  -27.5160  -32.5290   25.7660 C   0  0  0  0  0  1  0  0  0  0  0  0
  1  3  1  0
  3  2  2  0
  3 49  1  0
  4  6  1  0
  4  1  2  0
  5  2  1  0
  5 10  1  0
  6  5  2  0
  7  4  1  0
  8  6  1  0
 10  9  1  0
 11 19  1  0
 12 17  1  0
 13 14  1  0
 13 12  1  0
 15 14  1  0
 15 24  1  0
 15 16  1  0
 17 11  1  0
 17 16  1  0
 18 11  2  0
 19 10  2  3
 20 19  1  0
 21 22  2  0
 22 41  1  0
 23 22  1  0
 23 26  1  0
 24 25  1  0
 24 21  1  0
 25 23  2  0
 26 27  1  0
 27 28  2  0
 29 32  1  0
 29 28  1  0
 30 29  2  0
 31 30  1  0
 31 26  2  0
 32 33  1  0
 33 34  1  0
 34 35  2  0
 36 35  1  0
 36 40  1  0
 37 36  2  0
 38 33  2  0
 38 37  1  0
 39 38  1  0
 41 42  1  0
 42 45  1  0
 42 44  1  0
 43 41  2  0
 46 21  1  0
 46 47  1  0
 48 46  1  0
 50 49  1  0
 51 62  2  0
 52 50  1  0
 52 57  1  0
 53 61  1  0
 53 63  1  0
 54 56  1  0
 55 61  1  0
 56 57  2  0
 56 55  1  0
 58 52  2  0
 59 58  1  0
 59 54  2  0
 60 54  1  0
 60 53  1  0
 61 51  1  0
 63 65  2  0
 64 63  1  0
 66 64  1  0
 67 76  2  0
 67 72  1  0
 68 64  1  0
 68 72  1  0
 69 68  1  0
 70 71  1  0
 70 69  1  0
 71 67  1  0
 72 73  2  0
 73 74  1  0
 75 74  2  0
 76 75  1  0
 77 51  1  0
 77 78  1  0
 77 87  1  0
 78 81  1  0
 79 83  1  0
 79 78  1  0
 80 79  2  0
 83 82  1  0
 85 83  1  0
 85 86  1  0
 85 84  1  0
 87 90  1  1
 87 88  1  0
 89 87  1  0
M  ISO  4  11 100  19 100  49 101  50 101
M  END
>  <TORSDO>  (62) 
F 18

>  <SCORE>  (62) 
-16.400

>  <name>  (62) 
65

>  <ligand_id>  (62) 
65

>  <original_smiles>  (62) 
[H]c1c([H])c([H])c2c(c1[H])C([H])([H])C([H])([H])C([H])([H])C2([H])N([H])C(=O)C1([H])N(C(=O)C([H])(N([H])C(=O)C([H])(N([H])C([H])([H])[H])C([H])([H])[H])C(C([H])([H])[H])(C([H])([H])[H])C([H])([H])[H])C([H])([H])c2c([H])c(OC([H])([H])c3c([H])c(C([H])([H])[H])c(C([H])([H])[H])c(C([H])(N([H])C(=O)N4C([H])([H])C([H])([H])C([H])([H])C([H])(n5nc(-c6c([H])c([H])c(Oc7c([H])c([H])c(F)c([H])c7F)c([H])c6[H])c(C(=O)N([H])[H])c5N([H])[H])C4([H])[H])C([H])([H])[H])c3[H])c([H])c([H])c2C1([H])[H]

>  <smiles>  (62) 
[H]c1c([H])c([H])c2c(c1[H])C([H])([H])C([H])([H])C([H])([H])C2([H])N([H])C(=O)C1([H])N(C(=O)C([H])(N([H])C(=O)C([H])(N([H])C([H])([H])[H])C([H])([H])[H])C(C([H])([H])[H])(C([H])([H])[H])C([H])([H])[H])C([H])([H])c2c([H])c(OC([H])([H])c3c([H])c(C([H])([H])[H])c(C([H])([H])[H])c(C([H])(N([H])C(=O)N4C([H])([H])C([H])([H])C([H])([H])C([H])(n5nc(-c6c([H])c([H])c(Oc7c([H])c([H])c(F)c([H])c7F)c([H])c6[H])c(C(=O)N([H])[H])c5N([H])[H])C4([H])[H])C([H])([H])[H])c3[H])c([H])c([H])c2C1([H])[H]

$$$$
66:0:0
     RDKit          3D

 91100  0  0  1  0  0  0  0  0999 V2000
  -29.7870  -21.4590   18.8520 C   0  0  0  0  0  3  0  0  0  0  0  0
  -30.0830  -20.0390   18.8460 C   0  0  0  0  0  3  0  0  0  0  0  0
  -29.7270  -22.2110   20.0590 C   0  0  0  0  0  0  0  0  0  0  0  0
  -29.9260  -21.4250   21.2170 C   0  0  0  0  0  0  0  0  0  0  0  0
  -30.3420  -19.2370   20.0160 C   0  0  0  0  0  0  0  0  0  0  0  0
  -30.2130  -19.9980   21.2310 C   0  0  0  0  0  0  0  0  0  0  0  0
  -29.9240  -22.3390   22.4220 C   0  0  0  0  0  2  0  0  0  0  0  0
  -29.6120  -23.7730   21.8970 C   0  0  0  0  0  2  0  0  0  0  0  0
  -29.7220  -23.8040   20.3510 C   0  0  0  0  0  3  0  0  0  0  0  0
  -30.4730  -19.3020   22.5570 C   0  0  0  0  0  1  0  0  0  0  0  0
  -31.0390  -17.7560   19.8900 C   0  0  0  0  0  2  0  0  0  0  0  0
  -31.1650  -15.1040   19.9190 C   0  0  0  0  0  0  0  0  0  0  0  0
  -30.9340  -12.7540   19.0460 C   0  0  0  0  0  2  0  0  0  0  0  0
  -29.9590  -12.7180   17.8490 C   0  0  0  0  0  2  0  0  0  0  0  0
  -28.5100  -12.5430   18.3390 C   0  0  0  0  0  2  0  0  0  0  0  0
  -28.1630  -13.5020   19.5090 C   0  0  0  0  0  3  0  0  0  0  0  0
  -29.2600  -13.5300   20.5960 C   0  0  0  0  0  2  0  0  0  0  0  0
  -30.5170  -13.8780   19.9270 N   0  0  0  0  0  0  0  0  0  0  0  0
  -32.3560  -15.1220   19.5920 O   0  0  0  0  0  0  0  0  0  0  0  0
  -30.4610  -16.3200   20.0590 N   0  0  0  0  0  0  0  0  0  0  0  0
  -29.4770  -16.2500   20.2660 H   0  0  0  0  0  0  0  0  0  0  0  0
  -25.8480  -14.1300   20.4030 C   0  0  0  0  0  0  0  0  0  0  0  0
  -24.7750  -13.3780   20.7880 C   0  0  0  0  0  0  0  0  0  0  0  0
  -25.1820  -12.0140   20.6640 C   0  0  0  0  0  0  0  0  0  0  0  0
  -26.8420  -13.2290   20.0650 N   0  0  0  0  0  0  0  0  0  0  0  0
  -26.4530  -11.9460   20.2880 N   0  0  0  0  0  0  0  0  0  0  0  0
  -24.4150  -10.7720   20.8280 C   0  0  0  0  0  0  0  0  0  0  0  0
  -24.8120   -9.7750   21.7460 C   0  0  0  0  0  3  0  0  0  0  0  0
  -24.0470   -8.5980   21.9000 C   0  0  0  0  0  3  0  0  0  0  0  0
  -22.8720   -8.4100   21.1350 C   0  0  0  0  0  0  0  0  0  0  0  0
  -22.4940   -9.3960   20.2060 C   0  0  0  0  0  3  0  0  0  0  0  0
  -23.2580  -10.5640   20.0500 C   0  0  0  0  0  3  0  0  0  0  0  0
  -22.0820   -7.2890   21.1970 O   0  0  0  0  0  0  0  0  0  0  0  0
  -21.9120   -6.5930   22.3660 C   0  0  0  0  0  0  0  0  0  0  0  0
  -21.3680   -7.1970   23.5220 C   0  0  0  0  0  3  0  0  0  0  0  0
  -21.1460   -6.4270   24.6810 C   0  0  0  0  0  3  0  0  0  0  0  0
  -21.4570   -5.0540   24.6850 C   0  0  0  0  0  0  0  0  0  0  0  0
  -21.9940   -4.4500   23.5350 C   0  0  0  0  0  3  0  0  0  0  0  0
  -22.2180   -5.2160   22.3790 C   0  0  0  0  0  0  0  0  0  0  0  0
  -22.7150   -4.6250   21.2660 F   0  0  0  0  0  0  0  0  0  0  0  0
  -21.2370   -4.3130   25.7960 F   0  0  0  0  0  0  0  0  0  0  0  0
  -23.4130  -13.8920   21.1530 C   0  0  0  0  0  0  0  0  0  0  0  0
  -22.7110  -13.1920   22.0360 N   0  0  0  0  0  0  0  0  0  0  0  0
  -22.9840  -14.9500   20.6910 O   0  0  0  0  0  0  0  0  0  0  0  0
  -23.0740  -12.3350   22.4280 H   0  0  0  0  0  0  0  0  0  0  0  0
  -21.8000  -13.5160   22.3240 H   0  0  0  0  0  0  0  0  0  0  0  0
  -26.0550  -15.5030   20.2860 N   0  0  0  0  0  0  0  0  0  0  0  0
  -25.3100  -16.1710   20.4570 H   0  0  0  0  0  0  0  0  0  0  0  0
  -26.8910  -15.9300   19.9100 H   0  0  0  0  0  0  0  0  0  0  0  0
  -28.7340  -24.9800   19.7290 C   0  0  0  0  0  2  0  0  0  0  0  0
  -28.7720  -26.4610   20.1630 O   0  0  0  0  0  0  0  0  0  0  0  0
  -24.7360  -31.7100   23.2800 C   0  0  0  0  0  0  0  0  0  0  0  0
  -27.6540  -27.3540   20.0760 C   0  0  0  0  0  0  0  0  0  0  0  0
  -23.6630  -30.3540   21.5250 C   0  0  0  0  0  3  0  0  0  0  0  0
  -25.2340  -28.9480   20.0600 C   0  0  0  0  0  0  0  0  0  0  0  0
  -26.1990  -30.7670   21.4640 C   0  0  0  0  0  2  0  0  0  0  0  0
  -26.3640  -29.4250   20.7370 C   0  0  0  0  0  0  0  0  0  0  0  0
  -27.5710  -28.6380   20.7380 C   0  0  0  0  0  3  0  0  0  0  0  0
  -26.5060  -26.9830   19.3420 C   0  0  0  0  0  3  0  0  0  0  0  0
  -25.3160  -27.7410   19.3490 C   0  0  0  0  0  3  0  0  0  0  0  0
  -23.9590  -29.7710   20.1170 C   0  0  0  0  0  2  0  0  0  0  0  0
  -24.8830  -30.9630   22.1460 N   0  0  0  0  0  0  0  0  0  0  0  0
  -23.6210  -31.9070   23.7870 O   0  0  0  0  0  0  0  0  0  0  0  0
  -23.0150  -29.2560   22.4060 C   0  0  0  0  0  0  0  0  0  0  0  0
  -21.6970  -29.0420   22.2430 N   0  0  0  0  0  0  0  0  0  0  0  0
  -23.7000  -28.6030   23.1960 O   0  0  0  0  0  0  0  0  0  0  0  0
  -21.2030  -29.6240   21.5820 H   0  0  0  0  0  0  0  0  0  0  0  0
  -18.3520  -27.7060   22.6250 C   0  0  0  0  0  0  0  0  0  0  0  0
  -20.9000  -28.0270   22.9370 C   0  0  0  0  0  3  0  0  0  0  0  0
  -21.0510  -26.6450   22.2610 C   0  0  0  0  0  2  0  0  0  0  0  0
  -19.9660  -26.3610   21.2170 C   0  0  0  0  0  2  0  0  0  0  0  0
  -18.5750  -26.4160   21.8550 C   0  0  0  0  0  2  0  0  0  0  0  0
  -19.4430  -28.4700   23.1190 C   0  0  0  0  0  0  0  0  0  0  0  0
  -19.1780  -29.6770   23.8020 C   0  0  0  0  0  3  0  0  0  0  0  0
  -17.8560  -30.1220   23.9920 C   0  0  0  0  0  3  0  0  0  0  0  0
  -16.7810  -29.3550   23.5130 C   0  0  0  0  0  3  0  0  0  0  0  0
  -17.0290  -28.1480   22.8350 C   0  0  0  0  0  3  0  0  0  0  0  0
  -25.9610  -32.3720   23.9840 C   0  0  0  0  0  3  0  0  0  0  0  0
  -25.6020  -33.7640   24.2900 N   0  0  0  0  0  0  0  0  0  0  0  0
  -25.9210  -34.8200   23.5300 C   0  0  0  0  0  0  0  0  0  0  0  0
  -26.6160  -34.7250   22.5150 O   0  0  0  0  0  0  0  0  0  0  0  0
  -24.9890  -33.9100   25.0790 H   0  0  0  0  0  0  0  0  0  0  0  0
  -24.1370  -36.5460   23.1330 C   0  0  0  0  0  1  0  0  0  0  0  0
  -25.3850  -36.2000   23.9620 C   0  0  0  0  0  3  0  0  0  0  0  0
  -27.4760  -37.1770   24.7980 C   0  0  0  0  0  1  0  0  0  0  0  0
  -26.3830  -37.2840   23.8350 N   0  0  0  0  0  0  0  0  0  0  0  0
  -25.9460  -38.1940   23.9460 H   0  0  0  0  0  0  0  0  0  0  0  0
  -26.4020  -31.6140   25.2970 C   0  0  1  0  0  0  0  0  0  0  0  0
  -25.2430  -31.3630   26.2890 C   0  0  0  0  0  1  0  0  0  0  0  0
  -27.0360  -30.2460   24.9570 C   0  0  0  0  0  1  0  0  0  0  0  0
  -27.4950  -32.4310   26.0250 C   0  0  0  0  0  1  0  0  0  0  0  0
  1  3  1  0
  2  1  2  0
  2  5  1  0
  3  9  1  0
  3  4  2  0
  4  6  1  0
  4  7  1  0
  5  6  2  0
  6 10  1  0
  8  7  1  0
  9 50  1  0
  9  8  1  0
 11  5  1  0
 11 20  1  0
 12 18  1  0
 12 20  1  0
 13 18  1  0
 14 15  1  0
 14 13  1  0
 16 15  1  0
 16 25  1  0
 16 17  1  0
 18 17  1  0
 19 12  2  0
 20 21  1  0
 22 23  2  0
 23 42  1  0
 24 23  1  0
 24 27  1  0
 25 26  1  0
 25 22  1  0
 26 24  2  0
 27 28  1  0
 28 29  2  0
 30 33  1  0
 30 29  1  0
 31 30  2  0
 32 31  1  0
 32 27  2  0
 33 34  1  0
 34 39  2  0
 34 35  1  0
 35 36  2  0
 36 37  1  0
 37 41  1  0
 38 37  2  0
 39 38  1  0
 40 39  1  0
 42 43  1  0
 43 46  1  0
 43 45  1  0
 44 42  2  0
 47 22  1  0
 47 48  1  0
 49 47  1  0
 50 51  1  0
 52 63  2  0
 53 51  1  0
 53 58  1  0
 54 62  1  0
 54 64  1  0
 55 61  1  0
 55 57  1  0
 56 62  1  0
 57 58  2  0
 57 56  1  0
 59 60  1  0
 59 53  2  0
 60 55  2  0
 61 54  1  0
 62 52  1  0
 64 66  2  0
 65 64  1  0
 67 65  1  0
 68 77  2  0
 68 73  1  0
 69 65  1  0
 69 73  1  0
 70 69  1  0
 71 72  1  0
 71 70  1  0
 72 68  1  0
 73 74  2  0
 74 75  1  0
 76 75  2  0
 77 76  1  0
 78 52  1  0
 78 79  1  0
 78 88  1  0
 79 82  1  0
 80 84  1  0
 80 79  1  0
 81 80  2  0
 84 83  1  0
 86 87  1  0
 86 84  1  0
 86 85  1  0
 88 91  1  1
 88 89  1  0
 90 88  1  0
M  ISO  4  12 100  20 100  50 101  51 101
M  END
>  <TORSDO>  (63) 
F 18

>  <SCORE>  (63) 
-13.483

>  <name>  (63) 
66

>  <ligand_id>  (63) 
66

>  <original_smiles>  (63) 
[H]c1c([H])c([H])c2c(c1[H])C([H])([H])C([H])([H])C([H])([H])C2([H])N([H])C(=O)C1([H])N(C(=O)C([H])(N([H])C(=O)C([H])(N([H])C([H])([H])[H])C([H])([H])[H])C(C([H])([H])[H])(C([H])([H])[H])C([H])([H])[H])C([H])([H])c2c([H])c(OC([H])([H])C3([H])c4c([H])c([H])c(C([H])([H])N([H])C(=O)N5C([H])([H])C([H])([H])C([H])([H])C([H])(n6nc(-c7c([H])c([H])c(Oc8c([H])c([H])c(F)c([H])c8F)c([H])c7[H])c(C(=O)N([H])[H])c6N([H])[H])C5([H])[H])c(C([H])([H])[H])c4C([H])([H])C3([H])[H])c([H])c([H])c2C1([H])[H]

>  <smiles>  (63) 
[H]c1c([H])c([H])c2c(c1[H])C([H])([H])C([H])([H])C([H])([H])C2([H])N([H])C(=O)C1([H])N(C(=O)C([H])(N([H])C(=O)C([H])(N([H])C([H])([H])[H])C([H])([H])[H])C(C([H])([H])[H])(C([H])([H])[H])C([H])([H])[H])C([H])([H])c2c([H])c(OC([H])([H])C3([H])c4c([H])c([H])c(C([H])([H])N([H])C(=O)N5C([H])([H])C([H])([H])C([H])([H])C([H])(n6nc(-c7c([H])c([H])c(Oc8c([H])c([H])c(F)c([H])c8F)c([H])c7[H])c(C(=O)N([H])[H])c6N([H])[H])C5([H])[H])c(C([H])([H])[H])c4C([H])([H])C3([H])[H])c([H])c([H])c2C1([H])[H]

$$$$
67:0:0
     RDKit          3D

 97107  0  0  1  0  0  0  0  0999 V2000
  -29.0310  -20.8510   18.6710 C   0  0  0  0  0  2  0  0  0  0  0  0
  -29.3700  -20.5330   22.4330 C   0  0  0  0  0  2  0  0  0  0  0  0
  -30.2760  -18.0740   22.4060 C   0  0  0  0  0  2  0  0  0  0  0  0
  -28.9600  -22.3960   18.5890 C   0  0  0  0  0  2  0  0  0  0  0  0
  -29.7180  -22.7100   20.9670 C   0  0  0  0  0  2  0  0  0  0  0  0
  -29.5280  -20.3610   20.0400 C   0  0  0  0  0  3  0  0  0  0  0  0
  -29.1360  -19.0450   22.0570 C   0  0  0  0  0  3  0  0  0  0  0  0
  -29.0730  -21.3120   21.1390 C   0  0  0  0  0  3  0  0  0  0  0  0
  -29.0290  -18.9880   20.5220 C   0  0  0  0  0  3  0  0  0  0  0  0
  -30.2850  -17.0770   21.2370 C   0  0  0  0  0  3  0  0  0  0  0  0
  -29.8760  -17.8740   20.0620 N   0  0  0  0  0  4  0  0  0  0  0  0
  -29.8970  -23.0910   19.5290 N   0  0  2  0  0  4  0  0  0  0  0  0
  -30.6920  -18.2620   19.6230 H   0  0  0  0  0  0  0  0  0  0  0  0
  -29.3860  -17.3040   19.3900 H   0  0  0  0  0  0  0  0  0  0  0  0
  -30.8090  -22.7230   19.2930 H   0  0  0  0  0  0  0  0  0  0  0  0
  -31.6250  -16.3180   21.0410 C   0  0  0  0  0  2  0  0  0  0  0  0
  -32.2960  -14.5220   19.4500 C   0  0  0  0  0  0  0  0  0  0  0  0
  -31.5760  -12.3790   18.4840 C   0  0  0  0  0  2  0  0  0  0  0  0
  -30.5030  -12.6510   17.4100 C   0  0  0  0  0  2  0  0  0  0  0  0
  -29.0990  -12.7310   18.0420 C   0  0  0  0  0  2  0  0  0  0  0  0
  -29.0520  -13.6610   19.2840 C   0  0  0  0  0  3  0  0  0  0  0  0
  -30.2150  -13.3410   20.2480 C   0  0  0  0  0  2  0  0  0  0  0  0
  -31.4690  -13.4460   19.4900 N   0  0  0  0  0  0  0  0  0  0  0  0
  -33.3620  -14.5370   18.8360 O   0  0  0  0  0  0  0  0  0  0  0  0
  -31.7220  -15.7010   19.7140 N   0  0  0  0  0  0  0  0  0  0  0  0
  -32.1220  -16.3540   19.0570 H   0  0  0  0  0  0  0  0  0  0  0  0
  -26.9970  -14.6090   20.5060 C   0  0  0  0  0  0  0  0  0  0  0  0
  -25.8480  -14.0160   20.9560 C   0  0  0  0  0  0  0  0  0  0  0  0
  -25.9670  -12.6280   20.6350 C   0  0  0  0  0  0  0  0  0  0  0  0
  -27.7580  -13.5890   19.9560 N   0  0  0  0  0  0  0  0  0  0  0  0
  -27.1500  -12.3830   20.0890 N   0  0  0  0  0  0  0  0  0  0  0  0
  -25.0000  -11.5300   20.7620 C   0  0  0  0  0  0  0  0  0  0  0  0
  -25.2880  -10.3810   21.5300 C   0  0  0  0  0  3  0  0  0  0  0  0
  -24.3380   -9.3440   21.6510 C   0  0  0  0  0  3  0  0  0  0  0  0
  -23.0820   -9.4530   21.0070 C   0  0  0  0  0  0  0  0  0  0  0  0
  -22.8100  -10.5880   20.2240 C   0  0  0  0  0  3  0  0  0  0  0  0
  -23.7590  -11.6170   20.1000 C   0  0  0  0  0  3  0  0  0  0  0  0
  -22.1080   -8.4850   21.0480 O   0  0  0  0  0  0  0  0  0  0  0  0
  -21.9410   -7.6800   22.1470 C   0  0  0  0  0  0  0  0  0  0  0  0
  -21.7670   -8.2140   23.4420 C   0  0  0  0  0  3  0  0  0  0  0  0
  -21.5290   -7.3520   24.5320 C   0  0  0  0  0  3  0  0  0  0  0  0
  -21.4540   -5.9610   24.3280 C   0  0  0  0  0  0  0  0  0  0  0  0
  -21.6220   -5.4290   23.0380 C   0  0  0  0  0  3  0  0  0  0  0  0
  -21.8610   -6.2870   21.9500 C   0  0  0  0  0  0  0  0  0  0  0  0
  -22.0000   -5.7700   20.7050 F   0  0  0  0  0  0  0  0  0  0  0  0
  -21.2190   -5.1340   25.3730 F   0  0  0  0  0  0  0  0  0  0  0  0
  -24.6560  -14.7110   21.5490 C   0  0  0  0  0  0  0  0  0  0  0  0
  -23.9410  -14.0430   22.4470 N   0  0  0  0  0  0  0  0  0  0  0  0
  -24.3790  -15.8710   21.2480 O   0  0  0  0  0  0  0  0  0  0  0  0
  -24.1830  -13.0970   22.7070 H   0  0  0  0  0  0  0  0  0  0  0  0
  -23.1450  -14.4830   22.8860 H   0  0  0  0  0  0  0  0  0  0  0  0
  -27.4450  -15.9250   20.4830 N   0  0  0  0  0  0  0  0  0  0  0  0
  -26.7470  -16.6350   20.6820 H   0  0  0  0  0  0  0  0  0  0  0  0
  -28.0320  -16.1840   19.7030 H   0  0  0  0  0  0  0  0  0  0  0  0
  -30.0210  -24.5650   19.3050 C   0  0  0  0  0  2  0  0  0  0  0  0
  -28.6570  -25.2760   19.2340 C   0  0  0  0  0  2  0  0  0  0  0  0
  -28.7080  -26.7030   19.3260 O   0  0  0  0  0  0  0  0  0  0  0  0
  -24.4770  -31.2280   22.7950 C   0  0  0  0  0  0  0  0  0  0  0  0
  -27.4720  -27.3210   19.3480 C   0  0  0  0  0  0  0  0  0  0  0  0
  -23.3790  -29.8440   21.0670 C   0  0  0  0  0  3  0  0  0  0  0  0
  -24.9420  -28.5800   19.5050 C   0  0  0  0  0  0  0  0  0  0  0  0
  -25.8520  -30.4660   20.8620 C   0  0  0  0  0  2  0  0  0  0  0  0
  -26.0580  -29.1650   20.1160 C   0  0  0  0  0  0  0  0  0  0  0  0
  -27.3250  -28.5450   20.0380 C   0  0  0  0  0  3  0  0  0  0  0  0
  -26.3330  -26.7570   18.7200 C   0  0  0  0  0  3  0  0  0  0  0  0
  -25.0750  -27.3730   18.8030 C   0  0  0  0  0  3  0  0  0  0  0  0
  -23.6220  -29.3020   19.6350 C   0  0  0  0  0  2  0  0  0  0  0  0
  -24.5870  -30.5240   21.6340 N   0  0  0  0  0  0  0  0  0  0  0  0
  -23.3850  -31.3510   23.3680 O   0  0  0  0  0  0  0  0  0  0  0  0
  -22.8520  -28.6870   21.9490 C   0  0  0  0  0  0  0  0  0  0  0  0
  -21.5360  -28.4290   21.8700 N   0  0  0  0  0  0  0  0  0  0  0  0
  -23.6210  -28.0320   22.6570 O   0  0  0  0  0  0  0  0  0  0  0  0
  -20.9730  -29.0140   21.2690 H   0  0  0  0  0  0  0  0  0  0  0  0
  -18.2770  -26.9700   22.4160 C   0  0  0  0  0  0  0  0  0  0  0  0
  -20.8240  -27.3720   22.5870 C   0  0  0  0  0  3  0  0  0  0  0  0
  -20.9810  -26.0070   21.8750 C   0  0  0  0  0  2  0  0  0  0  0  0
  -19.8500  -25.7040   20.8870 C   0  0  0  0  0  2  0  0  0  0  0  0
  -18.4990  -25.7010   21.6090 C   0  0  0  0  0  2  0  0  0  0  0  0
  -19.3680  -27.7620   22.8600 C   0  0  0  0  0  0  0  0  0  0  0  0
  -19.1050  -28.9520   23.5750 C   0  0  0  0  0  3  0  0  0  0  0  0
  -17.7820  -29.3480   23.8510 C   0  0  0  0  0  3  0  0  0  0  0  0
  -16.7070  -28.5530   23.4210 C   0  0  0  0  0  3  0  0  0  0  0  0
  -16.9550  -27.3650   22.7060 C   0  0  0  0  0  3  0  0  0  0  0  0
  -25.7090  -31.9320   23.4440 C   0  0  0  0  0  3  0  0  0  0  0  0
  -26.3350  -31.1120   24.6370 C   0  0  1  0  0  0  0  0  0  0  0  0
  -25.3050  -30.6920   25.7120 C   0  0  0  0  0  1  0  0  0  0  0  0
  -27.0200  -29.8280   24.1120 C   0  0  0  0  0  1  0  0  0  0  0  0
  -27.4350  -31.9510   25.3300 C   0  0  0  0  0  1  0  0  0  0  0  0
  -25.2700  -33.2600   23.8970 N   0  0  0  0  0  0  0  0  0  0  0  0
  -25.5870  -34.4110   23.2910 C   0  0  0  0  0  0  0  0  0  0  0  0
  -26.3470  -34.4720   22.3210 O   0  0  0  0  0  0  0  0  0  0  0  0
  -24.6010  -33.2820   24.6530 H   0  0  0  0  0  0  0  0  0  0  0  0
  -23.7750  -36.1250   22.9610 C   0  0  0  0  0  1  0  0  0  0  0  0
  -24.9580  -35.7020   23.8490 C   0  0  0  0  0  3  0  0  0  0  0  0
  -26.9260  -36.6110   25.0020 C   0  0  0  0  0  1  0  0  0  0  0  0
  -25.9180  -36.8220   23.9660 N   0  0  0  0  0  0  0  0  0  0  0  0
  -25.4330  -37.6930   24.1670 H   0  0  0  0  0  0  0  0  0  0  0  0
  4  1  1  0
  4 12  1  0
  6  1  1  0
  6  9  1  0
  6  8  1  0
  7  3  1  0
  7  2  1  0
  8  5  1  0
  8  2  1  0
  9 11  1  0
  9  7  1  0
 10 16  1  0
 10  3  1  0
 11 10  1  0
 12  5  1  0
 13 11  1  0
 14 11  1  0
 12 15  1  6
 17 23  1  0
 17 25  1  0
 18 23  1  0
 19 20  1  0
 19 18  1  0
 21 20  1  0
 21 30  1  0
 21 22  1  0
 23 22  1  0
 24 17  2  0
 25 16  1  0
 26 25  1  0
 27 28  2  0
 28 47  1  0
 29 32  1  0
 29 28  1  0
 30 31  1  0
 30 27  1  0
 31 29  2  0
 32 33  1  0
 33 34  2  0
 35 38  1  0
 35 34  1  0
 36 35  2  0
 37 36  1  0
 37 32  2  0
 38 39  1  0
 39 40  1  0
 40 41  2  0
 42 41  1  0
 42 46  1  0
 43 42  2  0
 44 39  2  0
 44 43  1  0
 45 44  1  0
 47 48  1  0
 48 50  1  0
 48 51  1  0
 49 47  2  0
 52 27  1  0
 52 53  1  0
 54 52  1  0
 55 12  1  0
 56 55  1  0
 56 57  1  0
 57 59  1  0
 58 69  2  0
 59 64  1  0
 60 68  1  0
 60 70  1  0
 61 67  1  0
 61 63  1  0
 62 68  1  0
 63 62  1  0
 64 63  2  0
 65 66  1  0
 65 59  2  0
 66 61  2  0
 67 60  1  0
 68 58  1  0
 70 72  2  0
 71 70  1  0
 73 71  1  0
 74 83  2  0
 74 79  1  0
 75 71  1  0
 75 79  1  0
 76 75  1  0
 77 78  1  0
 77 76  1  0
 78 74  1  0
 79 80  2  0
 80 81  1  0
 82 81  2  0
 83 82  1  0
 84 58  1  0
 84 89  1  0
 84 85  1  0
 85 88  1  1
 85 86  1  0
 87 85  1  0
 89 92  1  0
 90 94  1  0
 90 89  1  0
 91 90  2  0
 94 93  1  0
 94 96  1  0
 96 97  1  0
 96 95  1  0
M  ISO  4  17 100  25 100  56 101  57 101
M  END
>  <TORSDO>  (64) 
F 19

>  <SCORE>  (64) 
-7.015

>  <name>  (64) 
67

>  <ligand_id>  (64) 
67

>  <original_smiles>  (64) 
[H]c1c([H])c([H])c2c(c1[H])C([H])([H])C([H])([H])C([H])([H])C2([H])N([H])C(=O)C1([H])N(C(=O)C([H])(N([H])C(=O)C([H])(N([H])C([H])([H])[H])C([H])([H])[H])C(C([H])([H])[H])(C([H])([H])[H])C([H])([H])[H])C([H])([H])c2c([H])c(OC([H])([H])C([H])([H])[N+]3([H])C([H])([H])C([H])([H])C4([H])C([H])(C([H])([H])C5([H])C([H])([H])C([H])(C([H])([H])N([H])C(=O)N6C([H])([H])C([H])([H])C([H])([H])C([H])(n7nc(-c8c([H])c([H])c(Oc9c([H])c([H])c(F)c([H])c9F)c([H])c8[H])c(C(=O)N([H])[H])c7N([H])[H])C6([H])[H])[N+]([H])([H])C54[H])C3([H])[H])c([H])c([H])c2C1([H])[H]

>  <smiles>  (64) 
[H]c1c([H])c([H])c2c(c1[H])C([H])([H])C([H])([H])C([H])([H])C2([H])N([H])C(=O)C1([H])N(C(=O)C([H])(N([H])C(=O)C([H])(N([H])C([H])([H])[H])C([H])([H])[H])C(C([H])([H])[H])(C([H])([H])[H])C([H])([H])[H])C([H])([H])c2c([H])c(OC([H])([H])C([H])([H])[N+]3([H])C([H])([H])C([H])([H])C4([H])C([H])(C([H])([H])C5([H])C([H])([H])C([H])(C([H])([H])N([H])C(=O)N6C([H])([H])C([H])([H])C([H])([H])C([H])(n7nc(-c8c([H])c([H])c(Oc9c([H])c([H])c(F)c([H])c9F)c([H])c8[H])c(C(=O)N([H])[H])c7N([H])[H])C6([H])[H])[N+]([H])([H])C54[H])C3([H])[H])c([H])c([H])c2C1([H])[H]

$$$$
68:0:0
     RDKit          3D

 92101  0  0  1  0  0  0  0  0999 V2000
  -29.4990  -18.9040   19.3020 C   0  0  0  0  0  2  0  0  0  0  0  0
  -29.7550  -19.6860   21.6320 C   0  0  0  0  0  2  0  0  0  0  0  0
  -27.5040  -20.2390   20.3780 C   0  0  0  0  0  2  0  0  0  0  0  0
  -29.6730  -18.3850   20.7620 C   0  0  0  0  0  3  0  0  0  0  0  0
  -28.5380  -20.1420   19.2470 C   0  0  0  0  0  3  0  0  0  0  0  0
  -28.7320  -20.7670   21.1440 C   0  0  0  0  0  3  0  0  0  0  0  0
  -29.1360  -21.3800   19.8460 N   0  0  2  0  0  4  0  0  0  0  0  0
  -30.1370  -21.4250   19.7150 H   0  0  0  0  0  0  0  0  0  0  0  0
  -31.4160  -17.3270   22.3860 C   0  0  0  0  0  1  0  0  0  0  0  0
  -30.7780  -17.2670   20.9830 C   0  0  0  0  0  3  0  0  0  0  0  0
  -30.9740  -14.8050   20.2900 C   0  0  0  0  0  0  0  0  0  0  0  0
  -30.6780  -12.5710   19.2600 C   0  0  0  0  0  2  0  0  0  0  0  0
  -29.7350  -12.6860   18.0440 C   0  0  0  0  0  2  0  0  0  0  0  0
  -28.2640  -12.5640   18.4840 C   0  0  0  0  0  2  0  0  0  0  0  0
  -27.9230  -13.4790   19.6910 C   0  0  0  0  0  3  0  0  0  0  0  0
  -28.9790  -13.3400   20.8110 C   0  0  0  0  0  2  0  0  0  0  0  0
  -30.2970  -13.6210   20.2200 N   0  0  0  0  0  0  0  0  0  0  0  0
  -32.1130  -14.9350   19.8340 O   0  0  0  0  0  0  0  0  0  0  0  0
  -30.2850  -15.8730   20.7680 N   0  0  0  0  0  0  0  0  0  0  0  0
  -29.3440  -15.6760   21.0750 H   0  0  0  0  0  0  0  0  0  0  0  0
  -25.5520  -14.1410   20.4300 C   0  0  0  0  0  0  0  0  0  0  0  0
  -24.4690  -13.3940   20.8120 C   0  0  0  0  0  0  0  0  0  0  0  0
  -24.8980  -12.0310   20.7750 C   0  0  0  0  0  0  0  0  0  0  0  0
  -26.5720  -13.2340   20.1880 N   0  0  0  0  0  0  0  0  0  0  0  0
  -26.1830  -11.9600   20.4550 N   0  0  0  0  0  0  0  0  0  0  0  0
  -24.1430  -10.7870   20.9720 C   0  0  0  0  0  0  0  0  0  0  0  0
  -24.5480   -9.8170   21.9160 C   0  0  0  0  0  3  0  0  0  0  0  0
  -23.7940   -8.6370   22.1000 C   0  0  0  0  0  3  0  0  0  0  0  0
  -22.6210   -8.4210   21.3400 C   0  0  0  0  0  0  0  0  0  0  0  0
  -22.2340   -9.3780   20.3870 C   0  0  0  0  0  3  0  0  0  0  0  0
  -22.9870  -10.5490   20.2010 C   0  0  0  0  0  3  0  0  0  0  0  0
  -21.8400   -7.2930   21.4320 O   0  0  0  0  0  0  0  0  0  0  0  0
  -21.7480   -6.5760   22.5980 C   0  0  0  0  0  0  0  0  0  0  0  0
  -21.2790   -7.1580   23.7960 C   0  0  0  0  0  3  0  0  0  0  0  0
  -21.1330   -6.3680   24.9540 C   0  0  0  0  0  3  0  0  0  0  0  0
  -21.4460   -4.9960   24.9150 C   0  0  0  0  0  0  0  0  0  0  0  0
  -21.9080   -4.4130   23.7210 C   0  0  0  0  0  3  0  0  0  0  0  0
  -22.0560   -5.2000   22.5660 C   0  0  0  0  0  0  0  0  0  0  0  0
  -22.4800   -4.6290   21.4130 F   0  0  0  0  0  0  0  0  0  0  0  0
  -21.2990   -4.2350   26.0240 F   0  0  0  0  0  0  0  0  0  0  0  0
  -23.0860  -13.9060   21.0980 C   0  0  0  0  0  0  0  0  0  0  0  0
  -22.3520  -13.2300   21.9750 N   0  0  0  0  0  0  0  0  0  0  0  0
  -22.6670  -14.9380   20.5780 O   0  0  0  0  0  0  0  0  0  0  0  0
  -22.7030  -12.3940   22.4170 H   0  0  0  0  0  0  0  0  0  0  0  0
  -21.4260  -13.5570   22.2090 H   0  0  0  0  0  0  0  0  0  0  0  0
  -25.7490  -15.5070   20.2500 N   0  0  0  0  0  0  0  0  0  0  0  0
  -25.0000  -16.1810   20.3700 H   0  0  0  0  0  0  0  0  0  0  0  0
  -26.6000  -15.9230   19.8930 H   0  0  0  0  0  0  0  0  0  0  0  0
  -28.4710  -22.6970   19.4620 C   0  0  0  0  0  2  0  0  0  0  0  0
  -29.2480  -24.0680   19.5900 C   0  0  0  0  0  2  0  0  0  0  0  0
  -28.2690  -25.2460   19.2330 C   0  0  0  0  0  2  0  0  0  0  0  0
  -28.5290  -26.6660   19.5160 O   0  0  0  0  0  0  0  0  0  0  0  0
  -24.5960  -31.5550   23.0220 C   0  0  0  0  0  0  0  0  0  0  0  0
  -27.3870  -27.4790   19.5200 C   0  0  0  0  0  0  0  0  0  0  0  0
  -23.4430  -30.2640   21.2650 C   0  0  0  0  0  3  0  0  0  0  0  0
  -24.9500  -28.9560   19.6780 C   0  0  0  0  0  0  0  0  0  0  0  0
  -25.9610  -30.7380   21.0970 C   0  0  0  0  0  2  0  0  0  0  0  0
  -26.1010  -29.4400   20.3160 C   0  0  0  0  0  0  0  0  0  0  0  0
  -27.3230  -28.7140   20.2290 C   0  0  0  0  0  3  0  0  0  0  0  0
  -26.2110  -27.0610   18.8500 C   0  0  0  0  0  3  0  0  0  0  0  0
  -25.0070  -27.7720   18.9360 C   0  0  0  0  0  3  0  0  0  0  0  0
  -23.6720  -29.7520   19.8210 C   0  0  0  0  0  2  0  0  0  0  0  0
  -24.6850  -30.8630   21.8530 N   0  0  0  0  0  0  0  0  0  0  0  0
  -23.5070  -31.7240   23.5890 O   0  0  0  0  0  0  0  0  0  0  0  0
  -22.8490  -29.1200   22.1190 C   0  0  0  0  0  0  0  0  0  0  0  0
  -21.5340  -28.8770   21.9730 N   0  0  0  0  0  0  0  0  0  0  0  0
  -23.5670  -28.4640   22.8780 O   0  0  0  0  0  0  0  0  0  0  0  0
  -21.0150  -29.4600   21.3340 H   0  0  0  0  0  0  0  0  0  0  0  0
  -18.2360  -27.4450   22.3430 C   0  0  0  0  0  0  0  0  0  0  0  0
  -20.7730  -27.8290   22.6530 C   0  0  0  0  0  3  0  0  0  0  0  0
  -20.9620  -26.4600   21.9570 C   0  0  0  0  0  2  0  0  0  0  0  0
  -19.8830  -26.1560   20.9110 C   0  0  0  0  0  2  0  0  0  0  0  0
  -18.4930  -26.1710   21.5550 C   0  0  0  0  0  2  0  0  0  0  0  0
  -19.3050  -28.2310   22.8450 C   0  0  0  0  0  0  0  0  0  0  0  0
  -19.0080  -29.4240   23.5420 C   0  0  0  0  0  3  0  0  0  0  0  0
  -17.6740  -29.8300   23.7390 C   0  0  0  0  0  3  0  0  0  0  0  0
  -16.6210  -29.0400   23.2510 C   0  0  0  0  0  3  0  0  0  0  0  0
  -16.9010  -27.8480   22.5590 C   0  0  0  0  0  3  0  0  0  0  0  0
  -25.8550  -32.1870   23.6940 C   0  0  0  0  0  3  0  0  0  0  0  0
  -26.3730  -31.3660   24.9370 C   0  0  1  0  0  0  0  0  0  0  0  0
  -25.2740  -31.0510   25.9790 C   0  0  0  0  0  1  0  0  0  0  0  0
  -26.9920  -30.0230   24.4860 C   0  0  0  0  0  1  0  0  0  0  0  0
  -27.4980  -32.1530   25.6500 C   0  0  0  0  0  1  0  0  0  0  0  0
  -25.5020  -33.5580   24.0890 N   0  0  0  0  0  0  0  0  0  0  0  0
  -25.7860  -34.6530   23.3720 C   0  0  0  0  0  0  0  0  0  0  0  0
  -26.4440  -34.6170   22.3280 O   0  0  0  0  0  0  0  0  0  0  0  0
  -24.9090  -33.6550   24.9010 H   0  0  0  0  0  0  0  0  0  0  0  0
  -23.9760  -36.3850   23.1370 C   0  0  0  0  0  1  0  0  0  0  0  0
  -25.2560  -36.0010   23.8950 C   0  0  0  0  0  3  0  0  0  0  0  0
  -27.3740  -36.9460   24.7050 C   0  0  0  0  0  1  0  0  0  0  0  0
  -26.2420  -37.1000   23.7940 N   0  0  0  0  0  0  0  0  0  0  0  0
  -25.8020  -37.9960   23.9820 H   0  0  0  0  0  0  0  0  0  0  0  0
  1  4  1  0
  4 10  1  0
  4  2  1  0
  5  1  1  0
  5  7  1  0
  5  3  1  0
  6  3  1  0
  6  2  1  0
  7  6  1  0
  7  8  1  1
 10  9  1  0
 11 19  1  0
 12 17  1  0
 13 14  1  0
 13 12  1  0
 15 14  1  0
 15 24  1  0
 15 16  1  0
 17 11  1  0
 17 16  1  0
 18 11  2  0
 19 10  1  0
 19 20  1  0
 21 22  2  0
 22 41  1  0
 23 22  1  0
 23 26  1  0
 24 21  1  0
 24 25  1  0
 25 23  2  0
 26 27  1  0
 27 28  2  0
 29 32  1  0
 29 28  1  0
 30 29  2  0
 31 30  1  0
 31 26  2  0
 32 33  1  0
 33 34  1  0
 34 35  2  0
 36 35  1  0
 36 40  1  0
 37 36  2  0
 38 33  2  0
 38 37  1  0
 39 38  1  0
 41 42  1  0
 42 45  1  0
 42 44  1  0
 43 41  2  0
 46 47  1  0
 46 21  1  0
 48 46  1  0
 49 50  1  0
 49  7  1  0
 51 52  1  0
 51 50  1  0
 52 54  1  0
 53 64  2  0
 54 59  1  0
 55 63  1  0
 55 65  1  0
 56 62  1  0
 56 58  1  0
 57 63  1  0
 58 57  1  0
 59 58  2  0
 60 61  1  0
 60 54  2  0
 61 56  2  0
 62 55  1  0
 63 53  1  0
 65 67  2  0
 66 65  1  0
 68 66  1  0
 69 78  2  0
 69 74  1  0
 70 66  1  0
 70 74  1  0
 71 70  1  0
 72 73  1  0
 72 71  1  0
 73 69  1  0
 74 75  2  0
 75 76  1  0
 77 76  2  0
 78 77  1  0
 79 53  1  0
 79 84  1  0
 79 80  1  0
 80 83  1  1
 80 81  1  0
 82 80  1  0
 84 87  1  0
 85 89  1  0
 85 84  1  0
 86 85  2  0
 89 88  1  0
 91 89  1  0
 91 92  1  0
 91 90  1  0
M  ISO  4  11 100  19 100  51 101  52 101
M  END
>  <TORSDO>  (65) 
F 20

>  <SCORE>  (65) 
-11.784

>  <name>  (65) 
68

>  <ligand_id>  (65) 
68

>  <original_smiles>  (65) 
[H]c1c([H])c([H])c2c(c1[H])C([H])([H])C([H])([H])C([H])([H])C2([H])N([H])C(=O)C1([H])N(C(=O)C([H])(N([H])C(=O)C([H])(N([H])C([H])([H])[H])C([H])([H])[H])C(C([H])([H])[H])(C([H])([H])[H])C([H])([H])[H])C([H])([H])c2c([H])c(OC([H])([H])C([H])([H])C([H])([H])[N+]3([H])C4([H])C([H])([H])C([H])(C([H])(N([H])C(=O)N5C([H])([H])C([H])([H])C([H])([H])C([H])(n6nc(-c7c([H])c([H])c(Oc8c([H])c([H])c(F)c([H])c8F)c([H])c7[H])c(C(=O)N([H])[H])c6N([H])[H])C5([H])[H])C([H])([H])[H])C([H])([H])C3([H])C4([H])[H])c([H])c([H])c2C1([H])[H]

>  <smiles>  (65) 
[H]c1c([H])c([H])c2c(c1[H])C([H])([H])C([H])([H])C([H])([H])C2([H])N([H])C(=O)C1([H])N(C(=O)C([H])(N([H])C(=O)C([H])(N([H])C([H])([H])[H])C([H])([H])[H])C(C([H])([H])[H])(C([H])([H])[H])C([H])([H])[H])C([H])([H])c2c([H])c(OC([H])([H])C([H])([H])C([H])([H])[N+]3([H])C4([H])C([H])([H])C([H])(C([H])(N([H])C(=O)N5C([H])([H])C([H])([H])C([H])([H])C([H])(n6nc(-c7c([H])c([H])c(Oc8c([H])c([H])c(F)c([H])c8F)c([H])c7[H])c(C(=O)N([H])[H])c6N([H])[H])C5([H])[H])C([H])([H])[H])C([H])([H])C3([H])C4([H])[H])c([H])c([H])c2C1([H])[H]

$$$$
69:0:0
     RDKit          3D

 97105  0  0  1  0  0  0  0  0999 V2000
  -31.2080  -22.5110   19.5230 C   0  0  0  0  0  1  0  0  0  0  0  0
  -29.9300  -22.8900   20.3120 C   0  0  0  0  0  3  0  0  0  0  0  0
  -28.9350  -21.6470   20.3160 C   0  0  0  0  0  2  0  0  0  0  0  0
  -30.5480  -18.1800   21.4590 C   0  0  0  0  0  2  0  0  0  0  0  0
  -29.9840  -19.6510   21.5520 C   0  0  0  0  0  2  0  0  0  0  0  0
  -28.6540  -19.2780   19.5110 C   0  0  0  0  0  2  0  0  0  0  0  0
  -29.5710  -17.2220   20.7340 C   0  0  0  0  0  3  0  0  0  0  0  0
  -29.2150  -17.8140   19.3310 C   0  0  2  0  0  0  0  0  0  0  0  0
  -30.4260  -17.8140   18.3770 C   0  0  0  0  0  1  0  0  0  0  0  0
  -28.1070  -16.9780   18.6590 C   0  0  0  0  0  1  0  0  0  0  0  0
  -29.5420  -20.2420   20.2430 N   0  0  1  0  0  4  0  0  0  0  0  0
  -30.3690  -20.3340   19.6720 H   0  0  0  0  0  0  0  0  0  0  0  0
  -30.6130  -14.7500   20.5170 C   0  0  0  0  0  0  0  0  0  0  0  0
  -30.4740  -12.5510   19.3720 C   0  0  0  0  0  2  0  0  0  0  0  0
  -29.5340  -12.7180   18.1540 C   0  0  0  0  0  2  0  0  0  0  0  0
  -28.0520  -12.5580   18.5520 C   0  0  0  0  0  2  0  0  0  0  0  0
  -27.6830  -13.3640   19.8250 C   0  0  0  0  0  3  0  0  0  0  0  0
  -28.7250  -13.1300   20.9410 C   0  0  0  0  0  2  0  0  0  0  0  0
  -30.0430  -13.5110   20.4050 N   0  0  0  0  0  0  0  0  0  0  0  0
  -31.7650  -14.9760   20.1310 O   0  0  0  0  0  0  0  0  0  0  0  0
  -29.7340  -15.7270   20.8910 N   0  0  0  0  0  0  0  0  0  0  0  0
  -28.8860  -15.3030   21.2390 H   0  0  0  0  0  0  0  0  0  0  0  0
  -25.2660  -13.9590   20.4640 C   0  0  0  0  0  0  0  0  0  0  0  0
  -24.1960  -13.1820   20.8180 C   0  0  0  0  0  0  0  0  0  0  0  0
  -24.6700  -11.8350   20.8140 C   0  0  0  0  0  0  0  0  0  0  0  0
  -26.3220  -13.0840   20.2710 N   0  0  0  0  0  0  0  0  0  0  0  0
  -25.9680  -11.8020   20.5380 N   0  0  0  0  0  0  0  0  0  0  0  0
  -23.9510  -10.5680   20.9980 C   0  0  0  0  0  0  0  0  0  0  0  0
  -24.3600   -9.6240   21.9650 C   0  0  0  0  0  3  0  0  0  0  0  0
  -23.6410   -8.4220   22.1340 C   0  0  0  0  0  3  0  0  0  0  0  0
  -22.5000   -8.1550   21.3400 C   0  0  0  0  0  0  0  0  0  0  0  0
  -22.1110   -9.0890   20.3650 C   0  0  0  0  0  3  0  0  0  0  0  0
  -22.8310  -10.2840   20.1920 C   0  0  0  0  0  3  0  0  0  0  0  0
  -21.7580   -7.0020   21.4210 O   0  0  0  0  0  0  0  0  0  0  0  0
  -21.6590   -6.2880   22.5880 C   0  0  0  0  0  0  0  0  0  0  0  0
  -21.1420   -6.8610   23.7720 C   0  0  0  0  0  3  0  0  0  0  0  0
  -20.9980   -6.0720   24.9310 C   0  0  0  0  0  3  0  0  0  0  0  0
  -21.3590   -4.7120   24.9080 C   0  0  0  0  0  0  0  0  0  0  0  0
  -21.8680   -4.1390   23.7290 C   0  0  0  0  0  3  0  0  0  0  0  0
  -22.0160   -4.9260   22.5730 C   0  0  0  0  0  0  0  0  0  0  0  0
  -22.4890   -4.3650   21.4340 F   0  0  0  0  0  0  0  0  0  0  0  0
  -21.2110   -3.9510   26.0180 F   0  0  0  0  0  0  0  0  0  0  0  0
  -22.7890  -13.6500   21.0510 C   0  0  0  0  0  0  0  0  0  0  0  0
  -22.0410  -12.9530   21.9010 N   0  0  0  0  0  0  0  0  0  0  0  0
  -22.3590  -14.6700   20.5140 O   0  0  0  0  0  0  0  0  0  0  0  0
  -22.3960  -12.1270   22.3610 H   0  0  0  0  0  0  0  0  0  0  0  0
  -21.0980  -13.2550   22.0960 H   0  0  0  0  0  0  0  0  0  0  0  0
  -25.4200  -15.3300   20.2730 N   0  0  0  0  0  0  0  0  0  0  0  0
  -24.6370  -15.9710   20.3430 H   0  0  0  0  0  0  0  0  0  0  0  0
  -26.2630  -15.7700   19.9340 H   0  0  0  0  0  0  0  0  0  0  0  0
  -29.4480  -24.3560   19.8250 C   0  0  0  0  0  3  0  0  0  0  0  0
  -29.0960  -24.3880   18.3860 N   0  0  0  0  0  4  0  0  0  0  0  0
  -28.2430  -23.8960   18.1800 H   0  0  0  0  0  0  0  0  0  0  0  0
  -29.8330  -24.0170   17.8140 H   0  0  0  0  0  0  0  0  0  0  0  0
  -28.9640  -25.3450   18.1010 H   0  0  0  0  0  0  0  0  0  0  0  0
  -28.4250  -25.2360   20.6460 C   0  0  0  0  0  2  0  0  0  0  0  0
  -28.5040  -26.6760   20.3220 O   0  0  0  0  0  0  0  0  0  0  0  0
  -24.5880  -31.9570   23.2720 C   0  0  0  0  0  0  0  0  0  0  0  0
  -27.3390  -27.4470   20.2980 C   0  0  0  0  0  0  0  0  0  0  0  0
  -23.4370  -30.5300   21.6150 C   0  0  0  0  0  3  0  0  0  0  0  0
  -24.9390  -28.9920   20.2340 C   0  0  0  0  0  0  0  0  0  0  0  0
  -25.9710  -30.8950   21.4770 C   0  0  0  0  0  2  0  0  0  0  0  0
  -26.0840  -29.5140   20.8460 C   0  0  0  0  0  0  0  0  0  0  0  0
  -27.2870  -28.7540   20.8670 C   0  0  0  0  0  3  0  0  0  0  0  0
  -26.1710  -26.9660   19.6640 C   0  0  0  0  0  3  0  0  0  0  0  0
  -24.9820  -27.7200   19.6370 C   0  0  0  0  0  3  0  0  0  0  0  0
  -23.6870  -29.8440   20.2460 C   0  0  0  0  0  2  0  0  0  0  0  0
  -24.6820  -31.1450   22.1780 N   0  0  0  0  0  0  0  0  0  0  0  0
  -23.4910  -32.2200   23.7840 O   0  0  0  0  0  0  0  0  0  0  0  0
  -22.7730  -29.5100   22.5680 C   0  0  0  0  0  0  0  0  0  0  0  0
  -21.4540  -29.3060   22.4090 N   0  0  0  0  0  0  0  0  0  0  0  0
  -23.4420  -28.9040   23.4090 O   0  0  0  0  0  0  0  0  0  0  0  0
  -20.9720  -29.8490   21.7060 H   0  0  0  0  0  0  0  0  0  0  0  0
  -18.0870  -28.0560   22.8330 C   0  0  0  0  0  0  0  0  0  0  0  0
  -20.6320  -28.3610   23.1660 C   0  0  0  0  0  3  0  0  0  0  0  0
  -20.7740  -26.9260   22.6050 C   0  0  0  0  0  2  0  0  0  0  0  0
  -19.7030  -26.5760   21.5680 C   0  0  0  0  0  2  0  0  0  0  0  0
  -18.3030  -26.7030   22.1750 C   0  0  0  0  0  2  0  0  0  0  0  0
  -19.1810  -28.8410   23.2850 C   0  0  0  0  0  0  0  0  0  0  0  0
  -18.9270  -30.1050   23.8580 C   0  0  0  0  0  3  0  0  0  0  0  0
  -17.6100  -30.5850   23.9870 C   0  0  0  0  0  3  0  0  0  0  0  0
  -16.5290  -29.7970   23.5520 C   0  0  0  0  0  3  0  0  0  0  0  0
  -16.7690  -28.5350   22.9810 C   0  0  0  0  0  3  0  0  0  0  0  0
  -25.8500  -32.6110   23.9150 C   0  0  0  0  0  3  0  0  0  0  0  0
  -25.5190  -34.0100   24.2180 N   0  0  0  0  0  0  0  0  0  0  0  0
  -25.8600  -35.0550   23.4530 C   0  0  0  0  0  0  0  0  0  0  0  0
  -26.5550  -34.9450   22.4400 O   0  0  0  0  0  0  0  0  0  0  0  0
  -24.9050  -34.1690   25.0040 H   0  0  0  0  0  0  0  0  0  0  0  0
  -24.1290  -36.8310   23.0260 C   0  0  0  0  0  1  0  0  0  0  0  0
  -25.3480  -36.4450   23.8790 C   0  0  0  0  0  3  0  0  0  0  0  0
  -27.4480  -37.3600   24.7650 C   0  0  0  0  0  1  0  0  0  0  0  0
  -26.3760  -37.5050   23.7840 N   0  0  0  0  0  0  0  0  0  0  0  0
  -25.9580  -38.4240   23.9050 H   0  0  0  0  0  0  0  0  0  0  0  0
  -26.3420  -31.8630   25.2150 C   0  0  1  0  0  0  0  0  0  0  0  0
  -25.2260  -31.6260   26.2580 C   0  0  0  0  0  1  0  0  0  0  0  0
  -26.9510  -30.4870   24.8580 C   0  0  0  0  0  1  0  0  0  0  0  0
  -27.4660  -32.6800   25.8950 C   0  0  0  0  0  1  0  0  0  0  0  0
  2  1  1  0
  2  3  1  0
  4  5  1  0
  6 11  1  0
  7 21  1  0
  7  4  1  0
  8  6  1  0
  8  7  1  0
  8  9  1  6
 10  8  1  0
 11  3  1  0
 11  5  1  0
 11 12  1  6
 13 21  1  0
 14 19  1  0
 15 16  1  0
 15 14  1  0
 17 16  1  0
 17 26  1  0
 17 18  1  0
 19 13  1  0
 19 18  1  0
 20 13  2  0
 21 22  1  0
 23 24  2  0
 24 43  1  0
 25 24  1  0
 25 28  1  0
 26 23  1  0
 26 27  1  0
 27 25  2  0
 28 29  1  0
 29 30  2  0
 31 34  1  0
 31 30  1  0
 32 31  2  0
 33 32  1  0
 33 28  2  0
 34 35  1  0
 35 36  1  0
 36 37  2  0
 38 37  1  0
 38 42  1  0
 39 38  2  0
 40 35  2  0
 40 39  1  0
 41 40  1  0
 43 44  1  0
 44 47  1  0
 44 46  1  0
 45 43  2  0
 48 49  1  0
 48 23  1  0
 50 48  1  0
 51  2  1  0
 51 56  1  0
 52 51  1  0
 53 52  1  0
 54 52  1  0
 55 52  1  0
 57 56  1  0
 58 69  2  0
 59 57  1  0
 59 64  1  0
 60 68  1  0
 60 70  1  0
 61 67  1  0
 61 63  1  0
 62 68  1  0
 63 64  2  0
 63 62  1  0
 65 59  2  0
 66 65  1  0
 66 61  2  0
 67 60  1  0
 68 58  1  0
 70 72  2  0
 71 70  1  0
 73 71  1  0
 74 83  2  0
 74 79  1  0
 75 71  1  0
 75 79  1  0
 76 75  1  0
 77 78  1  0
 77 76  1  0
 78 74  1  0
 79 80  2  0
 80 81  1  0
 82 81  2  0
 83 82  1  0
 84 58  1  0
 84 85  1  0
 84 94  1  0
 85 88  1  0
 86 90  1  0
 86 85  1  0
 87 86  2  0
 90 89  1  0
 92 90  1  0
 92 93  1  0
 92 91  1  0
 94 97  1  1
 94 95  1  0
 96 94  1  0
M  ISO  4  13 100  21 100  56 101  57 101
M  END
>  <TORSDO>  (66) 
F 21

>  <SCORE>  (66) 
-13.806

>  <name>  (66) 
69

>  <ligand_id>  (66) 
69

>  <original_smiles>  (66) 
[H]c1c([H])c([H])c2c(c1[H])C([H])([H])C([H])([H])C([H])([H])C2([H])N([H])C(=O)C1([H])N(C(=O)C([H])(N([H])C(=O)C([H])(N([H])C([H])([H])[H])C([H])([H])[H])C(C([H])([H])[H])(C([H])([H])[H])C([H])([H])[H])C([H])([H])c2c([H])c(OC([H])([H])C([H])(C([H])(C([H])([H])[H])C([H])([H])[N+]3([H])C([H])([H])C([H])([H])C([H])(N([H])C(=O)N4C([H])([H])C([H])([H])C([H])([H])C([H])(n5nc(-c6c([H])c([H])c(Oc7c([H])c([H])c(F)c([H])c7F)c([H])c6[H])c(C(=O)N([H])[H])c5N([H])[H])C4([H])[H])C(C([H])([H])[H])(C([H])([H])[H])C3([H])[H])[N+]([H])([H])[H])c([H])c([H])c2C1([H])[H]

>  <smiles>  (66) 
[H]c1c([H])c([H])c2c(c1[H])C([H])([H])C([H])([H])C([H])([H])C2([H])N([H])C(=O)C1([H])N(C(=O)C([H])(N([H])C(=O)C([H])(N([H])C([H])([H])[H])C([H])([H])[H])C(C([H])([H])[H])(C([H])([H])[H])C([H])([H])[H])C([H])([H])c2c([H])c(OC([H])([H])C([H])(C([H])(C([H])([H])[H])C([H])([H])[N+]3([H])C([H])([H])C([H])([H])C([H])(N([H])C(=O)N4C([H])([H])C([H])([H])C([H])([H])C([H])(n5nc(-c6c([H])c([H])c(Oc7c([H])c([H])c(F)c([H])c7F)c([H])c6[H])c(C(=O)N([H])[H])c5N([H])[H])C4([H])[H])C(C([H])([H])[H])(C([H])([H])[H])C3([H])[H])[N+]([H])([H])[H])c([H])c([H])c2C1([H])[H]

$$$$
70:0:0
     RDKit          3D

 92100  0  0  1  0  0  0  0  0999 V2000
  -31.3330  -24.6200   21.4350 C   0  0  0  0  0  0  0  0  0  0  0  0
  -31.4070  -25.7690   20.7460 N   0  0  0  0  0  0  0  0  0  0  0  0
  -32.2450  -24.3190   22.2050 O   0  0  0  0  0  0  0  0  0  0  0  0
  -32.2490  -26.3130   20.8800 H   0  0  0  0  0  0  0  0  0  0  0  0
  -30.1480  -23.6460   21.2770 C   0  0  0  0  0  2  0  0  0  0  0  0
  -30.6690  -22.3470   20.9820 O   0  0  0  0  0  0  0  0  0  0  0  0
  -29.7880  -21.2800   21.3160 C   0  0  0  0  0  2  0  0  0  0  0  0
  -30.4930  -19.9490   20.9880 C   0  0  0  0  0  2  0  0  0  0  0  0
  -29.9890  -18.7380   21.8050 C   0  0  0  0  0  2  0  0  0  0  0  0
  -30.8060  -14.5110   19.9870 C   0  0  0  0  0  0  0  0  0  0  0  0
  -30.4870  -12.3450   18.8430 C   0  0  0  0  0  2  0  0  0  0  0  0
  -29.4930  -12.5280   17.6770 C   0  0  0  0  0  2  0  0  0  0  0  0
  -28.0360  -12.3850   18.1620 C   0  0  0  0  0  2  0  0  0  0  0  0
  -27.7420  -13.2200   19.4370 C   0  0  0  0  0  3  0  0  0  0  0  0
  -28.8430  -13.0140   20.5020 C   0  0  0  0  0  2  0  0  0  0  0  0
  -30.1400  -13.3290   19.8800 N   0  0  0  0  0  0  0  0  0  0  0  0
  -31.9080  -14.7080   19.4650 O   0  0  0  0  0  0  0  0  0  0  0  0
  -30.1320  -16.9210   19.8840 C   0  0  0  0  0  2  0  0  0  0  0  0
  -29.9820  -16.0580   21.7900 C   0  0  0  0  0  2  0  0  0  0  0  0
  -30.5240  -17.3960   21.2790 C   0  0  0  0  0  3  0  0  0  0  0  0
  -30.0520  -15.5490   20.4120 N   0  0  0  0  0  0  0  0  0  0  0  0
  -25.3580  -13.8050   20.2130 C   0  0  0  0  0  0  0  0  0  0  0  0
  -24.3210  -13.0270   20.6460 C   0  0  0  0  0  0  0  0  0  0  0  0
  -24.8060  -11.6820   20.6420 C   0  0  0  0  0  0  0  0  0  0  0  0
  -26.4130  -12.9370   19.9750 N   0  0  0  0  0  0  0  0  0  0  0  0
  -26.0850  -11.6570   20.2880 N   0  0  0  0  0  0  0  0  0  0  0  0
  -24.1110  -10.4150   20.9030 C   0  0  0  0  0  0  0  0  0  0  0  0
  -24.5280   -9.5460   21.9340 C   0  0  0  0  0  3  0  0  0  0  0  0
  -23.8350   -8.3420   22.1800 C   0  0  0  0  0  3  0  0  0  0  0  0
  -22.7100   -7.9970   21.3910 C   0  0  0  0  0  0  0  0  0  0  0  0
  -22.3140   -8.8530   20.3500 C   0  0  0  0  0  3  0  0  0  0  0  0
  -23.0090  -10.0500   20.1030 C   0  0  0  0  0  3  0  0  0  0  0  0
  -21.9930   -6.8340   21.5360 O   0  0  0  0  0  0  0  0  0  0  0  0
  -21.8350   -6.2340   22.7590 C   0  0  0  0  0  0  0  0  0  0  0  0
  -21.2230   -6.9010   23.8420 C   0  0  0  0  0  3  0  0  0  0  0  0
  -21.0150   -6.2230   25.0610 C   0  0  0  0  0  3  0  0  0  0  0  0
  -21.4100   -4.8790   25.1940 C   0  0  0  0  0  0  0  0  0  0  0  0
  -22.0130   -4.2110   24.1130 C   0  0  0  0  0  3  0  0  0  0  0  0
  -22.2200   -4.8850   22.8990 C   0  0  0  0  0  0  0  0  0  0  0  0
  -22.7830   -4.2310   21.8550 F   0  0  0  0  0  0  0  0  0  0  0  0
  -21.2030   -4.2240   26.3620 F   0  0  0  0  0  0  0  0  0  0  0  0
  -22.9240  -13.4850   20.9530 C   0  0  0  0  0  0  0  0  0  0  0  0
  -22.2570  -12.8320   21.8980 N   0  0  0  0  0  0  0  0  0  0  0  0
  -22.4300  -14.4580   20.3850 O   0  0  0  0  0  0  0  0  0  0  0  0
  -22.6750  -12.0510   22.3840 H   0  0  0  0  0  0  0  0  0  0  0  0
  -21.3220  -13.1200   22.1400 H   0  0  0  0  0  0  0  0  0  0  0  0
  -25.4900  -15.1740   19.9900 N   0  0  0  0  0  0  0  0  0  0  0  0
  -24.7190  -15.8190   20.1240 H   0  0  0  0  0  0  0  0  0  0  0  0
  -26.3370  -15.6280   19.6710 H   0  0  0  0  0  0  0  0  0  0  0  0
  -30.4530  -26.3120   19.7810 C   0  0  0  0  0  2  0  0  0  0  0  0
  -29.2630  -27.0270   20.4550 C   0  0  0  0  0  2  0  0  0  0  0  0
  -28.1530  -26.8620   19.5820 O   0  0  0  0  0  0  0  0  0  0  0  0
  -24.2750  -31.7910   23.0800 C   0  0  0  0  0  0  0  0  0  0  0  0
  -27.0050  -27.6010   19.7550 C   0  0  0  0  0  0  0  0  0  0  0  0
  -23.0840  -30.4540   21.3690 C   0  0  0  0  0  3  0  0  0  0  0  0
  -24.5610  -29.0210   19.8660 C   0  0  0  0  0  0  0  0  0  0  0  0
  -25.5980  -30.8790   21.1820 C   0  0  0  0  0  2  0  0  0  0  0  0
  -25.7080  -29.5420   20.4820 C   0  0  0  0  0  0  0  0  0  0  0  0
  -26.9290  -28.8350   20.4430 C   0  0  0  0  0  3  0  0  0  0  0  0
  -25.8410  -27.0850   19.1480 C   0  0  0  0  0  3  0  0  0  0  0  0
  -24.6180  -27.7800   19.2080 C   0  0  0  0  0  3  0  0  0  0  0  0
  -23.3010  -29.8510   19.9560 C   0  0  0  0  0  2  0  0  0  0  0  0
  -24.3360  -31.0520   21.9350 N   0  0  0  0  0  0  0  0  0  0  0  0
  -23.1930  -32.0150   23.6390 O   0  0  0  0  0  0  0  0  0  0  0  0
  -22.4600  -29.3720   22.2760 C   0  0  0  0  0  0  0  0  0  0  0  0
  -21.1490  -29.1380   22.1090 N   0  0  0  0  0  0  0  0  0  0  0  0
  -23.1530  -28.7480   23.0850 O   0  0  0  0  0  0  0  0  0  0  0  0
  -20.6520  -29.6970   21.4310 H   0  0  0  0  0  0  0  0  0  0  0  0
  -17.8290  -27.7690   22.4500 C   0  0  0  0  0  0  0  0  0  0  0  0
  -20.3570  -28.1410   22.8270 C   0  0  0  0  0  3  0  0  0  0  0  0
  -20.5540  -26.7350   22.2190 C   0  0  0  0  0  2  0  0  0  0  0  0
  -19.5080  -26.3860   21.1560 C   0  0  0  0  0  2  0  0  0  0  0  0
  -18.0960  -26.4460   21.7490 C   0  0  0  0  0  2  0  0  0  0  0  0
  -18.8920  -28.5720   22.9430 C   0  0  0  0  0  0  0  0  0  0  0  0
  -18.5900  -29.8080   23.5520 C   0  0  0  0  0  3  0  0  0  0  0  0
  -17.2550  -30.2420   23.6800 C   0  0  0  0  0  3  0  0  0  0  0  0
  -16.2060  -29.4360   23.2060 C   0  0  0  0  0  3  0  0  0  0  0  0
  -16.4930  -28.2020   22.5940 C   0  0  0  0  0  3  0  0  0  0  0  0
  -25.5560  -32.4110   23.7230 C   0  0  0  0  0  3  0  0  0  0  0  0
  -25.2450  -33.8000   24.0830 N   0  0  0  0  0  0  0  0  0  0  0  0
  -25.6140  -34.8680   23.3650 C   0  0  0  0  0  0  0  0  0  0  0  0
  -26.3210  -34.7890   22.3560 O   0  0  0  0  0  0  0  0  0  0  0  0
  -24.6220  -33.9400   24.8660 H   0  0  0  0  0  0  0  0  0  0  0  0
  -23.9190  -36.6780   22.9870 C   0  0  0  0  0  1  0  0  0  0  0  0
  -25.1180  -36.2450   23.8440 C   0  0  0  0  0  3  0  0  0  0  0  0
  -27.2140  -37.0750   24.8090 C   0  0  0  0  0  1  0  0  0  0  0  0
  -26.1650  -37.2910   23.8160 N   0  0  0  0  0  0  0  0  0  0  0  0
  -25.7610  -38.2100   23.9810 H   0  0  0  0  0  0  0  0  0  0  0  0
  -26.0720  -31.6080   24.9800 C   0  0  1  0  0  0  0  0  0  0  0  0
  -24.9660  -31.3090   26.0180 C   0  0  0  0  0  1  0  0  0  0  0  0
  -26.6920  -30.2610   24.5460 C   0  0  0  0  0  1  0  0  0  0  0  0
  -27.1930  -32.4070   25.6850 C   0  0  0  0  0  1  0  0  0  0  0  0
  1  3  2  0
  2  4  1  0
  2  1  1  0
  5  1  1  0
  6  5  1  0
  6  7  1  0
  8  7  1  0
  8  9  1  0
 10 21  1  0
 11 16  1  0
 12 13  1  0
 12 11  1  0
 14 13  1  0
 14 25  1  0
 14 15  1  0
 16 10  1  0
 16 15  1  0
 17 10  2  0
 18 21  1  0
 18 20  1  0
 20 19  1  0
 20  9  1  0
 21 19  1  0
 22 23  2  0
 23 42  1  0
 24 23  1  0
 24 27  1  0
 25 22  1  0
 25 26  1  0
 26 24  2  0
 27 28  1  0
 28 29  2  0
 30 33  1  0
 30 29  1  0
 31 30  2  0
 32 31  1  0
 32 27  2  0
 33 34  1  0
 34 39  2  0
 34 35  1  0
 35 36  2  0
 36 37  1  0
 37 41  1  0
 38 37  2  0
 39 38  1  0
 40 39  1  0
 42 43  1  0
 43 46  1  0
 43 45  1  0
 44 42  2  0
 47 48  1  0
 47 22  1  0
 49 47  1  0
 50 51  1  0
 50  2  1  0
 52 54  1  0
 52 51  1  0
 53 64  2  0
 54 59  1  0
 55 63  1  0
 55 65  1  0
 56 62  1  0
 56 58  1  0
 57 63  1  0
 58 57  1  0
 59 58  2  0
 60 61  1  0
 60 54  2  0
 61 56  2  0
 62 55  1  0
 63 53  1  0
 65 67  2  0
 66 65  1  0
 68 66  1  0
 69 78  2  0
 69 74  1  0
 70 66  1  0
 70 74  1  0
 71 70  1  0
 72 73  1  0
 72 71  1  0
 73 69  1  0
 74 75  2  0
 75 76  1  0
 77 76  2  0
 78 77  1  0
 79 53  1  0
 79 80  1  0
 79 89  1  0
 80 83  1  0
 81 85  1  0
 81 80  1  0
 82 81  2  0
 85 84  1  0
 87 85  1  0
 87 88  1  0
 87 86  1  0
 89 92  1  1
 89 90  1  0
 91 89  1  0
M  ISO  4  10 100  21 100  51 101  52 101
M  END
>  <TORSDO>  (67) 
F 23

>  <SCORE>  (67) 
-8.621

>  <name>  (67) 
70

>  <ligand_id>  (67) 
70

>  <original_smiles>  (67) 
[H]c1c([H])c([H])c2c(c1[H])C([H])([H])C([H])([H])C([H])([H])C2([H])N([H])C(=O)C1([H])N(C(=O)C([H])(N([H])C(=O)C([H])(N([H])C([H])([H])[H])C([H])([H])[H])C(C([H])([H])[H])(C([H])([H])[H])C([H])([H])[H])C([H])([H])c2c([H])c(OC([H])([H])C([H])([H])N([H])C(=O)C([H])([H])OC([H])([H])C([H])([H])C([H])([H])C3([H])C([H])([H])N(C(=O)N4C([H])([H])C([H])([H])C([H])([H])C([H])(n5nc(-c6c([H])c([H])c(Oc7c([H])c([H])c(F)c([H])c7F)c([H])c6[H])c(C(=O)N([H])[H])c5N([H])[H])C4([H])[H])C3([H])[H])c([H])c([H])c2C1([H])[H]

>  <smiles>  (67) 
[H]c1c([H])c([H])c2c(c1[H])C([H])([H])C([H])([H])C([H])([H])C2([H])N([H])C(=O)C1([H])N(C(=O)C([H])(N([H])C(=O)C([H])(N([H])C([H])([H])[H])C([H])([H])[H])C(C([H])([H])[H])(C([H])([H])[H])C([H])([H])[H])C([H])([H])c2c([H])c(OC([H])([H])C([H])([H])N([H])C(=O)C([H])([H])OC([H])([H])C([H])([H])C([H])([H])C3([H])C([H])([H])N(C(=O)N4C([H])([H])C([H])([H])C([H])([H])C([H])(n5nc(-c6c([H])c([H])c(Oc7c([H])c([H])c(F)c([H])c7F)c([H])c6[H])c(C(=O)N([H])[H])c5N([H])[H])C4([H])[H])C3([H])[H])c([H])c([H])c2C1([H])[H]

$$$$
71:0:0
     RDKit          3D

 90 99  0  0  1  0  0  0  0  0999 V2000
  -31.5860  -23.5150   19.7230 C   0  0  0  0  0  3  0  0  0  0  0  0
  -31.4380  -22.1410   19.9930 C   0  0  0  0  0  3  0  0  0  0  0  0
  -30.4910  -24.3900   19.8130 C   0  0  0  0  0  3  0  0  0  0  0  0
  -29.0880  -22.4830   20.4450 C   0  0  0  0  0  3  0  0  0  0  0  0
  -30.2000  -21.5550   20.3590 C   0  0  0  0  0  0  0  0  0  0  0  0
  -29.2210  -23.9100   20.1770 C   0  0  0  0  0  0  0  0  0  0  0  0
  -31.0500  -19.2550   19.6770 C   0  0  0  0  0  2  0  0  0  0  0  0
  -30.3220  -20.0270   20.7700 C   0  0  0  0  0  3  0  0  0  0  0  0
  -29.8870  -18.5550   20.2800 C   0  0  0  0  0  3  0  0  0  0  0  0
  -30.2520  -17.2120   21.0630 C   0  0  0  0  0  2  0  0  0  0  0  0
  -30.5910  -14.6910   20.4020 C   0  0  0  0  0  0  0  0  0  0  0  0
  -30.3670  -12.4330   19.3610 C   0  0  0  0  0  2  0  0  0  0  0  0
  -29.4280  -12.5140   18.1380 C   0  0  0  0  0  2  0  0  0  0  0  0
  -27.9550  -12.3630   18.5660 C   0  0  0  0  0  2  0  0  0  0  0  0
  -27.5870  -13.2580   19.7790 C   0  0  0  0  0  3  0  0  0  0  0  0
  -28.6430  -13.1490   20.9010 C   0  0  0  0  0  2  0  0  0  0  0  0
  -29.9440  -13.4830   20.3090 N   0  0  0  0  0  0  0  0  0  0  0  0
  -31.7840  -14.7910   20.1030 O   0  0  0  0  0  0  0  0  0  0  0  0
  -29.8290  -15.8100   20.6570 N   0  0  0  0  0  0  0  0  0  0  0  0
  -28.8420  -15.6210   20.7600 H   0  0  0  0  0  0  0  0  0  0  0  0
  -25.1980  -13.8720   20.4920 C   0  0  0  0  0  0  0  0  0  0  0  0
  -24.1240  -13.1080   20.8600 C   0  0  0  0  0  0  0  0  0  0  0  0
  -24.5790  -11.7530   20.8410 C   0  0  0  0  0  0  0  0  0  0  0  0
  -26.2380  -12.9850   20.2670 N   0  0  0  0  0  0  0  0  0  0  0  0
  -25.8710  -11.7050   20.5410 N   0  0  0  0  0  0  0  0  0  0  0  0
  -23.8440  -10.4980   21.0340 C   0  0  0  0  0  0  0  0  0  0  0  0
  -24.2740   -9.5240   21.9630 C   0  0  0  0  0  3  0  0  0  0  0  0
  -23.5400   -8.3320   22.1430 C   0  0  0  0  0  3  0  0  0  0  0  0
  -22.3600   -8.1070   21.3970 C   0  0  0  0  0  0  0  0  0  0  0  0
  -21.9470   -9.0680   20.4570 C   0  0  0  0  0  3  0  0  0  0  0  0
  -22.6830  -10.2510   20.2740 C   0  0  0  0  0  3  0  0  0  0  0  0
  -21.5960   -6.9680   21.4890 O   0  0  0  0  0  0  0  0  0  0  0  0
  -21.5590   -6.2160   22.6350 C   0  0  0  0  0  0  0  0  0  0  0  0
  -21.1720   -6.7660   23.8760 C   0  0  0  0  0  3  0  0  0  0  0  0
  -21.0810   -5.9410   25.0150 C   0  0  0  0  0  3  0  0  0  0  0  0
  -21.3690   -4.5670   24.9140 C   0  0  0  0  0  0  0  0  0  0  0  0
  -21.7500   -4.0150   23.6780 C   0  0  0  0  0  3  0  0  0  0  0  0
  -21.8420   -4.8370   22.5420 C   0  0  0  0  0  0  0  0  0  0  0  0
  -22.1900   -4.2970   21.3490 F   0  0  0  0  0  0  0  0  0  0  0  0
  -21.2740   -3.7720   26.0070 F   0  0  0  0  0  0  0  0  0  0  0  0
  -22.7280  -13.5960   21.1180 C   0  0  0  0  0  0  0  0  0  0  0  0
  -21.9880  -12.9140   21.9860 N   0  0  0  0  0  0  0  0  0  0  0  0
  -22.3000  -14.6180   20.5830 O   0  0  0  0  0  0  0  0  0  0  0  0
  -22.3470  -12.0900   22.4440 H   0  0  0  0  0  0  0  0  0  0  0  0
  -21.0500  -13.2230   22.1970 H   0  0  0  0  0  0  0  0  0  0  0  0
  -25.3710  -15.2400   20.3040 N   0  0  0  0  0  0  0  0  0  0  0  0
  -24.6070  -15.8990   20.4070 H   0  0  0  0  0  0  0  0  0  0  0  0
  -26.2150  -15.6690   19.9470 H   0  0  0  0  0  0  0  0  0  0  0  0
  -28.0320  -24.9410   20.1710 C   0  0  0  0  0  2  0  0  0  0  0  0
  -28.2990  -26.4130   20.2000 O   0  0  0  0  0  0  0  0  0  0  0  0
  -24.6240  -31.8800   23.2330 C   0  0  0  0  0  0  0  0  0  0  0  0
  -27.1900  -27.2880   20.1640 C   0  0  0  0  0  0  0  0  0  0  0  0
  -23.4050  -30.4880   21.6020 C   0  0  0  0  0  3  0  0  0  0  0  0
  -24.8380  -28.9320   20.1700 C   0  0  0  0  0  0  0  0  0  0  0  0
  -25.9470  -30.7900   21.4040 C   0  0  0  0  0  2  0  0  0  0  0  0
  -26.0160  -29.4100   20.7560 C   0  0  0  0  0  0  0  0  0  0  0  0
  -27.1970  -28.6010   20.7390 C   0  0  0  0  0  3  0  0  0  0  0  0
  -25.9820  -26.8740   19.5560 C   0  0  0  0  0  3  0  0  0  0  0  0
  -24.8240  -27.6720   19.5600 C   0  0  0  0  0  3  0  0  0  0  0  0
  -23.6060  -29.8150   20.2220 C   0  0  0  0  0  2  0  0  0  0  0  0
  -24.6780  -31.0710   22.1360 N   0  0  0  0  0  0  0  0  0  0  0  0
  -23.5440  -32.1640   23.7740 O   0  0  0  0  0  0  0  0  0  0  0  0
  -22.7420  -29.4740   22.5660 C   0  0  0  0  0  0  0  0  0  0  0  0
  -21.4140  -29.3040   22.4480 N   0  0  0  0  0  0  0  0  0  0  0  0
  -23.4220  -28.8430   23.3790 O   0  0  0  0  0  0  0  0  0  0  0  0
  -20.9230  -29.8660   21.7660 H   0  0  0  0  0  0  0  0  0  0  0  0
  -18.0340  -28.1210   22.9650 C   0  0  0  0  0  0  0  0  0  0  0  0
  -20.5940  -28.3720   23.2240 C   0  0  0  0  0  3  0  0  0  0  0  0
  -20.6870  -26.9380   22.6520 C   0  0  0  0  0  2  0  0  0  0  0  0
  -19.5800  -26.6170   21.6440 C   0  0  0  0  0  2  0  0  0  0  0  0
  -18.2020  -26.7690   22.2930 C   0  0  0  0  0  2  0  0  0  0  0  0
  -19.1570  -28.8810   23.3880 C   0  0  0  0  0  0  0  0  0  0  0  0
  -18.9460  -30.1460   23.9770 C   0  0  0  0  0  3  0  0  0  0  0  0
  -17.6440  -30.6530   24.1470 C   0  0  0  0  0  3  0  0  0  0  0  0
  -16.5350  -29.8920   23.7400 C   0  0  0  0  0  3  0  0  0  0  0  0
  -16.7310  -28.6270   23.1550 C   0  0  0  0  0  3  0  0  0  0  0  0
  -25.9130  -32.5090   23.8470 C   0  0  0  0  0  3  0  0  0  0  0  0
  -26.4410  -31.7270   25.1120 C   0  0  1  0  0  0  0  0  0  0  0  0
  -25.3600  -31.4840   26.1910 C   0  0  0  0  0  1  0  0  0  0  0  0
  -27.0160  -30.3500   24.7050 C   0  0  0  0  0  1  0  0  0  0  0  0
  -27.5990  -32.5140   25.7690 C   0  0  0  0  0  1  0  0  0  0  0  0
  -25.6050  -33.9040   24.1940 N   0  0  0  0  0  0  0  0  0  0  0  0
  -25.9160  -34.9640   23.4350 C   0  0  0  0  0  0  0  0  0  0  0  0
  -26.5610  -34.8690   22.3870 O   0  0  0  0  0  0  0  0  0  0  0  0
  -25.0290  -34.0510   25.0090 H   0  0  0  0  0  0  0  0  0  0  0  0
  -24.1660  -36.7480   23.1470 C   0  0  0  0  0  1  0  0  0  0  0  0
  -25.4360  -36.3460   23.9150 C   0  0  0  0  0  3  0  0  0  0  0  0
  -27.5940  -37.2400   24.6760 C   0  0  0  0  0  1  0  0  0  0  0  0
  -26.4590  -37.4060   23.7720 N   0  0  0  0  0  0  0  0  0  0  0  0
  -26.0530  -38.3230   23.9390 H   0  0  0  0  0  0  0  0  0  0  0  0
  1  3  2  0
  1  2  1  0
  2  5  2  0
  3  6  1  0
  5  4  1  0
  6  4  2  0
  7  9  1  0
  7  8  1  0
  8  5  1  0
  9  8  1  0
  9 10  1  0
 11 19  1  0
 12 17  1  0
 13 14  1  0
 13 12  1  0
 15 14  1  0
 15 24  1  0
 15 16  1  0
 17 11  1  0
 17 16  1  0
 18 11  2  0
 19 20  1  0
 19 10  1  0
 21 22  2  0
 22 41  1  0
 23 22  1  0
 23 26  1  0
 24 21  1  0
 24 25  1  0
 25 23  2  0
 26 27  1  0
 27 28  2  0
 29 32  1  0
 29 28  1  0
 30 29  2  0
 31 30  1  0
 31 26  2  0
 32 33  1  0
 33 34  1  0
 34 35  2  0
 36 35  1  0
 36 40  1  0
 37 36  2  0
 38 33  2  0
 38 37  1  0
 39 38  1  0
 41 42  1  0
 42 45  1  0
 42 44  1  0
 43 41  2  0
 46 47  1  0
 46 21  1  0
 48 46  1  0
 49  6  1  0
 49 50  1  0
 51 62  2  0
 52 50  1  0
 52 57  1  0
 53 61  1  0
 53 63  1  0
 54 60  1  0
 54 56  1  0
 55 61  1  0
 56 55  1  0
 57 56  2  0
 58 59  1  0
 58 52  2  0
 59 54  2  0
 60 53  1  0
 61 51  1  0
 63 65  2  0
 64 63  1  0
 66 64  1  0
 67 76  2  0
 67 72  1  0
 68 64  1  0
 68 72  1  0
 69 68  1  0
 70 71  1  0
 70 69  1  0
 71 67  1  0
 72 73  2  0
 73 74  1  0
 75 74  2  0
 76 75  1  0
 77 51  1  0
 77 82  1  0
 77 78  1  0
 78 81  1  1
 78 79  1  0
 80 78  1  0
 82 85  1  0
 83 87  1  0
 83 82  1  0
 84 83  2  0
 87 86  1  0
 89 87  1  0
 89 90  1  0
 89 88  1  0
M  ISO  4  11 100  19 100  49 101  50 101
M  END
>  <TORSDO>  (68) 
F 19

>  <SCORE>  (68) 
-14.156

>  <name>  (68) 
71

>  <ligand_id>  (68) 
71

>  <original_smiles>  (68) 
[H]c1c([H])c([H])c2c(c1[H])C([H])([H])C([H])([H])C([H])([H])C2([H])N([H])C(=O)C1([H])N(C(=O)C([H])(N([H])C(=O)C([H])(N([H])C([H])([H])[H])C([H])([H])[H])C(C([H])([H])[H])(C([H])([H])[H])C([H])([H])[H])C([H])([H])c2c([H])c(OC([H])([H])c3c([H])c([H])c([H])c(C4([H])C([H])([H])C4([H])C([H])([H])N([H])C(=O)N4C([H])([H])C([H])([H])C([H])([H])C([H])(n5nc(-c6c([H])c([H])c(Oc7c([H])c([H])c(F)c([H])c7F)c([H])c6[H])c(C(=O)N([H])[H])c5N([H])[H])C4([H])[H])c3[H])c([H])c([H])c2C1([H])[H]

>  <smiles>  (68) 
[H]c1c([H])c([H])c2c(c1[H])C([H])([H])C([H])([H])C([H])([H])C2([H])N([H])C(=O)C1([H])N(C(=O)C([H])(N([H])C(=O)C([H])(N([H])C([H])([H])[H])C([H])([H])[H])C(C([H])([H])[H])(C([H])([H])[H])C([H])([H])[H])C([H])([H])c2c([H])c(OC([H])([H])c3c([H])c([H])c([H])c(C4([H])C([H])([H])C4([H])C([H])([H])N([H])C(=O)N4C([H])([H])C([H])([H])C([H])([H])C([H])(n5nc(-c6c([H])c([H])c(Oc7c([H])c([H])c(F)c([H])c7F)c([H])c6[H])c(C(=O)N([H])[H])c5N([H])[H])C4([H])[H])c3[H])c([H])c([H])c2C1([H])[H]

$$$$
72:0:0
     RDKit          3D

 89 99  0  0  1  0  0  0  0  0999 V2000
  -28.7310  -21.7020   19.8260 C   0  0  0  0  0  0  0  0  0  0  0  0
  -29.5160  -20.5540   20.1490 N   0  0  0  0  0  0  0  0  0  0  0  0
  -27.7300  -21.5230   19.1290 O   0  0  0  0  0  0  0  0  0  0  0  0
  -30.3270  -20.7740   20.7160 H   0  0  0  0  0  0  0  0  0  0  0  0
  -30.6630  -15.0580   19.9550 C   0  0  0  0  0  0  0  0  0  0  0  0
  -30.4830  -12.7100   18.9880 C   0  0  0  0  0  2  0  0  0  0  0  0
  -29.4690  -12.6180   17.8270 C   0  0  0  0  0  2  0  0  0  0  0  0
  -28.0440  -12.3750   18.3640 C   0  0  0  0  0  2  0  0  0  0  0  0
  -27.6990  -13.2940   19.5640 C   0  0  0  0  0  3  0  0  0  0  0  0
  -28.8360  -13.3270   20.6090 C   0  0  0  0  0  2  0  0  0  0  0  0
  -30.0330  -13.8050   19.9000 N   0  0  0  0  0  0  0  0  0  0  0  0
  -31.8700  -15.0600   19.6890 O   0  0  0  0  0  0  0  0  0  0  0  0
  -29.8790  -18.1830   21.6210 C   0  0  0  0  0  2  0  0  0  0  0  0
  -28.5500  -16.6150   20.2570 C   0  0  0  0  0  2  0  0  0  0  0  0
  -28.6280  -18.0880   20.7270 C   0  0  1  0  0  0  0  0  0  0  0  0
  -30.4650  -17.8000   20.2520 C   0  0  1  0  0  0  0  0  0  0  0  0
  -29.4200  -19.0040   19.7500 C   0  0  0  0  0  3  0  0  0  0  0  0
  -29.9740  -16.3220   20.0770 N   0  0  0  0  0  0  0  0  0  0  0  0
  -25.3760  -13.8450   20.4880 C   0  0  0  0  0  0  0  0  0  0  0  0
  -24.3380  -13.0540   20.9020 C   0  0  0  0  0  0  0  0  0  0  0  0
  -24.7990  -11.7070   20.7900 C   0  0  0  0  0  0  0  0  0  0  0  0
  -26.4010  -12.9770   20.1490 N   0  0  0  0  0  0  0  0  0  0  0  0
  -26.0680  -11.6840   20.3960 N   0  0  0  0  0  0  0  0  0  0  0  0
  -24.0850  -10.4380   20.9780 C   0  0  0  0  0  0  0  0  0  0  0  0
  -24.5380   -9.4650   21.8960 C   0  0  0  0  0  3  0  0  0  0  0  0
  -23.8220   -8.2630   22.0720 C   0  0  0  0  0  3  0  0  0  0  0  0
  -22.6400   -8.0240   21.3320 C   0  0  0  0  0  0  0  0  0  0  0  0
  -22.2060   -8.9860   20.4030 C   0  0  0  0  0  3  0  0  0  0  0  0
  -22.9220  -10.1810   20.2240 C   0  0  0  0  0  3  0  0  0  0  0  0
  -21.8930   -6.8740   21.4200 O   0  0  0  0  0  0  0  0  0  0  0  0
  -21.8060   -6.1610   22.5890 C   0  0  0  0  0  0  0  0  0  0  0  0
  -21.3110   -6.7410   23.7780 C   0  0  0  0  0  3  0  0  0  0  0  0
  -21.1710   -5.9550   24.9400 C   0  0  0  0  0  3  0  0  0  0  0  0
  -21.5160   -4.5910   24.9120 C   0  0  0  0  0  0  0  0  0  0  0  0
  -22.0030   -4.0100   23.7280 C   0  0  0  0  0  3  0  0  0  0  0  0
  -22.1440   -4.7940   22.5690 C   0  0  0  0  0  0  0  0  0  0  0  0
  -22.5940   -4.2260   21.4250 F   0  0  0  0  0  0  0  0  0  0  0  0
  -21.3740   -3.8320   26.0240 F   0  0  0  0  0  0  0  0  0  0  0  0
  -22.9620  -13.5230   21.2750 C   0  0  0  0  0  0  0  0  0  0  0  0
  -22.2910  -12.8010   22.1660 N   0  0  0  0  0  0  0  0  0  0  0  0
  -22.4920  -14.5610   20.8140 O   0  0  0  0  0  0  0  0  0  0  0  0
  -22.6820  -11.9580   22.5570 H   0  0  0  0  0  0  0  0  0  0  0  0
  -21.3720  -13.0990   22.4590 H   0  0  0  0  0  0  0  0  0  0  0  0
  -25.5190  -15.2190   20.3430 N   0  0  0  0  0  0  0  0  0  0  0  0
  -24.7570  -15.8610   20.5250 H   0  0  0  0  0  0  0  0  0  0  0  0
  -26.3290  -15.6700   19.9400 H   0  0  0  0  0  0  0  0  0  0  0  0
  -29.0220  -23.2810   20.2770 C   0  0  0  0  0  3  0  0  0  0  0  0
  -28.0290  -24.6270   19.9600 C   0  0  0  0  0  3  0  0  0  0  0  0
  -28.2640  -26.1470   20.2720 O   0  0  0  0  0  0  0  0  0  0  0  0
  -24.6350  -31.8560   23.2460 C   0  0  0  0  0  0  0  0  0  0  0  0
  -27.2230  -27.1500   20.1750 C   0  0  0  0  0  0  0  0  0  0  0  0
  -23.5860  -30.2190   21.7200 C   0  0  0  0  0  3  0  0  0  0  0  0
  -24.9280  -28.9270   20.0620 C   0  0  0  0  0  0  0  0  0  0  0  0
  -26.0210  -30.7730   21.4030 C   0  0  0  0  0  2  0  0  0  0  0  0
  -26.1090  -29.3830   20.6900 C   0  0  0  0  0  0  0  0  0  0  0  0
  -27.2500  -28.4940   20.7380 C   0  0  0  0  0  3  0  0  0  0  0  0
  -26.0230  -26.8140   19.5110 C   0  0  0  0  0  3  0  0  0  0  0  0
  -24.8960  -27.6590   19.4710 C   0  0  0  0  0  3  0  0  0  0  0  0
  -23.6450  -29.7340   20.2510 C   0  0  0  0  0  2  0  0  0  0  0  0
  -24.7230  -31.0790   22.1230 N   0  0  0  0  0  0  0  0  0  0  0  0
  -23.5440  -32.1160   23.7760 O   0  0  0  0  0  0  0  0  0  0  0  0
  -22.6770  -29.4620   22.7210 C   0  0  0  0  0  0  0  0  0  0  0  0
  -21.3790  -29.3010   22.4420 N   0  0  0  0  0  0  0  0  0  0  0  0
  -23.1780  -28.9010   23.7090 O   0  0  0  0  0  0  0  0  0  0  0  0
  -20.9820  -29.7580   21.6320 H   0  0  0  0  0  0  0  0  0  0  0  0
  -17.9900  -28.1190   22.9280 C   0  0  0  0  0  0  0  0  0  0  0  0
  -20.5360  -28.3630   23.1890 C   0  0  0  0  0  3  0  0  0  0  0  0
  -20.6420  -26.9350   22.6020 C   0  0  0  0  0  2  0  0  0  0  0  0
  -19.5300  -26.6040   21.6050 C   0  0  0  0  0  2  0  0  0  0  0  0
  -18.1540  -26.7670   22.2550 C   0  0  0  0  0  2  0  0  0  0  0  0
  -19.1120  -28.8760   23.3520 C   0  0  0  0  0  0  0  0  0  0  0  0
  -18.9120  -30.1320   23.9610 C   0  0  0  0  0  3  0  0  0  0  0  0
  -17.6140  -30.6390   24.1440 C   0  0  0  0  0  3  0  0  0  0  0  0
  -16.5020  -29.8840   23.7300 C   0  0  0  0  0  3  0  0  0  0  0  0
  -16.6900  -28.6270   23.1310 C   0  0  0  0  0  3  0  0  0  0  0  0
  -25.9010  -32.4920   23.8900 C   0  0  0  0  0  3  0  0  0  0  0  0
  -25.5980  -33.8960   24.2080 N   0  0  0  0  0  0  0  0  0  0  0  0
  -25.9150  -34.9410   23.4310 C   0  0  0  0  0  0  0  0  0  0  0  0
  -26.5620  -34.8220   22.3860 O   0  0  0  0  0  0  0  0  0  0  0  0
  -25.0420  -34.0600   25.0350 H   0  0  0  0  0  0  0  0  0  0  0  0
  -24.1800  -36.7330   23.1070 C   0  0  0  0  0  1  0  0  0  0  0  0
  -25.4450  -36.3360   23.8840 C   0  0  0  0  0  3  0  0  0  0  0  0
  -27.6030  -37.2420   24.6320 C   0  0  0  0  0  1  0  0  0  0  0  0
  -26.4720  -37.3890   23.7210 N   0  0  0  0  0  0  0  0  0  0  0  0
  -26.0680  -38.3100   23.8610 H   0  0  0  0  0  0  0  0  0  0  0  0
  -26.3800  -31.7290   25.1860 C   0  0  1  0  0  0  0  0  0  0  0  0
  -25.2650  -31.5180   26.2360 C   0  0  0  0  0  1  0  0  0  0  0  0
  -26.9550  -30.3390   24.8210 C   0  0  0  0  0  1  0  0  0  0  0  0
  -27.5260  -32.5150   25.8630 C   0  0  0  0  0  1  0  0  0  0  0  0
  1  2  1  0
  1 47  1  0
  2  4  1  0
  3  1  2  0
  5 18  1  0
  6 11  1  0
  7  8  1  0
  7  6  1  0
  9  8  1  0
  9 22  1  0
  9 10  1  0
 11  5  1  0
 11 10  1  0
 12  5  2  0
 15 14  1  1
 15 13  1  0
 16 15  1  0
 16 13  1  1
 17  2  1  0
 17 16  1  0
 17 15  1  0
 18 16  1  0
 18 14  1  0
 19 20  2  0
 20 39  1  0
 21 20  1  0
 21 24  1  0
 22 23  1  0
 22 19  1  0
 23 21  2  0
 24 25  1  0
 25 26  2  0
 27 30  1  0
 27 26  1  0
 28 27  2  0
 29 28  1  0
 29 24  2  0
 30 31  1  0
 31 32  1  0
 32 33  2  0
 34 33  1  0
 34 38  1  0
 35 34  2  0
 36 31  2  0
 36 35  1  0
 37 36  1  0
 39 40  1  0
 40 43  1  0
 40 42  1  0
 41 39  2  0
 44 19  1  0
 44 45  1  0
 46 44  1  0
 48 49  1  0
 48 47  2  0
 50 61  2  0
 51 49  1  0
 51 56  1  0
 52 60  1  0
 52 62  1  0
 53 59  1  0
 53 55  1  0
 54 60  1  0
 55 56  2  0
 55 54  1  0
 57 51  2  0
 58 57  1  0
 58 53  2  0
 59 52  1  0
 60 50  1  0
 62 64  2  0
 63 62  1  0
 65 63  1  0
 66 75  2  0
 66 71  1  0
 67 63  1  0
 67 71  1  0
 68 67  1  0
 69 70  1  0
 69 68  1  0
 70 66  1  0
 71 72  2  0
 72 73  1  0
 74 73  2  0
 75 74  1  0
 76 50  1  0
 76 77  1  0
 76 86  1  0
 77 80  1  0
 78 82  1  0
 78 77  1  0
 79 78  2  0
 82 81  1  0
 84 85  1  0
 84 82  1  0
 84 83  1  0
 86 89  1  1
 86 87  1  0
 88 86  1  0
M  ISO  4   5 100  18 100  48 101  49 101
M  END
>  <TORSDO>  (69) 
F 18

>  <SCORE>  (69) 
-15.030

>  <name>  (69) 
72

>  <ligand_id>  (69) 
72

>  <original_smiles>  (69) 
[H]c1c([H])c([H])c2c(c1[H])C([H])([H])C([H])([H])C([H])([H])C2([H])N([H])C(=O)C1([H])N(C(=O)C([H])(N([H])C(=O)C([H])(N([H])C([H])([H])[H])C([H])([H])[H])C(C([H])([H])[H])(C([H])([H])[H])C([H])([H])[H])C([H])([H])c2c([H])c(OC([H])([H])C([H])([H])C(=O)N([H])C3([H])C4([H])N(C(=O)N5C([H])([H])C([H])([H])C([H])([H])C([H])(n6nc(-c7c([H])c([H])c(Oc8c([H])c([H])c(F)c([H])c8F)c([H])c7[H])c(C(=O)N([H])[H])c6N([H])[H])C5([H])[H])C([H])([H])C3([H])C4([H])[H])c([H])c([H])c2C1([H])[H]

>  <smiles>  (69) 
[H]c1c([H])c([H])c2c(c1[H])C([H])([H])C([H])([H])C([H])([H])C2([H])N([H])C(=O)C1([H])N(C(=O)C([H])(N([H])C(=O)C([H])(N([H])C([H])([H])[H])C([H])([H])[H])C(C([H])([H])[H])(C([H])([H])[H])C([H])([H])[H])C([H])([H])c2c([H])c(OC([H])([H])C([H])([H])C(=O)N([H])C3([H])C4([H])N(C(=O)N5C([H])([H])C([H])([H])C([H])([H])C([H])(n6nc(-c7c([H])c([H])c(Oc8c([H])c([H])c(F)c([H])c8F)c([H])c7[H])c(C(=O)N([H])[H])c6N([H])[H])C5([H])[H])C([H])([H])C3([H])C4([H])[H])c([H])c([H])c2C1([H])[H]

$$$$
73:0:0
     RDKit          3D

 90 99  0  0  1  0  0  0  0  0999 V2000
  -31.2820  -21.0510   19.7020 C   0  0  0  0  0  2  0  0  0  0  0  0
  -28.4970  -18.7690   19.5370 C   0  0  0  0  0  2  0  0  0  0  0  0
  -30.1150  -21.6160   18.9010 C   0  0  0  0  0  2  0  0  0  0  0  0
  -28.0730  -20.3220   19.9420 C   0  0  0  0  0  2  0  0  0  0  0  0
  -30.3080  -19.0150   21.1780 C   0  0  0  0  0  2  0  0  0  0  0  0
  -30.3310  -20.6170   20.8160 C   0  0  0  0  0  3  0  0  0  0  0  0
  -29.7780  -17.9440   20.1130 C   0  0  0  0  0  3  0  0  0  0  0  0
  -29.1630  -21.4870   20.1030 C   0  0  1  0  0  0  0  0  0  0  0  0
  -30.4480  -15.1350   20.2600 C   0  0  0  0  0  0  0  0  0  0  0  0
  -30.3750  -12.7320   19.3670 C   0  0  0  0  0  2  0  0  0  0  0  0
  -29.4500  -12.6310   18.1290 C   0  0  0  0  0  2  0  0  0  0  0  0
  -27.9900  -12.3930   18.5590 C   0  0  0  0  0  2  0  0  0  0  0  0
  -27.5660  -13.3350   19.7140 C   0  0  0  0  0  3  0  0  0  0  0  0
  -28.6160  -13.3970   20.8460 C   0  0  0  0  0  2  0  0  0  0  0  0
  -29.8750  -13.8460   20.2380 N   0  0  0  0  0  0  0  0  0  0  0  0
  -31.6430  -15.1800   19.9480 O   0  0  0  0  0  0  0  0  0  0  0  0
  -29.6640  -16.3460   20.4370 N   0  0  0  0  0  0  0  0  0  0  0  0
  -28.7420  -16.1070   20.7750 H   0  0  0  0  0  0  0  0  0  0  0  0
  -25.1840  -13.9100   20.4400 C   0  0  0  0  0  0  0  0  0  0  0  0
  -24.1200  -13.1360   20.8120 C   0  0  0  0  0  0  0  0  0  0  0  0
  -24.5840  -11.7850   20.7950 C   0  0  0  0  0  0  0  0  0  0  0  0
  -26.2300  -13.0310   20.2110 N   0  0  0  0  0  0  0  0  0  0  0  0
  -25.8780  -11.7480   20.4900 N   0  0  0  0  0  0  0  0  0  0  0  0
  -23.8570  -10.5250   20.9940 C   0  0  0  0  0  0  0  0  0  0  0  0
  -24.2850   -9.5630   21.9350 C   0  0  0  0  0  3  0  0  0  0  0  0
  -23.5560   -8.3680   22.1200 C   0  0  0  0  0  3  0  0  0  0  0  0
  -22.3840   -8.1280   21.3650 C   0  0  0  0  0  0  0  0  0  0  0  0
  -21.9740   -9.0780   20.4120 C   0  0  0  0  0  3  0  0  0  0  0  0
  -22.7050  -10.2630   20.2260 C   0  0  0  0  0  3  0  0  0  0  0  0
  -21.6260   -6.9860   21.4620 O   0  0  0  0  0  0  0  0  0  0  0  0
  -21.5790   -6.2460   22.6160 C   0  0  0  0  0  0  0  0  0  0  0  0
  -21.1630   -6.8080   23.8430 C   0  0  0  0  0  3  0  0  0  0  0  0
  -21.0630   -5.9950   24.9900 C   0  0  0  0  0  3  0  0  0  0  0  0
  -21.3680   -4.6240   24.9120 C   0  0  0  0  0  0  0  0  0  0  0  0
  -21.7770   -4.0610   23.6900 C   0  0  0  0  0  3  0  0  0  0  0  0
  -21.8790   -4.8700   22.5440 C   0  0  0  0  0  0  0  0  0  0  0  0
  -22.2540   -4.3190   21.3640 F   0  0  0  0  0  0  0  0  0  0  0  0
  -21.2640   -3.8410   26.0120 F   0  0  0  0  0  0  0  0  0  0  0  0
  -22.7200  -13.6160   21.0670 C   0  0  0  0  0  0  0  0  0  0  0  0
  -21.9820  -12.9300   21.9310 N   0  0  0  0  0  0  0  0  0  0  0  0
  -22.2890  -14.6370   20.5310 O   0  0  0  0  0  0  0  0  0  0  0  0
  -22.3410  -12.1050   22.3870 H   0  0  0  0  0  0  0  0  0  0  0  0
  -21.0420  -13.2380   22.1400 H   0  0  0  0  0  0  0  0  0  0  0  0
  -25.3480  -15.2780   20.2480 N   0  0  0  0  0  0  0  0  0  0  0  0
  -24.5790  -15.9330   20.3510 H   0  0  0  0  0  0  0  0  0  0  0  0
  -26.1800  -15.7040   19.8610 H   0  0  0  0  0  0  0  0  0  0  0  0
  -27.6940  -22.9070   21.8320 C   0  0  0  0  0  1  0  0  0  0  0  0
  -28.6960  -23.0790   20.6850 C   0  0  0  0  0  3  0  0  0  0  0  0
  -28.2100  -24.5160   19.8330 C   0  0  0  0  0  2  0  0  0  0  0  0
  -28.2610  -26.0600   20.2670 O   0  0  0  0  0  0  0  0  0  0  0  0
  -24.6440  -31.8560   23.1990 C   0  0  0  0  0  0  0  0  0  0  0  0
  -27.2140  -27.0800   20.1580 C   0  0  0  0  0  0  0  0  0  0  0  0
  -23.4470  -30.4600   21.5620 C   0  0  0  0  0  3  0  0  0  0  0  0
  -24.8940  -28.8810   20.1260 C   0  0  0  0  0  0  0  0  0  0  0  0
  -26.0040  -30.7060   21.3990 C   0  0  0  0  0  2  0  0  0  0  0  0
  -26.0760  -29.3080   20.7420 C   0  0  0  0  0  0  0  0  0  0  0  0
  -27.2300  -28.4230   20.7430 C   0  0  0  0  0  3  0  0  0  0  0  0
  -26.0080  -26.7830   19.4850 C   0  0  0  0  0  3  0  0  0  0  0  0
  -24.8780  -27.6370   19.4780 C   0  0  0  0  0  3  0  0  0  0  0  0
  -23.6690  -29.7870   20.1810 C   0  0  0  0  0  2  0  0  0  0  0  0
  -24.7200  -31.0320   22.1080 N   0  0  0  0  0  0  0  0  0  0  0  0
  -23.5570  -32.1390   23.7270 O   0  0  0  0  0  0  0  0  0  0  0  0
  -22.7670  -29.4530   22.5240 C   0  0  0  0  0  0  0  0  0  0  0  0
  -21.4370  -29.2830   22.4040 N   0  0  0  0  0  0  0  0  0  0  0  0
  -23.4400  -28.8260   23.3470 O   0  0  0  0  0  0  0  0  0  0  0  0
  -20.9500  -29.8360   21.7130 H   0  0  0  0  0  0  0  0  0  0  0  0
  -18.0580  -28.0770   22.9210 C   0  0  0  0  0  0  0  0  0  0  0  0
  -20.6180  -28.3470   23.1800 C   0  0  0  0  0  3  0  0  0  0  0  0
  -20.7200  -26.9140   22.6060 C   0  0  0  0  0  2  0  0  0  0  0  0
  -19.6160  -26.5890   21.5950 C   0  0  0  0  0  2  0  0  0  0  0  0
  -18.2370  -26.7300   22.2430 C   0  0  0  0  0  2  0  0  0  0  0  0
  -19.1760  -28.8440   23.3460 C   0  0  0  0  0  0  0  0  0  0  0  0
  -18.9540  -30.1030   23.9430 C   0  0  0  0  0  3  0  0  0  0  0  0
  -17.6470  -30.5970   24.1190 C   0  0  0  0  0  3  0  0  0  0  0  0
  -16.5440  -29.8280   23.7080 C   0  0  0  0  0  3  0  0  0  0  0  0
  -16.7500  -28.5710   23.1150 C   0  0  0  0  0  3  0  0  0  0  0  0
  -25.9190  -32.4980   23.8260 C   0  0  0  0  0  3  0  0  0  0  0  0
  -25.6000  -33.8950   24.1660 N   0  0  0  0  0  0  0  0  0  0  0  0
  -25.9210  -34.9580   23.4170 C   0  0  0  0  0  0  0  0  0  0  0  0
  -26.5820  -34.8660   22.3790 O   0  0  0  0  0  0  0  0  0  0  0  0
  -25.0120  -34.0390   24.9740 H   0  0  0  0  0  0  0  0  0  0  0  0
  -24.1780  -36.7470   23.1000 C   0  0  0  0  0  1  0  0  0  0  0  0
  -25.4330  -36.3420   23.8920 C   0  0  0  0  0  3  0  0  0  0  0  0
  -27.5750  -37.2310   24.6990 C   0  0  0  0  0  1  0  0  0  0  0  0
  -26.4580  -37.4030   23.7730 N   0  0  0  0  0  0  0  0  0  0  0  0
  -26.0490  -38.3190   23.9360 H   0  0  0  0  0  0  0  0  0  0  0  0
  -26.4340  -31.7280   25.1040 C   0  0  1  0  0  0  0  0  0  0  0  0
  -25.3410  -31.4890   26.1730 C   0  0  0  0  0  1  0  0  0  0  0  0
  -27.0190  -30.3500   24.7190 C   0  0  0  0  0  1  0  0  0  0  0  0
  -27.5860  -32.5230   25.7650 C   0  0  0  0  0  1  0  0  0  0  0  0
  2  4  1  0
  2  7  1  0
  3  1  1  0
  3  8  1  0
  4  8  1  0
  6  1  1  0
  6  5  1  0
  7 17  1  0
  7  5  1  0
  8 48  1  1
  8  6  1  0
  9 17  1  0
 10 15  1  0
 11 12  1  0
 11 10  1  0
 13 12  1  0
 13 22  1  0
 13 14  1  0
 15  9  1  0
 15 14  1  0
 16  9  2  0
 17 18  1  0
 19 20  2  0
 20 39  1  0
 21 20  1  0
 21 24  1  0
 22 19  1  0
 22 23  1  0
 23 21  2  0
 24 25  1  0
 25 26  2  0
 27 30  1  0
 27 26  1  0
 28 27  2  0
 29 28  1  0
 29 24  2  0
 30 31  1  0
 31 32  1  0
 32 33  2  0
 34 33  1  0
 34 38  1  0
 35 34  2  0
 36 31  2  0
 36 35  1  0
 37 36  1  0
 39 40  1  0
 40 43  1  0
 40 42  1  0
 41 39  2  0
 44 45  1  0
 44 19  1  0
 46 44  1  0
 48 47  1  0
 49 50  1  0
 49 48  1  0
 51 62  2  0
 52 50  1  0
 52 57  1  0
 53 61  1  0
 53 63  1  0
 54 60  1  0
 54 56  1  0
 55 61  1  0
 56 57  2  0
 56 55  1  0
 58 52  2  0
 59 58  1  0
 59 54  2  0
 60 53  1  0
 61 51  1  0
 63 65  2  0
 64 63  1  0
 66 64  1  0
 67 76  2  0
 67 72  1  0
 68 64  1  0
 68 72  1  0
 69 68  1  0
 70 71  1  0
 70 69  1  0
 71 67  1  0
 72 73  2  0
 73 74  1  0
 75 74  2  0
 76 75  1  0
 77 51  1  0
 77 78  1  0
 77 87  1  0
 78 81  1  0
 79 83  1  0
 79 78  1  0
 80 79  2  0
 83 82  1  0
 85 83  1  0
 85 86  1  0
 85 84  1  0
 87 90  1  1
 87 88  1  0
 89 87  1  0
M  ISO  4   9 100  17 100  49 101  50 101
M  END
>  <TORSDO>  (70) 
F 18

>  <SCORE>  (70) 
-15.689

>  <name>  (70) 
73

>  <ligand_id>  (70) 
73

>  <original_smiles>  (70) 
[H]c1c([H])c([H])c2c(c1[H])C([H])([H])C([H])([H])C([H])([H])C2([H])N([H])C(=O)C1([H])N(C(=O)C([H])(N([H])C(=O)C([H])(N([H])C([H])([H])[H])C([H])([H])[H])C(C([H])([H])[H])(C([H])([H])[H])C([H])([H])[H])C([H])([H])c2c([H])c(OC([H])([H])C([H])(C([H])([H])[H])C34C([H])([H])C([H])([H])C([H])(N([H])C(=O)N5C([H])([H])C([H])([H])C([H])([H])C([H])(n6nc(-c7c([H])c([H])c(Oc8c([H])c([H])c(F)c([H])c8F)c([H])c7[H])c(C(=O)N([H])[H])c6N([H])[H])C5([H])[H])C([H])([H])C3([H])C([H])([H])C4([H])[H])c([H])c([H])c2C1([H])[H]

>  <smiles>  (70) 
[H]c1c([H])c([H])c2c(c1[H])C([H])([H])C([H])([H])C([H])([H])C2([H])N([H])C(=O)C1([H])N(C(=O)C([H])(N([H])C(=O)C([H])(N([H])C([H])([H])[H])C([H])([H])[H])C(C([H])([H])[H])(C([H])([H])[H])C([H])([H])[H])C([H])([H])c2c([H])c(OC([H])([H])C([H])(C([H])([H])[H])C34C([H])([H])C([H])([H])C([H])(N([H])C(=O)N5C([H])([H])C([H])([H])C([H])([H])C([H])(n6nc(-c7c([H])c([H])c(Oc8c([H])c([H])c(F)c([H])c8F)c([H])c7[H])c(C(=O)N([H])[H])c6N([H])[H])C5([H])[H])C([H])([H])C3([H])C([H])([H])C4([H])[H])c([H])c([H])c2C1([H])[H]

$$$$
74:0:0
     RDKit          3D

 91 99  0  0  1  0  0  0  0  0999 V2000
  -29.4390  -21.3210   20.5710 C   0  0  0  0  0  3  0  0  0  0  0  0
  -29.9790  -21.4990   21.9300 N   0  0  0  0  0  4  0  0  0  0  0  0
  -29.2470  -21.6820   22.5910 H   0  0  0  0  0  0  0  0  0  0  0  0
  -30.6300  -22.2630   21.9370 H   0  0  0  0  0  0  0  0  0  0  0  0
  -30.4850  -20.6830   22.2290 H   0  0  0  0  0  0  0  0  0  0  0  0
  -29.0270  -19.5800   20.3970 C   0  0  0  0  0  0  0  0  0  0  0  0
  -27.8630  -19.3420   20.0720 O   0  0  0  0  0  0  0  0  0  0  0  0
  -30.4510  -15.2500   20.4150 C   0  0  0  0  0  0  0  0  0  0  0  0
  -30.4380  -12.8340   19.5120 C   0  0  0  0  0  2  0  0  0  0  0  0
  -29.5430  -12.6060   18.2680 C   0  0  0  0  0  2  0  0  0  0  0  0
  -28.0760  -12.3670   18.6810 C   0  0  0  0  0  2  0  0  0  0  0  0
  -27.6030  -13.3390   19.7930 C   0  0  0  0  0  3  0  0  0  0  0  0
  -28.6280  -13.4570   20.9340 C   0  0  0  0  0  2  0  0  0  0  0  0
  -29.8610  -13.9670   20.3150 N   0  0  0  0  0  0  0  0  0  0  0  0
  -31.6840  -15.2220   20.3560 O   0  0  0  0  0  0  0  0  0  0  0  0
  -30.3840  -17.9080   18.3000 C   0  0  0  0  0  2  0  0  0  0  0  0
  -31.1650  -18.3380   19.5380 C   0  0  0  0  0  2  0  0  0  0  0  0
  -29.5380  -16.6890   18.7630 C   0  0  0  0  0  2  0  0  0  0  0  0
  -30.0730  -18.1200   20.5640 C   0  0  0  0  0  3  0  0  0  0  0  0
  -29.7190  -16.5340   20.2270 N   0  0  0  0  0  0  0  0  0  0  0  0
  -25.2080  -13.8980   20.4920 C   0  0  0  0  0  0  0  0  0  0  0  0
  -24.1390  -13.1200   20.8320 C   0  0  0  0  0  0  0  0  0  0  0  0
  -24.6150  -11.7730   20.8320 C   0  0  0  0  0  0  0  0  0  0  0  0
  -26.2630  -13.0270   20.2770 N   0  0  0  0  0  0  0  0  0  0  0  0
  -25.9120  -11.7430   20.5520 N   0  0  0  0  0  0  0  0  0  0  0  0
  -23.8930  -10.5080   21.0170 C   0  0  0  0  0  0  0  0  0  0  0  0
  -24.3060   -9.5520   21.9720 C   0  0  0  0  0  3  0  0  0  0  0  0
  -23.5810   -8.3530   22.1460 C   0  0  0  0  0  3  0  0  0  0  0  0
  -22.4280   -8.1010   21.3610 C   0  0  0  0  0  0  0  0  0  0  0  0
  -22.0370   -9.0460   20.3940 C   0  0  0  0  0  3  0  0  0  0  0  0
  -22.7640  -10.2360   20.2200 C   0  0  0  0  0  3  0  0  0  0  0  0
  -21.6770   -6.9530   21.4430 O   0  0  0  0  0  0  0  0  0  0  0  0
  -21.6000   -6.2250   22.6050 C   0  0  0  0  0  0  0  0  0  0  0  0
  -21.1230   -6.7900   23.8080 C   0  0  0  0  0  3  0  0  0  0  0  0
  -20.9920   -5.9880   24.9590 C   0  0  0  0  0  3  0  0  0  0  0  0
  -21.3270   -4.6210   24.9100 C   0  0  0  0  0  0  0  0  0  0  0  0
  -21.7980   -4.0550   23.7110 C   0  0  0  0  0  3  0  0  0  0  0  0
  -21.9300   -4.8540   22.5610 C   0  0  0  0  0  0  0  0  0  0  0  0
  -22.3630   -4.3010   21.4030 F   0  0  0  0  0  0  0  0  0  0  0  0
  -21.1960   -3.8490   26.0120 F   0  0  0  0  0  0  0  0  0  0  0  0
  -22.7320  -13.5950   21.0530 C   0  0  0  0  0  0  0  0  0  0  0  0
  -21.9720  -12.9080   21.8980 N   0  0  0  0  0  0  0  0  0  0  0  0
  -22.3100  -14.6150   20.5100 O   0  0  0  0  0  0  0  0  0  0  0  0
  -22.3240  -12.0910   22.3730 H   0  0  0  0  0  0  0  0  0  0  0  0
  -21.0270  -13.2160   22.0800 H   0  0  0  0  0  0  0  0  0  0  0  0
  -25.3730  -15.2690   20.3240 N   0  0  0  0  0  0  0  0  0  0  0  0
  -24.6200  -15.9240   20.5070 H   0  0  0  0  0  0  0  0  0  0  0  0
  -26.2410  -15.7240   20.0780 H   0  0  0  0  0  0  0  0  0  0  0  0
  -28.6140  -22.8200   20.0270 C   0  0  0  0  0  2  0  0  0  0  0  0
  -28.3090  -24.4320   20.7380 C   0  0  0  0  0  2  0  0  0  0  0  0
  -28.2950  -25.9940   20.2480 O   0  0  0  0  0  0  0  0  0  0  0  0
  -24.6160  -31.8840   23.2140 C   0  0  0  0  0  0  0  0  0  0  0  0
  -27.2240  -27.0170   20.2850 C   0  0  0  0  0  0  0  0  0  0  0  0
  -23.4360  -30.4660   21.5840 C   0  0  0  0  0  3  0  0  0  0  0  0
  -24.9020  -28.8540   20.1930 C   0  0  0  0  0  0  0  0  0  0  0  0
  -26.0000  -30.7010   21.4460 C   0  0  0  0  0  2  0  0  0  0  0  0
  -26.0830  -29.2820   20.8160 C   0  0  0  0  0  0  0  0  0  0  0  0
  -27.2420  -28.3910   20.8300 C   0  0  0  0  0  3  0  0  0  0  0  0
  -26.0080  -26.7190   19.6290 C   0  0  0  0  0  3  0  0  0  0  0  0
  -24.8900  -27.5920   19.5720 C   0  0  0  0  0  3  0  0  0  0  0  0
  -23.6750  -29.7670   20.2170 C   0  0  0  0  0  2  0  0  0  0  0  0
  -24.7050  -31.0430   22.1330 N   0  0  0  0  0  0  0  0  0  0  0  0
  -23.5240  -32.1740   23.7260 O   0  0  0  0  0  0  0  0  0  0  0  0
  -22.7430  -29.4760   22.5550 C   0  0  0  0  0  0  0  0  0  0  0  0
  -21.4160  -29.3010   22.4240 N   0  0  0  0  0  0  0  0  0  0  0  0
  -23.4090  -28.8630   23.3940 O   0  0  0  0  0  0  0  0  0  0  0  0
  -20.9350  -29.8410   21.7200 H   0  0  0  0  0  0  0  0  0  0  0  0
  -18.0360  -28.0880   22.9240 C   0  0  0  0  0  0  0  0  0  0  0  0
  -20.5940  -28.3680   23.2000 C   0  0  0  0  0  3  0  0  0  0  0  0
  -20.7060  -26.9320   22.6350 C   0  0  0  0  0  2  0  0  0  0  0  0
  -19.6070  -26.5980   21.6210 C   0  0  0  0  0  2  0  0  0  0  0  0
  -18.2230  -26.7370   22.2570 C   0  0  0  0  0  2  0  0  0  0  0  0
  -19.1480  -28.8610   23.3550 C   0  0  0  0  0  0  0  0  0  0  0  0
  -18.9170  -30.1240   23.9430 C   0  0  0  0  0  3  0  0  0  0  0  0
  -17.6070  -30.6120   24.1080 C   0  0  0  0  0  3  0  0  0  0  0  0
  -16.5100  -29.8370   23.6940 C   0  0  0  0  0  3  0  0  0  0  0  0
  -16.7270  -28.5780   23.1070 C   0  0  0  0  0  3  0  0  0  0  0  0
  -25.8830  -32.5320   23.8520 C   0  0  0  0  0  3  0  0  0  0  0  0
  -26.3750  -31.7880   25.1550 C   0  0  1  0  0  0  0  0  0  0  0  0
  -25.2560  -31.5840   26.2050 C   0  0  0  0  0  1  0  0  0  0  0  0
  -26.9610  -30.4010   24.8090 C   0  0  0  0  0  1  0  0  0  0  0  0
  -27.5170  -32.5920   25.8220 C   0  0  0  0  0  1  0  0  0  0  0  0
  -25.5630  -33.9340   24.1610 N   0  0  0  0  0  0  0  0  0  0  0  0
  -25.9050  -34.9860   23.4050 C   0  0  0  0  0  0  0  0  0  0  0  0
  -26.5930  -34.8770   22.3880 O   0  0  0  0  0  0  0  0  0  0  0  0
  -24.9480  -34.0910   24.9470 H   0  0  0  0  0  0  0  0  0  0  0  0
  -24.1930  -36.7920   23.0170 C   0  0  0  0  0  1  0  0  0  0  0  0
  -25.4160  -36.3800   23.8510 C   0  0  0  0  0  3  0  0  0  0  0  0
  -27.5340  -37.2630   24.7260 C   0  0  0  0  0  1  0  0  0  0  0  0
  -26.4540  -37.4290   23.7580 N   0  0  0  0  0  0  0  0  0  0  0  0
  -26.0440  -38.3510   23.8900 H   0  0  0  0  0  0  0  0  0  0  0  0
  1 49  1  0
  1  2  1  0
  2  4  1  0
  2  5  1  0
  2  3  1  0
  6  1  1  0
  7  6  2  0
  9 14  1  0
 10 11  1  0
 10  9  1  0
 12 11  1  0
 12 24  1  0
 12 13  1  0
 14  8  1  0
 14 13  1  0
 15  8  2  0
 16 18  1  0
 16 17  1  0
 17 19  1  0
 18 20  1  0
 19  6  1  0
 20  8  1  0
 20 19  1  0
 21 22  2  0
 22 23  1  0
 22 41  1  0
 23 26  1  0
 24 21  1  0
 24 25  1  0
 25 23  2  0
 26 27  1  0
 27 28  2  0
 29 32  1  0
 29 28  1  0
 30 29  2  0
 31 30  1  0
 31 26  2  0
 32 33  1  0
 33 34  1  0
 34 35  2  0
 36 35  1  0
 36 40  1  0
 37 36  2  0
 38 33  2  0
 38 37  1  0
 39 38  1  0
 41 42  1  0
 42 45  1  0
 42 44  1  0
 43 41  2  0
 46 21  1  0
 46 47  1  0
 48 46  1  0
 49 50  1  0
 51 53  1  0
 51 50  1  0
 52 63  2  0
 53 58  1  0
 54 62  1  0
 54 64  1  0
 55 61  1  0
 55 57  1  0
 56 62  1  0
 57 58  2  0
 57 56  1  0
 59 53  2  0
 60 59  1  0
 60 55  2  0
 61 54  1  0
 62 52  1  0
 64 66  2  0
 65 64  1  0
 67 65  1  0
 68 77  2  0
 68 73  1  0
 69 65  1  0
 69 73  1  0
 70 69  1  0
 71 72  1  0
 71 70  1  0
 72 68  1  0
 73 74  2  0
 74 75  1  0
 76 75  2  0
 77 76  1  0
 78 52  1  0
 78 83  1  0
 78 79  1  0
 79 82  1  1
 79 80  1  0
 81 79  1  0
 83 86  1  0
 84 88  1  0
 84 83  1  0
 85 84  2  0
 88 87  1  0
 90 88  1  0
 90 91  1  0
 90 89  1  0
M  ISO  4   8 100  20 100  50 101  51 101
M  END
>  <TORSDO>  (71) 
F 20

>  <SCORE>  (71) 
-16.128

>  <name>  (71) 
74

>  <ligand_id>  (71) 
74

>  <original_smiles>  (71) 
[H]c1c([H])c([H])c2c(c1[H])C([H])([H])C([H])([H])C([H])([H])C2([H])N([H])C(=O)C1([H])N(C(=O)C([H])(N([H])C(=O)C([H])(N([H])C([H])([H])[H])C([H])([H])[H])C(C([H])([H])[H])(C([H])([H])[H])C([H])([H])[H])C([H])([H])c2c([H])c(OC([H])([H])C([H])([H])C([H])(C(=O)C3([H])N(C(=O)N4C([H])([H])C([H])([H])C([H])([H])C([H])(n5nc(-c6c([H])c([H])c(Oc7c([H])c([H])c(F)c([H])c7F)c([H])c6[H])c(C(=O)N([H])[H])c5N([H])[H])C4([H])[H])C([H])([H])C([H])([H])C3([H])[H])[N+]([H])([H])[H])c([H])c([H])c2C1([H])[H]

>  <smiles>  (71) 
[H]c1c([H])c([H])c2c(c1[H])C([H])([H])C([H])([H])C([H])([H])C2([H])N([H])C(=O)C1([H])N(C(=O)C([H])(N([H])C(=O)C([H])(N([H])C([H])([H])[H])C([H])([H])[H])C(C([H])([H])[H])(C([H])([H])[H])C([H])([H])[H])C([H])([H])c2c([H])c(OC([H])([H])C([H])([H])C([H])(C(=O)C3([H])N(C(=O)N4C([H])([H])C([H])([H])C([H])([H])C([H])(n5nc(-c6c([H])c([H])c(Oc7c([H])c([H])c(F)c([H])c7F)c([H])c6[H])c(C(=O)N([H])[H])c5N([H])[H])C4([H])[H])C([H])([H])C([H])([H])C3([H])[H])[N+]([H])([H])[H])c([H])c([H])c2C1([H])[H]

$$$$
75:0:0
     RDKit          3D

 95103  0  0  1  0  0  0  0  0999 V2000
  -29.6170  -23.8990   17.3300 C   0  0  0  0  0  3  0  0  0  0  0  0
  -29.1170  -25.0010   18.0590 C   0  0  0  0  0  3  0  0  0  0  0  0
  -28.6400  -23.4570   19.8580 C   0  0  0  0  0  3  0  0  0  0  0  0
  -29.6270  -22.5690   17.8190 C   0  0  0  0  0  0  0  0  0  0  0  0
  -29.1150  -22.2380   19.1050 C   0  0  0  0  0  0  0  0  0  0  0  0
  -28.6100  -24.8750   19.3630 C   0  0  0  0  0  0  0  0  0  0  0  0
  -30.1700  -21.4950   16.8890 C   0  0  0  0  0  1  0  0  0  0  0  0
  -28.3440  -26.1600   20.0420 O   0  0  0  0  0  0  0  0  0  0  0  0
  -24.3900  -31.5620   23.0880 C   0  0  0  0  0  0  0  0  0  0  0  0
  -27.2670  -27.1170   19.8930 C   0  0  0  0  0  0  0  0  0  0  0  0
  -23.3200  -30.2520   21.2920 C   0  0  0  0  0  3  0  0  0  0  0  0
  -24.8900  -28.8090   19.8410 C   0  0  0  0  0  0  0  0  0  0  0  0
  -25.8680  -30.5860   21.2910 C   0  0  0  0  0  2  0  0  0  0  0  0
  -26.0160  -29.2420   20.5490 C   0  0  0  0  0  0  0  0  0  0  0  0
  -27.1990  -28.4110   20.5630 C   0  0  0  0  0  3  0  0  0  0  0  0
  -26.1180  -26.7900   19.1450 C   0  0  0  0  0  3  0  0  0  0  0  0
  -24.9540  -27.5990   19.1250 C   0  0  0  0  0  3  0  0  0  0  0  0
  -23.6340  -29.6720   19.8850 C   0  0  0  0  0  2  0  0  0  0  0  0
  -24.5420  -30.8200   21.9480 N   0  0  0  0  0  0  0  0  0  0  0  0
  -23.2690  -31.7850   23.5730 O   0  0  0  0  0  0  0  0  0  0  0  0
  -22.6150  -29.1710   22.1490 C   0  0  0  0  0  0  0  0  0  0  0  0
  -21.2800  -29.0660   22.0300 N   0  0  0  0  0  0  0  0  0  0  0  0
  -23.2730  -28.4290   22.8840 O   0  0  0  0  0  0  0  0  0  0  0  0
  -20.8050  -29.7140   21.4170 H   0  0  0  0  0  0  0  0  0  0  0  0
  -17.8530  -28.0100   22.5460 C   0  0  0  0  0  0  0  0  0  0  0  0
  -20.4330  -28.0770   22.7040 C   0  0  0  0  0  3  0  0  0  0  0  0
  -20.4110  -26.7420   21.9250 C   0  0  0  0  0  2  0  0  0  0  0  0
  -19.2440  -26.6390   20.9380 C   0  0  0  0  0  2  0  0  0  0  0  0
  -17.9070  -26.7680   21.6720 C   0  0  0  0  0  2  0  0  0  0  0  0
  -19.0390  -28.6340   23.0170 C   0  0  0  0  0  0  0  0  0  0  0  0
  -18.9330  -29.8030   23.8000 C   0  0  0  0  0  3  0  0  0  0  0  0
  -17.6740  -30.3490   24.1120 C   0  0  0  0  0  3  0  0  0  0  0  0
  -16.5020  -29.7210   23.6550 C   0  0  0  0  0  3  0  0  0  0  0  0
  -16.5920  -28.5510   22.8790 C   0  0  0  0  0  3  0  0  0  0  0  0
  -25.6140  -32.1840   23.8280 C   0  0  0  0  0  3  0  0  0  0  0  0
  -25.2970  -33.5920   24.1190 N   0  0  0  0  0  0  0  0  0  0  0  0
  -25.6770  -34.6330   23.3660 C   0  0  0  0  0  0  0  0  0  0  0  0
  -26.3980  -34.5080   22.3730 O   0  0  0  0  0  0  0  0  0  0  0  0
  -24.6640  -33.7620   24.8870 H   0  0  0  0  0  0  0  0  0  0  0  0
  -23.9660  -36.4250   22.9250 C   0  0  0  0  0  1  0  0  0  0  0  0
  -25.1830  -36.0340   23.7800 C   0  0  0  0  0  3  0  0  0  0  0  0
  -27.2850  -36.9470   24.6650 C   0  0  0  0  0  1  0  0  0  0  0  0
  -26.2220  -37.0820   23.6710 N   0  0  0  0  0  0  0  0  0  0  0  0
  -25.8120  -38.0080   23.7710 H   0  0  0  0  0  0  0  0  0  0  0  0
  -25.9840  -31.4220   25.1610 C   0  0  1  0  0  0  0  0  0  0  0  0
  -24.7880  -31.2310   26.1230 C   0  0  0  0  0  1  0  0  0  0  0  0
  -26.5660  -30.0230   24.8520 C   0  0  0  0  0  1  0  0  0  0  0  0
  -27.0860  -32.1980   25.9200 C   0  0  0  0  0  1  0  0  0  0  0  0
  -28.9190  -20.5960   19.4310 C   0  0  0  0  0  3  0  0  0  0  0  0
  -30.0520  -19.4090   19.9480 C   0  0  0  0  0  2  0  0  0  0  0  0
  -30.2530  -17.8020   19.3810 C   0  0  0  0  0  2  0  0  0  0  0  0
  -31.0440  -15.1710   19.9840 C   0  0  0  0  0  0  0  0  0  0  0  0
  -30.8600  -12.7380   19.2630 C   0  0  0  0  0  2  0  0  0  0  0  0
  -29.9120  -12.6270   18.0440 C   0  0  0  0  0  2  0  0  0  0  0  0
  -28.4490  -12.4900   18.5060 C   0  0  0  0  0  2  0  0  0  0  0  0
  -28.0880  -13.5090   19.6180 C   0  0  0  0  0  3  0  0  0  0  0  0
  -29.1580  -13.5780   20.7310 C   0  0  0  0  0  2  0  0  0  0  0  0
  -30.4330  -13.9140   20.0850 N   0  0  0  0  0  0  0  0  0  0  0  0
  -32.2140  -15.1800   19.5840 O   0  0  0  0  0  0  0  0  0  0  0  0
  -30.3030  -16.3900   20.1420 N   0  0  0  0  0  0  0  0  0  0  0  0
  -29.4360  -16.2040   20.6250 H   0  0  0  0  0  0  0  0  0  0  0  0
  -25.8000  -14.2300   20.5040 C   0  0  0  0  0  0  0  0  0  0  0  0
  -24.6860  -13.5240   20.8660 C   0  0  0  0  0  0  0  0  0  0  0  0
  -25.0250  -12.1450   20.7130 C   0  0  0  0  0  0  0  0  0  0  0  0
  -26.7490  -13.2860   20.1510 N   0  0  0  0  0  0  0  0  0  0  0  0
  -26.2940  -12.0200   20.3410 N   0  0  0  0  0  0  0  0  0  0  0  0
  -24.1940  -10.9390   20.8420 C   0  0  0  0  0  0  0  0  0  0  0  0
  -24.5880   -9.8520   21.6510 C   0  0  0  0  0  3  0  0  0  0  0  0
  -23.7600   -8.7150   21.7750 C   0  0  0  0  0  3  0  0  0  0  0  0
  -22.5230   -8.6590   21.0910 C   0  0  0  0  0  0  0  0  0  0  0  0
  -22.1460   -9.7340   20.2680 C   0  0  0  0  0  3  0  0  0  0  0  0
  -22.9740  -10.8620   20.1400 C   0  0  0  0  0  3  0  0  0  0  0  0
  -21.6670   -7.5850   21.1310 O   0  0  0  0  0  0  0  0  0  0  0  0
  -21.5690   -6.7840   22.2410 C   0  0  0  0  0  0  0  0  0  0  0  0
  -21.1860   -7.2980   23.4990 C   0  0  0  0  0  3  0  0  0  0  0  0
  -21.0290   -6.4290   24.5970 C   0  0  0  0  0  3  0  0  0  0  0  0
  -21.2450   -5.0480   24.4380 C   0  0  0  0  0  0  0  0  0  0  0  0
  -21.6210   -4.5330   23.1850 C   0  0  0  0  0  3  0  0  0  0  0  0
  -21.7790   -5.3990   22.0890 C   0  0  0  0  0  0  0  0  0  0  0  0
  -22.1210   -4.8940   20.8790 F   0  0  0  0  0  0  0  0  0  0  0  0
  -21.0870   -4.2110   25.4900 F   0  0  0  0  0  0  0  0  0  0  0  0
  -23.3500  -14.0990   21.2340 C   0  0  0  0  0  0  0  0  0  0  0  0
  -22.6180  -13.4310   22.1180 N   0  0  0  0  0  0  0  0  0  0  0  0
  -22.9700  -15.1770   20.7760 O   0  0  0  0  0  0  0  0  0  0  0  0
  -22.9400  -12.5590   22.5090 H   0  0  0  0  0  0  0  0  0  0  0  0
  -21.7220  -13.7980   22.4080 H   0  0  0  0  0  0  0  0  0  0  0  0
  -26.0800  -15.5910   20.4210 N   0  0  0  0  0  0  0  0  0  0  0  0
  -25.3730  -16.2960   20.6060 H   0  0  0  0  0  0  0  0  0  0  0  0
  -26.9380  -15.9780   20.0500 H   0  0  0  0  0  0  0  0  0  0  0  0
  -27.5820  -20.3620   20.1810 C   0  0  0  0  0  2  0  0  0  0  0  0
  -26.2960  -20.6480   19.3650 C   0  0  0  0  0  2  0  0  0  0  0  0
  -26.0190  -22.0800   19.1600 N   0  0  0  0  0  4  0  0  0  0  0  0
  -25.8350  -22.5380   20.0360 H   0  0  0  0  0  0  0  0  0  0  0  0
  -25.2040  -22.1870   18.5800 H   0  0  0  0  0  0  0  0  0  0  0  0
  -26.7920  -22.5340   18.7030 H   0  0  0  0  0  0  0  0  0  0  0  0
  1  4  2  0
  1  2  1  0
  2  6  2  0
  4  5  1  0
  5 49  1  0
  5  3  2  0
  6  3  1  0
  6  8  1  0
  7  4  1  0
  9 20  2  0
 10  8  1  0
 10 15  1  0
 11 19  1  0
 11 21  1  0
 12 18  1  0
 12 14  1  0
 13 19  1  0
 14 15  2  0
 14 13  1  0
 16 10  2  0
 17 16  1  0
 17 12  2  0
 18 11  1  0
 19  9  1  0
 21 23  2  0
 22 21  1  0
 24 22  1  0
 25 34  2  0
 25 30  1  0
 26 22  1  0
 26 30  1  0
 27 26  1  0
 28 29  1  0
 28 27  1  0
 29 25  1  0
 30 31  2  0
 31 32  1  0
 33 32  2  0
 34 33  1  0
 35  9  1  0
 35 36  1  0
 35 45  1  0
 36 39  1  0
 37 41  1  0
 37 36  1  0
 38 37  2  0
 41 40  1  0
 43 44  1  0
 43 41  1  0
 43 42  1  0
 45 48  1  1
 45 46  1  0
 47 45  1  0
 49 50  1  0
 49 90  1  0
 51 50  1  0
 51 60  1  0
 52 58  1  0
 52 60  1  0
 53 58  1  0
 54 55  1  0
 54 53  1  0
 56 55  1  0
 56 65  1  0
 56 57  1  0
 58 57  1  0
 59 52  2  0
 60 61  1  0
 62 63  2  0
 63 82  1  0
 64 67  1  0
 64 63  1  0
 65 66  1  0
 65 62  1  0
 66 64  2  0
 67 68  1  0
 68 69  2  0
 70 73  1  0
 70 69  1  0
 71 70  2  0
 72 71  1  0
 72 67  2  0
 73 74  1  0
 74 75  1  0
 75 76  2  0
 77 76  1  0
 77 81  1  0
 78 77  2  0
 79 74  2  0
 79 78  1  0
 80 79  1  0
 82 83  1  0
 83 86  1  0
 83 85  1  0
 84 82  2  0
 87 62  1  0
 87 88  1  0
 89 87  1  0
 91 90  1  0
 92 91  1  0
 92 93  1  0
 94 92  1  0
 95 92  1  0
M  ISO  4   6 101   8 101  52 100  60 100
M  END
>  <TORSDO>  (72) 
F 22

>  <SCORE>  (72) 
-12.222

>  <name>  (72) 
75

>  <ligand_id>  (72) 
75

>  <original_smiles>  (72) 
[H]c1c([H])c([H])c2c(c1[H])C([H])([H])C([H])([H])C([H])([H])C2([H])N([H])C(=O)C1([H])N(C(=O)C([H])(N([H])C(=O)C([H])(N([H])C([H])([H])[H])C([H])([H])[H])C(C([H])([H])[H])(C([H])([H])[H])C([H])([H])[H])C([H])([H])c2c([H])c(Oc3c([H])c([H])c(C([H])([H])[H])c(C([H])(C([H])([H])C([H])([H])N([H])C(=O)N4C([H])([H])C([H])([H])C([H])([H])C([H])(n5nc(-c6c([H])c([H])c(Oc7c([H])c([H])c(F)c([H])c7F)c([H])c6[H])c(C(=O)N([H])[H])c5N([H])[H])C4([H])[H])C([H])([H])C([H])([H])[N+]([H])([H])[H])c3[H])c([H])c([H])c2C1([H])[H]

>  <smiles>  (72) 
[H]c1c([H])c([H])c2c(c1[H])C([H])([H])C([H])([H])C([H])([H])C2([H])N([H])C(=O)C1([H])N(C(=O)C([H])(N([H])C(=O)C([H])(N([H])C([H])([H])[H])C([H])([H])[H])C(C([H])([H])[H])(C([H])([H])[H])C([H])([H])[H])C([H])([H])c2c([H])c(Oc3c([H])c([H])c(C([H])([H])[H])c(C([H])(C([H])([H])C([H])([H])N([H])C(=O)N4C([H])([H])C([H])([H])C([H])([H])C([H])(n5nc(-c6c([H])c([H])c(Oc7c([H])c([H])c(F)c([H])c7F)c([H])c6[H])c(C(=O)N([H])[H])c5N([H])[H])C4([H])[H])C([H])([H])C([H])([H])[N+]([H])([H])[H])c3[H])c([H])c([H])c2C1([H])[H]

$$$$
76:0:0
     RDKit          3D

 92100  0  0  1  0  0  0  0  0999 V2000
  -29.2800  -21.1680   20.2040 C   0  0  0  0  0  3  0  0  0  0  0  0
  -31.9370  -19.3520   18.9240 C   0  0  0  0  0  2  0  0  0  0  0  0
  -31.7120  -19.9830   20.2980 C   0  0  0  0  0  2  0  0  0  0  0  0
  -31.1770  -18.0180   18.9070 C   0  0  0  0  0  2  0  0  0  0  0  0
  -30.2440  -19.7030   20.6260 C   0  0  0  0  0  3  0  0  0  0  0  0
  -30.1950  -18.0090   20.1000 C   0  0  0  0  0  3  0  0  0  0  0  0
  -30.9850  -15.2430   20.7870 C   0  0  0  0  0  0  0  0  0  0  0  0
  -30.9250  -12.7430   20.1530 C   0  0  0  0  0  2  0  0  0  0  0  0
  -30.1800  -12.5280   18.8080 C   0  0  0  0  0  2  0  0  0  0  0  0
  -28.6700  -12.3560   19.0570 C   0  0  0  0  0  2  0  0  0  0  0  0
  -28.1260  -13.4040   20.0660 C   0  0  0  0  0  3  0  0  0  0  0  0
  -29.0290  -13.5880   21.3100 C   0  0  0  0  0  2  0  0  0  0  0  0
  -30.3700  -13.9630   20.8340 N   0  0  0  0  0  0  0  0  0  0  0  0
  -32.2010  -15.1980   20.5500 O   0  0  0  0  0  0  0  0  0  0  0  0
  -30.2660  -16.5210   20.8380 N   0  0  0  0  0  0  0  0  0  0  0  0
  -29.3690  -16.3390   21.2710 H   0  0  0  0  0  0  0  0  0  0  0  0
  -25.7190  -14.1010   20.5610 C   0  0  0  0  0  0  0  0  0  0  0  0
  -24.5810  -13.3930   20.8300 C   0  0  0  0  0  0  0  0  0  0  0  0
  -24.9670  -12.0170   20.8550 C   0  0  0  0  0  0  0  0  0  0  0  0
  -26.7310  -13.1660   20.4280 N   0  0  0  0  0  0  0  0  0  0  0  0
  -26.2820  -11.9070   20.6780 N   0  0  0  0  0  0  0  0  0  0  0  0
  -24.1480  -10.8010   20.9840 C   0  0  0  0  0  0  0  0  0  0  0  0
  -24.4900   -9.7770   21.8950 C   0  0  0  0  0  3  0  0  0  0  0  0
  -23.6760   -8.6300   22.0190 C   0  0  0  0  0  3  0  0  0  0  0  0
  -22.5100   -8.4970   21.2270 C   0  0  0  0  0  0  0  0  0  0  0  0
  -22.1900   -9.5060   20.3030 C   0  0  0  0  0  3  0  0  0  0  0  0
  -23.0040  -10.6450   20.1770 C   0  0  0  0  0  3  0  0  0  0  0  0
  -21.6770   -7.4050   21.2540 O   0  0  0  0  0  0  0  0  0  0  0  0
  -21.6170   -6.5720   22.3440 C   0  0  0  0  0  0  0  0  0  0  0  0
  -21.3100   -7.0560   23.6340 C   0  0  0  0  0  3  0  0  0  0  0  0
  -21.1910   -6.1560   24.7120 C   0  0  0  0  0  3  0  0  0  0  0  0
  -21.3720   -4.7770   24.5020 C   0  0  0  0  0  0  0  0  0  0  0  0
  -21.6740   -4.2930   23.2170 C   0  0  0  0  0  3  0  0  0  0  0  0
  -21.7940   -5.1890   22.1410 C   0  0  0  0  0  0  0  0  0  0  0  0
  -22.0670   -4.7200   20.8990 F   0  0  0  0  0  0  0  0  0  0  0  0
  -21.2480   -3.9100   25.5350 F   0  0  0  0  0  0  0  0  0  0  0  0
  -23.1960  -13.9530   20.9500 C   0  0  0  0  0  0  0  0  0  0  0  0
  -22.3470  -13.3380   21.7630 N   0  0  0  0  0  0  0  0  0  0  0  0
  -22.8710  -14.9780   20.3540 O   0  0  0  0  0  0  0  0  0  0  0  0
  -22.6230  -12.5150   22.2780 H   0  0  0  0  0  0  0  0  0  0  0  0
  -21.4080  -13.6930   21.8720 H   0  0  0  0  0  0  0  0  0  0  0  0
  -25.9670  -15.4600   20.3970 N   0  0  0  0  0  0  0  0  0  0  0  0
  -25.2120  -16.1370   20.3970 H   0  0  0  0  0  0  0  0  0  0  0  0
  -26.8660  -15.8620   20.1670 H   0  0  0  0  0  0  0  0  0  0  0  0
  -28.3940  -20.8270   19.0650 N   0  0  0  0  0  4  0  0  0  0  0  0
  -28.2940  -21.6390   18.4770 H   0  0  0  0  0  0  0  0  0  0  0  0
  -28.8520  -20.1210   18.5090 H   0  0  0  0  0  0  0  0  0  0  0  0
  -26.1960  -19.8960   18.2580 C   0  0  0  0  0  1  0  0  0  0  0  0
  -27.0450  -20.3480   19.4540 C   0  0  0  0  0  2  0  0  0  0  0  0
  -29.5410  -22.9410   20.2270 C   0  0  0  0  0  3  0  0  0  0  0  0
  -28.4020  -24.3230   20.1940 C   0  0  0  0  0  3  0  0  0  0  0  0
  -28.5310  -25.9530   20.1990 O   0  0  0  0  0  0  0  0  0  0  0  0
  -24.5880  -31.7000   23.0330 C   0  0  0  0  0  0  0  0  0  0  0  0
  -27.4300  -26.9480   20.1290 C   0  0  0  0  0  0  0  0  0  0  0  0
  -23.4790  -30.2170   21.4070 C   0  0  0  0  0  3  0  0  0  0  0  0
  -25.0190  -28.6680   20.0290 C   0  0  0  0  0  0  0  0  0  0  0  0
  -26.0270  -30.5700   21.2710 C   0  0  0  0  0  2  0  0  0  0  0  0
  -26.1760  -29.1570   20.6460 C   0  0  0  0  0  0  0  0  0  0  0  0
  -27.3760  -28.3210   20.6630 C   0  0  0  0  0  3  0  0  0  0  0  0
  -26.2300  -26.5950   19.4670 C   0  0  0  0  0  3  0  0  0  0  0  0
  -25.0680  -27.4050   19.4190 C   0  0  0  0  0  3  0  0  0  0  0  0
  -23.7550  -29.5230   20.0460 C   0  0  0  0  0  2  0  0  0  0  0  0
  -24.7170  -30.8570   21.9590 N   0  0  0  0  0  0  0  0  0  0  0  0
  -23.4830  -31.9430   23.5430 O   0  0  0  0  0  0  0  0  0  0  0  0
  -22.8270  -29.2030   22.3850 C   0  0  0  0  0  0  0  0  0  0  0  0
  -21.5080  -28.9740   22.2600 N   0  0  0  0  0  0  0  0  0  0  0  0
  -23.5170  -28.6210   23.2240 O   0  0  0  0  0  0  0  0  0  0  0  0
  -21.0000  -29.4900   21.5560 H   0  0  0  0  0  0  0  0  0  0  0  0
  -18.1810  -27.6200   22.7670 C   0  0  0  0  0  0  0  0  0  0  0  0
  -20.7240  -28.0120   23.0410 C   0  0  0  0  0  3  0  0  0  0  0  0
  -20.8970  -26.5760   22.4910 C   0  0  0  0  0  2  0  0  0  0  0  0
  -19.8190  -26.1870   21.4740 C   0  0  0  0  0  2  0  0  0  0  0  0
  -18.4260  -26.2730   22.1050 C   0  0  0  0  0  2  0  0  0  0  0  0
  -19.2600  -28.4430   23.1890 C   0  0  0  0  0  0  0  0  0  0  0  0
  -18.9740  -29.6980   23.7690 C   0  0  0  0  0  3  0  0  0  0  0  0
  -17.6440  -30.1350   23.9240 C   0  0  0  0  0  3  0  0  0  0  0  0
  -16.5810  -29.3120   23.5160 C   0  0  0  0  0  3  0  0  0  0  0  0
  -16.8500  -28.0550   22.9440 C   0  0  0  0  0  3  0  0  0  0  0  0
  -25.8220  -32.4140   23.6610 C   0  0  0  0  0  3  0  0  0  0  0  0
  -25.4270  -33.7930   24.0000 N   0  0  0  0  0  0  0  0  0  0  0  0
  -25.7480  -34.8820   23.2880 C   0  0  0  0  0  0  0  0  0  0  0  0
  -26.4730  -34.8330   22.2910 O   0  0  0  0  0  0  0  0  0  0  0  0
  -24.7840  -33.8980   24.7710 H   0  0  0  0  0  0  0  0  0  0  0  0
  -23.9610  -36.6130   22.8870 C   0  0  0  0  0  1  0  0  0  0  0  0
  -25.1750  -36.2360   23.7500 C   0  0  0  0  0  3  0  0  0  0  0  0
  -27.2190  -37.2000   24.7130 C   0  0  0  0  0  1  0  0  0  0  0  0
  -26.1610  -37.3380   23.7160 N   0  0  0  0  0  0  0  0  0  0  0  0
  -25.7040  -38.2340   23.8630 H   0  0  0  0  0  0  0  0  0  0  0  0
  -26.3760  -31.6760   24.9440 C   0  0  1  0  0  0  0  0  0  0  0  0
  -25.2910  -31.3640   26.0020 C   0  0  0  0  0  1  0  0  0  0  0  0
  -27.0580  -30.3410   24.5650 C   0  0  0  0  0  1  0  0  0  0  0  0
  -27.4560  -32.5460   25.6260 C   0  0  0  0  0  1  0  0  0  0  0  0
  1 50  1  0
  2  3  1  0
  3  5  1  0
  4  2  1  0
  4  6  1  0
  5  1  1  0
  6  5  1  0
  6 15  1  0
  7 13  1  0
  7 15  1  0
  8 13  1  0
  9 10  1  0
  9  8  1  0
 11 10  1  0
 11 20  1  0
 11 12  1  0
 13 12  1  0
 14  7  2  0
 15 16  1  0
 17 18  2  0
 18 19  1  0
 18 37  1  0
 19 22  1  0
 20 17  1  0
 20 21  1  0
 21 19  2  0
 22 23  1  0
 23 24  2  0
 25 28  1  0
 25 24  1  0
 26 25  2  0
 27 26  1  0
 27 22  2  0
 28 29  1  0
 29 30  1  0
 30 31  2  0
 32 31  1  0
 32 36  1  0
 33 32  2  0
 34 29  2  0
 34 33  1  0
 35 34  1  0
 37 38  1  0
 38 41  1  0
 38 40  1  0
 39 37  2  0
 42 17  1  0
 43 42  1  0
 44 42  1  0
 45 49  1  0
 45  1  1  0
 46 45  1  0
 47 45  1  0
 48 49  1  0
 51 52  1  0
 51 50  2  0
 53 64  2  0
 54 52  1  0
 54 59  1  0
 55 63  1  0
 55 65  1  0
 56 62  1  0
 56 58  1  0
 57 63  1  0
 58 59  2  0
 58 57  1  0
 60 54  2  0
 61 60  1  0
 61 56  2  0
 62 55  1  0
 63 53  1  0
 65 67  2  0
 66 65  1  0
 68 66  1  0
 69 78  2  0
 69 74  1  0
 70 66  1  0
 70 74  1  0
 71 70  1  0
 72 73  1  0
 72 71  1  0
 73 69  1  0
 74 75  2  0
 75 76  1  0
 77 76  2  0
 78 77  1  0
 79 53  1  0
 79 80  1  0
 79 89  1  0
 80 83  1  0
 81 85  1  0
 81 80  1  0
 82 81  2  0
 85 84  1  0
 87 85  1  0
 87 88  1  0
 87 86  1  0
 89 92  1  1
 89 90  1  0
 91 89  1  0
M  ISO  4   7 100  15 100  51 101  52 101
M  END
>  <TORSDO>  (73) 
F 21

>  <SCORE>  (73) 
-13.708

>  <name>  (73) 
76

>  <ligand_id>  (73) 
76

>  <original_smiles>  (73) 
[H]c1c([H])c([H])c2c(c1[H])C([H])([H])C([H])([H])C([H])([H])C2([H])N([H])C(=O)C1([H])N(C(=O)C([H])(N([H])C(=O)C([H])(N([H])C([H])([H])[H])C([H])([H])[H])C(C([H])([H])[H])(C([H])([H])[H])C([H])([H])[H])C([H])([H])c2c([H])c(OC([H])([H])C([H])([H])C([H])(C3([H])C([H])([H])C([H])([H])C([H])([H])C3([H])N([H])C(=O)N3C([H])([H])C([H])([H])C([H])([H])C([H])(n4nc(-c5c([H])c([H])c(Oc6c([H])c([H])c(F)c([H])c6F)c([H])c5[H])c(C(=O)N([H])[H])c4N([H])[H])C3([H])[H])[N+]([H])([H])C([H])([H])C([H])([H])[H])c([H])c([H])c2C1([H])[H]

>  <smiles>  (73) 
[H]c1c([H])c([H])c2c(c1[H])C([H])([H])C([H])([H])C([H])([H])C2([H])N([H])C(=O)C1([H])N(C(=O)C([H])(N([H])C(=O)C([H])(N([H])C([H])([H])[H])C([H])([H])[H])C(C([H])([H])[H])(C([H])([H])[H])C([H])([H])[H])C([H])([H])c2c([H])c(OC([H])([H])C([H])([H])C([H])(C3([H])C([H])([H])C([H])([H])C([H])([H])C3([H])N([H])C(=O)N3C([H])([H])C([H])([H])C([H])([H])C([H])(n4nc(-c5c([H])c([H])c(Oc6c([H])c([H])c(F)c([H])c6F)c([H])c5[H])c(C(=O)N([H])[H])c4N([H])[H])C3([H])[H])[N+]([H])([H])C([H])([H])C([H])([H])[H])c([H])c([H])c2C1([H])[H]

$$$$
77:0:0
     RDKit          3D

 89 96  0  0  1  0  0  0  0  0999 V2000
  -29.3200  -24.3400   20.4390 C   0  0  0  0  0  0  0  0  0  0  0  0
  -29.1230  -23.0090   20.3400 N   0  0  0  0  0  0  0  0  0  0  0  0
  -30.3230  -24.8240   20.9690 O   0  0  0  0  0  0  0  0  0  0  0  0
  -28.2690  -22.7160   19.8820 H   0  0  0  0  0  0  0  0  0  0  0  0
  -28.2060  -25.2360   19.8610 C   0  0  0  0  0  2  0  0  0  0  0  0
  -28.3570  -26.6420   20.1770 O   0  0  0  0  0  0  0  0  0  0  0  0
  -24.5850  -31.8720   23.2400 C   0  0  0  0  0  0  0  0  0  0  0  0
  -27.2010  -27.4110   20.1340 C   0  0  0  0  0  0  0  0  0  0  0  0
  -23.3710  -30.4790   21.6010 C   0  0  0  0  0  3  0  0  0  0  0  0
  -24.8140  -28.9490   20.1600 C   0  0  0  0  0  0  0  0  0  0  0  0
  -25.9000  -30.8250   21.3970 C   0  0  0  0  0  2  0  0  0  0  0  0
  -25.9790  -29.4560   20.7500 C   0  0  0  0  0  0  0  0  0  0  0  0
  -27.1740  -28.6940   20.7360 C   0  0  0  0  0  3  0  0  0  0  0  0
  -26.0140  -26.9420   19.5160 C   0  0  0  0  0  3  0  0  0  0  0  0
  -24.8290  -27.6920   19.5390 C   0  0  0  0  0  3  0  0  0  0  0  0
  -23.5720  -29.8110   20.2170 C   0  0  0  0  0  2  0  0  0  0  0  0
  -24.6380  -31.0730   22.1370 N   0  0  0  0  0  0  0  0  0  0  0  0
  -23.5070  -32.1460   23.7840 O   0  0  0  0  0  0  0  0  0  0  0  0
  -22.7230  -29.4530   22.5590 C   0  0  0  0  0  0  0  0  0  0  0  0
  -21.3980  -29.2720   22.4380 N   0  0  0  0  0  0  0  0  0  0  0  0
  -23.4090  -28.8240   23.3700 O   0  0  0  0  0  0  0  0  0  0  0  0
  -20.9040  -29.8330   21.7560 H   0  0  0  0  0  0  0  0  0  0  0  0
  -18.0250  -28.0790   22.9450 C   0  0  0  0  0  0  0  0  0  0  0  0
  -20.5830  -28.3340   23.2100 C   0  0  0  0  0  3  0  0  0  0  0  0
  -20.6830  -26.9040   22.6300 C   0  0  0  0  0  2  0  0  0  0  0  0
  -19.5760  -26.5840   21.6200 C   0  0  0  0  0  2  0  0  0  0  0  0
  -18.1970  -26.7290   22.2690 C   0  0  0  0  0  2  0  0  0  0  0  0
  -19.1450  -28.8390   23.3740 C   0  0  0  0  0  0  0  0  0  0  0  0
  -18.9290  -30.1020   23.9660 C   0  0  0  0  0  3  0  0  0  0  0  0
  -17.6260  -30.6050   24.1360 C   0  0  0  0  0  3  0  0  0  0  0  0
  -16.5200  -29.8420   23.7250 C   0  0  0  0  0  3  0  0  0  0  0  0
  -16.7200  -28.5800   23.1350 C   0  0  0  0  0  3  0  0  0  0  0  0
  -25.8750  -32.5020   23.8540 C   0  0  0  0  0  3  0  0  0  0  0  0
  -25.5660  -33.8960   24.1960 N   0  0  0  0  0  0  0  0  0  0  0  0
  -25.8800  -34.9530   23.4350 C   0  0  0  0  0  0  0  0  0  0  0  0
  -26.5330  -34.8580   22.3930 O   0  0  0  0  0  0  0  0  0  0  0  0
  -24.9840  -34.0440   25.0080 H   0  0  0  0  0  0  0  0  0  0  0  0
  -24.1310  -36.7340   23.1260 C   0  0  0  0  0  1  0  0  0  0  0  0
  -25.3940  -36.3370   23.9060 C   0  0  0  0  0  3  0  0  0  0  0  0
  -27.5420  -37.2340   24.6870 C   0  0  0  0  0  1  0  0  0  0  0  0
  -26.4160  -37.3970   23.7710 N   0  0  0  0  0  0  0  0  0  0  0  0
  -26.0060  -38.3140   23.9320 H   0  0  0  0  0  0  0  0  0  0  0  0
  -26.4050  -31.7210   25.1180 C   0  0  1  0  0  0  0  0  0  0  0  0
  -25.3220  -31.4720   26.1940 C   0  0  0  0  0  1  0  0  0  0  0  0
  -26.9880  -30.3480   24.7080 C   0  0  0  0  0  1  0  0  0  0  0  0
  -27.5590  -32.5120   25.7770 C   0  0  0  0  0  1  0  0  0  0  0  0
  -29.9950  -21.9430   20.8530 C   0  0  0  0  0  2  0  0  0  0  0  0
  -29.4380  -20.5280   20.5370 C   0  0  0  0  0  2  0  0  0  0  0  0
  -30.2930  -19.3630   21.1000 C   0  0  0  0  0  2  0  0  0  0  0  0
  -29.7520  -17.9420   20.7850 C   0  0  0  0  0  2  0  0  0  0  0  0
  -30.6310  -16.8070   21.3730 C   0  0  0  0  0  2  0  0  0  0  0  0
  -30.7320  -14.4520   20.4810 C   0  0  0  0  0  0  0  0  0  0  0  0
  -30.4070  -12.2920   19.3300 C   0  0  0  0  0  2  0  0  0  0  0  0
  -29.4830  -12.4860   18.1110 C   0  0  0  0  0  2  0  0  0  0  0  0
  -28.0030  -12.3710   18.5250 C   0  0  0  0  0  2  0  0  0  0  0  0
  -27.6580  -13.2300   19.7700 C   0  0  0  0  0  3  0  0  0  0  0  0
  -28.6960  -13.0140   20.8950 C   0  0  0  0  0  2  0  0  0  0  0  0
  -30.0310  -13.2930   20.3410 N   0  0  0  0  0  0  0  0  0  0  0  0
  -31.8450  -14.6220   19.9770 O   0  0  0  0  0  0  0  0  0  0  0  0
  -30.1000  -15.4530   21.1210 N   0  0  0  0  0  0  0  0  0  0  0  0
  -29.1820  -15.2400   21.4860 H   0  0  0  0  0  0  0  0  0  0  0  0
  -25.2550  -13.8710   20.4340 C   0  0  0  0  0  0  0  0  0  0  0  0
  -24.1740  -13.1140   20.7990 C   0  0  0  0  0  0  0  0  0  0  0  0
  -24.6230  -11.7580   20.7970 C   0  0  0  0  0  0  0  0  0  0  0  0
  -26.2950  -12.9760   20.2330 N   0  0  0  0  0  0  0  0  0  0  0  0
  -25.9170  -11.7010   20.5080 N   0  0  0  0  0  0  0  0  0  0  0  0
  -23.8800  -10.5070   20.9960 C   0  0  0  0  0  0  0  0  0  0  0  0
  -24.2990   -9.5420   21.9390 C   0  0  0  0  0  3  0  0  0  0  0  0
  -23.5610   -8.3540   22.1260 C   0  0  0  0  0  3  0  0  0  0  0  0
  -22.3870   -8.1230   21.3700 C   0  0  0  0  0  0  0  0  0  0  0  0
  -21.9870   -9.0760   20.4160 C   0  0  0  0  0  3  0  0  0  0  0  0
  -22.7280  -10.2550   20.2280 C   0  0  0  0  0  3  0  0  0  0  0  0
  -21.6190   -6.9870   21.4650 O   0  0  0  0  0  0  0  0  0  0  0  0
  -21.5660   -6.2480   22.6200 C   0  0  0  0  0  0  0  0  0  0  0  0
  -21.1660   -6.8150   23.8490 C   0  0  0  0  0  3  0  0  0  0  0  0
  -21.0600   -6.0040   24.9960 C   0  0  0  0  0  3  0  0  0  0  0  0
  -21.3440   -4.6270   24.9150 C   0  0  0  0  0  0  0  0  0  0  0  0
  -21.7370   -4.0600   23.6900 C   0  0  0  0  0  3  0  0  0  0  0  0
  -21.8450   -4.8680   22.5460 C   0  0  0  0  0  0  0  0  0  0  0  0
  -22.2050   -4.3130   21.3630 F   0  0  0  0  0  0  0  0  0  0  0  0
  -21.2330   -3.8470   26.0160 F   0  0  0  0  0  0  0  0  0  0  0  0
  -22.7780  -13.6100   21.0450 C   0  0  0  0  0  0  0  0  0  0  0  0
  -22.0320  -12.9360   21.9140 N   0  0  0  0  0  0  0  0  0  0  0  0
  -22.3560  -14.6310   20.5020 O   0  0  0  0  0  0  0  0  0  0  0  0
  -22.3860  -12.1120   22.3770 H   0  0  0  0  0  0  0  0  0  0  0  0
  -21.0950  -13.2500   22.1220 H   0  0  0  0  0  0  0  0  0  0  0  0
  -25.4370  -15.2370   20.2370 N   0  0  0  0  0  0  0  0  0  0  0  0
  -24.6790  -15.9040   20.3290 H   0  0  0  0  0  0  0  0  0  0  0  0
  -26.3010  -15.6600   19.9230 H   0  0  0  0  0  0  0  0  0  0  0  0
  1  3  2  0
  2  1  1  0
  2 47  1  0
  4  2  1  0
  5  6  1  0
  5  1  1  0
  7 18  2  0
  8  6  1  0
  8 13  1  0
  9 17  1  0
  9 19  1  0
 10 16  1  0
 10 12  1  0
 11 17  1  0
 12 11  1  0
 13 12  2  0
 14 15  1  0
 14  8  2  0
 15 10  2  0
 16  9  1  0
 17  7  1  0
 19 21  2  0
 20 19  1  0
 22 20  1  0
 23 32  2  0
 23 28  1  0
 24 20  1  0
 24 28  1  0
 25 24  1  0
 26 27  1  0
 26 25  1  0
 27 23  1  0
 28 29  2  0
 29 30  1  0
 31 30  2  0
 32 31  1  0
 33  7  1  0
 33 34  1  0
 33 43  1  0
 34 37  1  0
 35 39  1  0
 35 34  1  0
 36 35  2  0
 39 38  1  0
 41 39  1  0
 41 42  1  0
 41 40  1  0
 43 46  1  1
 43 44  1  0
 45 43  1  0
 48 47  1  0
 48 49  1  0
 50 49  1  0
 50 51  1  0
 52 60  1  0
 53 58  1  0
 54 55  1  0
 54 53  1  0
 56 55  1  0
 56 65  1  0
 56 57  1  0
 58 52  1  0
 58 57  1  0
 59 52  2  0
 60 51  1  0
 60 61  1  0
 62 63  2  0
 63 82  1  0
 64 63  1  0
 64 67  1  0
 65 62  1  0
 65 66  1  0
 66 64  2  0
 67 68  1  0
 68 69  2  0
 70 73  1  0
 70 69  1  0
 71 70  2  0
 72 71  1  0
 72 67  2  0
 73 74  1  0
 74 75  1  0
 75 76  2  0
 77 76  1  0
 77 81  1  0
 78 77  2  0
 79 74  2  0
 79 78  1  0
 80 79  1  0
 82 83  1  0
 83 86  1  0
 83 85  1  0
 84 82  2  0
 87 88  1  0
 87 62  1  0
 89 87  1  0
M  ISO  4   5 101   6 101  52 100  60 100
M  END
>  <TORSDO>  (74) 
F 22

>  <SCORE>  (74) 
-13.006

>  <name>  (74) 
77

>  <ligand_id>  (74) 
77

>  <original_smiles>  (74) 
[H]c1c([H])c([H])c2c(c1[H])C([H])([H])C([H])([H])C([H])([H])C2([H])N([H])C(=O)C1([H])N(C(=O)C([H])(N([H])C(=O)C([H])(N([H])C([H])([H])[H])C([H])([H])[H])C(C([H])([H])[H])(C([H])([H])[H])C([H])([H])[H])C([H])([H])c2c([H])c(OC([H])([H])C(=O)N([H])C([H])([H])C([H])([H])C([H])([H])C([H])([H])C([H])([H])N([H])C(=O)N3C([H])([H])C([H])([H])C([H])([H])C([H])(n4nc(-c5c([H])c([H])c(Oc6c([H])c([H])c(F)c([H])c6F)c([H])c5[H])c(C(=O)N([H])[H])c4N([H])[H])C3([H])[H])c([H])c([H])c2C1([H])[H]

>  <smiles>  (74) 
[H]c1c([H])c([H])c2c(c1[H])C([H])([H])C([H])([H])C([H])([H])C2([H])N([H])C(=O)C1([H])N(C(=O)C([H])(N([H])C(=O)C([H])(N([H])C([H])([H])[H])C([H])([H])[H])C(C([H])([H])[H])(C([H])([H])[H])C([H])([H])[H])C([H])([H])c2c([H])c(OC([H])([H])C(=O)N([H])C([H])([H])C([H])([H])C([H])([H])C([H])([H])C([H])([H])N([H])C(=O)N3C([H])([H])C([H])([H])C([H])([H])C([H])(n4nc(-c5c([H])c([H])c(Oc6c([H])c([H])c(F)c([H])c6F)c([H])c5[H])c(C(=O)N([H])[H])c4N([H])[H])C3([H])[H])c([H])c([H])c2C1([H])[H]

$$$$
78:0:0
     RDKit          3D

 95103  0  0  1  0  0  0  0  0999 V2000
  -30.0190  -21.2250   20.2860 N   0  0  0  0  0  4  0  0  0  0  0  0
  -29.8950  -21.0870   19.2980 H   0  0  0  0  0  0  0  0  0  0  0  0
  -30.9370  -21.6210   20.4150 H   0  0  0  0  0  0  0  0  0  0  0  0
  -30.3150  -17.2980   22.2690 C   0  0  0  0  0  2  0  0  0  0  0  0
  -30.9710  -18.5090   22.9650 C   0  0  0  0  0  2  0  0  0  0  0  0
  -30.1740  -18.5270   20.0650 C   0  0  0  0  0  2  0  0  0  0  0  0
  -30.6810  -17.1760   20.7860 C   0  0  0  0  0  3  0  0  0  0  0  0
  -30.0340  -19.8560   20.9870 C   0  0  0  0  0  3  0  0  0  0  0  0
  -31.1290  -19.8090   22.1120 C   0  0  2  0  0  0  0  0  0  0  0  0
  -32.5570  -19.8760   21.5110 C   0  0  0  0  0  1  0  0  0  0  0  0
  -31.0200  -21.0030   23.0890 C   0  0  0  0  0  1  0  0  0  0  0  0
  -30.9780  -14.6910   20.0000 C   0  0  0  0  0  0  0  0  0  0  0  0
  -30.6800  -12.4570   18.9330 C   0  0  0  0  0  2  0  0  0  0  0  0
  -29.7010  -12.5830   17.7460 C   0  0  0  0  0  2  0  0  0  0  0  0
  -28.2410  -12.4490   18.2250 C   0  0  0  0  0  2  0  0  0  0  0  0
  -27.9330  -13.3340   19.4630 C   0  0  0  0  0  3  0  0  0  0  0  0
  -29.0220  -13.1840   20.5470 C   0  0  0  0  0  2  0  0  0  0  0  0
  -30.3110  -13.4970   19.9130 N   0  0  0  0  0  0  0  0  0  0  0  0
  -32.1580  -14.7860   19.6520 O   0  0  0  0  0  0  0  0  0  0  0  0
  -30.2340  -15.8060   20.3150 N   0  0  0  0  0  0  0  0  0  0  0  0
  -29.2520  -15.6110   20.4380 H   0  0  0  0  0  0  0  0  0  0  0  0
  -25.5820  -13.9880   20.2620 C   0  0  0  0  0  0  0  0  0  0  0  0
  -24.5090  -13.2400   20.6650 C   0  0  0  0  0  0  0  0  0  0  0  0
  -24.9380  -11.8780   20.6210 C   0  0  0  0  0  0  0  0  0  0  0  0
  -26.5960  -13.0830   19.9950 N   0  0  0  0  0  0  0  0  0  0  0  0
  -26.2180  -11.8090   20.2760 N   0  0  0  0  0  0  0  0  0  0  0  0
  -24.1870  -10.6330   20.8340 C   0  0  0  0  0  0  0  0  0  0  0  0
  -24.6020   -9.6750   21.7850 C   0  0  0  0  0  3  0  0  0  0  0  0
  -23.8530   -8.4940   21.9840 C   0  0  0  0  0  3  0  0  0  0  0  0
  -22.6750   -8.2660   21.2340 C   0  0  0  0  0  0  0  0  0  0  0  0
  -22.2800   -9.2130   20.2740 C   0  0  0  0  0  3  0  0  0  0  0  0
  -23.0290  -10.3840   20.0710 C   0  0  0  0  0  3  0  0  0  0  0  0
  -21.8990   -7.1380   21.3410 O   0  0  0  0  0  0  0  0  0  0  0  0
  -21.8060   -6.4390   22.5190 C   0  0  0  0  0  0  0  0  0  0  0  0
  -21.3530   -7.0430   23.7120 C   0  0  0  0  0  3  0  0  0  0  0  0
  -21.2060   -6.2700   24.8810 C   0  0  0  0  0  3  0  0  0  0  0  0
  -21.5010   -4.8940   24.8580 C   0  0  0  0  0  0  0  0  0  0  0  0
  -21.9470   -4.2890   23.6690 C   0  0  0  0  0  3  0  0  0  0  0  0
  -22.0960   -5.0600   22.5030 C   0  0  0  0  0  0  0  0  0  0  0  0
  -22.5040   -4.4680   21.3550 F   0  0  0  0  0  0  0  0  0  0  0  0
  -21.3540   -4.1490   25.9790 F   0  0  0  0  0  0  0  0  0  0  0  0
  -23.1310  -13.7520   20.9750 C   0  0  0  0  0  0  0  0  0  0  0  0
  -22.4160  -13.0830   21.8750 N   0  0  0  0  0  0  0  0  0  0  0  0
  -22.6970  -14.7760   20.4510 O   0  0  0  0  0  0  0  0  0  0  0  0
  -22.7810  -12.2550   22.3230 H   0  0  0  0  0  0  0  0  0  0  0  0
  -21.4910  -13.4050   22.1200 H   0  0  0  0  0  0  0  0  0  0  0  0
  -25.7720  -15.3530   20.0740 N   0  0  0  0  0  0  0  0  0  0  0  0
  -25.0190  -16.0200   20.2050 H   0  0  0  0  0  0  0  0  0  0  0  0
  -26.6080  -15.7760   19.6910 H   0  0  0  0  0  0  0  0  0  0  0  0
  -29.0330  -22.3090   20.7270 C   0  0  0  0  0  2  0  0  0  0  0  0
  -29.4590  -23.8540   20.5250 C   0  0  0  0  0  3  0  0  0  0  0  0
  -30.4100  -24.1410   21.5360 O   0  0  0  0  0  0  0  0  0  0  0  0
  -30.5800  -25.0790   21.4990 H   0  0  0  0  0  0  0  0  0  0  0  0
  -28.3000  -24.9610   20.6510 C   0  0  0  0  0  2  0  0  0  0  0  0
  -28.5610  -26.4220   20.4510 O   0  0  0  0  0  0  0  0  0  0  0  0
  -24.6600  -31.8510   23.2600 C   0  0  0  0  0  0  0  0  0  0  0  0
  -27.4400  -27.2740   20.3620 C   0  0  0  0  0  0  0  0  0  0  0  0
  -23.5280  -30.3950   21.6200 C   0  0  0  0  0  3  0  0  0  0  0  0
  -25.0470  -28.8540   20.2610 C   0  0  0  0  0  0  0  0  0  0  0  0
  -26.0670  -30.7620   21.4950 C   0  0  0  0  0  2  0  0  0  0  0  0
  -26.1930  -29.3710   20.8780 C   0  0  0  0  0  0  0  0  0  0  0  0
  -27.3940  -28.5950   20.9170 C   0  0  0  0  0  3  0  0  0  0  0  0
  -26.2730  -26.8270   19.7020 C   0  0  0  0  0  3  0  0  0  0  0  0
  -25.0910  -27.5880   19.6620 C   0  0  0  0  0  3  0  0  0  0  0  0
  -23.7920  -29.7020   20.2600 C   0  0  0  0  0  2  0  0  0  0  0  0
  -24.7680  -31.0210   22.1810 N   0  0  0  0  0  0  0  0  0  0  0  0
  -23.5570  -32.1130   23.7630 O   0  0  0  0  0  0  0  0  0  0  0  0
  -22.8650  -29.3800   22.5830 C   0  0  0  0  0  0  0  0  0  0  0  0
  -21.5520  -29.1510   22.4120 N   0  0  0  0  0  0  0  0  0  0  0  0
  -23.5330  -28.8020   23.4450 O   0  0  0  0  0  0  0  0  0  0  0  0
  -21.0700  -29.6720   21.6920 H   0  0  0  0  0  0  0  0  0  0  0  0
  -18.2130  -27.8100   22.7890 C   0  0  0  0  0  0  0  0  0  0  0  0
  -20.7380  -28.2070   23.1800 C   0  0  0  0  0  3  0  0  0  0  0  0
  -20.9380  -26.7590   22.6760 C   0  0  0  0  0  2  0  0  0  0  0  0
  -19.9100  -26.3390   21.6200 C   0  0  0  0  0  2  0  0  0  0  0  0
  -18.4900  -26.4440   22.1830 C   0  0  0  0  0  2  0  0  0  0  0  0
  -19.2700  -28.6430   23.2430 C   0  0  0  0  0  0  0  0  0  0  0  0
  -18.9600  -29.9170   23.7660 C   0  0  0  0  0  3  0  0  0  0  0  0
  -17.6260  -30.3610   23.8420 C   0  0  0  0  0  3  0  0  0  0  0  0
  -16.5830  -29.5260   23.4050 C   0  0  0  0  0  3  0  0  0  0  0  0
  -16.8770  -28.2520   22.8850 C   0  0  0  0  0  3  0  0  0  0  0  0
  -25.9120  -32.5260   23.8980 C   0  0  0  0  0  3  0  0  0  0  0  0
  -25.5660  -33.9270   24.1780 N   0  0  0  0  0  0  0  0  0  0  0  0
  -25.9200  -34.9660   23.4100 C   0  0  0  0  0  0  0  0  0  0  0  0
  -26.6430  -34.8480   22.4170 O   0  0  0  0  0  0  0  0  0  0  0  0
  -24.9320  -34.0910   24.9460 H   0  0  0  0  0  0  0  0  0  0  0  0
  -24.1910  -36.7270   22.9280 C   0  0  0  0  0  1  0  0  0  0  0  0
  -25.3940  -36.3590   23.8100 C   0  0  0  0  0  3  0  0  0  0  0  0
  -27.4740  -37.2910   24.7250 C   0  0  0  0  0  1  0  0  0  0  0  0
  -26.4170  -37.4230   23.7240 N   0  0  0  0  0  0  0  0  0  0  0  0
  -25.9930  -38.3400   23.8310 H   0  0  0  0  0  0  0  0  0  0  0  0
  -26.4050  -31.8030   25.2110 C   0  0  1  0  0  0  0  0  0  0  0  0
  -25.2840  -31.5740   26.2530 C   0  0  0  0  0  1  0  0  0  0  0  0
  -27.0270  -30.4260   24.8800 C   0  0  0  0  0  1  0  0  0  0  0  0
  -27.5170  -32.6400   25.8850 C   0  0  0  0  0  1  0  0  0  0  0  0
  1  3  1  0
  1 50  1  0
  2  1  1  0
  4  5  1  0
  6  7  1  0
  6  8  1  0
  7 20  1  0
  7  4  1  0
  8  1  1  0
  8  9  1  0
  9  5  1  0
  9 11  1  1
 10  9  1  0
 12 20  1  0
 13 18  1  0
 14 15  1  0
 14 13  1  0
 16 15  1  0
 16 25  1  0
 16 17  1  0
 18 12  1  0
 18 17  1  0
 19 12  2  0
 20 21  1  0
 22 23  2  0
 23 42  1  0
 24 23  1  0
 24 27  1  0
 25 22  1  0
 25 26  1  0
 26 24  2  0
 27 28  1  0
 28 29  2  0
 30 33  1  0
 30 29  1  0
 31 30  2  0
 32 31  1  0
 32 27  2  0
 33 34  1  0
 34 35  1  0
 35 36  2  0
 37 36  1  0
 37 41  1  0
 38 37  2  0
 39 34  2  0
 39 38  1  0
 40 39  1  0
 42 43  1  0
 43 46  1  0
 43 45  1  0
 44 42  2  0
 47 48  1  0
 47 22  1  0
 49 47  1  0
 51 54  1  0
 51 50  1  0
 51 52  1  0
 53 52  1  0
 55 54  1  0
 56 67  2  0
 57 55  1  0
 57 62  1  0
 58 66  1  0
 58 68  1  0
 59 61  1  0
 60 66  1  0
 61 62  2  0
 61 60  1  0
 63 57  2  0
 64 63  1  0
 64 59  2  0
 65 59  1  0
 65 58  1  0
 66 56  1  0
 68 70  2  0
 69 68  1  0
 71 69  1  0
 72 81  2  0
 72 77  1  0
 73 69  1  0
 73 77  1  0
 74 73  1  0
 75 76  1  0
 75 74  1  0
 76 72  1  0
 77 78  2  0
 78 79  1  0
 80 79  2  0
 81 80  1  0
 82 56  1  0
 82 83  1  0
 82 92  1  0
 83 86  1  0
 84 88  1  0
 84 83  1  0
 85 84  2  0
 88 87  1  0
 90 88  1  0
 90 91  1  0
 90 89  1  0
 92 95  1  1
 92 93  1  0
 94 92  1  0
M  ISO  4  12 100  20 100  54 101  55 101
M  END
>  <TORSDO>  (75) 
F 21

>  <SCORE>  (75) 
-13.377

>  <name>  (75) 
78

>  <ligand_id>  (75) 
78

>  <original_smiles>  (75) 
[H]OC([H])(C([H])([H])Oc1c([H])c([H])c2c(c1[H])C([H])([H])N(C(=O)C([H])(N([H])C(=O)C([H])(N([H])C([H])([H])[H])C([H])([H])[H])C(C([H])([H])[H])(C([H])([H])[H])C([H])([H])[H])C([H])(C(=O)N([H])C1([H])c3c([H])c([H])c([H])c([H])c3C([H])([H])C([H])([H])C1([H])[H])C2([H])[H])C([H])([H])[N+]([H])([H])C1([H])C([H])([H])C([H])(N([H])C(=O)N2C([H])([H])C([H])([H])C([H])([H])C([H])(n3nc(-c4c([H])c([H])c(Oc5c([H])c([H])c(F)c([H])c5F)c([H])c4[H])c(C(=O)N([H])[H])c3N([H])[H])C2([H])[H])C([H])([H])C([H])([H])C1(C([H])([H])[H])C([H])([H])[H]

>  <smiles>  (75) 
[H]OC([H])(C([H])([H])Oc1c([H])c([H])c2c(c1[H])C([H])([H])N(C(=O)C([H])(N([H])C(=O)C([H])(N([H])C([H])([H])[H])C([H])([H])[H])C(C([H])([H])[H])(C([H])([H])[H])C([H])([H])[H])C([H])(C(=O)N([H])C1([H])c3c([H])c([H])c([H])c([H])c3C([H])([H])C([H])([H])C1([H])[H])C2([H])[H])C([H])([H])[N+]([H])([H])C1([H])C([H])([H])C([H])(N([H])C(=O)N2C([H])([H])C([H])([H])C([H])([H])C([H])(n3nc(-c4c([H])c([H])c(Oc5c([H])c([H])c(F)c([H])c5F)c([H])c4[H])c(C(=O)N([H])[H])c3N([H])[H])C2([H])[H])C([H])([H])C([H])([H])C1(C([H])([H])[H])C([H])([H])[H]

$$$$
79:0:0
     RDKit          3D

 93102  0  0  1  0  0  0  0  0999 V2000
  -28.6800  -22.3780   20.6840 N   0  0  0  0  0  4  0  0  0  0  0  0
  -29.4010  -22.5210   21.3720 H   0  0  0  0  0  0  0  0  0  0  0  0
  -27.8250  -22.2780   21.2130 H   0  0  0  0  0  0  0  0  0  0  0  0
  -29.0380  -17.8090   18.9850 C   0  0  0  0  0  2  0  0  0  0  0  0
  -30.0030  -20.0560   20.8300 C   0  0  0  0  0  2  0  0  0  0  0  0
  -28.2450  -18.5560   20.0910 C   0  0  0  0  0  3  0  0  0  0  0  0
  -29.5260  -18.5490   20.9010 C   0  0  0  0  0  3  0  0  0  0  0  0
  -27.7300  -20.0180   19.9470 C   0  0  0  0  0  3  0  0  0  0  0  0
  -30.0910  -17.3390   20.0190 C   0  0  0  0  0  3  0  0  0  0  0  0
  -28.9590  -20.9870   20.0610 C   0  0  0  0  0  3  0  0  0  0  0  0
  -26.8720  -20.2060   18.6880 C   0  0  0  0  0  1  0  0  0  0  0  0
  -30.6380  -14.7690   20.1480 C   0  0  0  0  0  0  0  0  0  0  0  0
  -30.4020  -12.5240   19.0830 C   0  0  0  0  0  2  0  0  0  0  0  0
  -29.4280  -12.6650   17.8930 C   0  0  0  0  0  2  0  0  0  0  0  0
  -27.9660  -12.5020   18.3590 C   0  0  0  0  0  2  0  0  0  0  0  0
  -27.6480  -13.3380   19.6290 C   0  0  0  0  0  3  0  0  0  0  0  0
  -28.7370  -13.1840   20.7100 C   0  0  0  0  0  2  0  0  0  0  0  0
  -30.0200  -13.5410   20.0910 N   0  0  0  0  0  0  0  0  0  0  0  0
  -31.8000  -14.8910   19.7420 O   0  0  0  0  0  0  0  0  0  0  0  0
  -29.8630  -15.8830   20.4370 N   0  0  0  0  0  0  0  0  0  0  0  0
  -28.9450  -15.6690   20.7960 H   0  0  0  0  0  0  0  0  0  0  0  0
  -25.2840  -13.9280   20.4210 C   0  0  0  0  0  0  0  0  0  0  0  0
  -24.2280  -13.1540   20.8200 C   0  0  0  0  0  0  0  0  0  0  0  0
  -24.6910  -11.8030   20.7760 C   0  0  0  0  0  0  0  0  0  0  0  0
  -26.3180  -13.0470   20.1530 N   0  0  0  0  0  0  0  0  0  0  0  0
  -25.9700  -11.7630   20.4260 N   0  0  0  0  0  0  0  0  0  0  0  0
  -23.9690  -10.5420   20.9830 C   0  0  0  0  0  0  0  0  0  0  0  0
  -24.4200   -9.5770   21.9130 C   0  0  0  0  0  3  0  0  0  0  0  0
  -23.6980   -8.3790   22.1080 C   0  0  0  0  0  3  0  0  0  0  0  0
  -22.5120   -8.1370   21.3760 C   0  0  0  0  0  0  0  0  0  0  0  0
  -22.0820   -9.0890   20.4330 C   0  0  0  0  0  3  0  0  0  0  0  0
  -22.8030  -10.2780   20.2370 C   0  0  0  0  0  3  0  0  0  0  0  0
  -21.7580   -6.9930   21.4830 O   0  0  0  0  0  0  0  0  0  0  0  0
  -21.7220   -6.2610   22.6420 C   0  0  0  0  0  0  0  0  0  0  0  0
  -21.3020   -6.8240   23.8680 C   0  0  0  0  0  3  0  0  0  0  0  0
  -21.2140   -6.0160   25.0200 C   0  0  0  0  0  3  0  0  0  0  0  0
  -21.5360   -4.6480   24.9460 C   0  0  0  0  0  0  0  0  0  0  0  0
  -21.9490   -4.0840   23.7250 C   0  0  0  0  0  3  0  0  0  0  0  0
  -22.0370   -4.8890   22.5770 C   0  0  0  0  0  0  0  0  0  0  0  0
  -22.4170   -4.3390   21.3990 F   0  0  0  0  0  0  0  0  0  0  0  0
  -21.4440   -3.8710   26.0480 F   0  0  0  0  0  0  0  0  0  0  0  0
  -22.8410  -13.6330   21.1320 C   0  0  0  0  0  0  0  0  0  0  0  0
  -22.1400  -12.9340   22.0180 N   0  0  0  0  0  0  0  0  0  0  0  0
  -22.3880  -14.6580   20.6270 O   0  0  0  0  0  0  0  0  0  0  0  0
  -22.5240  -12.1080   22.4530 H   0  0  0  0  0  0  0  0  0  0  0  0
  -21.2040  -13.2240   22.2620 H   0  0  0  0  0  0  0  0  0  0  0  0
  -25.4480  -15.2960   20.2380 N   0  0  0  0  0  0  0  0  0  0  0  0
  -24.6810  -15.9510   20.3560 H   0  0  0  0  0  0  0  0  0  0  0  0
  -26.2750  -15.7250   19.8440 H   0  0  0  0  0  0  0  0  0  0  0  0
  -29.8840  -23.9690   19.0880 C   0  0  0  0  0  1  0  0  0  0  0  0
  -28.5800  -23.6980   19.8700 C   0  0  0  0  0  3  0  0  0  0  0  0
  -28.1910  -25.0350   20.7140 C   0  0  0  0  0  2  0  0  0  0  0  0
  -28.3530  -26.4330   20.1870 O   0  0  0  0  0  0  0  0  0  0  0  0
  -24.6190  -31.8760   23.2210 C   0  0  0  0  0  0  0  0  0  0  0  0
  -27.2490  -27.3030   20.1860 C   0  0  0  0  0  0  0  0  0  0  0  0
  -23.4290  -30.4780   21.5710 C   0  0  0  0  0  3  0  0  0  0  0  0
  -24.8910  -28.9290   20.1500 C   0  0  0  0  0  0  0  0  0  0  0  0
  -25.9700  -30.7990   21.4010 C   0  0  0  0  0  2  0  0  0  0  0  0
  -26.0570  -29.4170   20.7570 C   0  0  0  0  0  0  0  0  0  0  0  0
  -27.2450  -28.6200   20.7560 C   0  0  0  0  0  3  0  0  0  0  0  0
  -26.0650  -26.8730   19.5540 C   0  0  0  0  0  3  0  0  0  0  0  0
  -24.9000  -27.6660   19.5360 C   0  0  0  0  0  3  0  0  0  0  0  0
  -23.6540  -29.8040   20.1910 C   0  0  0  0  0  2  0  0  0  0  0  0
  -24.6910  -31.0690   22.1210 N   0  0  0  0  0  0  0  0  0  0  0  0
  -23.5320  -32.1510   23.7500 O   0  0  0  0  0  0  0  0  0  0  0  0
  -22.7600  -29.4590   22.5260 C   0  0  0  0  0  0  0  0  0  0  0  0
  -21.4330  -29.2930   22.3990 N   0  0  0  0  0  0  0  0  0  0  0  0
  -23.4350  -28.8250   23.3400 O   0  0  0  0  0  0  0  0  0  0  0  0
  -20.9470  -29.8570   21.7180 H   0  0  0  0  0  0  0  0  0  0  0  0
  -18.0480  -28.1150   22.9020 C   0  0  0  0  0  0  0  0  0  0  0  0
  -20.6100  -28.3540   23.1630 C   0  0  0  0  0  3  0  0  0  0  0  0
  -20.7000  -26.9270   22.5750 C   0  0  0  0  0  2  0  0  0  0  0  0
  -19.5910  -26.6210   21.5620 C   0  0  0  0  0  2  0  0  0  0  0  0
  -18.2120  -26.7700   22.2130 C   0  0  0  0  0  2  0  0  0  0  0  0
  -19.1730  -28.8640   23.3360 C   0  0  0  0  0  0  0  0  0  0  0  0
  -18.9660  -30.1220   23.9420 C   0  0  0  0  0  3  0  0  0  0  0  0
  -17.6650  -30.6300   24.1190 C   0  0  0  0  0  3  0  0  0  0  0  0
  -16.5550  -29.8780   23.7010 C   0  0  0  0  0  3  0  0  0  0  0  0
  -16.7450  -28.6230   23.0970 C   0  0  0  0  0  3  0  0  0  0  0  0
  -25.8940  -32.5100   23.8570 C   0  0  0  0  0  3  0  0  0  0  0  0
  -26.4000  -31.7350   25.1360 C   0  0  1  0  0  0  0  0  0  0  0  0
  -25.2960  -31.4960   26.1930 C   0  0  0  0  0  1  0  0  0  0  0  0
  -26.9840  -30.3570   24.7450 C   0  0  0  0  0  1  0  0  0  0  0  0
  -27.5450  -32.5280   25.8110 C   0  0  0  0  0  1  0  0  0  0  0  0
  -25.5790  -33.9080   24.1890 N   0  0  0  0  0  0  0  0  0  0  0  0
  -25.9110  -34.9640   23.4350 C   0  0  0  0  0  0  0  0  0  0  0  0
  -26.5850  -34.8670   22.4060 O   0  0  0  0  0  0  0  0  0  0  0  0
  -24.9820  -34.0590   24.9880 H   0  0  0  0  0  0  0  0  0  0  0  0
  -24.1840  -36.7590   23.0700 C   0  0  0  0  0  1  0  0  0  0  0  0
  -25.4190  -36.3520   23.8920 C   0  0  0  0  0  3  0  0  0  0  0  0
  -27.5450  -37.2370   24.7440 C   0  0  0  0  0  1  0  0  0  0  0  0
  -26.4510  -37.4070   23.7900 N   0  0  0  0  0  0  0  0  0  0  0  0
  -26.0430  -38.3250   23.9370 H   0  0  0  0  0  0  0  0  0  0  0  0
  1  3  1  0
  1  2  1  0
  4  9  1  0
  6  4  1  0
  6  7  1  0
  7  5  1  0
  8 11  1  0
  8 10  1  0
  8  6  1  0
  9 20  1  0
  9  7  1  0
 10  1  1  0
 10  5  1  0
 12 20  1  0
 13 18  1  0
 14 15  1  0
 14 13  1  0
 16 15  1  0
 16 25  1  0
 16 17  1  0
 18 12  1  0
 18 17  1  0
 19 12  2  0
 20 21  1  0
 22 23  2  0
 23 42  1  0
 24 23  1  0
 24 27  1  0
 25 22  1  0
 25 26  1  0
 26 24  2  0
 27 28  1  0
 28 29  2  0
 30 33  1  0
 30 29  1  0
 31 30  2  0
 32 31  1  0
 32 27  2  0
 33 34  1  0
 34 35  1  0
 35 36  2  0
 37 36  1  0
 37 41  1  0
 38 37  2  0
 39 34  2  0
 39 38  1  0
 40 39  1  0
 42 43  1  0
 43 46  1  0
 43 45  1  0
 44 42  2  0
 47 48  1  0
 47 22  1  0
 49 47  1  0
 51 50  1  0
 51  1  1  0
 51 52  1  0
 53 52  1  0
 54 65  2  0
 55 53  1  0
 55 60  1  0
 56 64  1  0
 56 66  1  0
 57 63  1  0
 57 59  1  0
 58 64  1  0
 59 58  1  0
 60 59  2  0
 61 55  2  0
 62 61  1  0
 62 57  2  0
 63 56  1  0
 64 54  1  0
 66 68  2  0
 67 66  1  0
 69 67  1  0
 70 79  2  0
 70 75  1  0
 71 67  1  0
 71 75  1  0
 72 71  1  0
 73 74  1  0
 73 72  1  0
 74 70  1  0
 75 76  2  0
 76 77  1  0
 78 77  2  0
 79 78  1  0
 80 54  1  0
 80 85  1  0
 80 81  1  0
 81 84  1  1
 81 82  1  0
 83 81  1  0
 85 88  1  0
 86 90  1  0
 86 85  1  0
 87 86  2  0
 90 89  1  0
 92 90  1  0
 92 93  1  0
 92 91  1  0
M  ISO  4  12 100  20 100  52 101  53 101
M  END
>  <TORSDO>  (76) 
F 19

>  <SCORE>  (76) 
-14.270

>  <name>  (76) 
79

>  <ligand_id>  (76) 
79

>  <original_smiles>  (76) 
[H]c1c([H])c([H])c2c(c1[H])C([H])([H])C([H])([H])C([H])([H])C2([H])N([H])C(=O)C1([H])N(C(=O)C([H])(N([H])C(=O)C([H])(N([H])C([H])([H])[H])C([H])([H])[H])C(C([H])([H])[H])(C([H])([H])[H])C([H])([H])[H])C([H])([H])c2c([H])c(OC([H])([H])C([H])(C([H])([H])[H])[N+]([H])([H])C3([H])C([H])([H])C4([H])C([H])(N([H])C(=O)N5C([H])([H])C([H])([H])C([H])([H])C([H])(n6nc(-c7c([H])c([H])c(Oc8c([H])c([H])c(F)c([H])c8F)c([H])c7[H])c(C(=O)N([H])[H])c6N([H])[H])C5([H])[H])C([H])([H])C4([H])C3([H])C([H])([H])[H])c([H])c([H])c2C1([H])[H]

>  <smiles>  (76) 
[H]c1c([H])c([H])c2c(c1[H])C([H])([H])C([H])([H])C([H])([H])C2([H])N([H])C(=O)C1([H])N(C(=O)C([H])(N([H])C(=O)C([H])(N([H])C([H])([H])[H])C([H])([H])[H])C(C([H])([H])[H])(C([H])([H])[H])C([H])([H])[H])C([H])([H])c2c([H])c(OC([H])([H])C([H])(C([H])([H])[H])[N+]([H])([H])C3([H])C([H])([H])C4([H])C([H])(N([H])C(=O)N5C([H])([H])C([H])([H])C([H])([H])C([H])(n6nc(-c7c([H])c([H])c(Oc8c([H])c([H])c(F)c([H])c8F)c([H])c7[H])c(C(=O)N([H])[H])c6N([H])[H])C5([H])[H])C([H])([H])C4([H])C3([H])C([H])([H])[H])c([H])c([H])c2C1([H])[H]

$$$$
80:0:0
     RDKit          3D

 91100  0  0  1  0  0  0  0  0999 V2000
  -31.1210  -17.9660   19.3080 C   0  0  0  0  0  2  0  0  0  0  0  0
  -28.5250  -19.2000   18.9560 C   0  0  0  0  0  2  0  0  0  0  0  0
  -31.1580  -19.4530   18.8350 C   0  0  0  0  0  3  0  0  0  0  0  0
  -30.1290  -17.6980   20.4730 C   0  0  0  0  0  3  0  0  0  0  0  0
  -29.7630  -20.1210   18.9360 C   0  0  0  0  0  3  0  0  0  0  0  0
  -28.9840  -18.9200   20.3860 C   0  0  0  0  0  3  0  0  0  0  0  0
  -31.7290  -19.5530   17.4120 C   0  0  0  0  0  1  0  0  0  0  0  0
  -29.4370  -20.4460   20.3350 N   0  0  2  0  0  4  0  0  0  0  0  0
  -30.2660  -20.5810   20.8950 H   0  0  0  0  0  0  0  0  0  0  0  0
  -30.5170  -14.9570   20.3610 C   0  0  0  0  0  0  0  0  0  0  0  0
  -30.3670  -12.6270   19.3830 C   0  0  0  0  0  2  0  0  0  0  0  0
  -29.4250  -12.6090   18.1590 C   0  0  0  0  0  2  0  0  0  0  0  0
  -27.9640  -12.3970   18.6010 C   0  0  0  0  0  2  0  0  0  0  0  0
  -27.5700  -13.3030   19.7970 C   0  0  0  0  0  3  0  0  0  0  0  0
  -28.6350  -13.3000   20.9130 C   0  0  0  0  0  2  0  0  0  0  0  0
  -29.9010  -13.7110   20.2950 N   0  0  0  0  0  0  0  0  0  0  0  0
  -31.7220  -15.0010   20.0980 O   0  0  0  0  0  0  0  0  0  0  0  0
  -29.7590  -16.1530   20.5060 N   0  0  0  0  0  0  0  0  0  0  0  0
  -28.7780  -15.9770   20.6650 H   0  0  0  0  0  0  0  0  0  0  0  0
  -25.1900  -13.8650   20.5520 C   0  0  0  0  0  0  0  0  0  0  0  0
  -24.1330  -13.0810   20.9240 C   0  0  0  0  0  0  0  0  0  0  0  0
  -24.6060  -11.7340   20.8870 C   0  0  0  0  0  0  0  0  0  0  0  0
  -26.2370  -12.9940   20.3030 N   0  0  0  0  0  0  0  0  0  0  0  0
  -25.8960  -11.7070   20.5710 N   0  0  0  0  0  0  0  0  0  0  0  0
  -23.8870  -10.4660   21.0750 C   0  0  0  0  0  0  0  0  0  0  0  0
  -24.3340   -9.4920   21.9940 C   0  0  0  0  0  3  0  0  0  0  0  0
  -23.6130   -8.2900   22.1720 C   0  0  0  0  0  3  0  0  0  0  0  0
  -22.4320   -8.0550   21.4290 C   0  0  0  0  0  0  0  0  0  0  0  0
  -22.0040   -9.0190   20.4980 C   0  0  0  0  0  3  0  0  0  0  0  0
  -22.7250  -10.2100   20.3190 C   0  0  0  0  0  3  0  0  0  0  0  0
  -21.6810   -6.9070   21.5160 O   0  0  0  0  0  0  0  0  0  0  0  0
  -21.6570   -6.1490   22.6590 C   0  0  0  0  0  0  0  0  0  0  0  0
  -21.2410   -6.6830   23.8980 C   0  0  0  0  0  3  0  0  0  0  0  0
  -21.1640   -5.8500   25.0320 C   0  0  0  0  0  3  0  0  0  0  0  0
  -21.4920   -4.4860   24.9300 C   0  0  0  0  0  0  0  0  0  0  0  0
  -21.9020   -3.9520   23.6950 C   0  0  0  0  0  3  0  0  0  0  0  0
  -21.9810   -4.7810   22.5620 C   0  0  0  0  0  0  0  0  0  0  0  0
  -22.3550   -4.2560   21.3710 F   0  0  0  0  0  0  0  0  0  0  0  0
  -21.4120   -3.6840   26.0170 F   0  0  0  0  0  0  0  0  0  0  0  0
  -22.7340  -13.5490   21.2010 C   0  0  0  0  0  0  0  0  0  0  0  0
  -22.0150  -12.8510   22.0730 N   0  0  0  0  0  0  0  0  0  0  0  0
  -22.2870  -14.5690   20.6770 O   0  0  0  0  0  0  0  0  0  0  0  0
  -22.3900  -12.0270   22.5180 H   0  0  0  0  0  0  0  0  0  0  0  0
  -21.0760  -13.1480   22.3000 H   0  0  0  0  0  0  0  0  0  0  0  0
  -25.3420  -15.2370   20.3760 N   0  0  0  0  0  0  0  0  0  0  0  0
  -24.5640  -15.8780   20.4830 H   0  0  0  0  0  0  0  0  0  0  0  0
  -26.1680  -15.6800   19.9960 H   0  0  0  0  0  0  0  0  0  0  0  0
  -28.4870  -21.7200   20.5120 C   0  0  0  0  0  2  0  0  0  0  0  0
  -28.9840  -23.3320   20.3890 C   0  0  0  0  0  3  0  0  0  0  0  0
  -27.9400  -24.6550   20.3030 C   0  0  0  0  0  3  0  0  0  0  0  0
  -28.2550  -26.1830   20.3400 O   0  0  0  0  0  0  0  0  0  0  0  0
  -24.6370  -31.9170   23.2590 C   0  0  0  0  0  0  0  0  0  0  0  0
  -27.2040  -27.1720   20.2710 C   0  0  0  0  0  0  0  0  0  0  0  0
  -23.4400  -30.5210   21.6170 C   0  0  0  0  0  3  0  0  0  0  0  0
  -24.8880  -28.9340   20.2130 C   0  0  0  0  0  0  0  0  0  0  0  0
  -25.9980  -30.7690   21.4720 C   0  0  0  0  0  2  0  0  0  0  0  0
  -26.0670  -29.3740   20.8270 C   0  0  0  0  0  0  0  0  0  0  0  0
  -27.2270  -28.5110   20.8370 C   0  0  0  0  0  3  0  0  0  0  0  0
  -25.9970  -26.8350   19.6200 C   0  0  0  0  0  3  0  0  0  0  0  0
  -24.8660  -27.6760   19.5930 C   0  0  0  0  0  3  0  0  0  0  0  0
  -23.6670  -29.8390   20.2440 C   0  0  0  0  0  2  0  0  0  0  0  0
  -24.7110  -31.0910   22.1710 N   0  0  0  0  0  0  0  0  0  0  0  0
  -23.5480  -32.2110   23.7760 O   0  0  0  0  0  0  0  0  0  0  0  0
  -22.7480  -29.5220   22.5780 C   0  0  0  0  0  0  0  0  0  0  0  0
  -21.4200  -29.3580   22.4390 N   0  0  0  0  0  0  0  0  0  0  0  0
  -23.4070  -28.8980   23.4130 O   0  0  0  0  0  0  0  0  0  0  0  0
  -20.9440  -29.9130   21.7400 H   0  0  0  0  0  0  0  0  0  0  0  0
  -18.0260  -28.1830   22.9160 C   0  0  0  0  0  0  0  0  0  0  0  0
  -20.5850  -28.4310   23.2070 C   0  0  0  0  0  3  0  0  0  0  0  0
  -20.6830  -26.9950   22.6440 C   0  0  0  0  0  2  0  0  0  0  0  0
  -19.5890  -26.6710   21.6210 C   0  0  0  0  0  2  0  0  0  0  0  0
  -18.2010  -26.8280   22.2490 C   0  0  0  0  0  2  0  0  0  0  0  0
  -19.1450  -28.9420   23.3510 C   0  0  0  0  0  0  0  0  0  0  0  0
  -18.9260  -30.2080   23.9350 C   0  0  0  0  0  3  0  0  0  0  0  0
  -17.6220  -30.7160   24.0870 C   0  0  0  0  0  3  0  0  0  0  0  0
  -16.5180  -29.9540   23.6670 C   0  0  0  0  0  3  0  0  0  0  0  0
  -16.7210  -28.6890   23.0880 C   0  0  0  0  0  3  0  0  0  0  0  0
  -25.9140  -32.5470   23.8930 C   0  0  0  0  0  3  0  0  0  0  0  0
  -26.4110  -31.7770   25.1780 C   0  0  1  0  0  0  0  0  0  0  0  0
  -25.3050  -31.5500   26.2360 C   0  0  0  0  0  1  0  0  0  0  0  0
  -26.9900  -30.3930   24.8030 C   0  0  0  0  0  1  0  0  0  0  0  0
  -27.5600  -32.5660   25.8490 C   0  0  0  0  0  1  0  0  0  0  0  0
  -25.6060  -33.9470   24.2220 N   0  0  0  0  0  0  0  0  0  0  0  0
  -25.9250  -35.0000   23.4580 C   0  0  0  0  0  0  0  0  0  0  0  0
  -26.5770  -34.8940   22.4160 O   0  0  0  0  0  0  0  0  0  0  0  0
  -25.0240  -34.1030   25.0320 H   0  0  0  0  0  0  0  0  0  0  0  0
  -24.1800  -36.7880   23.1480 C   0  0  0  0  0  1  0  0  0  0  0  0
  -25.4470  -36.3910   23.9230 C   0  0  0  0  0  3  0  0  0  0  0  0
  -27.6030  -37.2930   24.6820 C   0  0  0  0  0  1  0  0  0  0  0  0
  -26.4730  -37.4470   23.7700 N   0  0  0  0  0  0  0  0  0  0  0  0
  -26.0670  -38.3670   23.9200 H   0  0  0  0  0  0  0  0  0  0  0  0
  1  4  1  0
  3  7  1  0
  3  5  1  0
  3  1  1  0
  4 18  1  0
  5  2  1  0
  5  8  1  0
  6  2  1  0
  6  4  1  0
  8  6  1  0
  8 48  1  0
  8  9  1  1
 10 18  1  0
 11 16  1  0
 12 13  1  0
 12 11  1  0
 14 13  1  0
 14 23  1  0
 14 15  1  0
 16 10  1  0
 16 15  1  0
 17 10  2  0
 18 19  1  0
 20 21  2  0
 21 40  1  0
 22 21  1  0
 22 25  1  0
 23 20  1  0
 23 24  1  0
 24 22  2  0
 25 26  1  0
 26 27  2  0
 28 31  1  0
 28 27  1  0
 29 28  2  0
 30 29  1  0
 30 25  2  0
 31 32  1  0
 32 33  1  0
 33 34  2  0
 35 34  1  0
 35 39  1  0
 36 35  2  0
 37 32  2  0
 37 36  1  0
 38 37  1  0
 40 41  1  0
 41 44  1  0
 41 43  1  0
 42 40  2  0
 45 46  1  0
 45 20  1  0
 47 45  1  0
 49 48  1  0
 50 51  1  0
 50 49  2  0
 52 63  2  0
 53 51  1  0
 53 58  1  0
 54 62  1  0
 54 64  1  0
 55 61  1  0
 55 57  1  0
 56 62  1  0
 57 58  2  0
 57 56  1  0
 59 53  2  0
 60 59  1  0
 60 55  2  0
 61 54  1  0
 62 52  1  0
 64 66  2  0
 65 64  1  0
 67 65  1  0
 68 77  2  0
 68 73  1  0
 69 65  1  0
 69 73  1  0
 70 69  1  0
 71 72  1  0
 71 70  1  0
 72 68  1  0
 73 74  2  0
 74 75  1  0
 76 75  2  0
 77 76  1  0
 78 52  1  0
 78 83  1  0
 78 79  1  0
 79 82  1  1
 79 80  1  0
 81 79  1  0
 83 86  1  0
 84 88  1  0
 84 83  1  0
 85 84  2  0
 88 87  1  0
 90 91  1  0
 90 88  1  0
 90 89  1  0
M  ISO  4  10 100  18 100  50 101  51 101
M  END
>  <TORSDO>  (77) 
F 19

>  <SCORE>  (77) 
-14.324

>  <name>  (77) 
80

>  <ligand_id>  (77) 
80

>  <original_smiles>  (77) 
[H]c1c([H])c([H])c2c(c1[H])C([H])([H])C([H])([H])C([H])([H])C2([H])N([H])C(=O)C1([H])N(C(=O)C([H])(N([H])C(=O)C([H])(N([H])C([H])([H])[H])C([H])([H])[H])C(C([H])([H])[H])(C([H])([H])[H])C([H])([H])[H])C([H])([H])c2c([H])c(OC([H])([H])C([H])([H])C([H])([H])[N+]3([H])C4([H])C([H])([H])C3([H])C([H])(C([H])([H])[H])C([H])([H])C4([H])N([H])C(=O)N3C([H])([H])C([H])([H])C([H])([H])C([H])(n4nc(-c5c([H])c([H])c(Oc6c([H])c([H])c(F)c([H])c6F)c([H])c5[H])c(C(=O)N([H])[H])c4N([H])[H])C3([H])[H])c([H])c([H])c2C1([H])[H]

>  <smiles>  (77) 
[H]c1c([H])c([H])c2c(c1[H])C([H])([H])C([H])([H])C([H])([H])C2([H])N([H])C(=O)C1([H])N(C(=O)C([H])(N([H])C(=O)C([H])(N([H])C([H])([H])[H])C([H])([H])[H])C(C([H])([H])[H])(C([H])([H])[H])C([H])([H])[H])C([H])([H])c2c([H])c(OC([H])([H])C([H])([H])C([H])([H])[N+]3([H])C4([H])C([H])([H])C3([H])C([H])(C([H])([H])[H])C([H])([H])C4([H])N([H])C(=O)N3C([H])([H])C([H])([H])C([H])([H])C([H])(n4nc(-c5c([H])c([H])c(Oc6c([H])c([H])c(F)c([H])c6F)c([H])c5[H])c(C(=O)N([H])[H])c4N([H])[H])C3([H])[H])c([H])c([H])c2C1([H])[H]

$$$$
81:0:0
     RDKit          3D

 96105  0  0  1  0  0  0  0  0999 V2000
  -27.3850  -20.7200   19.0210 C   0  0  0  0  0  2  0  0  0  0  0  0
  -29.7430  -20.1790   21.2430 C   0  0  0  0  0  2  0  0  0  0  0  0
  -27.4560  -22.2190   19.3030 C   0  0  0  0  0  2  0  0  0  0  0  0
  -29.0630  -18.7690   19.4140 C   0  0  0  0  0  3  0  0  0  0  0  0
  -28.8480  -20.2830   19.0350 C   0  0  0  0  0  3  0  0  0  0  0  0
  -30.0750  -18.7720   20.5790 C   0  0  0  0  0  3  0  0  0  0  0  0
  -29.4960  -21.2260   20.0820 C   0  0  0  0  0  3  0  0  0  0  0  0
  -28.5540  -22.4340   20.2790 N   0  0  1  0  0  4  0  0  0  0  0  0
  -28.1300  -22.3040   21.1880 H   0  0  0  0  0  0  0  0  0  0  0  0
  -29.5360  -17.9270   18.2150 C   0  0  0  0  0  0  0  0  0  0  0  0
  -28.7330  -16.9660   17.7730 N   0  0  0  0  0  0  0  0  0  0  0  0
  -30.6210  -18.1380   17.6760 O   0  0  0  0  0  0  0  0  0  0  0  0
  -27.8260  -16.8200   18.1880 H   0  0  0  0  0  0  0  0  0  0  0  0
  -29.0100  -16.4010   16.9830 H   0  0  0  0  0  0  0  0  0  0  0  0
  -30.2220  -17.4670   21.5240 C   0  0  0  0  0  2  0  0  0  0  0  0
  -30.7390  -14.9480   20.9250 C   0  0  0  0  0  0  0  0  0  0  0  0
  -30.6590  -12.6510   19.9480 C   0  0  0  0  0  2  0  0  0  0  0  0
  -29.8170  -12.6810   18.6540 C   0  0  0  0  0  2  0  0  0  0  0  0
  -28.3190  -12.4870   18.9710 C   0  0  0  0  0  2  0  0  0  0  0  0
  -27.8310  -13.3980   20.1300 C   0  0  0  0  0  3  0  0  0  0  0  0
  -28.8030  -13.3590   21.3290 C   0  0  0  0  0  2  0  0  0  0  0  0
  -30.1360  -13.7160   20.8270 N   0  0  0  0  0  0  0  0  0  0  0  0
  -31.9460  -15.0780   20.7200 O   0  0  0  0  0  0  0  0  0  0  0  0
  -29.9200  -16.0450   21.0800 N   0  0  0  0  0  0  0  0  0  0  0  0
  -28.9420  -15.8040   21.1130 H   0  0  0  0  0  0  0  0  0  0  0  0
  -25.3830  -13.9600   20.6630 C   0  0  0  0  0  0  0  0  0  0  0  0
  -24.3020  -13.1730   20.9620 C   0  0  0  0  0  0  0  0  0  0  0  0
  -24.7900  -11.8300   20.9920 C   0  0  0  0  0  0  0  0  0  0  0  0
  -26.4560  -13.0960   20.5220 N   0  0  0  0  0  0  0  0  0  0  0  0
  -26.1010  -11.8110   20.7830 N   0  0  0  0  0  0  0  0  0  0  0  0
  -24.0700  -10.5590   21.1480 C   0  0  0  0  0  0  0  0  0  0  0  0
  -24.4560   -9.6060   22.1170 C   0  0  0  0  0  3  0  0  0  0  0  0
  -23.7370   -8.3990   22.2590 C   0  0  0  0  0  3  0  0  0  0  0  0
  -22.6170   -8.1380   21.4340 C   0  0  0  0  0  0  0  0  0  0  0  0
  -22.2520   -9.0800   20.4560 C   0  0  0  0  0  3  0  0  0  0  0  0
  -22.9720  -10.2780   20.3120 C   0  0  0  0  0  3  0  0  0  0  0  0
  -21.8740   -6.9820   21.4830 O   0  0  0  0  0  0  0  0  0  0  0  0
  -21.7620   -6.2500   22.6370 C   0  0  0  0  0  0  0  0  0  0  0  0
  -21.2350   -6.8040   23.8250 C   0  0  0  0  0  3  0  0  0  0  0  0
  -21.0720   -5.9960   24.9670 C   0  0  0  0  0  3  0  0  0  0  0  0
  -21.4260   -4.6340   24.9220 C   0  0  0  0  0  0  0  0  0  0  0  0
  -21.9470   -4.0790   23.7400 C   0  0  0  0  0  3  0  0  0  0  0  0
  -22.1110   -4.8850   22.6000 C   0  0  0  0  0  0  0  0  0  0  0  0
  -22.5940   -4.3400   21.4570 F   0  0  0  0  0  0  0  0  0  0  0  0
  -21.2640   -3.8540   26.0170 F   0  0  0  0  0  0  0  0  0  0  0  0
  -22.8810  -13.6310   21.1150 C   0  0  0  0  0  0  0  0  0  0  0  0
  -22.0980  -12.9420   21.9380 N   0  0  0  0  0  0  0  0  0  0  0  0
  -22.4670  -14.6370   20.5380 O   0  0  0  0  0  0  0  0  0  0  0  0
  -22.4420  -12.1330   22.4330 H   0  0  0  0  0  0  0  0  0  0  0  0
  -21.1400  -13.2310   22.0760 H   0  0  0  0  0  0  0  0  0  0  0  0
  -25.5340  -15.3310   20.4760 N   0  0  0  0  0  0  0  0  0  0  0  0
  -24.7460  -15.9680   20.5220 H   0  0  0  0  0  0  0  0  0  0  0  0
  -26.3990  -15.7880   20.2240 H   0  0  0  0  0  0  0  0  0  0  0  0
  -29.0860  -23.8900   20.2560 C   0  0  0  0  0  3  0  0  0  0  0  0
  -28.0030  -25.0890   20.0860 C   0  0  0  0  0  3  0  0  0  0  0  0
  -28.2890  -26.5640   20.1940 O   0  0  0  0  0  0  0  0  0  0  0  0
  -24.5990  -31.9870   23.3430 C   0  0  0  0  0  0  0  0  0  0  0  0
  -27.1850  -27.4540   20.1730 C   0  0  0  0  0  0  0  0  0  0  0  0
  -23.3830  -30.6080   21.7000 C   0  0  0  0  0  3  0  0  0  0  0  0
  -24.8210  -29.0940   20.2270 C   0  0  0  0  0  0  0  0  0  0  0  0
  -25.9240  -30.9320   21.4910 C   0  0  0  0  0  2  0  0  0  0  0  0
  -26.0020  -29.5640   20.8170 C   0  0  0  0  0  0  0  0  0  0  0  0
  -27.1870  -28.7590   20.7780 C   0  0  0  0  0  3  0  0  0  0  0  0
  -25.9730  -27.0590   19.5580 C   0  0  0  0  0  3  0  0  0  0  0  0
  -24.8120  -27.8500   19.5870 C   0  0  0  0  0  3  0  0  0  0  0  0
  -23.5830  -29.9620   20.3070 C   0  0  0  0  0  2  0  0  0  0  0  0
  -24.6560  -31.1920   22.2340 N   0  0  0  0  0  0  0  0  0  0  0  0
  -23.5210  -32.2500   23.8940 O   0  0  0  0  0  0  0  0  0  0  0  0
  -22.7380  -29.5700   22.6510 C   0  0  0  0  0  0  0  0  0  0  0  0
  -21.4200  -29.3530   22.5090 N   0  0  0  0  0  0  0  0  0  0  0  0
  -23.4250  -28.9640   23.4780 O   0  0  0  0  0  0  0  0  0  0  0  0
  -20.9240  -29.8950   21.8150 H   0  0  0  0  0  0  0  0  0  0  0  0
  -18.0790  -28.0310   22.9410 C   0  0  0  0  0  0  0  0  0  0  0  0
  -20.6180  -28.3920   23.2700 C   0  0  0  0  0  3  0  0  0  0  0  0
  -20.7890  -26.9600   22.7130 C   0  0  0  0  0  2  0  0  0  0  0  0
  -19.7260  -26.5840   21.6760 C   0  0  0  0  0  2  0  0  0  0  0  0
  -18.3240  -26.6820   22.2850 C   0  0  0  0  0  2  0  0  0  0  0  0
  -19.1560  -28.8400   23.3890 C   0  0  0  0  0  0  0  0  0  0  0  0
  -18.8740  -30.0990   23.9610 C   0  0  0  0  0  3  0  0  0  0  0  0
  -17.5470  -30.5520   24.0900 C   0  0  0  0  0  3  0  0  0  0  0  0
  -16.4840  -29.7390   23.6590 C   0  0  0  0  0  3  0  0  0  0  0  0
  -16.7500  -28.4810   23.0920 C   0  0  0  0  0  3  0  0  0  0  0  0
  -25.8850  -32.6180   23.9580 C   0  0  0  0  0  3  0  0  0  0  0  0
  -26.3820  -31.8730   25.2570 C   0  0  1  0  0  0  0  0  0  0  0  0
  -25.2720  -31.6570   26.3130 C   0  0  0  0  0  1  0  0  0  0  0  0
  -26.9700  -30.4870   24.9030 C   0  0  0  0  0  1  0  0  0  0  0  0
  -27.5230  -32.6800   25.9200 C   0  0  0  0  0  1  0  0  0  0  0  0
  -25.5930  -34.0290   24.2520 N   0  0  0  0  0  0  0  0  0  0  0  0
  -25.9590  -35.0600   23.4800 C   0  0  0  0  0  0  0  0  0  0  0  0
  -26.6500  -34.9240   22.4660 O   0  0  0  0  0  0  0  0  0  0  0  0
  -24.9840  -34.2100   25.0360 H   0  0  0  0  0  0  0  0  0  0  0  0
  -24.2780  -36.8800   23.0430 C   0  0  0  0  0  1  0  0  0  0  0  0
  -25.4860  -36.4660   23.8980 C   0  0  0  0  0  3  0  0  0  0  0  0
  -27.6100  -37.3240   24.7810 C   0  0  0  0  0  1  0  0  0  0  0  0
  -26.5420  -37.4970   23.7990 N   0  0  0  0  0  0  0  0  0  0  0  0
  -26.1490  -38.4270   23.9200 H   0  0  0  0  0  0  0  0  0  0  0  0
  1  3  1  0
  3  8  1  0
  4 10  1  0
  4  6  1  0
  5  1  1  0
  5  4  1  0
  5  7  1  0
  6  2  1  0
  6 15  1  0
  7  8  1  0
  7  2  1  0
  8  9  1  1
 11 13  1  0
 11 10  1  0
 12 10  2  0
 14 11  1  0
 16 24  1  0
 17 22  1  0
 18 19  1  0
 18 17  1  0
 20 19  1  0
 20 29  1  0
 20 21  1  0
 22 16  1  0
 22 21  1  0
 23 16  2  0
 24 25  1  0
 24 15  1  0
 26 27  2  0
 27 28  1  0
 27 46  1  0
 28 31  1  0
 29 26  1  0
 29 30  1  0
 30 28  2  0
 31 32  1  0
 32 33  2  0
 34 37  1  0
 34 33  1  0
 35 34  2  0
 36 35  1  0
 36 31  2  0
 37 38  1  0
 38 39  1  0
 39 40  2  0
 41 40  1  0
 41 45  1  0
 42 41  2  0
 43 38  2  0
 43 42  1  0
 44 43  1  0
 46 47  1  0
 47 50  1  0
 47 49  1  0
 48 46  2  0
 51 52  1  0
 51 26  1  0
 53 51  1  0
 54  8  1  0
 55 56  1  0
 55 54  2  0
 57 68  2  0
 58 56  1  0
 58 63  1  0
 59 67  1  0
 59 69  1  0
 60 66  1  0
 60 62  1  0
 61 67  1  0
 62 61  1  0
 63 62  2  0
 64 65  1  0
 64 58  2  0
 65 60  2  0
 66 59  1  0
 67 57  1  0
 69 71  2  0
 70 69  1  0
 72 70  1  0
 73 82  2  0
 73 78  1  0
 74 70  1  0
 74 78  1  0
 75 74  1  0
 76 77  1  0
 76 75  1  0
 77 73  1  0
 78 79  2  0
 79 80  1  0
 81 80  2  0
 82 81  1  0
 83 57  1  0
 83 88  1  0
 83 84  1  0
 84 87  1  1
 84 85  1  0
 86 84  1  0
 88 91  1  0
 89 93  1  0
 89 88  1  0
 90 89  2  0
 93 92  1  0
 95 93  1  0
 95 96  1  0
 95 94  1  0
M  ISO  4  16 100  24 100  55 101  56 101
M  END
>  <TORSDO>  (78) 
F 20

>  <SCORE>  (78) 
-13.397

>  <name>  (78) 
81

>  <ligand_id>  (78) 
81

>  <original_smiles>  (78) 
[H]c1c([H])c([H])c2c(c1[H])C([H])([H])C([H])([H])C([H])([H])C2([H])N([H])C(=O)C1([H])N(C(=O)C([H])(N([H])C(=O)C([H])(N([H])C([H])([H])[H])C([H])([H])[H])C(C([H])([H])[H])(C([H])([H])[H])C([H])([H])[H])C([H])([H])c2c([H])c(OC([H])([H])C([H])([H])[N+]3([H])C([H])([H])C([H])([H])C4([H])C([H])(C(=O)N([H])[H])C([H])(C([H])([H])N([H])C(=O)N5C([H])([H])C([H])([H])C([H])([H])C([H])(n6nc(-c7c([H])c([H])c(Oc8c([H])c([H])c(F)c([H])c8F)c([H])c7[H])c(C(=O)N([H])[H])c6N([H])[H])C5([H])[H])C([H])([H])C43[H])c([H])c([H])c2C1([H])[H]

>  <smiles>  (78) 
[H]c1c([H])c([H])c2c(c1[H])C([H])([H])C([H])([H])C([H])([H])C2([H])N([H])C(=O)C1([H])N(C(=O)C([H])(N([H])C(=O)C([H])(N([H])C([H])([H])[H])C([H])([H])[H])C(C([H])([H])[H])(C([H])([H])[H])C([H])([H])[H])C([H])([H])c2c([H])c(OC([H])([H])C([H])([H])[N+]3([H])C([H])([H])C([H])([H])C4([H])C([H])(C(=O)N([H])[H])C([H])(C([H])([H])N([H])C(=O)N5C([H])([H])C([H])([H])C([H])([H])C([H])(n6nc(-c7c([H])c([H])c(Oc8c([H])c([H])c(F)c([H])c8F)c([H])c7[H])c(C(=O)N([H])[H])c6N([H])[H])C5([H])[H])C([H])([H])C43[H])c([H])c([H])c2C1([H])[H]

$$$$
82:0:0
     RDKit          3D

 99107  0  0  1  0  0  0  0  0999 V2000
  -27.8860  -20.3250   20.2550 C   0  0  0  0  0  3  0  0  0  0  0  0
  -28.3690  -17.9610   19.9460 C   0  0  0  0  0  3  0  0  0  0  0  0
  -29.1940  -20.5580   20.7390 C   0  0  0  0  0  0  0  0  0  0  0  0
  -30.1060  -19.4530   20.8290 C   0  0  0  0  0  0  0  0  0  0  0  0
  -27.4760  -19.0430   19.8480 C   0  0  0  0  0  0  0  0  0  0  0  0
  -29.6850  -18.1410   20.4260 C   0  0  0  0  0  0  0  0  0  0  0  0
  -26.0890  -18.8360   19.2720 C   0  0  0  0  0  1  0  0  0  0  0  0
  -31.5240  -19.6720   21.2900 C   0  0  0  0  0  0  0  0  0  0  0  0
  -32.2880  -20.3810   20.4710 N   0  0  0  0  0  0  0  0  0  0  0  0
  -31.9510  -19.1880   22.3370 O   0  0  0  0  0  0  0  0  0  0  0  0
  -31.9020  -20.7390   19.6120 H   0  0  0  0  0  0  0  0  0  0  0  0
  -33.2560  -20.5600   20.6950 H   0  0  0  0  0  0  0  0  0  0  0  0
  -29.5480  -21.9700   21.1710 C   0  0  0  0  0  0  0  0  0  0  0  0
  -29.2210  -22.9530   20.3130 N   0  0  0  0  0  0  0  0  0  0  0  0
  -30.1180  -22.1880   22.2420 O   0  0  0  0  0  0  0  0  0  0  0  0
  -28.7760  -22.6670   19.4520 H   0  0  0  0  0  0  0  0  0  0  0  0
  -29.4760  -24.3940   20.4970 C   0  0  0  0  0  2  0  0  0  0  0  0
  -28.2780  -25.2490   20.0270 C   0  0  0  0  0  2  0  0  0  0  0  0
  -28.4310  -26.6680   20.2570 O   0  0  0  0  0  0  0  0  0  0  0  0
  -24.6240  -31.9070   23.2700 C   0  0  0  0  0  0  0  0  0  0  0  0
  -27.2740  -27.4300   20.2140 C   0  0  0  0  0  0  0  0  0  0  0  0
  -23.4280  -30.5050   21.6230 C   0  0  0  0  0  3  0  0  0  0  0  0
  -24.8880  -28.9660   20.2080 C   0  0  0  0  0  0  0  0  0  0  0  0
  -25.9600  -30.8490   21.4480 C   0  0  0  0  0  2  0  0  0  0  0  0
  -26.0470  -29.4780   20.8040 C   0  0  0  0  0  0  0  0  0  0  0  0
  -27.2450  -28.7180   20.8030 C   0  0  0  0  0  3  0  0  0  0  0  0
  -26.0910  -26.9480   19.6020 C   0  0  0  0  0  3  0  0  0  0  0  0
  -24.9070  -27.7020   19.6010 C   0  0  0  0  0  3  0  0  0  0  0  0
  -23.6480  -29.8280   20.2440 C   0  0  0  0  0  2  0  0  0  0  0  0
  -24.6890  -31.1030   22.1710 N   0  0  0  0  0  0  0  0  0  0  0  0
  -23.5390  -32.1880   23.8000 O   0  0  0  0  0  0  0  0  0  0  0  0
  -22.7680  -29.4850   22.5800 C   0  0  0  0  0  0  0  0  0  0  0  0
  -21.4470  -29.2980   22.4350 N   0  0  0  0  0  0  0  0  0  0  0  0
  -23.4430  -28.8660   23.4050 O   0  0  0  0  0  0  0  0  0  0  0  0
  -20.9650  -29.8530   21.7430 H   0  0  0  0  0  0  0  0  0  0  0  0
  -18.0660  -28.1040   22.8990 C   0  0  0  0  0  0  0  0  0  0  0  0
  -20.6190  -28.3640   23.2000 C   0  0  0  0  0  3  0  0  0  0  0  0
  -20.7280  -26.9300   22.6340 C   0  0  0  0  0  2  0  0  0  0  0  0
  -19.6390  -26.5980   21.6090 C   0  0  0  0  0  2  0  0  0  0  0  0
  -18.2500  -26.7510   22.2340 C   0  0  0  0  0  2  0  0  0  0  0  0
  -19.1780  -28.8700   23.3360 C   0  0  0  0  0  0  0  0  0  0  0  0
  -18.9550  -30.1370   23.9190 C   0  0  0  0  0  3  0  0  0  0  0  0
  -17.6480  -30.6390   24.0670 C   0  0  0  0  0  3  0  0  0  0  0  0
  -16.5480  -29.8710   23.6440 C   0  0  0  0  0  3  0  0  0  0  0  0
  -16.7590  -28.6050   23.0680 C   0  0  0  0  0  3  0  0  0  0  0  0
  -25.9080  -32.5380   23.8940 C   0  0  0  0  0  3  0  0  0  0  0  0
  -25.6010  -33.9380   24.2160 N   0  0  0  0  0  0  0  0  0  0  0  0
  -25.9340  -34.9850   23.4500 C   0  0  0  0  0  0  0  0  0  0  0  0
  -26.6060  -34.8750   22.4210 O   0  0  0  0  0  0  0  0  0  0  0  0
  -25.0100  -34.0970   25.0190 H   0  0  0  0  0  0  0  0  0  0  0  0
  -24.2100  -36.7770   23.0760 C   0  0  0  0  0  1  0  0  0  0  0  0
  -25.4460  -36.3760   23.8970 C   0  0  0  0  0  3  0  0  0  0  0  0
  -27.5740  -37.2640   24.7430 C   0  0  0  0  0  1  0  0  0  0  0  0
  -26.4810  -37.4260   23.7870 N   0  0  0  0  0  0  0  0  0  0  0  0
  -26.0760  -38.3480   23.9240 H   0  0  0  0  0  0  0  0  0  0  0  0
  -26.4130  -31.7700   25.1770 C   0  0  1  0  0  0  0  0  0  0  0  0
  -25.3100  -31.5370   26.2360 C   0  0  0  0  0  1  0  0  0  0  0  0
  -26.9970  -30.3910   24.7920 C   0  0  0  0  0  1  0  0  0  0  0  0
  -27.5590  -32.5670   25.8460 C   0  0  0  0  0  1  0  0  0  0  0  0
  -31.2900  -17.0460   18.8870 C   0  0  0  0  0  1  0  0  0  0  0  0
  -30.6680  -16.9590   20.3040 C   0  0  0  0  0  3  0  0  0  0  0  0
  -30.7900  -14.4760   20.4660 C   0  0  0  0  0  0  0  0  0  0  0  0
  -30.4230  -12.3400   19.3360 C   0  0  0  0  0  2  0  0  0  0  0  0
  -29.4990  -12.5860   18.1280 C   0  0  0  0  0  2  0  0  0  0  0  0
  -28.0220  -12.4610   18.5520 C   0  0  0  0  0  2  0  0  0  0  0  0
  -27.6850  -13.2920   19.8200 C   0  0  0  0  0  3  0  0  0  0  0  0
  -28.7380  -13.0820   20.9310 C   0  0  0  0  0  2  0  0  0  0  0  0
  -30.0650  -13.3360   20.3540 N   0  0  0  0  0  0  0  0  0  0  0  0
  -31.9940  -14.5170   20.2130 O   0  0  0  0  0  0  0  0  0  0  0  0
  -30.0880  -15.6220   20.5640 N   0  0  0  0  0  0  0  0  0  0  0  0
  -29.0950  -15.5570   20.7210 H   0  0  0  0  0  0  0  0  0  0  0  0
  -25.2840  -13.8960   20.5260 C   0  0  0  0  0  0  0  0  0  0  0  0
  -24.2130  -13.1220   20.8830 C   0  0  0  0  0  0  0  0  0  0  0  0
  -24.6770  -11.7720   20.8560 C   0  0  0  0  0  0  0  0  0  0  0  0
  -26.3310  -13.0160   20.2970 N   0  0  0  0  0  0  0  0  0  0  0  0
  -25.9700  -11.7350   20.5590 N   0  0  0  0  0  0  0  0  0  0  0  0
  -23.9500  -10.5080   21.0400 C   0  0  0  0  0  0  0  0  0  0  0  0
  -24.3750   -9.5430   21.9780 C   0  0  0  0  0  3  0  0  0  0  0  0
  -23.6460   -8.3460   22.1500 C   0  0  0  0  0  3  0  0  0  0  0  0
  -22.4830   -8.1060   21.3830 C   0  0  0  0  0  0  0  0  0  0  0  0
  -22.0790   -9.0610   20.4330 C   0  0  0  0  0  3  0  0  0  0  0  0
  -22.8070  -10.2490   20.2590 C   0  0  0  0  0  3  0  0  0  0  0  0
  -21.7320   -6.9580   21.4610 O   0  0  0  0  0  0  0  0  0  0  0  0
  -21.6580   -6.2220   22.6170 C   0  0  0  0  0  0  0  0  0  0  0  0
  -21.1760   -6.7750   23.8230 C   0  0  0  0  0  3  0  0  0  0  0  0
  -21.0510   -5.9650   24.9690 C   0  0  0  0  0  3  0  0  0  0  0  0
  -21.3990   -4.6020   24.9090 C   0  0  0  0  0  0  0  0  0  0  0  0
  -21.8710   -4.0470   23.7070 C   0  0  0  0  0  3  0  0  0  0  0  0
  -21.9980   -4.8550   22.5640 C   0  0  0  0  0  0  0  0  0  0  0  0
  -22.4360   -4.3110   21.4030 F   0  0  0  0  0  0  0  0  0  0  0  0
  -21.2720   -3.8210   26.0080 F   0  0  0  0  0  0  0  0  0  0  0  0
  -22.8140  -13.6010   21.1430 C   0  0  0  0  0  0  0  0  0  0  0  0
  -22.0800  -12.9100   22.0080 N   0  0  0  0  0  0  0  0  0  0  0  0
  -22.3810  -14.6260   20.6190 O   0  0  0  0  0  0  0  0  0  0  0  0
  -22.4450  -12.0850   22.4600 H   0  0  0  0  0  0  0  0  0  0  0  0
  -21.1420  -13.2180   22.2270 H   0  0  0  0  0  0  0  0  0  0  0  0
  -25.4500  -15.2670   20.3630 N   0  0  0  0  0  0  0  0  0  0  0  0
  -24.6910  -15.9210   20.5180 H   0  0  0  0  0  0  0  0  0  0  0  0
  -26.3110  -15.7170   20.0870 H   0  0  0  0  0  0  0  0  0  0  0  0
  1  3  1  0
  2  6  2  0
  3  4  2  0
  3 13  1  0
  4  8  1  0
  5  2  1  0
  5  1  2  0
  6  4  1  0
  7  5  1  0
  8 10  2  0
  9 12  1  0
  9  8  1  0
 11  9  1  0
 13 15  2  0
 14 17  1  0
 14 13  1  0
 16 14  1  0
 18 19  1  0
 18 17  1  0
 20 31  2  0
 21 19  1  0
 21 26  1  0
 22 30  1  0
 22 32  1  0
 23 29  1  0
 23 25  1  0
 24 30  1  0
 25 24  1  0
 26 25  2  0
 27 21  2  0
 28 27  1  0
 28 23  2  0
 29 22  1  0
 30 20  1  0
 32 34  2  0
 33 32  1  0
 35 33  1  0
 36 45  2  0
 36 41  1  0
 37 33  1  0
 37 41  1  0
 38 37  1  0
 39 40  1  0
 39 38  1  0
 40 36  1  0
 41 42  2  0
 42 43  1  0
 44 43  2  0
 45 44  1  0
 46 20  1  0
 46 47  1  0
 46 56  1  0
 47 50  1  0
 48 52  1  0
 48 47  1  0
 49 48  2  0
 52 51  1  0
 54 52  1  0
 54 55  1  0
 54 53  1  0
 56 59  1  1
 56 57  1  0
 58 56  1  0
 61 60  1  0
 61  6  1  0
 61 70  1  0
 62 70  1  0
 63 68  1  0
 64 65  1  0
 64 63  1  0
 66 65  1  0
 66 75  1  0
 66 67  1  0
 68 62  1  0
 68 67  1  0
 69 62  2  0
 70 71  1  0
 72 73  2  0
 73 92  1  0
 74 73  1  0
 74 77  1  0
 75 72  1  0
 75 76  1  0
 76 74  2  0
 77 78  1  0
 78 79  2  0
 80 83  1  0
 80 79  1  0
 81 80  2  0
 82 81  1  0
 82 77  2  0
 83 84  1  0
 84 85  1  0
 85 86  2  0
 87 86  1  0
 87 91  1  0
 88 87  2  0
 89 84  2  0
 89 88  1  0
 90 89  1  0
 92 93  1  0
 93 96  1  0
 93 95  1  0
 94 92  2  0
 97 98  1  0
 97 72  1  0
 99 97  1  0
M  ISO  4  18 101  19 101  62 100  70 100
M  END
>  <TORSDO>  (79) 
F 21

>  <SCORE>  (79) 
-13.589

>  <name>  (79) 
82

>  <ligand_id>  (79) 
82

>  <original_smiles>  (79) 
[H]c1c([H])c([H])c2c(c1[H])C([H])([H])C([H])([H])C([H])([H])C2([H])N([H])C(=O)C1([H])N(C(=O)C([H])(N([H])C(=O)C([H])(N([H])C([H])([H])[H])C([H])([H])[H])C(C([H])([H])[H])(C([H])([H])[H])C([H])([H])[H])C([H])([H])c2c([H])c(OC([H])([H])C([H])([H])N([H])C(=O)c3c([H])c(C([H])([H])[H])c([H])c(C([H])(N([H])C(=O)N4C([H])([H])C([H])([H])C([H])([H])C([H])(n5nc(-c6c([H])c([H])c(Oc7c([H])c([H])c(F)c([H])c7F)c([H])c6[H])c(C(=O)N([H])[H])c5N([H])[H])C4([H])[H])C([H])([H])[H])c3C(=O)N([H])[H])c([H])c([H])c2C1([H])[H]

>  <smiles>  (79) 
[H]c1c([H])c([H])c2c(c1[H])C([H])([H])C([H])([H])C([H])([H])C2([H])N([H])C(=O)C1([H])N(C(=O)C([H])(N([H])C(=O)C([H])(N([H])C([H])([H])[H])C([H])([H])[H])C(C([H])([H])[H])(C([H])([H])[H])C([H])([H])[H])C([H])([H])c2c([H])c(OC([H])([H])C([H])([H])N([H])C(=O)c3c([H])c(C([H])([H])[H])c([H])c(C([H])(N([H])C(=O)N4C([H])([H])C([H])([H])C([H])([H])C([H])(n5nc(-c6c([H])c([H])c(Oc7c([H])c([H])c(F)c([H])c7F)c([H])c6[H])c(C(=O)N([H])[H])c5N([H])[H])C4([H])[H])C([H])([H])[H])c3C(=O)N([H])[H])c([H])c([H])c2C1([H])[H]

$$$$
83:0:0
     RDKit          3D

 94102  0  0  1  0  0  0  0  0999 V2000
  -31.3120  -21.2750   19.2280 C   0  0  0  0  0  2  0  0  0  0  0  0
  -30.7250  -21.6880   20.5700 C   0  0  0  0  0  2  0  0  0  0  0  0
  -30.7860  -19.8540   18.9670 C   0  0  0  0  0  3  0  0  0  0  0  0
  -29.4530  -19.7200   19.8020 C   0  0  0  0  0  3  0  0  0  0  0  0
  -29.3300  -21.2340   20.5110 N   0  0  2  0  0  4  0  0  0  0  0  0
  -29.1400  -21.0090   21.4760 H   0  0  0  0  0  0  0  0  0  0  0  0
  -30.7660  -19.5200   17.4480 C   0  0  0  0  0  2  0  0  0  0  0  0
  -32.1930  -19.6370   16.8330 C   0  0  0  0  0  2  0  0  0  0  0  0
  -32.2770  -19.4220   15.3780 N   0  0  0  0  0  4  0  0  0  0  0  0
  -32.0200  -18.4850   15.1240 H   0  0  0  0  0  0  0  0  0  0  0  0
  -33.2330  -19.5590   15.0930 H   0  0  0  0  0  0  0  0  0  0  0  0
  -31.7160  -20.0810   14.8680 H   0  0  0  0  0  0  0  0  0  0  0  0
  -29.6460  -18.1420   20.6420 C   0  0  0  0  0  2  0  0  0  0  0  0
  -30.4040  -15.2840   20.2430 C   0  0  0  0  0  0  0  0  0  0  0  0
  -30.4040  -12.8570   19.3470 C   0  0  0  0  0  2  0  0  0  0  0  0
  -29.4670  -12.6110   18.1430 C   0  0  0  0  0  2  0  0  0  0  0  0
  -28.0180  -12.3320   18.5970 C   0  0  0  0  0  2  0  0  0  0  0  0
  -27.5640  -13.2950   19.7270 C   0  0  0  0  0  3  0  0  0  0  0  0
  -28.6300  -13.4590   20.8290 C   0  0  0  0  0  2  0  0  0  0  0  0
  -29.8390  -13.9830   20.1640 N   0  0  0  0  0  0  0  0  0  0  0  0
  -31.6370  -15.2980   20.1450 O   0  0  0  0  0  0  0  0  0  0  0  0
  -29.6050  -16.5280   20.2070 N   0  0  0  0  0  0  0  0  0  0  0  0
  -28.6530  -16.2570   20.0120 H   0  0  0  0  0  0  0  0  0  0  0  0
  -25.1930  -13.8500   20.4990 C   0  0  0  0  0  0  0  0  0  0  0  0
  -24.1290  -13.0740   20.8710 C   0  0  0  0  0  0  0  0  0  0  0  0
  -24.5990  -11.7260   20.8360 C   0  0  0  0  0  0  0  0  0  0  0  0
  -26.2410  -12.9780   20.2510 N   0  0  0  0  0  0  0  0  0  0  0  0
  -25.8930  -11.6920   20.5220 N   0  0  0  0  0  0  0  0  0  0  0  0
  -23.8730  -10.4630   21.0310 C   0  0  0  0  0  0  0  0  0  0  0  0
  -24.3180   -9.5000   21.9640 C   0  0  0  0  0  3  0  0  0  0  0  0
  -23.5990   -8.3000   22.1520 C   0  0  0  0  0  3  0  0  0  0  0  0
  -22.4270   -8.0510   21.4020 C   0  0  0  0  0  0  0  0  0  0  0  0
  -21.9910   -9.0060   20.4680 C   0  0  0  0  0  3  0  0  0  0  0  0
  -22.7080  -10.2000   20.2790 C   0  0  0  0  0  3  0  0  0  0  0  0
  -21.6760   -6.9020   21.4940 O   0  0  0  0  0  0  0  0  0  0  0  0
  -21.6450   -6.1510   22.6400 C   0  0  0  0  0  0  0  0  0  0  0  0
  -21.2430   -6.7010   23.8760 C   0  0  0  0  0  3  0  0  0  0  0  0
  -21.1640   -5.8790   25.0180 C   0  0  0  0  0  3  0  0  0  0  0  0
  -21.4660   -4.5060   24.9240 C   0  0  0  0  0  0  0  0  0  0  0  0
  -21.8610   -3.9570   23.6910 C   0  0  0  0  0  3  0  0  0  0  0  0
  -21.9460   -4.7760   22.5500 C   0  0  0  0  0  0  0  0  0  0  0  0
  -22.3050   -4.2370   21.3600 F   0  0  0  0  0  0  0  0  0  0  0  0
  -21.3810   -3.7170   26.0180 F   0  0  0  0  0  0  0  0  0  0  0  0
  -22.7320  -13.5510   21.1420 C   0  0  0  0  0  0  0  0  0  0  0  0
  -22.0010  -12.8650   22.0110 N   0  0  0  0  0  0  0  0  0  0  0  0
  -22.2990  -14.5750   20.6150 O   0  0  0  0  0  0  0  0  0  0  0  0
  -22.3610  -12.0410   22.4640 H   0  0  0  0  0  0  0  0  0  0  0  0
  -21.0640  -13.1800   22.2290 H   0  0  0  0  0  0  0  0  0  0  0  0
  -25.3440  -15.2210   20.3220 N   0  0  0  0  0  0  0  0  0  0  0  0
  -24.5530  -15.8520   20.3880 H   0  0  0  0  0  0  0  0  0  0  0  0
  -26.1790  -15.6730   19.9760 H   0  0  0  0  0  0  0  0  0  0  0  0
  -28.2810  -22.5250   20.2750 C   0  0  0  0  0  2  0  0  0  0  0  0
  -28.4860  -24.2790   19.8420 C   0  0  0  0  0  2  0  0  0  0  0  0
  -28.2460  -25.8390   20.3790 O   0  0  0  0  0  0  0  0  0  0  0  0
  -24.6450  -31.8410   23.1870 C   0  0  0  0  0  0  0  0  0  0  0  0
  -27.2120  -26.9130   20.2120 C   0  0  0  0  0  0  0  0  0  0  0  0
  -23.4520  -30.4290   21.5590 C   0  0  0  0  0  3  0  0  0  0  0  0
  -24.9030  -28.8010   20.1520 C   0  0  0  0  0  0  0  0  0  0  0  0
  -26.0190  -30.6280   21.4200 C   0  0  0  0  0  2  0  0  0  0  0  0
  -26.0870  -29.2090   20.7790 C   0  0  0  0  0  0  0  0  0  0  0  0
  -27.2240  -28.2780   20.7880 C   0  0  0  0  0  3  0  0  0  0  0  0
  -25.9960  -26.6610   19.5300 C   0  0  0  0  0  3  0  0  0  0  0  0
  -24.8830  -27.5510   19.5080 C   0  0  0  0  0  3  0  0  0  0  0  0
  -23.6870  -29.7320   20.1880 C   0  0  0  0  0  2  0  0  0  0  0  0
  -24.7280  -30.9950   22.1110 N   0  0  0  0  0  0  0  0  0  0  0  0
  -23.5540  -32.1360   23.7010 O   0  0  0  0  0  0  0  0  0  0  0  0
  -22.7580  -29.4430   22.5350 C   0  0  0  0  0  0  0  0  0  0  0  0
  -21.4250  -29.2870   22.4230 N   0  0  0  0  0  0  0  0  0  0  0  0
  -23.4240  -28.8160   23.3640 O   0  0  0  0  0  0  0  0  0  0  0  0
  -20.9400  -29.8460   21.7350 H   0  0  0  0  0  0  0  0  0  0  0  0
  -18.0370  -28.0990   22.9580 C   0  0  0  0  0  0  0  0  0  0  0  0
  -20.5990  -28.3600   23.2020 C   0  0  0  0  0  3  0  0  0  0  0  0
  -20.6910  -26.9230   22.6360 C   0  0  0  0  0  2  0  0  0  0  0  0
  -19.5830  -26.5980   21.6300 C   0  0  0  0  0  2  0  0  0  0  0  0
  -18.2060  -26.7460   22.2840 C   0  0  0  0  0  2  0  0  0  0  0  0
  -19.1600  -28.8630   23.3750 C   0  0  0  0  0  0  0  0  0  0  0  0
  -18.9430  -30.1270   23.9670 C   0  0  0  0  0  3  0  0  0  0  0  0
  -17.6410  -30.6250   24.1480 C   0  0  0  0  0  3  0  0  0  0  0  0
  -16.5330  -29.8600   23.7430 C   0  0  0  0  0  3  0  0  0  0  0  0
  -16.7330  -28.5990   23.1550 C   0  0  0  0  0  3  0  0  0  0  0  0
  -25.9140  -32.4960   23.8180 C   0  0  0  0  0  3  0  0  0  0  0  0
  -25.5880  -33.8930   24.1560 N   0  0  0  0  0  0  0  0  0  0  0  0
  -25.9120  -34.9610   23.4120 C   0  0  0  0  0  0  0  0  0  0  0  0
  -26.5760  -34.8680   22.3760 O   0  0  0  0  0  0  0  0  0  0  0  0
  -24.9980  -34.0350   24.9610 H   0  0  0  0  0  0  0  0  0  0  0  0
  -24.1720  -36.7530   23.0900 C   0  0  0  0  0  1  0  0  0  0  0  0
  -25.4240  -36.3450   23.8850 C   0  0  0  0  0  3  0  0  0  0  0  0
  -27.5640  -37.2340   24.6990 C   0  0  0  0  0  1  0  0  0  0  0  0
  -26.4510  -37.4050   23.7690 N   0  0  0  0  0  0  0  0  0  0  0  0
  -26.0470  -38.3230   23.9280 H   0  0  0  0  0  0  0  0  0  0  0  0
  -26.4280  -31.7320   25.1010 C   0  0  1  0  0  0  0  0  0  0  0  0
  -25.3330  -31.4970   26.1720 C   0  0  0  0  0  1  0  0  0  0  0  0
  -27.0150  -30.3540   24.7280 C   0  0  0  0  0  1  0  0  0  0  0  0
  -27.5790  -32.5310   25.7560 C   0  0  0  0  0  1  0  0  0  0  0  0
  1  2  1  0
  3  7  1  0
  3  1  1  0
  3  4  1  0
  4  5  1  0
  4 13  1  0
  5  2  1  0
  5  6  1  1
  8  7  1  0
  9  8  1  0
 10  9  1  0
 11  9  1  0
 12  9  1  0
 15 20  1  0
 16 17  1  0
 16 15  1  0
 18 17  1  0
 18 27  1  0
 18 19  1  0
 20 14  1  0
 20 19  1  0
 21 14  2  0
 22 14  1  0
 22 13  1  0
 23 22  1  0
 24 25  2  0
 25 44  1  0
 26 25  1  0
 26 29  1  0
 27 24  1  0
 27 28  1  0
 28 26  2  0
 29 30  1  0
 30 31  2  0
 32 35  1  0
 32 31  1  0
 33 32  2  0
 34 33  1  0
 34 29  2  0
 35 36  1  0
 36 37  1  0
 37 38  2  0
 39 38  1  0
 39 43  1  0
 40 39  2  0
 41 36  2  0
 41 40  1  0
 42 41  1  0
 44 45  1  0
 45 48  1  0
 45 47  1  0
 46 44  2  0
 49 50  1  0
 49 24  1  0
 51 49  1  0
 52  5  1  0
 53 52  1  0
 53 54  1  0
 55 66  2  0
 56 54  1  0
 56 61  1  0
 57 65  1  0
 57 67  1  0
 58 64  1  0
 58 60  1  0
 59 65  1  0
 60 61  2  0
 60 59  1  0
 62 56  2  0
 63 62  1  0
 63 58  2  0
 64 57  1  0
 65 55  1  0
 67 69  2  0
 68 67  1  0
 70 68  1  0
 71 80  2  0
 71 76  1  0
 72 68  1  0
 72 76  1  0
 73 72  1  0
 74 75  1  0
 74 73  1  0
 75 71  1  0
 76 77  2  0
 77 78  1  0
 79 78  2  0
 80 79  1  0
 81 55  1  0
 81 82  1  0
 81 91  1  0
 82 85  1  0
 83 87  1  0
 83 82  1  0
 84 83  2  0
 87 86  1  0
 89 87  1  0
 89 90  1  0
 89 88  1  0
 91 94  1  1
 91 92  1  0
 93 91  1  0
M  ISO  4  14 100  22 100  53 101  54 101
M  END
>  <TORSDO>  (80) 
F 22

>  <SCORE>  (80) 
-15.166

>  <name>  (80) 
83

>  <ligand_id>  (80) 
83

>  <original_smiles>  (80) 
[H]c1c([H])c([H])c2c(c1[H])C([H])([H])C([H])([H])C([H])([H])C2([H])N([H])C(=O)C1([H])N(C(=O)C([H])(N([H])C(=O)C([H])(N([H])C([H])([H])[H])C([H])([H])[H])C(C([H])([H])[H])(C([H])([H])[H])C([H])([H])[H])C([H])([H])c2c([H])c(OC([H])([H])C([H])([H])[N+]3([H])C([H])([H])C([H])([H])C([H])(C([H])([H])C([H])([H])[N+]([H])([H])[H])C3([H])C([H])([H])N([H])C(=O)N3C([H])([H])C([H])([H])C([H])([H])C([H])(n4nc(-c5c([H])c([H])c(Oc6c([H])c([H])c(F)c([H])c6F)c([H])c5[H])c(C(=O)N([H])[H])c4N([H])[H])C3([H])[H])c([H])c([H])c2C1([H])[H]

>  <smiles>  (80) 
[H]c1c([H])c([H])c2c(c1[H])C([H])([H])C([H])([H])C([H])([H])C2([H])N([H])C(=O)C1([H])N(C(=O)C([H])(N([H])C(=O)C([H])(N([H])C([H])([H])[H])C([H])([H])[H])C(C([H])([H])[H])(C([H])([H])[H])C([H])([H])[H])C([H])([H])c2c([H])c(OC([H])([H])C([H])([H])[N+]3([H])C([H])([H])C([H])([H])C([H])(C([H])([H])C([H])([H])[N+]([H])([H])[H])C3([H])C([H])([H])N([H])C(=O)N3C([H])([H])C([H])([H])C([H])([H])C([H])(n4nc(-c5c([H])c([H])c(Oc6c([H])c([H])c(F)c([H])c6F)c([H])c5[H])c(C(=O)N([H])[H])c4N([H])[H])C3([H])[H])c([H])c([H])c2C1([H])[H]

$$$$
84:0:0
     RDKit          3D

 91100  0  0  1  0  0  0  0  0999 V2000
  -28.9420  -22.5460   21.4570 C   0  0  0  0  0  2  0  0  0  0  0  0
  -28.5480  -23.3980   20.4460 C   0  0  0  0  0  3  0  0  0  0  0  0
  -28.3240  -22.6700   19.0960 C   0  0  0  0  0  2  0  0  0  0  0  0
  -28.9340  -21.1900   18.9610 C   0  0  0  0  0  2  0  0  0  0  0  0
  -28.9340  -20.9510   21.4570 C   0  0  0  0  0  3  0  0  0  0  0  0
  -28.5980  -20.2280   20.1490 C   0  0  0  0  0  3  0  0  0  0  0  0
  -29.4070  -18.9660   20.8000 C   0  0  0  0  0  3  0  0  0  0  0  0
  -30.8080  -19.8500   22.7170 C   0  0  0  0  0  1  0  0  0  0  0  0
  -30.1740  -20.1130   21.4090 N   0  0  2  0  0  4  0  0  0  0  0  0
  -30.8360  -20.4930   20.7510 H   0  0  0  0  0  0  0  0  0  0  0  0
  -27.8800  -24.8730   20.7490 C   0  0  0  0  0  2  0  0  0  0  0  0
  -28.2710  -26.2810   20.2590 O   0  0  0  0  0  0  0  0  0  0  0  0
  -24.6140  -31.9240   23.2620 C   0  0  0  0  0  0  0  0  0  0  0  0
  -27.2280  -27.2690   20.2140 C   0  0  0  0  0  0  0  0  0  0  0  0
  -23.4210  -30.5200   21.6230 C   0  0  0  0  0  3  0  0  0  0  0  0
  -24.8820  -28.9700   20.1890 C   0  0  0  0  0  0  0  0  0  0  0  0
  -25.9710  -30.8190   21.4490 C   0  0  0  0  0  2  0  0  0  0  0  0
  -26.0580  -29.4310   20.7960 C   0  0  0  0  0  0  0  0  0  0  0  0
  -27.2350  -28.5960   20.7930 C   0  0  0  0  0  3  0  0  0  0  0  0
  -26.0330  -26.9120   19.5520 C   0  0  0  0  0  3  0  0  0  0  0  0
  -24.8800  -27.7220   19.5510 C   0  0  0  0  0  3  0  0  0  0  0  0
  -23.6440  -29.8490   20.2420 C   0  0  0  0  0  2  0  0  0  0  0  0
  -24.6890  -31.1080   22.1660 N   0  0  0  0  0  0  0  0  0  0  0  0
  -23.5280  -32.1960   23.7940 O   0  0  0  0  0  0  0  0  0  0  0  0
  -22.7580  -29.5020   22.5850 C   0  0  0  0  0  0  0  0  0  0  0  0
  -21.4320  -29.3150   22.4590 N   0  0  0  0  0  0  0  0  0  0  0  0
  -23.4380  -28.8850   23.4080 O   0  0  0  0  0  0  0  0  0  0  0  0
  -20.9390  -29.8680   21.7710 H   0  0  0  0  0  0  0  0  0  0  0  0
  -18.0670  -28.0650   22.9500 C   0  0  0  0  0  0  0  0  0  0  0  0
  -20.6200  -28.3700   23.2310 C   0  0  0  0  0  3  0  0  0  0  0  0
  -20.7490  -26.9350   22.6650 C   0  0  0  0  0  2  0  0  0  0  0  0
  -19.6570  -26.5890   21.6470 C   0  0  0  0  0  2  0  0  0  0  0  0
  -18.2700  -26.7160   22.2820 C   0  0  0  0  0  2  0  0  0  0  0  0
  -19.1720  -28.8490   23.3810 C   0  0  0  0  0  0  0  0  0  0  0  0
  -18.9280  -30.1090   23.9680 C   0  0  0  0  0  3  0  0  0  0  0  0
  -17.6140  -30.5880   24.1260 C   0  0  0  0  0  3  0  0  0  0  0  0
  -16.5250  -29.8020   23.7100 C   0  0  0  0  0  3  0  0  0  0  0  0
  -16.7530  -28.5430   23.1280 C   0  0  0  0  0  3  0  0  0  0  0  0
  -25.8900  -32.5700   23.8850 C   0  0  0  0  0  3  0  0  0  0  0  0
  -25.5720  -33.9690   24.2060 N   0  0  0  0  0  0  0  0  0  0  0  0
  -25.9060  -35.0220   23.4490 C   0  0  0  0  0  0  0  0  0  0  0  0
  -26.5820  -34.9170   22.4210 O   0  0  0  0  0  0  0  0  0  0  0  0
  -24.9740  -34.1250   25.0050 H   0  0  0  0  0  0  0  0  0  0  0  0
  -24.1830  -36.8170   23.0760 C   0  0  0  0  0  1  0  0  0  0  0  0
  -25.4140  -36.4110   23.9010 C   0  0  0  0  0  3  0  0  0  0  0  0
  -27.5390  -37.2970   24.7570 C   0  0  0  0  0  1  0  0  0  0  0  0
  -26.4480  -37.4650   23.8000 N   0  0  0  0  0  0  0  0  0  0  0  0
  -26.0400  -38.3840   23.9420 H   0  0  0  0  0  0  0  0  0  0  0  0
  -26.4020  -31.8120   25.1710 C   0  0  1  0  0  0  0  0  0  0  0  0
  -25.3040  -31.5810   26.2350 C   0  0  0  0  0  1  0  0  0  0  0  0
  -26.9930  -30.4330   24.7980 C   0  0  0  0  0  1  0  0  0  0  0  0
  -27.5460  -32.6180   25.8300 C   0  0  0  0  0  1  0  0  0  0  0  0
  -30.2750  -17.6990   20.1520 C   0  0  0  0  0  2  0  0  0  0  0  0
  -30.6440  -15.0110   20.0960 C   0  0  0  0  0  0  0  0  0  0  0  0
  -30.4650  -12.6960   19.1060 C   0  0  0  0  0  2  0  0  0  0  0  0
  -29.4850  -12.6980   17.9110 C   0  0  0  0  0  2  0  0  0  0  0  0
  -28.0400  -12.4780   18.3960 C   0  0  0  0  0  2  0  0  0  0  0  0
  -27.6810  -13.3710   19.6120 C   0  0  0  0  0  3  0  0  0  0  0  0
  -28.7810  -13.3530   20.6980 C   0  0  0  0  0  2  0  0  0  0  0  0
  -30.0330  -13.7630   20.0490 N   0  0  0  0  0  0  0  0  0  0  0  0
  -31.8230  -15.0890   19.7400 O   0  0  0  0  0  0  0  0  0  0  0  0
  -29.8930  -16.1860   20.3300 N   0  0  0  0  0  0  0  0  0  0  0  0
  -28.9310  -16.0160   20.5860 H   0  0  0  0  0  0  0  0  0  0  0  0
  -25.3230  -13.9140   20.4490 C   0  0  0  0  0  0  0  0  0  0  0  0
  -24.2810  -13.1220   20.8460 C   0  0  0  0  0  0  0  0  0  0  0  0
  -24.7580  -11.7780   20.7760 C   0  0  0  0  0  0  0  0  0  0  0  0
  -26.3650  -13.0520   20.1550 N   0  0  0  0  0  0  0  0  0  0  0  0
  -26.0370  -11.7600   20.4170 N   0  0  0  0  0  0  0  0  0  0  0  0
  -24.0520  -10.5050   20.9720 C   0  0  0  0  0  0  0  0  0  0  0  0
  -24.5030   -9.5440   21.9060 C   0  0  0  0  0  3  0  0  0  0  0  0
  -23.7940   -8.3370   22.0900 C   0  0  0  0  0  3  0  0  0  0  0  0
  -22.6210   -8.0810   21.3410 C   0  0  0  0  0  0  0  0  0  0  0  0
  -22.1900   -9.0300   20.3970 C   0  0  0  0  0  3  0  0  0  0  0  0
  -22.8990  -10.2280   20.2110 C   0  0  0  0  0  3  0  0  0  0  0  0
  -21.8820   -6.9260   21.4350 O   0  0  0  0  0  0  0  0  0  0  0  0
  -21.8150   -6.2090   22.6010 C   0  0  0  0  0  0  0  0  0  0  0  0
  -21.3330   -6.7780   23.8000 C   0  0  0  0  0  3  0  0  0  0  0  0
  -21.2160   -5.9850   24.9590 C   0  0  0  0  0  3  0  0  0  0  0  0
  -21.5690   -4.6230   24.9190 C   0  0  0  0  0  0  0  0  0  0  0  0
  -22.0420   -4.0520   23.7250 C   0  0  0  0  0  3  0  0  0  0  0  0
  -22.1610   -4.8420   22.5690 C   0  0  0  0  0  0  0  0  0  0  0  0
  -22.5980   -4.2830   21.4150 F   0  0  0  0  0  0  0  0  0  0  0  0
  -21.4480   -3.8590   26.0310 F   0  0  0  0  0  0  0  0  0  0  0  0
  -22.8900  -13.5800   21.1760 C   0  0  0  0  0  0  0  0  0  0  0  0
  -22.2010  -12.8610   22.0540 N   0  0  0  0  0  0  0  0  0  0  0  0
  -22.4260  -14.6110   20.6910 O   0  0  0  0  0  0  0  0  0  0  0  0
  -22.5900  -12.0260   22.4650 H   0  0  0  0  0  0  0  0  0  0  0  0
  -21.2700  -13.1500   22.3190 H   0  0  0  0  0  0  0  0  0  0  0  0
  -25.4650  -15.2900   20.2850 N   0  0  0  0  0  0  0  0  0  0  0  0
  -24.6880  -15.9280   20.4230 H   0  0  0  0  0  0  0  0  0  0  0  0
  -26.2790  -15.7410   19.8900 H   0  0  0  0  0  0  0  0  0  0  0  0
  2 11  1  0
  2  1  1  0
  3  2  1  0
  4  3  1  0
  5  1  1  0
  6  4  1  0
  6  7  1  0
  6  5  1  0
  7 53  1  0
  7  9  1  0
  9  5  1  0
  9  8  1  0
  9 10  1  6
 12 11  1  0
 13 24  2  0
 14 12  1  0
 14 19  1  0
 15 23  1  0
 15 25  1  0
 16 22  1  0
 16 18  1  0
 17 23  1  0
 18 17  1  0
 19 18  2  0
 20 14  2  0
 21 20  1  0
 21 16  2  0
 22 15  1  0
 23 13  1  0
 25 27  2  0
 26 25  1  0
 28 26  1  0
 29 38  2  0
 29 34  1  0
 30 26  1  0
 30 34  1  0
 31 30  1  0
 32 33  1  0
 32 31  1  0
 33 29  1  0
 34 35  2  0
 35 36  1  0
 37 36  2  0
 38 37  1  0
 39 13  1  0
 39 40  1  0
 39 49  1  0
 40 43  1  0
 41 45  1  0
 41 40  1  0
 42 41  2  0
 45 44  1  0
 47 45  1  0
 47 48  1  0
 47 46  1  0
 49 52  1  1
 49 50  1  0
 51 49  1  0
 53 62  1  0
 54 62  1  0
 55 60  1  0
 56 57  1  0
 56 55  1  0
 58 57  1  0
 58 67  1  0
 58 59  1  0
 60 54  1  0
 60 59  1  0
 61 54  2  0
 62 63  1  0
 64 65  2  0
 65 84  1  0
 66 65  1  0
 66 69  1  0
 67 68  1  0
 67 64  1  0
 68 66  2  0
 69 70  1  0
 70 71  2  0
 72 75  1  0
 72 71  1  0
 73 72  2  0
 74 73  1  0
 74 69  2  0
 75 76  1  0
 76 77  1  0
 77 78  2  0
 79 78  1  0
 79 83  1  0
 80 79  2  0
 81 76  2  0
 81 80  1  0
 82 81  1  0
 84 85  1  0
 85 88  1  0
 85 87  1  0
 86 84  2  0
 89 90  1  0
 89 64  1  0
 91 89  1  0
M  ISO  4  11 101  12 101  54 100  62 100
M  END
>  <TORSDO>  (81) 
F 18

>  <SCORE>  (81) 
-14.516

>  <name>  (81) 
84

>  <ligand_id>  (81) 
84

>  <original_smiles>  (81) 
[H]C1=C(C([H])([H])Oc2c([H])c([H])c3c(c2[H])C([H])([H])N(C(=O)C([H])(N([H])C(=O)C([H])(N([H])C([H])([H])[H])C([H])([H])[H])C(C([H])([H])[H])(C([H])([H])[H])C([H])([H])[H])C([H])(C(=O)N([H])C2([H])c4c([H])c([H])c([H])c([H])c4C([H])([H])C([H])([H])C2([H])[H])C3([H])[H])C([H])([H])C([H])([H])C2([H])C1([H])[N+]([H])(C([H])([H])[H])C2([H])C([H])([H])N([H])C(=O)N1C([H])([H])C([H])([H])C([H])([H])C([H])(n2nc(-c3c([H])c([H])c(Oc4c([H])c([H])c(F)c([H])c4F)c([H])c3[H])c(C(=O)N([H])[H])c2N([H])[H])C1([H])[H]

>  <smiles>  (81) 
[H]C1=C(C([H])([H])Oc2c([H])c([H])c3c(c2[H])C([H])([H])N(C(=O)C([H])(N([H])C(=O)C([H])(N([H])C([H])([H])[H])C([H])([H])[H])C(C([H])([H])[H])(C([H])([H])[H])C([H])([H])[H])C([H])(C(=O)N([H])C2([H])c4c([H])c([H])c([H])c([H])c4C([H])([H])C([H])([H])C2([H])[H])C3([H])[H])C([H])([H])C([H])([H])C2([H])C1([H])[N+]([H])(C([H])([H])[H])C2([H])C([H])([H])N([H])C(=O)N1C([H])([H])C([H])([H])C([H])([H])C([H])(n2nc(-c3c([H])c([H])c(Oc4c([H])c([H])c(F)c([H])c4F)c([H])c3[H])c(C(=O)N([H])[H])c2N([H])[H])C1([H])[H]

$$$$
85:0:0
     RDKit          3D

 93 95  0  0  1  0  0  0  0  0999 V2000
  -24.5030  -15.7510   18.8940 C   0  0  0  0  0 15  0  0  0  0  0  0
  -25.7520  -10.7120   21.6600 C   0  0  0  0  0  3  0  0  0  0  0  0
  -23.8650  -11.2680   21.7990 C   0  0  0  0  0 15  0  0  0  0  0  0
  -25.6350  -12.4410   18.8890 C   0  0  0  0  0  2  0  0  0  0  0  0
  -26.6600  -11.3280   20.0240 C   0  0  0  0  0  3  0  0  0  0  0  0
  -23.2110  -12.4410   20.3180 C   0  0  0  0  0  2  0  0  0  0  0  0
  -24.2570  -13.4950   19.1900 C   0  0  0  0  0  2  0  0  0  0  0  0
  -21.6790  -12.5890   20.1030 C   0  0  0  0  0  1  0  0  0  0  0  0
  -28.5010  -11.5500   19.9490 C   0  0  0  0  0  1  0  0  0  0  0  0
  -30.9510  -13.6490   20.6180 C   0  0  0  0  0  3  0  0  0  0  0  0
  -30.8080  -11.5440   19.0570 C   0  0  0  0  0  2  0  0  0  0  0  0
  -29.5990  -12.3180   17.7830 C   0  0  0  0  0  2  0  0  0  0  0  0
  -28.1310  -13.3590   18.4180 C   0  0  0  0  0  1  0  0  0  0  0  0
  -27.8560  -13.8490   20.4190 C   0  0  0  0  0  2  0  0  0  0  0  0
  -29.0810  -13.0420   21.7290 C   0  0  0  0  0  2  0  0  0  0  0  0
  -30.5160  -12.4460   20.7060 N   0  0  1  0  0  4  0  0  0  0  0  0
  -31.8960  -14.2950   20.1340 O   0  0  0  0  0  1  0  0  0  0  0  0
  -29.9800  -13.3320   19.8300 N   0  0  0  0  0  0  0  0  0  0  0  0
  -29.9010  -13.8870   18.9920 H   0  0  0  0  0  0  0  0  0  0  0  0
  -25.7120  -14.5050   21.6760 C   0  0  0  0  0  3  0  0  0  0  0  0
  -24.8230  -13.6660   22.2700 C   0  0  0  0  0  3  0  0  0  0  0  0
  -25.4840  -12.6020   21.6170 C   0  0  2  0  0  0  0  0  0  0  0  0
  -26.6940  -13.7550   21.1740 N   0  0  1  0  0  4  0  0  0  0  0  0
  -26.6320  -12.9360   22.1280 N   0  0  0  0  0  2  0  0  0  0  0  0
  -24.7840  -10.1840   20.2850 C   0  0  0  0  0  3  0  0  0  0  0  0
  -25.0460   -8.7570   20.8840 C   0  0  0  0  0  2  0  0  0  0  0  0
  -24.2520   -7.9330   21.8130 C   0  0  0  0  0  2  0  0  0  0  0  0
  -22.8910   -7.8040   21.5300 C   0  0  0  0  0  0  0  0  0  0  0  0
  -22.5260   -8.7050   20.4980 C   0  0  0  0  0  3  0  0  0  0  0  0
  -23.4280   -9.6850   19.8880 C   0  0  0  0  0  2  0  0  0  0  0  0
  -22.0660   -6.7000   21.8210 O   0  0  0  0  0  0  0  0  0  0  0  0
  -21.9650   -5.9610   23.0030 C   0  0  0  0  0  0  0  0  0  0  0  0
  -21.3960   -6.5220   24.1690 C   0  0  0  0  0  3  0  0  0  0  0  0
  -21.1260   -5.7260   25.3070 C   0  0  0  0  0  3  0  0  0  0  0  0
  -21.4200   -4.3480   25.3010 C   0  0  0  0  0  0  0  0  0  0  0  0
  -21.9700   -3.7680   24.1470 C   0  0  0  0  0  3  0  0  0  0  0  0
  -22.2300   -4.5610   23.0060 C   0  0  0  0  0  0  0  0  0  0  0  0
  -22.7100   -3.9490   21.8970 F   0  0  0  0  0  0  0  0  0  0  0  0
  -21.1670   -3.5880   26.3980 F   0  0  0  0  0  0  0  0  0  0  0  0
  -23.3450  -13.8920   22.5870 C   0  0  0  0  0  0  0  0  0  0  0  0
  -22.7550  -13.0080   23.4100 N   0  0  0  0  0  0  0  0  0  0  0  0
  -22.6520  -14.5490   21.8080 O   0  0  0  0  0  0  0  0  0  0  0  0
  -23.3180  -12.3430   23.9170 H   0  0  0  0  0  0  0  0  0  0  0  0
  -21.7570  -13.0260   23.5490 H   0  0  0  0  0  0  0  0  0  0  0  0
  -25.8670  -15.8200   21.5440 N   0  0  0  0  0  0  0  0  0  0  0  0
  -25.5330  -16.2670   22.3920 H   0  0  0  0  0  0  0  0  0  0  0  0
  -26.8500  -16.0390   21.4160 H   0  0  0  0  0  0  0  0  0  0  0  0
  -24.8670  -17.7460   19.5200 N   0  0  0  0  0  2  0  0  0  0  0  0
  -25.4160  -17.4370   20.3180 H   0  0  0  0  0  0  0  0  0  0  0  0
  -23.9570  -17.9510   19.9010 H   0  0  0  0  0  0  0  0  0  0  0  0
  -25.6260  -19.7040   19.2790 C   0  0  0  0  0 15  0  0  0  0  0  0
  -25.8200  -22.0400   19.8560 C   0  0  0  0  0 15  0  0  0  0  0  0
  -26.6830  -24.0210   19.9710 O   0  0  0  0  0  1  0  0  0  0  0  0
  -24.5790  -31.5880   22.9920 C   0  0  0  0  0  0  0  0  0  0  0  0
  -26.3690  -25.7270   20.0440 C   0  0  0  0  0  0  0  0  0  0  0  0
  -23.4090  -30.1860   21.3940 C   0  0  0  0  0  3  0  0  0  0  0  0
  -24.7350  -28.4360   19.9540 C   0  0  0  0  0  0  0  0  0  0  0  0
  -25.9890  -29.9880   21.3910 C   0  0  0  0  0  2  0  0  0  0  0  0
  -25.9060  -28.4970   20.7000 C   0  0  0  0  0  0  0  0  0  0  0  0
  -26.7300  -27.1650   20.7100 C   0  0  0  0  0  3  0  0  0  0  0  0
  -25.3620  -26.1290   19.1620 C   0  0  0  0  0  3  0  0  0  0  0  0
  -24.5710  -27.3120   19.1450 C   0  0  0  0  0  3  0  0  0  0  0  0
  -23.6510  -29.5280   20.0100 C   0  0  0  0  0  2  0  0  0  0  0  0
  -24.7060  -30.6500   21.9680 N   0  0  0  0  0  0  0  0  0  0  0  0
  -23.4680  -31.9240   23.4490 O   0  0  0  0  0  0  0  0  0  0  0  0
  -22.6700  -29.2180   22.3610 C   0  0  0  0  0  0  0  0  0  0  0  0
  -21.3350  -29.0770   22.2370 N   0  0  0  0  0  0  0  0  0  0  0  0
  -23.3110  -28.6060   23.2170 O   0  0  0  0  0  0  0  0  0  0  0  0
  -20.8580  -29.6250   21.5350 H   0  0  0  0  0  0  0  0  0  0  0  0
  -17.9530  -27.8460   22.7560 C   0  0  0  0  0  0  0  0  0  0  0  0
  -20.5100  -28.1480   23.0220 C   0  0  0  0  0  3  0  0  0  0  0  0
  -20.6280  -26.7070   22.4740 C   0  0  0  0  0  2  0  0  0  0  0  0
  -19.5370  -26.3590   21.4570 C   0  0  0  0  0  2  0  0  0  0  0  0
  -18.1500  -26.4940   22.0900 C   0  0  0  0  0  2  0  0  0  0  0  0
  -19.0610  -28.6300   23.1800 C   0  0  0  0  0  0  0  0  0  0  0  0
  -18.8190  -29.8890   23.7680 C   0  0  0  0  0  3  0  0  0  0  0  0
  -17.5060  -30.3680   23.9340 C   0  0  0  0  0  3  0  0  0  0  0  0
  -16.4140  -29.5830   23.5240 C   0  0  0  0  0  3  0  0  0  0  0  0
  -16.6390  -28.3230   22.9400 C   0  0  0  0  0  3  0  0  0  0  0  0
  -25.7980  -32.3040   23.6500 C   0  0  0  0  0  3  0  0  0  0  0  0
  -25.4110  -33.6990   23.9860 N   0  0  0  0  0  0  0  0  0  0  0  0
  -25.7270  -34.7990   23.2880 C   0  0  0  0  0  0  0  0  0  0  0  0
  -26.4220  -34.7530   22.2710 O   0  0  0  0  0  0  0  0  0  0  0  0
  -24.7890  -33.8070   24.7730 H   0  0  0  0  0  0  0  0  0  0  0  0
  -23.9530  -36.5740   22.9860 C   0  0  0  0  0  1  0  0  0  0  0  0
  -25.2000  -36.1660   23.7880 C   0  0  0  0  0  3  0  0  0  0  0  0
  -27.3010  -37.1010   24.6630 C   0  0  0  0  0  1  0  0  0  0  0  0
  -26.2020  -37.2560   23.7140 N   0  0  0  0  0  0  0  0  0  0  0  0
  -25.7650  -38.1580   23.8800 H   0  0  0  0  0  0  0  0  0  0  0  0
  -26.2920  -31.5870   24.9690 C   0  0  1  0  0  0  0  0  0  0  0  0
  -25.1740  -31.3510   26.0140 C   0  0  0  0  0  1  0  0  0  0  0  0
  -26.9200  -30.2150   24.6600 C   0  0  0  0  0  1  0  0  0  0  0  0
  -27.4040  -32.4270   25.6400 C   0  0  0  0  0  1  0  0  0  0  0  0
  2  5  1  0
  4  7  1  0
  4  5  1  0
  5  9  1  0
  7  6  1  0
  8  6  1  0
 10 17  1  0
 10 16  1  0
 16 11  1  1
 12 13  1  0
 12 11  1  0
 14 15  1  0
 16 15  1  0
 18 10  1  0
 18 16  1  0
 19 18  1  0
 20 45  1  0
 20 21  1  0
 21 40  1  0
 22  2  1  6
 22 24  1  0
 22 21  1  0
 23 14  1  6
 23 22  1  0
 23 20  1  0
 23 24  1  0
 25 26  1  0
 25  2  1  0
 26 27  1  0
 28 27  1  0
 28 31  1  0
 29 28  2  0
 30 25  1  0
 30 29  1  0
 31 32  1  0
 32 37  2  0
 32 33  1  0
 33 34  2  0
 35 34  1  0
 35 39  1  0
 36 35  2  0
 37 36  1  0
 38 37  1  0
 40 41  1  0
 41 44  1  0
 41 43  1  0
 42 40  2  0
 45 46  1  0
 47 45  1  0
 48 50  1  0
 48 49  1  0
 53 55  1  0
 54 65  2  0
 55 60  1  0
 56 64  1  0
 56 66  1  0
 57 63  1  0
 57 59  1  0
 58 64  1  0
 59 60  2  0
 59 58  1  0
 61 55  2  0
 62 61  1  0
 62 57  2  0
 63 56  1  0
 64 54  1  0
 66 68  2  0
 67 66  1  0
 69 67  1  0
 70 79  2  0
 70 75  1  0
 71 67  1  0
 71 75  1  0
 72 71  1  0
 73 74  1  0
 73 72  1  0
 74 70  1  0
 75 76  2  0
 76 77  1  0
 78 77  2  0
 79 78  1  0
 80 54  1  0
 80 81  1  0
 80 90  1  0
 81 84  1  0
 82 86  1  0
 82 81  1  0
 83 82  2  0
 86 85  1  0
 88 86  1  0
 88 89  1  0
 88 87  1  0
 90 93  1  1
 90 91  1  0
 92 90  1  0
M  ISO  4  10 100  18 100  52 101  53 101
M  END
>  <TORSDO>  (82) 
F 21

>  <SCORE>  (82) 
0.120

>  <name>  (82) 
85

>  <ligand_id>  (82) 
85

>  <original_smiles>  (82) 
[H]c1c([H])c([H])c2c(c1[H])C([H])([H])C([H])([H])C([H])([H])C2([H])N([H])C(=O)C1([H])N(C(=O)C([H])(N([H])C(=O)C([H])(N([H])C([H])([H])[H])C([H])([H])[H])C(C([H])([H])[H])(C([H])([H])[H])C([H])([H])[H])C([H])([H])c2c([H])c(OC([H])([H])C([H])([H])[N+]([H])([H])C([H])([H])c3c([H])c(C([H])([H])N([H])C(=O)N4C([H])([H])C([H])([H])C([H])([H])C([H])(n5nc(-c6c([H])c([H])c(Oc7c([H])c([H])c(F)c([H])c7F)c([H])c6[H])c(C(=O)N([H])[H])c5N([H])[H])C4([H])[H])c([H])c([H])c3C([H])([H])[H])c([H])c([H])c2C1([H])[H]

>  <smiles>  (82) 
[H]c1c([H])c([H])c2c(c1[H])C([H])([H])C([H])([H])C([H])([H])C2([H])N([H])C(=O)C1([H])N(C(=O)C([H])(N([H])C(=O)C([H])(N([H])C([H])([H])[H])C([H])([H])[H])C(C([H])([H])[H])(C([H])([H])[H])C([H])([H])[H])C([H])([H])c2c([H])c(OC([H])([H])C([H])([H])[N+]([H])([H])C([H])([H])c3c([H])c(C([H])([H])N([H])C(=O)N4C([H])([H])C([H])([H])C([H])([H])C([H])(n5nc(-c6c([H])c([H])c(Oc7c([H])c([H])c(F)c([H])c7F)c([H])c6[H])c(C(=O)N([H])[H])c5N([H])[H])C4([H])[H])c([H])c([H])c3C([H])([H])[H])c([H])c([H])c2C1([H])[H]

$$$$
86:0:0
     RDKit          3D

 89 97  0  0  1  0  0  0  0  0999 V2000
  -28.0940  -20.9760   19.0440 C   0  0  0  0  0  2  0  0  0  0  0  0
  -28.2750  -19.3980   19.0690 C   0  0  0  0  0  2  0  0  0  0  0  0
  -29.6940  -20.4030   20.6480 C   0  0  0  0  0  2  0  0  0  0  0  0
  -28.6330  -21.6200   20.3400 C   0  0  0  0  0  3  0  0  0  0  0  0
  -29.1230  -18.8990   20.2910 C   0  0  1  0  0  0  0  0  0  0  0  0
  -28.1920  -18.4600   21.4430 C   0  0  0  0  0  1  0  0  0  0  0  0
  -30.6500  -15.0430   19.8830 C   0  0  0  0  0  0  0  0  0  0  0  0
  -30.5210  -12.6860   18.9390 C   0  0  0  0  0  2  0  0  0  0  0  0
  -29.5100  -12.6060   17.7730 C   0  0  0  0  0  2  0  0  0  0  0  0
  -28.0850  -12.3540   18.3060 C   0  0  0  0  0  2  0  0  0  0  0  0
  -27.7320  -13.2770   19.5050 C   0  0  0  0  0  3  0  0  0  0  0  0
  -28.8580  -13.3250   20.5550 C   0  0  0  0  0  2  0  0  0  0  0  0
  -30.0740  -13.7690   19.8670 N   0  0  0  0  0  0  0  0  0  0  0  0
  -31.8330  -15.0950   19.5230 O   0  0  0  0  0  0  0  0  0  0  0  0
  -30.1400  -17.6130   19.9470 C   0  0  0  0  0  0  0  0  0  0  0  0
  -29.8650  -16.2160   20.1170 N   0  0  0  0  0  0  0  0  0  0  0  0
  -31.2340  -17.9570   19.4910 O   0  0  0  0  0  0  0  0  0  0  0  0
  -28.9230  -16.0260   20.4170 H   0  0  0  0  0  0  0  0  0  0  0  0
  -25.4140  -13.8180   20.4530 C   0  0  0  0  0  0  0  0  0  0  0  0
  -24.3830  -13.0250   20.8750 C   0  0  0  0  0  0  0  0  0  0  0  0
  -24.8460  -11.6780   20.7520 C   0  0  0  0  0  0  0  0  0  0  0  0
  -26.4370  -12.9550   20.0940 N   0  0  0  0  0  0  0  0  0  0  0  0
  -26.1080  -11.6600   20.3410 N   0  0  0  0  0  0  0  0  0  0  0  0
  -24.1380  -10.4050   20.9510 C   0  0  0  0  0  0  0  0  0  0  0  0
  -24.5890   -9.4470   21.8870 C   0  0  0  0  0  3  0  0  0  0  0  0
  -23.8800   -8.2390   22.0750 C   0  0  0  0  0  3  0  0  0  0  0  0
  -22.7080   -7.9800   21.3220 C   0  0  0  0  0  0  0  0  0  0  0  0
  -22.2780   -8.9280   20.3750 C   0  0  0  0  0  3  0  0  0  0  0  0
  -22.9880  -10.1270   20.1860 C   0  0  0  0  0  3  0  0  0  0  0  0
  -21.9700   -6.8240   21.4160 O   0  0  0  0  0  0  0  0  0  0  0  0
  -21.8510   -6.1410   22.6000 C   0  0  0  0  0  0  0  0  0  0  0  0
  -21.3160   -6.7460   23.7580 C   0  0  0  0  0  3  0  0  0  0  0  0
  -21.1480   -5.9890   24.9330 C   0  0  0  0  0  3  0  0  0  0  0  0
  -21.5000   -4.6250   24.9490 C   0  0  0  0  0  0  0  0  0  0  0  0
  -22.0280   -4.0200   23.7940 C   0  0  0  0  0  3  0  0  0  0  0  0
  -22.1990   -4.7750   22.6210 C   0  0  0  0  0  0  0  0  0  0  0  0
  -22.6860   -4.1830   21.5050 F   0  0  0  0  0  0  0  0  0  0  0  0
  -21.3330   -3.8940   26.0750 F   0  0  0  0  0  0  0  0  0  0  0  0
  -23.0070  -13.4830   21.2620 C   0  0  0  0  0  0  0  0  0  0  0  0
  -22.3500  -12.7640   22.1660 N   0  0  0  0  0  0  0  0  0  0  0  0
  -22.5250  -14.5130   20.7950 O   0  0  0  0  0  0  0  0  0  0  0  0
  -22.7540  -11.9320   22.5680 H   0  0  0  0  0  0  0  0  0  0  0  0
  -21.4250  -13.0530   22.4480 H   0  0  0  0  0  0  0  0  0  0  0  0
  -25.5610  -15.1970   20.3160 N   0  0  0  0  0  0  0  0  0  0  0  0
  -24.8220  -15.8520   20.5490 H   0  0  0  0  0  0  0  0  0  0  0  0
  -26.3660  -15.6520   19.9120 H   0  0  0  0  0  0  0  0  0  0  0  0
  -28.9920  -23.2910   20.3570 C   0  0  0  0  0  3  0  0  0  0  0  0
  -27.9670  -24.6080   20.0620 C   0  0  0  0  0  3  0  0  0  0  0  0
  -28.2740  -26.1400   20.2040 O   0  0  0  0  0  0  0  0  0  0  0  0
  -24.6400  -31.7840   23.2080 C   0  0  0  0  0  0  0  0  0  0  0  0
  -27.2440  -27.1470   20.1200 C   0  0  0  0  0  0  0  0  0  0  0  0
  -23.4570  -30.4230   21.5230 C   0  0  0  0  0  3  0  0  0  0  0  0
  -24.9240  -28.8960   20.0710 C   0  0  0  0  0  0  0  0  0  0  0  0
  -26.0100  -30.7120   21.3840 C   0  0  0  0  0  2  0  0  0  0  0  0
  -26.0970  -29.3350   20.7030 C   0  0  0  0  0  0  0  0  0  0  0  0
  -27.2610  -28.4820   20.7030 C   0  0  0  0  0  3  0  0  0  0  0  0
  -26.0590  -26.8270   19.4290 C   0  0  0  0  0  3  0  0  0  0  0  0
  -24.9240  -27.6600   19.4070 C   0  0  0  0  0  3  0  0  0  0  0  0
  -23.6910  -29.7850   20.1270 C   0  0  0  0  0  2  0  0  0  0  0  0
  -24.7220  -30.9960   22.0920 N   0  0  0  0  0  0  0  0  0  0  0  0
  -23.5510  -32.0450   23.7400 O   0  0  0  0  0  0  0  0  0  0  0  0
  -22.7790  -29.3890   22.4600 C   0  0  0  0  0  0  0  0  0  0  0  0
  -21.4500  -29.2200   22.3350 N   0  0  0  0  0  0  0  0  0  0  0  0
  -23.4500  -28.7420   23.2700 O   0  0  0  0  0  0  0  0  0  0  0  0
  -20.9580  -29.7970   21.6660 H   0  0  0  0  0  0  0  0  0  0  0  0
  -18.0640  -28.0380   22.8450 C   0  0  0  0  0  0  0  0  0  0  0  0
  -20.6310  -28.2650   23.0840 C   0  0  0  0  0  3  0  0  0  0  0  0
  -20.7040  -26.8540   22.4560 C   0  0  0  0  0  2  0  0  0  0  0  0
  -19.5820  -26.5800   21.4490 C   0  0  0  0  0  2  0  0  0  0  0  0
  -18.2130  -26.7160   22.1180 C   0  0  0  0  0  2  0  0  0  0  0  0
  -19.1960  -28.7750   23.2870 C   0  0  0  0  0  0  0  0  0  0  0  0
  -18.9960  -30.0180   23.9280 C   0  0  0  0  0  3  0  0  0  0  0  0
  -17.6970  -30.5200   24.1380 C   0  0  0  0  0  3  0  0  0  0  0  0
  -16.5790  -29.7820   23.7060 C   0  0  0  0  0  3  0  0  0  0  0  0
  -16.7660  -28.5440   23.0670 C   0  0  0  0  0  3  0  0  0  0  0  0
  -25.9160  -32.4090   23.8580 C   0  0  0  0  0  3  0  0  0  0  0  0
  -25.6030  -33.8090   24.1900 N   0  0  0  0  0  0  0  0  0  0  0  0
  -25.9230  -34.8630   23.4280 C   0  0  0  0  0  0  0  0  0  0  0  0
  -26.5820  -34.7620   22.3890 O   0  0  0  0  0  0  0  0  0  0  0  0
  -25.0230  -33.9580   25.0020 H   0  0  0  0  0  0  0  0  0  0  0  0
  -24.1840  -36.6520   23.1110 C   0  0  0  0  0  1  0  0  0  0  0  0
  -25.4430  -36.2500   23.8960 C   0  0  0  0  0  3  0  0  0  0  0  0
  -27.5930  -37.1500   24.6770 C   0  0  0  0  0  1  0  0  0  0  0  0
  -26.4700  -37.3080   23.7570 N   0  0  0  0  0  0  0  0  0  0  0  0
  -26.0580  -38.2250   23.9080 H   0  0  0  0  0  0  0  0  0  0  0  0
  -26.4050  -31.6330   25.1430 C   0  0  1  0  0  0  0  0  0  0  0  0
  -25.2940  -31.4040   26.1930 C   0  0  0  0  0  1  0  0  0  0  0  0
  -26.9840  -30.2480   24.7680 C   0  0  0  0  0  1  0  0  0  0  0  0
  -27.5470  -32.4210   25.8240 C   0  0  0  0  0  1  0  0  0  0  0  0
  1  2  1  0
  1  4  1  0
  2  5  1  0
  4 47  1  0
  4  3  1  0
  5  3  1  0
  5  6  1  1
  7 16  1  0
  8 13  1  0
  9 10  1  0
  9  8  1  0
 11 10  1  0
 11 22  1  0
 11 12  1  0
 13  7  1  0
 13 12  1  0
 14  7  2  0
 15 16  1  0
 15  5  1  0
 16 18  1  0
 17 15  2  0
 19 20  2  0
 20 39  1  0
 21 20  1  0
 21 24  1  0
 22 23  1  0
 22 19  1  0
 23 21  2  0
 24 25  1  0
 25 26  2  0
 27 30  1  0
 27 26  1  0
 28 27  2  0
 29 28  1  0
 29 24  2  0
 30 31  1  0
 31 36  2  0
 31 32  1  0
 32 33  2  0
 33 34  1  0
 34 38  1  0
 35 34  2  0
 36 35  1  0
 37 36  1  0
 39 40  1  0
 40 43  1  0
 40 42  1  0
 41 39  2  0
 44 19  1  0
 44 45  1  0
 46 44  1  0
 48 49  1  0
 48 47  2  0
 50 61  2  0
 51 49  1  0
 51 56  1  0
 52 60  1  0
 52 62  1  0
 53 59  1  0
 53 55  1  0
 54 60  1  0
 55 56  2  0
 55 54  1  0
 57 51  2  0
 58 57  1  0
 58 53  2  0
 59 52  1  0
 60 50  1  0
 62 64  2  0
 63 62  1  0
 65 63  1  0
 66 75  2  0
 66 71  1  0
 67 63  1  0
 67 71  1  0
 68 67  1  0
 69 70  1  0
 69 68  1  0
 70 66  1  0
 71 72  2  0
 72 73  1  0
 74 73  2  0
 75 74  1  0
 76 50  1  0
 76 77  1  0
 76 86  1  0
 77 80  1  0
 78 82  1  0
 78 77  1  0
 79 78  2  0
 82 81  1  0
 84 82  1  0
 84 85  1  0
 84 83  1  0
 86 89  1  1
 86 87  1  0
 88 86  1  0
M  ISO  4   7 100  16 100  48 101  49 101
M  END
>  <TORSDO>  (83) 
F 18

>  <SCORE>  (83) 
-13.757

>  <name>  (83) 
86

>  <ligand_id>  (83) 
86

>  <original_smiles>  (83) 
[H]c1c([H])c([H])c2c(c1[H])C([H])([H])C([H])([H])C([H])([H])C2([H])N([H])C(=O)C1([H])N(C(=O)C([H])(N([H])C(=O)C([H])(N([H])C([H])([H])[H])C([H])([H])[H])C(C([H])([H])[H])(C([H])([H])[H])C([H])([H])[H])C([H])([H])c2c([H])c(OC([H])([H])C([H])([H])C3([H])C([H])([H])C([H])([H])C(C(=O)N([H])C(=O)N4C([H])([H])C([H])([H])C([H])([H])C([H])(n5nc(-c6c([H])c([H])c(Oc7c([H])c([H])c(F)c([H])c7F)c([H])c6[H])c(C(=O)N([H])[H])c5N([H])[H])C4([H])[H])(C([H])([H])[H])C3([H])[H])c([H])c([H])c2C1([H])[H]

>  <smiles>  (83) 
[H]c1c([H])c([H])c2c(c1[H])C([H])([H])C([H])([H])C([H])([H])C2([H])N([H])C(=O)C1([H])N(C(=O)C([H])(N([H])C(=O)C([H])(N([H])C([H])([H])[H])C([H])([H])[H])C(C([H])([H])[H])(C([H])([H])[H])C([H])([H])[H])C([H])([H])c2c([H])c(OC([H])([H])C([H])([H])C3([H])C([H])([H])C([H])([H])C(C(=O)N([H])C(=O)N4C([H])([H])C([H])([H])C([H])([H])C([H])(n5nc(-c6c([H])c([H])c(Oc7c([H])c([H])c(F)c([H])c7F)c([H])c6[H])c(C(=O)N([H])[H])c5N([H])[H])C4([H])[H])(C([H])([H])[H])C3([H])[H])c([H])c([H])c2C1([H])[H]

$$$$
87:0:0
     RDKit          3D

 92100  0  0  1  0  0  0  0  0999 V2000
  -29.4810  -20.9090   20.1380 C   0  0  0  0  0  0  0  0  0  0  0  0
  -28.7240  -22.0690   20.3780 N   0  0  0  0  0  0  0  0  0  0  0  0
  -30.5910  -21.0320   19.6230 O   0  0  0  0  0  0  0  0  0  0  0  0
  -27.8140  -21.9010   20.7840 H   0  0  0  0  0  0  0  0  0  0  0  0
  -30.6160  -14.9170   20.1400 C   0  0  0  0  0  0  0  0  0  0  0  0
  -30.3440  -12.6170   19.1630 C   0  0  0  0  0  2  0  0  0  0  0  0
  -29.3850  -12.6380   17.9570 C   0  0  0  0  0  2  0  0  0  0  0  0
  -27.9340  -12.4400   18.4270 C   0  0  0  0  0  2  0  0  0  0  0  0
  -27.5700  -13.3400   19.6400 C   0  0  0  0  0  3  0  0  0  0  0  0
  -28.6630  -13.3460   20.7300 C   0  0  0  0  0  2  0  0  0  0  0  0
  -29.9250  -13.7140   20.0790 N   0  0  0  0  0  0  0  0  0  0  0  0
  -31.8180  -14.8840   19.8570 O   0  0  0  0  0  0  0  0  0  0  0  0
  -29.8580  -18.5620   21.5730 C   0  0  0  0  0  2  0  0  0  0  0  0
  -29.0180  -19.3880   20.5280 C   0  0  0  0  0  3  0  0  0  0  0  0
  -28.6020  -18.3290   19.4150 C   0  0  0  0  0  3  0  0  0  0  0  0
  -30.6820  -17.2500   21.1730 C   0  0  0  0  0  3  0  0  0  0  0  0
  -29.4600  -16.9780   19.1640 C   0  0  0  0  0  3  0  0  0  0  0  0
  -27.1260  -17.9480   19.6220 C   0  0  0  0  0  1  0  0  0  0  0  0
  -31.2860  -16.6760   22.4770 C   0  0  0  0  0  1  0  0  0  0  0  0
  -30.5310  -17.2510   18.0770 C   0  0  0  0  0  1  0  0  0  0  0  0
  -29.9910  -16.1840   20.3450 N   0  0  0  0  0  0  0  0  0  0  0  0
  -25.2060  -13.8880   20.4500 C   0  0  0  0  0  0  0  0  0  0  0  0
  -24.1570  -13.1030   20.8350 C   0  0  0  0  0  0  0  0  0  0  0  0
  -24.6300  -11.7560   20.7770 C   0  0  0  0  0  0  0  0  0  0  0  0
  -26.2510  -13.0230   20.1750 N   0  0  0  0  0  0  0  0  0  0  0  0
  -25.9150  -11.7340   20.4390 N   0  0  0  0  0  0  0  0  0  0  0  0
  -23.9150  -10.4880   20.9680 C   0  0  0  0  0  0  0  0  0  0  0  0
  -24.3470   -9.5310   21.9110 C   0  0  0  0  0  3  0  0  0  0  0  0
  -23.6280   -8.3290   22.0920 C   0  0  0  0  0  3  0  0  0  0  0  0
  -22.4630   -8.0780   21.3290 C   0  0  0  0  0  0  0  0  0  0  0  0
  -22.0500   -9.0240   20.3750 C   0  0  0  0  0  3  0  0  0  0  0  0
  -22.7690  -10.2180   20.1920 C   0  0  0  0  0  3  0  0  0  0  0  0
  -21.7170   -6.9270   21.4190 O   0  0  0  0  0  0  0  0  0  0  0  0
  -21.6380   -6.2100   22.5850 C   0  0  0  0  0  0  0  0  0  0  0  0
  -21.1580   -6.7860   23.7810 C   0  0  0  0  0  3  0  0  0  0  0  0
  -21.0260   -5.9940   24.9400 C   0  0  0  0  0  3  0  0  0  0  0  0
  -21.3620   -4.6270   24.9020 C   0  0  0  0  0  0  0  0  0  0  0  0
  -21.8360   -4.0520   23.7100 C   0  0  0  0  0  3  0  0  0  0  0  0
  -21.9700   -4.8410   22.5530 C   0  0  0  0  0  0  0  0  0  0  0  0
  -22.4050   -4.2760   21.4010 F   0  0  0  0  0  0  0  0  0  0  0  0
  -21.2280   -3.8640   26.0120 F   0  0  0  0  0  0  0  0  0  0  0  0
  -22.7630  -13.5710   21.1420 C   0  0  0  0  0  0  0  0  0  0  0  0
  -22.0580  -12.8620   22.0170 N   0  0  0  0  0  0  0  0  0  0  0  0
  -22.3100  -14.5980   20.6410 O   0  0  0  0  0  0  0  0  0  0  0  0
  -22.4420  -12.0320   22.4420 H   0  0  0  0  0  0  0  0  0  0  0  0
  -21.1250  -13.1570   22.2660 H   0  0  0  0  0  0  0  0  0  0  0  0
  -25.3470  -15.2600   20.2870 N   0  0  0  0  0  0  0  0  0  0  0  0
  -24.5740  -15.8980   20.4350 H   0  0  0  0  0  0  0  0  0  0  0  0
  -26.1930  -15.7240   19.9820 H   0  0  0  0  0  0  0  0  0  0  0  0
  -29.1030  -23.5770   20.2420 C   0  0  0  0  0  3  0  0  0  0  0  0
  -27.9760  -24.7850   20.1650 C   0  0  0  0  0  3  0  0  0  0  0  0
  -28.2590  -26.2970   20.2140 O   0  0  0  0  0  0  0  0  0  0  0  0
  -24.6200  -31.9060   23.2370 C   0  0  0  0  0  0  0  0  0  0  0  0
  -27.1830  -27.2410   20.1750 C   0  0  0  0  0  0  0  0  0  0  0  0
  -23.4070  -30.5120   21.6030 C   0  0  0  0  0  3  0  0  0  0  0  0
  -24.8440  -28.9450   20.1730 C   0  0  0  0  0  0  0  0  0  0  0  0
  -25.9550  -30.7940   21.4160 C   0  0  0  0  0  2  0  0  0  0  0  0
  -26.0270  -29.4060   20.7640 C   0  0  0  0  0  0  0  0  0  0  0  0
  -27.2010  -28.5710   20.7450 C   0  0  0  0  0  3  0  0  0  0  0  0
  -25.9680  -26.8680   19.5560 C   0  0  0  0  0  3  0  0  0  0  0  0
  -24.8230  -27.6870   19.5560 C   0  0  0  0  0  3  0  0  0  0  0  0
  -23.6170  -29.8370   20.2230 C   0  0  0  0  0  2  0  0  0  0  0  0
  -24.6810  -31.0890   22.1410 N   0  0  0  0  0  0  0  0  0  0  0  0
  -23.5380  -32.1880   23.7750 O   0  0  0  0  0  0  0  0  0  0  0  0
  -22.7370  -29.5010   22.5670 C   0  0  0  0  0  0  0  0  0  0  0  0
  -21.4110  -29.3210   22.4400 N   0  0  0  0  0  0  0  0  0  0  0  0
  -23.4110  -28.8830   23.3950 O   0  0  0  0  0  0  0  0  0  0  0  0
  -20.9230  -29.8740   21.7490 H   0  0  0  0  0  0  0  0  0  0  0  0
  -18.0370  -28.0970   22.9410 C   0  0  0  0  0  0  0  0  0  0  0  0
  -20.5940  -28.3820   23.2140 C   0  0  0  0  0  3  0  0  0  0  0  0
  -20.7070  -26.9470   22.6520 C   0  0  0  0  0  2  0  0  0  0  0  0
  -19.6110  -26.6060   21.6350 C   0  0  0  0  0  2  0  0  0  0  0  0
  -18.2260  -26.7440   22.2740 C   0  0  0  0  0  2  0  0  0  0  0  0
  -19.1490  -28.8710   23.3680 C   0  0  0  0  0  0  0  0  0  0  0  0
  -18.9180  -30.1350   23.9550 C   0  0  0  0  0  3  0  0  0  0  0  0
  -17.6090  -30.6270   24.1130 C   0  0  0  0  0  3  0  0  0  0  0  0
  -16.5120  -29.8510   23.7000 C   0  0  0  0  0  3  0  0  0  0  0  0
  -16.7270  -28.5870   23.1220 C   0  0  0  0  0  3  0  0  0  0  0  0
  -25.9040  -32.5390   23.8540 C   0  0  0  0  0  3  0  0  0  0  0  0
  -25.5930  -33.9340   24.1950 N   0  0  0  0  0  0  0  0  0  0  0  0
  -25.9020  -34.9950   23.4350 C   0  0  0  0  0  0  0  0  0  0  0  0
  -26.5450  -34.8990   22.3880 O   0  0  0  0  0  0  0  0  0  0  0  0
  -25.0260  -34.0810   25.0160 H   0  0  0  0  0  0  0  0  0  0  0  0
  -24.1540  -36.7810   23.1360 C   0  0  0  0  0  1  0  0  0  0  0  0
  -25.4200  -36.3780   23.9110 C   0  0  0  0  0  3  0  0  0  0  0  0
  -27.5710  -37.2760   24.6880 C   0  0  0  0  0  1  0  0  0  0  0  0
  -26.4440  -37.4380   23.7740 N   0  0  0  0  0  0  0  0  0  0  0  0
  -26.0360  -38.3550   23.9340 H   0  0  0  0  0  0  0  0  0  0  0  0
  -26.4280  -31.7650   25.1270 C   0  0  1  0  0  0  0  0  0  0  0  0
  -25.3410  -31.5260   26.2000 C   0  0  0  0  0  1  0  0  0  0  0  0
  -27.0100  -30.3870   24.7320 C   0  0  0  0  0  1  0  0  0  0  0  0
  -27.5800  -32.5590   25.7860 C   0  0  0  0  0  1  0  0  0  0  0  0
  1  2  1  0
  2  4  1  0
  3  1  2  0
  5 21  1  0
  6 11  1  0
  7  8  1  0
  7  6  1  0
  9  8  1  0
  9 25  1  0
  9 10  1  0
 11  5  1  0
 11 10  1  0
 12  5  2  0
 14  1  1  0
 14 13  1  0
 15 18  1  0
 15 14  1  0
 16 13  1  0
 16 19  1  0
 17 20  1  0
 17 15  1  0
 17 21  1  0
 21 16  1  0
 22 23  2  0
 23 42  1  0
 24 23  1  0
 24 27  1  0
 25 26  1  0
 25 22  1  0
 26 24  2  0
 27 28  1  0
 28 29  2  0
 30 33  1  0
 30 29  1  0
 31 30  2  0
 32 31  1  0
 32 27  2  0
 33 34  1  0
 34 35  1  0
 35 36  2  0
 37 36  1  0
 37 41  1  0
 38 37  2  0
 39 34  2  0
 39 38  1  0
 40 39  1  0
 42 43  1  0
 43 46  1  0
 43 45  1  0
 44 42  2  0
 47 48  1  0
 47 22  1  0
 49 47  1  0
 50  2  1  0
 51 52  1  0
 51 50  2  0
 53 64  2  0
 54 52  1  0
 54 59  1  0
 55 63  1  0
 55 65  1  0
 56 62  1  0
 56 58  1  0
 57 63  1  0
 58 57  1  0
 59 58  2  0
 60 54  2  0
 61 60  1  0
 61 56  2  0
 62 55  1  0
 63 53  1  0
 65 67  2  0
 66 65  1  0
 68 66  1  0
 69 78  2  0
 69 74  1  0
 70 66  1  0
 70 74  1  0
 71 70  1  0
 72 73  1  0
 72 71  1  0
 73 69  1  0
 74 75  2  0
 75 76  1  0
 77 76  2  0
 78 77  1  0
 79 53  1  0
 79 80  1  0
 79 89  1  0
 80 83  1  0
 81 85  1  0
 81 80  1  0
 82 81  2  0
 85 84  1  0
 87 85  1  0
 87 88  1  0
 87 86  1  0
 89 92  1  1
 89 90  1  0
 91 89  1  0
M  ISO  4   5 100  21 100  51 101  52 101
M  END
>  <TORSDO>  (84) 
F 18

>  <SCORE>  (84) 
-14.111

>  <name>  (84) 
87

>  <ligand_id>  (84) 
87

>  <original_smiles>  (84) 
[H]c1c([H])c([H])c2c(c1[H])C([H])([H])C([H])([H])C([H])([H])C2([H])N([H])C(=O)C1([H])N(C(=O)C([H])(N([H])C(=O)C([H])(N([H])C([H])([H])[H])C([H])([H])[H])C(C([H])([H])[H])(C([H])([H])[H])C([H])([H])[H])C([H])([H])c2c([H])c(OC([H])([H])C([H])([H])N([H])C(=O)C3([H])C([H])([H])C([H])(C([H])([H])[H])N(C(=O)N4C([H])([H])C([H])([H])C([H])([H])C([H])(n5nc(-c6c([H])c([H])c(Oc7c([H])c([H])c(F)c([H])c7F)c([H])c6[H])c(C(=O)N([H])[H])c5N([H])[H])C4([H])[H])C([H])(C([H])([H])[H])C3([H])C([H])([H])[H])c([H])c([H])c2C1([H])[H]

>  <smiles>  (84) 
[H]c1c([H])c([H])c2c(c1[H])C([H])([H])C([H])([H])C([H])([H])C2([H])N([H])C(=O)C1([H])N(C(=O)C([H])(N([H])C(=O)C([H])(N([H])C([H])([H])[H])C([H])([H])[H])C(C([H])([H])[H])(C([H])([H])[H])C([H])([H])[H])C([H])([H])c2c([H])c(OC([H])([H])C([H])([H])N([H])C(=O)C3([H])C([H])([H])C([H])(C([H])([H])[H])N(C(=O)N4C([H])([H])C([H])([H])C([H])([H])C([H])(n5nc(-c6c([H])c([H])c(Oc7c([H])c([H])c(F)c([H])c7F)c([H])c6[H])c(C(=O)N([H])[H])c5N([H])[H])C4([H])[H])C([H])(C([H])([H])[H])C3([H])C([H])([H])[H])c([H])c([H])c2C1([H])[H]

$$$$
88:0:0
     RDKit          3D

 91100  0  0  1  0  0  0  0  0999 V2000
  -28.3470  -21.3680   20.6410 C   0  0  0  0  0  3  0  0  0  0  0  0
  -28.0240  -22.7720   20.5380 C   0  0  0  0  0  3  0  0  0  0  0  0
  -30.0780  -23.1550   19.3990 C   0  0  0  0  0  3  0  0  0  0  0  0
  -29.5370  -20.7950   20.0970 C   0  0  0  0  0  0  0  0  0  0  0  0
  -28.8730  -23.7220   19.8950 C   0  0  0  0  0  0  0  0  0  0  0  0
  -30.4030  -21.7580   19.4800 C   0  0  0  0  0  0  0  0  0  0  0  0
  -31.7090  -21.3150   18.8400 C   0  0  0  0  0  1  0  0  0  0  0  0
  -30.6990  -14.8100   20.0530 C   0  0  0  0  0  0  0  0  0  0  0  0
  -30.3970  -12.5560   19.0240 C   0  0  0  0  0  2  0  0  0  0  0  0
  -29.4040  -12.6470   17.8470 C   0  0  0  0  0  2  0  0  0  0  0  0
  -27.9590  -12.4700   18.3510 C   0  0  0  0  0  2  0  0  0  0  0  0
  -27.6490  -13.3400   19.5980 C   0  0  0  0  0  3  0  0  0  0  0  0
  -28.7650  -13.2640   20.6610 C   0  0  0  0  0  2  0  0  0  0  0  0
  -30.0210  -13.6130   19.9910 N   0  0  0  0  0  0  0  0  0  0  0  0
  -31.8840  -14.8430   19.7080 O   0  0  0  0  0  0  0  0  0  0  0  0
  -29.5740  -18.3570   21.3880 C   0  0  0  0  0  2  0  0  0  0  0  0
  -29.3600  -18.3310   18.9960 C   0  0  0  0  0  2  0  0  0  0  0  0
  -30.1820  -16.8810   21.3660 C   0  0  0  0  0  2  0  0  0  0  0  0
  -29.9940  -16.8840   18.9290 C   0  0  0  0  0  2  0  0  0  0  0  0
  -29.9060  -19.2240   20.1400 C   0  0  0  0  0  3  0  0  0  0  0  0
  -29.9940  -16.0170   20.1530 N   0  0  0  0  0  0  0  0  0  0  0  0
  -25.3080  -13.9050   20.4760 C   0  0  0  0  0  0  0  0  0  0  0  0
  -24.2620  -13.1200   20.8800 C   0  0  0  0  0  0  0  0  0  0  0  0
  -24.7230  -11.7710   20.7880 C   0  0  0  0  0  0  0  0  0  0  0  0
  -26.3350  -13.0340   20.1580 N   0  0  0  0  0  0  0  0  0  0  0  0
  -25.9950  -11.7430   20.4090 N   0  0  0  0  0  0  0  0  0  0  0  0
  -24.0050  -10.5020   20.9820 C   0  0  0  0  0  0  0  0  0  0  0  0
  -24.4590   -9.5300   21.8990 C   0  0  0  0  0  3  0  0  0  0  0  0
  -23.7420   -8.3280   22.0830 C   0  0  0  0  0  3  0  0  0  0  0  0
  -22.5560   -8.0900   21.3480 C   0  0  0  0  0  0  0  0  0  0  0  0
  -22.1210   -9.0510   20.4190 C   0  0  0  0  0  3  0  0  0  0  0  0
  -22.8400  -10.2440   20.2330 C   0  0  0  0  0  3  0  0  0  0  0  0
  -21.8070   -6.9410   21.4410 O   0  0  0  0  0  0  0  0  0  0  0  0
  -21.7400   -6.2180   22.6050 C   0  0  0  0  0  0  0  0  0  0  0  0
  -21.2530   -6.7800   23.8050 C   0  0  0  0  0  3  0  0  0  0  0  0
  -21.1370   -5.9810   24.9600 C   0  0  0  0  0  3  0  0  0  0  0  0
  -21.4960   -4.6220   24.9150 C   0  0  0  0  0  0  0  0  0  0  0  0
  -21.9750   -4.0580   23.7190 C   0  0  0  0  0  3  0  0  0  0  0  0
  -22.0940   -4.8540   22.5670 C   0  0  0  0  0  0  0  0  0  0  0  0
  -22.5350   -4.3010   21.4120 F   0  0  0  0  0  0  0  0  0  0  0  0
  -21.3770   -3.8520   26.0230 F   0  0  0  0  0  0  0  0  0  0  0  0
  -22.8820  -13.5890   21.2360 C   0  0  0  0  0  0  0  0  0  0  0  0
  -22.1990  -12.8670   22.1190 N   0  0  0  0  0  0  0  0  0  0  0  0
  -22.4190  -14.6280   20.7700 O   0  0  0  0  0  0  0  0  0  0  0  0
  -22.5870  -12.0250   22.5180 H   0  0  0  0  0  0  0  0  0  0  0  0
  -21.2750  -13.1610   22.4000 H   0  0  0  0  0  0  0  0  0  0  0  0
  -25.4670  -15.2790   20.3300 N   0  0  0  0  0  0  0  0  0  0  0  0
  -24.7180  -15.9390   20.5080 H   0  0  0  0  0  0  0  0  0  0  0  0
  -26.3180  -15.7220   20.0030 H   0  0  0  0  0  0  0  0  0  0  0  0
  -28.4170  -25.1880   19.4360 C   0  0  0  0  0  2  0  0  0  0  0  0
  -28.2950  -26.4030   20.3160 O   0  0  0  0  0  0  0  0  0  0  0  0
  -24.6210  -31.9300   23.2930 C   0  0  0  0  0  0  0  0  0  0  0  0
  -27.1980  -27.3040   20.2290 C   0  0  0  0  0  0  0  0  0  0  0  0
  -23.4140  -30.5380   21.6560 C   0  0  0  0  0  3  0  0  0  0  0  0
  -24.8550  -28.9840   20.2270 C   0  0  0  0  0  0  0  0  0  0  0  0
  -25.9620  -30.8250   21.4800 C   0  0  0  0  0  2  0  0  0  0  0  0
  -26.0320  -29.4440   20.8270 C   0  0  0  0  0  0  0  0  0  0  0  0
  -27.2030  -28.6150   20.8210 C   0  0  0  0  0  3  0  0  0  0  0  0
  -25.9810  -26.9120   19.6210 C   0  0  0  0  0  3  0  0  0  0  0  0
  -24.8340  -27.7250   19.6170 C   0  0  0  0  0  3  0  0  0  0  0  0
  -23.6270  -29.8710   20.2750 C   0  0  0  0  0  2  0  0  0  0  0  0
  -24.6860  -31.1170   22.1990 N   0  0  0  0  0  0  0  0  0  0  0  0
  -23.5380  -32.2150   23.8250 O   0  0  0  0  0  0  0  0  0  0  0  0
  -22.7440  -29.5230   22.6150 C   0  0  0  0  0  0  0  0  0  0  0  0
  -21.4190  -29.3420   22.4790 N   0  0  0  0  0  0  0  0  0  0  0  0
  -23.4170  -28.9030   23.4420 O   0  0  0  0  0  0  0  0  0  0  0  0
  -20.9350  -29.8930   21.7850 H   0  0  0  0  0  0  0  0  0  0  0  0
  -18.0390  -28.1410   22.9640 C   0  0  0  0  0  0  0  0  0  0  0  0
  -20.5950  -28.4070   23.2500 C   0  0  0  0  0  3  0  0  0  0  0  0
  -20.7040  -26.9730   22.6830 C   0  0  0  0  0  2  0  0  0  0  0  0
  -19.6090  -26.6410   21.6640 C   0  0  0  0  0  2  0  0  0  0  0  0
  -18.2230  -26.7880   22.2980 C   0  0  0  0  0  2  0  0  0  0  0  0
  -19.1530  -28.9070   23.3970 C   0  0  0  0  0  0  0  0  0  0  0  0
  -18.9270  -30.1730   23.9800 C   0  0  0  0  0  3  0  0  0  0  0  0
  -17.6190  -30.6720   24.1360 C   0  0  0  0  0  3  0  0  0  0  0  0
  -16.5190  -29.9010   23.7200 C   0  0  0  0  0  3  0  0  0  0  0  0
  -16.7300  -28.6380   23.1390 C   0  0  0  0  0  3  0  0  0  0  0  0
  -25.9040  -32.5600   23.9170 C   0  0  0  0  0  3  0  0  0  0  0  0
  -25.6000  -33.9620   24.2370 N   0  0  0  0  0  0  0  0  0  0  0  0
  -25.9200  -35.0090   23.4630 C   0  0  0  0  0  0  0  0  0  0  0  0
  -26.5700  -34.8950   22.4210 O   0  0  0  0  0  0  0  0  0  0  0  0
  -25.0200  -34.1250   25.0460 H   0  0  0  0  0  0  0  0  0  0  0  0
  -24.1830  -36.7990   23.1280 C   0  0  0  0  0  1  0  0  0  0  0  0
  -25.4410  -36.4010   23.9160 C   0  0  0  0  0  3  0  0  0  0  0  0
  -27.5910  -37.2980   24.6960 C   0  0  0  0  0  1  0  0  0  0  0  0
  -26.4700  -37.4550   23.7730 N   0  0  0  0  0  0  0  0  0  0  0  0
  -26.0640  -38.3760   23.9210 H   0  0  0  0  0  0  0  0  0  0  0  0
  -26.4090  -31.7960   25.2020 C   0  0  1  0  0  0  0  0  0  0  0  0
  -25.3070  -31.5710   26.2640 C   0  0  0  0  0  1  0  0  0  0  0  0
  -26.9880  -30.4140   24.8260 C   0  0  0  0  0  1  0  0  0  0  0  0
  -27.5570  -32.5910   25.8660 C   0  0  0  0  0  1  0  0  0  0  0  0
  2  1  1  0
  3  6  2  0
  3  5  1  0
  4  1  2  0
  5  2  2  0
  6  4  1  0
  7  6  1  0
  8 21  1  0
  9 14  1  0
 10 11  1  0
 10  9  1  0
 12 11  1  0
 12 25  1  0
 12 13  1  0
 14  8  1  0
 14 13  1  0
 15  8  2  0
 17 20  1  0
 18 16  1  0
 19 17  1  0
 19 21  1  0
 20  4  1  0
 20 16  1  0
 21 18  1  0
 22 23  2  0
 23 42  1  0
 24 23  1  0
 24 27  1  0
 25 26  1  0
 25 22  1  0
 26 24  2  0
 27 28  1  0
 28 29  2  0
 30 33  1  0
 30 29  1  0
 31 30  2  0
 32 31  1  0
 32 27  2  0
 33 34  1  0
 34 35  1  0
 35 36  2  0
 37 36  1  0
 37 41  1  0
 38 37  2  0
 39 34  2  0
 39 38  1  0
 40 39  1  0
 42 43  1  0
 43 46  1  0
 43 45  1  0
 44 42  2  0
 47 22  1  0
 47 48  1  0
 49 47  1  0
 50  5  1  0
 50 51  1  0
 52 63  2  0
 53 51  1  0
 53 58  1  0
 54 62  1  0
 54 64  1  0
 55 61  1  0
 55 57  1  0
 56 62  1  0
 57 56  1  0
 58 57  2  0
 59 53  2  0
 60 59  1  0
 60 55  2  0
 61 54  1  0
 62 52  1  0
 64 66  2  0
 65 64  1  0
 67 65  1  0
 68 77  2  0
 68 73  1  0
 69 65  1  0
 69 73  1  0
 70 69  1  0
 71 72  1  0
 71 70  1  0
 72 68  1  0
 73 74  2  0
 74 75  1  0
 76 75  2  0
 77 76  1  0
 78 52  1  0
 78 79  1  0
 78 88  1  0
 79 82  1  0
 80 84  1  0
 80 79  1  0
 81 80  2  0
 84 83  1  0
 86 84  1  0
 86 87  1  0
 86 85  1  0
 88 91  1  1
 88 89  1  0
 90 88  1  0
M  ISO  4   8 100  21 100  50 101  51 101
M  END
>  <TORSDO>  (85) 
F 17

>  <SCORE>  (85) 
-14.891

>  <name>  (85) 
88

>  <ligand_id>  (85) 
88

>  <original_smiles>  (85) 
[H]c1c([H])c([H])c2c(c1[H])C([H])([H])C([H])([H])C([H])([H])C2([H])N([H])C(=O)C1([H])N(C(=O)C([H])(N([H])C(=O)C([H])(N([H])C([H])([H])[H])C([H])([H])[H])C(C([H])([H])[H])(C([H])([H])[H])C([H])([H])[H])C([H])([H])c2c([H])c(OC([H])([H])c3c([H])c([H])c(C4([H])C([H])([H])C([H])([H])N(C(=O)N5C([H])([H])C([H])([H])C([H])([H])C([H])(n6nc(-c7c([H])c([H])c(Oc8c([H])c([H])c(F)c([H])c8F)c([H])c7[H])c(C(=O)N([H])[H])c6N([H])[H])C5([H])[H])C([H])([H])C4([H])[H])c(C([H])([H])[H])c3[H])c([H])c([H])c2C1([H])[H]

>  <smiles>  (85) 
[H]c1c([H])c([H])c2c(c1[H])C([H])([H])C([H])([H])C([H])([H])C2([H])N([H])C(=O)C1([H])N(C(=O)C([H])(N([H])C(=O)C([H])(N([H])C([H])([H])[H])C([H])([H])[H])C(C([H])([H])[H])(C([H])([H])[H])C([H])([H])[H])C([H])([H])c2c([H])c(OC([H])([H])c3c([H])c([H])c(C4([H])C([H])([H])C([H])([H])N(C(=O)N5C([H])([H])C([H])([H])C([H])([H])C([H])(n6nc(-c7c([H])c([H])c(Oc8c([H])c([H])c(F)c([H])c8F)c([H])c7[H])c(C(=O)N([H])[H])c6N([H])[H])C5([H])[H])C([H])([H])C4([H])[H])c(C([H])([H])[H])c3[H])c([H])c([H])c2C1([H])[H]

$$$$
89:0:0
     RDKit          3D

 89 97  0  0  1  0  0  0  0  0999 V2000
  -29.7020  -23.6050   21.7340 C   0  0  0  0  0  1  0  0  0  0  0  0
  -30.1700  -23.6120   19.2810 C   0  0  0  0  0  1  0  0  0  0  0  0
  -29.0760  -23.4180   20.3400 C   0  0  1  0  0  0  0  0  0  0  0  0
  -28.5940  -21.7930   20.2380 C   0  0  0  0  0  2  0  0  0  0  0  0
  -30.1420  -19.8970   18.9220 C   0  0  0  0  0  2  0  0  0  0  0  0
  -30.5380  -18.3620   18.9850 C   0  0  0  0  0  2  0  0  0  0  0  0
  -29.0810  -18.9110   20.7780 C   0  0  0  0  0  2  0  0  0  0  0  0
  -29.5590  -20.3940   20.2740 C   0  0  0  0  0  3  0  0  0  0  0  0
  -30.1290  -17.7320   20.3460 C   0  0  0  0  0  3  0  0  0  0  0  0
  -30.5640  -15.0050   20.1930 C   0  0  0  0  0  0  0  0  0  0  0  0
  -30.4350  -12.6630   19.2420 C   0  0  0  0  0  2  0  0  0  0  0  0
  -29.4850  -12.6210   18.0240 C   0  0  0  0  0  2  0  0  0  0  0  0
  -28.0280  -12.4010   18.4760 C   0  0  0  0  0  2  0  0  0  0  0  0
  -27.6300  -13.3190   19.6610 C   0  0  0  0  0  3  0  0  0  0  0  0
  -28.7030  -13.3310   20.7720 C   0  0  0  0  0  2  0  0  0  0  0  0
  -29.9630  -13.7500   20.1450 N   0  0  0  0  0  0  0  0  0  0  0  0
  -31.7660  -15.0710   19.9140 O   0  0  0  0  0  0  0  0  0  0  0  0
  -29.7870  -16.1850   20.3460 N   0  0  0  0  0  0  0  0  0  0  0  0
  -28.8100  -15.9840   20.5060 H   0  0  0  0  0  0  0  0  0  0  0  0
  -25.2530  -13.8750   20.4340 C   0  0  0  0  0  0  0  0  0  0  0  0
  -24.2010  -13.0890   20.8180 C   0  0  0  0  0  0  0  0  0  0  0  0
  -24.6790  -11.7420   20.7800 C   0  0  0  0  0  0  0  0  0  0  0  0
  -26.3020  -13.0070   20.1780 N   0  0  0  0  0  0  0  0  0  0  0  0
  -25.9660  -11.7190   20.4540 N   0  0  0  0  0  0  0  0  0  0  0  0
  -23.9680  -10.4730   20.9760 C   0  0  0  0  0  0  0  0  0  0  0  0
  -24.4060   -9.5170   21.9190 C   0  0  0  0  0  3  0  0  0  0  0  0
  -23.6930   -8.3140   22.1030 C   0  0  0  0  0  3  0  0  0  0  0  0
  -22.5250   -8.0570   21.3450 C   0  0  0  0  0  0  0  0  0  0  0  0
  -22.1070   -9.0020   20.3900 C   0  0  0  0  0  3  0  0  0  0  0  0
  -22.8210  -10.1960   20.2050 C   0  0  0  0  0  3  0  0  0  0  0  0
  -21.7820   -6.9060   21.4390 O   0  0  0  0  0  0  0  0  0  0  0  0
  -21.7220   -6.1800   22.6020 C   0  0  0  0  0  0  0  0  0  0  0  0
  -21.2620   -6.7470   23.8100 C   0  0  0  0  0  3  0  0  0  0  0  0
  -21.1500   -5.9480   24.9660 C   0  0  0  0  0  3  0  0  0  0  0  0
  -21.4870   -4.5830   24.9120 C   0  0  0  0  0  0  0  0  0  0  0  0
  -21.9390   -4.0150   23.7090 C   0  0  0  0  0  3  0  0  0  0  0  0
  -22.0530   -4.8110   22.5560 C   0  0  0  0  0  0  0  0  0  0  0  0
  -22.4700   -4.2530   21.3930 F   0  0  0  0  0  0  0  0  0  0  0  0
  -21.3720   -3.8120   26.0190 F   0  0  0  0  0  0  0  0  0  0  0  0
  -22.8020  -13.5520   21.1040 C   0  0  0  0  0  0  0  0  0  0  0  0
  -22.0920  -12.8500   21.9780 N   0  0  0  0  0  0  0  0  0  0  0  0
  -22.3480  -14.5720   20.5870 O   0  0  0  0  0  0  0  0  0  0  0  0
  -22.4740  -12.0270   22.4200 H   0  0  0  0  0  0  0  0  0  0  0  0
  -21.1520  -13.1410   22.2090 H   0  0  0  0  0  0  0  0  0  0  0  0
  -25.4000  -15.2470   20.2530 N   0  0  0  0  0  0  0  0  0  0  0  0
  -24.6250  -15.8920   20.3680 H   0  0  0  0  0  0  0  0  0  0  0  0
  -26.2200  -15.6870   19.8560 H   0  0  0  0  0  0  0  0  0  0  0  0
  -27.9920  -24.7040   20.1420 C   0  0  0  0  0  2  0  0  0  0  0  0
  -28.2630  -26.2330   20.2820 O   0  0  0  0  0  0  0  0  0  0  0  0
  -24.6340  -31.9120   23.2660 C   0  0  0  0  0  0  0  0  0  0  0  0
  -27.2020  -27.2090   20.2180 C   0  0  0  0  0  0  0  0  0  0  0  0
  -23.4290  -30.5310   21.6160 C   0  0  0  0  0  3  0  0  0  0  0  0
  -24.8740  -28.9580   20.1880 C   0  0  0  0  0  0  0  0  0  0  0  0
  -25.9840  -30.7880   21.4550 C   0  0  0  0  0  2  0  0  0  0  0  0
  -26.0550  -29.4000   20.7970 C   0  0  0  0  0  0  0  0  0  0  0  0
  -27.2180  -28.5440   20.7940 C   0  0  0  0  0  3  0  0  0  0  0  0
  -25.9920  -26.8640   19.5750 C   0  0  0  0  0  3  0  0  0  0  0  0
  -24.8560  -27.7010   19.5620 C   0  0  0  0  0  3  0  0  0  0  0  0
  -23.6500  -29.8590   20.2350 C   0  0  0  0  0  2  0  0  0  0  0  0
  -24.7020  -31.0990   22.1670 N   0  0  0  0  0  0  0  0  0  0  0  0
  -23.5470  -32.1970   23.7930 O   0  0  0  0  0  0  0  0  0  0  0  0
  -22.7460  -29.5210   22.5730 C   0  0  0  0  0  0  0  0  0  0  0  0
  -21.4170  -29.3590   22.4470 N   0  0  0  0  0  0  0  0  0  0  0  0
  -23.4150  -28.8830   23.3900 O   0  0  0  0  0  0  0  0  0  0  0  0
  -20.9310  -29.9260   21.7670 H   0  0  0  0  0  0  0  0  0  0  0  0
  -18.0290  -28.1810   22.9430 C   0  0  0  0  0  0  0  0  0  0  0  0
  -20.5910  -28.4230   23.2110 C   0  0  0  0  0  3  0  0  0  0  0  0
  -20.6820  -26.9940   22.6290 C   0  0  0  0  0  2  0  0  0  0  0  0
  -19.5770  -26.6850   21.6120 C   0  0  0  0  0  2  0  0  0  0  0  0
  -18.1960  -26.8360   22.2560 C   0  0  0  0  0  2  0  0  0  0  0  0
  -19.1540  -28.9330   23.3770 C   0  0  0  0  0  0  0  0  0  0  0  0
  -18.9410  -30.1930   23.9780 C   0  0  0  0  0  3  0  0  0  0  0  0
  -17.6390  -30.7010   24.1480 C   0  0  0  0  0  3  0  0  0  0  0  0
  -16.5310  -29.9470   23.7270 C   0  0  0  0  0  3  0  0  0  0  0  0
  -16.7260  -28.6870   23.1310 C   0  0  0  0  0  3  0  0  0  0  0  0
  -25.9140  -32.5360   23.9020 C   0  0  0  0  0  3  0  0  0  0  0  0
  -26.4090  -31.7640   25.1850 C   0  0  1  0  0  0  0  0  0  0  0  0
  -25.3050  -31.5440   26.2470 C   0  0  0  0  0  1  0  0  0  0  0  0
  -26.9770  -30.3770   24.8060 C   0  0  0  0  0  1  0  0  0  0  0  0
  -27.5640  -32.5440   25.8540 C   0  0  0  0  0  1  0  0  0  0  0  0
  -25.6140  -33.9380   24.2310 N   0  0  0  0  0  0  0  0  0  0  0  0
  -25.9390  -34.9900   23.4670 C   0  0  0  0  0  0  0  0  0  0  0  0
  -26.5920  -34.8810   22.4250 O   0  0  0  0  0  0  0  0  0  0  0  0
  -25.0360  -34.0990   25.0430 H   0  0  0  0  0  0  0  0  0  0  0  0
  -24.1990  -36.7790   23.1580 C   0  0  0  0  0  1  0  0  0  0  0  0
  -25.4690  -36.3820   23.9300 C   0  0  0  0  0  3  0  0  0  0  0  0
  -27.6300  -37.2740   24.6810 C   0  0  0  0  0  1  0  0  0  0  0  0
  -26.4970  -37.4350   23.7730 N   0  0  0  0  0  0  0  0  0  0  0  0
  -26.0950  -38.3560   23.9270 H   0  0  0  0  0  0  0  0  0  0  0  0
  3  2  1  6
  3  1  1  0
  4  3  1  0
  5  6  1  0
  5  8  1  0
  6  9  1  0
  8  4  1  0
  8  7  1  0
  9 18  1  0
  9  7  1  0
 10 18  1  0
 11 16  1  0
 12 13  1  0
 12 11  1  0
 14 13  1  0
 14 23  1  0
 14 15  1  0
 16 10  1  0
 16 15  1  0
 17 10  2  0
 18 19  1  0
 20 21  2  0
 21 40  1  0
 22 21  1  0
 22 25  1  0
 23 20  1  0
 23 24  1  0
 24 22  2  0
 25 26  1  0
 26 27  2  0
 28 31  1  0
 28 27  1  0
 29 28  2  0
 30 29  1  0
 30 25  2  0
 31 32  1  0
 32 33  1  0
 33 34  2  0
 35 34  1  0
 35 39  1  0
 36 35  2  0
 37 32  2  0
 37 36  1  0
 38 37  1  0
 40 41  1  0
 41 44  1  0
 41 43  1  0
 42 40  2  0
 45 46  1  0
 45 20  1  0
 47 45  1  0
 48 49  1  0
 48  3  1  0
 50 61  2  0
 51 49  1  0
 51 56  1  0
 52 60  1  0
 52 62  1  0
 53 59  1  0
 53 55  1  0
 54 60  1  0
 55 54  1  0
 56 55  2  0
 57 51  2  0
 58 57  1  0
 58 53  2  0
 59 52  1  0
 60 50  1  0
 62 64  2  0
 63 62  1  0
 65 63  1  0
 66 75  2  0
 66 71  1  0
 67 63  1  0
 67 71  1  0
 68 67  1  0
 69 70  1  0
 69 68  1  0
 70 66  1  0
 71 72  2  0
 72 73  1  0
 74 73  2  0
 75 74  1  0
 76 50  1  0
 76 81  1  0
 76 77  1  0
 77 80  1  1
 77 78  1  0
 79 77  1  0
 81 84  1  0
 82 86  1  0
 82 81  1  0
 83 82  2  0
 86 85  1  0
 88 89  1  0
 88 86  1  0
 88 87  1  0
M  ISO  4  10 100  18 100  48 101  49 101
M  END
>  <TORSDO>  (86) 
F 19

>  <SCORE>  (86) 
-14.906

>  <name>  (86) 
89

>  <ligand_id>  (86) 
89

>  <original_smiles>  (86) 
[H]c1c([H])c([H])c2c(c1[H])C([H])([H])C([H])([H])C([H])([H])C2([H])N([H])C(=O)C1([H])N(C(=O)C([H])(N([H])C(=O)C([H])(N([H])C([H])([H])[H])C([H])([H])[H])C(C([H])([H])[H])(C([H])([H])[H])C([H])([H])[H])C([H])([H])c2c([H])c(OC([H])([H])C(C([H])([H])[H])(C([H])([H])[H])C([H])([H])C3([H])C([H])([H])C([H])([H])C([H])(N([H])C(=O)N4C([H])([H])C([H])([H])C([H])([H])C([H])(n5nc(-c6c([H])c([H])c(Oc7c([H])c([H])c(F)c([H])c7F)c([H])c6[H])c(C(=O)N([H])[H])c5N([H])[H])C4([H])[H])C3([H])[H])c([H])c([H])c2C1([H])[H]

>  <smiles>  (86) 
[H]c1c([H])c([H])c2c(c1[H])C([H])([H])C([H])([H])C([H])([H])C2([H])N([H])C(=O)C1([H])N(C(=O)C([H])(N([H])C(=O)C([H])(N([H])C([H])([H])[H])C([H])([H])[H])C(C([H])([H])[H])(C([H])([H])[H])C([H])([H])[H])C([H])([H])c2c([H])c(OC([H])([H])C(C([H])([H])[H])(C([H])([H])[H])C([H])([H])C3([H])C([H])([H])C([H])([H])C([H])(N([H])C(=O)N4C([H])([H])C([H])([H])C([H])([H])C([H])(n5nc(-c6c([H])c([H])c(Oc7c([H])c([H])c(F)c([H])c7F)c([H])c6[H])c(C(=O)N([H])[H])c5N([H])[H])C4([H])[H])C3([H])[H])c([H])c([H])c2C1([H])[H]

$$$$
90:0:0
     RDKit          3D

 94103  0  0  1  0  0  0  0  0999 V2000
  -27.8510  -19.9930   20.4370 C   0  0  0  0  0  2  0  0  0  0  0  0
  -27.7270  -18.8040   19.5260 C   0  0  0  0  0  3  0  0  0  0  0  0
  -28.9730  -17.9760   19.5790 C   0  0  0  0  0  3  0  0  0  0  0  0
  -29.2170  -19.9250   21.1690 C   0  0  0  0  0  3  0  0  0  0  0  0
  -29.9300  -18.5590   20.6230 C   0  0  0  0  0  3  0  0  0  0  0  0
  -28.5610  -18.6320   18.2760 C   0  0  1  0  0  0  0  0  0  0  0  0
  -28.0030  -17.7710   17.1560 C   0  0  0  0  0  1  0  0  0  0  0  0
  -29.3680  -19.7690   17.6740 C   0  0  0  0  0  1  0  0  0  0  0  0
  -30.3930  -17.4100   21.6660 C   0  0  0  0  0  2  0  0  0  0  0  0
  -30.8910  -14.8790   21.0240 C   0  0  0  0  0  0  0  0  0  0  0  0
  -30.7270  -12.7100   19.8000 C   0  0  0  0  0  2  0  0  0  0  0  0
  -29.8690  -12.9100   18.5320 C   0  0  0  0  0  2  0  0  0  0  0  0
  -28.3690  -12.7390   18.8490 C   0  0  0  0  0  2  0  0  0  0  0  0
  -27.9320  -13.5330   20.1080 C   0  0  0  0  0  3  0  0  0  0  0  0
  -28.9120  -13.3150   21.2830 C   0  0  0  0  0  2  0  0  0  0  0  0
  -30.2580  -13.6790   20.8130 N   0  0  0  0  0  0  0  0  0  0  0  0
  -32.0820  -15.0300   20.7450 O   0  0  0  0  0  0  0  0  0  0  0  0
  -30.0980  -15.9420   21.3860 N   0  0  0  0  0  0  0  0  0  0  0  0
  -29.1390  -15.6770   21.5510 H   0  0  0  0  0  0  0  0  0  0  0  0
  -25.4890  -14.1140   20.6450 C   0  0  0  0  0  0  0  0  0  0  0  0
  -24.3980  -13.3340   20.9210 C   0  0  0  0  0  0  0  0  0  0  0  0
  -24.8670  -11.9850   20.9140 C   0  0  0  0  0  0  0  0  0  0  0  0
  -26.5520  -13.2390   20.4830 N   0  0  0  0  0  0  0  0  0  0  0  0
  -26.1770  -11.9540   20.7070 N   0  0  0  0  0  0  0  0  0  0  0  0
  -24.1310  -10.7190   21.0340 C   0  0  0  0  0  0  0  0  0  0  0  0
  -24.5010   -9.7380   21.9800 C   0  0  0  0  0  3  0  0  0  0  0  0
  -23.7700   -8.5360   22.0890 C   0  0  0  0  0  3  0  0  0  0  0  0
  -22.6530   -8.3080   21.2500 C   0  0  0  0  0  0  0  0  0  0  0  0
  -22.3030   -9.2780   20.2940 C   0  0  0  0  0  3  0  0  0  0  0  0
  -23.0350  -10.4710   20.1850 C   0  0  0  0  0  3  0  0  0  0  0  0
  -21.8950   -7.1620   21.2690 O   0  0  0  0  0  0  0  0  0  0  0  0
  -21.7670   -6.4020   22.4040 C   0  0  0  0  0  0  0  0  0  0  0  0
  -21.2260   -6.9270   23.5970 C   0  0  0  0  0  3  0  0  0  0  0  0
  -21.0490   -6.0920   24.7190 C   0  0  0  0  0  3  0  0  0  0  0  0
  -21.4030   -4.7320   24.6460 C   0  0  0  0  0  0  0  0  0  0  0  0
  -21.9370   -4.2040   23.4580 C   0  0  0  0  0  3  0  0  0  0  0  0
  -22.1150   -5.0360   22.3390 C   0  0  0  0  0  0  0  0  0  0  0  0
  -22.6110   -4.5180   21.1890 F   0  0  0  0  0  0  0  0  0  0  0  0
  -21.2250   -3.9280   25.7210 F   0  0  0  0  0  0  0  0  0  0  0  0
  -22.9820  -13.8060   21.0830 C   0  0  0  0  0  0  0  0  0  0  0  0
  -22.1930  -13.1150   21.8990 N   0  0  0  0  0  0  0  0  0  0  0  0
  -22.5790  -14.8220   20.5180 O   0  0  0  0  0  0  0  0  0  0  0  0
  -22.5290  -12.2920   22.3780 H   0  0  0  0  0  0  0  0  0  0  0  0
  -21.2380  -13.4100   22.0470 H   0  0  0  0  0  0  0  0  0  0  0  0
  -25.6580  -15.4860   20.4980 N   0  0  0  0  0  0  0  0  0  0  0  0
  -24.8790  -16.1300   20.5720 H   0  0  0  0  0  0  0  0  0  0  0  0
  -26.5200  -15.9360   20.2220 H   0  0  0  0  0  0  0  0  0  0  0  0
  -29.9100  -21.3870   21.0990 C   0  0  0  0  0  2  0  0  0  0  0  0
  -28.9960  -22.5930   21.3560 N   0  0  0  0  0  4  0  0  0  0  0  0
  -28.7790  -22.6010   22.3420 H   0  0  0  0  0  0  0  0  0  0  0  0
  -28.1320  -22.3940   20.8780 H   0  0  0  0  0  0  0  0  0  0  0  0
  -29.4200  -24.0110   20.9420 C   0  0  0  0  0  3  0  0  0  0  0  0
  -28.3780  -25.1950   21.2610 C   0  0  0  0  0  3  0  0  0  0  0  0
  -28.6360  -26.6080   20.8400 O   0  0  0  0  0  0  0  0  0  0  0  0
  -24.8140  -32.1420   23.5220 C   0  0  0  0  0  0  0  0  0  0  0  0
  -27.5310  -27.4720   20.7350 C   0  0  0  0  0  0  0  0  0  0  0  0
  -23.6740  -30.6990   21.8740 C   0  0  0  0  0  3  0  0  0  0  0  0
  -25.1770  -29.0970   20.5620 C   0  0  0  0  0  0  0  0  0  0  0  0
  -26.2210  -31.0010   21.7900 C   0  0  0  0  0  2  0  0  0  0  0  0
  -26.3220  -29.6010   21.1910 C   0  0  0  0  0  0  0  0  0  0  0  0
  -27.5040  -28.8030   21.2620 C   0  0  0  0  0  3  0  0  0  0  0  0
  -26.3660  -27.0300   20.0670 C   0  0  0  0  0  3  0  0  0  0  0  0
  -25.2010  -27.8170   19.9900 C   0  0  0  0  0  3  0  0  0  0  0  0
  -23.9440  -29.9780   20.5280 C   0  0  0  0  0  2  0  0  0  0  0  0
  -24.9200  -31.3000   22.4520 N   0  0  0  0  0  0  0  0  0  0  0  0
  -23.7100  -32.4410   24.0010 O   0  0  0  0  0  0  0  0  0  0  0  0
  -22.9650  -29.7150   22.8360 C   0  0  0  0  0  0  0  0  0  0  0  0
  -21.6560  -29.5000   22.6250 N   0  0  0  0  0  0  0  0  0  0  0  0
  -23.5960  -29.1470   23.7320 O   0  0  0  0  0  0  0  0  0  0  0  0
  -21.2080  -30.0120   21.8780 H   0  0  0  0  0  0  0  0  0  0  0  0
  -18.2770  -28.2440   22.9400 C   0  0  0  0  0  0  0  0  0  0  0  0
  -20.8020  -28.5820   23.3820 C   0  0  0  0  0  3  0  0  0  0  0  0
  -20.9760  -27.1260   22.8920 C   0  0  0  0  0  2  0  0  0  0  0  0
  -19.9590  -26.7230   21.8180 C   0  0  0  0  0  2  0  0  0  0  0  0
  -18.5310  -26.8670   22.3510 C   0  0  0  0  0  2  0  0  0  0  0  0
  -19.3440  -29.0560   23.4090 C   0  0  0  0  0  0  0  0  0  0  0  0
  -19.0560  -30.3410   23.9150 C   0  0  0  0  0  3  0  0  0  0  0  0
  -17.7320  -30.8170   23.9610 C   0  0  0  0  0  3  0  0  0  0  0  0
  -16.6770  -30.0040   23.5100 C   0  0  0  0  0  3  0  0  0  0  0  0
  -16.9500  -28.7200   23.0060 C   0  0  0  0  0  3  0  0  0  0  0  0
  -26.0730  -32.7870   24.1800 C   0  0  0  0  0  3  0  0  0  0  0  0
  -25.7750  -34.2090   24.4110 N   0  0  0  0  0  0  0  0  0  0  0  0
  -26.1790  -35.2100   23.6190 C   0  0  0  0  0  0  0  0  0  0  0  0
  -26.9110  -35.0350   22.6400 O   0  0  0  0  0  0  0  0  0  0  0  0
  -25.1330  -34.4180   25.1610 H   0  0  0  0  0  0  0  0  0  0  0  0
  -24.5190  -37.0140   23.0520 C   0  0  0  0  0  1  0  0  0  0  0  0
  -25.6950  -36.6320   23.9650 C   0  0  0  0  0  3  0  0  0  0  0  0
  -27.7890  -37.5230   24.8850 C   0  0  0  0  0  1  0  0  0  0  0  0
  -26.7570  -37.6570   23.8610 N   0  0  0  0  0  0  0  0  0  0  0  0
  -26.3640  -38.5920   23.9260 H   0  0  0  0  0  0  0  0  0  0  0  0
  -26.4990  -32.0840   25.5280 C   0  0  1  0  0  0  0  0  0  0  0  0
  -25.3340  -31.8980   26.5290 C   0  0  0  0  0  1  0  0  0  0  0  0
  -27.1090  -30.6900   25.2510 C   0  0  0  0  0  1  0  0  0  0  0  0
  -27.5990  -32.9170   26.2260 C   0  0  0  0  0  1  0  0  0  0  0  0
  1  4  1  0
  2  3  1  0
  2  1  1  0
  3  6  1  0
  3  5  1  0
  4 48  1  0
  5  4  1  0
  5  9  1  0
  6  2  1  0
  6  7  1  6
  8  6  1  0
 10 18  1  0
 11 16  1  0
 12 13  1  0
 12 11  1  0
 14 13  1  0
 14 23  1  0
 14 15  1  0
 16 10  1  0
 16 15  1  0
 17 10  2  0
 18 19  1  0
 18  9  1  0
 20 21  2  0
 21 40  1  0
 22 21  1  0
 22 25  1  0
 23 20  1  0
 23 24  1  0
 24 22  2  0
 25 26  1  0
 26 27  2  0
 28 31  1  0
 28 27  1  0
 29 28  2  0
 30 29  1  0
 30 25  2  0
 31 32  1  0
 32 33  1  0
 33 34  2  0
 35 34  1  0
 35 39  1  0
 36 35  2  0
 37 32  2  0
 37 36  1  0
 38 37  1  0
 40 41  1  0
 41 44  1  0
 41 43  1  0
 42 40  2  0
 45 46  1  0
 45 20  1  0
 47 45  1  0
 48 49  1  0
 49 50  1  0
 51 49  1  0
 52 53  2  0
 52 49  1  0
 54 53  1  0
 55 66  2  0
 56 54  1  0
 56 61  1  0
 57 65  1  0
 57 67  1  0
 58 60  1  0
 59 65  1  0
 60 61  2  0
 60 59  1  0
 62 56  2  0
 63 62  1  0
 63 58  2  0
 64 58  1  0
 64 57  1  0
 65 55  1  0
 67 69  2  0
 68 67  1  0
 70 68  1  0
 71 80  2  0
 71 76  1  0
 72 68  1  0
 72 76  1  0
 73 72  1  0
 74 75  1  0
 74 73  1  0
 75 71  1  0
 76 77  2  0
 77 78  1  0
 79 78  2  0
 80 79  1  0
 81 55  1  0
 81 82  1  0
 81 91  1  0
 82 85  1  0
 83 87  1  0
 83 82  1  0
 84 83  2  0
 87 86  1  0
 89 90  1  0
 89 87  1  0
 89 88  1  0
 91 94  1  1
 91 92  1  0
 93 91  1  0
M  ISO  4  10 100  18 100  53 101  54 101
M  END
>  <TORSDO>  (87) 
F 21

>  <SCORE>  (87) 
-12.170

>  <name>  (87) 
90

>  <ligand_id>  (87) 
90

>  <original_smiles>  (87) 
[H]c1c([H])c([H])c2c(c1[H])C([H])([H])C([H])([H])C([H])([H])C2([H])N([H])C(=O)C1([H])N(C(=O)C([H])(N([H])C(=O)C([H])(N([H])C([H])([H])[H])C([H])([H])[H])C(C([H])([H])[H])(C([H])([H])[H])C([H])([H])[H])C([H])([H])c2c([H])c(OC([H])([H])C([H])([H])[N+]([H])([H])C([H])([H])C3([H])C([H])([H])C4([H])C([H])(C3([H])C([H])([H])N([H])C(=O)N3C([H])([H])C([H])([H])C([H])([H])C([H])(n5nc(-c6c([H])c([H])c(Oc7c([H])c([H])c(F)c([H])c7F)c([H])c6[H])c(C(=O)N([H])[H])c5N([H])[H])C3([H])[H])C4(C([H])([H])[H])C([H])([H])[H])c([H])c([H])c2C1([H])[H]

>  <smiles>  (87) 
[H]c1c([H])c([H])c2c(c1[H])C([H])([H])C([H])([H])C([H])([H])C2([H])N([H])C(=O)C1([H])N(C(=O)C([H])(N([H])C(=O)C([H])(N([H])C([H])([H])[H])C([H])([H])[H])C(C([H])([H])[H])(C([H])([H])[H])C([H])([H])[H])C([H])([H])c2c([H])c(OC([H])([H])C([H])([H])[N+]([H])([H])C([H])([H])C3([H])C([H])([H])C4([H])C([H])(C3([H])C([H])([H])N([H])C(=O)N3C([H])([H])C([H])([H])C([H])([H])C([H])(n5nc(-c6c([H])c([H])c(Oc7c([H])c([H])c(F)c([H])c7F)c([H])c6[H])c(C(=O)N([H])[H])c5N([H])[H])C3([H])[H])C4(C([H])([H])[H])C([H])([H])[H])c([H])c([H])c2C1([H])[H]

$$$$
91:0:0
     RDKit          3D

 90 99  0  0  1  0  0  0  0  0999 V2000
  -28.2110  -22.6400   19.2800 C   0  0  0  0  0  3  0  0  0  0  0  0
  -29.3760  -21.2830   21.3280 C   0  0  0  0  0  3  0  0  0  0  0  0
  -29.0120  -20.4290   20.2370 C   0  0  0  0  0  0  0  0  0  0  0  0
  -28.4260  -21.2150   19.1800 C   0  0  0  0  0  0  0  0  0  0  0  0
  -28.5510  -23.3950   20.4370 C   0  0  0  0  0  0  0  0  0  0  0  0
  -27.9200  -20.5260   17.9240 C   0  0  0  0  0  1  0  0  0  0  0  0
  -29.1530  -22.6540   21.4280 N   0  0  0  0  0  0  0  0  0  0  0  0
  -29.6720  -18.1210   19.0490 C   0  0  0  0  0  2  0  0  0  0  0  0
  -29.0130  -18.7900   20.2350 C   0  0  0  0  0  3  0  0  0  0  0  0
  -30.0700  -17.5270   20.3720 C   0  0  0  0  0  3  0  0  0  0  0  0
  -30.5390  -14.8820   20.3680 C   0  0  0  0  0  0  0  0  0  0  0  0
  -30.3890  -12.5670   19.3880 C   0  0  0  0  0  2  0  0  0  0  0  0
  -29.4540  -12.5840   18.1570 C   0  0  0  0  0  2  0  0  0  0  0  0
  -27.9870  -12.3880   18.5850 C   0  0  0  0  0  2  0  0  0  0  0  0
  -27.5920  -13.2900   19.7840 C   0  0  0  0  0  3  0  0  0  0  0  0
  -28.6490  -13.2500   20.9100 C   0  0  0  0  0  2  0  0  0  0  0  0
  -29.9320  -13.6370   20.3130 N   0  0  0  0  0  0  0  0  0  0  0  0
  -31.7350  -14.9690   20.0770 O   0  0  0  0  0  0  0  0  0  0  0  0
  -29.7450  -16.0350   20.5140 N   0  0  0  0  0  0  0  0  0  0  0  0
  -28.7780  -15.8350   20.7200 H   0  0  0  0  0  0  0  0  0  0  0  0
  -25.2050  -13.8670   20.5110 C   0  0  0  0  0  0  0  0  0  0  0  0
  -24.1400  -13.0900   20.8780 C   0  0  0  0  0  0  0  0  0  0  0  0
  -24.6090  -11.7410   20.8490 C   0  0  0  0  0  0  0  0  0  0  0  0
  -26.2510  -12.9920   20.2760 N   0  0  0  0  0  0  0  0  0  0  0  0
  -25.9010  -11.7080   20.5440 N   0  0  0  0  0  0  0  0  0  0  0  0
  -23.8850  -10.4760   21.0360 C   0  0  0  0  0  0  0  0  0  0  0  0
  -24.3110   -9.5110   21.9740 C   0  0  0  0  0  3  0  0  0  0  0  0
  -23.5870   -8.3120   22.1490 C   0  0  0  0  0  3  0  0  0  0  0  0
  -22.4200   -8.0700   21.3850 C   0  0  0  0  0  0  0  0  0  0  0  0
  -22.0130   -9.0250   20.4360 C   0  0  0  0  0  3  0  0  0  0  0  0
  -22.7380  -10.2140   20.2590 C   0  0  0  0  0  3  0  0  0  0  0  0
  -21.6670   -6.9240   21.4690 O   0  0  0  0  0  0  0  0  0  0  0  0
  -21.6080   -6.1850   22.6230 C   0  0  0  0  0  0  0  0  0  0  0  0
  -21.1580   -6.7390   23.8410 C   0  0  0  0  0  3  0  0  0  0  0  0
  -21.0480   -5.9260   24.9860 C   0  0  0  0  0  3  0  0  0  0  0  0
  -21.3760   -4.5590   24.9150 C   0  0  0  0  0  0  0  0  0  0  0  0
  -21.8190   -4.0040   23.7020 C   0  0  0  0  0  3  0  0  0  0  0  0
  -21.9320   -4.8140   22.5580 C   0  0  0  0  0  0  0  0  0  0  0  0
  -22.3390   -4.2700   21.3860 F   0  0  0  0  0  0  0  0  0  0  0  0
  -21.2630   -3.7760   26.0130 F   0  0  0  0  0  0  0  0  0  0  0  0
  -22.7410  -13.5630   21.1420 C   0  0  0  0  0  0  0  0  0  0  0  0
  -22.0100  -12.8650   22.0040 N   0  0  0  0  0  0  0  0  0  0  0  0
  -22.3040  -14.5880   20.6190 O   0  0  0  0  0  0  0  0  0  0  0  0
  -22.3780  -12.0380   22.4490 H   0  0  0  0  0  0  0  0  0  0  0  0
  -21.0710  -13.1650   22.2240 H   0  0  0  0  0  0  0  0  0  0  0  0
  -25.3630  -15.2390   20.3320 N   0  0  0  0  0  0  0  0  0  0  0  0
  -24.5870  -15.8840   20.4310 H   0  0  0  0  0  0  0  0  0  0  0  0
  -26.1940  -15.6780   19.9590 H   0  0  0  0  0  0  0  0  0  0  0  0
  -27.9110  -24.8600   20.7940 C   0  0  0  0  0  2  0  0  0  0  0  0
  -28.2530  -26.2430   20.2250 O   0  0  0  0  0  0  0  0  0  0  0  0
  -24.6150  -31.8760   23.2270 C   0  0  0  0  0  0  0  0  0  0  0  0
  -27.2040  -27.2150   20.1930 C   0  0  0  0  0  0  0  0  0  0  0  0
  -23.4140  -30.4780   21.5890 C   0  0  0  0  0  3  0  0  0  0  0  0
  -24.8650  -28.9160   20.1620 C   0  0  0  0  0  0  0  0  0  0  0  0
  -25.9640  -30.7650   21.4170 C   0  0  0  0  0  2  0  0  0  0  0  0
  -26.0430  -29.3770   20.7680 C   0  0  0  0  0  0  0  0  0  0  0  0
  -27.2180  -28.5420   20.7690 C   0  0  0  0  0  3  0  0  0  0  0  0
  -26.0080  -26.8490   19.5390 C   0  0  0  0  0  3  0  0  0  0  0  0
  -24.8580  -27.6630   19.5320 C   0  0  0  0  0  3  0  0  0  0  0  0
  -23.6340  -29.8030   20.2100 C   0  0  0  0  0  2  0  0  0  0  0  0
  -24.6840  -31.0600   22.1330 N   0  0  0  0  0  0  0  0  0  0  0  0
  -23.5300  -32.1560   23.7580 O   0  0  0  0  0  0  0  0  0  0  0  0
  -22.7440  -29.4660   22.5500 C   0  0  0  0  0  0  0  0  0  0  0  0
  -21.4140  -29.2960   22.4290 N   0  0  0  0  0  0  0  0  0  0  0  0
  -23.4190  -28.8360   23.3690 O   0  0  0  0  0  0  0  0  0  0  0  0
  -20.9270  -29.8550   21.7430 H   0  0  0  0  0  0  0  0  0  0  0  0
  -18.0330  -28.1080   22.9470 C   0  0  0  0  0  0  0  0  0  0  0  0
  -20.5950  -28.3590   23.2020 C   0  0  0  0  0  3  0  0  0  0  0  0
  -20.6880  -26.9290   22.6220 C   0  0  0  0  0  2  0  0  0  0  0  0
  -19.5790  -26.6130   21.6130 C   0  0  0  0  0  2  0  0  0  0  0  0
  -18.2010  -26.7600   22.2660 C   0  0  0  0  0  2  0  0  0  0  0  0
  -19.1570  -28.8660   23.3730 C   0  0  0  0  0  0  0  0  0  0  0  0
  -18.9440  -30.1270   23.9710 C   0  0  0  0  0  3  0  0  0  0  0  0
  -17.6420  -30.6300   24.1480 C   0  0  0  0  0  3  0  0  0  0  0  0
  -16.5330  -29.8690   23.7380 C   0  0  0  0  0  3  0  0  0  0  0  0
  -16.7300  -28.6100   23.1440 C   0  0  0  0  0  3  0  0  0  0  0  0
  -25.8940  -32.5120   23.8510 C   0  0  0  0  0  3  0  0  0  0  0  0
  -25.5800  -33.9100   24.1860 N   0  0  0  0  0  0  0  0  0  0  0  0
  -25.9050  -34.9680   23.4310 C   0  0  0  0  0  0  0  0  0  0  0  0
  -26.5690  -34.8700   22.3950 O   0  0  0  0  0  0  0  0  0  0  0  0
  -24.9890  -34.0590   24.9910 H   0  0  0  0  0  0  0  0  0  0  0  0
  -24.1720  -36.7620   23.0950 C   0  0  0  0  0  1  0  0  0  0  0  0
  -25.4180  -36.3540   23.8970 C   0  0  0  0  0  3  0  0  0  0  0  0
  -27.5560  -37.2410   24.7210 C   0  0  0  0  0  1  0  0  0  0  0  0
  -26.4490  -37.4100   23.7820 N   0  0  0  0  0  0  0  0  0  0  0  0
  -26.0420  -38.3290   23.9340 H   0  0  0  0  0  0  0  0  0  0  0  0
  -26.4100  -31.7420   25.1290 C   0  0  1  0  0  0  0  0  0  0  0  0
  -25.3160  -31.5050   26.1960 C   0  0  0  0  0  1  0  0  0  0  0  0
  -26.9940  -30.3650   24.7420 C   0  0  0  0  0  1  0  0  0  0  0  0
  -27.5590  -32.5380   25.7920 C   0  0  0  0  0  1  0  0  0  0  0  0
  1  5  1  0
  2  7  1  0
  3  2  2  0
  4  1  2  0
  4  3  1  0
  5 49  1  0
  5  7  2  0
  6  4  1  0
  8  9  1  0
  8 10  1  0
  9  3  1  0
  9 10  1  0
 10 19  1  0
 11 19  1  0
 12 17  1  0
 13 14  1  0
 13 12  1  0
 15 14  1  0
 15 24  1  0
 15 16  1  0
 17 11  1  0
 17 16  1  0
 18 11  2  0
 19 20  1  0
 21 22  2  0
 22 41  1  0
 23 22  1  0
 23 26  1  0
 24 21  1  0
 24 25  1  0
 25 23  2  0
 26 27  1  0
 27 28  2  0
 29 32  1  0
 29 28  1  0
 30 29  2  0
 31 30  1  0
 31 26  2  0
 32 33  1  0
 33 34  1  0
 34 35  2  0
 36 35  1  0
 36 40  1  0
 37 36  2  0
 38 33  2  0
 38 37  1  0
 39 38  1  0
 41 42  1  0
 42 45  1  0
 42 44  1  0
 43 41  2  0
 46 47  1  0
 46 21  1  0
 48 46  1  0
 50 49  1  0
 51 62  2  0
 52 50  1  0
 52 57  1  0
 53 61  1  0
 53 63  1  0
 54 60  1  0
 54 56  1  0
 55 61  1  0
 56 57  2  0
 56 55  1  0
 58 52  2  0
 59 58  1  0
 59 54  2  0
 60 53  1  0
 61 51  1  0
 63 65  2  0
 64 63  1  0
 66 64  1  0
 67 76  2  0
 67 72  1  0
 68 64  1  0
 68 72  1  0
 69 68  1  0
 70 71  1  0
 70 69  1  0
 71 67  1  0
 72 73  2  0
 73 74  1  0
 75 74  2  0
 76 75  1  0
 77 51  1  0
 77 78  1  0
 77 87  1  0
 78 81  1  0
 79 83  1  0
 79 78  1  0
 80 79  2  0
 83 82  1  0
 85 83  1  0
 85 86  1  0
 85 84  1  0
 87 90  1  1
 87 88  1  0
 89 87  1  0
M  ISO  4  11 100  19 100  49 101  50 101
M  END
>  <TORSDO>  (88) 
F 18

>  <SCORE>  (88) 
-14.808

>  <name>  (88) 
91

>  <ligand_id>  (88) 
91

>  <original_smiles>  (88) 
[H]c1nc(C([H])([H])Oc2c([H])c([H])c3c(c2[H])C([H])([H])N(C(=O)C([H])(N([H])C(=O)C([H])(N([H])C([H])([H])[H])C([H])([H])[H])C(C([H])([H])[H])(C([H])([H])[H])C([H])([H])[H])C([H])(C(=O)N([H])C2([H])c4c([H])c([H])c([H])c([H])c4C([H])([H])C([H])([H])C2([H])[H])C3([H])[H])c([H])c(C([H])([H])[H])c1C1([H])C([H])([H])C1([H])N([H])C(=O)N1C([H])([H])C([H])([H])C([H])([H])C([H])(n2nc(-c3c([H])c([H])c(Oc4c([H])c([H])c(F)c([H])c4F)c([H])c3[H])c(C(=O)N([H])[H])c2N([H])[H])C1([H])[H]

>  <smiles>  (88) 
[H]c1nc(C([H])([H])Oc2c([H])c([H])c3c(c2[H])C([H])([H])N(C(=O)C([H])(N([H])C(=O)C([H])(N([H])C([H])([H])[H])C([H])([H])[H])C(C([H])([H])[H])(C([H])([H])[H])C([H])([H])[H])C([H])(C(=O)N([H])C2([H])c4c([H])c([H])c([H])c([H])c4C([H])([H])C([H])([H])C2([H])[H])C3([H])[H])c([H])c(C([H])([H])[H])c1C1([H])C([H])([H])C1([H])N([H])C(=O)N1C([H])([H])C([H])([H])C([H])([H])C([H])(n2nc(-c3c([H])c([H])c(Oc4c([H])c([H])c(F)c([H])c4F)c([H])c3[H])c(C(=O)N([H])[H])c2N([H])[H])C1([H])[H]

$$$$
92:0:0
     RDKit          3D

 88 96  0  0  1  0  0  0  0  0999 V2000
  -30.0360  -20.1420   18.8720 C   0  0  0  0  0  2  0  0  0  0  0  0
  -30.5730  -21.1650   19.8970 C   0  0  0  0  0  2  0  0  0  0  0  0
  -29.1430  -19.5930   19.9900 C   0  0  0  0  0  3  0  0  0  0  0  0
  -29.2400  -21.2210   20.4950 N   0  0  2  0  0  4  0  0  0  0  0  0
  -29.2940  -21.2410   21.5030 H   0  0  0  0  0  0  0  0  0  0  0  0
  -30.4170  -15.3600   20.3450 C   0  0  0  0  0  0  0  0  0  0  0  0
  -30.4200  -12.9090   19.4490 C   0  0  0  0  0  2  0  0  0  0  0  0
  -29.5140  -12.6590   18.2180 C   0  0  0  0  0  2  0  0  0  0  0  0
  -28.0630  -12.3790   18.6520 C   0  0  0  0  0  2  0  0  0  0  0  0
  -27.5890  -13.3480   19.7630 C   0  0  0  0  0  3  0  0  0  0  0  0
  -28.6290  -13.5300   20.8860 C   0  0  0  0  0  2  0  0  0  0  0  0
  -29.8430  -14.0570   20.2410 N   0  0  0  0  0  0  0  0  0  0  0  0
  -31.6530  -15.3230   20.2450 O   0  0  0  0  0  0  0  0  0  0  0  0
  -29.9450  -18.0950   20.5190 C   0  0  0  0  0  0  0  0  0  0  0  0
  -29.6580  -16.6470   20.2970 N   0  0  0  0  0  0  0  0  0  0  0  0
  -30.9650  -18.3120   21.1780 O   0  0  0  0  0  0  0  0  0  0  0  0
  -28.7060  -16.5010   20.0040 H   0  0  0  0  0  0  0  0  0  0  0  0
  -25.2120  -13.8920   20.5000 C   0  0  0  0  0  0  0  0  0  0  0  0
  -24.1510  -13.1100   20.8600 C   0  0  0  0  0  0  0  0  0  0  0  0
  -24.6280  -11.7630   20.8380 C   0  0  0  0  0  0  0  0  0  0  0  0
  -26.2620  -13.0220   20.2670 N   0  0  0  0  0  0  0  0  0  0  0  0
  -25.9230  -11.7350   20.5410 N   0  0  0  0  0  0  0  0  0  0  0  0
  -23.9040  -10.4960   21.0210 C   0  0  0  0  0  0  0  0  0  0  0  0
  -24.3220   -9.5370   21.9700 C   0  0  0  0  0  3  0  0  0  0  0  0
  -23.5960   -8.3390   22.1420 C   0  0  0  0  0  3  0  0  0  0  0  0
  -22.4410   -8.0900   21.3640 C   0  0  0  0  0  0  0  0  0  0  0  0
  -22.0420   -9.0380   20.4060 C   0  0  0  0  0  3  0  0  0  0  0  0
  -22.7680  -10.2280   20.2320 C   0  0  0  0  0  3  0  0  0  0  0  0
  -21.6870   -6.9430   21.4460 O   0  0  0  0  0  0  0  0  0  0  0  0
  -21.6100   -6.2130   22.6050 C   0  0  0  0  0  0  0  0  0  0  0  0
  -21.1370   -6.7760   23.8090 C   0  0  0  0  0  3  0  0  0  0  0  0
  -21.0080   -5.9710   24.9600 C   0  0  0  0  0  3  0  0  0  0  0  0
  -21.3440   -4.6050   24.9050 C   0  0  0  0  0  0  0  0  0  0  0  0
  -21.8120   -4.0410   23.7050 C   0  0  0  0  0  3  0  0  0  0  0  0
  -21.9410   -4.8440   22.5570 C   0  0  0  0  0  0  0  0  0  0  0  0
  -22.3720   -4.2910   21.3980 F   0  0  0  0  0  0  0  0  0  0  0  0
  -21.2150   -3.8290   26.0070 F   0  0  0  0  0  0  0  0  0  0  0  0
  -22.7480  -13.5810   21.1040 C   0  0  0  0  0  0  0  0  0  0  0  0
  -22.0050  -12.8840   21.9570 N   0  0  0  0  0  0  0  0  0  0  0  0
  -22.3170  -14.6050   20.5740 O   0  0  0  0  0  0  0  0  0  0  0  0
  -22.3630  -12.0570   22.4100 H   0  0  0  0  0  0  0  0  0  0  0  0
  -21.0630  -13.1850   22.1610 H   0  0  0  0  0  0  0  0  0  0  0  0
  -25.3670  -15.2640   20.3200 N   0  0  0  0  0  0  0  0  0  0  0  0
  -24.5920  -15.9120   20.4170 H   0  0  0  0  0  0  0  0  0  0  0  0
  -26.2070  -15.7020   19.9690 H   0  0  0  0  0  0  0  0  0  0  0  0
  -28.4830  -22.6310   19.9480 C   0  0  0  0  0  2  0  0  0  0  0  0
  -28.2790  -24.2860   20.6730 C   0  0  0  0  0  2  0  0  0  0  0  0
  -28.2930  -25.8930   20.2240 O   0  0  0  0  0  0  0  0  0  0  0  0
  -24.6410  -31.8580   23.2100 C   0  0  0  0  0  0  0  0  0  0  0  0
  -27.2430  -26.9570   20.2580 C   0  0  0  0  0  0  0  0  0  0  0  0
  -23.4670  -30.4440   21.5750 C   0  0  0  0  0  3  0  0  0  0  0  0
  -24.9330  -28.8290   20.1800 C   0  0  0  0  0  0  0  0  0  0  0  0
  -26.0340  -30.6660   21.4430 C   0  0  0  0  0  2  0  0  0  0  0  0
  -26.1160  -29.2470   20.8020 C   0  0  0  0  0  0  0  0  0  0  0  0
  -27.2680  -28.3360   20.8070 C   0  0  0  0  0  3  0  0  0  0  0  0
  -26.0250  -26.6890   19.5960 C   0  0  0  0  0  3  0  0  0  0  0  0
  -24.9120  -27.5710   19.5570 C   0  0  0  0  0  3  0  0  0  0  0  0
  -23.7110  -29.7470   20.2070 C   0  0  0  0  0  2  0  0  0  0  0  0
  -24.7360  -31.0180   22.1290 N   0  0  0  0  0  0  0  0  0  0  0  0
  -23.5470  -32.1450   23.7220 O   0  0  0  0  0  0  0  0  0  0  0  0
  -22.7710  -29.4520   22.5430 C   0  0  0  0  0  0  0  0  0  0  0  0
  -21.4420  -29.2840   22.4140 N   0  0  0  0  0  0  0  0  0  0  0  0
  -23.4350  -28.8320   23.3770 O   0  0  0  0  0  0  0  0  0  0  0  0
  -20.9600  -29.8340   21.7170 H   0  0  0  0  0  0  0  0  0  0  0  0
  -18.0580  -28.0760   22.9260 C   0  0  0  0  0  0  0  0  0  0  0  0
  -20.6190  -28.3480   23.1860 C   0  0  0  0  0  3  0  0  0  0  0  0
  -20.7220  -26.9150   22.6120 C   0  0  0  0  0  2  0  0  0  0  0  0
  -19.6190  -26.5900   21.6000 C   0  0  0  0  0  2  0  0  0  0  0  0
  -18.2380  -26.7300   22.2460 C   0  0  0  0  0  2  0  0  0  0  0  0
  -19.1770  -28.8440   23.3540 C   0  0  0  0  0  0  0  0  0  0  0  0
  -18.9520  -30.1020   23.9520 C   0  0  0  0  0  3  0  0  0  0  0  0
  -17.6450  -30.5950   24.1270 C   0  0  0  0  0  3  0  0  0  0  0  0
  -16.5440  -29.8260   23.7130 C   0  0  0  0  0  3  0  0  0  0  0  0
  -16.7510  -28.5680   23.1200 C   0  0  0  0  0  3  0  0  0  0  0  0
  -25.9030  -32.5130   23.8500 C   0  0  0  0  0  3  0  0  0  0  0  0
  -25.5790  -33.9160   24.1610 N   0  0  0  0  0  0  0  0  0  0  0  0
  -25.9210  -34.9700   23.4080 C   0  0  0  0  0  0  0  0  0  0  0  0
  -26.6060  -34.8630   22.3880 O   0  0  0  0  0  0  0  0  0  0  0  0
  -24.9720  -34.0730   24.9520 H   0  0  0  0  0  0  0  0  0  0  0  0
  -24.2030  -36.7720   23.0260 C   0  0  0  0  0  1  0  0  0  0  0  0
  -25.4300  -36.3630   23.8550 C   0  0  0  0  0  3  0  0  0  0  0  0
  -27.5510  -37.2520   24.7190 C   0  0  0  0  0  1  0  0  0  0  0  0
  -26.4660  -37.4150   23.7550 N   0  0  0  0  0  0  0  0  0  0  0  0
  -26.0590  -38.3370   23.8900 H   0  0  0  0  0  0  0  0  0  0  0  0
  -26.3940  -31.7700   25.1540 C   0  0  1  0  0  0  0  0  0  0  0  0
  -25.2800  -31.5540   26.2060 C   0  0  0  0  0  1  0  0  0  0  0  0
  -26.9850  -30.3830   24.8110 C   0  0  0  0  0  1  0  0  0  0  0  0
  -27.5320  -32.5780   25.8200 C   0  0  0  0  0  1  0  0  0  0  0  0
  1  2  1  0
  1  3  1  0
  2  4  1  0
  3  4  1  0
  3 14  1  0
  4  5  1  1
  7 12  1  0
  8  9  1  0
  8  7  1  0
 10  9  1  0
 10 21  1  0
 10 11  1  0
 12  6  1  0
 12 11  1  0
 13  6  2  0
 14 16  2  0
 15  6  1  0
 15 14  1  0
 17 15  1  0
 18 19  2  0
 19 38  1  0
 20 19  1  0
 20 23  1  0
 21 18  1  0
 21 22  1  0
 22 20  2  0
 23 24  1  0
 24 25  2  0
 26 29  1  0
 26 25  1  0
 27 26  2  0
 28 27  1  0
 28 23  2  0
 29 30  1  0
 30 31  1  0
 31 32  2  0
 33 32  1  0
 33 37  1  0
 34 33  2  0
 35 30  2  0
 35 34  1  0
 36 35  1  0
 38 39  1  0
 39 42  1  0
 39 41  1  0
 40 38  2  0
 43 44  1  0
 43 18  1  0
 45 43  1  0
 46  4  1  0
 46 47  1  0
 48 50  1  0
 48 47  1  0
 49 60  2  0
 50 55  1  0
 51 59  1  0
 51 61  1  0
 52 58  1  0
 52 54  1  0
 53 59  1  0
 54 55  2  0
 54 53  1  0
 56 50  2  0
 57 56  1  0
 57 52  2  0
 58 51  1  0
 59 49  1  0
 61 63  2  0
 62 61  1  0
 64 62  1  0
 65 74  2  0
 65 70  1  0
 66 62  1  0
 66 70  1  0
 67 66  1  0
 68 69  1  0
 68 67  1  0
 69 65  1  0
 70 71  2  0
 71 72  1  0
 73 72  2  0
 74 73  1  0
 75 49  1  0
 75 76  1  0
 75 85  1  0
 76 79  1  0
 77 81  1  0
 77 76  1  0
 78 77  2  0
 81 80  1  0
 83 81  1  0
 83 84  1  0
 83 82  1  0
 85 88  1  1
 85 86  1  0
 87 85  1  0
M  ISO  4   6 100  15 100  47 101  48 101
M  END
>  <TORSDO>  (89) 
F 18

>  <SCORE>  (89) 
-16.589

>  <name>  (89) 
92

>  <ligand_id>  (89) 
92

>  <original_smiles>  (89) 
[H]c1c([H])c([H])c2c(c1[H])C([H])([H])C([H])([H])C([H])([H])C2([H])N([H])C(=O)C1([H])N(C(=O)C([H])(N([H])C(=O)C([H])(N([H])C([H])([H])[H])C([H])([H])[H])C(C([H])([H])[H])(C([H])([H])[H])C([H])([H])[H])C([H])([H])c2c([H])c(OC([H])([H])C([H])([H])[N+]3([H])C([H])([H])C([H])([H])C3([H])C(=O)N([H])C(=O)N3C([H])([H])C([H])([H])C([H])([H])C([H])(n4nc(-c5c([H])c([H])c(Oc6c([H])c([H])c(F)c([H])c6F)c([H])c5[H])c(C(=O)N([H])[H])c4N([H])[H])C3([H])[H])c([H])c([H])c2C1([H])[H]

>  <smiles>  (89) 
[H]c1c([H])c([H])c2c(c1[H])C([H])([H])C([H])([H])C([H])([H])C2([H])N([H])C(=O)C1([H])N(C(=O)C([H])(N([H])C(=O)C([H])(N([H])C([H])([H])[H])C([H])([H])[H])C(C([H])([H])[H])(C([H])([H])[H])C([H])([H])[H])C([H])([H])c2c([H])c(OC([H])([H])C([H])([H])[N+]3([H])C([H])([H])C([H])([H])C3([H])C(=O)N([H])C(=O)N3C([H])([H])C([H])([H])C([H])([H])C([H])(n4nc(-c5c([H])c([H])c(Oc6c([H])c([H])c(F)c([H])c6F)c([H])c5[H])c(C(=O)N([H])[H])c4N([H])[H])C3([H])[H])c([H])c([H])c2C1([H])[H]

$$$$
93:0:0
     RDKit          3D

 89 97  0  0  1  0  0  0  0  0999 V2000
  -29.2120  -22.1550   18.9920 C   0  0  0  0  0  3  0  0  0  0  0  0
  -29.6450  -20.7400   19.0540 C   0  0  0  0  0  3  0  0  0  0  0  0
  -29.3490  -22.2830   21.2820 C   0  0  0  0  0  3  0  0  0  0  0  0
  -29.0310  -23.0780   20.0990 C   0  0  0  0  0  0  0  0  0  0  0  0
  -29.9640  -19.9420   20.2300 C   0  0  0  0  0  0  0  0  0  0  0  0
  -29.7880  -20.8580   21.3560 C   0  0  0  0  0  0  0  0  0  0  0  0
  -31.5490  -20.6280   23.1600 C   0  0  0  0  0  1  0  0  0  0  0  0
  -30.1080  -20.3180   22.7390 C   0  0  0  0  0  2  0  0  0  0  0  0
  -30.7210  -18.3780   20.1780 C   0  0  0  0  0  2  0  0  0  0  0  0
  -31.0760  -15.5390   20.3050 C   0  0  0  0  0  0  0  0  0  0  0  0
  -31.0940  -13.0790   19.5260 C   0  0  0  0  0  2  0  0  0  0  0  0
  -30.2090  -12.8280   18.2820 C   0  0  0  0  0  2  0  0  0  0  0  0
  -28.7530  -12.5520   18.6970 C   0  0  0  0  0  2  0  0  0  0  0  0
  -28.2580  -13.5480   19.7780 C   0  0  0  0  0  3  0  0  0  0  0  0
  -29.2760  -13.7540   20.9190 C   0  0  0  0  0  2  0  0  0  0  0  0
  -30.5170  -14.2370   20.2970 N   0  0  0  0  0  0  0  0  0  0  0  0
  -32.2960  -15.5560   20.1010 O   0  0  0  0  0  0  0  0  0  0  0  0
  -30.3110  -16.7940   20.3370 N   0  0  0  0  0  0  0  0  0  0  0  0
  -29.3200  -16.6470   20.4590 H   0  0  0  0  0  0  0  0  0  0  0  0
  -25.8780  -14.0840   20.5220 C   0  0  0  0  0  0  0  0  0  0  0  0
  -24.8150  -13.2960   20.8640 C   0  0  0  0  0  0  0  0  0  0  0  0
  -25.2870  -11.9480   20.8060 C   0  0  0  0  0  0  0  0  0  0  0  0
  -26.9260  -13.2190   20.2680 N   0  0  0  0  0  0  0  0  0  0  0  0
  -26.5820  -11.9260   20.5070 N   0  0  0  0  0  0  0  0  0  0  0  0
  -24.5620  -10.6790   20.9590 C   0  0  0  0  0  0  0  0  0  0  0  0
  -24.9280   -9.7320   21.9400 C   0  0  0  0  0  3  0  0  0  0  0  0
  -24.2010   -8.5290   22.0810 C   0  0  0  0  0  3  0  0  0  0  0  0
  -23.0930   -8.2670   21.2400 C   0  0  0  0  0  0  0  0  0  0  0  0
  -22.7480   -9.2040   20.2500 C   0  0  0  0  0  3  0  0  0  0  0  0
  -23.4750  -10.3970   20.1080 C   0  0  0  0  0  3  0  0  0  0  0  0
  -22.3440   -7.1160   21.2870 O   0  0  0  0  0  0  0  0  0  0  0  0
  -22.0900   -6.4720   22.4710 C   0  0  0  0  0  0  0  0  0  0  0  0
  -21.4320   -7.1140   23.5420 C   0  0  0  0  0  3  0  0  0  0  0  0
  -21.1280   -6.3930   24.7150 C   0  0  0  0  0  3  0  0  0  0  0  0
  -21.4720   -5.0330   24.8150 C   0  0  0  0  0  0  0  0  0  0  0  0
  -22.1230   -4.3900   23.7470 C   0  0  0  0  0  3  0  0  0  0  0  0
  -22.4280   -5.1080   22.5770 C   0  0  0  0  0  0  0  0  0  0  0  0
  -23.0360   -4.4780   21.5430 F   0  0  0  0  0  0  0  0  0  0  0  0
  -21.1740   -4.3380   25.9380 F   0  0  0  0  0  0  0  0  0  0  0  0
  -23.4130  -13.7620   21.1270 C   0  0  0  0  0  0  0  0  0  0  0  0
  -22.6830  -13.0560   21.9810 N   0  0  0  0  0  0  0  0  0  0  0  0
  -22.9750  -14.7900   20.6110 O   0  0  0  0  0  0  0  0  0  0  0  0
  -23.0520  -12.2250   22.4200 H   0  0  0  0  0  0  0  0  0  0  0  0
  -21.7420  -13.3500   22.2010 H   0  0  0  0  0  0  0  0  0  0  0  0
  -26.0350  -15.4600   20.3760 N   0  0  0  0  0  0  0  0  0  0  0  0
  -25.2590  -16.1050   20.4900 H   0  0  0  0  0  0  0  0  0  0  0  0
  -26.8730  -15.9080   20.0300 H   0  0  0  0  0  0  0  0  0  0  0  0
  -28.2040  -24.6040   20.0420 C   0  0  0  0  0  2  0  0  0  0  0  0
  -28.5880  -26.1790   20.1360 O   0  0  0  0  0  0  0  0  0  0  0  0
  -24.8890  -31.9060   23.3150 C   0  0  0  0  0  0  0  0  0  0  0  0
  -27.5740  -27.2630   20.1000 C   0  0  0  0  0  0  0  0  0  0  0  0
  -23.7450  -30.5800   21.5860 C   0  0  0  0  0  3  0  0  0  0  0  0
  -25.2430  -29.0840   20.1080 C   0  0  0  0  0  0  0  0  0  0  0  0
  -26.3090  -30.8480   21.4950 C   0  0  0  0  0  2  0  0  0  0  0  0
  -26.4130  -29.4790   20.7700 C   0  0  0  0  0  0  0  0  0  0  0  0
  -27.5750  -28.5900   20.7450 C   0  0  0  0  0  3  0  0  0  0  0  0
  -26.3730  -27.0170   19.3940 C   0  0  0  0  0  3  0  0  0  0  0  0
  -25.2470  -27.8730   19.4020 C   0  0  0  0  0  3  0  0  0  0  0  0
  -24.0070  -29.9770   20.1800 C   0  0  0  0  0  2  0  0  0  0  0  0
  -25.0010  -31.1340   22.1870 N   0  0  0  0  0  0  0  0  0  0  0  0
  -23.7870  -32.1520   23.8300 O   0  0  0  0  0  0  0  0  0  0  0  0
  -23.0530  -29.5220   22.4850 C   0  0  0  0  0  0  0  0  0  0  0  0
  -21.7320  -29.3290   22.3120 N   0  0  0  0  0  0  0  0  0  0  0  0
  -23.7110  -28.8780   23.3060 O   0  0  0  0  0  0  0  0  0  0  0  0
  -21.2540  -29.9020   21.6300 H   0  0  0  0  0  0  0  0  0  0  0  0
  -18.3670  -28.0210   22.6710 C   0  0  0  0  0  0  0  0  0  0  0  0
  -20.9110  -28.3380   23.0180 C   0  0  0  0  0  3  0  0  0  0  0  0
  -21.0650  -26.9360   22.3850 C   0  0  0  0  0  2  0  0  0  0  0  0
  -20.0000  -26.6310   21.3270 C   0  0  0  0  0  2  0  0  0  0  0  0
  -18.5980  -26.7100   21.9380 C   0  0  0  0  0  2  0  0  0  0  0  0
  -19.4530  -28.7930   23.1630 C   0  0  0  0  0  0  0  0  0  0  0  0
  -19.1820  -30.0180   23.8100 C   0  0  0  0  0  3  0  0  0  0  0  0
  -17.8590  -30.4740   23.9660 C   0  0  0  0  0  3  0  0  0  0  0  0
  -16.7890  -29.7000   23.4880 C   0  0  0  0  0  3  0  0  0  0  0  0
  -17.0430  -28.4750   22.8460 C   0  0  0  0  0  3  0  0  0  0  0  0
  -26.1400  -32.5330   24.0010 C   0  0  0  0  0  3  0  0  0  0  0  0
  -26.6120  -31.7310   25.2770 C   0  0  1  0  0  0  0  0  0  0  0  0
  -25.4820  -31.4680   26.3010 C   0  0  0  0  0  1  0  0  0  0  0  0
  -27.2100  -30.3620   24.8800 C   0  0  0  0  0  1  0  0  0  0  0  0
  -27.7390  -32.5100   25.9970 C   0  0  0  0  0  1  0  0  0  0  0  0
  -25.8070  -33.9200   24.3680 N   0  0  0  0  0  0  0  0  0  0  0  0
  -26.1190  -35.0020   23.6420 C   0  0  0  0  0  0  0  0  0  0  0  0
  -26.7810  -34.9380   22.6030 O   0  0  0  0  0  0  0  0  0  0  0  0
  -25.2160  -34.0430   25.1780 H   0  0  0  0  0  0  0  0  0  0  0  0
  -24.3500  -36.7760   23.3800 C   0  0  0  0  0  1  0  0  0  0  0  0
  -25.6200  -36.3720   24.1460 C   0  0  0  0  0  3  0  0  0  0  0  0
  -27.7560  -37.2850   24.9460 C   0  0  0  0  0  1  0  0  0  0  0  0
  -26.6310  -37.4480   24.0290 N   0  0  0  0  0  0  0  0  0  0  0  0
  -26.2100  -38.3570   24.2000 H   0  0  0  0  0  0  0  0  0  0  0  0
  1  2  2  0
  1  4  1  0
  2  5  1  0
  3  6  1  0
  4  3  2  0
  5  6  2  0
  6  8  1  0
  8  7  1  0
  9  5  1  0
  9 18  1  0
 10 18  1  0
 11 16  1  0
 12 13  1  0
 12 11  1  0
 14 13  1  0
 14 23  1  0
 14 15  1  0
 16 10  1  0
 16 15  1  0
 17 10  2  0
 18 19  1  0
 20 21  2  0
 21 40  1  0
 22 21  1  0
 22 25  1  0
 23 24  1  0
 23 20  1  0
 24 22  2  0
 25 26  1  0
 26 27  2  0
 28 31  1  0
 28 27  1  0
 29 28  2  0
 30 29  1  0
 30 25  2  0
 31 32  1  0
 32 37  2  0
 32 33  1  0
 33 34  2  0
 34 35  1  0
 35 39  1  0
 36 35  2  0
 37 36  1  0
 38 37  1  0
 40 41  1  0
 41 44  1  0
 41 43  1  0
 42 40  2  0
 45 46  1  0
 45 20  1  0
 47 45  1  0
 48  4  1  0
 48 49  1  0
 50 61  2  0
 51 49  1  0
 51 56  1  0
 52 60  1  0
 52 62  1  0
 53 59  1  0
 53 55  1  0
 54 60  1  0
 55 54  1  0
 56 55  2  0
 57 58  1  0
 57 51  2  0
 58 53  2  0
 59 52  1  0
 60 50  1  0
 62 64  2  0
 63 62  1  0
 65 63  1  0
 66 75  2  0
 66 71  1  0
 67 63  1  0
 67 71  1  0
 68 67  1  0
 69 70  1  0
 69 68  1  0
 70 66  1  0
 71 72  2  0
 72 73  1  0
 74 73  2  0
 75 74  1  0
 76 50  1  0
 76 81  1  0
 76 77  1  0
 77 80  1  1
 77 78  1  0
 79 77  1  0
 81 84  1  0
 82 86  1  0
 82 81  1  0
 83 82  2  0
 86 85  1  0
 88 86  1  0
 88 89  1  0
 88 87  1  0
M  ISO  4  10 100  18 100  48 101  49 101
M  END
>  <TORSDO>  (90) 
F 19

>  <SCORE>  (90) 
-14.064

>  <name>  (90) 
93

>  <ligand_id>  (90) 
93

>  <original_smiles>  (90) 
[H]c1c([H])c([H])c2c(c1[H])C([H])([H])C([H])([H])C([H])([H])C2([H])N([H])C(=O)C1([H])N(C(=O)C([H])(N([H])C(=O)C([H])(N([H])C([H])([H])[H])C([H])([H])[H])C(C([H])([H])[H])(C([H])([H])[H])C([H])([H])[H])C([H])([H])c2c([H])c(OC([H])([H])c3c([H])c([H])c(C([H])([H])N([H])C(=O)N4C([H])([H])C([H])([H])C([H])([H])C([H])(n5nc(-c6c([H])c([H])c(Oc7c([H])c([H])c(F)c([H])c7F)c([H])c6[H])c(C(=O)N([H])[H])c5N([H])[H])C4([H])[H])c(C([H])([H])C([H])([H])[H])c3[H])c([H])c([H])c2C1([H])[H]

>  <smiles>  (90) 
[H]c1c([H])c([H])c2c(c1[H])C([H])([H])C([H])([H])C([H])([H])C2([H])N([H])C(=O)C1([H])N(C(=O)C([H])(N([H])C(=O)C([H])(N([H])C([H])([H])[H])C([H])([H])[H])C(C([H])([H])[H])(C([H])([H])[H])C([H])([H])[H])C([H])([H])c2c([H])c(OC([H])([H])c3c([H])c([H])c(C([H])([H])N([H])C(=O)N4C([H])([H])C([H])([H])C([H])([H])C([H])(n5nc(-c6c([H])c([H])c(Oc7c([H])c([H])c(F)c([H])c7F)c([H])c6[H])c(C(=O)N([H])[H])c5N([H])[H])C4([H])[H])c(C([H])([H])C([H])([H])[H])c3[H])c([H])c([H])c2C1([H])[H]

$$$$
94:0:0
     RDKit          3D

 92100  0  0  1  0  0  0  0  0999 V2000
  -27.1600  -20.9370   20.5100 C   0  0  0  0  0  3  0  0  0  0  0  0
  -29.8470  -21.3500   19.9460 C   0  0  0  0  0  3  0  0  0  0  0  0
  -27.6920  -22.2260   20.6890 C   0  0  0  0  0  0  0  0  0  0  0  0
  -27.9440  -19.8460   20.0850 C   0  0  0  0  0  0  0  0  0  0  0  0
  -29.0310  -22.5100   20.2880 C   0  0  0  0  0  0  0  0  0  0  0  0
  -29.3470  -19.9820   19.8850 C   0  0  0  0  0  0  0  0  0  0  0  0
  -26.7620  -23.2390   21.3550 C   0  0  0  0  0  1  0  0  0  0  0  0
  -27.2110  -18.5380   19.8190 C   0  0  0  0  0  1  0  0  0  0  0  0
  -31.4500  -18.9920   18.6840 C   0  0  0  0  0  1  0  0  0  0  0  0
  -30.1860  -18.6660   19.5000 C   0  0  0  0  0  3  0  0  0  0  0  0
  -30.5380  -17.5920   20.6580 C   0  0  0  0  0  2  0  0  0  0  0  0
  -31.2020  -15.0100   20.2550 C   0  0  0  0  0  0  0  0  0  0  0  0
  -31.0300  -12.7130   19.2840 C   0  0  0  0  0  2  0  0  0  0  0  0
  -30.0910  -12.7860   18.0570 C   0  0  0  0  0  2  0  0  0  0  0  0
  -28.6170  -12.6350   18.4880 C   0  0  0  0  0  2  0  0  0  0  0  0
  -28.2490  -13.5440   19.6900 C   0  0  0  0  0  3  0  0  0  0  0  0
  -29.3030  -13.4340   20.8140 C   0  0  0  0  0  2  0  0  0  0  0  0
  -30.6020  -13.7720   20.2200 N   0  0  0  0  0  0  0  0  0  0  0  0
  -32.3950  -15.1410   19.9680 O   0  0  0  0  0  0  0  0  0  0  0  0
  -30.3570  -16.0910   20.4310 N   0  0  0  0  0  0  0  0  0  0  0  0
  -29.4080  -15.7900   20.5720 H   0  0  0  0  0  0  0  0  0  0  0  0
  -25.8720  -14.1830   20.4200 C   0  0  0  0  0  0  0  0  0  0  0  0
  -24.7890  -13.4350   20.7830 C   0  0  0  0  0  0  0  0  0  0  0  0
  -25.2210  -12.0720   20.7380 C   0  0  0  0  0  0  0  0  0  0  0  0
  -26.8970  -13.2860   20.1760 N   0  0  0  0  0  0  0  0  0  0  0  0
  -26.5100  -12.0080   20.4280 N   0  0  0  0  0  0  0  0  0  0  0  0
  -24.4630  -10.8270   20.9090 C   0  0  0  0  0  0  0  0  0  0  0  0
  -24.8180   -9.8760   21.8900 C   0  0  0  0  0  3  0  0  0  0  0  0
  -24.0640   -8.6940   22.0470 C   0  0  0  0  0  3  0  0  0  0  0  0
  -22.9400   -8.4550   21.2220 C   0  0  0  0  0  0  0  0  0  0  0  0
  -22.6020   -9.3960   20.2310 C   0  0  0  0  0  3  0  0  0  0  0  0
  -23.3580  -10.5690   20.0740 C   0  0  0  0  0  3  0  0  0  0  0  0
  -22.1600   -7.3260   21.2880 O   0  0  0  0  0  0  0  0  0  0  0  0
  -21.9550   -6.6610   22.4720 C   0  0  0  0  0  0  0  0  0  0  0  0
  -21.3350   -7.2840   23.5770 C   0  0  0  0  0  3  0  0  0  0  0  0
  -21.0800   -6.5440   24.7490 C   0  0  0  0  0  3  0  0  0  0  0  0
  -21.4340   -5.1850   24.8160 C   0  0  0  0  0  0  0  0  0  0  0  0
  -22.0450   -4.5610   23.7140 C   0  0  0  0  0  3  0  0  0  0  0  0
  -22.3030   -5.2970   22.5440 C   0  0  0  0  0  0  0  0  0  0  0  0
  -22.8740   -4.6880   21.4760 F   0  0  0  0  0  0  0  0  0  0  0  0
  -21.1840   -4.4700   25.9370 F   0  0  0  0  0  0  0  0  0  0  0  0
  -23.4020  -13.9420   21.0580 C   0  0  0  0  0  0  0  0  0  0  0  0
  -22.6540  -13.2530   21.9110 N   0  0  0  0  0  0  0  0  0  0  0  0
  -22.9950  -14.9880   20.5540 O   0  0  0  0  0  0  0  0  0  0  0  0
  -22.9950  -12.4040   22.3400 H   0  0  0  0  0  0  0  0  0  0  0  0
  -21.7270  -13.5800   22.1400 H   0  0  0  0  0  0  0  0  0  0  0  0
  -26.0630  -15.5490   20.2460 N   0  0  0  0  0  0  0  0  0  0  0  0
  -25.2890  -16.2010   20.3070 H   0  0  0  0  0  0  0  0  0  0  0  0
  -26.8830  -15.9490   19.8170 H   0  0  0  0  0  0  0  0  0  0  0  0
  -29.5770  -24.0070   20.3430 C   0  0  0  0  0  2  0  0  0  0  0  0
  -28.7160  -25.2070   19.6850 C   0  0  0  0  0  2  0  0  0  0  0  0
  -28.8440  -26.6380   20.1290 O   0  0  0  0  0  0  0  0  0  0  0  0
  -24.8090  -31.7740   23.3310 C   0  0  0  0  0  0  0  0  0  0  0  0
  -27.7070  -27.4810   20.0920 C   0  0  0  0  0  0  0  0  0  0  0  0
  -23.7230  -30.4280   21.5710 C   0  0  0  0  0  3  0  0  0  0  0  0
  -25.2840  -29.0240   20.1110 C   0  0  0  0  0  0  0  0  0  0  0  0
  -26.2560  -30.8440   21.5100 C   0  0  0  0  0  2  0  0  0  0  0  0
  -26.4160  -29.5120   20.7770 C   0  0  0  0  0  0  0  0  0  0  0  0
  -27.6290  -28.7490   20.7630 C   0  0  0  0  0  3  0  0  0  0  0  0
  -26.5490  -27.0760   19.3850 C   0  0  0  0  0  3  0  0  0  0  0  0
  -25.3550  -27.8140   19.4090 C   0  0  0  0  0  3  0  0  0  0  0  0
  -24.0100  -29.8390   20.1670 C   0  0  0  0  0  2  0  0  0  0  0  0
  -24.9450  -31.0320   22.1930 N   0  0  0  0  0  0  0  0  0  0  0  0
  -23.6960  -31.9770   23.8370 O   0  0  0  0  0  0  0  0  0  0  0  0
  -23.0650  -29.3350   22.4470 C   0  0  0  0  0  0  0  0  0  0  0  0
  -21.7540  -29.1110   22.2550 N   0  0  0  0  0  0  0  0  0  0  0  0
  -23.7390  -28.6900   23.2550 O   0  0  0  0  0  0  0  0  0  0  0  0
  -21.2720  -29.6720   21.5670 H   0  0  0  0  0  0  0  0  0  0  0  0
  -18.4060  -27.7740   22.5800 C   0  0  0  0  0  0  0  0  0  0  0  0
  -20.9450  -28.0980   22.9380 C   0  0  0  0  0  3  0  0  0  0  0  0
  -21.1120  -26.7110   22.2710 C   0  0  0  0  0  2  0  0  0  0  0  0
  -20.0480  -26.4230   21.2060 C   0  0  0  0  0  2  0  0  0  0  0  0
  -18.6450  -26.4810   21.8170 C   0  0  0  0  0  2  0  0  0  0  0  0
  -19.4850  -28.5400   23.0920 C   0  0  0  0  0  0  0  0  0  0  0  0
  -19.2090  -29.7530   23.7590 C   0  0  0  0  0  3  0  0  0  0  0  0
  -17.8840  -30.2030   23.9170 C   0  0  0  0  0  3  0  0  0  0  0  0
  -16.8170  -29.4290   23.4270 C   0  0  0  0  0  3  0  0  0  0  0  0
  -17.0790  -28.2150   22.7660 C   0  0  0  0  0  3  0  0  0  0  0  0
  -26.0430  -32.4160   24.0380 C   0  0  0  0  0  3  0  0  0  0  0  0
  -26.4910  -31.6400   25.3380 C   0  0  1  0  0  0  0  0  0  0  0  0
  -25.3300  -31.3650   26.3260 C   0  0  0  0  0  1  0  0  0  0  0  0
  -27.1280  -30.2800   24.9720 C   0  0  0  0  0  1  0  0  0  0  0  0
  -27.5830  -32.4480   26.0780 C   0  0  0  0  0  1  0  0  0  0  0  0
  -25.6880  -33.8030   24.3650 N   0  0  0  0  0  0  0  0  0  0  0  0
  -26.0490  -34.8720   23.6440 C   0  0  0  0  0  0  0  0  0  0  0  0
  -26.7790  -34.7950   22.6520 O   0  0  0  0  0  0  0  0  0  0  0  0
  -25.0400  -33.9340   25.1280 H   0  0  0  0  0  0  0  0  0  0  0  0
  -24.3190  -36.6450   23.2130 C   0  0  0  0  0  1  0  0  0  0  0  0
  -25.5150  -36.2460   24.0910 C   0  0  0  0  0  3  0  0  0  0  0  0
  -27.5740  -37.1510   25.0780 C   0  0  0  0  0  1  0  0  0  0  0  0
  -26.5380  -37.3150   24.0610 N   0  0  0  0  0  0  0  0  0  0  0  0
  -26.1080  -38.2270   24.1910 H   0  0  0  0  0  0  0  0  0  0  0  0
  1  3  1  0
  2  5  1  0
  3  7  1  0
  4  1  2  0
  5 50  1  0
  5  3  2  0
  6  2  2  0
  6  4  1  0
  8  4  1  0
 10  9  1  0
 10  6  1  0
 10 11  1  0
 12 20  1  0
 13 18  1  0
 14 15  1  0
 14 13  1  0
 16 15  1  0
 16 25  1  0
 16 17  1  0
 18 12  1  0
 18 17  1  0
 19 12  2  0
 20 21  1  0
 20 11  1  0
 22 23  2  0
 23 42  1  0
 24 23  1  0
 24 27  1  0
 25 22  1  0
 25 26  1  0
 26 24  2  0
 27 28  1  0
 28 29  2  0
 30 33  1  0
 30 29  1  0
 31 30  2  0
 32 31  1  0
 32 27  2  0
 33 34  1  0
 34 39  2  0
 34 35  1  0
 35 36  2  0
 36 37  1  0
 37 41  1  0
 38 37  2  0
 39 38  1  0
 40 39  1  0
 42 43  1  0
 43 46  1  0
 43 45  1  0
 44 42  2  0
 47 48  1  0
 47 22  1  0
 49 47  1  0
 51 52  1  0
 51 50  1  0
 53 64  2  0
 54 52  1  0
 54 59  1  0
 55 63  1  0
 55 65  1  0
 56 62  1  0
 56 58  1  0
 57 63  1  0
 58 57  1  0
 59 58  2  0
 60 61  1  0
 60 54  2  0
 61 56  2  0
 62 55  1  0
 63 53  1  0
 65 67  2  0
 66 65  1  0
 68 66  1  0
 69 78  2  0
 69 74  1  0
 70 66  1  0
 70 74  1  0
 71 70  1  0
 72 73  1  0
 72 71  1  0
 73 69  1  0
 74 75  2  0
 75 76  1  0
 77 76  2  0
 78 77  1  0
 79 53  1  0
 79 84  1  0
 79 80  1  0
 80 83  1  1
 80 81  1  0
 82 80  1  0
 84 87  1  0
 85 89  1  0
 85 84  1  0
 86 85  2  0
 89 88  1  0
 91 89  1  0
 91 92  1  0
 91 90  1  0
M  ISO  4  12 100  20 100  51 101  52 101
M  END
>  <TORSDO>  (91) 
F 20

>  <SCORE>  (91) 
-12.413

>  <name>  (91) 
94

>  <ligand_id>  (91) 
94

>  <original_smiles>  (91) 
[H]c1c([H])c([H])c2c(c1[H])C([H])([H])C([H])([H])C([H])([H])C2([H])N([H])C(=O)C1([H])N(C(=O)C([H])(N([H])C(=O)C([H])(N([H])C([H])([H])[H])C([H])([H])[H])C(C([H])([H])[H])(C([H])([H])[H])C([H])([H])[H])C([H])([H])c2c([H])c(OC([H])([H])C([H])([H])c3c([H])c(C([H])(C([H])([H])[H])C([H])([H])N([H])C(=O)N4C([H])([H])C([H])([H])C([H])([H])C([H])(n5nc(-c6c([H])c([H])c(Oc7c([H])c([H])c(F)c([H])c7F)c([H])c6[H])c(C(=O)N([H])[H])c5N([H])[H])C4([H])[H])c(C([H])([H])[H])c([H])c3C([H])([H])[H])c([H])c([H])c2C1([H])[H]

>  <smiles>  (91) 
[H]c1c([H])c([H])c2c(c1[H])C([H])([H])C([H])([H])C([H])([H])C2([H])N([H])C(=O)C1([H])N(C(=O)C([H])(N([H])C(=O)C([H])(N([H])C([H])([H])[H])C([H])([H])[H])C(C([H])([H])[H])(C([H])([H])[H])C([H])([H])[H])C([H])([H])c2c([H])c(OC([H])([H])C([H])([H])c3c([H])c(C([H])(C([H])([H])[H])C([H])([H])N([H])C(=O)N4C([H])([H])C([H])([H])C([H])([H])C([H])(n5nc(-c6c([H])c([H])c(Oc7c([H])c([H])c(F)c([H])c7F)c([H])c6[H])c(C(=O)N([H])[H])c5N([H])[H])C4([H])[H])c(C([H])([H])[H])c([H])c3C([H])([H])[H])c([H])c([H])c2C1([H])[H]

$$$$
95:0:0
     RDKit          3D

 93102  0  0  1  0  0  0  0  0999 V2000
  -29.3380  -22.1230   21.6310 C   0  0  0  0  0  2  0  0  0  0  0  0
  -32.4260  -18.8480   22.5220 C   0  0  0  0  0  2  0  0  0  0  0  0
  -31.7470  -21.4170   22.6310 C   0  0  0  0  0  2  0  0  0  0  0  0
  -30.0540  -18.8650   21.8940 C   0  0  0  0  0  2  0  0  0  0  0  0
  -31.7470  -20.0070   23.2470 C   0  0  0  0  0  3  0  0  0  0  0  0
  -30.2480  -19.9390   22.9690 C   0  0  0  0  0  3  0  0  0  0  0  0
  -31.2740  -17.9230   22.0610 C   0  0  0  0  0  3  0  0  0  0  0  0
  -30.2140  -21.4770   22.7400 C   0  0  0  0  0  3  0  0  0  0  0  0
  -31.6200  -17.0750   20.8200 C   0  0  0  0  0  2  0  0  0  0  0  0
  -31.5580  -14.6980   20.1790 C   0  0  0  0  0  0  0  0  0  0  0  0
  -31.1540  -12.5270   19.1130 C   0  0  0  0  0  2  0  0  0  0  0  0
  -30.2230  -12.7530   17.9190 C   0  0  0  0  0  2  0  0  0  0  0  0
  -28.7790  -12.5380   18.3940 C   0  0  0  0  0  2  0  0  0  0  0  0
  -28.4370  -13.4670   19.5900 C   0  0  0  0  0  3  0  0  0  0  0  0
  -29.4910  -13.3420   20.7120 C   0  0  0  0  0  2  0  0  0  0  0  0
  -30.8320  -13.5520   20.1260 N   0  0  0  0  0  0  0  0  0  0  0  0
  -32.6150  -14.8430   19.5600 O   0  0  0  0  0  0  0  0  0  0  0  0
  -31.0290  -15.7330   20.8470 N   0  0  0  0  0  0  0  0  0  0  0  0
  -30.1210  -15.6060   21.2630 H   0  0  0  0  0  0  0  0  0  0  0  0
  -26.0590  -14.1480   20.3160 C   0  0  0  0  0  0  0  0  0  0  0  0
  -24.9620  -13.4160   20.6860 C   0  0  0  0  0  0  0  0  0  0  0  0
  -25.3770  -12.0510   20.6290 C   0  0  0  0  0  0  0  0  0  0  0  0
  -27.0810  -13.2390   20.0840 N   0  0  0  0  0  0  0  0  0  0  0  0
  -26.6720  -11.9710   20.3280 N   0  0  0  0  0  0  0  0  0  0  0  0
  -24.6050  -10.8110   20.8240 C   0  0  0  0  0  0  0  0  0  0  0  0
  -24.9620   -9.8720   21.8180 C   0  0  0  0  0  3  0  0  0  0  0  0
  -24.1900   -8.7010   22.0080 C   0  0  0  0  0  3  0  0  0  0  0  0
  -23.0580   -8.4530   21.1960 C   0  0  0  0  0  0  0  0  0  0  0  0
  -22.7180   -9.3830   20.1980 C   0  0  0  0  0  3  0  0  0  0  0  0
  -23.4860  -10.5440   20.0100 C   0  0  0  0  0  3  0  0  0  0  0  0
  -22.2850   -7.3180   21.2820 O   0  0  0  0  0  0  0  0  0  0  0  0
  -22.0460   -6.6980   22.4840 C   0  0  0  0  0  0  0  0  0  0  0  0
  -21.4480   -7.3760   23.5670 C   0  0  0  0  0  3  0  0  0  0  0  0
  -21.1510   -6.6820   24.7560 C   0  0  0  0  0  3  0  0  0  0  0  0
  -21.4580   -5.3120   24.8660 C   0  0  0  0  0  0  0  0  0  0  0  0
  -22.0540   -4.6320   23.7880 C   0  0  0  0  0  3  0  0  0  0  0  0
  -22.3430   -5.3250   22.5970 C   0  0  0  0  0  0  0  0  0  0  0  0
  -22.8940   -4.6650   21.5530 F   0  0  0  0  0  0  0  0  0  0  0  0
  -21.1590   -4.6390   26.0010 F   0  0  0  0  0  0  0  0  0  0  0  0
  -23.5920  -13.9520   20.9840 C   0  0  0  0  0  0  0  0  0  0  0  0
  -22.8700  -13.2890   21.8830 N   0  0  0  0  0  0  0  0  0  0  0  0
  -23.1810  -14.9840   20.4580 O   0  0  0  0  0  0  0  0  0  0  0  0
  -23.2420  -12.4660   22.3250 H   0  0  0  0  0  0  0  0  0  0  0  0
  -21.9370  -13.6010   22.1280 H   0  0  0  0  0  0  0  0  0  0  0  0
  -26.2690  -15.5000   20.1310 N   0  0  0  0  0  0  0  0  0  0  0  0
  -25.5190  -16.1630   20.2680 H   0  0  0  0  0  0  0  0  0  0  0  0
  -27.1520  -15.9070   19.8460 H   0  0  0  0  0  0  0  0  0  0  0  0
  -29.0530  -24.5350   20.9210 C   0  0  0  0  0  0  0  0  0  0  0  0
  -29.0320  -23.5550   21.8500 N   0  0  0  0  0  0  0  0  0  0  0  0
  -29.6000  -24.3710   19.8260 O   0  0  0  0  0  0  0  0  0  0  0  0
  -28.5950  -23.7840   22.7310 H   0  0  0  0  0  0  0  0  0  0  0  0
  -28.3240  -25.8720   21.2270 C   0  0  0  0  0  2  0  0  0  0  0  0
  -28.3160  -26.7570   20.0770 O   0  0  0  0  0  0  0  0  0  0  0  0
  -24.5520  -31.8160   23.3000 C   0  0  0  0  0  0  0  0  0  0  0  0
  -27.1890  -27.5470   20.0360 C   0  0  0  0  0  0  0  0  0  0  0  0
  -23.3330  -30.4830   21.6060 C   0  0  0  0  0  3  0  0  0  0  0  0
  -24.7880  -29.0280   20.0940 C   0  0  0  0  0  0  0  0  0  0  0  0
  -25.8490  -30.8870   21.3900 C   0  0  0  0  0  2  0  0  0  0  0  0
  -25.9460  -29.5470   20.6910 C   0  0  0  0  0  0  0  0  0  0  0  0
  -27.1520  -28.8130   20.6550 C   0  0  0  0  0  3  0  0  0  0  0  0
  -26.0320  -27.0490   19.4040 C   0  0  0  0  0  3  0  0  0  0  0  0
  -24.8280  -27.7850   19.4330 C   0  0  0  0  0  3  0  0  0  0  0  0
  -23.5330  -29.8660   20.1950 C   0  0  0  0  0  2  0  0  0  0  0  0
  -24.5970  -31.0760   22.1590 N   0  0  0  0  0  0  0  0  0  0  0  0
  -23.4790  -32.0520   23.8730 O   0  0  0  0  0  0  0  0  0  0  0  0
  -22.7070  -29.4150   22.5270 C   0  0  0  0  0  0  0  0  0  0  0  0
  -21.3880  -29.1950   22.3850 N   0  0  0  0  0  0  0  0  0  0  0  0
  -23.4020  -28.7840   23.3290 O   0  0  0  0  0  0  0  0  0  0  0  0
  -20.8860  -29.7590   21.7130 H   0  0  0  0  0  0  0  0  0  0  0  0
  -18.0620  -27.8380   22.7630 C   0  0  0  0  0  0  0  0  0  0  0  0
  -20.5950  -28.2070   23.1150 C   0  0  0  0  0  3  0  0  0  0  0  0
  -20.7800  -26.7920   22.5210 C   0  0  0  0  0  2  0  0  0  0  0  0
  -19.7240  -26.4380   21.4680 C   0  0  0  0  0  2  0  0  0  0  0  0
  -18.3190  -26.5080   22.0730 C   0  0  0  0  0  2  0  0  0  0  0  0
  -19.1310  -28.6430   23.2380 C   0  0  0  0  0  0  0  0  0  0  0  0
  -18.8380  -29.8840   23.8430 C   0  0  0  0  0  3  0  0  0  0  0  0
  -17.5070  -30.3240   23.9760 C   0  0  0  0  0  3  0  0  0  0  0  0
  -16.4510  -29.5170   23.5170 C   0  0  0  0  0  3  0  0  0  0  0  0
  -16.7290  -28.2740   22.9190 C   0  0  0  0  0  3  0  0  0  0  0  0
  -25.8450  -32.4300   23.9310 C   0  0  0  0  0  3  0  0  0  0  0  0
  -26.3770  -31.6140   25.1750 C   0  0  1  0  0  0  0  0  0  0  0  0
  -25.2930  -31.3310   26.2400 C   0  0  0  0  0  1  0  0  0  0  0  0
  -26.9660  -30.2560   24.7250 C   0  0  0  0  0  1  0  0  0  0  0  0
  -27.5260  -32.3920   25.8570 C   0  0  0  0  0  1  0  0  0  0  0  0
  -25.5360  -33.8140   24.3090 N   0  0  0  0  0  0  0  0  0  0  0  0
  -25.8790  -34.8930   23.5920 C   0  0  0  0  0  0  0  0  0  0  0  0
  -26.5550  -34.8230   22.5610 O   0  0  0  0  0  0  0  0  0  0  0  0
  -24.9330  -33.9390   25.1100 H   0  0  0  0  0  0  0  0  0  0  0  0
  -24.1620  -36.7040   23.2840 C   0  0  0  0  0  1  0  0  0  0  0  0
  -25.3930  -36.2650   24.0940 C   0  0  0  0  0  3  0  0  0  0  0  0
  -27.5180  -37.1120   24.9840 C   0  0  0  0  0  1  0  0  0  0  0  0
  -26.4310  -37.3160   24.0310 N   0  0  0  0  0  0  0  0  0  0  0  0
  -26.0270  -38.2310   24.2020 H   0  0  0  0  0  0  0  0  0  0  0  0
  1 49  1  0
  3  8  1  0
  3  5  1  0
  4  7  1  0
  5  2  1  0
  6  4  1  0
  6  5  1  0
  7  9  1  0
  7  2  1  0
  8  1  1  0
  8  6  1  0
  9 18  1  0
 10 18  1  0
 11 16  1  0
 12 13  1  0
 12 11  1  0
 14 13  1  0
 14 23  1  0
 14 15  1  0
 16 10  1  0
 16 15  1  0
 17 10  2  0
 18 19  1  0
 20 21  2  0
 21 40  1  0
 22 21  1  0
 22 25  1  0
 23 20  1  0
 23 24  1  0
 24 22  2  0
 25 26  1  0
 26 27  2  0
 28 31  1  0
 28 27  1  0
 29 28  2  0
 30 29  1  0
 30 25  2  0
 31 32  1  0
 32 37  2  0
 32 33  1  0
 33 34  2  0
 34 35  1  0
 35 39  1  0
 36 35  2  0
 37 36  1  0
 38 37  1  0
 40 41  1  0
 41 44  1  0
 41 43  1  0
 42 40  2  0
 45 46  1  0
 45 20  1  0
 47 45  1  0
 48 52  1  0
 48 49  1  0
 49 51  1  0
 50 48  2  0
 53 52  1  0
 54 65  2  0
 55 53  1  0
 55 60  1  0
 56 64  1  0
 56 66  1  0
 57 63  1  0
 57 59  1  0
 58 64  1  0
 59 58  1  0
 60 59  2  0
 61 62  1  0
 61 55  2  0
 62 57  2  0
 63 56  1  0
 64 54  1  0
 66 68  2  0
 67 66  1  0
 69 67  1  0
 70 79  2  0
 70 75  1  0
 71 67  1  0
 71 75  1  0
 72 71  1  0
 73 74  1  0
 73 72  1  0
 74 70  1  0
 75 76  2  0
 76 77  1  0
 78 77  2  0
 79 78  1  0
 80 54  1  0
 80 85  1  0
 80 81  1  0
 81 84  1  1
 81 82  1  0
 83 81  1  0
 85 88  1  0
 86 90  1  0
 86 85  1  0
 87 86  2  0
 90 89  1  0
 92 90  1  0
 92 93  1  0
 92 91  1  0
M  ISO  4  10 100  18 100  52 101  53 101
M  END
>  <TORSDO>  (92) 
F 20

>  <SCORE>  (92) 
-11.617

>  <name>  (92) 
95

>  <ligand_id>  (92) 
95

>  <original_smiles>  (92) 
[H]c1c([H])c([H])c2c(c1[H])C([H])([H])C([H])([H])C([H])([H])C2([H])N([H])C(=O)C1([H])N(C(=O)C([H])(N([H])C(=O)C([H])(N([H])C([H])([H])[H])C([H])([H])[H])C(C([H])([H])[H])(C([H])([H])[H])C([H])([H])[H])C([H])([H])c2c([H])c(OC([H])([H])C(=O)N([H])C([H])([H])C3([H])C([H])([H])C4([H])C([H])([H])C([H])(C([H])([H])N([H])C(=O)N5C([H])([H])C([H])([H])C([H])([H])C([H])(n6nc(-c7c([H])c([H])c(Oc8c([H])c([H])c(F)c([H])c8F)c([H])c7[H])c(C(=O)N([H])[H])c6N([H])[H])C5([H])[H])C([H])([H])C34[H])c([H])c([H])c2C1([H])[H]

>  <smiles>  (92) 
[H]c1c([H])c([H])c2c(c1[H])C([H])([H])C([H])([H])C([H])([H])C2([H])N([H])C(=O)C1([H])N(C(=O)C([H])(N([H])C(=O)C([H])(N([H])C([H])([H])[H])C([H])([H])[H])C(C([H])([H])[H])(C([H])([H])[H])C([H])([H])[H])C([H])([H])c2c([H])c(OC([H])([H])C(=O)N([H])C([H])([H])C3([H])C([H])([H])C4([H])C([H])([H])C([H])(C([H])([H])N([H])C(=O)N5C([H])([H])C([H])([H])C([H])([H])C([H])(n6nc(-c7c([H])c([H])c(Oc8c([H])c([H])c(F)c([H])c8F)c([H])c7[H])c(C(=O)N([H])[H])c6N([H])[H])C5([H])[H])C([H])([H])C34[H])c([H])c([H])c2C1([H])[H]

$$$$
96:0:0
     RDKit          3D

 94102  0  0  1  0  0  0  0  0999 V2000
  -31.8470  -22.1460   19.7010 C   0  0  0  0  0  2  0  0  0  0  0  0
  -30.9590  -22.0720   18.4540 C   0  0  0  0  0  2  0  0  0  0  0  0
  -30.9170  -22.5220   20.8590 C   0  0  0  0  0  2  0  0  0  0  0  0
  -29.5430  -22.4470   18.9200 C   0  0  0  0  0  3  0  0  0  0  0  0
  -29.6790  -23.0790   20.2650 N   0  0  2  0  0  4  0  0  0  0  0  0
  -28.9080  -22.7710   20.8400 H   0  0  0  0  0  0  0  0  0  0  0  0
  -28.4630  -21.3290   18.8900 C   0  0  0  0  0  0  0  0  0  0  0  0
  -27.1040  -21.8860   18.5010 C   0  0  0  0  0  1  0  0  0  0  0  0
  -28.5240  -20.0690   19.1370 N   0  0  0  0  0  0  0  0  0  0  0  0
  -29.7030  -19.2900   19.5050 C   0  0  0  0  0  2  0  0  0  0  0  0
  -28.7360  -17.2470   18.2970 C   0  0  0  0  0  1  0  0  0  0  0  0
  -29.3260  -17.7820   19.6190 C   0  0  0  0  0  3  0  0  0  0  0  0
  -30.5400  -16.9210   20.0690 C   0  0  0  0  0  2  0  0  0  0  0  0
  -30.8120  -14.4430   20.0800 C   0  0  0  0  0  0  0  0  0  0  0  0
  -30.4380  -12.2920   18.9220 C   0  0  0  0  0  2  0  0  0  0  0  0
  -29.4090  -12.4400   17.7800 C   0  0  0  0  0  2  0  0  0  0  0  0
  -27.9570  -12.3320   18.2980 C   0  0  0  0  0  2  0  0  0  0  0  0
  -27.7070  -13.1680   19.5790 C   0  0  0  0  0  3  0  0  0  0  0  0
  -28.8260  -12.9060   20.6060 C   0  0  0  0  0  2  0  0  0  0  0  0
  -30.1030  -13.2770   19.9720 N   0  0  0  0  0  0  0  0  0  0  0  0
  -31.9050  -14.5660   19.5130 O   0  0  0  0  0  0  0  0  0  0  0  0
  -29.5690  -15.6230   21.8950 C   0  0  0  0  0  1  0  0  0  0  0  0
  -30.1760  -15.5600   20.5560 N   0  0  0  0  0  0  0  0  0  0  0  0
  -25.3760  -13.8340   20.4410 C   0  0  0  0  0  0  0  0  0  0  0  0
  -24.3080  -13.0830   20.8600 C   0  0  0  0  0  0  0  0  0  0  0  0
  -24.7250  -11.7210   20.7700 C   0  0  0  0  0  0  0  0  0  0  0  0
  -26.3770  -12.9270   20.1340 N   0  0  0  0  0  0  0  0  0  0  0  0
  -25.9910  -11.6500   20.3830 N   0  0  0  0  0  0  0  0  0  0  0  0
  -23.9770  -10.4730   20.9740 C   0  0  0  0  0  0  0  0  0  0  0  0
  -24.4220   -9.4880   21.8820 C   0  0  0  0  0  3  0  0  0  0  0  0
  -23.6800   -8.3040   22.0760 C   0  0  0  0  0  3  0  0  0  0  0  0
  -22.4790   -8.0960   21.3600 C   0  0  0  0  0  0  0  0  0  0  0  0
  -22.0510   -9.0680   20.4380 C   0  0  0  0  0  3  0  0  0  0  0  0
  -22.7930  -10.2430   20.2440 C   0  0  0  0  0  3  0  0  0  0  0  0
  -21.7070   -6.9630   21.4600 O   0  0  0  0  0  0  0  0  0  0  0  0
  -21.6580   -6.2270   22.6160 C   0  0  0  0  0  0  0  0  0  0  0  0
  -21.2630   -6.7970   23.8470 C   0  0  0  0  0  3  0  0  0  0  0  0
  -21.1640   -5.9890   24.9970 C   0  0  0  0  0  3  0  0  0  0  0  0
  -21.4450   -4.6110   24.9160 C   0  0  0  0  0  0  0  0  0  0  0  0
  -21.8310   -4.0410   23.6910 C   0  0  0  0  0  3  0  0  0  0  0  0
  -21.9340   -4.8470   22.5430 C   0  0  0  0  0  0  0  0  0  0  0  0
  -22.2870   -4.2890   21.3590 F   0  0  0  0  0  0  0  0  0  0  0  0
  -21.3400   -3.8320   26.0170 F   0  0  0  0  0  0  0  0  0  0  0  0
  -22.9440  -13.5930   21.2260 C   0  0  0  0  0  0  0  0  0  0  0  0
  -22.2470  -12.8990   22.1210 N   0  0  0  0  0  0  0  0  0  0  0  0
  -22.5030  -14.6370   20.7500 O   0  0  0  0  0  0  0  0  0  0  0  0
  -22.6090  -12.0530   22.5350 H   0  0  0  0  0  0  0  0  0  0  0  0
  -21.3280  -13.2210   22.3900 H   0  0  0  0  0  0  0  0  0  0  0  0
  -25.5760  -15.2020   20.2830 N   0  0  0  0  0  0  0  0  0  0  0  0
  -24.8500  -15.8890   20.4540 H   0  0  0  0  0  0  0  0  0  0  0  0
  -26.4400  -15.6110   19.9480 H   0  0  0  0  0  0  0  0  0  0  0  0
  -29.6890  -24.5850   20.2690 C   0  0  0  0  0  2  0  0  0  0  0  0
  -28.3250  -25.2640   19.9790 C   0  0  0  0  0  2  0  0  0  0  0  0
  -28.3940  -26.6880   20.2000 O   0  0  0  0  0  0  0  0  0  0  0  0
  -24.6030  -31.9060   23.2480 C   0  0  0  0  0  0  0  0  0  0  0  0
  -27.2120  -27.4120   20.1840 C   0  0  0  0  0  0  0  0  0  0  0  0
  -23.3830  -30.4990   21.6230 C   0  0  0  0  0  3  0  0  0  0  0  0
  -24.8200  -28.9460   20.1980 C   0  0  0  0  0  0  0  0  0  0  0  0
  -25.9090  -30.8440   21.4050 C   0  0  0  0  0  2  0  0  0  0  0  0
  -25.9860  -29.4660   20.7730 C   0  0  0  0  0  0  0  0  0  0  0  0
  -27.1830  -28.7100   20.7570 C   0  0  0  0  0  3  0  0  0  0  0  0
  -26.0190  -26.9070   19.6160 C   0  0  0  0  0  3  0  0  0  0  0  0
  -24.8330  -27.6640   19.6210 C   0  0  0  0  0  3  0  0  0  0  0  0
  -23.5820  -29.8160   20.2450 C   0  0  0  0  0  2  0  0  0  0  0  0
  -24.6520  -31.0970   22.1520 N   0  0  0  0  0  0  0  0  0  0  0  0
  -23.5260  -32.1870   23.7940 O   0  0  0  0  0  0  0  0  0  0  0  0
  -22.7350  -29.4840   22.5950 C   0  0  0  0  0  0  0  0  0  0  0  0
  -21.4090  -29.3090   22.4830 N   0  0  0  0  0  0  0  0  0  0  0  0
  -23.4230  -28.8590   23.4090 O   0  0  0  0  0  0  0  0  0  0  0  0
  -20.9110  -29.8650   21.8010 H   0  0  0  0  0  0  0  0  0  0  0  0
  -18.0330  -28.1430   23.0250 C   0  0  0  0  0  0  0  0  0  0  0  0
  -20.5960  -28.3810   23.2680 C   0  0  0  0  0  3  0  0  0  0  0  0
  -20.6800  -26.9470   22.6980 C   0  0  0  0  0  2  0  0  0  0  0  0
  -19.5650  -26.6290   21.6960 C   0  0  0  0  0  2  0  0  0  0  0  0
  -18.1910  -26.7910   22.3530 C   0  0  0  0  0  2  0  0  0  0  0  0
  -19.1630  -28.8980   23.4400 C   0  0  0  0  0  0  0  0  0  0  0  0
  -18.9600  -30.1660   24.0240 C   0  0  0  0  0  3  0  0  0  0  0  0
  -17.6630  -30.6820   24.1990 C   0  0  0  0  0  3  0  0  0  0  0  0
  -16.5480  -29.9240   23.8020 C   0  0  0  0  0  3  0  0  0  0  0  0
  -16.7330  -28.6560   23.2200 C   0  0  0  0  0  3  0  0  0  0  0  0
  -25.8980  -32.5390   23.8510 C   0  0  0  0  0  3  0  0  0  0  0  0
  -25.5970  -33.9360   24.1860 N   0  0  0  0  0  0  0  0  0  0  0  0
  -25.9080  -34.9860   23.4160 C   0  0  0  0  0  0  0  0  0  0  0  0
  -26.5530  -34.8790   22.3690 O   0  0  0  0  0  0  0  0  0  0  0  0
  -25.0340  -34.0930   25.0090 H   0  0  0  0  0  0  0  0  0  0  0  0
  -24.1650  -36.7660   23.0900 C   0  0  0  0  0  1  0  0  0  0  0  0
  -25.4250  -36.3750   23.8770 C   0  0  0  0  0  3  0  0  0  0  0  0
  -27.5760  -37.2710   24.6540 C   0  0  0  0  0  1  0  0  0  0  0  0
  -26.4530  -37.4320   23.7370 N   0  0  0  0  0  0  0  0  0  0  0  0
  -26.0460  -38.3520   23.8880 H   0  0  0  0  0  0  0  0  0  0  0  0
  -26.4310  -31.7660   25.1200 C   0  0  1  0  0  0  0  0  0  0  0  0
  -25.3550  -31.5270   26.2050 C   0  0  0  0  0  1  0  0  0  0  0  0
  -27.0130  -30.3930   24.7140 C   0  0  0  0  0  1  0  0  0  0  0  0
  -27.5890  -32.5610   25.7690 C   0  0  0  0  0  1  0  0  0  0  0  0
  1  3  1  0
  2  4  1  0
  2  1  1  0
  4  7  1  0
  4  5  1  0
  5 52  1  0
  5  6  1  1
  5  3  1  0
  7  9  2  0
  8  7  1  0
  9 10  1  0
 10 12  1  0
 12 11  1  0
 12 13  1  0
 13 23  1  0
 14 23  1  0
 15 20  1  0
 16 17  1  0
 16 15  1  0
 18 17  1  0
 18 27  1  0
 18 19  1  0
 20 14  1  0
 20 19  1  0
 21 14  2  0
 23 22  1  0
 24 25  2  0
 25 44  1  0
 26 25  1  0
 26 29  1  0
 27 28  1  0
 27 24  1  0
 28 26  2  0
 29 30  1  0
 30 31  2  0
 32 35  1  0
 32 31  1  0
 33 32  2  0
 34 33  1  0
 34 29  2  0
 35 36  1  0
 36 37  1  0
 37 38  2  0
 39 38  1  0
 39 43  1  0
 40 39  2  0
 41 36  2  0
 41 40  1  0
 42 41  1  0
 44 45  1  0
 45 48  1  0
 45 47  1  0
 46 44  2  0
 49 24  1  0
 49 50  1  0
 51 49  1  0
 53 54  1  0
 53 52  1  0
 55 66  2  0
 56 54  1  0
 56 61  1  0
 57 65  1  0
 57 67  1  0
 58 64  1  0
 58 60  1  0
 59 65  1  0
 60 59  1  0
 61 60  2  0
 62 63  1  0
 62 56  2  0
 63 58  2  0
 64 57  1  0
 65 55  1  0
 67 69  2  0
 68 67  1  0
 70 68  1  0
 71 80  2  0
 71 76  1  0
 72 68  1  0
 72 76  1  0
 73 72  1  0
 74 75  1  0
 74 73  1  0
 75 71  1  0
 76 77  2  0
 77 78  1  0
 79 78  2  0
 80 79  1  0
 81 55  1  0
 81 82  1  0
 81 91  1  0
 82 85  1  0
 83 87  1  0
 83 82  1  0
 84 83  2  0
 87 86  1  0
 89 87  1  0
 89 90  1  0
 89 88  1  0
 91 94  1  1
 91 92  1  0
 93 91  1  0
M  ISO  4  14 100  23 100  53 101  54 101
M  END
>  <TORSDO>  (93) 
F 22

>  <SCORE>  (93) 
-12.448

>  <name>  (93) 
96

>  <ligand_id>  (93) 
96

>  <original_smiles>  (93) 
[H]c1c([H])c([H])c2c(c1[H])C([H])([H])C([H])([H])C([H])([H])C2([H])N([H])C(=O)C1([H])N(C(=O)C([H])(N([H])C(=O)C([H])(N([H])C([H])([H])[H])C([H])([H])[H])C(C([H])([H])[H])(C([H])([H])[H])C([H])([H])[H])C([H])([H])c2c([H])c(OC([H])([H])C([H])([H])[N+]3([H])C([H])([H])C([H])([H])C([H])([H])C3([H])C(=NC([H])([H])C([H])(C([H])([H])[H])C([H])([H])N(C(=O)N3C([H])([H])C([H])([H])C([H])([H])C([H])(n4nc(-c5c([H])c([H])c(Oc6c([H])c([H])c(F)c([H])c6F)c([H])c5[H])c(C(=O)N([H])[H])c4N([H])[H])C3([H])[H])C([H])([H])[H])C([H])([H])[H])c([H])c([H])c2C1([H])[H]

>  <smiles>  (93) 
[H]c1c([H])c([H])c2c(c1[H])C([H])([H])C([H])([H])C([H])([H])C2([H])N([H])C(=O)C1([H])N(C(=O)C([H])(N([H])C(=O)C([H])(N([H])C([H])([H])[H])C([H])([H])[H])C(C([H])([H])[H])(C([H])([H])[H])C([H])([H])[H])C([H])([H])c2c([H])c(OC([H])([H])C([H])([H])[N+]3([H])C([H])([H])C([H])([H])C([H])([H])C3([H])C(=NC([H])([H])C([H])(C([H])([H])[H])C([H])([H])N(C(=O)N3C([H])([H])C([H])([H])C([H])([H])C([H])(n4nc(-c5c([H])c([H])c(Oc6c([H])c([H])c(F)c([H])c6F)c([H])c5[H])c(C(=O)N([H])[H])c4N([H])[H])C3([H])[H])C([H])([H])[H])C([H])([H])[H])c([H])c([H])c2C1([H])[H]

$$$$
97:0:0
     RDKit          3D

 90 98  0  0  1  0  0  0  0  0999 V2000
  -28.0270  -22.5490   21.2200 C   0  0  0  0  0  3  0  0  0  0  0  0
  -28.2840  -21.1310   21.2890 C   0  0  0  0  0  3  0  0  0  0  0  0
  -29.5470  -22.7300   19.4200 C   0  0  0  0  0  3  0  0  0  0  0  0
  -28.6000  -23.4230   20.2450 C   0  0  0  0  0  0  0  0  0  0  0  0
  -29.1460  -20.4080   20.4020 C   0  0  0  0  0  0  0  0  0  0  0  0
  -29.8220  -21.3010   19.4930 C   0  0  0  0  0  0  0  0  0  0  0  0
  -30.8160  -20.7450   18.4900 C   0  0  0  0  0  1  0  0  0  0  0  0
  -28.2060  -18.4270   19.0730 C   0  0  0  0  0  1  0  0  0  0  0  0
  -29.0350  -18.7710   20.3200 C   0  0  0  0  0  3  0  0  0  0  0  0
  -30.2180  -17.6260   20.4910 C   0  0  0  0  0  2  0  0  0  0  0  0
  -30.6100  -14.9450   20.3300 C   0  0  0  0  0  0  0  0  0  0  0  0
  -30.4460  -12.6200   19.3750 C   0  0  0  0  0  2  0  0  0  0  0  0
  -29.5120  -12.6130   18.1420 C   0  0  0  0  0  2  0  0  0  0  0  0
  -28.0450  -12.4140   18.5730 C   0  0  0  0  0  2  0  0  0  0  0  0
  -27.6450  -13.3430   19.7510 C   0  0  0  0  0  3  0  0  0  0  0  0
  -28.7000  -13.3330   20.8800 C   0  0  0  0  0  2  0  0  0  0  0  0
  -29.9890  -13.7070   20.2810 N   0  0  0  0  0  0  0  0  0  0  0  0
  -31.7990  -15.0240   20.0120 O   0  0  0  0  0  0  0  0  0  0  0  0
  -29.8500  -16.1060   20.5370 N   0  0  0  0  0  0  0  0  0  0  0  0
  -28.8800  -15.9190   20.7370 H   0  0  0  0  0  0  0  0  0  0  0  0
  -25.2660  -13.9290   20.4990 C   0  0  0  0  0  0  0  0  0  0  0  0
  -24.2000  -13.1530   20.8680 C   0  0  0  0  0  0  0  0  0  0  0  0
  -24.6620  -11.8010   20.8260 C   0  0  0  0  0  0  0  0  0  0  0  0
  -26.3060  -13.0490   20.2490 N   0  0  0  0  0  0  0  0  0  0  0  0
  -25.9530  -11.7640   20.5130 N   0  0  0  0  0  0  0  0  0  0  0  0
  -23.9340  -10.5390   21.0080 C   0  0  0  0  0  0  0  0  0  0  0  0
  -24.3510   -9.5760   21.9530 C   0  0  0  0  0  3  0  0  0  0  0  0
  -23.6220   -8.3790   22.1240 C   0  0  0  0  0  3  0  0  0  0  0  0
  -22.4620   -8.1360   21.3520 C   0  0  0  0  0  0  0  0  0  0  0  0
  -22.0640   -9.0880   20.3960 C   0  0  0  0  0  3  0  0  0  0  0  0
  -22.7930  -10.2760   20.2220 C   0  0  0  0  0  3  0  0  0  0  0  0
  -21.7050   -6.9920   21.4320 O   0  0  0  0  0  0  0  0  0  0  0  0
  -21.6150   -6.2680   22.5960 C   0  0  0  0  0  0  0  0  0  0  0  0
  -21.1070   -6.8340   23.7860 C   0  0  0  0  0  3  0  0  0  0  0  0
  -20.9660   -6.0360   24.9380 C   0  0  0  0  0  3  0  0  0  0  0  0
  -21.3210   -4.6740   24.9030 C   0  0  0  0  0  0  0  0  0  0  0  0
  -21.8210   -4.1100   23.7170 C   0  0  0  0  0  3  0  0  0  0  0  0
  -21.9650   -4.9050   22.5660 C   0  0  0  0  0  0  0  0  0  0  0  0
  -22.4290   -4.3480   21.4200 F   0  0  0  0  0  0  0  0  0  0  0  0
  -21.1760   -3.9070   26.0080 F   0  0  0  0  0  0  0  0  0  0  0  0
  -22.8040  -13.6310   21.1410 C   0  0  0  0  0  0  0  0  0  0  0  0
  -22.0760  -12.9300   22.0030 N   0  0  0  0  0  0  0  0  0  0  0  0
  -22.3680  -14.6590   20.6250 O   0  0  0  0  0  0  0  0  0  0  0  0
  -22.4420  -12.1010   22.4440 H   0  0  0  0  0  0  0  0  0  0  0  0
  -21.1370  -13.2300   22.2260 H   0  0  0  0  0  0  0  0  0  0  0  0
  -25.4310  -15.3010   20.3310 N   0  0  0  0  0  0  0  0  0  0  0  0
  -24.6620  -15.9530   20.4430 H   0  0  0  0  0  0  0  0  0  0  0  0
  -26.2670  -15.7370   19.9670 H   0  0  0  0  0  0  0  0  0  0  0  0
  -27.8970  -24.8430   19.8640 C   0  0  0  0  0  2  0  0  0  0  0  0
  -28.2430  -26.2880   20.2500 O   0  0  0  0  0  0  0  0  0  0  0  0
  -24.6310  -31.9300   23.2280 C   0  0  0  0  0  0  0  0  0  0  0  0
  -27.2000  -27.2760   20.1510 C   0  0  0  0  0  0  0  0  0  0  0  0
  -23.4220  -30.5400   21.5930 C   0  0  0  0  0  3  0  0  0  0  0  0
  -24.8630  -28.9940   20.1450 C   0  0  0  0  0  0  0  0  0  0  0  0
  -25.9730  -30.8230   21.4090 C   0  0  0  0  0  2  0  0  0  0  0  0
  -26.0450  -29.4410   20.7510 C   0  0  0  0  0  0  0  0  0  0  0  0
  -27.2130  -28.5940   20.7470 C   0  0  0  0  0  3  0  0  0  0  0  0
  -25.9970  -26.9410   19.4800 C   0  0  0  0  0  3  0  0  0  0  0  0
  -24.8510  -27.7560   19.4930 C   0  0  0  0  0  3  0  0  0  0  0  0
  -23.6320  -29.8790   20.2080 C   0  0  0  0  0  2  0  0  0  0  0  0
  -24.6950  -31.1170   22.1320 N   0  0  0  0  0  0  0  0  0  0  0  0
  -23.5470  -32.2070   23.7650 O   0  0  0  0  0  0  0  0  0  0  0  0
  -22.7570  -29.5200   22.5510 C   0  0  0  0  0  0  0  0  0  0  0  0
  -21.4310  -29.3350   22.4230 N   0  0  0  0  0  0  0  0  0  0  0  0
  -23.4350  -28.9020   23.3750 O   0  0  0  0  0  0  0  0  0  0  0  0
  -20.9400  -29.8860   21.7340 H   0  0  0  0  0  0  0  0  0  0  0  0
  -18.0580  -28.1160   22.9340 C   0  0  0  0  0  0  0  0  0  0  0  0
  -20.6170  -28.3920   23.1960 C   0  0  0  0  0  3  0  0  0  0  0  0
  -20.7250  -26.9610   22.6200 C   0  0  0  0  0  2  0  0  0  0  0  0
  -19.6210  -26.6340   21.6090 C   0  0  0  0  0  2  0  0  0  0  0  0
  -18.2410  -26.7690   22.2560 C   0  0  0  0  0  2  0  0  0  0  0  0
  -19.1730  -28.8840   23.3630 C   0  0  0  0  0  0  0  0  0  0  0  0
  -18.9460  -30.1440   23.9590 C   0  0  0  0  0  3  0  0  0  0  0  0
  -17.6390  -30.6360   24.1280 C   0  0  0  0  0  3  0  0  0  0  0  0
  -16.5390  -29.8650   23.7170 C   0  0  0  0  0  3  0  0  0  0  0  0
  -16.7490  -28.6060   23.1260 C   0  0  0  0  0  3  0  0  0  0  0  0
  -25.9120  -32.5650   23.8460 C   0  0  0  0  0  3  0  0  0  0  0  0
  -26.4340  -31.7910   25.1190 C   0  0  1  0  0  0  0  0  0  0  0  0
  -25.3440  -31.5440   26.1870 C   0  0  0  0  0  1  0  0  0  0  0  0
  -27.0240  -30.4170   24.7240 C   0  0  0  0  0  1  0  0  0  0  0  0
  -27.5830  -32.5890   25.7800 C   0  0  0  0  0  1  0  0  0  0  0  0
  -25.5990  -33.9610   24.1860 N   0  0  0  0  0  0  0  0  0  0  0  0
  -25.9120  -35.0200   23.4280 C   0  0  0  0  0  0  0  0  0  0  0  0
  -26.5610  -34.9230   22.3810 O   0  0  0  0  0  0  0  0  0  0  0  0
  -25.0250  -34.1090   25.0020 H   0  0  0  0  0  0  0  0  0  0  0  0
  -24.1690  -36.8070   23.1170 C   0  0  0  0  0  1  0  0  0  0  0  0
  -25.4280  -36.4050   23.9000 C   0  0  0  0  0  3  0  0  0  0  0  0
  -27.5710  -37.2990   24.7010 C   0  0  0  0  0  1  0  0  0  0  0  0
  -26.4560  -37.4620   23.7730 N   0  0  0  0  0  0  0  0  0  0  0  0
  -26.0480  -38.3810   23.9240 H   0  0  0  0  0  0  0  0  0  0  0  0
  1  2  1  0
  3  6  2  0
  3  4  1  0
  4  1  2  0
  5  2  2  0
  6  5  1  0
  7  6  1  0
  9  8  1  0
  9  5  1  0
  9 10  1  0
 10 19  1  0
 11 19  1  0
 12 17  1  0
 13 14  1  0
 13 12  1  0
 15 14  1  0
 15 24  1  0
 15 16  1  0
 17 11  1  0
 17 16  1  0
 18 11  2  0
 19 20  1  0
 21 22  2  0
 22 41  1  0
 23 22  1  0
 23 26  1  0
 24 21  1  0
 24 25  1  0
 25 23  2  0
 26 27  1  0
 27 28  2  0
 29 32  1  0
 29 28  1  0
 30 29  2  0
 31 30  1  0
 31 26  2  0
 32 33  1  0
 33 34  1  0
 34 35  2  0
 36 35  1  0
 36 40  1  0
 37 36  2  0
 38 33  2  0
 38 37  1  0
 39 38  1  0
 41 42  1  0
 42 45  1  0
 42 44  1  0
 43 41  2  0
 46 47  1  0
 46 21  1  0
 48 46  1  0
 49  4  1  0
 49 50  1  0
 51 62  2  0
 52 50  1  0
 52 57  1  0
 53 61  1  0
 53 63  1  0
 54 60  1  0
 54 56  1  0
 55 61  1  0
 56 55  1  0
 57 56  2  0
 58 59  1  0
 58 52  2  0
 59 54  2  0
 60 53  1  0
 61 51  1  0
 63 65  2  0
 64 63  1  0
 66 64  1  0
 67 76  2  0
 67 72  1  0
 68 64  1  0
 68 72  1  0
 69 68  1  0
 70 71  1  0
 70 69  1  0
 71 67  1  0
 72 73  2  0
 73 74  1  0
 75 74  2  0
 76 75  1  0
 77 51  1  0
 77 82  1  0
 77 78  1  0
 78 81  1  1
 78 79  1  0
 80 78  1  0
 82 85  1  0
 83 87  1  0
 83 82  1  0
 84 83  2  0
 87 86  1  0
 89 87  1  0
 89 90  1  0
 89 88  1  0
M  ISO  4  11 100  19 100  49 101  50 101
M  END
>  <TORSDO>  (94) 
F 19

>  <SCORE>  (94) 
-14.320

>  <name>  (94) 
97

>  <ligand_id>  (94) 
97

>  <original_smiles>  (94) 
[H]c1c([H])c([H])c2c(c1[H])C([H])([H])C([H])([H])C([H])([H])C2([H])N([H])C(=O)C1([H])N(C(=O)C([H])(N([H])C(=O)C([H])(N([H])C([H])([H])[H])C([H])([H])[H])C(C([H])([H])[H])(C([H])([H])[H])C([H])([H])[H])C([H])([H])c2c([H])c(OC([H])([H])c3c([H])c([H])c(C([H])(C([H])([H])[H])C([H])([H])N([H])C(=O)N4C([H])([H])C([H])([H])C([H])([H])C([H])(n5nc(-c6c([H])c([H])c(Oc7c([H])c([H])c(F)c([H])c7F)c([H])c6[H])c(C(=O)N([H])[H])c5N([H])[H])C4([H])[H])c(C([H])([H])[H])c3[H])c([H])c([H])c2C1([H])[H]

>  <smiles>  (94) 
[H]c1c([H])c([H])c2c(c1[H])C([H])([H])C([H])([H])C([H])([H])C2([H])N([H])C(=O)C1([H])N(C(=O)C([H])(N([H])C(=O)C([H])(N([H])C([H])([H])[H])C([H])([H])[H])C(C([H])([H])[H])(C([H])([H])[H])C([H])([H])[H])C([H])([H])c2c([H])c(OC([H])([H])c3c([H])c([H])c(C([H])(C([H])([H])[H])C([H])([H])N([H])C(=O)N4C([H])([H])C([H])([H])C([H])([H])C([H])(n5nc(-c6c([H])c([H])c(Oc7c([H])c([H])c(F)c([H])c7F)c([H])c6[H])c(C(=O)N([H])[H])c5N([H])[H])C4([H])[H])c(C([H])([H])[H])c3[H])c([H])c([H])c2C1([H])[H]

$$$$
98:0:0
     RDKit          3D

 88 95  0  0  1  0  0  0  0  0999 V2000
  -29.0430  -22.4530   20.2050 C   0  0  0  0  0  2  0  0  0  0  0  0
  -28.6900  -23.9440   20.7490 C   0  0  0  0  0  3  0  0  0  0  0  0
  -28.4640  -25.1310   19.7090 C   0  0  0  0  0  3  0  0  0  0  0  0
  -28.3800  -26.5250   20.2140 O   0  0  0  0  0  0  0  0  0  0  0  0
  -24.6240  -31.8750   23.2400 C   0  0  0  0  0  0  0  0  0  0  0  0
  -27.2210  -27.3190   20.1600 C   0  0  0  0  0  0  0  0  0  0  0  0
  -23.4080  -30.4790   21.6050 C   0  0  0  0  0  3  0  0  0  0  0  0
  -24.8480  -28.9280   20.1710 C   0  0  0  0  0  0  0  0  0  0  0  0
  -25.9450  -30.7980   21.4060 C   0  0  0  0  0  2  0  0  0  0  0  0
  -26.0190  -29.4190   20.7590 C   0  0  0  0  0  0  0  0  0  0  0  0
  -27.2040  -28.6250   20.7440 C   0  0  0  0  0  3  0  0  0  0  0  0
  -26.0200  -26.8760   19.5610 C   0  0  0  0  0  3  0  0  0  0  0  0
  -24.8510  -27.6620   19.5650 C   0  0  0  0  0  3  0  0  0  0  0  0
  -23.6120  -29.8020   20.2250 C   0  0  0  0  0  2  0  0  0  0  0  0
  -24.6780  -31.0680   22.1390 N   0  0  0  0  0  0  0  0  0  0  0  0
  -23.5440  -32.1520   23.7820 O   0  0  0  0  0  0  0  0  0  0  0  0
  -22.7520  -29.4610   22.5700 C   0  0  0  0  0  0  0  0  0  0  0  0
  -21.4260  -29.2820   22.4480 N   0  0  0  0  0  0  0  0  0  0  0  0
  -23.4360  -28.8360   23.3850 O   0  0  0  0  0  0  0  0  0  0  0  0
  -20.9350  -29.8360   21.7610 H   0  0  0  0  0  0  0  0  0  0  0  0
  -18.0530  -28.0810   22.9610 C   0  0  0  0  0  0  0  0  0  0  0  0
  -20.6110  -28.3440   23.2220 C   0  0  0  0  0  3  0  0  0  0  0  0
  -20.7140  -26.9120   22.6480 C   0  0  0  0  0  2  0  0  0  0  0  0
  -19.6080  -26.5850   21.6390 C   0  0  0  0  0  2  0  0  0  0  0  0
  -18.2290  -26.7290   22.2900 C   0  0  0  0  0  2  0  0  0  0  0  0
  -19.1720  -28.8460   23.3850 C   0  0  0  0  0  0  0  0  0  0  0  0
  -18.9530  -30.1100   23.9750 C   0  0  0  0  0  3  0  0  0  0  0  0
  -17.6480  -30.6090   24.1440 C   0  0  0  0  0  3  0  0  0  0  0  0
  -16.5440  -29.8420   23.7340 C   0  0  0  0  0  3  0  0  0  0  0  0
  -16.7470  -28.5800   23.1480 C   0  0  0  0  0  3  0  0  0  0  0  0
  -25.9100  -32.5070   23.8550 C   0  0  0  0  0  3  0  0  0  0  0  0
  -26.4320  -31.7370   25.1300 C   0  0  1  0  0  0  0  0  0  0  0  0
  -25.3430  -31.5030   26.2030 C   0  0  0  0  0  1  0  0  0  0  0  0
  -27.0100  -30.3570   24.7360 C   0  0  0  0  0  1  0  0  0  0  0  0
  -27.5870  -32.5290   25.7840 C   0  0  0  0  0  1  0  0  0  0  0  0
  -25.6040  -33.9050   24.1860 N   0  0  0  0  0  0  0  0  0  0  0  0
  -25.9340  -34.9590   23.4270 C   0  0  0  0  0  0  0  0  0  0  0  0
  -26.5980  -34.8550   22.3920 O   0  0  0  0  0  0  0  0  0  0  0  0
  -25.0110  -34.0600   24.9890 H   0  0  0  0  0  0  0  0  0  0  0  0
  -24.2070  -36.7560   23.0810 C   0  0  0  0  0  1  0  0  0  0  0  0
  -25.4510  -36.3480   23.8880 C   0  0  0  0  0  3  0  0  0  0  0  0
  -27.5900  -37.2290   24.7110 C   0  0  0  0  0  1  0  0  0  0  0  0
  -26.4840  -37.4000   23.7720 N   0  0  0  0  0  0  0  0  0  0  0  0
  -26.0810  -38.3210   23.9200 H   0  0  0  0  0  0  0  0  0  0  0  0
  -28.5340  -20.9700   20.6210 C   0  0  0  0  0  2  0  0  0  0  0  0
  -29.4930  -19.7910   20.5000 N   0  0  0  0  0  4  0  0  0  0  0  0
  -28.9640  -19.6540   19.6530 H   0  0  0  0  0  0  0  0  0  0  0  0
  -29.2750  -19.7420   21.4830 H   0  0  0  0  0  0  0  0  0  0  0  0
  -29.1080  -18.3240   20.6590 C   0  0  0  0  0  3  0  0  0  0  0  0
  -30.2500  -17.2150   20.5120 C   0  0  0  0  0  3  0  0  0  0  0  0
  -30.6050  -14.6570   20.3620 C   0  0  0  0  0  0  0  0  0  0  0  0
  -30.3570  -12.4250   19.2970 C   0  0  0  0  0  2  0  0  0  0  0  0
  -29.4070  -12.5570   18.0870 C   0  0  0  0  0  2  0  0  0  0  0  0
  -27.9390  -12.3980   18.5320 C   0  0  0  0  0  2  0  0  0  0  0  0
  -27.5920  -13.2610   19.7740 C   0  0  0  0  0  3  0  0  0  0  0  0
  -28.6590  -13.1180   20.8810 C   0  0  0  0  0  2  0  0  0  0  0  0
  -29.9610  -13.4490   20.2850 N   0  0  0  0  0  0  0  0  0  0  0  0
  -31.7710  -14.7820   19.9820 O   0  0  0  0  0  0  0  0  0  0  0  0
  -29.8500  -15.7630   20.6580 N   0  0  0  0  0  0  0  0  0  0  0  0
  -28.8970  -15.5770   20.9360 H   0  0  0  0  0  0  0  0  0  0  0  0
  -25.2050  -13.8560   20.5120 C   0  0  0  0  0  0  0  0  0  0  0  0
  -24.1420  -13.0820   20.8900 C   0  0  0  0  0  0  0  0  0  0  0  0
  -24.6050  -11.7320   20.8570 C   0  0  0  0  0  0  0  0  0  0  0  0
  -26.2470  -12.9770   20.2700 N   0  0  0  0  0  0  0  0  0  0  0  0
  -25.8930  -11.6940   20.5390 N   0  0  0  0  0  0  0  0  0  0  0  0
  -23.8810  -10.4680   21.0510 C   0  0  0  0  0  0  0  0  0  0  0  0
  -24.3250   -9.4970   21.9770 C   0  0  0  0  0  3  0  0  0  0  0  0
  -23.6020   -8.3000   22.1600 C   0  0  0  0  0  3  0  0  0  0  0  0
  -22.4200   -8.0640   21.4180 C   0  0  0  0  0  0  0  0  0  0  0  0
  -21.9940   -9.0230   20.4820 C   0  0  0  0  0  3  0  0  0  0  0  0
  -22.7190  -10.2130   20.2970 C   0  0  0  0  0  3  0  0  0  0  0  0
  -21.6660   -6.9180   21.5120 O   0  0  0  0  0  0  0  0  0  0  0  0
  -21.6380   -6.1670   22.6590 C   0  0  0  0  0  0  0  0  0  0  0  0
  -21.2360   -6.7110   23.8990 C   0  0  0  0  0  3  0  0  0  0  0  0
  -21.1550   -5.8860   25.0370 C   0  0  0  0  0  3  0  0  0  0  0  0
  -21.4670   -4.5170   24.9390 C   0  0  0  0  0  0  0  0  0  0  0  0
  -21.8640   -3.9720   23.7050 C   0  0  0  0  0  3  0  0  0  0  0  0
  -21.9470   -4.7940   22.5680 C   0  0  0  0  0  0  0  0  0  0  0  0
  -22.3080   -4.2600   21.3770 F   0  0  0  0  0  0  0  0  0  0  0  0
  -21.3830   -3.7220   26.0320 F   0  0  0  0  0  0  0  0  0  0  0  0
  -22.7450  -13.5580   21.1710 C   0  0  0  0  0  0  0  0  0  0  0  0
  -22.0230  -12.8600   22.0410 N   0  0  0  0  0  0  0  0  0  0  0  0
  -22.3030  -14.5830   20.6540 O   0  0  0  0  0  0  0  0  0  0  0  0
  -22.3940  -12.0310   22.4800 H   0  0  0  0  0  0  0  0  0  0  0  0
  -21.0860  -13.1600   22.2700 H   0  0  0  0  0  0  0  0  0  0  0  0
  -25.3650  -15.2280   20.3310 N   0  0  0  0  0  0  0  0  0  0  0  0
  -24.5880  -15.8730   20.4270 H   0  0  0  0  0  0  0  0  0  0  0  0
  -26.1910  -15.6590   19.9380 H   0  0  0  0  0  0  0  0  0  0  0  0
  1 45  1  0
  1  2  1  0
  3  4  1  0
  3  2  2  0
  5 16  2  0
  6  4  1  0
  6 11  1  0
  7 15  1  0
  7 17  1  0
  8 14  1  0
  8 10  1  0
  9 15  1  0
 10  9  1  0
 11 10  2  0
 12 13  1  0
 12  6  2  0
 13  8  2  0
 14  7  1  0
 15  5  1  0
 17 19  2  0
 18 17  1  0
 20 18  1  0
 21 30  2  0
 21 26  1  0
 22 18  1  0
 22 26  1  0
 23 22  1  0
 24 25  1  0
 24 23  1  0
 25 21  1  0
 26 27  2  0
 27 28  1  0
 29 28  2  0
 30 29  1  0
 31  5  1  0
 31 36  1  0
 31 32  1  0
 32 35  1  1
 32 33  1  0
 34 32  1  0
 36 39  1  0
 37 41  1  0
 37 36  1  0
 38 37  2  0
 41 40  1  0
 43 41  1  0
 43 44  1  0
 43 42  1  0
 46 45  1  0
 46 49  1  0
 46 48  1  0
 47 46  1  0
 50 59  1  0
 50 49  2  0
 51 59  1  0
 52 57  1  0
 53 54  1  0
 53 52  1  0
 55 54  1  0
 55 64  1  0
 55 56  1  0
 57 51  1  0
 57 56  1  0
 58 51  2  0
 59 60  1  0
 61 62  2  0
 62 81  1  0
 63 62  1  0
 63 66  1  0
 64 61  1  0
 64 65  1  0
 65 63  2  0
 66 67  1  0
 67 68  2  0
 69 72  1  0
 69 68  1  0
 70 69  2  0
 71 70  1  0
 71 66  2  0
 72 73  1  0
 73 74  1  0
 74 75  2  0
 76 75  1  0
 76 80  1  0
 77 76  2  0
 78 73  2  0
 78 77  1  0
 79 78  1  0
 81 82  1  0
 82 85  1  0
 82 84  1  0
 83 81  2  0
 86 87  1  0
 86 61  1  0
 88 86  1  0
M  ISO  4   3 101   4 101  51 100  59 100
M  END
>  <TORSDO>  (95) 
F 22

>  <SCORE>  (95) 
-12.897

>  <name>  (95) 
98

>  <ligand_id>  (95) 
98

>  <original_smiles>  (95) 
[H]c1c([H])c([H])c2c(c1[H])C([H])([H])C([H])([H])C([H])([H])C2([H])N([H])C(=O)C1([H])N(C(=O)C([H])(N([H])C(=O)C([H])(N([H])C([H])([H])[H])C([H])([H])[H])C(C([H])([H])[H])(C([H])([H])[H])C([H])([H])[H])C([H])([H])c2c([H])c(OC([H])([H])C([H])([H])C([H])([H])C([H])([H])[N+]([H])([H])C([H])([H])C([H])([H])N([H])C(=O)N3C([H])([H])C([H])([H])C([H])([H])C([H])(n4nc(-c5c([H])c([H])c(Oc6c([H])c([H])c(F)c([H])c6F)c([H])c5[H])c(C(=O)N([H])[H])c4N([H])[H])C3([H])[H])c([H])c([H])c2C1([H])[H]

>  <smiles>  (95) 
[H]c1c([H])c([H])c2c(c1[H])C([H])([H])C([H])([H])C([H])([H])C2([H])N([H])C(=O)C1([H])N(C(=O)C([H])(N([H])C(=O)C([H])(N([H])C([H])([H])[H])C([H])([H])[H])C(C([H])([H])[H])(C([H])([H])[H])C([H])([H])[H])C([H])([H])c2c([H])c(OC([H])([H])C([H])([H])C([H])([H])C([H])([H])[N+]([H])([H])C([H])([H])C([H])([H])N([H])C(=O)N3C([H])([H])C([H])([H])C([H])([H])C([H])(n4nc(-c5c([H])c([H])c(Oc6c([H])c([H])c(F)c([H])c6F)c([H])c5[H])c(C(=O)N([H])[H])c4N([H])[H])C3([H])[H])c([H])c([H])c2C1([H])[H]

$$$$
