0:0:0
     RDKit          3D

 99107  0  0  1  0  0  0  0  0999 V2000
  -31.0930  -19.0030   19.0810 C   0  0  0  0  0  0  0  0  0  0  0  0
  -31.0680  -20.0560   19.9330 N   0  0  0  0  0  0  0  0  0  0  0  0
  -30.9370  -19.1160   17.8610 O   0  0  0  0  0  0  0  0  0  0  0  0
  -31.2720  -19.8600   20.9050 H   0  0  0  0  0  0  0  0  0  0  0  0
  -31.2620  -17.5970   19.7720 C   0  0  0  0  0  0  0  0  0  0  0  0
  -32.3210  -17.2700   20.3180 O   0  0  0  0  0  0  0  0  0  0  0  0
  -30.4890  -15.0090   21.6860 C   0  0  0  0  0  0  0  0  0  0  0  0
  -30.8230  -12.5740   22.1150 C   0  0  0  0  0  2  0  0  0  0  0  0
  -30.5230  -11.7750   20.8210 C   0  0  0  0  0  2  0  0  0  0  0  0
  -29.0110  -11.5350   20.5960 C   0  0  0  0  0  2  0  0  0  0  0  0
  -28.1570  -12.8040   20.8730 C   0  0  0  0  0  3  0  0  0  0  0  0
  -28.5920  -13.3590   22.2530 C   0  0  0  0  0  2  0  0  0  0  0  0
  -29.9870  -13.7950   22.1070 N   0  0  0  0  0  0  0  0  0  0  0  0
  -31.7160  -15.1580   21.6250 O   0  0  0  0  0  0  0  0  0  0  0  0
  -28.7960  -17.8300   19.7870 C   0  0  0  0  0  2  0  0  0  0  0  0
  -28.2340  -16.2380   21.4520 C   0  0  0  0  0  2  0  0  0  0  0  0
  -29.9330  -16.7870   19.8700 C   0  0  0  0  0  3  0  0  0  0  0  0
  -27.6120  -17.1190   20.3650 C   0  0  0  0  0  3  0  0  0  0  0  0
  -29.6300  -15.9030   21.0580 N   0  0  0  0  0  0  0  0  0  0  0  0
  -25.6780  -13.3730   20.4440 C   0  0  0  0  0  0  0  0  0  0  0  0
  -24.5430  -12.6070   20.4830 C   0  0  0  0  0  0  0  0  0  0  0  0
  -24.9740  -11.2940   20.8440 C   0  0  0  0  0  0  0  0  0  0  0  0
  -26.7220  -12.5290   20.7980 N   0  0  0  0  0  0  0  0  0  0  0  0
  -26.2800  -11.2800   21.0750 N   0  0  0  0  0  0  0  0  0  0  0  0
  -24.2280  -10.0320   20.9280 C   0  0  0  0  0  0  0  0  0  0  0  0
  -24.3650   -9.1710   22.0400 C   0  0  0  0  0  3  0  0  0  0  0  0
  -23.6230   -7.9710   22.1090 C   0  0  0  0  0  3  0  0  0  0  0  0
  -22.7360   -7.6230   21.0620 C   0  0  0  0  0  0  0  0  0  0  0  0
  -22.6190   -8.4750   19.9480 C   0  0  0  0  0  3  0  0  0  0  0  0
  -23.3630   -9.6660   19.8790 C   0  0  0  0  0  3  0  0  0  0  0  0
  -22.0010   -6.4640   21.0270 O   0  0  0  0  0  0  0  0  0  0  0  0
  -21.5240   -5.8810   22.1740 C   0  0  0  0  0  0  0  0  0  0  0  0
  -20.7310   -6.5940   23.0970 C   0  0  0  0  0  3  0  0  0  0  0  0
  -20.2050   -5.9390   24.2280 C   0  0  0  0  0  3  0  0  0  0  0  0
  -20.4640   -4.5720   24.4360 C   0  0  0  0  0  0  0  0  0  0  0  0
  -21.2540   -3.8570   23.5140 C   0  0  0  0  0  3  0  0  0  0  0  0
  -21.7800   -4.5110   22.3880 C   0  0  0  0  0  0  0  0  0  0  0  0
  -22.5230   -3.8140   21.4930 F   0  0  0  0  0  0  0  0  0  0  0  0
  -19.9520   -3.9410   25.5160 F   0  0  0  0  0  0  0  0  0  0  0  0
  -23.1550  -13.0390   20.1020 C   0  0  0  0  0  0  0  0  0  0  0  0
  -22.1350  -12.4350   20.6970 N   0  0  0  0  0  0  0  0  0  0  0  0
  -22.9670  -13.9610   19.3070 O   0  0  0  0  0  0  0  0  0  0  0  0
  -22.2760  -11.6930   21.3680 H   0  0  0  0  0  0  0  0  0  0  0  0
  -21.1920  -12.7250   20.4860 H   0  0  0  0  0  0  0  0  0  0  0  0
  -25.9080  -14.7040   20.1190 N   0  0  0  0  0  0  0  0  0  0  0  0
  -25.1580  -15.2040   19.6520 H   0  0  0  0  0  0  0  0  0  0  0  0
  -26.8200  -14.9630   19.7660 H   0  0  0  0  0  0  0  0  0  0  0  0
  -26.0200  -18.9120   19.7350 C   0  0  0  0  0  1  0  0  0  0  0  0
  -25.3150  -17.1970   21.3190 C   0  0  0  0  0  1  0  0  0  0  0  0
  -26.4670  -17.9740   20.7960 N   0  0  1  0  0  4  0  0  0  0  0  0
  -26.7810  -18.5540   21.5620 H   0  0  0  0  0  0  0  0  0  0  0  0
  -30.7100  -21.4420   19.5510 C   0  0  0  0  0  2  0  0  0  0  0  0
  -30.3890  -22.3890   20.7510 C   0  0  0  0  0  2  0  0  0  0  0  0
  -29.9870  -23.7720   20.3430 N   0  0  0  0  0  4  0  0  0  0  0  0
  -29.3800  -23.7180   19.5400 H   0  0  0  0  0  0  0  0  0  0  0  0
  -30.8180  -24.2620   20.0470 H   0  0  0  0  0  0  0  0  0  0  0  0
  -29.2850  -24.5780   21.3920 C   0  0  0  0  0  2  0  0  0  0  0  0
  -29.1790  -26.1020   21.0830 C   0  0  0  0  0  2  0  0  0  0  0  0
  -28.3720  -26.3510   19.9280 O   0  0  0  0  0  0  0  0  0  0  0  0
  -24.4450  -31.4660   23.1450 C   0  0  0  0  0  0  0  0  0  0  0  0
  -27.2250  -27.1170   20.0370 C   0  0  0  0  0  0  0  0  0  0  0  0
  -23.2890  -30.0700   21.4620 C   0  0  0  0  0  3  0  0  0  0  0  0
  -24.7960  -28.5790   20.0410 C   0  0  0  0  0  0  0  0  0  0  0  0
  -25.8120  -30.4730   21.3140 C   0  0  0  0  0  2  0  0  0  0  0  0
  -25.9340  -29.1100   20.6620 C   0  0  0  0  0  0  0  0  0  0  0  0
  -27.1520  -28.3860   20.6670 C   0  0  0  0  0  3  0  0  0  0  0  0
  -26.0720  -26.6110   19.4030 C   0  0  0  0  0  3  0  0  0  0  0  0
  -24.8590  -27.3240   19.4100 C   0  0  0  0  0  3  0  0  0  0  0  0
  -23.5350  -29.4150   20.0760 C   0  0  0  0  0  2  0  0  0  0  0  0
  -24.5320  -30.6850   22.0320 N   0  0  0  0  0  0  0  0  0  0  0  0
  -23.3520  -31.7120   23.6720 O   0  0  0  0  0  0  0  0  0  0  0  0
  -22.6390  -29.0240   22.3950 C   0  0  0  0  0  0  0  0  0  0  0  0
  -21.3160  -28.8350   22.2560 N   0  0  0  0  0  0  0  0  0  0  0  0
  -23.3230  -28.3860   23.2010 O   0  0  0  0  0  0  0  0  0  0  0  0
  -20.8270  -29.4010   21.5770 H   0  0  0  0  0  0  0  0  0  0  0  0
  -17.9440  -27.6270   22.7230 C   0  0  0  0  0  0  0  0  0  0  0  0
  -20.5020  -27.8730   22.9970 C   0  0  0  0  0  3  0  0  0  0  0  0
  -20.6010  -26.4620   22.3760 C   0  0  0  0  0  2  0  0  0  0  0  0
  -19.4960  -26.1740   21.3540 C   0  0  0  0  0  2  0  0  0  0  0  0
  -18.1160  -26.2990   22.0060 C   0  0  0  0  0  2  0  0  0  0  0  0
  -19.0640  -28.3750   23.1750 C   0  0  0  0  0  0  0  0  0  0  0  0
  -18.8480  -29.6190   23.8040 C   0  0  0  0  0  3  0  0  0  0  0  0
  -17.5440  -30.1180   23.9880 C   0  0  0  0  0  3  0  0  0  0  0  0
  -16.4390  -29.3660   23.5550 C   0  0  0  0  0  3  0  0  0  0  0  0
  -16.6380  -28.1240   22.9300 C   0  0  0  0  0  3  0  0  0  0  0  0
  -25.7120  -32.1080   23.7940 C   0  0  0  0  0  3  0  0  0  0  0  0
  -25.4030  -33.5170   24.0680 N   0  0  0  0  0  0  0  0  0  0  0  0
  -25.7910  -34.5440   23.3010 C   0  0  0  0  0  0  0  0  0  0  0  0
  -26.5170  -34.4040   22.3120 O   0  0  0  0  0  0  0  0  0  0  0  0
  -24.7650  -33.7000   24.8290 H   0  0  0  0  0  0  0  0  0  0  0  0
  -24.1180  -36.3480   22.7900 C   0  0  0  0  0  1  0  0  0  0  0  0
  -25.2970  -35.9480   23.6920 C   0  0  0  0  0  3  0  0  0  0  0  0
  -27.3820  -36.8240   24.6450 C   0  0  0  0  0  1  0  0  0  0  0  0
  -26.3510  -36.9840   23.6240 N   0  0  0  0  0  0  0  0  0  0  0  0
  -25.9500  -37.9130   23.7210 H   0  0  0  0  0  0  0  0  0  0  0  0
  -26.1770  -31.3700   25.1090 C   0  0  1  0  0  0  0  0  0  0  0  0
  -25.0450  -31.1780   26.1450 C   0  0  0  0  0  1  0  0  0  0  0  0
  -26.7570  -29.9740   24.7770 C   0  0  0  0  0  1  0  0  0  0  0  0
  -27.3150  -32.1720   25.7820 C   0  0  0  0  0  1  0  0  0  0  0  0
  1  5  1  0
  1  2  1  0
  2  4  1  0
  3  1  2  0
  5  6  2  0
  7 13  1  0
  9  8  1  0
 10  9  1  0
 11 10  1  0
 11 12  1  0
 13  8  1  0
 13 12  1  0
 14  7  2  0
 15 17  1  0
 15 18  1  0
 17  5  1  0
 17 19  1  0
 18 50  1  0
 18 16  1  0
 19 16  1  0
 19  7  1  0
 20 21  2  0
 20 23  1  0
 21 22  1  0
 22 25  1  0
 22 24  2  0
 23 11  1  0
 23 24  1  0
 25 26  1  0
 26 27  2  0
 28 27  1  0
 29 28  2  0
 30 29  1  0
 30 25  2  0
 31 28  1  0
 31 32  1  0
 32 37  2  0
 32 33  1  0
 33 34  2  0
 34 35  1  0
 35 39  1  0
 36 35  2  0
 37 36  1  0
 38 37  1  0
 40 21  1  0
 40 41  1  0
 41 43  1  0
 42 40  2  0
 44 41  1  0
 45 20  1  0
 46 45  1  0
 47 45  1  0
 48 50  1  0
 50 49  1  0
 50 51  1  1
 52  2  1  0
 52 53  1  0
 54 53  1  0
 54 57  1  0
 55 54  1  0
 56 54  1  0
 58 57  1  0
 59 61  1  0
 59 58  1  0
 60 71  2  0
 61 66  1  0
 62 70  1  0
 62 72  1  0
 63 69  1  0
 63 65  1  0
 64 70  1  0
 65 66  2  0
 65 64  1  0
 67 68  1  0
 67 61  2  0
 68 63  2  0
 69 62  1  0
 70 60  1  0
 72 74  2  0
 73 72  1  0
 75 73  1  0
 76 85  2  0
 76 81  1  0
 77 73  1  0
 77 81  1  0
 78 77  1  0
 79 80  1  0
 79 78  1  0
 80 76  1  0
 81 82  2  0
 82 83  1  0
 84 83  2  0
 85 84  1  0
 86 60  1  0
 86 87  1  0
 86 96  1  0
 87 90  1  0
 88 92  1  0
 88 87  1  0
 89 88  2  0
 92 91  1  0
 94 92  1  0
 94 95  1  0
 94 93  1  0
 96 99  1  1
 96 97  1  0
 98 96  1  0
M  ISO  4   7 100  19 100  58 101  59 101
M  END
>  <TORSDO>  (1) 
F 23

>  <SCORE>  (1) 
-3.528

>  <name>  (1) 
0

>  <ligand_id>  (1) 
0

>  <original_smiles>  (1) 
[H]c1c([H])c([H])c2c(c1[H])C([H])([H])C([H])([H])C([H])([H])C2([H])N([H])C(=O)C1([H])N(C(=O)C([H])(N([H])C(=O)C([H])(N([H])C([H])([H])[H])C([H])([H])[H])C(C([H])([H])[H])(C([H])([H])[H])C([H])([H])[H])C([H])([H])c2c([H])c(OC([H])([H])C([H])([H])[N+]([H])([H])C([H])([H])C([H])([H])N([H])C(=O)C(=O)C3([H])N(C(=O)N4C([H])([H])C([H])([H])C([H])([H])C([H])(n5nc(-c6c([H])c([H])c(Oc7c([H])c([H])c(F)c([H])c7F)c([H])c6[H])c(C(=O)N([H])[H])c5N([H])[H])C4([H])[H])C([H])([H])C([H])([N+]([H])(C([H])([H])[H])C([H])([H])[H])C3([H])[H])c([H])c([H])c2C1([H])[H]

>  <smiles>  (1) 
[H]c1c([H])c([H])c2c(c1[H])C([H])([H])C([H])([H])C([H])([H])C2([H])N([H])C(=O)C1([H])N(C(=O)C([H])(N([H])C(=O)C([H])(N([H])C([H])([H])[H])C([H])([H])[H])C(C([H])([H])[H])(C([H])([H])[H])C([H])([H])[H])C([H])([H])c2c([H])c(OC([H])([H])C([H])([H])[N+]([H])([H])C([H])([H])C([H])([H])N([H])C(=O)C(=O)C3([H])N(C(=O)N4C([H])([H])C([H])([H])C([H])([H])C([H])(n5nc(-c6c([H])c([H])c(Oc7c([H])c([H])c(F)c([H])c7F)c([H])c6[H])c(C(=O)N([H])[H])c5N([H])[H])C4([H])[H])C([H])([H])C([H])([N+]([H])(C([H])([H])[H])C([H])([H])[H])C3([H])[H])c([H])c([H])c2C1([H])[H]

$$$$
1:0:0
     RDKit          3D

 90 92  0  0  1  0  0  0  0  0999 V2000
  -28.9950  -15.2440   19.1450 C   0  0  0  0  0  2  0  0  0  0  0  0
  -28.4940  -16.6820   19.8420 N   0  0  0  0  0  2  0  0  0  0  0  0
  -29.5420  -15.7490   18.1540 O   0  0  0  0  0  1  0  0  0  0  0  0
  -27.9370  -16.3900   20.6330 H   0  0  0  0  0  0  0  0  0  0  0  0
  -28.7990  -11.2680   20.7440 C   0  0  0  0  0  2  0  0  0  0  0  0
  -29.1030  -12.3320   19.6150 C   0  0  0  0  0  2  0  0  0  0  0  0
  -30.2110  -11.3560   20.3550 C   0  0  0  0  0  3  0  0  0  0  0  0
  -31.2010  -11.6060   21.5430 C   0  0  0  0  0  2  0  0  0  0  0  0
  -31.9930  -13.7440   20.5900 C   0  0  0  0  0  0  0  0  0  0  0  0
  -31.1660  -13.1950   18.3440 C   0  0  0  0  0  3  0  0  0  0  0  0
  -29.6990  -12.9040   17.1460 C   0  0  0  0  0  3  0  0  0  0  0  0
  -27.8970  -13.1260   17.7820 C   0  0  0  0  0  2  0  0  0  0  0  0
  -27.6150  -13.6560   19.6210 C   0  0  0  0  0  2  0  0  0  0  0  0
  -29.2180  -13.9580   20.8260 C   0  0  0  0  0  1  0  0  0  0  0  0
  -30.8680  -13.7600   20.0360 N   0  0  0  0  0  0  0  0  0  0  0  0
  -32.9160  -14.3090   20.0180 O   0  0  0  0  0  0  0  0  0  0  0  0
  -33.1430  -12.8260   22.5430 C   0  0  0  0  0  1  0  0  0  0  0  0
  -32.0620  -12.8190   21.5610 N   0  0  0  0  0  0  0  0  0  0  0  0
  -25.4780  -13.8470   20.6430 C   0  0  0  0  0  0  0  0  0  0  0  0
  -24.4720  -13.0220   20.9580 C   0  0  0  0  0  0  0  0  0  0  0  0
  -24.9150  -11.6800   20.7530 C   0  0  0  0  0  0  0  0  0  0  0  0
  -26.4680  -13.0430   20.2040 N   0  0  0  0  0  0  0  0  0  0  0  0
  -26.1490  -11.7060   20.2580 N   0  0  0  0  0  0  0  0  0  0  0  0
  -24.1660  -10.4240   20.9310 C   0  0  0  0  0  0  0  0  0  0  0  0
  -24.5870   -9.3980   21.8070 C   0  0  0  0  0  3  0  0  0  0  0  0
  -23.7790   -8.2560   22.0140 C   0  0  0  0  0  3  0  0  0  0  0  0
  -22.5360   -8.1330   21.3470 C   0  0  0  0  0  0  0  0  0  0  0  0
  -22.1370   -9.1440   20.4570 C   0  0  0  0  0  3  0  0  0  0  0  0
  -22.9440  -10.2750   20.2480 C   0  0  0  0  0  3  0  0  0  0  0  0
  -21.6940   -7.0530   21.4610 O   0  0  0  0  0  0  0  0  0  0  0  0
  -21.6580   -6.2780   22.5910 C   0  0  0  0  0  0  0  0  0  0  0  0
  -21.3500   -6.8190   23.8580 C   0  0  0  0  0  3  0  0  0  0  0  0
  -21.2550   -5.9750   24.9820 C   0  0  0  0  0  3  0  0  0  0  0  0
  -21.4550   -4.5890   24.8390 C   0  0  0  0  0  0  0  0  0  0  0  0
  -21.7540   -4.0450   23.5770 C   0  0  0  0  0  3  0  0  0  0  0  0
  -21.8510   -4.8890   22.4550 C   0  0  0  0  0  0  0  0  0  0  0  0
  -22.1170   -4.3580   21.2370 F   0  0  0  0  0  0  0  0  0  0  0  0
  -21.3580   -3.7750   25.9160 F   0  0  0  0  0  0  0  0  0  0  0  0
  -23.1350  -13.5320   21.3320 C   0  0  0  0  0  0  0  0  0  0  0  0
  -22.4720  -12.8540   22.2490 N   0  0  0  0  0  0  0  0  0  0  0  0
  -22.7220  -14.5920   20.8580 O   0  0  0  0  0  0  0  0  0  0  0  0
  -22.8490  -12.0060   22.6450 H   0  0  0  0  0  0  0  0  0  0  0  0
  -21.5690  -13.1820   22.5630 H   0  0  0  0  0  0  0  0  0  0  0  0
  -25.5850  -15.2400   20.6610 N   0  0  0  0  0  0  0  0  0  0  0  0
  -24.7810  -15.8170   20.8850 H   0  0  0  0  0  0  0  0  0  0  0  0
  -26.3690  -15.7780   20.3200 H   0  0  0  0  0  0  0  0  0  0  0  0
  -28.6940  -18.6130   20.1050 C   0  0  0  0  0 15  0  0  0  0  0  0
  -28.0280  -20.6570   19.9170 C   0  0  0  0  0 15  0  0  0  0  0  0
  -27.9510  -22.6970   20.6330 C   0  0  0  0  0 15  0  0  0  0  0  0
  -28.0690  -24.6370   20.5240 O   0  0  0  0  0  1  0  0  0  0  0  0
  -24.7480  -31.5900   23.2340 C   0  0  0  0  0  0  0  0  0  0  0  0
  -27.2240  -26.0510   20.5430 C   0  0  0  0  0  0  0  0  0  0  0  0
  -23.6510  -30.1610   21.5780 C   0  0  0  0  0  3  0  0  0  0  0  0
  -25.1250  -28.3800   20.3250 C   0  0  0  0  0  0  0  0  0  0  0  0
  -26.2460  -30.1270   21.6660 C   0  0  0  0  0  2  0  0  0  0  0  0
  -26.2970  -28.6400   21.0420 C   0  0  0  0  0  0  0  0  0  0  0  0
  -27.3330  -27.5130   21.1020 C   0  0  0  0  0  3  0  0  0  0  0  0
  -26.0330  -26.0970   19.7740 C   0  0  0  0  0  3  0  0  0  0  0  0
  -25.0540  -27.1390   19.6720 C   0  0  0  0  0  3  0  0  0  0  0  0
  -23.9740  -29.4090   20.2550 C   0  0  0  0  0  2  0  0  0  0  0  0
  -24.9110  -30.6690   22.2100 N   0  0  0  0  0  0  0  0  0  0  0  0
  -23.6220  -31.9380   23.6400 O   0  0  0  0  0  0  0  0  0  0  0  0
  -22.8290  -29.2460   22.5290 C   0  0  0  0  0  0  0  0  0  0  0  0
  -21.4960  -29.1600   22.3460 N   0  0  0  0  0  0  0  0  0  0  0  0
  -23.4080  -28.6100   23.4130 O   0  0  0  0  0  0  0  0  0  0  0  0
  -21.0780  -29.7170   21.6140 H   0  0  0  0  0  0  0  0  0  0  0  0
  -18.0270  -28.1370   22.7670 C   0  0  0  0  0  0  0  0  0  0  0  0
  -20.5920  -28.2730   23.0940 C   0  0  0  0  0  3  0  0  0  0  0  0
  -20.6310  -26.8360   22.5240 C   0  0  0  0  0  2  0  0  0  0  0  0
  -19.5430  -26.5720   21.4790 C   0  0  0  0  0  2  0  0  0  0  0  0
  -18.1530  -26.7850   22.0850 C   0  0  0  0  0  2  0  0  0  0  0  0
  -19.1720  -28.8440   23.2250 C   0  0  0  0  0  0  0  0  0  0  0  0
  -18.9970  -30.1070   23.8300 C   0  0  0  0  0  3  0  0  0  0  0  0
  -17.7130  -30.6660   23.9750 C   0  0  0  0  0  3  0  0  0  0  0  0
  -16.5840  -29.9590   23.5280 C   0  0  0  0  0  3  0  0  0  0  0  0
  -16.7420  -28.6950   22.9300 C   0  0  0  0  0  3  0  0  0  0  0  0
  -25.9570  -32.2600   23.9490 C   0  0  0  0  0  3  0  0  0  0  0  0
  -25.6280  -33.6830   24.2000 N   0  0  0  0  0  0  0  0  0  0  0  0
  -26.0260  -34.7210   23.4500 C   0  0  0  0  0  0  0  0  0  0  0  0
  -26.7580  -34.5810   22.4690 O   0  0  0  0  0  0  0  0  0  0  0  0
  -24.9790  -33.8620   24.9530 H   0  0  0  0  0  0  0  0  0  0  0  0
  -24.3380  -36.5360   22.9770 C   0  0  0  0  0  1  0  0  0  0  0  0
  -25.5410  -36.1350   23.8450 C   0  0  0  0  0  3  0  0  0  0  0  0
  -27.6490  -37.0350   24.7350 C   0  0  0  0  0  1  0  0  0  0  0  0
  -26.5910  -37.1750   23.7380 N   0  0  0  0  0  0  0  0  0  0  0  0
  -26.1900  -38.1030   23.8300 H   0  0  0  0  0  0  0  0  0  0  0  0
  -26.3250  -31.5640   25.3190 C   0  0  1  0  0  0  0  0  0  0  0  0
  -25.1260  -31.4130   26.2870 C   0  0  0  0  0  1  0  0  0  0  0  0
  -26.9130  -30.1560   25.0910 C   0  0  0  0  0  1  0  0  0  0  0  0
  -27.4240  -32.3790   26.0430 C   0  0  0  0  0  1  0  0  0  0  0  0
  1  2  1  0
  2  4  1  0
  3  1  1  0
  6  7  1  0
  6  5  1  0
  7  5  1  0
  7  8  1  0
  8 18  1  0
  9 18  1  0
 10 15  1  0
 11 12  1  0
 11 10  2  0
 12 13  1  0
 13 22  1  0
 15  9  1  0
 15 14  1  0
 16  9  2  0
 18 17  1  0
 19 44  1  0
 19 20  2  0
 20 39  1  0
 21 24  1  0
 21 20  1  0
 22 23  1  0
 22 19  1  0
 23 21  2  0
 24 25  1  0
 25 26  2  0
 27 30  1  0
 27 26  1  0
 28 27  2  0
 29 28  1  0
 29 24  2  0
 30 31  1  0
 31 32  1  0
 32 33  2  0
 34 33  1  0
 34 38  1  0
 35 34  2  0
 36 31  2  0
 36 35  1  0
 37 36  1  0
 39 40  1  0
 40 43  1  0
 40 42  1  0
 41 39  2  0
 44 45  1  0
 46 44  1  0
 50 52  1  0
 51 62  2  0
 52 57  1  0
 53 61  1  0
 53 63  1  0
 54 56  1  0
 55 61  1  0
 56 57  2  0
 56 55  1  0
 58 52  2  0
 59 58  1  0
 59 54  2  0
 60 54  1  0
 60 53  1  0
 61 51  1  0
 63 65  2  0
 64 63  1  0
 66 64  1  0
 67 76  2  0
 67 72  1  0
 68 64  1  0
 68 72  1  0
 69 68  1  0
 70 71  1  0
 70 69  1  0
 71 67  1  0
 72 73  2  0
 73 74  1  0
 75 74  2  0
 76 75  1  0
 77 51  1  0
 77 78  1  0
 77 87  1  0
 78 81  1  0
 79 83  1  0
 79 78  1  0
 80 79  2  0
 83 82  1  0
 85 86  1  0
 85 83  1  0
 85 84  1  0
 87 90  1  1
 87 88  1  0
 89 87  1  0
M  ISO  4   9 100  18 100  49 101  50 101
M  END
>  <TORSDO>  (2) 
F 21

>  <SCORE>  (2) 
-12.025

>  <name>  (2) 
1

>  <ligand_id>  (2) 
1

>  <original_smiles>  (2) 
[H]c1c([H])c([H])c2c(c1[H])C([H])([H])C([H])([H])C([H])([H])C2([H])N([H])C(=O)C1([H])N(C(=O)C([H])(N([H])C(=O)C([H])(N([H])C([H])([H])[H])C([H])([H])[H])C(C([H])([H])[H])(C([H])([H])[H])C([H])([H])[H])C([H])([H])c2c([H])c(OC([H])([H])C([H])([H])C([H])([H])N([H])C(=O)C3([H])C([H])([H])C3([H])C([H])([H])N(C(=O)N3C([H])([H])C([H])([H])C([H])([H])C([H])(n4nc(-c5c([H])c([H])c(Oc6c([H])c([H])c(F)c([H])c6F)c([H])c5[H])c(C(=O)N([H])[H])c4N([H])[H])C3([H])[H])C([H])([H])[H])c([H])c([H])c2C1([H])[H]

>  <smiles>  (2) 
[H]c1c([H])c([H])c2c(c1[H])C([H])([H])C([H])([H])C([H])([H])C2([H])N([H])C(=O)C1([H])N(C(=O)C([H])(N([H])C(=O)C([H])(N([H])C([H])([H])[H])C([H])([H])[H])C(C([H])([H])[H])(C([H])([H])[H])C([H])([H])[H])C([H])([H])c2c([H])c(OC([H])([H])C([H])([H])C([H])([H])N([H])C(=O)C3([H])C([H])([H])C3([H])C([H])([H])N(C(=O)N3C([H])([H])C([H])([H])C([H])([H])C([H])(n4nc(-c5c([H])c([H])c(Oc6c([H])c([H])c(F)c([H])c6F)c([H])c5[H])c(C(=O)N([H])[H])c4N([H])[H])C3([H])[H])C([H])([H])[H])c([H])c([H])c2C1([H])[H]

$$$$
2:0:0
     RDKit          3D

 94102  0  0  1  0  0  0  0  0999 V2000
  -28.3970  -22.6360   21.1270 C   0  0  0  0  0  2  0  0  0  0  0  0
  -30.2890  -23.5140   20.6920 C   0  0  0  0  0  2  0  0  0  0  0  0
  -28.8690  -23.7180   20.1120 C   0  0  0  0  0  3  0  0  0  0  0  0
  -29.8560  -22.1500   21.3610 C   0  0  2  0  0  0  0  0  0  0  0  0
  -30.3010  -20.7690   20.7190 C   0  0  0  0  0  0  0  0  0  0  0  0
  -29.7830  -19.5930   21.1840 N   0  0  0  0  0  0  0  0  0  0  0  0
  -31.2210  -20.7640   19.8980 O   0  0  0  0  0  0  0  0  0  0  0  0
  -28.9290  -19.6650   21.7230 H   0  0  0  0  0  0  0  0  0  0  0  0
  -30.4370  -18.2370   21.2560 C   0  0  0  0  0  2  0  0  0  0  0  0
  -29.9820  -17.1130   20.2440 C   0  0  0  0  0  2  0  0  0  0  0  0
  -30.6530  -14.6210   20.4020 C   0  0  0  0  0  0  0  0  0  0  0  0
  -30.3860  -12.4040   19.3210 C   0  0  0  0  0  2  0  0  0  0  0  0
  -29.4280  -12.5680   18.1180 C   0  0  0  0  0  2  0  0  0  0  0  0
  -27.9610  -12.4200   18.5600 C   0  0  0  0  0  2  0  0  0  0  0  0
  -27.6260  -13.2780   19.8080 C   0  0  0  0  0  3  0  0  0  0  0  0
  -28.6920  -13.0980   20.9140 C   0  0  0  0  0  2  0  0  0  0  0  0
  -30.0070  -13.4140   20.3310 N   0  0  0  0  0  0  0  0  0  0  0  0
  -31.7980  -14.7720   19.9650 O   0  0  0  0  0  0  0  0  0  0  0  0
  -29.8890  -15.6990   20.7470 N   0  0  0  0  0  0  0  0  0  0  0  0
  -28.9920  -15.4490   21.1350 H   0  0  0  0  0  0  0  0  0  0  0  0
  -25.2330  -13.9000   20.5060 C   0  0  0  0  0  0  0  0  0  0  0  0
  -24.1550  -13.1390   20.8760 C   0  0  0  0  0  0  0  0  0  0  0  0
  -24.6090  -11.7840   20.8600 C   0  0  0  0  0  0  0  0  0  0  0  0
  -26.2720  -13.0100   20.2880 N   0  0  0  0  0  0  0  0  0  0  0  0
  -25.9000  -11.7310   20.5560 N   0  0  0  0  0  0  0  0  0  0  0  0
  -23.8710  -10.5290   21.0530 C   0  0  0  0  0  0  0  0  0  0  0  0
  -24.3090   -9.5490   21.9710 C   0  0  0  0  0  3  0  0  0  0  0  0
  -23.5720   -8.3590   22.1550 C   0  0  0  0  0  3  0  0  0  0  0  0
  -22.3830   -8.1400   21.4200 C   0  0  0  0  0  0  0  0  0  0  0  0
  -21.9650   -9.1070   20.4890 C   0  0  0  0  0  3  0  0  0  0  0  0
  -22.7030  -10.2890   20.3030 C   0  0  0  0  0  3  0  0  0  0  0  0
  -21.6160   -7.0040   21.5160 O   0  0  0  0  0  0  0  0  0  0  0  0
  -21.5960   -6.2440   22.6580 C   0  0  0  0  0  0  0  0  0  0  0  0
  -21.2360   -6.7880   23.9110 C   0  0  0  0  0  3  0  0  0  0  0  0
  -21.1620   -5.9550   25.0450 C   0  0  0  0  0  3  0  0  0  0  0  0
  -21.4380   -4.5800   24.9290 C   0  0  0  0  0  0  0  0  0  0  0  0
  -21.7910   -4.0340   23.6820 C   0  0  0  0  0  3  0  0  0  0  0  0
  -21.8690   -4.8640   22.5500 C   0  0  0  0  0  0  0  0  0  0  0  0
  -22.1920   -4.3310   21.3490 F   0  0  0  0  0  0  0  0  0  0  0  0
  -21.3600   -3.7790   26.0180 F   0  0  0  0  0  0  0  0  0  0  0  0
  -22.7620  -13.6300   21.1400 C   0  0  0  0  0  0  0  0  0  0  0  0
  -22.0290  -12.9450   22.0110 N   0  0  0  0  0  0  0  0  0  0  0  0
  -22.3360  -14.6570   20.6170 O   0  0  0  0  0  0  0  0  0  0  0  0
  -22.3880  -12.1110   22.4510 H   0  0  0  0  0  0  0  0  0  0  0  0
  -21.0970  -13.2590   22.2450 H   0  0  0  0  0  0  0  0  0  0  0  0
  -25.4080  -15.2660   20.3180 N   0  0  0  0  0  0  0  0  0  0  0  0
  -24.6310  -15.9150   20.3900 H   0  0  0  0  0  0  0  0  0  0  0  0
  -26.2480  -15.6970   19.9590 H   0  0  0  0  0  0  0  0  0  0  0  0
  -30.2660  -22.0970   22.7820 N   0  0  0  0  0  4  0  0  0  0  0  0
  -29.8410  -21.3220   23.2580 H   0  0  0  0  0  0  0  0  0  0  0  0
  -30.0520  -22.9380   23.2850 H   0  0  0  0  0  0  0  0  0  0  0  0
  -31.2600  -21.9560   22.8280 H   0  0  0  0  0  0  0  0  0  0  0  0
  -28.0260  -25.0460   19.8760 C   0  0  0  0  0  2  0  0  0  0  0  0
  -28.3030  -26.4550   20.2390 O   0  0  0  0  0  0  0  0  0  0  0  0
  -24.6020  -31.8900   23.2330 C   0  0  0  0  0  0  0  0  0  0  0  0
  -27.2000  -27.3370   20.1580 C   0  0  0  0  0  0  0  0  0  0  0  0
  -23.3880  -30.4980   21.5950 C   0  0  0  0  0  3  0  0  0  0  0  0
  -24.8350  -28.9600   20.1620 C   0  0  0  0  0  0  0  0  0  0  0  0
  -25.9320  -30.8130   21.4060 C   0  0  0  0  0  2  0  0  0  0  0  0
  -26.0090  -29.4360   20.7600 C   0  0  0  0  0  0  0  0  0  0  0  0
  -27.1920  -28.6350   20.7590 C   0  0  0  0  0  3  0  0  0  0  0  0
  -26.0010  -26.9390   19.5080 C   0  0  0  0  0  3  0  0  0  0  0  0
  -24.8340  -27.7160   19.5260 C   0  0  0  0  0  3  0  0  0  0  0  0
  -23.5980  -29.8280   20.2140 C   0  0  0  0  0  2  0  0  0  0  0  0
  -24.6590  -31.0830   22.1350 N   0  0  0  0  0  0  0  0  0  0  0  0
  -23.5210  -32.1710   23.7700 O   0  0  0  0  0  0  0  0  0  0  0  0
  -22.7260  -29.4790   22.5540 C   0  0  0  0  0  0  0  0  0  0  0  0
  -21.4000  -29.3040   22.4270 N   0  0  0  0  0  0  0  0  0  0  0  0
  -23.4050  -28.8510   23.3710 O   0  0  0  0  0  0  0  0  0  0  0  0
  -20.9140  -29.8600   21.7380 H   0  0  0  0  0  0  0  0  0  0  0  0
  -18.0220  -28.1060   22.9160 C   0  0  0  0  0  0  0  0  0  0  0  0
  -20.5780  -28.3690   23.1990 C   0  0  0  0  0  3  0  0  0  0  0  0
  -20.6850  -26.9350   22.6310 C   0  0  0  0  0  2  0  0  0  0  0  0
  -19.5890  -26.6060   21.6130 C   0  0  0  0  0  2  0  0  0  0  0  0
  -18.2040  -26.7540   22.2480 C   0  0  0  0  0  2  0  0  0  0  0  0
  -19.1380  -28.8720   23.3480 C   0  0  0  0  0  0  0  0  0  0  0  0
  -18.9120  -30.1380   23.9330 C   0  0  0  0  0  3  0  0  0  0  0  0
  -17.6070  -30.6360   24.0890 C   0  0  0  0  0  3  0  0  0  0  0  0
  -16.5060  -29.8680   23.6730 C   0  0  0  0  0  3  0  0  0  0  0  0
  -16.7150  -28.6030   23.0930 C   0  0  0  0  0  3  0  0  0  0  0  0
  -25.8900  -32.5160   23.8500 C   0  0  0  0  0  3  0  0  0  0  0  0
  -25.5870  -33.9130   24.1900 N   0  0  0  0  0  0  0  0  0  0  0  0
  -25.9120  -34.9670   23.4300 C   0  0  0  0  0  0  0  0  0  0  0  0
  -26.5710  -34.8660   22.3910 O   0  0  0  0  0  0  0  0  0  0  0  0
  -25.0060  -34.0660   25.0010 H   0  0  0  0  0  0  0  0  0  0  0  0
  -24.1790  -36.7590   23.1020 C   0  0  0  0  0  1  0  0  0  0  0  0
  -25.4310  -36.3550   23.8970 C   0  0  0  0  0  3  0  0  0  0  0  0
  -27.5800  -37.2330   24.7000 C   0  0  0  0  0  1  0  0  0  0  0  0
  -26.4630  -37.4060   23.7740 N   0  0  0  0  0  0  0  0  0  0  0  0
  -26.0600  -38.3250   23.9360 H   0  0  0  0  0  0  0  0  0  0  0  0
  -26.4110  -31.7370   25.1200 C   0  0  1  0  0  0  0  0  0  0  0  0
  -25.3190  -31.5040   26.1890 C   0  0  0  0  0  1  0  0  0  0  0  0
  -26.9850  -30.3570   24.7210 C   0  0  0  0  0  1  0  0  0  0  0  0
  -27.5710  -32.5200   25.7780 C   0  0  0  0  0  1  0  0  0  0  0  0
  1  4  1  0
  2  4  1  0
  3 53  1  0
  3  2  1  0
  3  1  1  0
  4  5  1  0
  4 49  1  1
  5  6  1  0
  6  9  1  0
  6  8  1  0
  7  5  2  0
 10 19  1  0
 10  9  1  0
 11 19  1  0
 12 17  1  0
 13 14  1  0
 13 12  1  0
 15 14  1  0
 15 24  1  0
 15 16  1  0
 17 11  1  0
 17 16  1  0
 18 11  2  0
 19 20  1  0
 21 22  2  0
 22 41  1  0
 23 22  1  0
 23 26  1  0
 24 21  1  0
 24 25  1  0
 25 23  2  0
 26 27  1  0
 27 28  2  0
 29 32  1  0
 29 28  1  0
 30 29  2  0
 31 30  1  0
 31 26  2  0
 32 33  1  0
 33 34  1  0
 34 35  2  0
 36 35  1  0
 36 40  1  0
 37 36  2  0
 38 33  2  0
 38 37  1  0
 39 38  1  0
 41 42  1  0
 42 45  1  0
 42 44  1  0
 43 41  2  0
 46 47  1  0
 46 21  1  0
 48 46  1  0
 49 52  1  0
 49 50  1  0
 49 51  1  0
 53 54  1  0
 55 66  2  0
 56 54  1  0
 56 61  1  0
 57 65  1  0
 57 67  1  0
 58 64  1  0
 58 60  1  0
 59 65  1  0
 60 59  1  0
 61 60  2  0
 62 63  1  0
 62 56  2  0
 63 58  2  0
 64 57  1  0
 65 55  1  0
 67 69  2  0
 68 67  1  0
 70 68  1  0
 71 80  2  0
 71 76  1  0
 72 68  1  0
 72 76  1  0
 73 72  1  0
 74 75  1  0
 74 73  1  0
 75 71  1  0
 76 77  2  0
 77 78  1  0
 79 78  2  0
 80 79  1  0
 81 55  1  0
 81 82  1  0
 81 91  1  0
 82 85  1  0
 83 87  1  0
 83 82  1  0
 84 83  2  0
 87 86  1  0
 89 87  1  0
 89 90  1  0
 89 88  1  0
 91 94  1  1
 91 92  1  0
 93 91  1  0
M  ISO  4  11 100  19 100  53 101  54 101
M  END
>  <TORSDO>  (3) 
F 21

>  <SCORE>  (3) 
-13.879

>  <name>  (3) 
2

>  <ligand_id>  (3) 
2

>  <original_smiles>  (3) 
[H]c1c([H])c([H])c2c(c1[H])C([H])([H])C([H])([H])C([H])([H])C2([H])N([H])C(=O)C1([H])N(C(=O)C([H])(N([H])C(=O)C([H])(N([H])C([H])([H])[H])C([H])([H])[H])C(C([H])([H])[H])(C([H])([H])[H])C([H])([H])[H])C([H])([H])c2c([H])c(OC([H])([H])C3([H])C([H])([H])C(C(=O)N([H])C([H])([H])C([H])([H])N([H])C(=O)N4C([H])([H])C([H])([H])C([H])([H])C([H])(n5nc(-c6c([H])c([H])c(Oc7c([H])c([H])c(F)c([H])c7F)c([H])c6[H])c(C(=O)N([H])[H])c5N([H])[H])C4([H])[H])([N+]([H])([H])[H])C3([H])[H])c([H])c([H])c2C1([H])[H]

>  <smiles>  (3) 
[H]c1c([H])c([H])c2c(c1[H])C([H])([H])C([H])([H])C([H])([H])C2([H])N([H])C(=O)C1([H])N(C(=O)C([H])(N([H])C(=O)C([H])(N([H])C([H])([H])[H])C([H])([H])[H])C(C([H])([H])[H])(C([H])([H])[H])C([H])([H])[H])C([H])([H])c2c([H])c(OC([H])([H])C3([H])C([H])([H])C(C(=O)N([H])C([H])([H])C([H])([H])N([H])C(=O)N4C([H])([H])C([H])([H])C([H])([H])C([H])(n5nc(-c6c([H])c([H])c(Oc7c([H])c([H])c(F)c([H])c7F)c([H])c6[H])c(C(=O)N([H])[H])c5N([H])[H])C4([H])[H])([N+]([H])([H])[H])C3([H])[H])c([H])c([H])c2C1([H])[H]

$$$$
3:0:0
     RDKit          3D

100109  0  0  1  0  0  0  0  0999 V2000
  -30.6830  -20.6210   19.9240 C   0  0  0  0  0  0  0  0  0  0  0  0
  -30.7990  -19.5370   20.7280 N   0  0  0  0  0  0  0  0  0  0  0  0
  -30.4770  -20.5040   18.7140 O   0  0  0  0  0  0  0  0  0  0  0  0
  -30.9960  -19.6970   21.7060 H   0  0  0  0  0  0  0  0  0  0  0  0
  -29.5870  -22.9580   20.1450 C   0  0  0  0  0  2  0  0  0  0  0  0
  -32.1090  -22.7250   20.0260 C   0  0  0  0  0  2  0  0  0  0  0  0
  -31.0980  -24.9920   20.0220 C   0  0  0  0  0  2  0  0  0  0  0  0
  -30.8030  -22.0520   20.5260 C   0  0  0  0  0  3  0  0  0  0  0  0
  -29.7480  -24.4610   20.5470 C   0  0  0  0  0  3  0  0  0  0  0  0
  -32.2200  -24.1350   20.4670 N   0  0  0  0  0  4  0  0  0  0  0  0
  -33.0790  -24.5180   20.1010 H   0  0  0  0  0  0  0  0  0  0  0  0
  -32.2890  -24.1720   21.4720 H   0  0  0  0  0  0  0  0  0  0  0  0
  -28.5420  -25.3240   20.0630 C   0  0  0  0  0  2  0  0  0  0  0  0
  -28.5690  -26.7180   20.4520 O   0  0  0  0  0  0  0  0  0  0  0  0
  -24.5600  -31.8970   23.3040 C   0  0  0  0  0  0  0  0  0  0  0  0
  -27.3870  -27.4480   20.3610 C   0  0  0  0  0  0  0  0  0  0  0  0
  -23.4390  -30.4680   21.6260 C   0  0  0  0  0  3  0  0  0  0  0  0
  -24.9700  -28.9430   20.2690 C   0  0  0  0  0  0  0  0  0  0  0  0
  -25.9700  -30.8550   21.5270 C   0  0  0  0  0  2  0  0  0  0  0  0
  -26.1000  -29.4790   20.8990 C   0  0  0  0  0  0  0  0  0  0  0  0
  -27.3090  -28.7400   20.9410 C   0  0  0  0  0  3  0  0  0  0  0  0
  -26.2330  -26.9410   19.7140 C   0  0  0  0  0  3  0  0  0  0  0  0
  -25.0340  -27.6740   19.6740 C   0  0  0  0  0  3  0  0  0  0  0  0
  -23.7130  -29.7840   20.2610 C   0  0  0  0  0  2  0  0  0  0  0  0
  -24.6720  -31.0890   22.2110 N   0  0  0  0  0  0  0  0  0  0  0  0
  -23.4540  -32.1560   23.8000 O   0  0  0  0  0  0  0  0  0  0  0  0
  -22.7650  -29.4440   22.5680 C   0  0  0  0  0  0  0  0  0  0  0  0
  -21.4530  -29.2260   22.3790 N   0  0  0  0  0  0  0  0  0  0  0  0
  -23.4230  -28.8460   23.4240 O   0  0  0  0  0  0  0  0  0  0  0  0
  -20.9840  -29.7620   21.6630 H   0  0  0  0  0  0  0  0  0  0  0  0
  -18.0860  -27.9650   22.7390 C   0  0  0  0  0  0  0  0  0  0  0  0
  -20.6230  -28.2790   23.1230 C   0  0  0  0  0  3  0  0  0  0  0  0
  -20.7810  -26.8440   22.5670 C   0  0  0  0  0  2  0  0  0  0  0  0
  -19.7340  -26.4890   21.5080 C   0  0  0  0  0  2  0  0  0  0  0  0
  -18.3210  -26.6130   22.0870 C   0  0  0  0  0  2  0  0  0  0  0  0
  -19.1690  -28.7530   23.2120 C   0  0  0  0  0  0  0  0  0  0  0  0
  -18.8980  -30.0180   23.7780 C   0  0  0  0  0  3  0  0  0  0  0  0
  -17.5790  -30.4960   23.8780 C   0  0  0  0  0  3  0  0  0  0  0  0
  -16.5090  -29.7030   23.4240 C   0  0  0  0  0  3  0  0  0  0  0  0
  -16.7640  -28.4410   22.8600 C   0  0  0  0  0  3  0  0  0  0  0  0
  -25.8120  -32.5530   23.9660 C   0  0  0  0  0  3  0  0  0  0  0  0
  -25.4810  -33.9570   24.2440 N   0  0  0  0  0  0  0  0  0  0  0  0
  -25.8450  -34.9920   23.4750 C   0  0  0  0  0  0  0  0  0  0  0  0
  -26.5650  -34.8660   22.4810 O   0  0  0  0  0  0  0  0  0  0  0  0
  -24.8490  -34.1290   25.0140 H   0  0  0  0  0  0  0  0  0  0  0  0
  -24.1410  -36.7700   22.9740 C   0  0  0  0  0  1  0  0  0  0  0  0
  -25.3290  -36.3880   23.8720 C   0  0  0  0  0  3  0  0  0  0  0  0
  -27.3940  -37.3070   24.8290 C   0  0  0  0  0  1  0  0  0  0  0  0
  -26.3660  -37.4410   23.8010 N   0  0  0  0  0  0  0  0  0  0  0  0
  -25.9480  -38.3630   23.8890 H   0  0  0  0  0  0  0  0  0  0  0  0
  -26.2740  -31.8180   25.2840 C   0  0  1  0  0  0  0  0  0  0  0  0
  -25.1310  -31.5890   26.3000 C   0  0  0  0  0  1  0  0  0  0  0  0
  -26.8940  -30.4410   24.9500 C   0  0  0  0  0  1  0  0  0  0  0  0
  -27.3790  -32.6430   25.9850 C   0  0  0  0  0  1  0  0  0  0  0  0
  -30.5610  -18.1320   20.3180 C   0  0  0  0  0  3  0  0  0  0  0  0
  -26.5170  -17.9170   18.7270 C   0  0  0  0  0  3  0  0  0  0  0  0
  -27.5810  -17.3090   18.0330 C   0  0  0  0  0  3  0  0  0  0  0  0
  -26.7470  -18.5190   19.9790 C   0  0  0  0  0  3  0  0  0  0  0  0
  -28.8830  -17.3360   18.5720 C   0  0  0  0  0  3  0  0  0  0  0  0
  -28.0460  -18.5390   20.5210 C   0  0  0  0  0  3  0  0  0  0  0  0
  -29.1280  -17.9700   19.8090 C   0  0  0  0  0  0  0  0  0  0  0  0
  -30.9340  -17.1140   21.4470 C   0  0  0  0  0  2  0  0  0  0  0  0
  -31.1870  -14.6710   20.8080 C   0  0  0  0  0  0  0  0  0  0  0  0
  -30.9380  -12.4730   19.7040 C   0  0  0  0  0  2  0  0  0  0  0  0
  -30.0390  -12.6290   18.4600 C   0  0  0  0  0  2  0  0  0  0  0  0
  -28.5510  -12.4960   18.8390 C   0  0  0  0  0  2  0  0  0  0  0  0
  -28.1620  -13.3650   20.0650 C   0  0  0  0  0  3  0  0  0  0  0  0
  -29.1780  -13.1930   21.2150 C   0  0  0  0  0  2  0  0  0  0  0  0
  -30.5170  -13.4900   20.6810 N   0  0  0  0  0  0  0  0  0  0  0  0
  -32.3450  -14.8230   20.4120 O   0  0  0  0  0  0  0  0  0  0  0  0
  -30.4650  -15.7190   21.2530 N   0  0  0  0  0  0  0  0  0  0  0  0
  -29.5010  -15.5360   21.4820 H   0  0  0  0  0  0  0  0  0  0  0  0
  -25.7580  -13.9800   20.7390 C   0  0  0  0  0  0  0  0  0  0  0  0
  -24.6660  -13.2180   21.0480 C   0  0  0  0  0  0  0  0  0  0  0  0
  -25.1070  -11.8600   20.9860 C   0  0  0  0  0  0  0  0  0  0  0  0
  -26.7940  -13.0930   20.5010 N   0  0  0  0  0  0  0  0  0  0  0  0
  -26.4050  -11.8090   20.7110 N   0  0  0  0  0  0  0  0  0  0  0  0
  -24.3540  -10.6080   21.1160 C   0  0  0  0  0  0  0  0  0  0  0  0
  -24.7000   -9.6370   22.0800 C   0  0  0  0  0  3  0  0  0  0  0  0
  -23.9490   -8.4480   22.1990 C   0  0  0  0  0  3  0  0  0  0  0  0
  -22.8370   -8.2230   21.3520 C   0  0  0  0  0  0  0  0  0  0  0  0
  -22.5100   -9.1840   20.3790 C   0  0  0  0  0  3  0  0  0  0  0  0
  -23.2610  -10.3640   20.2580 C   0  0  0  0  0  3  0  0  0  0  0  0
  -22.0650   -7.0870   21.3780 O   0  0  0  0  0  0  0  0  0  0  0  0
  -21.8480   -6.3910   22.5410 C   0  0  0  0  0  0  0  0  0  0  0  0
  -21.1810   -6.9700   23.6420 C   0  0  0  0  0  3  0  0  0  0  0  0
  -20.9170   -6.1980   24.7910 C   0  0  0  0  0  3  0  0  0  0  0  0
  -21.3100   -4.8460   24.8370 C   0  0  0  0  0  0  0  0  0  0  0  0
  -21.9700   -4.2670   23.7400 C   0  0  0  0  0  3  0  0  0  0  0  0
  -22.2350   -5.0370   22.5930 C   0  0  0  0  0  0  0  0  0  0  0  0
  -22.8530   -4.4680   21.5300 F   0  0  0  0  0  0  0  0  0  0  0  0
  -21.0500   -4.1020   25.9370 F   0  0  0  0  0  0  0  0  0  0  0  0
  -23.2700  -13.7130   21.2940 C   0  0  0  0  0  0  0  0  0  0  0  0
  -22.5070  -13.0090   22.1220 N   0  0  0  0  0  0  0  0  0  0  0  0
  -22.8630  -14.7570   20.7860 O   0  0  0  0  0  0  0  0  0  0  0  0
  -22.8480  -12.1630   22.5550 H   0  0  0  0  0  0  0  0  0  0  0  0
  -21.5690  -13.3210   22.3280 H   0  0  0  0  0  0  0  0  0  0  0  0
  -25.9440  -15.3500   20.6230 N   0  0  0  0  0  0  0  0  0  0  0  0
  -25.1710  -15.9980   20.7280 H   0  0  0  0  0  0  0  0  0  0  0  0
  -26.7840  -15.8070   20.2870 H   0  0  0  0  0  0  0  0  0  0  0  0
  1  2  1  0
  2  4  1  0
  3  1  2  0
  5  8  1  0
  5  9  1  0
  6 10  1  0
  6  8  1  0
  7 10  1  0
  7  9  1  0
  8  1  1  0
  9 13  1  0
 10 12  1  0
 11 10  1  0
 13 14  1  0
 15 26  2  0
 16 14  1  0
 16 21  1  0
 17 25  1  0
 17 27  1  0
 18 20  1  0
 19 25  1  0
 20 21  2  0
 20 19  1  0
 22 16  2  0
 23 22  1  0
 23 18  2  0
 24 18  1  0
 24 17  1  0
 25 15  1  0
 27 29  2  0
 28 27  1  0
 30 28  1  0
 31 40  2  0
 31 36  1  0
 32 28  1  0
 32 36  1  0
 33 32  1  0
 34 35  1  0
 34 33  1  0
 35 31  1  0
 36 37  2  0
 37 38  1  0
 39 38  2  0
 40 39  1  0
 41 15  1  0
 41 42  1  0
 41 51  1  0
 42 45  1  0
 43 47  1  0
 43 42  1  0
 44 43  2  0
 47 46  1  0
 49 47  1  0
 49 50  1  0
 49 48  1  0
 51 54  1  1
 51 52  1  0
 53 51  1  0
 55  2  1  0
 55 62  1  0
 56 58  1  0
 57 59  1  0
 57 56  2  0
 58 60  2  0
 59 61  2  0
 61 55  1  0
 61 60  1  0
 63 71  1  0
 64 69  1  0
 65 66  1  0
 65 64  1  0
 67 66  1  0
 67 76  1  0
 67 68  1  0
 69 63  1  0
 69 68  1  0
 70 63  2  0
 71 62  1  0
 71 72  1  0
 73 74  2  0
 74 93  1  0
 75 74  1  0
 75 78  1  0
 76 77  1  0
 76 73  1  0
 77 75  2  0
 78 79  1  0
 79 80  2  0
 81 84  1  0
 81 80  1  0
 82 81  2  0
 83 82  1  0
 83 78  2  0
 84 85  1  0
 85 90  2  0
 85 86  1  0
 86 87  2  0
 87 88  1  0
 88 92  1  0
 89 88  2  0
 90 89  1  0
 91 90  1  0
 93 94  1  0
 94 97  1  0
 94 96  1  0
 95 93  2  0
 98 99  1  0
 98 73  1  0
100 98  1  0
M  ISO  4  13 101  14 101  63 100  71 100
M  END
>  <TORSDO>  (4) 
F 21

>  <SCORE>  (4) 
-12.195

>  <name>  (4) 
3

>  <ligand_id>  (4) 
3

>  <original_smiles>  (4) 
[H]c1c([H])c([H])c(C([H])(N([H])C(=O)C2([H])C([H])([H])C([H])(C([H])([H])Oc3c([H])c([H])c4c(c3[H])C([H])([H])N(C(=O)C([H])(N([H])C(=O)C([H])(N([H])C([H])([H])[H])C([H])([H])[H])C(C([H])([H])[H])(C([H])([H])[H])C([H])([H])[H])C([H])(C(=O)N([H])C3([H])c5c([H])c([H])c([H])c([H])c5C([H])([H])C([H])([H])C3([H])[H])C4([H])[H])C([H])([H])[N+]([H])([H])C2([H])[H])C([H])([H])N([H])C(=O)N2C([H])([H])C([H])([H])C([H])([H])C([H])(n3nc(-c4c([H])c([H])c(Oc5c([H])c([H])c(F)c([H])c5F)c([H])c4[H])c(C(=O)N([H])[H])c3N([H])[H])C2([H])[H])c([H])c1[H]

>  <smiles>  (4) 
[H]c1c([H])c([H])c(C([H])(N([H])C(=O)C2([H])C([H])([H])C([H])(C([H])([H])Oc3c([H])c([H])c4c(c3[H])C([H])([H])N(C(=O)C([H])(N([H])C(=O)C([H])(N([H])C([H])([H])[H])C([H])([H])[H])C(C([H])([H])[H])(C([H])([H])[H])C([H])([H])[H])C([H])(C(=O)N([H])C3([H])c5c([H])c([H])c([H])c([H])c5C([H])([H])C([H])([H])C3([H])[H])C4([H])[H])C([H])([H])[N+]([H])([H])C2([H])[H])C([H])([H])N([H])C(=O)N2C([H])([H])C([H])([H])C([H])([H])C([H])(n3nc(-c4c([H])c([H])c(Oc5c([H])c([H])c(F)c([H])c5F)c([H])c4[H])c(C(=O)N([H])[H])c3N([H])[H])C2([H])[H])c([H])c1[H]

$$$$
4:0:0
     RDKit          3D

 96104  0  0  1  0  0  0  0  0999 V2000
  -28.4420  -22.3420   20.3380 C   0  0  0  0  0  3  0  0  0  0  0  0
  -29.2950  -21.3360   20.3180 N   0  0  0  0  0  0  0  0  0  0  0  0
  -28.8290  -19.9500   20.7380 C   0  0  0  0  0  2  0  0  0  0  0  0
  -29.8770  -18.8150   21.2690 C   0  0  0  0  0  2  0  0  0  0  0  0
  -30.4630  -17.5690   20.3980 C   0  0  0  0  0  3  0  0  0  0  0  0
  -31.0470  -15.0070   20.7300 C   0  0  0  0  0  0  0  0  0  0  0  0
  -30.8640  -12.7770   19.6400 C   0  0  0  0  0  2  0  0  0  0  0  0
  -30.0050  -12.9430   18.3660 C   0  0  0  0  0  2  0  0  0  0  0  0
  -28.4990  -12.8360   18.6930 C   0  0  0  0  0  2  0  0  0  0  0  0
  -28.0870  -13.6610   19.9410 C   0  0  0  0  0  3  0  0  0  0  0  0
  -29.0720  -13.4540   21.1140 C   0  0  0  0  0  2  0  0  0  0  0  0
  -30.4150  -13.7930   20.6170 N   0  0  0  0  0  0  0  0  0  0  0  0
  -32.2420  -15.1100   20.4370 O   0  0  0  0  0  0  0  0  0  0  0  0
  -30.2590  -16.1350   20.9110 N   0  0  0  0  0  0  0  0  0  0  0  0
  -29.3330  -15.9340   21.2550 H   0  0  0  0  0  0  0  0  0  0  0  0
  -25.6630  -14.2930   20.5120 C   0  0  0  0  0  0  0  0  0  0  0  0
  -24.5590  -13.5340   20.7940 C   0  0  0  0  0  0  0  0  0  0  0  0
  -25.0030  -12.1770   20.7920 C   0  0  0  0  0  0  0  0  0  0  0  0
  -26.7060  -13.3960   20.3350 N   0  0  0  0  0  0  0  0  0  0  0  0
  -26.3100  -12.1190   20.5690 N   0  0  0  0  0  0  0  0  0  0  0  0
  -24.2460  -10.9280   20.9330 C   0  0  0  0  0  0  0  0  0  0  0  0
  -24.6200   -9.9370   21.8660 C   0  0  0  0  0  3  0  0  0  0  0  0
  -23.8610   -8.7540   21.9960 C   0  0  0  0  0  3  0  0  0  0  0  0
  -22.7160   -8.5540   21.1880 C   0  0  0  0  0  0  0  0  0  0  0  0
  -22.3640   -9.5330   20.2450 C   0  0  0  0  0  3  0  0  0  0  0  0
  -23.1220  -10.7080   20.1130 C   0  0  0  0  0  3  0  0  0  0  0  0
  -21.9310   -7.4280   21.2290 O   0  0  0  0  0  0  0  0  0  0  0  0
  -21.8150   -6.6710   22.3690 C   0  0  0  0  0  0  0  0  0  0  0  0
  -21.3730   -7.2250   23.5900 C   0  0  0  0  0  3  0  0  0  0  0  0
  -21.1990   -6.3960   24.7160 C   0  0  0  0  0  3  0  0  0  0  0  0
  -21.4590   -5.0160   24.6230 C   0  0  0  0  0  0  0  0  0  0  0  0
  -21.8950   -4.4620   23.4070 C   0  0  0  0  0  3  0  0  0  0  0  0
  -22.0690   -5.2870   22.2810 C   0  0  0  0  0  0  0  0  0  0  0  0
  -22.4680   -4.7440   21.1050 F   0  0  0  0  0  0  0  0  0  0  0  0
  -21.2880   -4.2170   25.7030 F   0  0  0  0  0  0  0  0  0  0  0  0
  -23.1560  -14.0370   20.9670 C   0  0  0  0  0  0  0  0  0  0  0  0
  -22.3630  -13.3660   21.7950 N   0  0  0  0  0  0  0  0  0  0  0  0
  -22.7690  -15.0590   20.4040 O   0  0  0  0  0  0  0  0  0  0  0  0
  -22.6910  -12.5440   22.2780 H   0  0  0  0  0  0  0  0  0  0  0  0
  -21.4180  -13.6840   21.9570 H   0  0  0  0  0  0  0  0  0  0  0  0
  -25.8660  -15.6630   20.3760 N   0  0  0  0  0  0  0  0  0  0  0  0
  -25.1310  -16.3290   20.5950 H   0  0  0  0  0  0  0  0  0  0  0  0
  -26.7660  -16.1000   20.2360 H   0  0  0  0  0  0  0  0  0  0  0  0
  -30.5220  -18.8150   18.0510 C   0  0  0  0  0  2  0  0  0  0  0  0
  -30.5780  -16.7780   17.8200 C   0  0  0  0  0  2  0  0  0  0  0  0
  -30.0080  -17.6680   18.9320 C   0  0  0  0  0  3  0  0  0  0  0  0
  -30.4230  -17.9090   16.9100 N   0  0  0  0  0  4  0  0  0  0  0  0
  -31.1560  -18.0020   16.2230 H   0  0  0  0  0  0  0  0  0  0  0  0
  -29.5100  -17.9210   16.4840 H   0  0  0  0  0  0  0  0  0  0  0  0
  -28.6100  -23.8230   19.7460 C   0  0  0  0  0  3  0  0  0  0  0  0
  -30.0220  -24.0540   19.4060 N   0  0  0  0  0  4  0  0  0  0  0  0
  -30.5580  -24.3360   20.2070 H   0  0  0  0  0  0  0  0  0  0  0  0
  -30.0920  -24.7670   18.7000 H   0  0  0  0  0  0  0  0  0  0  0  0
  -30.4090  -23.1960   19.0450 H   0  0  0  0  0  0  0  0  0  0  0  0
  -27.9920  -25.0760   20.5520 C   0  0  0  0  0  2  0  0  0  0  0  0
  -28.2120  -26.4940   20.0980 O   0  0  0  0  0  0  0  0  0  0  0  0
  -24.5720  -31.9380   23.2370 C   0  0  0  0  0  0  0  0  0  0  0  0
  -27.1160  -27.3790   20.1070 C   0  0  0  0  0  0  0  0  0  0  0  0
  -23.3420  -30.5490   21.6110 C   0  0  0  0  0  3  0  0  0  0  0  0
  -24.7670  -29.0130   20.1470 C   0  0  0  0  0  0  0  0  0  0  0  0
  -25.8740  -30.8730   21.3720 C   0  0  0  0  0  2  0  0  0  0  0  0
  -25.9470  -29.4930   20.7260 C   0  0  0  0  0  0  0  0  0  0  0  0
  -27.1280  -28.6880   20.6940 C   0  0  0  0  0  3  0  0  0  0  0  0
  -25.9170  -26.9680   19.4890 C   0  0  0  0  0  3  0  0  0  0  0  0
  -24.7540  -27.7570   19.5190 C   0  0  0  0  0  3  0  0  0  0  0  0
  -23.5300  -29.8870   20.2220 C   0  0  0  0  0  2  0  0  0  0  0  0
  -24.6190  -31.1350   22.1320 N   0  0  0  0  0  0  0  0  0  0  0  0
  -23.4970  -32.2060   23.7940 O   0  0  0  0  0  0  0  0  0  0  0  0
  -22.6980  -29.5220   22.5720 C   0  0  0  0  0  0  0  0  0  0  0  0
  -21.3730  -29.3290   22.4520 N   0  0  0  0  0  0  0  0  0  0  0  0
  -23.3900  -28.9040   23.3870 O   0  0  0  0  0  0  0  0  0  0  0  0
  -20.8710  -29.8820   21.7710 H   0  0  0  0  0  0  0  0  0  0  0  0
  -18.0210  -28.0690   22.9500 C   0  0  0  0  0  0  0  0  0  0  0  0
  -20.5710  -28.3810   23.2290 C   0  0  0  0  0  3  0  0  0  0  0  0
  -20.7060  -26.9470   22.6650 C   0  0  0  0  0  2  0  0  0  0  0  0
  -19.6150  -26.5940   21.6490 C   0  0  0  0  0  2  0  0  0  0  0  0
  -18.2280  -26.7180   22.2860 C   0  0  0  0  0  2  0  0  0  0  0  0
  -19.1220  -28.8570   23.3790 C   0  0  0  0  0  0  0  0  0  0  0  0
  -18.8740  -30.1190   23.9590 C   0  0  0  0  0  3  0  0  0  0  0  0
  -17.5590  -30.5960   24.1160 C   0  0  0  0  0  3  0  0  0  0  0  0
  -16.4730  -29.8070   23.7020 C   0  0  0  0  0  3  0  0  0  0  0  0
  -16.7040  -28.5440   23.1260 C   0  0  0  0  0  3  0  0  0  0  0  0
  -25.8630  -32.5680   23.8420 C   0  0  0  0  0  3  0  0  0  0  0  0
  -26.3910  -31.7950   25.1140 C   0  0  1  0  0  0  0  0  0  0  0  0
  -25.3080  -31.5660   26.1930 C   0  0  0  0  0  1  0  0  0  0  0  0
  -26.9600  -30.4150   24.7140 C   0  0  0  0  0  1  0  0  0  0  0  0
  -27.5550  -32.5790   25.7620 C   0  0  0  0  0  1  0  0  0  0  0  0
  -25.5630  -33.9680   24.1730 N   0  0  0  0  0  0  0  0  0  0  0  0
  -25.9070  -35.0190   23.4160 C   0  0  0  0  0  0  0  0  0  0  0  0
  -26.5800  -34.9100   22.3880 O   0  0  0  0  0  0  0  0  0  0  0  0
  -24.9660  -34.1280   24.9720 H   0  0  0  0  0  0  0  0  0  0  0  0
  -24.2010  -36.8310   23.0460 C   0  0  0  0  0  1  0  0  0  0  0  0
  -25.4280  -36.4120   23.8720 C   0  0  0  0  0  3  0  0  0  0  0  0
  -27.5620  -37.2720   24.7270 C   0  0  0  0  0  1  0  0  0  0  0  0
  -26.4720  -37.4540   23.7730 N   0  0  0  0  0  0  0  0  0  0  0  0
  -26.0740  -38.3770   23.9220 H   0  0  0  0  0  0  0  0  0  0  0  0
  2  1  2  0
  2  3  1  0
  3  4  1  0
  5 14  1  0
  5  4  1  0
  6 14  1  0
  7 12  1  0
  8  9  1  0
  8  7  1  0
 10  9  1  0
 10 19  1  0
 10 11  1  0
 12  6  1  0
 12 11  1  0
 13  6  2  0
 14 15  1  0
 16 17  2  0
 17 36  1  0
 18 17  1  0
 18 21  1  0
 19 16  1  0
 19 20  1  0
 20 18  2  0
 21 22  1  0
 22 23  2  0
 24 27  1  0
 24 23  1  0
 25 24  2  0
 26 25  1  0
 26 21  2  0
 27 28  1  0
 28 29  1  0
 29 30  2  0
 31 30  1  0
 31 35  1  0
 32 31  2  0
 33 28  2  0
 33 32  1  0
 34 33  1  0
 36 37  1  0
 37 40  1  0
 37 39  1  0
 38 36  2  0
 41 16  1  0
 41 42  1  0
 43 41  1  0
 44 46  1  0
 45 46  1  0
 46  5  1  0
 47 45  1  0
 47 44  1  0
 48 47  1  0
 49 47  1  0
 50  1  1  0
 50 55  1  0
 51 50  1  0
 51 52  1  0
 53 51  1  0
 54 51  1  0
 56 58  1  0
 56 55  1  0
 57 68  2  0
 58 63  1  0
 59 67  1  0
 59 69  1  0
 60 66  1  0
 60 62  1  0
 61 67  1  0
 62 61  1  0
 63 62  2  0
 64 65  1  0
 64 58  2  0
 65 60  2  0
 66 59  1  0
 67 57  1  0
 69 71  2  0
 70 69  1  0
 72 70  1  0
 73 82  2  0
 73 78  1  0
 74 70  1  0
 74 78  1  0
 75 74  1  0
 76 77  1  0
 76 75  1  0
 77 73  1  0
 78 79  2  0
 79 80  1  0
 81 80  2  0
 82 81  1  0
 83 57  1  0
 83 88  1  0
 83 84  1  0
 84 87  1  1
 84 85  1  0
 86 84  1  0
 88 91  1  0
 89 93  1  0
 89 88  1  0
 90 89  2  0
 93 92  1  0
 95 93  1  0
 95 96  1  0
 95 94  1  0
M  ISO  4   6 100  14 100  55 101  56 101
M  END
>  <TORSDO>  (5) 
F 23

>  <SCORE>  (5) 
-12.179

>  <name>  (5) 
4

>  <ligand_id>  (5) 
4

>  <original_smiles>  (5) 
[H]C(=NC([H])([H])C([H])([H])C([H])(N([H])C(=O)N1C([H])([H])C([H])([H])C([H])([H])C([H])(n2nc(-c3c([H])c([H])c(Oc4c([H])c([H])c(F)c([H])c4F)c([H])c3[H])c(C(=O)N([H])[H])c2N([H])[H])C1([H])[H])C1([H])C([H])([H])[N+]([H])([H])C1([H])[H])C([H])(C([H])([H])Oc1c([H])c([H])c2c(c1[H])C([H])([H])N(C(=O)C([H])(N([H])C(=O)C([H])(N([H])C([H])([H])[H])C([H])([H])[H])C(C([H])([H])[H])(C([H])([H])[H])C([H])([H])[H])C([H])(C(=O)N([H])C1([H])c3c([H])c([H])c([H])c([H])c3C([H])([H])C([H])([H])C1([H])[H])C2([H])[H])[N+]([H])([H])[H]

>  <smiles>  (5) 
[H]C(=NC([H])([H])C([H])([H])C([H])(N([H])C(=O)N1C([H])([H])C([H])([H])C([H])([H])C([H])(n2nc(-c3c([H])c([H])c(Oc4c([H])c([H])c(F)c([H])c4F)c([H])c3[H])c(C(=O)N([H])[H])c2N([H])[H])C1([H])[H])C1([H])C([H])([H])[N+]([H])([H])C1([H])[H])C([H])(C([H])([H])Oc1c([H])c([H])c2c(c1[H])C([H])([H])N(C(=O)C([H])(N([H])C(=O)C([H])(N([H])C([H])([H])[H])C([H])([H])[H])C(C([H])([H])[H])(C([H])([H])[H])C([H])([H])[H])C([H])(C(=O)N([H])C1([H])c3c([H])c([H])c([H])c([H])c3C([H])([H])C([H])([H])C1([H])[H])C2([H])[H])[N+]([H])([H])[H]

$$$$
5:0:0
     RDKit          3D

102110  0  0  1  0  0  0  0  0999 V2000
  -29.9170  -21.4280   21.2520 C   0  0  0  0  0  2  0  0  0  0  0  0
  -30.5770  -20.2540   22.0520 C   0  0  0  0  0  2  0  0  0  0  0  0
  -31.0170  -14.5430   21.3000 C   0  0  0  0  0  0  0  0  0  0  0  0
  -30.8810  -12.2080   20.5420 C   0  0  0  0  0  2  0  0  0  0  0  0
  -30.1660  -12.1120   19.1810 C   0  0  0  0  0  2  0  0  0  0  0  0
  -28.6320  -12.0890   19.3430 C   0  0  0  0  0  2  0  0  0  0  0  0
  -28.0820  -13.0940   20.3940 C   0  0  0  0  0  3  0  0  0  0  0  0
  -28.9410  -13.1120   21.6740 C   0  0  0  0  0  2  0  0  0  0  0  0
  -30.3290  -13.3670   21.2610 N   0  0  0  0  0  0  0  0  0  0  0  0
  -32.2460  -14.5630   21.2660 O   0  0  0  0  0  0  0  0  0  0  0  0
  -30.4900  -17.7030   19.2930 C   0  0  0  0  0  2  0  0  0  0  0  0
  -29.5320  -16.4960   21.7140 C   0  0  0  0  0  2  0  0  0  0  0  0
  -31.1570  -18.6770   20.2520 C   0  0  0  0  0  2  0  0  0  0  0  0
  -30.8880  -16.2370   19.5470 C   0  0  0  0  0  3  0  0  0  0  0  0
  -30.2210  -17.7470   22.3630 C   0  0  0  0  0  3  0  0  0  0  0  0
  -31.5560  -17.4100   23.0620 C   0  0  0  0  0  1  0  0  0  0  0  0
  -30.3640  -15.6460   20.8230 N   0  0  0  0  0  0  0  0  0  0  0  0
  -30.3000  -18.9200   21.4310 N   0  0  1  0  0  4  0  0  0  0  0  0
  -29.3600  -19.0070   21.0740 H   0  0  0  0  0  0  0  0  0  0  0  0
  -25.6100  -13.7430   20.6800 C   0  0  0  0  0  0  0  0  0  0  0  0
  -24.4900  -12.9930   20.9230 C   0  0  0  0  0  0  0  0  0  0  0  0
  -24.9420  -11.6440   21.0540 C   0  0  0  0  0  0  0  0  0  0  0  0
  -26.6710  -12.8500   20.6750 N   0  0  0  0  0  0  0  0  0  0  0  0
  -26.2640  -11.5890   20.9670 N   0  0  0  0  0  0  0  0  0  0  0  0
  -24.1890  -10.3900   21.1990 C   0  0  0  0  0  0  0  0  0  0  0  0
  -24.5120   -9.4500   22.2000 C   0  0  0  0  0  3  0  0  0  0  0  0
  -23.7650   -8.2600   22.3330 C   0  0  0  0  0  3  0  0  0  0  0  0
  -22.6780   -8.0060   21.4640 C   0  0  0  0  0  0  0  0  0  0  0  0
  -22.3740   -8.9350   20.4530 C   0  0  0  0  0  3  0  0  0  0  0  0
  -23.1230  -10.1160   20.3190 C   0  0  0  0  0  3  0  0  0  0  0  0
  -21.9080   -6.8680   21.5030 O   0  0  0  0  0  0  0  0  0  0  0  0
  -21.7690   -6.1330   22.6520 C   0  0  0  0  0  0  0  0  0  0  0  0
  -21.2860   -6.7050   23.8510 C   0  0  0  0  0  3  0  0  0  0  0  0
  -21.0980   -5.8950   24.9880 C   0  0  0  0  0  3  0  0  0  0  0  0
  -21.3780   -4.5170   24.9290 C   0  0  0  0  0  0  0  0  0  0  0  0
  -21.8520   -3.9450   23.7370 C   0  0  0  0  0  3  0  0  0  0  0  0
  -22.0450   -4.7520   22.6010 C   0  0  0  0  0  0  0  0  0  0  0  0
  -22.4800   -4.1910   21.4460 F   0  0  0  0  0  0  0  0  0  0  0  0
  -21.1880   -3.7400   26.0210 F   0  0  0  0  0  0  0  0  0  0  0  0
  -23.0700  -13.4780   20.9390 C   0  0  0  0  0  0  0  0  0  0  0  0
  -22.2130  -12.8350   21.7270 N   0  0  0  0  0  0  0  0  0  0  0  0
  -22.7230  -14.4640   20.2910 O   0  0  0  0  0  0  0  0  0  0  0  0
  -22.5050  -12.0290   22.2620 H   0  0  0  0  0  0  0  0  0  0  0  0
  -21.2580  -13.1520   21.8010 H   0  0  0  0  0  0  0  0  0  0  0  0
  -25.8270  -15.0970   20.4380 N   0  0  0  0  0  0  0  0  0  0  0  0
  -25.0800  -15.7760   20.3450 H   0  0  0  0  0  0  0  0  0  0  0  0
  -26.7300  -15.4620   20.1560 H   0  0  0  0  0  0  0  0  0  0  0  0
  -30.3550  -15.5100   18.3050 C   0  0  0  0  0  0  0  0  0  0  0  0
  -31.2300  -15.1770   17.3680 N   0  0  0  0  0  0  0  0  0  0  0  0
  -29.1510  -15.3220   18.1470 O   0  0  0  0  0  0  0  0  0  0  0  0
  -32.2180  -15.3530   17.4890 H   0  0  0  0  0  0  0  0  0  0  0  0
  -30.9050  -14.7600   16.5060 H   0  0  0  0  0  0  0  0  0  0  0  0
  -30.8050  -22.6750   20.9500 C   0  0  0  0  0  3  0  0  0  0  0  0
  -30.0270  -23.7590   20.2990 N   0  0  0  0  0  4  0  0  0  0  0  0
  -30.7530  -24.2950   19.8330 H   0  0  0  0  0  0  0  0  0  0  0  0
  -29.4410  -23.3770   19.5740 H   0  0  0  0  0  0  0  0  0  0  0  0
  -29.2560  -24.6620   21.1890 C   0  0  0  0  0  2  0  0  0  0  0  0
  -28.0510  -25.3050   20.4750 C   0  0  0  0  0  2  0  0  0  0  0  0
  -28.2960  -26.6490   20.0270 O   0  0  0  0  0  0  0  0  0  0  0  0
  -24.5920  -31.8470   23.1310 C   0  0  0  0  0  0  0  0  0  0  0  0
  -27.1530  -27.4170   19.9840 C   0  0  0  0  0  0  0  0  0  0  0  0
  -23.3490  -30.4600   21.5040 C   0  0  0  0  0  3  0  0  0  0  0  0
  -24.7690  -28.9340   20.0370 C   0  0  0  0  0  0  0  0  0  0  0  0
  -25.8700  -30.8140   21.2580 C   0  0  0  0  0  2  0  0  0  0  0  0
  -25.9390  -29.4490   20.6070 C   0  0  0  0  0  0  0  0  0  0  0  0
  -27.1370  -28.7000   20.5780 C   0  0  0  0  0  3  0  0  0  0  0  0
  -25.9660  -26.9230   19.3910 C   0  0  0  0  0  3  0  0  0  0  0  0
  -24.7770  -27.6700   19.4230 C   0  0  0  0  0  3  0  0  0  0  0  0
  -23.5270  -29.7920   20.1150 C   0  0  0  0  0  2  0  0  0  0  0  0
  -24.6240  -31.0540   22.0220 N   0  0  0  0  0  0  0  0  0  0  0  0
  -23.5240  -32.1180   23.6930 O   0  0  0  0  0  0  0  0  0  0  0  0
  -22.7130  -29.4340   22.4680 C   0  0  0  0  0  0  0  0  0  0  0  0
  -21.3840  -29.2630   22.3740 N   0  0  0  0  0  0  0  0  0  0  0  0
  -23.4120  -28.7940   23.2600 O   0  0  0  0  0  0  0  0  0  0  0  0
  -20.8820  -29.8340   21.7080 H   0  0  0  0  0  0  0  0  0  0  0  0
  -18.0130  -28.0950   22.9350 C   0  0  0  0  0  0  0  0  0  0  0  0
  -20.5780  -28.3260   23.1540 C   0  0  0  0  0  3  0  0  0  0  0  0
  -20.6550  -26.8990   22.5630 C   0  0  0  0  0  2  0  0  0  0  0  0
  -19.5290  -26.5960   21.5700 C   0  0  0  0  0  2  0  0  0  0  0  0
  -18.1620  -26.7500   22.2440 C   0  0  0  0  0  2  0  0  0  0  0  0
  -19.1480  -28.8420   23.3480 C   0  0  0  0  0  0  0  0  0  0  0  0
  -18.9540  -30.1030   23.9530 C   0  0  0  0  0  3  0  0  0  0  0  0
  -17.6580  -30.6160   24.1490 C   0  0  0  0  0  3  0  0  0  0  0  0
  -16.5380  -29.8630   23.7560 C   0  0  0  0  0  3  0  0  0  0  0  0
  -16.7160  -28.6040   23.1540 C   0  0  0  0  0  3  0  0  0  0  0  0
  -25.8940  -32.4680   23.7290 C   0  0  0  0  0  3  0  0  0  0  0  0
  -25.5890  -33.8520   24.1120 N   0  0  0  0  0  0  0  0  0  0  0  0
  -25.8940  -34.9300   23.3760 C   0  0  0  0  0  0  0  0  0  0  0  0
  -26.5370  -34.8610   22.3240 O   0  0  0  0  0  0  0  0  0  0  0  0
  -25.0200  -33.9780   24.9360 H   0  0  0  0  0  0  0  0  0  0  0  0
  -24.1430  -36.7150   23.1220 C   0  0  0  0  0  1  0  0  0  0  0  0
  -25.4100  -36.2990   23.8880 C   0  0  0  0  0  3  0  0  0  0  0  0
  -27.5640  -37.1720   24.6780 C   0  0  0  0  0  1  0  0  0  0  0  0
  -26.4300  -37.3640   23.7770 N   0  0  0  0  0  0  0  0  0  0  0  0
  -26.0240  -38.2760   23.9690 H   0  0  0  0  0  0  0  0  0  0  0  0
  -26.4590  -31.6610   24.9640 C   0  0  1  0  0  0  0  0  0  0  0  0
  -25.4050  -31.3850   26.0610 C   0  0  0  0  0  1  0  0  0  0  0  0
  -27.0320  -30.2980   24.5080 C   0  0  0  0  0  1  0  0  0  0  0  0
  -27.6300  -32.4390   25.6070 C   0  0  0  0  0  1  0  0  0  0  0  0
  -31.9880  -22.3730   20.0030 C   0  0  0  0  0  2  0  0  0  0  0  0
  -32.5690  -23.5980   19.5700 O   0  0  0  0  0  0  0  0  0  0  0  0
  -33.2860  -23.3870   18.9760 H   0  0  0  0  0  0  0  0  0  0  0  0
  1  2  1  0
  4  9  1  0
  5  6  1  0
  5  4  1  0
  7  6  1  0
  7 23  1  0
  7  8  1  0
  9  3  1  0
  9  8  1  0
 10  3  2  0
 11 14  1  0
 11 13  1  0
 12 15  1  0
 13 18  1  0
 14 48  1  0
 14 17  1  0
 15 16  1  0
 17  3  1  0
 17 12  1  0
 18  2  1  0
 18 15  1  0
 18 19  1  6
 20 21  2  0
 21 40  1  0
 21 22  1  0
 22 25  1  0
 23 20  1  0
 23 24  1  0
 24 22  2  0
 25 26  1  0
 26 27  2  0
 28 31  1  0
 28 27  1  0
 29 28  2  0
 30 29  1  0
 30 25  2  0
 31 32  1  0
 32 33  1  0
 33 34  2  0
 35 34  1  0
 35 39  1  0
 36 35  2  0
 37 32  2  0
 37 36  1  0
 38 37  1  0
 40 41  1  0
 41 44  1  0
 41 43  1  0
 42 40  2  0
 45 20  1  0
 46 45  1  0
 47 45  1  0
 49 51  1  0
 49 48  1  0
 50 48  2  0
 52 49  1  0
 53100  1  0
 53  1  1  0
 54 53  1  0
 54 57  1  0
 55 54  1  0
 56 54  1  0
 58 57  1  0
 59 58  1  0
 60 71  2  0
 61 59  1  0
 61 66  1  0
 62 70  1  0
 62 72  1  0
 63 69  1  0
 63 65  1  0
 64 70  1  0
 65 64  1  0
 66 65  2  0
 67 68  1  0
 67 61  2  0
 68 63  2  0
 69 62  1  0
 70 60  1  0
 72 74  2  0
 73 72  1  0
 75 73  1  0
 76 85  2  0
 76 81  1  0
 77 73  1  0
 77 81  1  0
 78 77  1  0
 79 80  1  0
 79 78  1  0
 80 76  1  0
 81 82  2  0
 82 83  1  0
 84 83  2  0
 85 84  1  0
 86 60  1  0
 86 87  1  0
 86 96  1  0
 87 90  1  0
 88 92  1  0
 88 87  1  0
 89 88  2  0
 92 91  1  0
 94 92  1  0
 94 95  1  0
 94 93  1  0
 96 99  1  1
 96 97  1  0
 98 96  1  0
101100  1  0
102101  1  0
M  ISO  4   3 100  17 100  58 101  59 101
M  END
>  <TORSDO>  (6) 
F 24

>  <SCORE>  (6) 
-9.680

>  <name>  (6) 
5

>  <ligand_id>  (6) 
5

>  <original_smiles>  (6) 
[H]OC([H])([H])C([H])(C([H])([H])C([H])([H])[N+]1([H])C([H])([H])C([H])([H])C([H])(C(=O)N([H])[H])N(C(=O)N2C([H])([H])C([H])([H])C([H])([H])C([H])(n3nc(-c4c([H])c([H])c(Oc5c([H])c([H])c(F)c([H])c5F)c([H])c4[H])c(C(=O)N([H])[H])c3N([H])[H])C2([H])[H])C([H])([H])C1([H])C([H])([H])[H])[N+]([H])([H])C([H])([H])C([H])([H])Oc1c([H])c([H])c2c(c1[H])C([H])([H])N(C(=O)C([H])(N([H])C(=O)C([H])(N([H])C([H])([H])[H])C([H])([H])[H])C(C([H])([H])[H])(C([H])([H])[H])C([H])([H])[H])C([H])(C(=O)N([H])C1([H])c3c([H])c([H])c([H])c([H])c3C([H])([H])C([H])([H])C1([H])[H])C2([H])[H]

>  <smiles>  (6) 
[H]OC([H])([H])C([H])(C([H])([H])C([H])([H])[N+]1([H])C([H])([H])C([H])([H])C([H])(C(=O)N([H])[H])N(C(=O)N2C([H])([H])C([H])([H])C([H])([H])C([H])(n3nc(-c4c([H])c([H])c(Oc5c([H])c([H])c(F)c([H])c5F)c([H])c4[H])c(C(=O)N([H])[H])c3N([H])[H])C2([H])[H])C([H])([H])C1([H])C([H])([H])[H])[N+]([H])([H])C([H])([H])C([H])([H])Oc1c([H])c([H])c2c(c1[H])C([H])([H])N(C(=O)C([H])(N([H])C(=O)C([H])(N([H])C([H])([H])[H])C([H])([H])[H])C(C([H])([H])[H])(C([H])([H])[H])C([H])([H])[H])C([H])(C(=O)N([H])C1([H])c3c([H])c([H])c([H])c([H])c3C([H])([H])C([H])([H])C1([H])[H])C2([H])[H]

$$$$
6:0:0
     RDKit          3D

 91 99  0  0  1  0  0  0  0  0999 V2000
  -28.8490  -21.1110   19.0850 C   0  0  0  0  0  0  0  0  0  0  0  0
  -29.5230  -22.1550   18.5910 N   0  0  0  0  0  0  0  0  0  0  0  0
  -27.7460  -21.2190   19.6250 O   0  0  0  0  0  0  0  0  0  0  0  0
  -30.4190  -21.9390   18.1730 H   0  0  0  0  0  0  0  0  0  0  0  0
  -28.7160  -18.9730   17.8020 C   0  0  0  0  0  2  0  0  0  0  0  0
  -29.5050  -19.7950   18.7990 C   0  0  0  0  0  3  0  0  0  0  0  0
  -28.8570  -18.4790   19.2200 C   0  0  0  0  0  3  0  0  0  0  0  0
  -29.5960  -17.1600   19.3890 C   0  0  0  0  0  2  0  0  0  0  0  0
  -30.0650  -16.8320   20.8260 C   0  0  0  0  0  2  0  0  0  0  0  0
  -30.6690  -14.4230   20.5280 C   0  0  0  0  0  0  0  0  0  0  0  0
  -30.3770  -12.2850   19.3470 C   0  0  0  0  0  2  0  0  0  0  0  0
  -29.4400  -12.5240   18.1450 C   0  0  0  0  0  2  0  0  0  0  0  0
  -27.9600  -12.3980   18.5630 C   0  0  0  0  0  2  0  0  0  0  0  0
  -27.6270  -13.2220   19.8350 C   0  0  0  0  0  3  0  0  0  0  0  0
  -28.6700  -12.9500   20.9450 C   0  0  0  0  0  2  0  0  0  0  0  0
  -30.0080  -13.2440   20.3970 N   0  0  0  0  0  0  0  0  0  0  0  0
  -31.7710  -14.6510   20.0190 O   0  0  0  0  0  0  0  0  0  0  0  0
  -29.9400  -15.3980   21.0870 N   0  0  0  0  0  0  0  0  0  0  0  0
  -29.0800  -15.0980   21.5230 H   0  0  0  0  0  0  0  0  0  0  0  0
  -25.2220  -13.8520   20.5070 C   0  0  0  0  0  0  0  0  0  0  0  0
  -24.1440  -13.0870   20.8730 C   0  0  0  0  0  0  0  0  0  0  0  0
  -24.5990  -11.7330   20.8560 C   0  0  0  0  0  0  0  0  0  0  0  0
  -26.2640  -12.9610   20.2960 N   0  0  0  0  0  0  0  0  0  0  0  0
  -25.8930  -11.6840   20.5610 N   0  0  0  0  0  0  0  0  0  0  0  0
  -23.8660  -10.4750   21.0500 C   0  0  0  0  0  0  0  0  0  0  0  0
  -24.2960   -9.5070   21.9840 C   0  0  0  0  0  3  0  0  0  0  0  0
  -23.5650   -8.3120   22.1640 C   0  0  0  0  0  3  0  0  0  0  0  0
  -22.3910   -8.0770   21.4100 C   0  0  0  0  0  0  0  0  0  0  0  0
  -21.9800   -9.0350   20.4640 C   0  0  0  0  0  3  0  0  0  0  0  0
  -22.7120  -10.2200   20.2830 C   0  0  0  0  0  3  0  0  0  0  0  0
  -21.6330   -6.9360   21.4980 O   0  0  0  0  0  0  0  0  0  0  0  0
  -21.5920   -6.1870   22.6470 C   0  0  0  0  0  0  0  0  0  0  0  0
  -21.1960   -6.7400   23.8830 C   0  0  0  0  0  3  0  0  0  0  0  0
  -21.1000   -5.9180   25.0240 C   0  0  0  0  0  3  0  0  0  0  0  0
  -21.3930   -4.5440   24.9300 C   0  0  0  0  0  0  0  0  0  0  0  0
  -21.7840   -3.9900   23.6980 C   0  0  0  0  0  3  0  0  0  0  0  0
  -21.8800   -4.8090   22.5590 C   0  0  0  0  0  0  0  0  0  0  0  0
  -22.2360   -4.2680   21.3690 F   0  0  0  0  0  0  0  0  0  0  0  0
  -21.2950   -3.7520   26.0230 F   0  0  0  0  0  0  0  0  0  0  0  0
  -22.7470  -13.5720   21.1300 C   0  0  0  0  0  0  0  0  0  0  0  0
  -22.0100  -12.8840   21.9960 N   0  0  0  0  0  0  0  0  0  0  0  0
  -22.3170  -14.5940   20.5990 O   0  0  0  0  0  0  0  0  0  0  0  0
  -22.3730  -12.0570   22.4460 H   0  0  0  0  0  0  0  0  0  0  0  0
  -21.0730  -13.1920   22.2140 H   0  0  0  0  0  0  0  0  0  0  0  0
  -25.3960  -15.2180   20.3200 N   0  0  0  0  0  0  0  0  0  0  0  0
  -24.6320  -15.8800   20.4080 H   0  0  0  0  0  0  0  0  0  0  0  0
  -26.2520  -15.6450   19.9890 H   0  0  0  0  0  0  0  0  0  0  0  0
  -28.9960  -23.4840   18.2880 C   0  0  0  0  0  2  0  0  0  0  0  0
  -28.7790  -24.4010   19.5070 C   0  0  0  0  0  2  0  0  0  0  0  0
  -28.7120  -25.8760   19.0610 C   0  0  0  0  0  2  0  0  0  0  0  0
  -28.4210  -26.7710   20.1340 O   0  0  0  0  0  0  0  0  0  0  0  0
  -24.5800  -31.8820   23.2260 C   0  0  0  0  0  0  0  0  0  0  0  0
  -27.2240  -27.4540   20.1260 C   0  0  0  0  0  0  0  0  0  0  0  0
  -23.3680  -30.4780   21.5880 C   0  0  0  0  0  3  0  0  0  0  0  0
  -24.8170  -28.9370   20.1620 C   0  0  0  0  0  0  0  0  0  0  0  0
  -25.8890  -30.8400   21.3760 C   0  0  0  0  0  2  0  0  0  0  0  0
  -25.9730  -29.4670   20.7440 C   0  0  0  0  0  0  0  0  0  0  0  0
  -27.1750  -28.7270   20.7330 C   0  0  0  0  0  3  0  0  0  0  0  0
  -26.0420  -26.9230   19.5590 C   0  0  0  0  0  3  0  0  0  0  0  0
  -24.8450  -27.6630   19.5690 C   0  0  0  0  0  3  0  0  0  0  0  0
  -23.5700  -29.7900   20.2100 C   0  0  0  0  0  2  0  0  0  0  0  0
  -24.6310  -31.0820   22.1220 N   0  0  0  0  0  0  0  0  0  0  0  0
  -23.5010  -32.1540   23.7710 O   0  0  0  0  0  0  0  0  0  0  0  0
  -22.7210  -29.4580   22.5520 C   0  0  0  0  0  0  0  0  0  0  0  0
  -21.3970  -29.2790   22.4270 N   0  0  0  0  0  0  0  0  0  0  0  0
  -23.4070  -28.8290   23.3630 O   0  0  0  0  0  0  0  0  0  0  0  0
  -20.9110  -29.8370   21.7380 H   0  0  0  0  0  0  0  0  0  0  0  0
  -18.0210  -28.0950   22.9270 C   0  0  0  0  0  0  0  0  0  0  0  0
  -20.5790  -28.3420   23.1950 C   0  0  0  0  0  3  0  0  0  0  0  0
  -20.6760  -26.9130   22.6140 C   0  0  0  0  0  2  0  0  0  0  0  0
  -19.5710  -26.5970   21.6020 C   0  0  0  0  0  2  0  0  0  0  0  0
  -18.1900  -26.7460   22.2500 C   0  0  0  0  0  2  0  0  0  0  0  0
  -19.1420  -28.8520   23.3570 C   0  0  0  0  0  0  0  0  0  0  0  0
  -18.9300  -30.1180   23.9460 C   0  0  0  0  0  3  0  0  0  0  0  0
  -17.6280  -30.6240   24.1150 C   0  0  0  0  0  3  0  0  0  0  0  0
  -16.5200  -29.8630   23.7030 C   0  0  0  0  0  3  0  0  0  0  0  0
  -16.7180  -28.6010   23.1140 C   0  0  0  0  0  3  0  0  0  0  0  0
  -25.8690  -32.5090   23.8440 C   0  0  0  0  0  3  0  0  0  0  0  0
  -25.5630  -33.9050   24.1810 N   0  0  0  0  0  0  0  0  0  0  0  0
  -25.8930  -34.9590   23.4230 C   0  0  0  0  0  0  0  0  0  0  0  0
  -26.5580  -34.8590   22.3890 O   0  0  0  0  0  0  0  0  0  0  0  0
  -24.9720  -34.0550   24.9850 H   0  0  0  0  0  0  0  0  0  0  0  0
  -24.1630  -36.7530   23.0720 C   0  0  0  0  0  1  0  0  0  0  0  0
  -25.4030  -36.3460   23.8830 C   0  0  0  0  0  3  0  0  0  0  0  0
  -27.5400  -37.2280   24.7130 C   0  0  0  0  0  1  0  0  0  0  0  0
  -26.4370  -37.4000   23.7720 N   0  0  0  0  0  0  0  0  0  0  0  0
  -26.0320  -38.3190   23.9250 H   0  0  0  0  0  0  0  0  0  0  0  0
  -26.3940  -31.7310   25.1130 C   0  0  1  0  0  0  0  0  0  0  0  0
  -25.3090  -31.4850   26.1880 C   0  0  0  0  0  1  0  0  0  0  0  0
  -26.9720  -30.3580   24.7030 C   0  0  0  0  0  1  0  0  0  0  0  0
  -27.5490  -32.5210   25.7700 C   0  0  0  0  0  1  0  0  0  0  0  0
  1  3  2  0
  2  1  1  0
  4  2  1  0
  5  6  1  0
  5  7  1  0
  6  1  1  0
  6  7  1  0
  7  8  1  0
  8  9  1  0
  9 18  1  0
 10 18  1  0
 11 16  1  0
 12 13  1  0
 12 11  1  0
 14 13  1  0
 14 23  1  0
 14 15  1  0
 16 10  1  0
 16 15  1  0
 17 10  2  0
 18 19  1  0
 20 21  2  0
 21 40  1  0
 22 21  1  0
 22 25  1  0
 23 20  1  0
 23 24  1  0
 24 22  2  0
 25 26  1  0
 26 27  2  0
 28 31  1  0
 28 27  1  0
 29 28  2  0
 30 29  1  0
 30 25  2  0
 31 32  1  0
 32 33  1  0
 33 34  2  0
 35 34  1  0
 35 39  1  0
 36 35  2  0
 37 32  2  0
 37 36  1  0
 38 37  1  0
 40 41  1  0
 41 44  1  0
 41 43  1  0
 42 40  2  0
 45 46  1  0
 45 20  1  0
 47 45  1  0
 48  2  1  0
 48 49  1  0
 50 49  1  0
 50 51  1  0
 52 63  2  0
 53 51  1  0
 53 58  1  0
 54 62  1  0
 54 64  1  0
 55 61  1  0
 55 57  1  0
 56 62  1  0
 57 56  1  0
 58 57  2  0
 59 60  1  0
 59 53  2  0
 60 55  2  0
 61 54  1  0
 62 52  1  0
 64 66  2  0
 65 64  1  0
 67 65  1  0
 68 77  2  0
 68 73  1  0
 69 65  1  0
 69 73  1  0
 70 69  1  0
 71 72  1  0
 71 70  1  0
 72 68  1  0
 73 74  2  0
 74 75  1  0
 76 75  2  0
 77 76  1  0
 78 52  1  0
 78 79  1  0
 78 88  1  0
 79 82  1  0
 80 84  1  0
 80 79  1  0
 81 80  2  0
 84 83  1  0
 86 84  1  0
 86 87  1  0
 86 85  1  0
 88 91  1  1
 88 89  1  0
 90 88  1  0
M  ISO  4  10 100  18 100  50 101  51 101
M  END
>  <TORSDO>  (7) 
F 22

>  <SCORE>  (7) 
-13.119

>  <name>  (7) 
6

>  <ligand_id>  (7) 
6

>  <original_smiles>  (7) 
[H]c1c([H])c([H])c2c(c1[H])C([H])([H])C([H])([H])C([H])([H])C2([H])N([H])C(=O)C1([H])N(C(=O)C([H])(N([H])C(=O)C([H])(N([H])C([H])([H])[H])C([H])([H])[H])C(C([H])([H])[H])(C([H])([H])[H])C([H])([H])[H])C([H])([H])c2c([H])c(OC([H])([H])C([H])([H])C([H])([H])N([H])C(=O)C3([H])C([H])([H])C3([H])C([H])([H])C([H])([H])N([H])C(=O)N3C([H])([H])C([H])([H])C([H])([H])C([H])(n4nc(-c5c([H])c([H])c(Oc6c([H])c([H])c(F)c([H])c6F)c([H])c5[H])c(C(=O)N([H])[H])c4N([H])[H])C3([H])[H])c([H])c([H])c2C1([H])[H]

>  <smiles>  (7) 
[H]c1c([H])c([H])c2c(c1[H])C([H])([H])C([H])([H])C([H])([H])C2([H])N([H])C(=O)C1([H])N(C(=O)C([H])(N([H])C(=O)C([H])(N([H])C([H])([H])[H])C([H])([H])[H])C(C([H])([H])[H])(C([H])([H])[H])C([H])([H])[H])C([H])([H])c2c([H])c(OC([H])([H])C([H])([H])C([H])([H])N([H])C(=O)C3([H])C([H])([H])C3([H])C([H])([H])C([H])([H])N([H])C(=O)N3C([H])([H])C([H])([H])C([H])([H])C([H])(n4nc(-c5c([H])c([H])c(Oc6c([H])c([H])c(F)c([H])c6F)c([H])c5[H])c(C(=O)N([H])[H])c4N([H])[H])C3([H])[H])c([H])c([H])c2C1([H])[H]

$$$$
7:0:0
     RDKit          3D

 98107  0  0  1  0  0  0  0  0999 V2000
  -29.9830  -19.8410   22.7470 C   0  0  0  0  0  2  0  0  0  0  0  0
  -29.1170  -18.4130   21.1720 C   0  0  0  0  0  2  0  0  0  0  0  0
  -31.0260  -19.8210   21.6160 C   0  0  0  0  0  3  0  0  0  0  0  0
  -30.6460  -18.3370   21.1970 C   0  0  0  0  0  3  0  0  0  0  0  0
  -30.4480  -21.1460   20.9600 C   0  0  0  0  0  3  0  0  0  0  0  0
  -28.9340  -20.8090   20.9360 C   0  0  0  0  0  3  0  0  0  0  0  0
  -28.8130  -19.6740   21.8750 N   0  0  0  0  0  0  0  0  0  0  0  0
  -31.3470  -17.4170   20.1310 C   0  0  0  0  0  2  0  0  0  0  0  0
  -31.8640  -14.8760   19.9200 C   0  0  0  0  0  0  0  0  0  0  0  0
  -31.4880  -12.7130   18.7690 C   0  0  0  0  0  2  0  0  0  0  0  0
  -30.4490  -12.9480   17.6500 C   0  0  0  0  0  2  0  0  0  0  0  0
  -29.0140  -12.8100   18.1970 C   0  0  0  0  0  2  0  0  0  0  0  0
  -28.7930  -13.6130   19.5080 C   0  0  0  0  0  3  0  0  0  0  0  0
  -29.9360  -13.3590   20.5180 C   0  0  0  0  0  2  0  0  0  0  0  0
  -31.2030  -13.6820   19.8460 N   0  0  0  0  0  0  0  0  0  0  0  0
  -32.9880  -15.0290   19.4340 O   0  0  0  0  0  0  0  0  0  0  0  0
  -31.1240  -15.9420   20.3480 N   0  0  0  0  0  0  0  0  0  0  0  0
  -30.2210  -15.6900   20.7180 H   0  0  0  0  0  0  0  0  0  0  0  0
  -26.5160  -14.2450   20.5190 C   0  0  0  0  0  0  0  0  0  0  0  0
  -25.4450  -13.4870   20.9090 C   0  0  0  0  0  0  0  0  0  0  0  0
  -25.8220  -12.1270   20.6880 C   0  0  0  0  0  0  0  0  0  0  0  0
  -27.4800  -13.3460   20.0900 N   0  0  0  0  0  0  0  0  0  0  0  0
  -27.0730  -12.0610   20.2490 N   0  0  0  0  0  0  0  0  0  0  0  0
  -25.0450  -10.8870   20.8110 C   0  0  0  0  0  0  0  0  0  0  0  0
  -25.4290   -9.8600   21.7010 C   0  0  0  0  0  3  0  0  0  0  0  0
  -24.6550   -8.6860   21.8150 C   0  0  0  0  0  3  0  0  0  0  0  0
  -23.4800   -8.5310   21.0400 C   0  0  0  0  0  0  0  0  0  0  0  0
  -23.1150   -9.5470   20.1410 C   0  0  0  0  0  3  0  0  0  0  0  0
  -23.8890  -10.7130   20.0240 C   0  0  0  0  0  3  0  0  0  0  0  0
  -22.6810   -7.4140   21.0680 O   0  0  0  0  0  0  0  0  0  0  0  0
  -22.3660   -6.7820   22.2440 C   0  0  0  0  0  0  0  0  0  0  0  0
  -21.7360   -7.4610   23.3100 C   0  0  0  0  0  3  0  0  0  0  0  0
  -21.3680   -6.7570   24.4740 C   0  0  0  0  0  3  0  0  0  0  0  0
  -21.6180   -5.3760   24.5700 C   0  0  0  0  0  0  0  0  0  0  0  0
  -22.2410   -4.6960   23.5070 C   0  0  0  0  0  3  0  0  0  0  0  0
  -22.6100   -5.3980   22.3460 C   0  0  0  0  0  0  0  0  0  0  0  0
  -23.1900   -4.7350   21.3170 F   0  0  0  0  0  0  0  0  0  0  0  0
  -21.2580   -4.6970   25.6840 F   0  0  0  0  0  0  0  0  0  0  0  0
  -24.1100  -13.9970   21.3690 C   0  0  0  0  0  0  0  0  0  0  0  0
  -23.4440  -13.2630   22.2540 N   0  0  0  0  0  0  0  0  0  0  0  0
  -23.6710  -15.0780   20.9810 O   0  0  0  0  0  0  0  0  0  0  0  0
  -23.8140  -12.3840   22.5890 H   0  0  0  0  0  0  0  0  0  0  0  0
  -22.5510  -13.5830   22.6010 H   0  0  0  0  0  0  0  0  0  0  0  0
  -26.7430  -15.6160   20.4720 N   0  0  0  0  0  0  0  0  0  0  0  0
  -26.0190  -16.2860   20.7070 H   0  0  0  0  0  0  0  0  0  0  0  0
  -27.5570  -16.0480   20.0530 H   0  0  0  0  0  0  0  0  0  0  0  0
  -31.0430  -21.8540   19.6840 C   0  0  0  0  0  2  0  0  0  0  0  0
  -30.2750  -24.3570   19.8080 C   0  0  0  0  0  0  0  0  0  0  0  0
  -31.1960  -23.3530   19.7210 N   0  0  0  0  0  0  0  0  0  0  0  0
  -29.1180  -24.1260   20.1640 O   0  0  0  0  0  0  0  0  0  0  0  0
  -32.1210  -23.6740   19.4620 H   0  0  0  0  0  0  0  0  0  0  0  0
  -30.6750  -25.8100   19.3430 C   0  0  0  0  0  2  0  0  0  0  0  0
  -30.3120  -26.9250   20.2270 O   0  0  0  0  0  0  0  0  0  0  0  0
  -25.7140  -31.1120   23.7940 C   0  0  0  0  0  0  0  0  0  0  0  0
  -29.0510  -27.5240   20.2200 C   0  0  0  0  0  0  0  0  0  0  0  0
  -24.7640  -29.8020   21.9260 C   0  0  0  0  0  3  0  0  0  0  0  0
  -26.4590  -28.7100   20.3510 C   0  0  0  0  0  0  0  0  0  0  0  0
  -27.2210  -30.5280   21.8860 C   0  0  0  0  0  2  0  0  0  0  0  0
  -27.5210  -29.2860   21.0570 C   0  0  0  0  0  0  0  0  0  0  0  0
  -28.8130  -28.6990   20.9920 C   0  0  0  0  0  3  0  0  0  0  0  0
  -27.9600  -26.9770   19.5110 C   0  0  0  0  0  3  0  0  0  0  0  0
  -26.6770  -27.5590   19.5740 C   0  0  0  0  0  3  0  0  0  0  0  0
  -25.1010  -29.3700   20.4730 C   0  0  0  0  0  2  0  0  0  0  0  0
  -25.9140  -30.4930   22.5960 N   0  0  0  0  0  0  0  0  0  0  0  0
  -24.5930  -31.1450   24.3220 O   0  0  0  0  0  0  0  0  0  0  0  0
  -24.2490  -28.5720   22.7080 C   0  0  0  0  0  0  0  0  0  0  0  0
  -23.0080  -28.1460   22.4130 N   0  0  0  0  0  0  0  0  0  0  0  0
  -24.9670  -28.0090   23.5390 O   0  0  0  0  0  0  0  0  0  0  0  0
  -22.4790  -28.6690   21.7300 H   0  0  0  0  0  0  0  0  0  0  0  0
  -20.0310  -26.0990   22.2330 C   0  0  0  0  0  0  0  0  0  0  0  0
  -22.3400  -26.9790   22.9910 C   0  0  0  0  0  3  0  0  0  0  0  0
  -22.9180  -25.6660   22.4170 C   0  0  0  0  0  2  0  0  0  0  0  0
  -22.1340  -25.1370   21.2100 C   0  0  0  0  0  2  0  0  0  0  0  0
  -20.6720  -24.8850   21.5840 C   0  0  0  0  0  2  0  0  0  0  0  0
  -20.8160  -27.0900   22.8830 C   0  0  0  0  0  0  0  0  0  0  0  0
  -20.1740  -28.2150   23.4440 C   0  0  0  0  0  3  0  0  0  0  0  0
  -18.7760  -28.3570   23.3690 C   0  0  0  0  0  3  0  0  0  0  0  0
  -18.0020  -27.3670   22.7390 C   0  0  0  0  0  3  0  0  0  0  0  0
  -18.6290  -26.2400   22.1760 C   0  0  0  0  0  3  0  0  0  0  0  0
  -26.8770  -31.8290   24.5480 C   0  0  0  0  0  3  0  0  0  0  0  0
  -26.4550  -33.2160   24.7960 N   0  0  0  0  0  0  0  0  0  0  0  0
  -26.8490  -34.2720   24.0730 C   0  0  0  0  0  0  0  0  0  0  0  0
  -27.6700  -34.1870   23.1560 O   0  0  0  0  0  0  0  0  0  0  0  0
  -25.7360  -33.3520   25.4920 H   0  0  0  0  0  0  0  0  0  0  0  0
  -25.1050  -35.9670   23.4300 C   0  0  0  0  0  1  0  0  0  0  0  0
  -26.2330  -35.6420   24.4210 C   0  0  0  0  0  3  0  0  0  0  0  0
  -28.1890  -36.6410   25.5200 C   0  0  0  0  0  1  0  0  0  0  0  0
  -27.2190  -36.7450   24.4330 N   0  0  0  0  0  0  0  0  0  0  0  0
  -26.7540  -37.6450   24.5080 H   0  0  0  0  0  0  0  0  0  0  0  0
  -27.2750  -31.1170   25.8990 C   0  0  1  0  0  0  0  0  0  0  0  0
  -26.0790  -30.8640   26.8480 C   0  0  0  0  0  1  0  0  0  0  0  0
  -27.9500  -29.7530   25.6200 C   0  0  0  0  0  1  0  0  0  0  0  0
  -28.3110  -31.9780   26.6590 C   0  0  0  0  0  1  0  0  0  0  0  0
  -27.9680  -21.9300   21.4030 C   0  0  0  0  0  2  0  0  0  0  0  0
  -27.3840  -22.6910   20.2880 N   0  0  0  0  0  4  0  0  0  0  0  0
  -26.6340  -23.2670   20.6280 H   0  0  0  0  0  0  0  0  0  0  0  0
  -27.0240  -22.0850   19.5730 H   0  0  0  0  0  0  0  0  0  0  0  0
  -28.0900  -23.3100   19.8960 H   0  0  0  0  0  0  0  0  0  0  0  0
  2  4  1  0
  3  1  1  0
  4  8  1  0
  4  3  1  0
  5 47  1  0
  5  3  1  0
  6  5  1  0
  6 94  1  0
  6  7  1  0
  7  2  1  0
  7  1  1  0
  8 17  1  0
  9 17  1  0
 10 15  1  0
 11 12  1  0
 11 10  1  0
 13 12  1  0
 13 22  1  0
 13 14  1  0
 15  9  1  0
 15 14  1  0
 16  9  2  0
 17 18  1  0
 19 20  2  0
 20 39  1  0
 21 24  1  0
 21 20  1  0
 22 23  1  0
 22 19  1  0
 23 21  2  0
 24 25  1  0
 25 26  2  0
 27 30  1  0
 27 26  1  0
 28 27  2  0
 29 28  1  0
 29 24  2  0
 30 31  1  0
 31 36  2  0
 31 32  1  0
 32 33  2  0
 33 34  1  0
 34 38  1  0
 35 34  2  0
 36 35  1  0
 37 36  1  0
 39 40  1  0
 40 42  1  0
 40 43  1  0
 41 39  2  0
 44 19  1  0
 44 45  1  0
 46 44  1  0
 47 49  1  0
 48 50  2  0
 49 48  1  0
 51 49  1  0
 52 48  1  0
 52 53  1  0
 54 65  2  0
 55 53  1  0
 55 60  1  0
 56 64  1  0
 56 66  1  0
 57 63  1  0
 57 59  1  0
 58 64  1  0
 59 58  1  0
 60 59  2  0
 61 62  1  0
 61 55  2  0
 62 57  2  0
 63 56  1  0
 64 54  1  0
 66 68  2  0
 67 66  1  0
 69 67  1  0
 70 75  1  0
 71 67  1  0
 72 71  1  0
 73 74  1  0
 73 72  1  0
 74 70  1  0
 75 71  1  0
 75 76  2  0
 77 76  1  0
 78 77  2  0
 79 70  2  0
 79 78  1  0
 80 54  1  0
 80 81  1  0
 80 90  1  0
 81 84  1  0
 82 86  1  0
 82 81  1  0
 83 82  2  0
 86 85  1  0
 86 88  1  0
 88 89  1  0
 88 87  1  0
 90 93  1  1
 90 91  1  0
 92 90  1  0
 95 96  1  0
 95 94  1  0
 97 95  1  0
 98 95  1  0
M  ISO  4   9 100  17 100  52 101  53 101
M  END
>  <TORSDO>  (8) 
F 22

>  <SCORE>  (8) 
-6.972

>  <name>  (8) 
7

>  <ligand_id>  (8) 
7

>  <original_smiles>  (8) 
[H]c1c([H])c([H])c2c(c1[H])C([H])([H])C([H])([H])C([H])([H])C2([H])N([H])C(=O)C1([H])N(C(=O)C([H])(N([H])C(=O)C([H])(N([H])C([H])([H])[H])C([H])([H])[H])C(C([H])([H])[H])(C([H])([H])[H])C([H])([H])[H])C([H])([H])c2c([H])c(OC([H])([H])C(=O)N([H])C([H])([H])C3([H])C([H])(C([H])([H])[N+]([H])([H])[H])N4C([H])([H])C([H])(C([H])([H])N([H])C(=O)N5C([H])([H])C([H])([H])C([H])([H])C([H])(n6nc(-c7c([H])c([H])c(Oc8c([H])c([H])c(F)c([H])c8F)c([H])c7[H])c(C(=O)N([H])[H])c6N([H])[H])C5([H])[H])C3([H])C4([H])[H])c([H])c([H])c2C1([H])[H]

>  <smiles>  (8) 
[H]c1c([H])c([H])c2c(c1[H])C([H])([H])C([H])([H])C([H])([H])C2([H])N([H])C(=O)C1([H])N(C(=O)C([H])(N([H])C(=O)C([H])(N([H])C([H])([H])[H])C([H])([H])[H])C(C([H])([H])[H])(C([H])([H])[H])C([H])([H])[H])C([H])([H])c2c([H])c(OC([H])([H])C(=O)N([H])C([H])([H])C3([H])C([H])(C([H])([H])[N+]([H])([H])[H])N4C([H])([H])C([H])(C([H])([H])N([H])C(=O)N5C([H])([H])C([H])([H])C([H])([H])C([H])(n6nc(-c7c([H])c([H])c(Oc8c([H])c([H])c(F)c([H])c8F)c([H])c7[H])c(C(=O)N([H])[H])c6N([H])[H])C5([H])[H])C3([H])C4([H])[H])c([H])c([H])c2C1([H])[H]

$$$$
8:0:0
     RDKit          3D

 95104  0  0  1  0  0  0  0  0999 V2000
  -29.8650  -23.4790   20.0120 C   0  0  0  0  0  0  0  0  0  0  0  0
  -28.0150  -21.5020   21.1270 C   0  0  0  0  0  2  0  0  0  0  0  0
  -27.5560  -22.9850   20.8900 C   0  0  0  0  0  2  0  0  0  0  0  0
  -29.1080  -21.0060   20.1330 C   0  0  0  0  0  3  0  0  0  0  0  0
  -28.7520  -23.9670   20.9750 C   0  0  0  0  0  3  0  0  0  0  0  0
  -29.9860  -22.1480   19.7500 N   0  0  0  0  0  0  0  0  0  0  0  0
  -30.6530  -24.2840   19.5150 O   0  0  0  0  0  0  0  0  0  0  0  0
  -30.7500  -21.8970   19.1410 H   0  0  0  0  0  0  0  0  0  0  0  0
  -31.9490  -18.7890   21.5670 C   0  0  0  0  0  3  0  0  0  0  0  0
  -31.1500  -19.8910   21.2080 C   0  0  0  0  0  3  0  0  0  0  0  0
  -31.5170  -17.4720   21.3220 C   0  0  0  0  0  3  0  0  0  0  0  0
  -29.4560  -18.3550   20.3690 C   0  0  0  0  0  3  0  0  0  0  0  0
  -29.8950  -19.7150   20.5850 C   0  0  0  0  0  0  0  0  0  0  0  0
  -30.2670  -17.2080   20.7150 C   0  0  0  0  0  0  0  0  0  0  0  0
  -30.5910  -14.7030   20.2320 C   0  0  0  0  0  0  0  0  0  0  0  0
  -30.3150  -12.4930   19.1280 C   0  0  0  0  0  2  0  0  0  0  0  0
  -29.3450  -12.6440   17.9370 C   0  0  0  0  0  2  0  0  0  0  0  0
  -27.8860  -12.4720   18.4040 C   0  0  0  0  0  2  0  0  0  0  0  0
  -27.5560  -13.3150   19.6630 C   0  0  0  0  0  3  0  0  0  0  0  0
  -28.6440  -13.1640   20.7500 C   0  0  0  0  0  2  0  0  0  0  0  0
  -29.9330  -13.5060   20.1320 N   0  0  0  0  0  0  0  0  0  0  0  0
  -31.7600  -14.8060   19.8530 O   0  0  0  0  0  0  0  0  0  0  0  0
  -29.8390  -15.8190   20.5260 N   0  0  0  0  0  0  0  0  0  0  0  0
  -28.8500  -15.6500   20.6100 H   0  0  0  0  0  0  0  0  0  0  0  0
  -25.1760  -13.8870   20.4390 C   0  0  0  0  0  0  0  0  0  0  0  0
  -24.1250  -13.1030   20.8300 C   0  0  0  0  0  0  0  0  0  0  0  0
  -24.6000  -11.7560   20.7900 C   0  0  0  0  0  0  0  0  0  0  0  0
  -26.2230  -13.0170   20.1810 N   0  0  0  0  0  0  0  0  0  0  0  0
  -25.8830  -11.7300   20.4520 N   0  0  0  0  0  0  0  0  0  0  0  0
  -23.8900  -10.4870   20.9940 C   0  0  0  0  0  0  0  0  0  0  0  0
  -24.3420   -9.5300   21.9290 C   0  0  0  0  0  3  0  0  0  0  0  0
  -23.6310   -8.3260   22.1200 C   0  0  0  0  0  3  0  0  0  0  0  0
  -22.4550   -8.0710   21.3780 C   0  0  0  0  0  0  0  0  0  0  0  0
  -22.0200   -9.0170   20.4330 C   0  0  0  0  0  3  0  0  0  0  0  0
  -22.7320  -10.2120   20.2390 C   0  0  0  0  0  3  0  0  0  0  0  0
  -21.7140   -6.9170   21.4800 O   0  0  0  0  0  0  0  0  0  0  0  0
  -21.6830   -6.1810   22.6370 C   0  0  0  0  0  0  0  0  0  0  0  0
  -21.2470   -6.7360   23.8610 C   0  0  0  0  0  3  0  0  0  0  0  0
  -21.1630   -5.9250   25.0100 C   0  0  0  0  0  3  0  0  0  0  0  0
  -21.5050   -4.5610   24.9380 C   0  0  0  0  0  0  0  0  0  0  0  0
  -21.9340   -4.0070   23.7210 C   0  0  0  0  0  3  0  0  0  0  0  0
  -22.0190   -4.8140   22.5720 C   0  0  0  0  0  0  0  0  0  0  0  0
  -22.4130   -4.2690   21.3960 F   0  0  0  0  0  0  0  0  0  0  0  0
  -21.4170   -3.7810   26.0410 F   0  0  0  0  0  0  0  0  0  0  0  0
  -22.7280  -13.5670   21.1310 C   0  0  0  0  0  0  0  0  0  0  0  0
  -22.0210  -12.8610   22.0070 N   0  0  0  0  0  0  0  0  0  0  0  0
  -22.2730  -14.5920   20.6240 O   0  0  0  0  0  0  0  0  0  0  0  0
  -22.4000  -12.0340   22.4430 H   0  0  0  0  0  0  0  0  0  0  0  0
  -21.0850  -13.1550   22.2470 H   0  0  0  0  0  0  0  0  0  0  0  0
  -25.3220  -15.2600   20.2580 N   0  0  0  0  0  0  0  0  0  0  0  0
  -24.5430  -15.9000   20.3830 H   0  0  0  0  0  0  0  0  0  0  0  0
  -26.1490  -15.7130   19.8940 H   0  0  0  0  0  0  0  0  0  0  0  0
  -29.5050  -26.1300   22.2120 C   0  0  0  0  0  1  0  0  0  0  0  0
  -28.4750  -25.5420   21.2320 C   0  0  0  0  0  3  0  0  0  0  0  0
  -28.3860  -26.5530   20.1710 O   0  0  0  0  0  0  0  0  0  0  0  0
  -24.6040  -31.9100   23.2390 C   0  0  0  0  0  0  0  0  0  0  0  0
  -27.2780  -27.4030   20.1950 C   0  0  0  0  0  0  0  0  0  0  0  0
  -23.4250  -30.5060   21.5820 C   0  0  0  0  0  3  0  0  0  0  0  0
  -24.9010  -28.9710   20.1680 C   0  0  0  0  0  0  0  0  0  0  0  0
  -25.9600  -30.8520   21.4210 C   0  0  0  0  0  2  0  0  0  0  0  0
  -26.0590  -29.4760   20.7770 C   0  0  0  0  0  0  0  0  0  0  0  0
  -27.2550  -28.7020   20.7850 C   0  0  0  0  0  3  0  0  0  0  0  0
  -26.1070  -26.9390   19.5710 C   0  0  0  0  0  3  0  0  0  0  0  0
  -24.9250  -27.7060   19.5570 C   0  0  0  0  0  3  0  0  0  0  0  0
  -23.6570  -29.8340   20.2040 C   0  0  0  0  0  2  0  0  0  0  0  0
  -24.6800  -31.1060   22.1380 N   0  0  0  0  0  0  0  0  0  0  0  0
  -23.5150  -32.1780   23.7660 O   0  0  0  0  0  0  0  0  0  0  0  0
  -22.7630  -29.4810   22.5340 C   0  0  0  0  0  0  0  0  0  0  0  0
  -21.4410  -29.2940   22.3940 N   0  0  0  0  0  0  0  0  0  0  0  0
  -23.4390  -28.8580   23.3570 O   0  0  0  0  0  0  0  0  0  0  0  0
  -20.9530  -29.8470   21.7020 H   0  0  0  0  0  0  0  0  0  0  0  0
  -18.0650  -28.0910   22.8740 C   0  0  0  0  0  0  0  0  0  0  0  0
  -20.6210  -28.3480   23.1530 C   0  0  0  0  0  3  0  0  0  0  0  0
  -20.7260  -26.9230   22.5630 C   0  0  0  0  0  2  0  0  0  0  0  0
  -19.6260  -26.6090   21.5440 C   0  0  0  0  0  2  0  0  0  0  0  0
  -18.2430  -26.7480   22.1860 C   0  0  0  0  0  2  0  0  0  0  0  0
  -19.1810  -28.8480   23.3140 C   0  0  0  0  0  0  0  0  0  0  0  0
  -18.9610  -30.1060   23.9170 C   0  0  0  0  0  3  0  0  0  0  0  0
  -17.6550  -30.6060   24.0850 C   0  0  0  0  0  3  0  0  0  0  0  0
  -16.5520  -29.8430   23.6610 C   0  0  0  0  0  3  0  0  0  0  0  0
  -16.7570  -28.5880   23.0620 C   0  0  0  0  0  3  0  0  0  0  0  0
  -25.8790  -32.5480   23.8730 C   0  0  0  0  0  3  0  0  0  0  0  0
  -25.5610  -33.9470   24.1910 N   0  0  0  0  0  0  0  0  0  0  0  0
  -25.9010  -34.9970   23.4320 C   0  0  0  0  0  0  0  0  0  0  0  0
  -26.5860  -34.8900   22.4100 O   0  0  0  0  0  0  0  0  0  0  0  0
  -24.9540  -34.1050   24.9820 H   0  0  0  0  0  0  0  0  0  0  0  0
  -24.1780  -36.7870   23.0420 C   0  0  0  0  0  1  0  0  0  0  0  0
  -25.4060  -36.3880   23.8750 C   0  0  0  0  0  3  0  0  0  0  0  0
  -27.5250  -37.2790   24.7380 C   0  0  0  0  0  1  0  0  0  0  0  0
  -26.4390  -37.4410   23.7750 N   0  0  0  0  0  0  0  0  0  0  0  0
  -26.0290  -38.3610   23.9090 H   0  0  0  0  0  0  0  0  0  0  0  0
  -26.3800  -31.7850   25.1600 C   0  0  1  0  0  0  0  0  0  0  0  0
  -25.2740  -31.5520   26.2160 C   0  0  0  0  0  1  0  0  0  0  0  0
  -26.9720  -30.4060   24.7850 C   0  0  0  0  0  1  0  0  0  0  0  0
  -27.5190  -32.5860   25.8340 C   0  0  0  0  0  1  0  0  0  0  0  0
  1  5  1  0
  3  5  1  0
  3  2  1  0
  4 13  1  0
  4  2  1  0
  5 54  1  0
  6  1  1  0
  6  4  1  0
  7  1  2  0
  8  6  1  0
 10  9  2  0
 11  9  1  0
 12 13  2  0
 12 14  1  0
 13 10  1  0
 14 11  2  0
 15 23  1  0
 16 21  1  0
 17 18  1  0
 17 16  1  0
 19 18  1  0
 19 28  1  0
 19 20  1  0
 21 15  1  0
 21 20  1  0
 22 15  2  0
 23 24  1  0
 23 14  1  0
 25 26  2  0
 26 45  1  0
 27 26  1  0
 27 30  1  0
 28 25  1  0
 28 29  1  0
 29 27  2  0
 30 31  1  0
 31 32  2  0
 33 36  1  0
 33 32  1  0
 34 33  2  0
 35 34  1  0
 35 30  2  0
 36 37  1  0
 37 38  1  0
 38 39  2  0
 40 39  1  0
 40 44  1  0
 41 40  2  0
 42 37  2  0
 42 41  1  0
 43 42  1  0
 45 46  1  0
 46 49  1  0
 46 48  1  0
 47 45  2  0
 50 51  1  0
 50 25  1  0
 52 50  1  0
 54 53  1  0
 55 57  1  0
 55 54  1  0
 56 67  2  0
 57 62  1  0
 58 66  1  0
 58 68  1  0
 59 65  1  0
 59 61  1  0
 60 66  1  0
 61 62  2  0
 61 60  1  0
 63 57  2  0
 64 63  1  0
 64 59  2  0
 65 58  1  0
 66 56  1  0
 68 70  2  0
 69 68  1  0
 71 69  1  0
 72 81  2  0
 72 77  1  0
 73 69  1  0
 73 77  1  0
 74 73  1  0
 75 76  1  0
 75 74  1  0
 76 72  1  0
 77 78  2  0
 78 79  1  0
 80 79  2  0
 81 80  1  0
 82 56  1  0
 82 83  1  0
 82 92  1  0
 83 86  1  0
 84 88  1  0
 84 83  1  0
 85 84  2  0
 88 87  1  0
 90 88  1  0
 90 91  1  0
 90 89  1  0
 92 95  1  1
 92 93  1  0
 94 92  1  0
M  ISO  4  15 100  23 100  54 101  55 101
M  END
>  <TORSDO>  (9) 
F 18

>  <SCORE>  (9) 
-15.062

>  <name>  (9) 
8

>  <ligand_id>  (9) 
8

>  <original_smiles>  (9) 
[H]c1c([H])c([H])c2c(c1[H])C([H])([H])C([H])([H])C([H])([H])C2([H])N([H])C(=O)C1([H])N(C(=O)C([H])(N([H])C(=O)C([H])(N([H])C([H])([H])[H])C([H])([H])[H])C(C([H])([H])[H])(C([H])([H])[H])C([H])([H])[H])C([H])([H])c2c([H])c(OC([H])(C([H])([H])[H])C3([H])C(=O)N([H])C([H])(c4c([H])c([H])c([H])c(N([H])C(=O)N5C([H])([H])C([H])([H])C([H])([H])C([H])(n6nc(-c7c([H])c([H])c(Oc8c([H])c([H])c(F)c([H])c8F)c([H])c7[H])c(C(=O)N([H])[H])c6N([H])[H])C5([H])[H])c4[H])C([H])([H])C3([H])[H])c([H])c([H])c2C1([H])[H]

>  <smiles>  (9) 
[H]c1c([H])c([H])c2c(c1[H])C([H])([H])C([H])([H])C([H])([H])C2([H])N([H])C(=O)C1([H])N(C(=O)C([H])(N([H])C(=O)C([H])(N([H])C([H])([H])[H])C([H])([H])[H])C(C([H])([H])[H])(C([H])([H])[H])C([H])([H])[H])C([H])([H])c2c([H])c(OC([H])(C([H])([H])[H])C3([H])C(=O)N([H])C([H])(c4c([H])c([H])c([H])c(N([H])C(=O)N5C([H])([H])C([H])([H])C([H])([H])C([H])(n6nc(-c7c([H])c([H])c(Oc8c([H])c([H])c(F)c([H])c8F)c([H])c7[H])c(C(=O)N([H])[H])c6N([H])[H])C5([H])[H])c4[H])C([H])([H])C3([H])[H])c([H])c([H])c2C1([H])[H]

$$$$
9:0:0
     RDKit          3D

 95104  0  0  1  0  0  0  0  0999 V2000
  -31.6860  -18.1620   19.3640 C   0  0  0  0  0  2  0  0  0  0  0  0
  -31.6780  -19.1920   18.2150 C   0  0  0  0  0  2  0  0  0  0  0  0
  -29.9050  -20.5170   19.7070 C   0  0  0  0  0  3  0  0  0  0  0  0
  -30.2420  -17.7660   19.7520 C   0  0  0  0  0  3  0  0  0  0  0  0
  -30.4510  -20.1230   18.3170 C   0  0  0  0  0  3  0  0  0  0  0  0
  -29.3310  -19.0480   19.6340 C   0  0  0  0  0  3  0  0  0  0  0  0
  -29.2110  -19.3390   18.1990 N   0  0  0  0  0  4  0  0  0  0  0  0
  -29.2490  -18.5440   17.5800 H   0  0  0  0  0  0  0  0  0  0  0  0
  -28.4110  -19.9280   18.0150 H   0  0  0  0  0  0  0  0  0  0  0  0
  -28.9220  -21.7470   19.6310 C   0  0  0  0  0  0  0  0  0  0  0  0
  -29.3930  -22.9950   19.8510 N   0  0  0  0  0  0  0  0  0  0  0  0
  -27.7570  -21.5510   19.2800 O   0  0  0  0  0  0  0  0  0  0  0  0
  -30.3560  -23.0630   20.1590 H   0  0  0  0  0  0  0  0  0  0  0  0
  -28.7610  -24.2750   19.4280 C   0  0  0  0  0  2  0  0  0  0  0  0
  -28.4360  -25.2860   20.5740 C   0  0  0  0  0  2  0  0  0  0  0  0
  -28.4530  -26.6840   20.1820 O   0  0  0  0  0  0  0  0  0  0  0  0
  -24.5990  -31.8850   23.2460 C   0  0  0  0  0  0  0  0  0  0  0  0
  -27.2710  -27.4060   20.2010 C   0  0  0  0  0  0  0  0  0  0  0  0
  -23.4050  -30.4720   21.6040 C   0  0  0  0  0  3  0  0  0  0  0  0
  -24.8700  -28.9220   20.1970 C   0  0  0  0  0  0  0  0  0  0  0  0
  -25.9340  -30.8280   21.4180 C   0  0  0  0  0  2  0  0  0  0  0  0
  -26.0270  -29.4520   20.7820 C   0  0  0  0  0  0  0  0  0  0  0  0
  -27.2310  -28.7060   20.7680 C   0  0  0  0  0  3  0  0  0  0  0  0
  -26.0930  -26.8920   19.6200 C   0  0  0  0  0  3  0  0  0  0  0  0
  -24.9000  -27.6420   19.6130 C   0  0  0  0  0  3  0  0  0  0  0  0
  -23.6240  -29.7820   20.2310 C   0  0  0  0  0  2  0  0  0  0  0  0
  -24.6640  -31.0790   22.1480 N   0  0  0  0  0  0  0  0  0  0  0  0
  -23.5130  -32.1560   23.7790 O   0  0  0  0  0  0  0  0  0  0  0  0
  -22.7480  -29.4570   22.5670 C   0  0  0  0  0  0  0  0  0  0  0  0
  -21.4240  -29.2750   22.4370 N   0  0  0  0  0  0  0  0  0  0  0  0
  -23.4280  -28.8350   23.3880 O   0  0  0  0  0  0  0  0  0  0  0  0
  -20.9360  -29.8320   21.7480 H   0  0  0  0  0  0  0  0  0  0  0  0
  -18.0490  -28.0750   22.9220 C   0  0  0  0  0  0  0  0  0  0  0  0
  -20.6050  -28.3380   23.2050 C   0  0  0  0  0  3  0  0  0  0  0  0
  -20.7120  -26.9050   22.6340 C   0  0  0  0  0  2  0  0  0  0  0  0
  -19.6150  -26.5780   21.6150 C   0  0  0  0  0  2  0  0  0  0  0  0
  -18.2310  -26.7230   22.2520 C   0  0  0  0  0  2  0  0  0  0  0  0
  -19.1640  -28.8400   23.3550 C   0  0  0  0  0  0  0  0  0  0  0  0
  -18.9410  -30.1050   23.9400 C   0  0  0  0  0  3  0  0  0  0  0  0
  -17.6360  -30.6050   24.0970 C   0  0  0  0  0  3  0  0  0  0  0  0
  -16.5330  -29.8380   23.6820 C   0  0  0  0  0  3  0  0  0  0  0  0
  -16.7420  -28.5750   23.0980 C   0  0  0  0  0  3  0  0  0  0  0  0
  -25.8790  -32.5220   23.8710 C   0  0  0  0  0  3  0  0  0  0  0  0
  -26.3960  -31.7570   25.1510 C   0  0  1  0  0  0  0  0  0  0  0  0
  -25.3030  -31.5210   26.2190 C   0  0  0  0  0  1  0  0  0  0  0  0
  -26.9810  -30.3790   24.7620 C   0  0  0  0  0  1  0  0  0  0  0  0
  -27.5430  -32.5560   25.8130 C   0  0  0  0  0  1  0  0  0  0  0  0
  -25.5650  -33.9200   24.1960 N   0  0  0  0  0  0  0  0  0  0  0  0
  -25.9000  -34.9720   23.4350 C   0  0  0  0  0  0  0  0  0  0  0  0
  -26.5750  -34.8670   22.4070 O   0  0  0  0  0  0  0  0  0  0  0  0
  -24.9630  -34.0760   24.9900 H   0  0  0  0  0  0  0  0  0  0  0  0
  -24.1660  -36.7570   23.0720 C   0  0  0  0  0  1  0  0  0  0  0  0
  -25.4080  -36.3610   23.8860 C   0  0  0  0  0  3  0  0  0  0  0  0
  -27.5400  -37.2530   24.7130 C   0  0  0  0  0  1  0  0  0  0  0  0
  -26.4380  -37.4170   23.7690 N   0  0  0  0  0  0  0  0  0  0  0  0
  -26.0300  -38.3360   23.9150 H   0  0  0  0  0  0  0  0  0  0  0  0
  -30.2000  -16.9750   21.1020 C   0  0  0  0  0  2  0  0  0  0  0  0
  -30.6310  -14.5140   20.5130 C   0  0  0  0  0  0  0  0  0  0  0  0
  -30.3570  -12.3450   19.3560 C   0  0  0  0  0  2  0  0  0  0  0  0
  -29.4230  -12.5590   18.1470 C   0  0  0  0  0  2  0  0  0  0  0  0
  -27.9420  -12.4300   18.5610 C   0  0  0  0  0  2  0  0  0  0  0  0
  -27.6010  -13.2560   19.8300 C   0  0  0  0  0  3  0  0  0  0  0  0
  -28.6460  -13.0180   20.9430 C   0  0  0  0  0  2  0  0  0  0  0  0
  -29.9750  -13.3270   20.3850 N   0  0  0  0  0  0  0  0  0  0  0  0
  -31.7710  -14.6990   20.0850 O   0  0  0  0  0  0  0  0  0  0  0  0
  -29.8760  -15.5330   20.9800 N   0  0  0  0  0  0  0  0  0  0  0  0
  -28.9540  -15.2640   21.2890 H   0  0  0  0  0  0  0  0  0  0  0  0
  -25.1990  -13.8790   20.5080 C   0  0  0  0  0  0  0  0  0  0  0  0
  -24.1240  -13.1160   20.8710 C   0  0  0  0  0  0  0  0  0  0  0  0
  -24.5770  -11.7610   20.8580 C   0  0  0  0  0  0  0  0  0  0  0  0
  -26.2420  -12.9910   20.2970 N   0  0  0  0  0  0  0  0  0  0  0  0
  -25.8710  -11.7130   20.5640 N   0  0  0  0  0  0  0  0  0  0  0  0
  -23.8420  -10.5030   21.0500 C   0  0  0  0  0  0  0  0  0  0  0  0
  -24.2720   -9.5340   21.9820 C   0  0  0  0  0  3  0  0  0  0  0  0
  -23.5390   -8.3410   22.1640 C   0  0  0  0  0  3  0  0  0  0  0  0
  -22.3620   -8.1110   21.4130 C   0  0  0  0  0  0  0  0  0  0  0  0
  -21.9510   -9.0700   20.4690 C   0  0  0  0  0  3  0  0  0  0  0  0
  -22.6850  -10.2540   20.2870 C   0  0  0  0  0  3  0  0  0  0  0  0
  -21.6010   -6.9700   21.5020 O   0  0  0  0  0  0  0  0  0  0  0  0
  -21.5620   -6.2180   22.6490 C   0  0  0  0  0  0  0  0  0  0  0  0
  -21.1730   -6.7700   23.8880 C   0  0  0  0  0  3  0  0  0  0  0  0
  -21.0800   -5.9460   25.0270 C   0  0  0  0  0  3  0  0  0  0  0  0
  -21.3680   -4.5710   24.9280 C   0  0  0  0  0  0  0  0  0  0  0  0
  -21.7510   -4.0190   23.6930 C   0  0  0  0  0  3  0  0  0  0  0  0
  -21.8450   -4.8410   22.5560 C   0  0  0  0  0  0  0  0  0  0  0  0
  -22.1930   -4.2990   21.3640 F   0  0  0  0  0  0  0  0  0  0  0  0
  -21.2700   -3.7780   26.0200 F   0  0  0  0  0  0  0  0  0  0  0  0
  -22.7250  -13.6010   21.1250 C   0  0  0  0  0  0  0  0  0  0  0  0
  -21.9860  -12.9170   21.9910 N   0  0  0  0  0  0  0  0  0  0  0  0
  -22.2960  -14.6240   20.5890 O   0  0  0  0  0  0  0  0  0  0  0  0
  -22.3440  -12.0890   22.4430 H   0  0  0  0  0  0  0  0  0  0  0  0
  -21.0490  -13.2250   22.2050 H   0  0  0  0  0  0  0  0  0  0  0  0
  -25.3750  -15.2480   20.3180 N   0  0  0  0  0  0  0  0  0  0  0  0
  -24.6090  -15.9070   20.3990 H   0  0  0  0  0  0  0  0  0  0  0  0
  -26.2300  -15.6720   19.9840 H   0  0  0  0  0  0  0  0  0  0  0  0
  1  4  1  0
  2  1  1  0
  3 10  1  0
  4 57  1  0
  5  2  1  0
  5  3  1  0
  6  7  1  0
  6  3  1  0
  6  4  1  0
  7  5  1  0
  8  7  1  0
  9  7  1  0
 10 11  1  0
 11 13  1  0
 12 10  2  0
 14 11  1  0
 14 15  1  0
 16 18  1  0
 16 15  1  0
 17 28  2  0
 18 23  1  0
 19 27  1  0
 19 29  1  0
 20 26  1  0
 20 22  1  0
 21 27  1  0
 22 21  1  0
 23 22  2  0
 24 18  2  0
 25 24  1  0
 25 20  2  0
 26 19  1  0
 27 17  1  0
 29 31  2  0
 30 29  1  0
 32 30  1  0
 33 42  2  0
 33 38  1  0
 34 30  1  0
 34 38  1  0
 35 34  1  0
 36 37  1  0
 36 35  1  0
 37 33  1  0
 38 39  2  0
 39 40  1  0
 41 40  2  0
 42 41  1  0
 43 17  1  0
 43 48  1  0
 43 44  1  0
 44 47  1  1
 44 45  1  0
 46 44  1  0
 48 51  1  0
 49 53  1  0
 49 48  1  0
 50 49  2  0
 53 52  1  0
 55 53  1  0
 55 56  1  0
 55 54  1  0
 58 66  1  0
 59 64  1  0
 60 61  1  0
 60 59  1  0
 62 61  1  0
 62 71  1  0
 62 63  1  0
 64 58  1  0
 64 63  1  0
 65 58  2  0
 66 57  1  0
 66 67  1  0
 68 69  2  0
 69 88  1  0
 70 69  1  0
 70 73  1  0
 71 68  1  0
 71 72  1  0
 72 70  2  0
 73 74  1  0
 74 75  2  0
 76 79  1  0
 76 75  1  0
 77 76  2  0
 78 77  1  0
 78 73  2  0
 79 80  1  0
 80 81  1  0
 81 82  2  0
 83 82  1  0
 83 87  1  0
 84 83  2  0
 85 80  2  0
 85 84  1  0
 86 85  1  0
 88 89  1  0
 89 92  1  0
 89 91  1  0
 90 88  2  0
 93 94  1  0
 93 68  1  0
 95 93  1  0
M  ISO  4  15 101  16 101  58 100  66 100
M  END
>  <TORSDO>  (10) 
F 20

>  <SCORE>  (10) 
-13.950

>  <name>  (10) 
9

>  <ligand_id>  (10) 
9

>  <original_smiles>  (10) 
[H]c1c([H])c([H])c2c(c1[H])C([H])([H])C([H])([H])C([H])([H])C2([H])N([H])C(=O)C1([H])N(C(=O)C([H])(N([H])C(=O)C([H])(N([H])C([H])([H])[H])C([H])([H])[H])C(C([H])([H])[H])(C([H])([H])[H])C([H])([H])[H])C([H])([H])c2c([H])c(OC([H])([H])C([H])([H])N([H])C(=O)C3([H])C4([H])C([H])([H])C([H])([H])C([H])(C([H])([H])N([H])C(=O)N5C([H])([H])C([H])([H])C([H])([H])C([H])(n6nc(-c7c([H])c([H])c(Oc8c([H])c([H])c(F)c([H])c8F)c([H])c7[H])c(C(=O)N([H])[H])c6N([H])[H])C5([H])[H])C3([H])[N+]4([H])[H])c([H])c([H])c2C1([H])[H]

>  <smiles>  (10) 
[H]c1c([H])c([H])c2c(c1[H])C([H])([H])C([H])([H])C([H])([H])C2([H])N([H])C(=O)C1([H])N(C(=O)C([H])(N([H])C(=O)C([H])(N([H])C([H])([H])[H])C([H])([H])[H])C(C([H])([H])[H])(C([H])([H])[H])C([H])([H])[H])C([H])([H])c2c([H])c(OC([H])([H])C([H])([H])N([H])C(=O)C3([H])C4([H])C([H])([H])C([H])([H])C([H])(C([H])([H])N([H])C(=O)N5C([H])([H])C([H])([H])C([H])([H])C([H])(n6nc(-c7c([H])c([H])c(Oc8c([H])c([H])c(F)c([H])c8F)c([H])c7[H])c(C(=O)N([H])[H])c6N([H])[H])C5([H])[H])C3([H])[N+]4([H])[H])c([H])c([H])c2C1([H])[H]

$$$$
10:0:0
     RDKit          3D

 90 98  0  0  1  0  0  0  0  0999 V2000
  -31.2990  -22.3620   19.8940 C   0  0  0  0  0  3  0  0  0  0  0  0
  -30.3910  -23.4550   19.8840 C   0  0  0  0  0  3  0  0  0  0  0  0
  -30.8880  -21.0060   19.7900 C   0  0  0  0  0  3  0  0  0  0  0  0
  -28.6180  -21.8260   19.6570 C   0  0  0  0  0  3  0  0  0  0  0  0
  -28.9950  -23.2690   19.7630 C   0  0  0  0  0  0  0  0  0  0  0  0
  -29.5280  -20.6400   19.6690 C   0  0  0  0  0  0  0  0  0  0  0  0
  -28.3300  -18.8610   18.2490 C   0  0  0  0  0  1  0  0  0  0  0  0
  -28.1470  -18.7400   20.7290 C   0  0  0  0  0  1  0  0  0  0  0  0
  -29.1160  -19.0270   19.5650 C   0  0  2  0  0  0  0  0  0  0  0  0
  -30.2370  -17.7480   19.5890 C   0  0  0  0  0  2  0  0  0  0  0  0
  -30.6470  -15.0170   19.7540 C   0  0  0  0  0  0  0  0  0  0  0  0
  -30.4860  -12.6170   18.9490 C   0  0  0  0  0  2  0  0  0  0  0  0
  -29.4870  -12.5300   17.7750 C   0  0  0  0  0  2  0  0  0  0  0  0
  -28.0550  -12.3180   18.3020 C   0  0  0  0  0  2  0  0  0  0  0  0
  -27.7090  -13.2850   19.4640 C   0  0  0  0  0  3  0  0  0  0  0  0
  -28.8280  -13.3590   20.5240 C   0  0  0  0  0  2  0  0  0  0  0  0
  -30.0530  -13.7540   19.8140 N   0  0  0  0  0  0  0  0  0  0  0  0
  -31.8360  -15.0580   19.4190 O   0  0  0  0  0  0  0  0  0  0  0  0
  -29.8820  -16.2170   19.8490 N   0  0  0  0  0  0  0  0  0  0  0  0
  -28.9130  -16.0560   20.0800 H   0  0  0  0  0  0  0  0  0  0  0  0
  -25.4040  -13.8910   20.3960 C   0  0  0  0  0  0  0  0  0  0  0  0
  -24.3500  -13.1340   20.8150 C   0  0  0  0  0  0  0  0  0  0  0  0
  -24.7710  -11.7730   20.7070 C   0  0  0  0  0  0  0  0  0  0  0  0
  -26.4050  -12.9980   20.0520 N   0  0  0  0  0  0  0  0  0  0  0  0
  -26.0370  -11.7140   20.3040 N   0  0  0  0  0  0  0  0  0  0  0  0
  -24.0240  -10.5250   20.9100 C   0  0  0  0  0  0  0  0  0  0  0  0
  -24.4660   -9.5370   21.8180 C   0  0  0  0  0  3  0  0  0  0  0  0
  -23.7190   -8.3540   22.0120 C   0  0  0  0  0  3  0  0  0  0  0  0
  -22.5180   -8.1480   21.2930 C   0  0  0  0  0  0  0  0  0  0  0  0
  -22.0930   -9.1240   20.3720 C   0  0  0  0  0  3  0  0  0  0  0  0
  -22.8390  -10.2980   20.1790 C   0  0  0  0  0  3  0  0  0  0  0  0
  -21.7420   -7.0200   21.3940 O   0  0  0  0  0  0  0  0  0  0  0  0
  -21.6800   -6.2890   22.5550 C   0  0  0  0  0  0  0  0  0  0  0  0
  -21.2490   -6.8630   23.7690 C   0  0  0  0  0  3  0  0  0  0  0  0
  -21.1320   -6.0630   24.9250 C   0  0  0  0  0  3  0  0  0  0  0  0
  -21.4360   -4.6890   24.8630 C   0  0  0  0  0  0  0  0  0  0  0  0
  -21.8580   -4.1130   23.6510 C   0  0  0  0  0  3  0  0  0  0  0  0
  -21.9770   -4.9120   22.4990 C   0  0  0  0  0  0  0  0  0  0  0  0
  -22.3670   -4.3490   21.3290 F   0  0  0  0  0  0  0  0  0  0  0  0
  -21.3160   -3.9170   25.9680 F   0  0  0  0  0  0  0  0  0  0  0  0
  -22.9870  -13.6360   21.1990 C   0  0  0  0  0  0  0  0  0  0  0  0
  -22.3020  -12.9360   22.0940 N   0  0  0  0  0  0  0  0  0  0  0  0
  -22.5420  -14.6880   20.7370 O   0  0  0  0  0  0  0  0  0  0  0  0
  -22.6740  -12.0860   22.4900 H   0  0  0  0  0  0  0  0  0  0  0  0
  -21.3930  -13.2630   22.3920 H   0  0  0  0  0  0  0  0  0  0  0  0
  -25.5900  -15.2650   20.2530 N   0  0  0  0  0  0  0  0  0  0  0  0
  -24.8410  -15.9280   20.4130 H   0  0  0  0  0  0  0  0  0  0  0  0
  -26.4090  -15.6900   19.8440 H   0  0  0  0  0  0  0  0  0  0  0  0
  -27.9800  -24.5860   19.6630 C   0  0  0  0  0  2  0  0  0  0  0  0
  -28.2780  -26.1090   19.9410 O   0  0  0  0  0  0  0  0  0  0  0  0
  -24.6180  -31.7100   23.1720 C   0  0  0  0  0  0  0  0  0  0  0  0
  -27.2150  -27.1030   19.9370 C   0  0  0  0  0  0  0  0  0  0  0  0
  -23.4200  -30.3670   21.4920 C   0  0  0  0  0  3  0  0  0  0  0  0
  -24.8680  -28.8520   20.0000 C   0  0  0  0  0  0  0  0  0  0  0  0
  -25.9760  -30.6440   21.3260 C   0  0  0  0  0  2  0  0  0  0  0  0
  -26.0530  -29.2760   20.6160 C   0  0  0  0  0  0  0  0  0  0  0  0
  -27.2250  -28.4200   20.5640 C   0  0  0  0  0  3  0  0  0  0  0  0
  -25.9930  -26.7880   19.2970 C   0  0  0  0  0  3  0  0  0  0  0  0
  -24.8520  -27.6200   19.3290 C   0  0  0  0  0  3  0  0  0  0  0  0
  -23.6340  -29.7370   20.0910 C   0  0  0  0  0  2  0  0  0  0  0  0
  -24.6920  -30.9290   22.0500 N   0  0  0  0  0  0  0  0  0  0  0  0
  -23.5310  -31.9690   23.7120 O   0  0  0  0  0  0  0  0  0  0  0  0
  -22.7520  -29.3220   22.4210 C   0  0  0  0  0  0  0  0  0  0  0  0
  -21.4230  -29.1500   22.2960 N   0  0  0  0  0  0  0  0  0  0  0  0
  -23.4300  -28.6720   23.2200 O   0  0  0  0  0  0  0  0  0  0  0  0
  -20.9320  -29.7320   21.6320 H   0  0  0  0  0  0  0  0  0  0  0  0
  -18.0460  -27.9260   22.7990 C   0  0  0  0  0  0  0  0  0  0  0  0
  -20.6090  -28.1800   23.0360 C   0  0  0  0  0  3  0  0  0  0  0  0
  -20.7000  -26.7730   22.3980 C   0  0  0  0  0  2  0  0  0  0  0  0
  -19.5820  -26.4930   21.3890 C   0  0  0  0  0  2  0  0  0  0  0  0
  -18.2110  -26.6100   22.0590 C   0  0  0  0  0  2  0  0  0  0  0  0
  -19.1710  -28.6720   23.2420 C   0  0  0  0  0  0  0  0  0  0  0  0
  -18.9600  -29.9060   23.8940 C   0  0  0  0  0  3  0  0  0  0  0  0
  -17.6560  -30.3940   24.1060 C   0  0  0  0  0  3  0  0  0  0  0  0
  -16.5460  -29.6440   23.6780 C   0  0  0  0  0  3  0  0  0  0  0  0
  -16.7440  -28.4120   23.0310 C   0  0  0  0  0  3  0  0  0  0  0  0
  -25.8930  -32.3340   23.8180 C   0  0  0  0  0  3  0  0  0  0  0  0
  -26.3960  -31.5400   25.0860 C   0  0  1  0  0  0  0  0  0  0  0  0
  -25.2960  -31.2820   26.1430 C   0  0  0  0  0  1  0  0  0  0  0  0
  -26.9810  -30.1680   24.6830 C   0  0  0  0  0  1  0  0  0  0  0  0
  -27.5440  -32.3220   25.7690 C   0  0  0  0  0  1  0  0  0  0  0  0
  -25.5760  -33.7260   24.1770 N   0  0  0  0  0  0  0  0  0  0  0  0
  -25.8890  -34.7990   23.4370 C   0  0  0  0  0  0  0  0  0  0  0  0
  -26.5420  -34.7190   22.3920 O   0  0  0  0  0  0  0  0  0  0  0  0
  -24.9990  -33.8600   24.9940 H   0  0  0  0  0  0  0  0  0  0  0  0
  -24.1390  -36.5880   23.1640 C   0  0  0  0  0  1  0  0  0  0  0  0
  -25.4060  -36.1760   23.9330 C   0  0  0  0  0  3  0  0  0  0  0  0
  -27.5550  -37.0670   24.7200 C   0  0  0  0  0  1  0  0  0  0  0  0
  -26.4260  -37.2410   23.8090 N   0  0  0  0  0  0  0  0  0  0  0  0
  -26.0150  -38.1540   23.9820 H   0  0  0  0  0  0  0  0  0  0  0  0
  2  1  1  0
  3  1  2  0
  4  6  2  0
  4  5  1  0
  5  2  2  0
  6  3  1  0
  9  7  1  6
  9 10  1  0
  9  6  1  0
  9  8  1  0
 10 19  1  0
 11 17  1  0
 11 19  1  0
 12 17  1  0
 13 14  1  0
 13 12  1  0
 15 14  1  0
 15 24  1  0
 15 16  1  0
 17 16  1  0
 18 11  2  0
 19 20  1  0
 21 22  2  0
 22 41  1  0
 23 22  1  0
 23 26  1  0
 24 25  1  0
 24 21  1  0
 25 23  2  0
 26 27  1  0
 27 28  2  0
 29 32  1  0
 29 28  1  0
 30 29  2  0
 31 30  1  0
 31 26  2  0
 32 33  1  0
 33 34  1  0
 34 35  2  0
 36 35  1  0
 36 40  1  0
 37 36  2  0
 38 33  2  0
 38 37  1  0
 39 38  1  0
 41 42  1  0
 42 45  1  0
 42 44  1  0
 43 41  2  0
 46 21  1  0
 46 47  1  0
 48 46  1  0
 49  5  1  0
 49 50  1  0
 51 62  2  0
 52 50  1  0
 52 57  1  0
 53 61  1  0
 53 63  1  0
 54 60  1  0
 54 56  1  0
 55 61  1  0
 56 55  1  0
 57 56  2  0
 58 59  1  0
 58 52  2  0
 59 54  2  0
 60 53  1  0
 61 51  1  0
 63 65  2  0
 64 63  1  0
 66 64  1  0
 67 76  2  0
 67 72  1  0
 68 64  1  0
 68 72  1  0
 69 68  1  0
 70 71  1  0
 70 69  1  0
 71 67  1  0
 72 73  2  0
 73 74  1  0
 75 74  2  0
 76 75  1  0
 77 51  1  0
 77 82  1  0
 77 78  1  0
 78 81  1  1
 78 79  1  0
 80 78  1  0
 82 85  1  0
 83 87  1  0
 83 82  1  0
 84 83  2  0
 87 86  1  0
 89 87  1  0
 89 90  1  0
 89 88  1  0
M  ISO  4  11 100  19 100  49 101  50 101
M  END
>  <TORSDO>  (11) 
F 19

>  <SCORE>  (11) 
-14.323

>  <name>  (11) 
10

>  <ligand_id>  (11) 
10

>  <original_smiles>  (11) 
[H]c1c([H])c([H])c2c(c1[H])C([H])([H])C([H])([H])C([H])([H])C2([H])N([H])C(=O)C1([H])N(C(=O)C([H])(N([H])C(=O)C([H])(N([H])C([H])([H])[H])C([H])([H])[H])C(C([H])([H])[H])(C([H])([H])[H])C([H])([H])[H])C([H])([H])c2c([H])c(OC([H])([H])c3c([H])c([H])c([H])c(C(C([H])([H])[H])(C([H])([H])[H])C([H])([H])N([H])C(=O)N4C([H])([H])C([H])([H])C([H])([H])C([H])(n5nc(-c6c([H])c([H])c(Oc7c([H])c([H])c(F)c([H])c7F)c([H])c6[H])c(C(=O)N([H])[H])c5N([H])[H])C4([H])[H])c3[H])c([H])c([H])c2C1([H])[H]

>  <smiles>  (11) 
[H]c1c([H])c([H])c2c(c1[H])C([H])([H])C([H])([H])C([H])([H])C2([H])N([H])C(=O)C1([H])N(C(=O)C([H])(N([H])C(=O)C([H])(N([H])C([H])([H])[H])C([H])([H])[H])C(C([H])([H])[H])(C([H])([H])[H])C([H])([H])[H])C([H])([H])c2c([H])c(OC([H])([H])c3c([H])c([H])c([H])c(C(C([H])([H])[H])(C([H])([H])[H])C([H])([H])N([H])C(=O)N4C([H])([H])C([H])([H])C([H])([H])C([H])(n5nc(-c6c([H])c([H])c(Oc7c([H])c([H])c(F)c([H])c7F)c([H])c6[H])c(C(=O)N([H])[H])c5N([H])[H])C4([H])[H])c3[H])c([H])c([H])c2C1([H])[H]

$$$$
11:0:0
     RDKit          3D

 95104  0  0  1  0  0  0  0  0999 V2000
  -30.5910  -21.2350   22.1970 C   0  0  0  0  0  2  0  0  0  0  0  0
  -29.1120  -19.0380   20.4420 C   0  0  0  0  0  2  0  0  0  0  0  0
  -31.4590  -18.2110   20.9680 C   0  0  0  0  0  2  0  0  0  0  0  0
  -29.1800  -21.8720   22.1300 C   0  0  0  0  0  2  0  0  0  0  0  0
  -30.9430  -20.8170   20.7600 C   0  0  0  0  0  3  0  0  0  0  0  0
  -30.1830  -17.7700   20.2110 C   0  0  0  0  0  3  0  0  0  0  0  0
  -29.5530  -20.6350   20.1300 C   0  0  0  0  0  3  0  0  0  0  0  0
  -31.9710  -19.6440   20.6100 C   0  0  0  0  0  3  0  0  0  0  0  0
  -28.7630  -21.8850   20.7060 N   0  0  2  0  0  4  0  0  0  0  0  0
  -27.7770  -21.6640   20.6640 H   0  0  0  0  0  0  0  0  0  0  0  0
  -30.5810  -15.0270   20.2380 C   0  0  0  0  0  0  0  0  0  0  0  0
  -30.4200  -12.7000   19.2540 C   0  0  0  0  0  2  0  0  0  0  0  0
  -29.4640  -12.6620   18.0390 C   0  0  0  0  0  2  0  0  0  0  0  0
  -28.0100  -12.4510   18.4920 C   0  0  0  0  0  2  0  0  0  0  0  0
  -27.6220  -13.3620   19.6860 C   0  0  0  0  0  3  0  0  0  0  0  0
  -28.6930  -13.3620   20.7950 C   0  0  0  0  0  2  0  0  0  0  0  0
  -29.9610  -13.7800   20.1770 N   0  0  0  0  0  0  0  0  0  0  0  0
  -31.7710  -15.0730   19.9110 O   0  0  0  0  0  0  0  0  0  0  0  0
  -29.8480  -16.2300   20.4510 N   0  0  0  0  0  0  0  0  0  0  0  0
  -28.8890  -16.0550   20.7160 H   0  0  0  0  0  0  0  0  0  0  0  0
  -25.2470  -13.9210   20.4540 C   0  0  0  0  0  0  0  0  0  0  0  0
  -24.1930  -13.1380   20.8360 C   0  0  0  0  0  0  0  0  0  0  0  0
  -24.6670  -11.7910   20.7990 C   0  0  0  0  0  0  0  0  0  0  0  0
  -26.2930  -13.0520   20.2000 N   0  0  0  0  0  0  0  0  0  0  0  0
  -25.9550  -11.7650   20.4770 N   0  0  0  0  0  0  0  0  0  0  0  0
  -23.9520  -10.5220   20.9930 C   0  0  0  0  0  0  0  0  0  0  0  0
  -24.3900   -9.5650   21.9330 C   0  0  0  0  0  3  0  0  0  0  0  0
  -23.6750   -8.3630   22.1170 C   0  0  0  0  0  3  0  0  0  0  0  0
  -22.5060   -8.1100   21.3630 C   0  0  0  0  0  0  0  0  0  0  0  0
  -22.0850   -9.0570   20.4110 C   0  0  0  0  0  3  0  0  0  0  0  0
  -22.8020  -10.2500   20.2240 C   0  0  0  0  0  3  0  0  0  0  0  0
  -21.7620   -6.9580   21.4540 O   0  0  0  0  0  0  0  0  0  0  0  0
  -21.7080   -6.2260   22.6140 C   0  0  0  0  0  0  0  0  0  0  0  0
  -21.2560   -6.7870   23.8300 C   0  0  0  0  0  3  0  0  0  0  0  0
  -21.1510   -5.9820   24.9800 C   0  0  0  0  0  3  0  0  0  0  0  0
  -21.4880   -4.6160   24.9180 C   0  0  0  0  0  0  0  0  0  0  0  0
  -21.9330   -4.0550   23.7080 C   0  0  0  0  0  3  0  0  0  0  0  0
  -22.0400   -4.8580   22.5590 C   0  0  0  0  0  0  0  0  0  0  0  0
  -22.4490   -4.3060   21.3900 F   0  0  0  0  0  0  0  0  0  0  0  0
  -21.3800   -3.8390   26.0210 F   0  0  0  0  0  0  0  0  0  0  0  0
  -22.7940  -13.6040   21.1180 C   0  0  0  0  0  0  0  0  0  0  0  0
  -22.0750  -12.9010   21.9850 N   0  0  0  0  0  0  0  0  0  0  0  0
  -22.3460  -14.6280   20.6030 O   0  0  0  0  0  0  0  0  0  0  0  0
  -22.4540  -12.0800   22.4340 H   0  0  0  0  0  0  0  0  0  0  0  0
  -21.1320  -13.1890   22.2070 H   0  0  0  0  0  0  0  0  0  0  0  0
  -25.3930  -15.2940   20.2740 N   0  0  0  0  0  0  0  0  0  0  0  0
  -24.6100  -15.9300   20.3850 H   0  0  0  0  0  0  0  0  0  0  0  0
  -26.2100  -15.7380   19.8760 H   0  0  0  0  0  0  0  0  0  0  0  0
  -32.6390  -19.6720   19.2890 N   0  0  0  0  0  4  0  0  0  0  0  0
  -31.9950  -19.5880   18.5250 H   0  0  0  0  0  0  0  0  0  0  0  0
  -33.3080  -18.9250   19.2200 H   0  0  0  0  0  0  0  0  0  0  0  0
  -33.1500  -20.5290   19.1730 H   0  0  0  0  0  0  0  0  0  0  0  0
  -28.9130  -23.3570   20.0960 C   0  0  0  0  0  3  0  0  0  0  0  0
  -27.9780  -24.6940   20.5530 C   0  0  0  0  0  3  0  0  0  0  0  0
  -28.2490  -26.2100   20.2630 O   0  0  0  0  0  0  0  0  0  0  0  0
  -24.6150  -31.9120   23.2360 C   0  0  0  0  0  0  0  0  0  0  0  0
  -27.1930  -27.1950   20.2260 C   0  0  0  0  0  0  0  0  0  0  0  0
  -23.4180  -30.5080   21.6030 C   0  0  0  0  0  3  0  0  0  0  0  0
  -24.8690  -28.9430   20.1740 C   0  0  0  0  0  0  0  0  0  0  0  0
  -25.9720  -30.7840   21.4350 C   0  0  0  0  0  2  0  0  0  0  0  0
  -26.0470  -29.3900   20.7880 C   0  0  0  0  0  0  0  0  0  0  0  0
  -27.2110  -28.5320   20.7930 C   0  0  0  0  0  3  0  0  0  0  0  0
  -25.9950  -26.8570   19.5600 C   0  0  0  0  0  3  0  0  0  0  0  0
  -24.8590  -27.6920   19.5400 C   0  0  0  0  0  3  0  0  0  0  0  0
  -23.6390  -29.8350   20.2230 C   0  0  0  0  0  2  0  0  0  0  0  0
  -24.6890  -31.0910   22.1440 N   0  0  0  0  0  0  0  0  0  0  0  0
  -23.5280  -32.1940   23.7630 O   0  0  0  0  0  0  0  0  0  0  0  0
  -22.7490  -29.4960   22.5670 C   0  0  0  0  0  0  0  0  0  0  0  0
  -21.4210  -29.3150   22.4420 N   0  0  0  0  0  0  0  0  0  0  0  0
  -23.4270  -28.8750   23.3900 O   0  0  0  0  0  0  0  0  0  0  0  0
  -20.9330  -29.8700   21.7510 H   0  0  0  0  0  0  0  0  0  0  0  0
  -18.0480  -28.0990   22.9500 C   0  0  0  0  0  0  0  0  0  0  0  0
  -20.6050  -28.3760   23.2160 C   0  0  0  0  0  3  0  0  0  0  0  0
  -20.7150  -26.9420   22.6480 C   0  0  0  0  0  2  0  0  0  0  0  0
  -19.6160  -26.6090   21.6360 C   0  0  0  0  0  2  0  0  0  0  0  0
  -18.2330  -26.7500   22.2780 C   0  0  0  0  0  2  0  0  0  0  0  0
  -19.1620  -28.8710   23.3760 C   0  0  0  0  0  0  0  0  0  0  0  0
  -18.9340  -30.1330   23.9650 C   0  0  0  0  0  3  0  0  0  0  0  0
  -17.6250  -30.6240   24.1310 C   0  0  0  0  0  3  0  0  0  0  0  0
  -16.5270  -29.8500   23.7200 C   0  0  0  0  0  3  0  0  0  0  0  0
  -16.7390  -28.5890   23.1340 C   0  0  0  0  0  3  0  0  0  0  0  0
  -25.8910  -32.5560   23.8590 C   0  0  0  0  0  3  0  0  0  0  0  0
  -26.4030  -31.7980   25.1450 C   0  0  1  0  0  0  0  0  0  0  0  0
  -25.3050  -31.5680   26.2100 C   0  0  0  0  0  1  0  0  0  0  0  0
  -26.9910  -30.4180   24.7730 C   0  0  0  0  0  1  0  0  0  0  0  0
  -27.5510  -32.6000   25.8020 C   0  0  0  0  0  1  0  0  0  0  0  0
  -25.5740  -33.9550   24.1810 N   0  0  0  0  0  0  0  0  0  0  0  0
  -25.9070  -35.0080   23.4220 C   0  0  0  0  0  0  0  0  0  0  0  0
  -26.5830  -34.9040   22.3940 O   0  0  0  0  0  0  0  0  0  0  0  0
  -24.9730  -34.1110   24.9770 H   0  0  0  0  0  0  0  0  0  0  0  0
  -24.1850  -36.8050   23.0570 C   0  0  0  0  0  1  0  0  0  0  0  0
  -25.4190  -36.3990   23.8760 C   0  0  0  0  0  3  0  0  0  0  0  0
  -27.5470  -37.2820   24.7240 C   0  0  0  0  0  1  0  0  0  0  0  0
  -26.4530  -37.4510   23.7700 N   0  0  0  0  0  0  0  0  0  0  0  0
  -26.0470  -38.3710   23.9150 H   0  0  0  0  0  0  0  0  0  0  0  0
  4  1  1  0
  5  1  1  0
  6  2  1  0
  6 19  1  0
  6  3  1  0
  7  2  1  0
  7  9  1  0
  7  5  1  0
  8 49  1  0
  8  5  1  0
  8  3  1  0
  9  4  1  0
  9 10  1  1
 11 19  1  0
 12 17  1  0
 13 14  1  0
 13 12  1  0
 15 14  1  0
 15 24  1  0
 15 16  1  0
 17 11  1  0
 17 16  1  0
 18 11  2  0
 19 20  1  0
 21 22  2  0
 22 41  1  0
 23 22  1  0
 23 26  1  0
 24 21  1  0
 24 25  1  0
 25 23  2  0
 26 27  1  0
 27 28  2  0
 29 32  1  0
 29 28  1  0
 30 29  2  0
 31 30  1  0
 31 26  2  0
 32 33  1  0
 33 34  1  0
 34 35  2  0
 36 35  1  0
 36 40  1  0
 37 36  2  0
 38 33  2  0
 38 37  1  0
 39 38  1  0
 41 42  1  0
 42 45  1  0
 42 44  1  0
 43 41  2  0
 46 47  1  0
 46 21  1  0
 48 46  1  0
 50 49  1  0
 51 49  1  0
 52 49  1  0
 53 54  2  0
 53  9  1  0
 55 54  1  0
 56 67  2  0
 57 55  1  0
 57 62  1  0
 58 66  1  0
 58 68  1  0
 59 65  1  0
 59 61  1  0
 60 66  1  0
 61 62  2  0
 61 60  1  0
 63 57  2  0
 64 63  1  0
 64 59  2  0
 65 58  1  0
 66 56  1  0
 68 70  2  0
 69 68  1  0
 71 69  1  0
 72 81  2  0
 72 77  1  0
 73 69  1  0
 73 77  1  0
 74 73  1  0
 75 76  1  0
 75 74  1  0
 76 72  1  0
 77 78  2  0
 78 79  1  0
 80 79  2  0
 81 80  1  0
 82 56  1  0
 82 87  1  0
 82 83  1  0
 83 86  1  1
 83 84  1  0
 85 83  1  0
 87 90  1  0
 88 92  1  0
 88 87  1  0
 89 88  2  0
 92 91  1  0
 94 92  1  0
 94 95  1  0
 94 93  1  0
M  ISO  4  11 100  19 100  54 101  55 101
M  END
>  <TORSDO>  (12) 
F 19

>  <SCORE>  (12) 
-15.632

>  <name>  (12) 
11

>  <ligand_id>  (12) 
11

>  <original_smiles>  (12) 
[H]c1c([H])c([H])c2c(c1[H])C([H])([H])C([H])([H])C([H])([H])C2([H])N([H])C(=O)C1([H])N(C(=O)C([H])(N([H])C(=O)C([H])(N([H])C([H])([H])[H])C([H])([H])[H])C(C([H])([H])[H])(C([H])([H])[H])C([H])([H])[H])C([H])([H])c2c([H])c(OC([H])([H])C([H])([H])[N+]3([H])C([H])([H])C([H])([H])C4([H])C([H])([N+]([H])([H])[H])C([H])([H])C([H])(N([H])C(=O)N5C([H])([H])C([H])([H])C([H])([H])C([H])(n6nc(-c7c([H])c([H])c(Oc8c([H])c([H])c(F)c([H])c8F)c([H])c7[H])c(C(=O)N([H])[H])c6N([H])[H])C5([H])[H])C([H])([H])C43[H])c([H])c([H])c2C1([H])[H]

>  <smiles>  (12) 
[H]c1c([H])c([H])c2c(c1[H])C([H])([H])C([H])([H])C([H])([H])C2([H])N([H])C(=O)C1([H])N(C(=O)C([H])(N([H])C(=O)C([H])(N([H])C([H])([H])[H])C([H])([H])[H])C(C([H])([H])[H])(C([H])([H])[H])C([H])([H])[H])C([H])([H])c2c([H])c(OC([H])([H])C([H])([H])[N+]3([H])C([H])([H])C([H])([H])C4([H])C([H])([N+]([H])([H])[H])C([H])([H])C([H])(N([H])C(=O)N5C([H])([H])C([H])([H])C([H])([H])C([H])(n6nc(-c7c([H])c([H])c(Oc8c([H])c([H])c(F)c([H])c8F)c([H])c7[H])c(C(=O)N([H])[H])c6N([H])[H])C5([H])[H])C([H])([H])C43[H])c([H])c([H])c2C1([H])[H]

$$$$
12:0:0
     RDKit          3D

 96105  0  0  1  0  0  0  0  0999 V2000
  -28.1620  -21.2750   20.5370 C   0  0  0  0  0  2  0  0  0  0  0  0
  -31.8470  -19.0050   19.9210 C   0  0  0  0  0  2  0  0  0  0  0  0
  -28.5230  -18.6330   20.7560 C   0  0  0  0  0  2  0  0  0  0  0  0
  -31.0380  -20.0100   19.0990 C   0  0  0  0  0  2  0  0  0  0  0  0
  -30.9660  -17.7530   19.9220 C   0  0  0  0  0  3  0  0  0  0  0  0
  -29.5240  -18.2300   19.6650 C   0  0  0  0  0  3  0  0  0  0  0  0
  -29.0720  -20.0490   20.6220 C   0  0  0  0  0  3  0  0  0  0  0  0
  -29.6230  -19.6490   19.3150 N   0  0  1  0  0  4  0  0  0  0  0  0
  -29.0210  -19.8960   18.5420 H   0  0  0  0  0  0  0  0  0  0  0  0
  -31.1670  -16.8710   21.1780 C   0  0  0  0  0  2  0  0  0  0  0  0
  -31.0860  -14.5940   20.2470 C   0  0  0  0  0  0  0  0  0  0  0  0
  -30.6620  -12.4790   19.0720 C   0  0  0  0  0  2  0  0  0  0  0  0
  -29.6930  -12.7160   17.8980 C   0  0  0  0  0  2  0  0  0  0  0  0
  -28.2320  -12.6100   18.3730 C   0  0  0  0  0  2  0  0  0  0  0  0
  -27.9520  -13.4610   19.6420 C   0  0  0  0  0  3  0  0  0  0  0  0
  -29.0300  -13.2100   20.7200 C   0  0  0  0  0  2  0  0  0  0  0  0
  -30.3500  -13.4630   20.1190 N   0  0  0  0  0  0  0  0  0  0  0  0
  -32.1440  -14.7870   19.6410 O   0  0  0  0  0  0  0  0  0  0  0  0
  -30.5630  -15.5490   21.0210 N   0  0  0  0  0  0  0  0  0  0  0  0
  -29.6980  -15.3510   21.5010 H   0  0  0  0  0  0  0  0  0  0  0  0
  -25.5870  -14.1150   20.4230 C   0  0  0  0  0  0  0  0  0  0  0  0
  -24.5140  -13.3610   20.8150 C   0  0  0  0  0  0  0  0  0  0  0  0
  -24.9430  -12.0000   20.7560 C   0  0  0  0  0  0  0  0  0  0  0  0
  -26.6060  -13.2140   20.1550 N   0  0  0  0  0  0  0  0  0  0  0  0
  -26.2210  -11.9370   20.4090 N   0  0  0  0  0  0  0  0  0  0  0  0
  -24.1960  -10.7510   20.9540 C   0  0  0  0  0  0  0  0  0  0  0  0
  -24.6070   -9.7850   21.8990 C   0  0  0  0  0  3  0  0  0  0  0  0
  -23.8610   -8.6010   22.0840 C   0  0  0  0  0  3  0  0  0  0  0  0
  -22.6910   -8.3740   21.3210 C   0  0  0  0  0  0  0  0  0  0  0  0
  -22.2980   -9.3290   20.3660 C   0  0  0  0  0  3  0  0  0  0  0  0
  -23.0440  -10.5030   20.1800 C   0  0  0  0  0  3  0  0  0  0  0  0
  -21.9180   -7.2420   21.4150 O   0  0  0  0  0  0  0  0  0  0  0  0
  -21.8140   -6.5350   22.5860 C   0  0  0  0  0  0  0  0  0  0  0  0
  -21.3380   -7.1310   23.7750 C   0  0  0  0  0  3  0  0  0  0  0  0
  -21.1800   -6.3510   24.9380 C   0  0  0  0  0  3  0  0  0  0  0  0
  -21.4900   -4.9780   24.9140 C   0  0  0  0  0  0  0  0  0  0  0  0
  -21.9610   -4.3820   23.7290 C   0  0  0  0  0  3  0  0  0  0  0  0
  -22.1190   -5.1590   22.5690 C   0  0  0  0  0  0  0  0  0  0  0  0
  -22.5520   -4.5760   21.4250 F   0  0  0  0  0  0  0  0  0  0  0  0
  -21.3320   -4.2270   26.0290 F   0  0  0  0  0  0  0  0  0  0  0  0
  -23.1350  -13.8660   21.1350 C   0  0  0  0  0  0  0  0  0  0  0  0
  -22.4220  -13.1790   22.0220 N   0  0  0  0  0  0  0  0  0  0  0  0
  -22.7010  -14.9020   20.6340 O   0  0  0  0  0  0  0  0  0  0  0  0
  -22.7860  -12.3410   22.4490 H   0  0  0  0  0  0  0  0  0  0  0  0
  -21.4990  -13.4990   22.2780 H   0  0  0  0  0  0  0  0  0  0  0  0
  -25.7760  -15.4840   20.2560 N   0  0  0  0  0  0  0  0  0  0  0  0
  -25.0280  -16.1530   20.3930 H   0  0  0  0  0  0  0  0  0  0  0  0
  -26.6280  -15.9050   19.9070 H   0  0  0  0  0  0  0  0  0  0  0  0
  -27.8150  -21.8540   21.9270 C   0  0  0  0  0  2  0  0  0  0  0  0
  -27.5660  -23.3120   21.8830 N   0  0  0  0  0  4  0  0  0  0  0  0
  -27.0120  -23.5590   22.6900 H   0  0  0  0  0  0  0  0  0  0  0  0
  -27.0080  -23.5190   21.0700 H   0  0  0  0  0  0  0  0  0  0  0  0
  -28.7940  -24.1440   21.9100 C   0  0  0  0  0  2  0  0  0  0  0  0
  -28.5430  -25.5850   21.4310 C   0  0  0  0  0  2  0  0  0  0  0  0
  -28.6100  -25.7380   19.8990 C   0  0  0  0  0  2  0  0  0  0  0  0
  -28.5070  -27.1070   19.5260 O   0  0  0  0  0  0  0  0  0  0  0  0
  -24.5280  -31.7750   23.0800 C   0  0  0  0  0  0  0  0  0  0  0  0
  -27.2760  -27.7100   19.6300 C   0  0  0  0  0  0  0  0  0  0  0  0
  -23.3320  -30.4500   21.3640 C   0  0  0  0  0  3  0  0  0  0  0  0
  -24.8100  -29.0740   19.8070 C   0  0  0  0  0  0  0  0  0  0  0  0
  -25.8320  -30.9350   21.1320 C   0  0  0  0  0  2  0  0  0  0  0  0
  -25.9570  -29.6170   20.3990 C   0  0  0  0  0  0  0  0  0  0  0  0
  -27.1910  -28.9430   20.3040 C   0  0  0  0  0  3  0  0  0  0  0  0
  -26.1130  -27.1630   19.0440 C   0  0  0  0  0  3  0  0  0  0  0  0
  -24.8820  -27.8440   19.1270 C   0  0  0  0  0  3  0  0  0  0  0  0
  -23.5320  -29.8700   19.9380 C   0  0  0  0  0  2  0  0  0  0  0  0
  -24.5840  -31.0640   21.9190 N   0  0  0  0  0  0  0  0  0  0  0  0
  -23.4520  -31.9630   23.6650 O   0  0  0  0  0  0  0  0  0  0  0  0
  -22.7480  -29.3400   22.2650 C   0  0  0  0  0  0  0  0  0  0  0  0
  -21.4290  -29.1170   22.1550 N   0  0  0  0  0  0  0  0  0  0  0  0
  -23.4750  -28.6840   23.0160 O   0  0  0  0  0  0  0  0  0  0  0  0
  -20.9050  -29.6990   21.5160 H   0  0  0  0  0  0  0  0  0  0  0  0
  -18.1140  -27.7630   22.6250 C   0  0  0  0  0  0  0  0  0  0  0  0
  -20.6650  -28.0980   22.8730 C   0  0  0  0  0  3  0  0  0  0  0  0
  -20.8110  -26.7180   22.1930 C   0  0  0  0  0  2  0  0  0  0  0  0
  -19.7030  -26.4240   21.1780 C   0  0  0  0  0  2  0  0  0  0  0  0
  -18.3280  -26.4710   21.8540 C   0  0  0  0  0  2  0  0  0  0  0  0
  -19.2120  -28.5340   23.0900 C   0  0  0  0  0  0  0  0  0  0  0  0
  -18.9590  -29.7430   23.7730 C   0  0  0  0  0  3  0  0  0  0  0  0
  -17.6400  -30.1830   23.9960 C   0  0  0  0  0  3  0  0  0  0  0  0
  -16.5580  -29.4070   23.5490 C   0  0  0  0  0  3  0  0  0  0  0  0
  -16.7960  -28.1990   22.8690 C   0  0  0  0  0  3  0  0  0  0  0  0
  -25.8050  -32.4100   23.7150 C   0  0  0  0  0  3  0  0  0  0  0  0
  -25.4600  -33.7770   24.1250 N   0  0  0  0  0  0  0  0  0  0  0  0
  -25.7660  -34.8800   23.4280 C   0  0  0  0  0  0  0  0  0  0  0  0
  -26.4390  -34.8550   22.3940 O   0  0  0  0  0  0  0  0  0  0  0  0
  -24.8490  -33.8670   24.9230 H   0  0  0  0  0  0  0  0  0  0  0  0
  -23.9940  -36.6480   23.1750 C   0  0  0  0  0  1  0  0  0  0  0  0
  -25.2430  -36.2260   23.9640 C   0  0  0  0  0  3  0  0  0  0  0  0
  -27.3530  -37.1140   24.8520 C   0  0  0  0  0  1  0  0  0  0  0  0
  -26.2490  -37.3090   23.9160 N   0  0  0  0  0  0  0  0  0  0  0  0
  -25.8200  -38.2100   24.1130 H   0  0  0  0  0  0  0  0  0  0  0  0
  -26.3650  -31.5830   24.9370 C   0  0  1  0  0  0  0  0  0  0  0  0
  -25.3000  -31.2580   26.0110 C   0  0  0  0  0  1  0  0  0  0  0  0
  -26.9740  -30.2460   24.4540 C   0  0  0  0  0  1  0  0  0  0  0  0
  -27.5090  -32.3710   25.6190 C   0  0  0  0  0  1  0  0  0  0  0  0
  1 49  1  0
  2  5  1  0
  4  8  1  0
  4  2  1  0
  5 10  1  0
  6  5  1  0
  6  3  1  0
  7  1  1  0
  7  3  1  0
  8  9  1  6
  8  6  1  0
  8  7  1  0
 11 19  1  0
 12 17  1  0
 13 14  1  0
 13 12  1  0
 15 14  1  0
 15 24  1  0
 15 16  1  0
 17 11  1  0
 17 16  1  0
 18 11  2  0
 19 10  1  0
 19 20  1  0
 21 22  2  0
 22 41  1  0
 23 22  1  0
 23 26  1  0
 24 25  1  0
 24 21  1  0
 25 23  2  0
 26 27  1  0
 27 28  2  0
 29 32  1  0
 29 28  1  0
 30 29  2  0
 31 30  1  0
 31 26  2  0
 32 33  1  0
 33 34  1  0
 34 35  2  0
 36 35  1  0
 36 40  1  0
 37 36  2  0
 38 33  2  0
 38 37  1  0
 39 38  1  0
 41 42  1  0
 42 45  1  0
 42 44  1  0
 43 41  2  0
 46 47  1  0
 46 21  1  0
 48 46  1  0
 50 53  1  0
 50 49  1  0
 50 51  1  0
 52 50  1  0
 54 53  1  0
 55 54  1  0
 56 58  1  0
 56 55  1  0
 57 68  2  0
 58 63  1  0
 59 67  1  0
 59 69  1  0
 60 66  1  0
 60 62  1  0
 61 67  1  0
 62 61  1  0
 63 62  2  0
 64 65  1  0
 64 58  2  0
 65 60  2  0
 66 59  1  0
 67 57  1  0
 69 71  2  0
 70 69  1  0
 72 70  1  0
 73 82  2  0
 73 78  1  0
 74 70  1  0
 74 78  1  0
 75 74  1  0
 76 77  1  0
 76 75  1  0
 77 73  1  0
 78 79  2  0
 79 80  1  0
 81 80  2  0
 82 81  1  0
 83 57  1  0
 83 84  1  0
 83 93  1  0
 84 87  1  0
 85 89  1  0
 85 84  1  0
 86 85  2  0
 89 88  1  0
 91 89  1  0
 91 92  1  0
 91 90  1  0
 93 96  1  1
 93 94  1  0
 95 93  1  0
M  ISO  4  11 100  19 100  55 101  56 101
M  END
>  <TORSDO>  (13) 
F 23

>  <SCORE>  (13) 
-12.197

>  <name>  (13) 
12

>  <ligand_id>  (13) 
12

>  <original_smiles>  (13) 
[H]c1c([H])c([H])c2c(c1[H])C([H])([H])C([H])([H])C([H])([H])C2([H])N([H])C(=O)C1([H])N(C(=O)C([H])(N([H])C(=O)C([H])(N([H])C([H])([H])[H])C([H])([H])[H])C(C([H])([H])[H])(C([H])([H])[H])C([H])([H])[H])C([H])([H])c2c([H])c(OC([H])([H])C([H])([H])C([H])([H])[N+]([H])([H])C([H])([H])C([H])([H])C3([H])C([H])([H])C4([H])C([H])(C([H])([H])N([H])C(=O)N5C([H])([H])C([H])([H])C([H])([H])C([H])(n6nc(-c7c([H])c([H])c(Oc8c([H])c([H])c(F)c([H])c8F)c([H])c7[H])c(C(=O)N([H])[H])c6N([H])[H])C5([H])[H])C([H])([H])C([H])([H])[N+]34[H])c([H])c([H])c2C1([H])[H]

>  <smiles>  (13) 
[H]c1c([H])c([H])c2c(c1[H])C([H])([H])C([H])([H])C([H])([H])C2([H])N([H])C(=O)C1([H])N(C(=O)C([H])(N([H])C(=O)C([H])(N([H])C([H])([H])[H])C([H])([H])[H])C(C([H])([H])[H])(C([H])([H])[H])C([H])([H])[H])C([H])([H])c2c([H])c(OC([H])([H])C([H])([H])C([H])([H])[N+]([H])([H])C([H])([H])C([H])([H])C3([H])C([H])([H])C4([H])C([H])(C([H])([H])N([H])C(=O)N5C([H])([H])C([H])([H])C([H])([H])C([H])(n6nc(-c7c([H])c([H])c(Oc8c([H])c([H])c(F)c([H])c8F)c([H])c7[H])c(C(=O)N([H])[H])c6N([H])[H])C5([H])[H])C([H])([H])C([H])([H])[N+]34[H])c([H])c([H])c2C1([H])[H]

$$$$
13:0:0
     RDKit          3D

100109  0  0  1  0  0  0  0  0999 V2000
  -26.9420  -22.1880   19.1830 C   0  0  0  0  0  3  0  0  0  0  0  0
  -27.1840  -21.9160   21.5060 C   0  0  0  0  0  2  0  0  0  0  0  0
  -27.6160  -23.3260   21.0870 C   0  0  0  0  0  2  0  0  0  0  0  0
  -27.0380  -21.1060   20.2030 C   0  0  0  0  0  3  0  0  0  0  0  0
  -27.2880  -23.3890   19.6640 N   0  0  0  0  0  0  0  0  0  0  0  0
  -26.5870  -21.9390   17.9050 N   0  0  0  0  0  0  0  0  0  0  0  0
  -26.4490  -20.9920   17.5840 H   0  0  0  0  0  0  0  0  0  0  0  0
  -26.5210  -22.6690   17.2140 H   0  0  0  0  0  0  0  0  0  0  0  0
  -29.5140  -20.5640   19.8990 C   0  0  0  0  0  3  0  0  0  0  0  0
  -30.5650  -19.6830   19.5780 C   0  0  0  0  0  3  0  0  0  0  0  0
  -28.9570  -17.8940   19.2470 C   0  0  0  0  0  3  0  0  0  0  0  0
  -28.1700  -20.1160   19.9110 C   0  0  0  0  0  0  0  0  0  0  0  0
  -30.2970  -18.3400   19.2540 C   0  0  0  0  0  0  0  0  0  0  0  0
  -27.8950  -18.7650   19.5740 C   0  0  0  0  0  0  0  0  0  0  0  0
  -26.4690  -18.2300   19.5360 C   0  0  0  0  0  1  0  0  0  0  0  0
  -31.4480  -17.4060   18.8850 C   0  0  0  0  0  2  0  0  0  0  0  0
  -31.9070  -14.9410   18.9590 C   0  0  0  0  0  0  0  0  0  0  0  0
  -31.7060  -12.4940   18.7250 C   0  0  0  0  0  2  0  0  0  0  0  0
  -30.6640  -12.1850   17.6330 C   0  0  0  0  0  2  0  0  0  0  0  0
  -29.2390  -12.1520   18.2210 C   0  0  0  0  0  2  0  0  0  0  0  0
  -28.9280  -13.3990   19.0920 C   0  0  0  0  0  3  0  0  0  0  0  0
  -30.0710  -13.6510   20.0990 C   0  0  0  0  0  2  0  0  0  0  0  0
  -31.3340  -13.7740   19.3450 N   0  0  0  0  0  0  0  0  0  0  0  0
  -32.9220  -15.0020   18.2560 O   0  0  0  0  0  0  0  0  0  0  0  0
  -31.2270  -16.0320   19.3250 N   0  0  0  0  0  0  0  0  0  0  0  0
  -30.4170  -15.8750   19.9050 H   0  0  0  0  0  0  0  0  0  0  0  0
  -26.7940  -14.2770   20.2380 C   0  0  0  0  0  0  0  0  0  0  0  0
  -25.6800  -13.6430   20.7100 C   0  0  0  0  0  0  0  0  0  0  0  0
  -25.9080  -12.2500   20.4970 C   0  0  0  0  0  0  0  0  0  0  0  0
  -27.6370  -13.2840   19.7640 N   0  0  0  0  0  0  0  0  0  0  0  0
  -27.1120  -12.0510   19.9760 N   0  0  0  0  0  0  0  0  0  0  0  0
  -25.0260  -11.0980   20.7100 C   0  0  0  0  0  0  0  0  0  0  0  0
  -25.3720  -10.0600   21.6040 C   0  0  0  0  0  3  0  0  0  0  0  0
  -24.4960   -8.9720   21.8040 C   0  0  0  0  0  3  0  0  0  0  0  0
  -23.2640   -8.9160   21.1080 C   0  0  0  0  0  0  0  0  0  0  0  0
  -22.9380   -9.9420   20.2030 C   0  0  0  0  0  3  0  0  0  0  0  0
  -23.8130  -11.0210   20.0000 C   0  0  0  0  0  3  0  0  0  0  0  0
  -22.3650   -7.8830   21.2170 O   0  0  0  0  0  0  0  0  0  0  0  0
  -22.1570   -7.2350   22.4090 C   0  0  0  0  0  0  0  0  0  0  0  0
  -21.6970   -7.9160   23.5560 C   0  0  0  0  0  3  0  0  0  0  0  0
  -21.4300   -7.1990   24.7390 C   0  0  0  0  0  3  0  0  0  0  0  0
  -21.6130   -5.8040   24.7750 C   0  0  0  0  0  0  0  0  0  0  0  0
  -22.0650   -5.1240   23.6310 C   0  0  0  0  0  3  0  0  0  0  0  0
  -22.3350   -5.8370   22.4500 C   0  0  0  0  0  0  0  0  0  0  0  0
  -22.7520   -5.1740   21.3430 F   0  0  0  0  0  0  0  0  0  0  0  0
  -21.3500   -5.1130   25.9080 F   0  0  0  0  0  0  0  0  0  0  0  0
  -24.4370  -14.2970   21.2440 C   0  0  0  0  0  0  0  0  0  0  0  0
  -23.7640  -13.6550   22.1900 N   0  0  0  0  0  0  0  0  0  0  0  0
  -24.0840  -15.4120   20.8590 O   0  0  0  0  0  0  0  0  0  0  0  0
  -24.0630  -12.7500   22.5200 H   0  0  0  0  0  0  0  0  0  0  0  0
  -22.9400  -14.0800   22.5920 H   0  0  0  0  0  0  0  0  0  0  0  0
  -27.1450  -15.6160   20.1700 N   0  0  0  0  0  0  0  0  0  0  0  0
  -26.5130  -16.3380   20.4920 H   0  0  0  0  0  0  0  0  0  0  0  0
  -28.0390  -15.9770   19.8630 H   0  0  0  0  0  0  0  0  0  0  0  0
  -27.3580  -24.6170   18.8650 C   0  0  0  0  0  2  0  0  0  0  0  0
  -29.6250  -25.4370   19.7160 C   0  0  0  0  0  1  0  0  0  0  0  0
  -29.5530  -23.9560   17.6990 C   0  0  0  0  0  1  0  0  0  0  0  0
  -28.7970  -25.0690   18.4640 C   0  0  1  0  0  0  0  0  0  0  0  0
  -28.7080  -26.2900   17.4980 C   0  0  0  0  0  2  0  0  0  0  0  0
  -28.5320  -27.5500   18.1380 O   0  0  0  0  0  0  0  0  0  0  0  0
  -24.5270  -31.2580   22.6400 C   0  0  0  0  0  0  0  0  0  0  0  0
  -27.2770  -28.0580   18.3630 C   0  0  0  0  0  0  0  0  0  0  0  0
  -23.3100  -30.1660   20.7860 C   0  0  0  0  0  3  0  0  0  0  0  0
  -24.7600  -29.2060   18.9260 C   0  0  0  0  0  0  0  0  0  0  0  0
  -25.7580  -30.8550   20.5170 C   0  0  0  0  0  2  0  0  0  0  0  0
  -25.9090  -29.6950   19.5560 C   0  0  0  0  0  0  0  0  0  0  0  0
  -27.1670  -29.1150   19.2910 C   0  0  0  0  0  3  0  0  0  0  0  0
  -26.1110  -27.6070   17.7050 C   0  0  0  0  0  3  0  0  0  0  0  0
  -24.8520  -28.1520   18.0030 C   0  0  0  0  0  3  0  0  0  0  0  0
  -23.4510  -29.8790   19.2670 C   0  0  0  0  0  2  0  0  0  0  0  0
  -24.5530  -30.7600   21.3730 N   0  0  0  0  0  0  0  0  0  0  0  0
  -23.4840  -31.2650   23.3070 O   0  0  0  0  0  0  0  0  0  0  0  0
  -22.8600  -28.8690   21.5000 C   0  0  0  0  0  0  0  0  0  0  0  0
  -21.5670  -28.5340   21.3680 N   0  0  0  0  0  0  0  0  0  0  0  0
  -23.6640  -28.1810   22.1310 O   0  0  0  0  0  0  0  0  0  0  0  0
  -20.9760  -29.1460   20.8260 H   0  0  0  0  0  0  0  0  0  0  0  0
  -18.4340  -26.7580   21.5930 C   0  0  0  0  0  0  0  0  0  0  0  0
  -20.9270  -27.3500   21.9380 C   0  0  0  0  0  3  0  0  0  0  0  0
  -21.2320  -26.0900   21.1000 C   0  0  0  0  0  2  0  0  0  0  0  0
  -20.1810  -25.8220   20.0150 C   0  0  0  0  0  2  0  0  0  0  0  0
  -18.8000  -25.6240   20.6490 C   0  0  0  0  0  2  0  0  0  0  0  0
  -19.4300  -27.5800   22.1820 C   0  0  0  0  0  0  0  0  0  0  0  0
  -19.0360  -28.6460   23.0210 C   0  0  0  0  0  3  0  0  0  0  0  0
  -17.6750  -28.8920   23.2770 C   0  0  0  0  0  3  0  0  0  0  0  0
  -16.6930  -28.0670   22.7040 C   0  0  0  0  0  3  0  0  0  0  0  0
  -17.0720  -27.0010   21.8670 C   0  0  0  0  0  3  0  0  0  0  0  0
  -25.8000  -31.8710   23.3030 C   0  0  0  0  0  3  0  0  0  0  0  0
  -25.4210  -33.1710   23.8670 N   0  0  0  0  0  0  0  0  0  0  0  0
  -25.6920  -34.3520   23.2970 C   0  0  0  0  0  0  0  0  0  0  0  0
  -26.3580  -34.4630   22.2640 O   0  0  0  0  0  0  0  0  0  0  0  0
  -24.8300  -33.1560   24.6840 H   0  0  0  0  0  0  0  0  0  0  0  0
  -23.8720  -36.0890   23.2420 C   0  0  0  0  0  1  0  0  0  0  0  0
  -25.1330  -35.6140   23.9820 C   0  0  0  0  0  3  0  0  0  0  0  0
  -27.2200  -36.4450   24.9730 C   0  0  0  0  0  1  0  0  0  0  0  0
  -26.1110  -36.7200   24.0640 N   0  0  0  0  0  0  0  0  0  0  0  0
  -25.6580  -37.5770   24.3700 H   0  0  0  0  0  0  0  0  0  0  0  0
  -26.4320  -30.9420   24.4110 C   0  0  1  0  0  0  0  0  0  0  0  0
  -25.4180  -30.4630   25.4740 C   0  0  0  0  0  1  0  0  0  0  0  0
  -27.0660  -29.6850   23.7700 C   0  0  0  0  0  1  0  0  0  0  0  0
  -27.5720  -31.6900   25.1410 C   0  0  0  0  0  1  0  0  0  0  0  0
  1  6  1  0
  1  5  1  0
  1  4  1  0
  3  2  1  0
  4 12  1  0
  4  2  1  0
  5  3  1  0
  7  6  1  0
  8  6  1  0
  9 12  1  0
 10  9  2  0
 11 13  2  0
 11 14  1  0
 13 10  1  0
 14 12  2  0
 15 14  1  0
 16 13  1  0
 16 25  1  0
 17 25  1  0
 17 23  1  0
 18 23  1  0
 19 20  1  0
 19 18  1  0
 21 20  1  0
 21 30  1  0
 21 22  1  0
 23 22  1  0
 24 17  2  0
 25 26  1  0
 27 28  2  0
 28 47  1  0
 29 32  1  0
 29 28  1  0
 30 31  1  0
 30 27  1  0
 31 29  2  0
 32 33  1  0
 33 34  2  0
 35 38  1  0
 35 34  1  0
 36 35  2  0
 37 36  1  0
 37 32  2  0
 38 39  1  0
 39 44  2  0
 39 40  1  0
 40 41  2  0
 41 42  1  0
 42 46  1  0
 43 42  2  0
 44 43  1  0
 45 44  1  0
 47 48  1  0
 48 50  1  0
 48 51  1  0
 49 47  2  0
 52 27  1  0
 52 53  1  0
 54 52  1  0
 55  5  1  0
 58 57  1  6
 58 55  1  0
 58 56  1  0
 59 60  1  0
 59 58  1  0
 60 62  1  0
 61 72  2  0
 62 67  1  0
 63 71  1  0
 63 73  1  0
 64 70  1  0
 64 66  1  0
 65 71  1  0
 66 65  1  0
 67 66  2  0
 68 69  1  0
 68 62  2  0
 69 64  2  0
 70 63  1  0
 71 61  1  0
 73 75  2  0
 74 73  1  0
 76 74  1  0
 77 86  2  0
 77 82  1  0
 78 74  1  0
 78 82  1  0
 79 78  1  0
 80 81  1  0
 80 79  1  0
 81 77  1  0
 82 83  2  0
 83 84  1  0
 85 84  2  0
 86 85  1  0
 87 61  1  0
 87 88  1  0
 87 97  1  0
 88 91  1  0
 89 88  1  0
 89 93  1  0
 90 89  2  0
 93 92  1  0
 93 95  1  0
 95 96  1  0
 95 94  1  0
 97100  1  1
 97 98  1  0
 99 97  1  0
M  ISO  4  17 100  25 100  59 101  60 101
M  END
>  <TORSDO>  (14) 
F 21

>  <SCORE>  (14) 
-7.464

>  <name>  (14) 
13

>  <ligand_id>  (14) 
13

>  <original_smiles>  (14) 
[H]c1c([H])c([H])c2c(c1[H])C([H])([H])C([H])([H])C([H])([H])C2([H])N([H])C(=O)C1([H])N(C(=O)C([H])(N([H])C(=O)C([H])(N([H])C([H])([H])[H])C([H])([H])[H])C(C([H])([H])[H])(C([H])([H])[H])C([H])([H])[H])C([H])([H])c2c([H])c(OC([H])([H])C(C([H])([H])[H])(C([H])([H])[H])C([H])([H])N3C(=[N+]([H])[H])C([H])(c4c([H])c([H])c(C([H])([H])N([H])C(=O)N5C([H])([H])C([H])([H])C([H])([H])C([H])(n6nc(-c7c([H])c([H])c(Oc8c([H])c([H])c(F)c([H])c8F)c([H])c7[H])c(C(=O)N([H])[H])c6N([H])[H])C5([H])[H])c([H])c4C([H])([H])[H])C([H])([H])C3([H])[H])c([H])c([H])c2C1([H])[H]

>  <smiles>  (14) 
[H]c1c([H])c([H])c2c(c1[H])C([H])([H])C([H])([H])C([H])([H])C2([H])N([H])C(=O)C1([H])N(C(=O)C([H])(N([H])C(=O)C([H])(N([H])C([H])([H])[H])C([H])([H])[H])C(C([H])([H])[H])(C([H])([H])[H])C([H])([H])[H])C([H])([H])c2c([H])c(OC([H])([H])C(C([H])([H])[H])(C([H])([H])[H])C([H])([H])N3C(=[N+]([H])[H])C([H])(c4c([H])c([H])c(C([H])([H])N([H])C(=O)N5C([H])([H])C([H])([H])C([H])([H])C([H])(n6nc(-c7c([H])c([H])c(Oc8c([H])c([H])c(F)c([H])c8F)c([H])c7[H])c(C(=O)N([H])[H])c6N([H])[H])C5([H])[H])c([H])c4C([H])([H])[H])C([H])([H])C3([H])[H])c([H])c([H])c2C1([H])[H]

$$$$
14:0:0
     RDKit          3D

 99108  0  0  1  0  0  0  0  0999 V2000
  -28.0300  -20.7080   21.4780 C   0  0  0  0  0  2  0  0  0  0  0  0
  -30.2750  -19.5150   20.9420 C   0  0  0  0  0  2  0  0  0  0  0  0
  -28.6500  -18.7480   19.0440 C   0  0  0  0  0  2  0  0  0  0  0  0
  -28.3750  -21.8250   19.3550 C   0  0  0  0  0  2  0  0  0  0  0  0
  -27.4400  -20.8290   20.0700 C   0  0  0  0  0  3  0  0  0  0  0  0
  -29.5060  -18.3000   20.2700 C   0  0  0  0  0  3  0  0  0  0  0  0
  -29.5290  -20.8760   21.2520 C   0  0  0  0  0  3  0  0  0  0  0  0
  -27.3030  -19.4580   19.3620 C   0  0  0  0  0  3  0  0  0  0  0  0
  -29.6320  -21.8770   20.1400 N   0  0  2  0  0  4  0  0  0  0  0  0
  -30.3590  -21.4970   19.5530 H   0  0  0  0  0  0  0  0  0  0  0  0
  -26.4500  -19.5750   18.1560 N   0  0  0  0  0  4  0  0  0  0  0  0
  -26.8830  -20.1000   17.4180 H   0  0  0  0  0  0  0  0  0  0  0  0
  -25.5800  -20.0270   18.3870 H   0  0  0  0  0  0  0  0  0  0  0  0
  -26.2240  -18.6670   17.7890 H   0  0  0  0  0  0  0  0  0  0  0  0
  -30.1580  -23.2580   20.4490 C   0  0  0  0  0  2  0  0  0  0  0  0
  -29.1630  -24.3860   20.9180 C   0  0  0  0  0  2  0  0  0  0  0  0
  -28.8710  -25.5080   19.8660 C   0  0  0  0  0  2  0  0  0  0  0  0
  -28.6640  -26.8190   20.4360 O   0  0  0  0  0  0  0  0  0  0  0  0
  -24.7300  -31.9890   23.3290 C   0  0  0  0  0  0  0  0  0  0  0  0
  -27.4600  -27.5010   20.3550 C   0  0  0  0  0  0  0  0  0  0  0  0
  -23.5780  -30.5440   21.7080 C   0  0  0  0  0  3  0  0  0  0  0  0
  -25.0470  -29.0030   20.3120 C   0  0  0  0  0  0  0  0  0  0  0  0
  -26.0880  -30.9300   21.5180 C   0  0  0  0  0  2  0  0  0  0  0  0
  -26.1920  -29.5440   20.9060 C   0  0  0  0  0  0  0  0  0  0  0  0
  -27.3940  -28.8000   20.9290 C   0  0  0  0  0  3  0  0  0  0  0  0
  -26.2870  -26.9820   19.7540 C   0  0  0  0  0  3  0  0  0  0  0  0
  -25.0920  -27.7250   19.7310 C   0  0  0  0  0  3  0  0  0  0  0  0
  -23.7920  -29.8430   20.3380 C   0  0  0  0  0  2  0  0  0  0  0  0
  -24.8190  -31.1720   22.2430 N   0  0  0  0  0  0  0  0  0  0  0  0
  -23.6370  -32.2480   23.8510 O   0  0  0  0  0  0  0  0  0  0  0  0
  -22.9320  -29.5410   22.6870 C   0  0  0  0  0  0  0  0  0  0  0  0
  -21.6170  -29.4470   22.5350 N   0  0  0  0  0  0  0  0  0  0  0  0
  -23.5890  -28.8680   23.4830 O   0  0  0  0  0  0  0  0  0  0  0  0
  -21.2210  -30.1170   21.8890 H   0  0  0  0  0  0  0  0  0  0  0  0
  -18.2020  -28.0060   23.0100 C   0  0  0  0  0  0  0  0  0  0  0  0
  -20.6700  -28.4370   22.9290 C   0  0  0  0  0  3  0  0  0  0  0  0
  -20.9460  -26.9450   22.7240 C   0  0  0  0  0  2  0  0  0  0  0  0
  -19.8380  -26.3630   21.8220 C   0  0  0  0  0  2  0  0  0  0  0  0
  -18.4260  -26.6250   22.3890 C   0  0  0  0  0  2  0  0  0  0  0  0
  -19.2880  -28.8360   23.3800 C   0  0  0  0  0  0  0  0  0  0  0  0
  -19.0570  -30.0940   23.9720 C   0  0  0  0  0  3  0  0  0  0  0  0
  -17.7390  -30.5560   24.1400 C   0  0  0  0  0  3  0  0  0  0  0  0
  -16.6560  -29.7510   23.7440 C   0  0  0  0  0  3  0  0  0  0  0  0
  -16.8860  -28.4740   23.1970 C   0  0  0  0  0  3  0  0  0  0  0  0
  -25.9940  -32.6510   23.9480 C   0  0  0  0  0  3  0  0  0  0  0  0
  -25.6570  -34.0470   24.2490 N   0  0  0  0  0  0  0  0  0  0  0  0
  -25.9760  -35.0890   23.4700 C   0  0  0  0  0  0  0  0  0  0  0  0
  -26.6590  -34.9760   22.4490 O   0  0  0  0  0  0  0  0  0  0  0  0
  -25.0520  -34.2070   25.0430 H   0  0  0  0  0  0  0  0  0  0  0  0
  -24.2160  -36.8390   23.0640 C   0  0  0  0  0  1  0  0  0  0  0  0
  -25.4570  -36.4750   23.8960 C   0  0  0  0  0  3  0  0  0  0  0  0
  -27.5690  -37.4130   24.7260 C   0  0  0  0  0  1  0  0  0  0  0  0
  -26.4690  -37.5460   23.7720 N   0  0  0  0  0  0  0  0  0  0  0  0
  -26.0450  -38.4600   23.9030 H   0  0  0  0  0  0  0  0  0  0  0  0
  -26.5110  -31.9040   25.2390 C   0  0  1  0  0  0  0  0  0  0  0  0
  -25.4080  -31.6500   26.2930 C   0  0  0  0  0  1  0  0  0  0  0  0
  -27.1270  -30.5350   24.8680 C   0  0  0  0  0  1  0  0  0  0  0  0
  -27.6330  -32.7310   25.9090 C   0  0  0  0  0  1  0  0  0  0  0  0
  -30.3950  -17.0360   19.8620 C   0  0  0  0  0  0  0  0  0  0  0  0
  -31.2510  -14.7790   20.8300 C   0  0  0  0  0  0  0  0  0  0  0  0
  -31.0180  -12.5180   19.8970 C   0  0  0  0  0  2  0  0  0  0  0  0
  -30.2020  -12.6730   18.5950 C   0  0  0  0  0  2  0  0  0  0  0  0
  -28.6940  -12.5830   18.8940 C   0  0  0  0  0  2  0  0  0  0  0  0
  -28.2640  -13.5070   20.0640 C   0  0  0  0  0  3  0  0  0  0  0  0
  -29.2110  -13.3590   21.2780 C   0  0  0  0  0  2  0  0  0  0  0  0
  -30.5870  -13.5890   20.8130 N   0  0  0  0  0  0  0  0  0  0  0  0
  -32.4590  -14.8490   20.5950 O   0  0  0  0  0  0  0  0  0  0  0  0
  -30.4530  -15.8860   20.8290 N   0  0  0  0  0  4  0  0  0  0  0  0
  -29.5440  -15.6710   21.2110 H   0  0  0  0  0  0  0  0  0  0  0  0
  -25.8480  -14.2250   20.5600 C   0  0  0  0  0  0  0  0  0  0  0  0
  -24.7220  -13.5050   20.8470 C   0  0  0  0  0  0  0  0  0  0  0  0
  -25.1270  -12.1340   20.8810 C   0  0  0  0  0  0  0  0  0  0  0  0
  -26.8700  -13.2970   20.4360 N   0  0  0  0  0  0  0  0  0  0  0  0
  -26.4360  -12.0370   20.6870 N   0  0  0  0  0  0  0  0  0  0  0  0
  -24.3370  -10.9080   21.0310 C   0  0  0  0  0  0  0  0  0  0  0  0
  -24.6780   -9.9180   21.9790 C   0  0  0  0  0  3  0  0  0  0  0  0
  -23.8890   -8.7540   22.1140 C   0  0  0  0  0  3  0  0  0  0  0  0
  -22.7480   -8.5740   21.2970 C   0  0  0  0  0  0  0  0  0  0  0  0
  -22.4280   -9.5490   20.3360 C   0  0  0  0  0  3  0  0  0  0  0  0
  -23.2150  -10.7050   20.2000 C   0  0  0  0  0  3  0  0  0  0  0  0
  -21.9370   -7.4650   21.3410 O   0  0  0  0  0  0  0  0  0  0  0  0
  -21.8140   -6.7070   22.4760 C   0  0  0  0  0  0  0  0  0  0  0  0
  -21.4010   -7.2670   23.7040 C   0  0  0  0  0  3  0  0  0  0  0  0
  -21.2200   -6.4410   24.8300 C   0  0  0  0  0  3  0  0  0  0  0  0
  -21.4460   -5.0550   24.7300 C   0  0  0  0  0  0  0  0  0  0  0  0
  -21.8490   -4.4940   23.5060 C   0  0  0  0  0  3  0  0  0  0  0  0
  -22.0330   -5.3190   22.3810 C   0  0  0  0  0  0  0  0  0  0  0  0
  -22.4040   -4.7690   21.2000 F   0  0  0  0  0  0  0  0  0  0  0  0
  -21.2640   -4.2590   25.8100 F   0  0  0  0  0  0  0  0  0  0  0  0
  -23.3270  -14.0440   20.9860 C   0  0  0  0  0  0  0  0  0  0  0  0
  -22.5020  -13.4060   21.8090 N   0  0  0  0  0  0  0  0  0  0  0  0
  -22.9750  -15.0680   20.4030 O   0  0  0  0  0  0  0  0  0  0  0  0
  -22.7950  -12.5770   22.3040 H   0  0  0  0  0  0  0  0  0  0  0  0
  -21.5640  -13.7530   21.9460 H   0  0  0  0  0  0  0  0  0  0  0  0
  -26.0860  -15.5850   20.3730 N   0  0  0  0  0  0  0  0  0  0  0  0
  -25.3410  -16.2700   20.4170 H   0  0  0  0  0  0  0  0  0  0  0  0
  -26.9780  -15.9770   20.1080 H   0  0  0  0  0  0  0  0  0  0  0  0
  -31.6150  -16.8070   17.5860 C   0  0  0  0  0  1  0  0  0  0  0  0
  -31.6640  -17.3700   19.0170 C   0  0  0  0  0  2  0  0  0  0  0  0
  3  8  1  0
  3  6  1  0
  4  9  1  0
  5  4  1  0
  5  1  1  0
  6 59  1  0
  6  2  1  0
  7  2  1  0
  7  1  1  0
  8 11  1  0
  8  5  1  0
  9 15  1  0
  9  7  1  0
  9 10  1  6
 11 13  1  0
 12 11  1  0
 14 11  1  0
 15 16  1  0
 17 18  1  0
 17 16  1  0
 19 30  2  0
 20 18  1  0
 20 25  1  0
 21 29  1  0
 21 31  1  0
 22 28  1  0
 22 24  1  0
 23 29  1  0
 24 25  2  0
 24 23  1  0
 26 20  2  0
 27 26  1  0
 27 22  2  0
 28 21  1  0
 29 19  1  0
 31 33  2  0
 32 31  1  0
 34 32  1  0
 35 44  2  0
 35 40  1  0
 36 32  1  0
 36 40  1  0
 37 36  1  0
 38 39  1  0
 38 37  1  0
 39 35  1  0
 40 41  2  0
 41 42  1  0
 43 42  2  0
 44 43  1  0
 45 19  1  0
 45 46  1  0
 45 55  1  0
 46 49  1  0
 47 51  1  0
 47 46  1  0
 48 47  2  0
 51 50  1  0
 53 51  1  0
 53 54  1  0
 53 52  1  0
 55 58  1  1
 55 56  1  0
 57 55  1  0
 59 68  2  0
 61 66  1  0
 62 63  1  0
 62 61  1  0
 64 63  1  0
 64 73  1  0
 64 65  1  0
 66 60  1  0
 66 65  1  0
 67 60  2  0
 68 60  1  0
 68 69  1  0
 70 71  2  0
 71 72  1  0
 71 90  1  0
 72 75  1  0
 73 70  1  0
 73 74  1  0
 74 72  2  0
 75 76  1  0
 76 77  2  0
 78 81  1  0
 78 77  1  0
 79 78  2  0
 80 79  1  0
 80 75  2  0
 81 82  1  0
 82 83  1  0
 83 84  2  0
 85 84  1  0
 85 89  1  0
 86 85  2  0
 87 82  2  0
 87 86  1  0
 88 87  1  0
 90 91  1  0
 91 94  1  0
 91 93  1  0
 92 90  2  0
 95 96  1  0
 95 70  1  0
 97 95  1  0
 98 99  1  0
 99 59  1  0
M  ISO  4  17 101  18 101  60 100  68 100
M  END
>  <TORSDO>  (15) 
F 22

>  <SCORE>  (15) 
-11.910

>  <name>  (15) 
14

>  <ligand_id>  (15) 
14

>  <original_smiles>  (15) 
[H]c1c([H])c([H])c2c(c1[H])C([H])([H])C([H])([H])C([H])([H])C2([H])N([H])C(=O)C1([H])N(C(=O)C([H])(N([H])C(=O)C([H])(N([H])C([H])([H])[H])C([H])([H])[H])C(C([H])([H])[H])(C([H])([H])[H])C([H])([H])[H])C([H])([H])c2c([H])c(OC([H])([H])C([H])([H])C([H])([H])[N+]3([H])C([H])([H])C4([H])C([H])([H])C3([H])C([H])([H])C([H])(C([H])(N([H])C(=O)N3C([H])([H])C([H])([H])C([H])([H])C([H])(n5nc(-c6c([H])c([H])c(Oc7c([H])c([H])c(F)c([H])c7F)c([H])c6[H])c(C(=O)N([H])[H])c5N([H])[H])C3([H])[H])C([H])([H])C([H])([H])[H])C([H])([H])C4([H])[N+]([H])([H])[H])c([H])c([H])c2C1([H])[H]

>  <smiles>  (15) 
[H]c1c([H])c([H])c2c(c1[H])C([H])([H])C([H])([H])C([H])([H])C2([H])N([H])C(=O)C1([H])N(C(=O)C([H])(N([H])C(=O)C([H])(N([H])C([H])([H])[H])C([H])([H])[H])C(C([H])([H])[H])(C([H])([H])[H])C([H])([H])[H])C([H])([H])c2c([H])c(OC([H])([H])C([H])([H])C([H])([H])[N+]3([H])C([H])([H])C4([H])C([H])([H])C3([H])C([H])([H])C([H])(C([H])(N([H])C(=O)N3C([H])([H])C([H])([H])C([H])([H])C([H])(n5nc(-c6c([H])c([H])c(Oc7c([H])c([H])c(F)c([H])c7F)c([H])c6[H])c(C(=O)N([H])[H])c5N([H])[H])C3([H])[H])C([H])([H])C([H])([H])[H])C([H])([H])C4([H])[N+]([H])([H])[H])c([H])c([H])c2C1([H])[H]

$$$$
15:0:0
     RDKit          3D

 94102  0  0  1  0  0  0  0  0999 V2000
  -26.7320  -21.0630   18.6460 C   0  0  0  0  0  2  0  0  0  0  0  0
  -28.0100  -18.8610   18.4550 C   0  0  0  0  0  3  0  0  0  0  0  0
  -27.8760  -19.8480   20.6540 C   0  0  0  0  0  3  0  0  0  0  0  0
  -28.7320  -17.7650   18.9820 C   0  0  0  0  0  3  0  0  0  0  0  0
  -28.5990  -18.7400   21.1890 C   0  0  0  0  0  3  0  0  0  0  0  0
  -27.5890  -19.9260   19.2690 C   0  0  0  0  0  0  0  0  0  0  0  0
  -29.0650  -17.6950   20.3620 C   0  0  0  0  0  0  0  0  0  0  0  0
  -31.0020  -16.9470   21.9280 C   0  0  0  0  0  1  0  0  0  0  0  0
  -29.8790  -16.5090   20.9510 C   0  0  0  0  0  3  0  0  0  0  0  0
  -31.1440  -14.5340   19.8870 C   0  0  0  0  0  0  0  0  0  0  0  0
  -30.7050  -12.3960   18.7560 C   0  0  0  0  0  2  0  0  0  0  0  0
  -29.6750  -12.6000   17.6240 C   0  0  0  0  0  2  0  0  0  0  0  0
  -28.2350  -12.5030   18.1710 C   0  0  0  0  0  2  0  0  0  0  0  0
  -28.0360  -13.3530   19.4700 C   0  0  0  0  0  3  0  0  0  0  0  0
  -29.1570  -13.1120   20.4930 C   0  0  0  0  0  2  0  0  0  0  0  0
  -30.4270  -13.3910   19.8070 N   0  0  0  0  0  0  0  0  0  0  0  0
  -32.2970  -14.6120   19.4530 O   0  0  0  0  0  0  0  0  0  0  0  0
  -30.4350  -15.6830   19.8750 N   0  0  0  0  0  0  0  0  0  0  0  0
  -30.9210  -16.3210   19.2610 H   0  0  0  0  0  0  0  0  0  0  0  0
  -25.7200  -14.0580   20.3660 C   0  0  0  0  0  0  0  0  0  0  0  0
  -24.6400  -13.3180   20.7770 C   0  0  0  0  0  0  0  0  0  0  0  0
  -25.0350  -11.9440   20.6620 C   0  0  0  0  0  0  0  0  0  0  0  0
  -26.7070  -13.1350   20.0330 N   0  0  0  0  0  0  0  0  0  0  0  0
  -26.2980  -11.8590   20.2720 N   0  0  0  0  0  0  0  0  0  0  0  0
  -24.2620  -10.7080   20.8620 C   0  0  0  0  0  0  0  0  0  0  0  0
  -24.6620   -9.7410   21.8110 C   0  0  0  0  0  3  0  0  0  0  0  0
  -23.8990   -8.5630   21.9940 C   0  0  0  0  0  3  0  0  0  0  0  0
  -22.7270   -8.3510   21.2340 C   0  0  0  0  0  0  0  0  0  0  0  0
  -22.3530   -9.3060   20.2760 C   0  0  0  0  0  3  0  0  0  0  0  0
  -23.1080  -10.4730   20.0890 C   0  0  0  0  0  3  0  0  0  0  0  0
  -21.9350   -7.2330   21.3280 O   0  0  0  0  0  0  0  0  0  0  0  0
  -21.7770   -6.5610   22.5110 C   0  0  0  0  0  0  0  0  0  0  0  0
  -21.2710   -7.1970   23.6670 C   0  0  0  0  0  3  0  0  0  0  0  0
  -21.0580   -6.4490   24.8430 C   0  0  0  0  0  3  0  0  0  0  0  0
  -21.3430   -5.0730   24.8630 C   0  0  0  0  0  0  0  0  0  0  0  0
  -21.8400   -4.4370   23.7150 C   0  0  0  0  0  3  0  0  0  0  0  0
  -22.0570   -5.1780   22.5400 C   0  0  0  0  0  0  0  0  0  0  0  0
  -22.5160   -4.5580   21.4260 F   0  0  0  0  0  0  0  0  0  0  0  0
  -21.1310   -4.3530   25.9940 F   0  0  0  0  0  0  0  0  0  0  0  0
  -23.2830  -13.8350   21.1660 C   0  0  0  0  0  0  0  0  0  0  0  0
  -22.6210  -13.1610   22.0980 N   0  0  0  0  0  0  0  0  0  0  0  0
  -22.8270  -14.8680   20.6830 O   0  0  0  0  0  0  0  0  0  0  0  0
  -23.0030  -12.3200   22.5010 H   0  0  0  0  0  0  0  0  0  0  0  0
  -21.7270  -13.4940   22.4200 H   0  0  0  0  0  0  0  0  0  0  0  0
  -25.9550  -15.4230   20.2320 N   0  0  0  0  0  0  0  0  0  0  0  0
  -25.2670  -16.1460   20.4150 H   0  0  0  0  0  0  0  0  0  0  0  0
  -26.8390  -15.8130   19.9060 H   0  0  0  0  0  0  0  0  0  0  0  0
  -27.4540  -22.3390   18.0760 C   0  0  0  0  0  2  0  0  0  0  0  0
  -27.6040  -23.4580   19.0660 N   0  0  0  0  0  4  0  0  0  0  0  0
  -27.5020  -23.0640   19.9850 H   0  0  0  0  0  0  0  0  0  0  0  0
  -26.8300  -24.1010   18.9500 H   0  0  0  0  0  0  0  0  0  0  0  0
  -28.8740  -24.2500   19.0520 C   0  0  0  0  0  2  0  0  0  0  0  0
  -28.7400  -25.7860   18.7550 C   0  0  0  0  0  2  0  0  0  0  0  0
  -28.4410  -26.6490   19.8780 O   0  0  0  0  0  0  0  0  0  0  0  0
  -24.7010  -31.7400   23.2370 C   0  0  0  0  0  0  0  0  0  0  0  0
  -27.2790  -27.4130   19.8870 C   0  0  0  0  0  0  0  0  0  0  0  0
  -23.4600  -30.4290   21.5400 C   0  0  0  0  0  3  0  0  0  0  0  0
  -24.9010  -28.9490   20.0170 C   0  0  0  0  0  0  0  0  0  0  0  0
  -26.0040  -30.7470   21.3720 C   0  0  0  0  0  2  0  0  0  0  0  0
  -26.0580  -29.4100   20.6510 C   0  0  0  0  0  0  0  0  0  0  0  0
  -27.2510  -28.6390   20.5970 C   0  0  0  0  0  3  0  0  0  0  0  0
  -26.1000  -26.9750   19.2500 C   0  0  0  0  0  3  0  0  0  0  0  0
  -24.9150  -27.7270   19.3190 C   0  0  0  0  0  3  0  0  0  0  0  0
  -23.6490  -29.7840   20.1340 C   0  0  0  0  0  2  0  0  0  0  0  0
  -24.7310  -30.9890   22.0970 N   0  0  0  0  0  0  0  0  0  0  0  0
  -23.6200  -32.0050   23.7880 O   0  0  0  0  0  0  0  0  0  0  0  0
  -22.8010  -29.3710   22.4580 C   0  0  0  0  0  0  0  0  0  0  0  0
  -21.4760  -29.1970   22.2960 N   0  0  0  0  0  0  0  0  0  0  0  0
  -23.4740  -28.6980   23.2470 O   0  0  0  0  0  0  0  0  0  0  0  0
  -20.9930  -29.7990   21.6400 H   0  0  0  0  0  0  0  0  0  0  0  0
  -18.0880  -28.0030   22.7740 C   0  0  0  0  0  0  0  0  0  0  0  0
  -20.6590  -28.2130   22.9980 C   0  0  0  0  0  3  0  0  0  0  0  0
  -20.7920  -26.8020   22.3700 C   0  0  0  0  0  2  0  0  0  0  0  0
  -19.6140  -26.3410   21.4960 C   0  0  0  0  0  2  0  0  0  0  0  0
  -18.1990  -26.7000   22.0010 C   0  0  0  0  0  2  0  0  0  0  0  0
  -19.2360  -28.7150   23.2240 C   0  0  0  0  0  0  0  0  0  0  0  0
  -19.0600  -29.9510   23.8750 C   0  0  0  0  0  3  0  0  0  0  0  0
  -17.7780  -30.5070   24.0670 C   0  0  0  0  0  3  0  0  0  0  0  0
  -16.6480  -29.7920   23.6520 C   0  0  0  0  0  3  0  0  0  0  0  0
  -16.8020  -28.5380   23.0210 C   0  0  0  0  0  3  0  0  0  0  0  0
  -25.9910  -32.3280   23.8770 C   0  0  0  0  0  3  0  0  0  0  0  0
  -25.7010  -33.7140   24.2710 N   0  0  0  0  0  0  0  0  0  0  0  0
  -26.0460  -34.7930   23.5510 C   0  0  0  0  0  0  0  0  0  0  0  0
  -26.7030  -34.7260   22.5140 O   0  0  0  0  0  0  0  0  0  0  0  0
  -25.0900  -33.8350   25.0630 H   0  0  0  0  0  0  0  0  0  0  0  0
  -24.3380  -36.6180   23.2720 C   0  0  0  0  0  1  0  0  0  0  0  0
  -25.5670  -36.1630   24.0720 C   0  0  0  0  0  3  0  0  0  0  0  0
  -27.7050  -36.9690   24.9690 C   0  0  0  0  0  1  0  0  0  0  0  0
  -26.6210  -37.1980   24.0170 N   0  0  0  0  0  0  0  0  0  0  0  0
  -26.2300  -38.1210   24.1860 H   0  0  0  0  0  0  0  0  0  0  0  0
  -26.5070  -31.4920   25.1100 C   0  0  1  0  0  0  0  0  0  0  0  0
  -25.4210  -31.2020   26.1700 C   0  0  0  0  0  1  0  0  0  0  0  0
  -27.0660  -30.1220   24.6660 C   0  0  0  0  0  1  0  0  0  0  0  0
  -27.6720  -32.2450   25.7930 C   0  0  0  0  0  1  0  0  0  0  0  0
  1  6  1  0
  2  4  2  0
  2  6  1  0
  3  5  1  0
  4  7  1  0
  6  3  2  0
  7  9  1  0
  7  5  2  0
  9  8  1  0
 11 16  1  0
 12 13  1  0
 12 11  1  0
 14 13  1  0
 14 23  1  0
 14 15  1  0
 16 10  1  0
 16 15  1  0
 17 10  2  0
 18 10  1  0
 18  9  1  0
 19 18  1  0
 20 21  2  0
 21 40  1  0
 22 21  1  0
 22 25  1  0
 23 24  1  0
 23 20  1  0
 24 22  2  0
 25 26  1  0
 26 27  2  0
 28 31  1  0
 28 27  1  0
 29 28  2  0
 30 29  1  0
 30 25  2  0
 31 32  1  0
 32 37  2  0
 32 33  1  0
 33 34  2  0
 34 35  1  0
 35 39  1  0
 36 35  2  0
 37 36  1  0
 38 37  1  0
 40 41  1  0
 41 44  1  0
 41 43  1  0
 42 40  2  0
 45 20  1  0
 45 46  1  0
 47 45  1  0
 48  1  1  0
 48 49  1  0
 49 50  1  0
 51 49  1  0
 52 49  1  0
 53 52  1  0
 53 54  1  0
 54 56  1  0
 55 66  2  0
 56 61  1  0
 57 65  1  0
 57 67  1  0
 58 64  1  0
 58 60  1  0
 59 65  1  0
 60 59  1  0
 61 60  2  0
 62 63  1  0
 62 56  2  0
 63 58  2  0
 64 57  1  0
 65 55  1  0
 67 69  2  0
 68 67  1  0
 70 68  1  0
 71 80  2  0
 71 76  1  0
 72 68  1  0
 72 76  1  0
 73 72  1  0
 74 75  1  0
 74 73  1  0
 75 71  1  0
 76 77  2  0
 77 78  1  0
 79 78  2  0
 80 79  1  0
 81 55  1  0
 81 82  1  0
 81 91  1  0
 82 85  1  0
 83 87  1  0
 83 82  1  0
 84 83  2  0
 87 86  1  0
 89 87  1  0
 89 90  1  0
 89 88  1  0
 91 94  1  1
 91 92  1  0
 93 91  1  0
M  ISO  4  10 100  18 100  53 101  54 101
M  END
>  <TORSDO>  (16) 
F 22

>  <SCORE>  (16) 
-11.942

>  <name>  (16) 
15

>  <ligand_id>  (16) 
15

>  <original_smiles>  (16) 
[H]c1c([H])c([H])c2c(c1[H])C([H])([H])C([H])([H])C([H])([H])C2([H])N([H])C(=O)C1([H])N(C(=O)C([H])(N([H])C(=O)C([H])(N([H])C([H])([H])[H])C([H])([H])[H])C(C([H])([H])[H])(C([H])([H])[H])C([H])([H])[H])C([H])([H])c2c([H])c(OC([H])([H])C([H])([H])[N+]([H])([H])C([H])([H])C([H])([H])c3c([H])c([H])c(C([H])(N([H])C(=O)N4C([H])([H])C([H])([H])C([H])([H])C([H])(n5nc(-c6c([H])c([H])c(Oc7c([H])c([H])c(F)c([H])c7F)c([H])c6[H])c(C(=O)N([H])[H])c5N([H])[H])C4([H])[H])C([H])([H])[H])c([H])c3[H])c([H])c([H])c2C1([H])[H]

>  <smiles>  (16) 
[H]c1c([H])c([H])c2c(c1[H])C([H])([H])C([H])([H])C([H])([H])C2([H])N([H])C(=O)C1([H])N(C(=O)C([H])(N([H])C(=O)C([H])(N([H])C([H])([H])[H])C([H])([H])[H])C(C([H])([H])[H])(C([H])([H])[H])C([H])([H])[H])C([H])([H])c2c([H])c(OC([H])([H])C([H])([H])[N+]([H])([H])C([H])([H])C([H])([H])c3c([H])c([H])c(C([H])(N([H])C(=O)N4C([H])([H])C([H])([H])C([H])([H])C([H])(n5nc(-c6c([H])c([H])c(Oc7c([H])c([H])c(F)c([H])c7F)c([H])c6[H])c(C(=O)N([H])[H])c5N([H])[H])C4([H])[H])C([H])([H])[H])c([H])c3[H])c([H])c([H])c2C1([H])[H]

$$$$
16:0:0
     RDKit          3D

 98106  0  0  1  0  0  0  0  0999 V2000
  -28.4890  -20.8660   19.5230 C   0  0  0  0  0  0  0  0  0  0  0  0
  -28.4810  -20.9140   18.2860 O   0  0  0  0  0  0  0  0  0  0  0  0
  -29.5590  -19.0410   20.9230 C   0  0  0  0  0  2  0  0  0  0  0  0
  -28.0560  -17.1870   20.3780 C   0  0  0  0  0  2  0  0  0  0  0  0
  -28.2590  -19.5650   20.2920 C   0  0  0  0  0  3  0  0  0  0  0  0
  -29.3170  -17.5420   21.2090 C   0  0  0  0  0  3  0  0  0  0  0  0
  -27.7630  -18.3720   19.4550 C   0  0  0  0  0  3  0  0  0  0  0  0
  -30.8590  -14.3730   20.1680 C   0  0  0  0  0  0  0  0  0  0  0  0
  -30.4150  -12.3030   18.9270 C   0  0  0  0  0  2  0  0  0  0  0  0
  -29.4180  -12.5880   17.7880 C   0  0  0  0  0  2  0  0  0  0  0  0
  -27.9610  -12.4630   18.2810 C   0  0  0  0  0  2  0  0  0  0  0  0
  -27.7070  -13.2330   19.6030 C   0  0  0  0  0  3  0  0  0  0  0  0
  -28.8190  -12.9480   20.6400 C   0  0  0  0  0  2  0  0  0  0  0  0
  -30.1290  -13.2370   20.0220 N   0  0  0  0  0  0  0  0  0  0  0  0
  -31.9410  -14.5520   19.5990 O   0  0  0  0  0  0  0  0  0  0  0  0
  -30.5170  -16.6320   20.9070 C   0  0  0  0  0  0  0  0  0  0  0  0
  -30.2220  -15.3260   20.8520 N   0  0  0  0  0  0  0  0  0  0  0  0
  -31.6410  -17.1160   20.7320 O   0  0  0  0  0  0  0  0  0  0  0  0
  -29.3210  -15.0530   21.2080 H   0  0  0  0  0  0  0  0  0  0  0  0
  -25.3380  -13.8420   20.4250 C   0  0  0  0  0  0  0  0  0  0  0  0
  -24.2860  -13.0710   20.8360 C   0  0  0  0  0  0  0  0  0  0  0  0
  -24.7460  -11.7220   20.7700 C   0  0  0  0  0  0  0  0  0  0  0  0
  -26.3760  -12.9640   20.1440 N   0  0  0  0  0  0  0  0  0  0  0  0
  -26.0210  -11.6810   20.4060 N   0  0  0  0  0  0  0  0  0  0  0  0
  -24.0260  -10.4600   20.9720 C   0  0  0  0  0  0  0  0  0  0  0  0
  -24.4670   -9.5030   21.9110 C   0  0  0  0  0  3  0  0  0  0  0  0
  -23.7470   -8.3040   22.0980 C   0  0  0  0  0  3  0  0  0  0  0  0
  -22.5760   -8.0540   21.3450 C   0  0  0  0  0  0  0  0  0  0  0  0
  -22.1580   -8.9990   20.3920 C   0  0  0  0  0  3  0  0  0  0  0  0
  -22.8790  -10.1900   20.2030 C   0  0  0  0  0  3  0  0  0  0  0  0
  -21.8260   -6.9080   21.4420 O   0  0  0  0  0  0  0  0  0  0  0  0
  -21.7360   -6.2060   22.6170 C   0  0  0  0  0  0  0  0  0  0  0  0
  -21.2430   -6.7960   23.8010 C   0  0  0  0  0  3  0  0  0  0  0  0
  -21.1040   -6.0190   24.9690 C   0  0  0  0  0  3  0  0  0  0  0  0
  -21.4470   -4.6530   24.9510 C   0  0  0  0  0  0  0  0  0  0  0  0
  -21.9320   -4.0640   23.7700 C   0  0  0  0  0  3  0  0  0  0  0  0
  -22.0750   -4.8390   22.6060 C   0  0  0  0  0  0  0  0  0  0  0  0
  -22.5240   -4.2620   21.4650 F   0  0  0  0  0  0  0  0  0  0  0  0
  -21.3010   -3.9020   26.0680 F   0  0  0  0  0  0  0  0  0  0  0  0
  -22.9100  -13.5560   21.1890 C   0  0  0  0  0  0  0  0  0  0  0  0
  -22.2230  -12.8460   22.0800 N   0  0  0  0  0  0  0  0  0  0  0  0
  -22.4630  -14.6000   20.7190 O   0  0  0  0  0  0  0  0  0  0  0  0
  -22.6030  -12.0030   22.4870 H   0  0  0  0  0  0  0  0  0  0  0  0
  -21.3030  -13.1490   22.3630 H   0  0  0  0  0  0  0  0  0  0  0  0
  -25.4860  -15.2140   20.2590 N   0  0  0  0  0  0  0  0  0  0  0  0
  -24.6800  -15.7600   20.5460 H   0  0  0  0  0  0  0  0  0  0  0  0
  -26.3490  -15.5940   20.6200 H   0  0  0  0  0  0  0  0  0  0  0  0
  -26.3400  -18.4230   19.0470 N   0  0  0  0  0  4  0  0  0  0  0  0
  -25.7240  -18.4590   19.8410 H   0  0  0  0  0  0  0  0  0  0  0  0
  -26.1050  -17.5960   18.5220 H   0  0  0  0  0  0  0  0  0  0  0  0
  -26.1460  -19.2120   18.4520 H   0  0  0  0  0  0  0  0  0  0  0  0
  -28.6990  -22.1060   20.3860 C   0  0  0  0  0  2  0  0  0  0  0  0
  -28.7800  -23.2800   19.5040 N   0  0  0  0  0  4  0  0  0  0  0  0
  -28.1530  -23.1020   18.7320 H   0  0  0  0  0  0  0  0  0  0  0  0
  -29.7120  -23.3220   19.1230 H   0  0  0  0  0  0  0  0  0  0  0  0
  -28.4430  -24.5420   20.1850 C   0  0  0  0  0  2  0  0  0  0  0  0
  -28.7200  -25.7470   19.2910 C   0  0  0  0  0  2  0  0  0  0  0  0
  -28.5340  -26.9080   20.0810 O   0  0  0  0  0  0  0  0  0  0  0  0
  -24.6180  -31.8910   23.2310 C   0  0  0  0  0  0  0  0  0  0  0  0
  -27.3000  -27.5060   20.1260 C   0  0  0  0  0  0  0  0  0  0  0  0
  -23.4150  -30.4750   21.5960 C   0  0  0  0  0  3  0  0  0  0  0  0
  -24.8690  -28.9410   20.1850 C   0  0  0  0  0  0  0  0  0  0  0  0
  -25.9330  -30.8580   21.3890 C   0  0  0  0  0  2  0  0  0  0  0  0
  -26.0220  -29.4860   20.7610 C   0  0  0  0  0  0  0  0  0  0  0  0
  -27.2330  -28.7710   20.7400 C   0  0  0  0  0  3  0  0  0  0  0  0
  -26.1200  -26.9460   19.5780 C   0  0  0  0  0  3  0  0  0  0  0  0
  -24.9090  -27.6610   19.6070 C   0  0  0  0  0  3  0  0  0  0  0  0
  -23.6260  -29.7920   20.2200 C   0  0  0  0  0  2  0  0  0  0  0  0
  -24.6740  -31.0900   22.1300 N   0  0  0  0  0  0  0  0  0  0  0  0
  -23.5370  -32.1570   23.7720 O   0  0  0  0  0  0  0  0  0  0  0  0
  -22.7760  -29.4530   22.5610 C   0  0  0  0  0  0  0  0  0  0  0  0
  -21.4520  -29.2670   22.4380 N   0  0  0  0  0  0  0  0  0  0  0  0
  -23.4650  -28.8290   23.3710 O   0  0  0  0  0  0  0  0  0  0  0  0
  -20.9580  -29.8180   21.7510 H   0  0  0  0  0  0  0  0  0  0  0  0
  -18.0840  -28.0800   22.9550 C   0  0  0  0  0  0  0  0  0  0  0  0
  -20.6420  -28.3300   23.2150 C   0  0  0  0  0  3  0  0  0  0  0  0
  -20.7390  -26.9010   22.6310 C   0  0  0  0  0  2  0  0  0  0  0  0
  -19.6300  -26.5890   21.6190 C   0  0  0  0  0  2  0  0  0  0  0  0
  -18.2520  -26.7350   22.2720 C   0  0  0  0  0  2  0  0  0  0  0  0
  -19.2060  -28.8370   23.3820 C   0  0  0  0  0  0  0  0  0  0  0  0
  -18.9940  -30.1000   23.9750 C   0  0  0  0  0  3  0  0  0  0  0  0
  -17.6920  -30.6050   24.1540 C   0  0  0  0  0  3  0  0  0  0  0  0
  -16.5810  -29.8440   23.7470 C   0  0  0  0  0  3  0  0  0  0  0  0
  -16.7800  -28.5830   23.1530 C   0  0  0  0  0  3  0  0  0  0  0  0
  -25.9030  -32.5270   23.8490 C   0  0  0  0  0  3  0  0  0  0  0  0
  -25.5890  -33.9210   24.1800 N   0  0  0  0  0  0  0  0  0  0  0  0
  -25.9190  -34.9730   23.4200 C   0  0  0  0  0  0  0  0  0  0  0  0
  -26.6000  -34.8760   22.3950 O   0  0  0  0  0  0  0  0  0  0  0  0
  -24.9890  -34.0770   24.9760 H   0  0  0  0  0  0  0  0  0  0  0  0
  -24.1930  -36.7620   23.0450 C   0  0  0  0  0  1  0  0  0  0  0  0
  -25.4210  -36.3590   23.8760 C   0  0  0  0  0  3  0  0  0  0  0  0
  -27.5380  -37.2440   24.7460 C   0  0  0  0  0  1  0  0  0  0  0  0
  -26.4510  -37.4150   23.7850 N   0  0  0  0  0  0  0  0  0  0  0  0
  -26.0410  -38.3350   23.9270 H   0  0  0  0  0  0  0  0  0  0  0  0
  -26.4340  -31.7560   25.1190 C   0  0  1  0  0  0  0  0  0  0  0  0
  -25.3500  -31.5030   26.1920 C   0  0  0  0  0  1  0  0  0  0  0  0
  -27.0300  -30.3860   24.7190 C   0  0  0  0  0  1  0  0  0  0  0  0
  -27.5840  -32.5570   25.7790 C   0  0  0  0  0  1  0  0  0  0  0  0
  1 52  1  0
  2  1  2  0
  3  6  1  0
  4  6  1  0
  5  1  1  0
  5  3  1  0
  6 16  1  0
  7 48  1  0
  7  5  1  0
  7  4  1  0
  8 17  1  0
  9 14  1  0
 10 11  1  0
 10  9  1  0
 12 11  1  0
 12 23  1  0
 12 13  1  0
 14  8  1  0
 14 13  1  0
 15  8  2  0
 17 16  1  0
 17 19  1  0
 18 16  2  0
 20 21  2  0
 21 40  1  0
 22 21  1  0
 22 25  1  0
 23 24  1  0
 23 20  1  0
 24 22  2  0
 25 26  1  0
 26 27  2  0
 28 31  1  0
 28 27  1  0
 29 28  2  0
 30 29  1  0
 30 25  2  0
 31 32  1  0
 32 33  1  0
 33 34  2  0
 35 34  1  0
 35 39  1  0
 36 35  2  0
 37 32  2  0
 37 36  1  0
 38 37  1  0
 40 41  1  0
 41 44  1  0
 41 43  1  0
 42 40  2  0
 45 20  1  0
 45 46  1  0
 45 47  1  0
 48 49  1  0
 50 48  1  0
 51 48  1  0
 53 56  1  0
 53 52  1  0
 54 53  1  0
 55 53  1  0
 57 58  1  0
 57 56  1  0
 58 60  1  0
 59 70  2  0
 60 65  1  0
 61 69  1  0
 61 71  1  0
 62 68  1  0
 62 64  1  0
 63 69  1  0
 64 63  1  0
 65 64  2  0
 66 67  1  0
 66 60  2  0
 67 62  2  0
 68 61  1  0
 69 59  1  0
 71 73  2  0
 72 71  1  0
 74 72  1  0
 75 84  2  0
 75 80  1  0
 76 72  1  0
 76 80  1  0
 77 76  1  0
 78 79  1  0
 78 77  1  0
 79 75  1  0
 80 81  2  0
 81 82  1  0
 83 82  2  0
 84 83  1  0
 85 59  1  0
 85 86  1  0
 85 95  1  0
 86 89  1  0
 87 91  1  0
 87 86  1  0
 88 87  2  0
 91 90  1  0
 93 91  1  0
 93 94  1  0
 93 92  1  0
 95 98  1  1
 95 96  1  0
 97 95  1  0
M  ISO  4   8 100  17 100  57 101  58 101
M  END
>  <TORSDO>  (17) 
F 22

>  <SCORE>  (17) 
-13.162

>  <name>  (17) 
16

>  <ligand_id>  (17) 
16

>  <original_smiles>  (17) 
[H]c1c([H])c([H])c2c(c1[H])C([H])([H])C([H])([H])C([H])([H])C2([H])N([H])C(=O)C1([H])N(C(=O)C([H])(N([H])C(=O)C([H])(N([H])C([H])([H])[H])C([H])([H])[H])C(C([H])([H])[H])(C([H])([H])[H])C([H])([H])[H])C([H])([H])c2c([H])c(OC([H])([H])C([H])([H])[N+]([H])([H])C([H])([H])C(=O)C3([H])C([H])([H])C([H])(C(=O)N([H])C(=O)N4C([H])([H])C([H])([H])C([H])([H])C([H])(n5nc(-c6c([H])c([H])c(Oc7c([H])c([H])c(F)c([H])c7F)c([H])c6[H])c(C(=O)N([H])[H])c5N([H])[H])C4([H])[H])C([H])([H])C3([H])[N+]([H])([H])[H])c([H])c([H])c2C1([H])[H]

>  <smiles>  (17) 
[H]c1c([H])c([H])c2c(c1[H])C([H])([H])C([H])([H])C([H])([H])C2([H])N([H])C(=O)C1([H])N(C(=O)C([H])(N([H])C(=O)C([H])(N([H])C([H])([H])[H])C([H])([H])[H])C(C([H])([H])[H])(C([H])([H])[H])C([H])([H])[H])C([H])([H])c2c([H])c(OC([H])([H])C([H])([H])[N+]([H])([H])C([H])([H])C(=O)C3([H])C([H])([H])C([H])(C(=O)N([H])C(=O)N4C([H])([H])C([H])([H])C([H])([H])C([H])(n5nc(-c6c([H])c([H])c(Oc7c([H])c([H])c(F)c([H])c7F)c([H])c6[H])c(C(=O)N([H])[H])c5N([H])[H])C4([H])[H])C([H])([H])C3([H])[N+]([H])([H])[H])c([H])c([H])c2C1([H])[H]

$$$$
17:0:0
     RDKit          3D

 91100  0  0  1  0  0  0  0  0999 V2000
  -30.5570  -15.2570   20.3680 C   0  0  0  0  0  0  0  0  0  0  0  0
  -30.4310  -12.8510   19.4660 C   0  0  0  0  0  2  0  0  0  0  0  0
  -29.5300  -12.6650   18.2250 C   0  0  0  0  0  2  0  0  0  0  0  0
  -28.0780  -12.4060   18.6580 C   0  0  0  0  0  2  0  0  0  0  0  0
  -27.6190  -13.3750   19.7760 C   0  0  0  0  0  3  0  0  0  0  0  0
  -28.6580  -13.5400   20.9060 C   0  0  0  0  0  2  0  0  0  0  0  0
  -29.8960  -14.0090   20.2670 N   0  0  0  0  0  0  0  0  0  0  0  0
  -31.7810  -15.1560   20.2060 O   0  0  0  0  0  0  0  0  0  0  0  0
  -28.3680  -21.3320   20.3730 C   0  0  0  0  0  0  0  0  0  0  0  0
  -28.5850  -18.6000   18.3920 C   0  0  0  0  0  2  0  0  0  0  0  0
  -28.5970  -17.2210   20.5840 C   0  0  0  0  0  2  0  0  0  0  0  0
  -30.7800  -17.9350   20.5490 C   0  0  0  0  0  2  0  0  0  0  0  0
  -28.2470  -18.6920   19.8960 C   0  0  0  0  0  3  0  0  0  0  0  0
  -30.2960  -19.3660   19.8350 C   0  0  0  0  0  3  0  0  0  0  0  0
  -30.0250  -19.1410   18.3180 C   0  0  1  0  0  0  0  0  0  0  0  0
  -30.9990  -18.1640   17.6220 C   0  0  0  0  0  1  0  0  0  0  0  0
  -30.0830  -20.4630   17.5160 C   0  0  0  0  0  1  0  0  0  0  0  0
  -28.9830  -19.9840   20.2920 N   0  0  0  0  0  0  0  0  0  0  0  0
  -29.9790  -16.6190   20.4150 N   0  0  0  0  0  0  0  0  0  0  0  0
  -27.1440  -21.3130   20.5230 O   0  0  0  0  0  0  0  0  0  0  0  0
  -25.2360  -13.9200   20.5020 C   0  0  0  0  0  0  0  0  0  0  0  0
  -24.1770  -13.1360   20.8620 C   0  0  0  0  0  0  0  0  0  0  0  0
  -24.6570  -11.7900   20.8450 C   0  0  0  0  0  0  0  0  0  0  0  0
  -26.2900  -13.0530   20.2780 N   0  0  0  0  0  0  0  0  0  0  0  0
  -25.9530  -11.7660   20.5540 N   0  0  0  0  0  0  0  0  0  0  0  0
  -23.9380  -10.5220   21.0290 C   0  0  0  0  0  0  0  0  0  0  0  0
  -24.3600   -9.5630   21.9760 C   0  0  0  0  0  3  0  0  0  0  0  0
  -23.6370   -8.3630   22.1500 C   0  0  0  0  0  3  0  0  0  0  0  0
  -22.4780   -8.1140   21.3780 C   0  0  0  0  0  0  0  0  0  0  0  0
  -22.0750   -9.0610   20.4200 C   0  0  0  0  0  3  0  0  0  0  0  0
  -22.7990  -10.2530   20.2440 C   0  0  0  0  0  3  0  0  0  0  0  0
  -21.7280   -6.9650   21.4600 O   0  0  0  0  0  0  0  0  0  0  0  0
  -21.6570   -6.2350   22.6190 C   0  0  0  0  0  0  0  0  0  0  0  0
  -21.1730   -6.7910   23.8230 C   0  0  0  0  0  3  0  0  0  0  0  0
  -21.0510   -5.9850   24.9720 C   0  0  0  0  0  3  0  0  0  0  0  0
  -21.4030   -4.6240   24.9190 C   0  0  0  0  0  0  0  0  0  0  0  0
  -21.8810   -4.0660   23.7200 C   0  0  0  0  0  3  0  0  0  0  0  0
  -22.0040   -4.8680   22.5720 C   0  0  0  0  0  0  0  0  0  0  0  0
  -22.4440   -4.3220   21.4130 F   0  0  0  0  0  0  0  0  0  0  0  0
  -21.2800   -3.8470   26.0210 F   0  0  0  0  0  0  0  0  0  0  0  0
  -22.7720  -13.6030   21.1040 C   0  0  0  0  0  0  0  0  0  0  0  0
  -22.0390  -12.9150   21.9720 N   0  0  0  0  0  0  0  0  0  0  0  0
  -22.3330  -14.6150   20.5580 O   0  0  0  0  0  0  0  0  0  0  0  0
  -22.4080  -12.0980   22.4340 H   0  0  0  0  0  0  0  0  0  0  0  0
  -21.0950  -13.2110   22.1770 H   0  0  0  0  0  0  0  0  0  0  0  0
  -25.3820  -15.2900   20.3160 N   0  0  0  0  0  0  0  0  0  0  0  0
  -24.6010  -15.9300   20.4110 H   0  0  0  0  0  0  0  0  0  0  0  0
  -26.2200  -15.7360   19.9700 H   0  0  0  0  0  0  0  0  0  0  0  0
  -28.9220  -22.9540   20.3090 C   0  0  0  0  0  3  0  0  0  0  0  0
  -27.9470  -24.4280   20.1770 C   0  0  0  0  0  3  0  0  0  0  0  0
  -28.2420  -26.0210   20.2900 O   0  0  0  0  0  0  0  0  0  0  0  0
  -24.6610  -31.9040   23.2610 C   0  0  0  0  0  0  0  0  0  0  0  0
  -27.2260  -27.0910   20.2290 C   0  0  0  0  0  0  0  0  0  0  0  0
  -23.4740  -30.5270   21.6000 C   0  0  0  0  0  3  0  0  0  0  0  0
  -24.9290  -28.9400   20.1780 C   0  0  0  0  0  0  0  0  0  0  0  0
  -26.0400  -30.7460   21.4740 C   0  0  0  0  0  2  0  0  0  0  0  0
  -26.1110  -29.3480   20.8080 C   0  0  0  0  0  0  0  0  0  0  0  0
  -27.2580  -28.4430   20.8090 C   0  0  0  0  0  3  0  0  0  0  0  0
  -26.0150  -26.8190   19.5560 C   0  0  0  0  0  3  0  0  0  0  0  0
  -24.9030  -27.6940   19.5320 C   0  0  0  0  0  3  0  0  0  0  0  0
  -23.7120  -29.8580   20.2190 C   0  0  0  0  0  2  0  0  0  0  0  0
  -24.7460  -31.0840   22.1650 N   0  0  0  0  0  0  0  0  0  0  0  0
  -23.5680  -32.1930   23.7760 O   0  0  0  0  0  0  0  0  0  0  0  0
  -22.7720  -29.5230   22.5490 C   0  0  0  0  0  0  0  0  0  0  0  0
  -21.4410  -29.3700   22.4140 N   0  0  0  0  0  0  0  0  0  0  0  0
  -23.4280  -28.8820   23.3730 O   0  0  0  0  0  0  0  0  0  0  0  0
  -20.9660  -29.9360   21.7250 H   0  0  0  0  0  0  0  0  0  0  0  0
  -18.0430  -28.2030   22.9040 C   0  0  0  0  0  0  0  0  0  0  0  0
  -20.6060  -28.4310   23.1700 C   0  0  0  0  0  3  0  0  0  0  0  0
  -20.6880  -27.0070   22.5730 C   0  0  0  0  0  2  0  0  0  0  0  0
  -19.5810  -26.7150   21.5550 C   0  0  0  0  0  2  0  0  0  0  0  0
  -18.2010  -26.8650   22.2030 C   0  0  0  0  0  2  0  0  0  0  0  0
  -19.1710  -28.9460   23.3440 C   0  0  0  0  0  0  0  0  0  0  0  0
  -18.9660  -30.1990   23.9630 C   0  0  0  0  0  3  0  0  0  0  0  0
  -17.6670  -30.7090   24.1450 C   0  0  0  0  0  3  0  0  0  0  0  0
  -16.5530  -29.9650   23.7180 C   0  0  0  0  0  3  0  0  0  0  0  0
  -16.7420  -28.7140   23.1040 C   0  0  0  0  0  3  0  0  0  0  0  0
  -25.9300  -32.5330   23.9100 C   0  0  0  0  0  3  0  0  0  0  0  0
  -25.6210  -33.9350   24.2390 N   0  0  0  0  0  0  0  0  0  0  0  0
  -25.9390  -34.9910   23.4770 C   0  0  0  0  0  0  0  0  0  0  0  0
  -26.5870  -34.8860   22.4330 O   0  0  0  0  0  0  0  0  0  0  0  0
  -25.0410  -34.0900   25.0510 H   0  0  0  0  0  0  0  0  0  0  0  0
  -24.1880  -36.7780   23.1870 C   0  0  0  0  0  1  0  0  0  0  0  0
  -25.4650  -36.3820   23.9450 C   0  0  0  0  0  3  0  0  0  0  0  0
  -27.6250  -37.2910   24.6830 C   0  0  0  0  0  1  0  0  0  0  0  0
  -26.4870  -37.4400   23.7800 N   0  0  0  0  0  0  0  0  0  0  0  0
  -26.0820  -38.3600   23.9300 H   0  0  0  0  0  0  0  0  0  0  0  0
  -26.4110  -31.7640   25.2020 C   0  0  1  0  0  0  0  0  0  0  0  0
  -25.2920  -31.5430   26.2480 C   0  0  0  0  0  1  0  0  0  0  0  0
  -26.9900  -30.3790   24.8370 C   0  0  0  0  0  1  0  0  0  0  0  0
  -27.5540  -32.5510   25.8850 C   0  0  0  0  0  1  0  0  0  0  0  0
  1 19  1  0
  2  7  1  0
  3  4  1  0
  3  2  1  0
  5  4  1  0
  5 24  1  0
  5  6  1  0
  7  1  1  0
  7  6  1  0
  8  1  2  0
  9 20  2  0
 13 10  1  0
 13 18  1  0
 13 11  1  0
 14 18  1  0
 14 12  1  0
 15 10  1  0
 15 14  1  0
 15 16  1  6
 17 15  1  0
 18  9  1  0
 19 12  1  0
 19 11  1  0
 21 22  2  0
 22 41  1  0
 23 22  1  0
 23 26  1  0
 24 21  1  0
 24 25  1  0
 25 23  2  0
 26 27  1  0
 27 28  2  0
 29 32  1  0
 29 28  1  0
 30 29  2  0
 31 30  1  0
 31 26  2  0
 32 33  1  0
 33 34  1  0
 34 35  2  0
 36 35  1  0
 36 40  1  0
 37 36  2  0
 38 33  2  0
 38 37  1  0
 39 38  1  0
 41 42  1  0
 42 45  1  0
 42 44  1  0
 43 41  2  0
 46 47  1  0
 46 21  1  0
 48 46  1  0
 49  9  1  0
 50 51  1  0
 50 49  2  0
 52 63  2  0
 53 51  1  0
 53 58  1  0
 54 62  1  0
 54 64  1  0
 55 61  1  0
 55 57  1  0
 56 62  1  0
 57 58  2  0
 57 56  1  0
 59 53  2  0
 60 59  1  0
 60 55  2  0
 61 54  1  0
 62 52  1  0
 64 66  2  0
 65 64  1  0
 67 65  1  0
 68 77  2  0
 68 73  1  0
 69 65  1  0
 69 73  1  0
 70 69  1  0
 71 72  1  0
 71 70  1  0
 72 68  1  0
 73 74  2  0
 74 75  1  0
 76 75  2  0
 77 76  1  0
 78 52  1  0
 78 79  1  0
 78 88  1  0
 79 82  1  0
 80 84  1  0
 80 79  1  0
 81 80  2  0
 84 83  1  0
 86 87  1  0
 86 84  1  0
 86 85  1  0
 88 91  1  1
 88 89  1  0
 90 88  1  0
M  ISO  4   1 100  19 100  50 101  51 101
M  END
>  <TORSDO>  (18) 
F 17

>  <SCORE>  (18) 
-16.332

>  <name>  (18) 
17

>  <ligand_id>  (18) 
17

>  <original_smiles>  (18) 
[H]c1c([H])c([H])c2c(c1[H])C([H])([H])C([H])([H])C([H])([H])C2([H])N([H])C(=O)C1([H])N(C(=O)C([H])(N([H])C(=O)C([H])(N([H])C([H])([H])[H])C([H])([H])[H])C(C([H])([H])[H])(C([H])([H])[H])C([H])([H])[H])C([H])([H])c2c([H])c(OC([H])([H])C([H])([H])C(=O)N3C4([H])C([H])([H])N(C(=O)N5C([H])([H])C([H])([H])C([H])([H])C([H])(n6nc(-c7c([H])c([H])c(Oc8c([H])c([H])c(F)c([H])c8F)c([H])c7[H])c(C(=O)N([H])[H])c6N([H])[H])C5([H])[H])C([H])([H])C3([H])C(C([H])([H])[H])(C([H])([H])[H])C4([H])[H])c([H])c([H])c2C1([H])[H]

>  <smiles>  (18) 
[H]c1c([H])c([H])c2c(c1[H])C([H])([H])C([H])([H])C([H])([H])C2([H])N([H])C(=O)C1([H])N(C(=O)C([H])(N([H])C(=O)C([H])(N([H])C([H])([H])[H])C([H])([H])[H])C(C([H])([H])[H])(C([H])([H])[H])C([H])([H])[H])C([H])([H])c2c([H])c(OC([H])([H])C([H])([H])C(=O)N3C4([H])C([H])([H])N(C(=O)N5C([H])([H])C([H])([H])C([H])([H])C([H])(n6nc(-c7c([H])c([H])c(Oc8c([H])c([H])c(F)c([H])c8F)c([H])c7[H])c(C(=O)N([H])[H])c6N([H])[H])C5([H])[H])C([H])([H])C3([H])C(C([H])([H])[H])(C([H])([H])[H])C4([H])[H])c([H])c([H])c2C1([H])[H]

$$$$
18:0:0
     RDKit          3D

 95104  0  0  1  0  0  0  0  0999 V2000
  -27.6860  -20.9280   19.8930 C   0  0  0  0  0  2  0  0  0  0  0  0
  -26.9050  -22.1280   20.4800 C   0  0  0  0  0  2  0  0  0  0  0  0
  -28.0710  -24.3150   20.1630 C   0  0  0  0  0  0  0  0  0  0  0  0
  -27.7200  -23.2640   20.9240 N   0  0  0  0  0  0  0  0  0  0  0  0
  -27.9950  -24.2880   18.9320 O   0  0  0  0  0  0  0  0  0  0  0  0
  -27.8420  -23.3710   21.9230 H   0  0  0  0  0  0  0  0  0  0  0  0
  -28.5310  -25.5900   20.9020 C   0  0  0  0  0  2  0  0  0  0  0  0
  -28.4960  -26.7630   20.0690 O   0  0  0  0  0  0  0  0  0  0  0  0
  -24.5840  -31.8530   23.1660 C   0  0  0  0  0  0  0  0  0  0  0  0
  -27.3170  -27.4730   20.0880 C   0  0  0  0  0  0  0  0  0  0  0  0
  -23.4170  -30.4550   21.4930 C   0  0  0  0  0  3  0  0  0  0  0  0
  -24.9060  -28.9450   20.0790 C   0  0  0  0  0  0  0  0  0  0  0  0
  -25.9400  -30.8450   21.3350 C   0  0  0  0  0  2  0  0  0  0  0  0
  -26.0510  -29.4800   20.6860 C   0  0  0  0  0  0  0  0  0  0  0  0
  -27.2620  -28.7510   20.6880 C   0  0  0  0  0  3  0  0  0  0  0  0
  -26.1590  -26.9520   19.4750 C   0  0  0  0  0  3  0  0  0  0  0  0
  -24.9540  -27.6780   19.4730 C   0  0  0  0  0  3  0  0  0  0  0  0
  -23.6540  -29.7890   20.1110 C   0  0  0  0  0  2  0  0  0  0  0  0
  -24.6640  -31.0660   22.0570 N   0  0  0  0  0  0  0  0  0  0  0  0
  -23.4920  -32.1080   23.6940 O   0  0  0  0  0  0  0  0  0  0  0  0
  -22.7660  -29.4160   22.4330 C   0  0  0  0  0  0  0  0  0  0  0  0
  -21.4440  -29.2250   22.2890 N   0  0  0  0  0  0  0  0  0  0  0  0
  -23.4460  -28.7850   23.2460 O   0  0  0  0  0  0  0  0  0  0  0  0
  -20.9570  -29.7850   21.6020 H   0  0  0  0  0  0  0  0  0  0  0  0
  -18.0740  -28.0020   22.7340 C   0  0  0  0  0  0  0  0  0  0  0  0
  -20.6260  -28.2730   23.0390 C   0  0  0  0  0  3  0  0  0  0  0  0
  -20.7450  -26.8490   22.4490 C   0  0  0  0  0  2  0  0  0  0  0  0
  -19.6590  -26.5300   21.4180 C   0  0  0  0  0  2  0  0  0  0  0  0
  -18.2690  -26.6610   22.0450 C   0  0  0  0  0  2  0  0  0  0  0  0
  -19.1810  -28.7670   23.1860 C   0  0  0  0  0  0  0  0  0  0  0  0
  -18.9480  -30.0230   23.7870 C   0  0  0  0  0  3  0  0  0  0  0  0
  -17.6370  -30.5130   23.9410 C   0  0  0  0  0  3  0  0  0  0  0  0
  -16.5440  -29.7440   23.5060 C   0  0  0  0  0  3  0  0  0  0  0  0
  -16.7620  -28.4910   22.9090 C   0  0  0  0  0  3  0  0  0  0  0  0
  -25.8560  -32.4910   23.8090 C   0  0  0  0  0  3  0  0  0  0  0  0
  -25.5230  -33.8800   24.1590 N   0  0  0  0  0  0  0  0  0  0  0  0
  -25.8390  -34.9470   23.4130 C   0  0  0  0  0  0  0  0  0  0  0  0
  -26.5100  -34.8670   22.3800 O   0  0  0  0  0  0  0  0  0  0  0  0
  -24.9270  -34.0140   24.9630 H   0  0  0  0  0  0  0  0  0  0  0  0
  -24.0740  -36.7070   23.0870 C   0  0  0  0  0  1  0  0  0  0  0  0
  -25.3280  -36.3190   23.8870 C   0  0  0  0  0  3  0  0  0  0  0  0
  -27.4500  -37.2360   24.7160 C   0  0  0  0  0  1  0  0  0  0  0  0
  -26.3400  -37.3930   23.7790 N   0  0  0  0  0  0  0  0  0  0  0  0
  -25.9180  -38.3030   23.9390 H   0  0  0  0  0  0  0  0  0  0  0  0
  -26.3750  -31.7040   25.0750 C   0  0  1  0  0  0  0  0  0  0  0  0
  -25.2800  -31.4350   26.1330 C   0  0  0  0  0  1  0  0  0  0  0  0
  -26.9760  -30.3400   24.6610 C   0  0  0  0  0  1  0  0  0  0  0  0
  -27.5130  -32.5000   25.7570 C   0  0  0  0  0  1  0  0  0  0  0  0
  -28.4990  -20.0900   20.9130 C   0  0  0  0  0  2  0  0  0  0  0  0
  -30.8220  -18.7480   19.4900 C   0  0  0  0  0  2  0  0  0  0  0  0
  -30.9810  -18.3340   20.9670 C   0  0  0  0  0  2  0  0  0  0  0  0
  -29.2450  -16.8430   19.1420 C   0  0  0  0  0  2  0  0  0  0  0  0
  -29.3360  -16.4210   20.6400 C   0  0  0  0  0  3  0  0  0  0  0  0
  -29.3490  -18.3830   19.2180 C   0  0  0  0  0  3  0  0  0  0  0  0
  -29.5640  -17.8080   21.3070 C   0  0  0  0  0  3  0  0  0  0  0  0
  -28.6750  -18.6630   20.4970 N   0  0  1  0  0  4  0  0  0  0  0  0
  -27.7580  -18.2400   20.4830 H   0  0  0  0  0  0  0  0  0  0  0  0
  -30.8300  -14.4630   20.1910 C   0  0  0  0  0  0  0  0  0  0  0  0
  -30.4030  -12.3640   18.9730 C   0  0  0  0  0  2  0  0  0  0  0  0
  -29.4210  -12.6020   17.8110 C   0  0  0  0  0  2  0  0  0  0  0  0
  -27.9650  -12.4680   18.2990 C   0  0  0  0  0  2  0  0  0  0  0  0
  -27.6890  -13.2950   19.5820 C   0  0  0  0  0  3  0  0  0  0  0  0
  -28.7820  -13.0530   20.6470 C   0  0  0  0  0  2  0  0  0  0  0  0
  -30.0890  -13.3350   20.0310 N   0  0  0  0  0  0  0  0  0  0  0  0
  -31.9100  -14.6480   19.6290 O   0  0  0  0  0  0  0  0  0  0  0  0
  -30.3500  -15.4100   21.0110 N   0  0  0  0  0  0  0  0  0  0  0  0
  -31.1110  -15.8510   21.5030 H   0  0  0  0  0  0  0  0  0  0  0  0
  -25.3300  -13.9360   20.3860 C   0  0  0  0  0  0  0  0  0  0  0  0
  -24.2660  -13.1760   20.7930 C   0  0  0  0  0  0  0  0  0  0  0  0
  -24.7050  -11.8180   20.7300 C   0  0  0  0  0  0  0  0  0  0  0  0
  -26.3510  -13.0400   20.1090 N   0  0  0  0  0  0  0  0  0  0  0  0
  -25.9810  -11.7610   20.3710 N   0  0  0  0  0  0  0  0  0  0  0  0
  -23.9670  -10.5660   20.9350 C   0  0  0  0  0  0  0  0  0  0  0  0
  -24.3980   -9.6020   21.8740 C   0  0  0  0  0  3  0  0  0  0  0  0
  -23.6630   -8.4120   22.0650 C   0  0  0  0  0  3  0  0  0  0  0  0
  -22.4860   -8.1770   21.3170 C   0  0  0  0  0  0  0  0  0  0  0  0
  -22.0760   -9.1280   20.3660 C   0  0  0  0  0  3  0  0  0  0  0  0
  -22.8090  -10.3100   20.1740 C   0  0  0  0  0  3  0  0  0  0  0  0
  -21.7210   -7.0400   21.4180 O   0  0  0  0  0  0  0  0  0  0  0  0
  -21.6390   -6.3300   22.5890 C   0  0  0  0  0  0  0  0  0  0  0  0
  -21.1840   -6.9200   23.7880 C   0  0  0  0  0  3  0  0  0  0  0  0
  -21.0490   -6.1370   24.9510 C   0  0  0  0  0  3  0  0  0  0  0  0
  -21.3580   -4.7640   24.9170 C   0  0  0  0  0  0  0  0  0  0  0  0
  -21.8060   -4.1730   23.7220 C   0  0  0  0  0  3  0  0  0  0  0  0
  -21.9430   -4.9530   22.5610 C   0  0  0  0  0  0  0  0  0  0  0  0
  -22.3550   -4.3750   21.4070 F   0  0  0  0  0  0  0  0  0  0  0  0
  -21.2220   -4.0090   26.0320 F   0  0  0  0  0  0  0  0  0  0  0  0
  -22.8860  -13.6710   21.1220 C   0  0  0  0  0  0  0  0  0  0  0  0
  -22.1830  -12.9770   22.0100 N   0  0  0  0  0  0  0  0  0  0  0  0
  -22.4430  -14.7060   20.6260 O   0  0  0  0  0  0  0  0  0  0  0  0
  -22.5570  -12.1380   22.4300 H   0  0  0  0  0  0  0  0  0  0  0  0
  -21.2600  -13.2880   22.2750 H   0  0  0  0  0  0  0  0  0  0  0  0
  -25.5080  -15.3050   20.2030 N   0  0  0  0  0  0  0  0  0  0  0  0
  -24.7200  -15.9390   20.2720 H   0  0  0  0  0  0  0  0  0  0  0  0
  -26.2710  -15.6770   19.6580 H   0  0  0  0  0  0  0  0  0  0  0  0
  1  2  1  0
  1 49  1  0
  2  4  1  0
  3  7  1  0
  3  4  1  0
  4  6  1  0
  5  3  2  0
  8 10  1  0
  8  7  1  0
  9 20  2  0
 10 15  1  0
 11 19  1  0
 11 21  1  0
 12 18  1  0
 12 14  1  0
 13 19  1  0
 14 15  2  0
 14 13  1  0
 16 10  2  0
 17 16  1  0
 17 12  2  0
 18 11  1  0
 19  9  1  0
 21 23  2  0
 22 21  1  0
 24 22  1  0
 25 34  2  0
 25 30  1  0
 26 22  1  0
 26 30  1  0
 27 26  1  0
 28 29  1  0
 28 27  1  0
 29 25  1  0
 30 31  2  0
 31 32  1  0
 33 32  2  0
 34 33  1  0
 35  9  1  0
 35 36  1  0
 35 45  1  0
 36 39  1  0
 37 41  1  0
 37 36  1  0
 38 37  2  0
 41 40  1  0
 43 41  1  0
 43 44  1  0
 43 42  1  0
 45 48  1  1
 45 46  1  0
 47 45  1  0
 50 51  1  0
 52 53  1  0
 53 66  1  0
 53 55  1  0
 54 52  1  0
 54 50  1  0
 54 56  1  0
 55 51  1  0
 56 49  1  0
 56 55  1  0
 56 57  1  6
 58 66  1  0
 59 64  1  0
 60 61  1  0
 60 59  1  0
 62 61  1  0
 62 71  1  0
 62 63  1  0
 64 58  1  0
 64 63  1  0
 65 58  2  0
 66 67  1  0
 68 69  2  0
 69 88  1  0
 70 69  1  0
 70 73  1  0
 71 72  1  0
 71 68  1  0
 72 70  2  0
 73 74  1  0
 74 75  2  0
 76 79  1  0
 76 75  1  0
 77 76  2  0
 78 77  1  0
 78 73  2  0
 79 80  1  0
 80 81  1  0
 81 82  2  0
 83 82  1  0
 83 87  1  0
 84 83  2  0
 85 80  2  0
 85 84  1  0
 86 85  1  0
 88 89  1  0
 89 92  1  0
 89 91  1  0
 90 88  2  0
 93 94  1  0
 93 68  1  0
 95 93  1  0
M  ISO  4   7 101   8 101  58 100  66 100
M  END
>  <TORSDO>  (19) 
F 21

>  <SCORE>  (19) 
-13.224

>  <name>  (19) 
18

>  <ligand_id>  (19) 
18

>  <original_smiles>  (19) 
[H]c1c([H])c([H])c2c(c1[H])C([H])([H])C([H])([H])C([H])([H])C2([H])N([H])C(=O)C1([H])N(C(=O)C([H])(N([H])C(=O)C([H])(N([H])C([H])([H])[H])C([H])([H])[H])C(C([H])([H])[H])(C([H])([H])[H])C([H])([H])[H])C([H])([H])c2c([H])c(OC([H])([H])C(=O)N([H])C([H])([H])C([H])([H])C([H])([H])[N+]3([H])C4([H])C([H])([H])C([H])([H])C3([H])C([H])(N([H])C(=O)N3C([H])([H])C([H])([H])C([H])([H])C([H])(n5nc(-c6c([H])c([H])c(Oc7c([H])c([H])c(F)c([H])c7F)c([H])c6[H])c(C(=O)N([H])[H])c5N([H])[H])C3([H])[H])C4([H])[H])c([H])c([H])c2C1([H])[H]

>  <smiles>  (19) 
[H]c1c([H])c([H])c2c(c1[H])C([H])([H])C([H])([H])C([H])([H])C2([H])N([H])C(=O)C1([H])N(C(=O)C([H])(N([H])C(=O)C([H])(N([H])C([H])([H])[H])C([H])([H])[H])C(C([H])([H])[H])(C([H])([H])[H])C([H])([H])[H])C([H])([H])c2c([H])c(OC([H])([H])C(=O)N([H])C([H])([H])C([H])([H])C([H])([H])[N+]3([H])C4([H])C([H])([H])C([H])([H])C3([H])C([H])(N([H])C(=O)N3C([H])([H])C([H])([H])C([H])([H])C([H])(n5nc(-c6c([H])c([H])c(Oc7c([H])c([H])c(F)c([H])c7F)c([H])c6[H])c(C(=O)N([H])[H])c5N([H])[H])C3([H])[H])C4([H])[H])c([H])c([H])c2C1([H])[H]

$$$$
19:0:0
     RDKit          3D

 93101  0  0  1  0  0  0  0  0999 V2000
  -27.3950  -20.8430   20.3530 C   0  0  0  0  0  2  0  0  0  0  0  0
  -28.9010  -20.6480   20.6600 C   0  0  0  0  0  3  0  0  0  0  0  0
  -27.0530  -22.3740   20.4180 C   0  0  0  0  0  3  0  0  0  0  0  0
  -28.3160  -23.2030   20.0280 C   0  0  0  0  0  3  0  0  0  0  0  0
  -29.3990  -22.0680   20.2180 N   0  0  0  0  0  4  0  0  0  0  0  0
  -29.8620  -21.9490   19.3310 H   0  0  0  0  0  0  0  0  0  0  0  0
  -30.1050  -22.3700   20.8670 H   0  0  0  0  0  0  0  0  0  0  0  0
  -25.9330  -22.6570   19.5330 N   0  0  0  0  0  0  0  0  0  0  0  0
  -26.1320  -22.3390   18.5880 H   0  0  0  0  0  0  0  0  0  0  0  0
  -25.1270  -22.1050   19.8150 H   0  0  0  0  0  0  0  0  0  0  0  0
  -29.4950  -19.1860   19.9690 C   0  0  0  0  0  0  0  0  0  0  0  0
  -29.5350  -19.1100   18.7380 O   0  0  0  0  0  0  0  0  0  0  0  0
  -30.0320  -17.8110   20.7590 C   0  0  0  0  0  2  0  0  0  0  0  0
  -30.5450  -15.0970   20.2330 C   0  0  0  0  0  0  0  0  0  0  0  0
  -30.4330  -12.7480   19.2460 C   0  0  0  0  0  2  0  0  0  0  0  0
  -29.4800  -12.6910   18.0290 C   0  0  0  0  0  2  0  0  0  0  0  0
  -28.0240  -12.4660   18.4820 C   0  0  0  0  0  2  0  0  0  0  0  0
  -27.6280  -13.3810   19.6700 C   0  0  0  0  0  3  0  0  0  0  0  0
  -28.7000  -13.3960   20.7790 C   0  0  0  0  0  2  0  0  0  0  0  0
  -29.9490  -13.8360   20.1450 N   0  0  0  0  0  0  0  0  0  0  0  0
  -31.7600  -15.1530   20.0180 O   0  0  0  0  0  0  0  0  0  0  0  0
  -29.7560  -16.2840   20.3630 N   0  0  0  0  0  0  0  0  0  0  0  0
  -28.7700  -16.0750   20.3510 H   0  0  0  0  0  0  0  0  0  0  0  0
  -25.2550  -13.9510   20.4340 C   0  0  0  0  0  0  0  0  0  0  0  0
  -24.1980  -13.1720   20.8160 C   0  0  0  0  0  0  0  0  0  0  0  0
  -24.6700  -11.8240   20.7870 C   0  0  0  0  0  0  0  0  0  0  0  0
  -26.2990  -13.0770   20.1860 N   0  0  0  0  0  0  0  0  0  0  0  0
  -25.9590  -11.7920   20.4670 N   0  0  0  0  0  0  0  0  0  0  0  0
  -23.9500  -10.5590   20.9850 C   0  0  0  0  0  0  0  0  0  0  0  0
  -24.3870   -9.5990   21.9250 C   0  0  0  0  0  3  0  0  0  0  0  0
  -23.6660   -8.4000   22.1120 C   0  0  0  0  0  3  0  0  0  0  0  0
  -22.4930   -8.1530   21.3590 C   0  0  0  0  0  0  0  0  0  0  0  0
  -22.0760   -9.1000   20.4090 C   0  0  0  0  0  3  0  0  0  0  0  0
  -22.7980  -10.2910   20.2200 C   0  0  0  0  0  3  0  0  0  0  0  0
  -21.7430   -7.0060   21.4550 O   0  0  0  0  0  0  0  0  0  0  0  0
  -21.6920   -6.2740   22.6150 C   0  0  0  0  0  0  0  0  0  0  0  0
  -21.2490   -6.8350   23.8320 C   0  0  0  0  0  3  0  0  0  0  0  0
  -21.1470   -6.0290   24.9840 C   0  0  0  0  0  3  0  0  0  0  0  0
  -21.4780   -4.6620   24.9190 C   0  0  0  0  0  0  0  0  0  0  0  0
  -21.9150   -4.1000   23.7060 C   0  0  0  0  0  3  0  0  0  0  0  0
  -22.0180   -4.9030   22.5560 C   0  0  0  0  0  0  0  0  0  0  0  0
  -22.4190   -4.3520   21.3860 F   0  0  0  0  0  0  0  0  0  0  0  0
  -21.3730   -3.8860   26.0220 F   0  0  0  0  0  0  0  0  0  0  0  0
  -22.8000  -13.6450   21.0920 C   0  0  0  0  0  0  0  0  0  0  0  0
  -22.0790  -12.9480   21.9620 N   0  0  0  0  0  0  0  0  0  0  0  0
  -22.3580  -14.6670   20.5690 O   0  0  0  0  0  0  0  0  0  0  0  0
  -22.4520  -12.1220   22.4060 H   0  0  0  0  0  0  0  0  0  0  0  0
  -21.1410  -13.2460   22.1900 H   0  0  0  0  0  0  0  0  0  0  0  0
  -25.4080  -15.3220   20.2470 N   0  0  0  0  0  0  0  0  0  0  0  0
  -24.6290  -15.9630   20.3510 H   0  0  0  0  0  0  0  0  0  0  0  0
  -26.2280  -15.7600   19.8520 H   0  0  0  0  0  0  0  0  0  0  0  0
  -28.3290  -24.7580   20.7600 C   0  0  0  0  0  2  0  0  0  0  0  0
  -28.3500  -26.2360   20.2180 O   0  0  0  0  0  0  0  0  0  0  0  0
  -24.6280  -31.9120   23.2410 C   0  0  0  0  0  0  0  0  0  0  0  0
  -27.2590  -27.1840   20.2570 C   0  0  0  0  0  0  0  0  0  0  0  0
  -23.4490  -30.5020   21.5990 C   0  0  0  0  0  3  0  0  0  0  0  0
  -24.9170  -28.9200   20.1980 C   0  0  0  0  0  0  0  0  0  0  0  0
  -26.0020  -30.7810   21.4470 C   0  0  0  0  0  2  0  0  0  0  0  0
  -26.0920  -29.3820   20.8060 C   0  0  0  0  0  0  0  0  0  0  0  0
  -27.2660  -28.5340   20.8070 C   0  0  0  0  0  3  0  0  0  0  0  0
  -26.0530  -26.8180   19.6270 C   0  0  0  0  0  3  0  0  0  0  0  0
  -24.9110  -27.6520   19.5930 C   0  0  0  0  0  3  0  0  0  0  0  0
  -23.6850  -29.8150   20.2270 C   0  0  0  0  0  2  0  0  0  0  0  0
  -24.7130  -31.0880   22.1510 N   0  0  0  0  0  0  0  0  0  0  0  0
  -23.5360  -32.1900   23.7610 O   0  0  0  0  0  0  0  0  0  0  0  0
  -22.7700  -29.4960   22.5620 C   0  0  0  0  0  0  0  0  0  0  0  0
  -21.4450  -29.3080   22.4200 N   0  0  0  0  0  0  0  0  0  0  0  0
  -23.4380  -28.8850   23.4000 O   0  0  0  0  0  0  0  0  0  0  0  0
  -20.9620  -29.8520   21.7190 H   0  0  0  0  0  0  0  0  0  0  0  0
  -18.0790  -28.0470   22.8710 C   0  0  0  0  0  0  0  0  0  0  0  0
  -20.6260  -28.3650   23.1870 C   0  0  0  0  0  3  0  0  0  0  0  0
  -20.7670  -26.9270   22.6360 C   0  0  0  0  0  2  0  0  0  0  0  0
  -19.6930  -26.5680   21.6030 C   0  0  0  0  0  2  0  0  0  0  0  0
  -18.2960  -26.6930   22.2170 C   0  0  0  0  0  2  0  0  0  0  0  0
  -19.1720  -28.8380   23.3120 C   0  0  0  0  0  0  0  0  0  0  0  0
  -18.9140  -30.1030   23.8860 C   0  0  0  0  0  3  0  0  0  0  0  0
  -17.5960  -30.5760   24.0210 C   0  0  0  0  0  3  0  0  0  0  0  0
  -16.5170  -29.7840   23.5950 C   0  0  0  0  0  3  0  0  0  0  0  0
  -16.7580  -28.5210   23.0270 C   0  0  0  0  0  3  0  0  0  0  0  0
  -25.8960  -32.5590   23.8760 C   0  0  0  0  0  3  0  0  0  0  0  0
  -26.3920  -31.8090   25.1740 C   0  0  1  0  0  0  0  0  0  0  0  0
  -25.2830  -31.5860   26.2290 C   0  0  0  0  0  1  0  0  0  0  0  0
  -26.9830  -30.4250   24.8160 C   0  0  0  0  0  1  0  0  0  0  0  0
  -27.5320  -32.6140   25.8410 C   0  0  0  0  0  1  0  0  0  0  0  0
  -25.5760  -33.9620   24.1890 N   0  0  0  0  0  0  0  0  0  0  0  0
  -25.9170  -35.0130   23.4310 C   0  0  0  0  0  0  0  0  0  0  0  0
  -26.5990  -34.9030   22.4090 O   0  0  0  0  0  0  0  0  0  0  0  0
  -24.9700  -34.1200   24.9810 H   0  0  0  0  0  0  0  0  0  0  0  0
  -24.1940  -36.8080   23.0450 C   0  0  0  0  0  1  0  0  0  0  0  0
  -25.4240  -36.4050   23.8750 C   0  0  0  0  0  3  0  0  0  0  0  0
  -27.5450  -37.2970   24.7340 C   0  0  0  0  0  1  0  0  0  0  0  0
  -26.4590  -37.4560   23.7710 N   0  0  0  0  0  0  0  0  0  0  0  0
  -26.0500  -38.3780   23.9040 H   0  0  0  0  0  0  0  0  0  0  0  0
  1  3  1  0
  1  2  1  0
  2 11  1  0
  3  8  1  0
  4  5  1  0
  4  3  1  0
  4 52  1  0
  5  2  1  0
  5  7  1  0
  6  5  1  0
  8 10  1  0
  9  8  1  0
 11 13  1  0
 12 11  2  0
 14 22  1  0
 15 20  1  0
 16 17  1  0
 16 15  1  0
 18 17  1  0
 18 27  1  0
 18 19  1  0
 20 14  1  0
 20 19  1  0
 21 14  2  0
 22 13  1  0
 23 22  1  0
 24 25  2  0
 25 44  1  0
 26 25  1  0
 26 29  1  0
 27 24  1  0
 27 28  1  0
 28 26  2  0
 29 30  1  0
 30 31  2  0
 32 35  1  0
 32 31  1  0
 33 32  2  0
 34 33  1  0
 34 29  2  0
 35 36  1  0
 36 37  1  0
 37 38  2  0
 39 38  1  0
 39 43  1  0
 40 39  2  0
 41 36  2  0
 41 40  1  0
 42 41  1  0
 44 45  1  0
 45 48  1  0
 45 47  1  0
 46 44  2  0
 49 50  1  0
 49 24  1  0
 51 49  1  0
 53 55  1  0
 53 52  1  0
 54 65  2  0
 55 60  1  0
 56 64  1  0
 56 66  1  0
 57 63  1  0
 57 59  1  0
 58 64  1  0
 59 60  2  0
 59 58  1  0
 61 55  2  0
 62 61  1  0
 62 57  2  0
 63 56  1  0
 64 54  1  0
 66 68  2  0
 67 66  1  0
 69 67  1  0
 70 79  2  0
 70 75  1  0
 71 67  1  0
 71 75  1  0
 72 71  1  0
 73 74  1  0
 73 72  1  0
 74 70  1  0
 75 76  2  0
 76 77  1  0
 78 77  2  0
 79 78  1  0
 80 54  1  0
 80 85  1  0
 80 81  1  0
 81 84  1  1
 81 82  1  0
 83 81  1  0
 85 88  1  0
 86 90  1  0
 86 85  1  0
 87 86  2  0
 90 89  1  0
 92 90  1  0
 92 93  1  0
 92 91  1  0
M  ISO  4  14 100  22 100  52 101  53 101
M  END
>  <TORSDO>  (20) 
F 20

>  <SCORE>  (20) 
-14.722

>  <name>  (20) 
19

>  <ligand_id>  (20) 
19

>  <original_smiles>  (20) 
[H]c1c([H])c([H])c2c(c1[H])C([H])([H])C([H])([H])C([H])([H])C2([H])N([H])C(=O)C1([H])N(C(=O)C([H])(N([H])C(=O)C([H])(N([H])C([H])([H])[H])C([H])([H])[H])C(C([H])([H])[H])(C([H])([H])[H])C([H])([H])[H])C([H])([H])c2c([H])c(OC([H])([H])C3([H])C([H])(N([H])[H])C([H])([H])C([H])(C(=O)C([H])([H])N([H])C(=O)N4C([H])([H])C([H])([H])C([H])([H])C([H])(n5nc(-c6c([H])c([H])c(Oc7c([H])c([H])c(F)c([H])c7F)c([H])c6[H])c(C(=O)N([H])[H])c5N([H])[H])C4([H])[H])[N+]3([H])[H])c([H])c([H])c2C1([H])[H]

>  <smiles>  (20) 
[H]c1c([H])c([H])c2c(c1[H])C([H])([H])C([H])([H])C([H])([H])C2([H])N([H])C(=O)C1([H])N(C(=O)C([H])(N([H])C(=O)C([H])(N([H])C([H])([H])[H])C([H])([H])[H])C(C([H])([H])[H])(C([H])([H])[H])C([H])([H])[H])C([H])([H])c2c([H])c(OC([H])([H])C3([H])C([H])(N([H])[H])C([H])([H])C([H])(C(=O)C([H])([H])N([H])C(=O)N4C([H])([H])C([H])([H])C([H])([H])C([H])(n5nc(-c6c([H])c([H])c(Oc7c([H])c([H])c(F)c([H])c7F)c([H])c6[H])c(C(=O)N([H])[H])c5N([H])[H])C4([H])[H])[N+]3([H])[H])c([H])c([H])c2C1([H])[H]

$$$$
20:0:0
     RDKit          3D

 93101  0  0  1  0  0  0  0  0999 V2000
  -28.5000  -24.4550   20.5530 C   0  0  0  0  0  0  0  0  0  0  0  0
  -26.0210  -22.2560   20.8660 C   0  0  0  0  0  2  0  0  0  0  0  0
  -26.1610  -23.7470   20.5760 C   0  0  0  0  0  2  0  0  0  0  0  0
  -27.5450  -22.2110   21.0360 C   0  0  0  0  0  3  0  0  0  0  0  0
  -27.5590  -23.4640   20.2710 N   0  0  0  0  0  0  0  0  0  0  0  0
  -29.2520  -24.3790   21.5280 O   0  0  0  0  0  0  0  0  0  0  0  0
  -28.1930  -21.0130   20.3190 C   0  0  0  0  0  0  0  0  0  0  0  0
  -27.9890  -19.8220   20.8960 N   0  0  0  0  0  0  0  0  0  0  0  0
  -28.8100  -21.1540   19.2600 O   0  0  0  0  0  0  0  0  0  0  0  0
  -27.4880  -19.8330   21.7750 H   0  0  0  0  0  0  0  0  0  0  0  0
  -28.1770  -18.5100   20.2780 C   0  0  0  0  0  2  0  0  0  0  0  0
  -29.3490  -17.7160   20.8850 C   0  0  0  0  0  2  0  0  0  0  0  0
  -29.2730  -16.2160   20.4950 C   0  0  0  0  0  2  0  0  0  0  0  0
  -30.8550  -14.4000   20.0670 C   0  0  0  0  0  0  0  0  0  0  0  0
  -30.4270  -12.2420   18.9420 C   0  0  0  0  0  2  0  0  0  0  0  0
  -29.4500  -12.4240   17.7640 C   0  0  0  0  0  2  0  0  0  0  0  0
  -27.9900  -12.3360   18.2460 C   0  0  0  0  0  2  0  0  0  0  0  0
  -27.7160  -13.2290   19.4850 C   0  0  0  0  0  3  0  0  0  0  0  0
  -28.7980  -13.0080   20.5670 C   0  0  0  0  0  2  0  0  0  0  0  0
  -30.1120  -13.2620   19.9540 N   0  0  0  0  0  0  0  0  0  0  0  0
  -31.9330  -14.5510   19.4820 O   0  0  0  0  0  0  0  0  0  0  0  0
  -31.3450  -15.9180   21.8830 C   0  0  0  0  0  1  0  0  0  0  0  0
  -30.3980  -15.3490   20.9190 N   0  0  0  0  0  0  0  0  0  0  0  0
  -25.3680  -13.9470   20.2630 C   0  0  0  0  0  0  0  0  0  0  0  0
  -24.2840  -13.2230   20.6810 C   0  0  0  0  0  0  0  0  0  0  0  0
  -24.6900  -11.8540   20.6520 C   0  0  0  0  0  0  0  0  0  0  0  0
  -26.3710  -13.0210   20.0120 N   0  0  0  0  0  0  0  0  0  0  0  0
  -25.9660  -11.7580   20.3010 N   0  0  0  0  0  0  0  0  0  0  0  0
  -23.9230  -10.6240   20.8810 C   0  0  0  0  0  0  0  0  0  0  0  0
  -24.3520   -9.6480   21.8070 C   0  0  0  0  0  3  0  0  0  0  0  0
  -23.5880   -8.4810   22.0230 C   0  0  0  0  0  3  0  0  0  0  0  0
  -22.3810   -8.2820   21.3120 C   0  0  0  0  0  0  0  0  0  0  0  0
  -21.9710   -9.2460   20.3730 C   0  0  0  0  0  3  0  0  0  0  0  0
  -22.7350  -10.4040   20.1560 C   0  0  0  0  0  3  0  0  0  0  0  0
  -21.5860   -7.1690   21.4380 O   0  0  0  0  0  0  0  0  0  0  0  0
  -21.5490   -6.4400   22.6010 C   0  0  0  0  0  0  0  0  0  0  0  0
  -21.2180   -7.0300   23.8400 C   0  0  0  0  0  3  0  0  0  0  0  0
  -21.1230   -6.2300   24.9960 C   0  0  0  0  0  3  0  0  0  0  0  0
  -21.3500   -4.8430   24.9150 C   0  0  0  0  0  0  0  0  0  0  0  0
  -21.6740   -4.2530   23.6810 C   0  0  0  0  0  3  0  0  0  0  0  0
  -21.7710   -5.0500   22.5260 C   0  0  0  0  0  0  0  0  0  0  0  0
  -22.0620   -4.4740   21.3350 F   0  0  0  0  0  0  0  0  0  0  0  0
  -21.2520   -4.0720   26.0240 F   0  0  0  0  0  0  0  0  0  0  0  0
  -22.9160  -13.7580   20.9930 C   0  0  0  0  0  0  0  0  0  0  0  0
  -22.1940  -13.1020   21.8950 N   0  0  0  0  0  0  0  0  0  0  0  0
  -22.4990  -14.7910   20.4730 O   0  0  0  0  0  0  0  0  0  0  0  0
  -22.5440  -12.2640   22.3360 H   0  0  0  0  0  0  0  0  0  0  0  0
  -21.2770  -13.4430   22.1470 H   0  0  0  0  0  0  0  0  0  0  0  0
  -25.5790  -15.3060   20.0550 N   0  0  0  0  0  0  0  0  0  0  0  0
  -24.8380  -15.9890   20.1630 H   0  0  0  0  0  0  0  0  0  0  0  0
  -26.4200  -15.6940   19.6500 H   0  0  0  0  0  0  0  0  0  0  0  0
  -28.6610  -25.5930   19.5300 C   0  0  0  0  0  2  0  0  0  0  0  0
  -28.4970  -26.8700   20.1640 O   0  0  0  0  0  0  0  0  0  0  0  0
  -24.6130  -31.9350   23.2780 C   0  0  0  0  0  0  0  0  0  0  0  0
  -27.2780  -27.5190   20.1700 C   0  0  0  0  0  0  0  0  0  0  0  0
  -23.4060  -30.5290   21.6380 C   0  0  0  0  0  3  0  0  0  0  0  0
  -24.8630  -28.9980   20.2100 C   0  0  0  0  0  0  0  0  0  0  0  0
  -25.9280  -30.9010   21.4320 C   0  0  0  0  0  2  0  0  0  0  0  0
  -26.0180  -29.5300   20.7960 C   0  0  0  0  0  0  0  0  0  0  0  0
  -27.2230  -28.7930   20.7780 C   0  0  0  0  0  3  0  0  0  0  0  0
  -26.1000  -27.0000   19.5830 C   0  0  0  0  0  3  0  0  0  0  0  0
  -24.8980  -27.7300   19.6080 C   0  0  0  0  0  3  0  0  0  0  0  0
  -23.6150  -29.8510   20.2570 C   0  0  0  0  0  2  0  0  0  0  0  0
  -24.6680  -31.1370   22.1740 N   0  0  0  0  0  0  0  0  0  0  0  0
  -23.5320  -32.2020   23.8210 O   0  0  0  0  0  0  0  0  0  0  0  0
  -22.7660  -29.5030   22.5990 C   0  0  0  0  0  0  0  0  0  0  0  0
  -21.4420  -29.3150   22.4740 N   0  0  0  0  0  0  0  0  0  0  0  0
  -23.4550  -28.8780   23.4090 O   0  0  0  0  0  0  0  0  0  0  0  0
  -20.9490  -29.8700   21.7870 H   0  0  0  0  0  0  0  0  0  0  0  0
  -18.0750  -28.1020   22.9630 C   0  0  0  0  0  0  0  0  0  0  0  0
  -20.6300  -28.3740   23.2440 C   0  0  0  0  0  3  0  0  0  0  0  0
  -20.7440  -26.9430   22.6690 C   0  0  0  0  0  2  0  0  0  0  0  0
  -19.6470  -26.6130   21.6530 C   0  0  0  0  0  2  0  0  0  0  0  0
  -18.2620  -26.7520   22.2920 C   0  0  0  0  0  2  0  0  0  0  0  0
  -19.1880  -28.8710   23.3960 C   0  0  0  0  0  0  0  0  0  0  0  0
  -18.9610  -30.1350   23.9810 C   0  0  0  0  0  3  0  0  0  0  0  0
  -17.6530  -30.6280   24.1430 C   0  0  0  0  0  3  0  0  0  0  0  0
  -16.5540  -29.8570   23.7290 C   0  0  0  0  0  3  0  0  0  0  0  0
  -16.7660  -28.5950   23.1430 C   0  0  0  0  0  3  0  0  0  0  0  0
  -25.8990  -32.5690   23.8940 C   0  0  0  0  0  3  0  0  0  0  0  0
  -25.5900  -33.9680   24.2170 N   0  0  0  0  0  0  0  0  0  0  0  0
  -25.9190  -35.0150   23.4480 C   0  0  0  0  0  0  0  0  0  0  0  0
  -26.5860  -34.9050   22.4150 O   0  0  0  0  0  0  0  0  0  0  0  0
  -25.0020  -34.1280   25.0200 H   0  0  0  0  0  0  0  0  0  0  0  0
  -24.1820  -36.7970   23.0870 C   0  0  0  0  0  1  0  0  0  0  0  0
  -25.4290  -36.4050   23.8970 C   0  0  0  0  0  3  0  0  0  0  0  0
  -27.5680  -37.3000   24.7020 C   0  0  0  0  0  1  0  0  0  0  0  0
  -26.4570  -37.4610   23.7690 N   0  0  0  0  0  0  0  0  0  0  0  0
  -26.0500  -38.3810   23.9150 H   0  0  0  0  0  0  0  0  0  0  0  0
  -26.4190  -31.8020   25.1720 C   0  0  1  0  0  0  0  0  0  0  0  0
  -25.3280  -31.5680   26.2430 C   0  0  0  0  0  1  0  0  0  0  0  0
  -27.0030  -30.4240   24.7810 C   0  0  0  0  0  1  0  0  0  0  0  0
  -27.5710  -32.5990   25.8280 C   0  0  0  0  0  1  0  0  0  0  0  0
  1  6  2  0
  2  4  1  0
  3  2  1  0
  4  7  1  0
  5  1  1  0
  5  3  1  0
  5  4  1  0
  7  8  1  0
  8 10  1  0
  9  7  2  0
 11 12  1  0
 11  8  1  0
 13 12  1  0
 13 23  1  0
 14 23  1  0
 15 20  1  0
 16 17  1  0
 16 15  1  0
 18 17  1  0
 18 27  1  0
 18 19  1  0
 20 14  1  0
 20 19  1  0
 21 14  2  0
 23 22  1  0
 24 25  2  0
 25 44  1  0
 26 25  1  0
 26 29  1  0
 27 24  1  0
 27 28  1  0
 28 26  2  0
 29 30  1  0
 30 31  2  0
 32 35  1  0
 32 31  1  0
 33 32  2  0
 34 33  1  0
 34 29  2  0
 35 36  1  0
 36 37  1  0
 37 38  2  0
 39 38  1  0
 39 43  1  0
 40 39  2  0
 41 36  2  0
 41 40  1  0
 42 41  1  0
 44 45  1  0
 45 48  1  0
 45 47  1  0
 46 44  2  0
 49 50  1  0
 49 24  1  0
 51 49  1  0
 52 53  1  0
 52  1  1  0
 53 55  1  0
 54 65  2  0
 55 60  1  0
 56 64  1  0
 56 66  1  0
 57 63  1  0
 57 59  1  0
 58 64  1  0
 59 58  1  0
 60 59  2  0
 61 62  1  0
 61 55  2  0
 62 57  2  0
 63 56  1  0
 64 54  1  0
 66 68  2  0
 67 66  1  0
 69 67  1  0
 70 79  2  0
 70 75  1  0
 71 67  1  0
 71 75  1  0
 72 71  1  0
 73 74  1  0
 73 72  1  0
 74 70  1  0
 75 76  2  0
 76 77  1  0
 78 77  2  0
 79 78  1  0
 80 54  1  0
 80 81  1  0
 80 90  1  0
 81 84  1  0
 82 86  1  0
 82 81  1  0
 83 82  2  0
 86 85  1  0
 88 86  1  0
 88 89  1  0
 88 87  1  0
 90 93  1  1
 90 91  1  0
 92 90  1  0
M  ISO  4  14 100  23 100  52 101  53 101
M  END
>  <TORSDO>  (21) 
F 21

>  <SCORE>  (21) 
-12.684

>  <name>  (21) 
20

>  <ligand_id>  (21) 
20

>  <original_smiles>  (21) 
[H]c1c([H])c([H])c2c(c1[H])C([H])([H])C([H])([H])C([H])([H])C2([H])N([H])C(=O)C1([H])N(C(=O)C([H])(N([H])C(=O)C([H])(N([H])C([H])([H])[H])C([H])([H])[H])C(C([H])([H])[H])(C([H])([H])[H])C([H])([H])[H])C([H])([H])c2c([H])c(OC([H])([H])C(=O)N3C([H])([H])C([H])([H])C3([H])C(=O)N([H])C([H])([H])C([H])([H])C([H])([H])N(C(=O)N3C([H])([H])C([H])([H])C([H])([H])C([H])(n4nc(-c5c([H])c([H])c(Oc6c([H])c([H])c(F)c([H])c6F)c([H])c5[H])c(C(=O)N([H])[H])c4N([H])[H])C3([H])[H])C([H])([H])[H])c([H])c([H])c2C1([H])[H]

>  <smiles>  (21) 
[H]c1c([H])c([H])c2c(c1[H])C([H])([H])C([H])([H])C([H])([H])C2([H])N([H])C(=O)C1([H])N(C(=O)C([H])(N([H])C(=O)C([H])(N([H])C([H])([H])[H])C([H])([H])[H])C(C([H])([H])[H])(C([H])([H])[H])C([H])([H])[H])C([H])([H])c2c([H])c(OC([H])([H])C(=O)N3C([H])([H])C([H])([H])C3([H])C(=O)N([H])C([H])([H])C([H])([H])C([H])([H])N(C(=O)N3C([H])([H])C([H])([H])C([H])([H])C([H])(n4nc(-c5c([H])c([H])c(Oc6c([H])c([H])c(F)c([H])c6F)c([H])c5[H])c(C(=O)N([H])[H])c4N([H])[H])C3([H])[H])C([H])([H])[H])c([H])c([H])c2C1([H])[H]

$$$$
21:0:0
     RDKit          3D

 96106  0  0  1  0  0  0  0  0999 V2000
  -29.1820  -19.3260   20.5650 C   0  0  0  0  0  0  0  0  0  0  0  0
  -28.0870  -19.5500   21.0910 O   0  0  0  0  0  0  0  0  0  0  0  0
  -30.6720  -14.5530   20.4540 C   0  0  0  0  0  0  0  0  0  0  0  0
  -30.4060  -12.3190   19.4980 C   0  0  0  0  0  2  0  0  0  0  0  0
  -29.5050  -12.4540   18.2550 C   0  0  0  0  0  2  0  0  0  0  0  0
  -28.0190  -12.3420   18.6490 C   0  0  0  0  0  2  0  0  0  0  0  0
  -27.6380  -13.2240   19.8690 C   0  0  0  0  0  3  0  0  0  0  0  0
  -28.6720  -13.1220   21.0110 C   0  0  0  0  0  2  0  0  0  0  0  0
  -29.9980  -13.3730   20.4340 N   0  0  0  0  0  0  0  0  0  0  0  0
  -31.8980  -14.5940   20.3370 O   0  0  0  0  0  0  0  0  0  0  0  0
  -30.4510  -16.2480   18.6390 C   0  0  0  0  0  2  0  0  0  0  0  0
  -29.7350  -17.9460   20.1900 C   0  0  0  0  0  3  0  0  0  0  0  0
  -29.5420  -17.4480   18.7520 C   0  0  1  0  0  0  0  0  0  0  0  0
  -29.0270  -16.5560   20.4030 C   0  0  2  0  0  0  0  0  0  0  0  0
  -28.1600  -16.8780   19.1610 C   0  0  0  0  0  3  0  0  0  0  0  0
  -29.9800  -15.5580   19.8540 N   0  0  0  0  0  0  0  0  0  0  0  0
  -25.2310  -13.8690   20.4920 C   0  0  0  0  0  0  0  0  0  0  0  0
  -24.1430  -13.1060   20.8230 C   0  0  0  0  0  0  0  0  0  0  0  0
  -24.6010  -11.7540   20.8480 C   0  0  0  0  0  0  0  0  0  0  0  0
  -26.2770  -12.9730   20.3210 N   0  0  0  0  0  0  0  0  0  0  0  0
  -25.9010  -11.7010   20.5970 N   0  0  0  0  0  0  0  0  0  0  0  0
  -23.8660  -10.5000   21.0460 C   0  0  0  0  0  0  0  0  0  0  0  0
  -24.2870   -9.5390   21.9930 C   0  0  0  0  0  3  0  0  0  0  0  0
  -23.5560   -8.3450   22.1740 C   0  0  0  0  0  3  0  0  0  0  0  0
  -22.3900   -8.1060   21.4090 C   0  0  0  0  0  0  0  0  0  0  0  0
  -21.9880   -9.0550   20.4520 C   0  0  0  0  0  3  0  0  0  0  0  0
  -22.7210  -10.2400   20.2700 C   0  0  0  0  0  3  0  0  0  0  0  0
  -21.6310   -6.9650   21.4970 O   0  0  0  0  0  0  0  0  0  0  0  0
  -21.5870   -6.2180   22.6470 C   0  0  0  0  0  0  0  0  0  0  0  0
  -21.1970   -6.7750   23.8830 C   0  0  0  0  0  3  0  0  0  0  0  0
  -21.0980   -5.9550   25.0240 C   0  0  0  0  0  3  0  0  0  0  0  0
  -21.3790   -4.5780   24.9310 C   0  0  0  0  0  0  0  0  0  0  0  0
  -21.7620   -4.0220   23.6980 C   0  0  0  0  0  3  0  0  0  0  0  0
  -21.8640   -4.8380   22.5590 C   0  0  0  0  0  0  0  0  0  0  0  0
  -22.2110   -4.2920   21.3680 F   0  0  0  0  0  0  0  0  0  0  0  0
  -21.2760   -3.7880   26.0250 F   0  0  0  0  0  0  0  0  0  0  0  0
  -22.7400  -13.5940   21.0390 C   0  0  0  0  0  0  0  0  0  0  0  0
  -21.9800  -12.9220   21.8960 N   0  0  0  0  0  0  0  0  0  0  0  0
  -22.3310  -14.6120   20.4850 O   0  0  0  0  0  0  0  0  0  0  0  0
  -22.3300  -12.0990   22.3640 H   0  0  0  0  0  0  0  0  0  0  0  0
  -21.0400  -13.2350   22.0870 H   0  0  0  0  0  0  0  0  0  0  0  0
  -25.4240  -15.2420   20.3310 N   0  0  0  0  0  0  0  0  0  0  0  0
  -24.5390  -15.6950   20.5380 H   0  0  0  0  0  0  0  0  0  0  0  0
  -26.0920  -15.4890   21.0510 H   0  0  0  0  0  0  0  0  0  0  0  0
  -26.9700  -17.7500   19.3240 N   0  0  0  0  0  4  0  0  0  0  0  0
  -27.1320  -18.4900   19.9970 H   0  0  0  0  0  0  0  0  0  0  0  0
  -26.2000  -17.1870   19.6510 H   0  0  0  0  0  0  0  0  0  0  0  0
  -26.6910  -18.1470   18.4450 H   0  0  0  0  0  0  0  0  0  0  0  0
  -30.0980  -20.4990   20.1490 C   0  0  0  0  0  2  0  0  0  0  0  0
  -29.8780  -21.8850   20.8280 C   0  0  0  0  0  2  0  0  0  0  0  0
  -29.1740  -22.8900   19.9840 N   0  0  0  0  0  4  0  0  0  0  0  0
  -28.1980  -22.6410   19.9520 H   0  0  0  0  0  0  0  0  0  0  0  0
  -29.5320  -22.8310   19.0410 H   0  0  0  0  0  0  0  0  0  0  0  0
  -29.3110  -24.3100   20.4400 C   0  0  0  0  0  2  0  0  0  0  0  0
  -28.2720  -25.2440   19.7730 C   0  0  0  0  0  2  0  0  0  0  0  0
  -28.3850  -26.6400   20.1390 O   0  0  0  0  0  0  0  0  0  0  0  0
  -24.6390  -31.8830   23.2290 C   0  0  0  0  0  0  0  0  0  0  0  0
  -27.2290  -27.4080   20.1070 C   0  0  0  0  0  0  0  0  0  0  0  0
  -23.4140  -30.4890   21.5990 C   0  0  0  0  0  3  0  0  0  0  0  0
  -24.8450  -28.9540   20.1540 C   0  0  0  0  0  0  0  0  0  0  0  0
  -25.9450  -30.8260   21.3830 C   0  0  0  0  0  2  0  0  0  0  0  0
  -26.0140  -29.4550   20.7400 C   0  0  0  0  0  0  0  0  0  0  0  0
  -27.2060  -28.6870   20.7190 C   0  0  0  0  0  3  0  0  0  0  0  0
  -26.0390  -26.9480   19.4880 C   0  0  0  0  0  3  0  0  0  0  0  0
  -24.8530  -27.6990   19.5300 C   0  0  0  0  0  3  0  0  0  0  0  0
  -23.6080  -29.8210   20.2140 C   0  0  0  0  0  2  0  0  0  0  0  0
  -24.6850  -31.0810   22.1270 N   0  0  0  0  0  0  0  0  0  0  0  0
  -23.5630  -32.1560   23.7800 O   0  0  0  0  0  0  0  0  0  0  0  0
  -22.7710  -29.4640   22.5620 C   0  0  0  0  0  0  0  0  0  0  0  0
  -21.4460  -29.2830   22.4490 N   0  0  0  0  0  0  0  0  0  0  0  0
  -23.4630  -28.8350   23.3660 O   0  0  0  0  0  0  0  0  0  0  0  0
  -20.9480  -29.8460   21.7730 H   0  0  0  0  0  0  0  0  0  0  0  0
  -18.0760  -28.0790   22.9690 C   0  0  0  0  0  0  0  0  0  0  0  0
  -20.6350  -28.3440   23.2250 C   0  0  0  0  0  3  0  0  0  0  0  0
  -20.7370  -26.9120   22.6530 C   0  0  0  0  0  2  0  0  0  0  0  0
  -19.6300  -26.5830   21.6460 C   0  0  0  0  0  2  0  0  0  0  0  0
  -18.2520  -26.7280   22.2970 C   0  0  0  0  0  2  0  0  0  0  0  0
  -19.1960  -28.8450   23.3920 C   0  0  0  0  0  0  0  0  0  0  0  0
  -18.9780  -30.1090   23.9810 C   0  0  0  0  0  3  0  0  0  0  0  0
  -17.6740  -30.6090   24.1490 C   0  0  0  0  0  3  0  0  0  0  0  0
  -16.5690  -29.8410   23.7430 C   0  0  0  0  0  3  0  0  0  0  0  0
  -16.7710  -28.5770   23.1600 C   0  0  0  0  0  3  0  0  0  0  0  0
  -25.9310  -32.5130   23.8360 C   0  0  0  0  0  3  0  0  0  0  0  0
  -25.6240  -33.9060   24.1840 N   0  0  0  0  0  0  0  0  0  0  0  0
  -25.9340  -34.9670   23.4280 C   0  0  0  0  0  0  0  0  0  0  0  0
  -26.5880  -34.8750   22.3840 O   0  0  0  0  0  0  0  0  0  0  0  0
  -25.0450  -34.0510   25.0000 H   0  0  0  0  0  0  0  0  0  0  0  0
  -24.1900  -36.7520   23.1170 C   0  0  0  0  0  1  0  0  0  0  0  0
  -25.4470  -36.3500   23.9040 C   0  0  0  0  0  3  0  0  0  0  0  0
  -27.5950  -37.2370   24.6970 C   0  0  0  0  0  1  0  0  0  0  0  0
  -26.4720  -37.4100   23.7790 N   0  0  0  0  0  0  0  0  0  0  0  0
  -26.0660  -38.3260   23.9420 H   0  0  0  0  0  0  0  0  0  0  0  0
  -26.4690  -31.7320   25.0970 C   0  0  1  0  0  0  0  0  0  0  0  0
  -25.3960  -31.4840   26.1830 C   0  0  0  0  0  1  0  0  0  0  0  0
  -27.0480  -30.3600   24.6820 C   0  0  0  0  0  1  0  0  0  0  0  0
  -27.6280  -32.5220   25.7480 C   0  0  0  0  0  1  0  0  0  0  0  0
  1  2  2  0
  4  9  1  0
  5  6  1  0
  5  4  1  0
  7  6  1  0
  7 20  1  0
  7  8  1  0
  9  3  1  0
  9  8  1  0
 10  3  2  0
 11 16  1  0
 14 12  1  1
 12  1  1  0
 13 11  1  1
 13 15  1  0
 13 12  1  0
 13 14  1  0
 14 16  1  0
 15 45  1  0
 15 14  1  0
 16  3  1  0
 17 18  2  0
 18 19  1  0
 18 37  1  0
 19 22  1  0
 20 17  1  0
 20 21  1  0
 21 19  2  0
 22 23  1  0
 23 24  2  0
 25 28  1  0
 25 24  1  0
 26 25  2  0
 27 26  1  0
 27 22  2  0
 28 29  1  0
 29 30  1  0
 30 31  2  0
 32 31  1  0
 32 36  1  0
 33 32  2  0
 34 29  2  0
 34 33  1  0
 35 34  1  0
 37 38  1  0
 38 41  1  0
 38 40  1  0
 39 37  2  0
 42 17  1  0
 42 43  1  0
 42 44  1  0
 45 47  1  0
 45 46  1  0
 48 45  1  0
 49  1  1  0
 49 50  1  0
 51 54  1  0
 51 50  1  0
 52 51  1  0
 53 51  1  0
 55 56  1  0
 55 54  1  0
 57 68  2  0
 58 56  1  0
 58 63  1  0
 59 67  1  0
 59 69  1  0
 60 66  1  0
 60 62  1  0
 61 67  1  0
 62 61  1  0
 63 62  2  0
 64 65  1  0
 64 58  2  0
 65 60  2  0
 66 59  1  0
 67 57  1  0
 69 71  2  0
 70 69  1  0
 72 70  1  0
 73 82  2  0
 73 78  1  0
 74 70  1  0
 74 78  1  0
 75 74  1  0
 76 77  1  0
 76 75  1  0
 77 73  1  0
 78 79  2  0
 79 80  1  0
 81 80  2  0
 82 81  1  0
 83 57  1  0
 83 84  1  0
 83 93  1  0
 84 87  1  0
 85 89  1  0
 85 84  1  0
 86 85  2  0
 89 88  1  0
 91 89  1  0
 91 92  1  0
 91 90  1  0
 93 96  1  1
 93 94  1  0
 95 93  1  0
M  ISO  4   3 100  16 100  55 101  56 101
M  END
>  <TORSDO>  (22) 
F 22

>  <SCORE>  (22) 
-12.961

>  <name>  (22) 
21

>  <ligand_id>  (22) 
21

>  <original_smiles>  (22) 
[H]c1c([H])c([H])c2c(c1[H])C([H])([H])C([H])([H])C([H])([H])C2([H])N([H])C(=O)C1([H])N(C(=O)C([H])(N([H])C(=O)C([H])(N([H])C([H])([H])[H])C([H])([H])[H])C(C([H])([H])[H])(C([H])([H])[H])C([H])([H])[H])C([H])([H])c2c([H])c(OC([H])([H])C([H])([H])[N+]([H])([H])C([H])([H])C([H])([H])C(=O)C3([H])C4([H])N(C(=O)N5C([H])([H])C([H])([H])C([H])([H])C([H])(n6nc(-c7c([H])c([H])c(Oc8c([H])c([H])c(F)c([H])c8F)c([H])c7[H])c(C(=O)N([H])[H])c6N([H])[H])C5([H])[H])C([H])([H])C3([H])C4([H])[N+]([H])([H])[H])c([H])c([H])c2C1([H])[H]

>  <smiles>  (22) 
[H]c1c([H])c([H])c2c(c1[H])C([H])([H])C([H])([H])C([H])([H])C2([H])N([H])C(=O)C1([H])N(C(=O)C([H])(N([H])C(=O)C([H])(N([H])C([H])([H])[H])C([H])([H])[H])C(C([H])([H])[H])(C([H])([H])[H])C([H])([H])[H])C([H])([H])c2c([H])c(OC([H])([H])C([H])([H])[N+]([H])([H])C([H])([H])C([H])([H])C(=O)C3([H])C4([H])N(C(=O)N5C([H])([H])C([H])([H])C([H])([H])C([H])(n6nc(-c7c([H])c([H])c(Oc8c([H])c([H])c(F)c([H])c8F)c([H])c7[H])c(C(=O)N([H])[H])c6N([H])[H])C5([H])[H])C([H])([H])C3([H])C4([H])[N+]([H])([H])[H])c([H])c([H])c2C1([H])[H]

$$$$
22:0:0
     RDKit          3D

 97107  0  0  1  0  0  0  0  0999 V2000
  -29.2340  -19.6020   17.8120 C   0  0  0  0  0  1  0  0  0  0  0  0
  -29.5730  -20.6440   18.8950 C   0  0  0  0  0  3  0  0  0  0  0  0
  -29.4220  -20.0380   20.3120 C   0  0  0  0  0  3  0  0  0  0  0  0
  -29.6230  -18.5340   20.6480 C   0  0  2  0  0  0  0  0  0  0  0  0
  -31.0170  -18.0010   20.2770 C   0  0  0  0  0  3  0  0  0  0  0  0
  -30.6300  -19.9250   21.2570 C   0  0  1  0  0  0  0  0  0  0  0  0
  -31.7720  -19.1760   20.7040 N   0  0  0  0  0  0  0  0  0  0  0  0
  -29.7530  -19.0390   22.0090 N   0  0  0  0  0  4  0  0  0  0  0  0
  -32.1400  -19.6600   19.8890 H   0  0  0  0  0  0  0  0  0  0  0  0
  -30.2110  -18.4430   22.6770 H   0  0  0  0  0  0  0  0  0  0  0  0
  -28.9260  -19.4910   22.3630 H   0  0  0  0  0  0  0  0  0  0  0  0
  -31.5390  -16.7250   21.0060 C   0  0  0  0  0  2  0  0  0  0  0  0
  -31.4310  -14.4580   19.9290 C   0  0  0  0  0  0  0  0  0  0  0  0
  -30.9730  -12.2660   18.8780 C   0  0  0  0  0  2  0  0  0  0  0  0
  -29.9740  -12.4330   17.7160 C   0  0  0  0  0  2  0  0  0  0  0  0
  -28.5210  -12.3870   18.2280 C   0  0  0  0  0  2  0  0  0  0  0  0
  -28.2870  -13.3160   19.4490 C   0  0  0  0  0  3  0  0  0  0  0  0
  -29.3840  -13.1020   20.5150 C   0  0  0  0  0  2  0  0  0  0  0  0
  -30.6910  -13.3180   19.8670 N   0  0  0  0  0  0  0  0  0  0  0  0
  -32.5060  -14.5940   19.3400 O   0  0  0  0  0  0  0  0  0  0  0  0
  -30.8840  -15.4650   20.6330 N   0  0  0  0  0  0  0  0  0  0  0  0
  -29.9880  -15.2690   21.0530 H   0  0  0  0  0  0  0  0  0  0  0  0
  -26.0100  -14.1000   20.3560 C   0  0  0  0  0  0  0  0  0  0  0  0
  -24.9000  -13.4090   20.7630 C   0  0  0  0  0  0  0  0  0  0  0  0
  -25.2270  -12.0240   20.6300 C   0  0  0  0  0  0  0  0  0  0  0  0
  -26.9490  -13.1410   20.0070 N   0  0  0  0  0  0  0  0  0  0  0  0
  -26.4840  -11.8850   20.2280 N   0  0  0  0  0  0  0  0  0  0  0  0
  -24.3990  -10.8250   20.8080 C   0  0  0  0  0  0  0  0  0  0  0  0
  -24.7680   -9.7990   21.7040 C   0  0  0  0  0  3  0  0  0  0  0  0
  -23.9460   -8.6630   21.8710 C   0  0  0  0  0  3  0  0  0  0  0  0
  -22.7410   -8.5470   21.1400 C   0  0  0  0  0  0  0  0  0  0  0  0
  -22.3890   -9.5610   20.2330 C   0  0  0  0  0  3  0  0  0  0  0  0
  -23.2100  -10.6880   20.0640 C   0  0  0  0  0  3  0  0  0  0  0  0
  -21.8930   -7.4680   21.2180 O   0  0  0  0  0  0  0  0  0  0  0  0
  -21.7660   -6.7340   22.3700 C   0  0  0  0  0  0  0  0  0  0  0  0
  -21.3500   -7.3210   23.5850 C   0  0  0  0  0  3  0  0  0  0  0  0
  -21.1660   -6.5160   24.7290 C   0  0  0  0  0  3  0  0  0  0  0  0
  -21.3870   -5.1290   24.6560 C   0  0  0  0  0  0  0  0  0  0  0  0
  -21.7970   -4.5430   23.4460 C   0  0  0  0  0  3  0  0  0  0  0  0
  -21.9830   -5.3430   22.3050 C   0  0  0  0  0  0  0  0  0  0  0  0
  -22.3570   -4.7710   21.1360 F   0  0  0  0  0  0  0  0  0  0  0  0
  -21.2030   -4.3540   25.7510 F   0  0  0  0  0  0  0  0  0  0  0  0
  -23.5760  -13.9960   21.1580 C   0  0  0  0  0  0  0  0  0  0  0  0
  -22.8510  -13.3300   22.0510 N   0  0  0  0  0  0  0  0  0  0  0  0
  -23.1970  -15.0780   20.7110 O   0  0  0  0  0  0  0  0  0  0  0  0
  -23.1710  -12.4520   22.4340 H   0  0  0  0  0  0  0  0  0  0  0  0
  -21.9640  -13.7040   22.3560 H   0  0  0  0  0  0  0  0  0  0  0  0
  -26.2930  -15.4570   20.2350 N   0  0  0  0  0  0  0  0  0  0  0  0
  -25.5900  -16.1680   20.4040 H   0  0  0  0  0  0  0  0  0  0  0  0
  -27.1360  -15.8250   19.8120 H   0  0  0  0  0  0  0  0  0  0  0  0
  -28.6980  -21.9090   18.6350 C   0  0  0  0  0  2  0  0  0  0  0  0
  -28.5480  -24.3040   19.3050 C   0  0  0  0  0  0  0  0  0  0  0  0
  -28.8170  -23.0130   19.6010 N   0  0  0  0  0  0  0  0  0  0  0  0
  -28.3070  -24.6700   18.1520 O   0  0  0  0  0  0  0  0  0  0  0  0
  -29.0190  -22.7840   20.5650 H   0  0  0  0  0  0  0  0  0  0  0  0
  -28.5180  -25.3300   20.4620 C   0  0  0  0  0  2  0  0  0  0  0  0
  -28.5530  -26.7000   20.0020 O   0  0  0  0  0  0  0  0  0  0  0  0
  -24.5590  -31.7050   23.1440 C   0  0  0  0  0  0  0  0  0  0  0  0
  -27.3590  -27.3930   20.0120 C   0  0  0  0  0  0  0  0  0  0  0  0
  -23.4100  -30.3040   21.4590 C   0  0  0  0  0  3  0  0  0  0  0  0
  -24.9210  -28.8340   20.0240 C   0  0  0  0  0  0  0  0  0  0  0  0
  -25.9270  -30.7370   21.2970 C   0  0  0  0  0  2  0  0  0  0  0  0
  -26.0590  -29.3810   20.6300 C   0  0  0  0  0  0  0  0  0  0  0  0
  -27.2820  -28.6720   20.6130 C   0  0  0  0  0  3  0  0  0  0  0  0
  -26.2010  -26.8570   19.4060 C   0  0  0  0  0  3  0  0  0  0  0  0
  -24.9870  -27.5710   19.4080 C   0  0  0  0  0  3  0  0  0  0  0  0
  -23.6530  -29.6570   20.0700 C   0  0  0  0  0  2  0  0  0  0  0  0
  -24.6490  -30.9300   22.0260 N   0  0  0  0  0  0  0  0  0  0  0  0
  -23.4640  -31.9360   23.6760 O   0  0  0  0  0  0  0  0  0  0  0  0
  -22.7760  -29.2480   22.3910 C   0  0  0  0  0  0  0  0  0  0  0  0
  -21.4580  -29.0350   22.2480 N   0  0  0  0  0  0  0  0  0  0  0  0
  -23.4670  -28.6210   23.1980 O   0  0  0  0  0  0  0  0  0  0  0  0
  -20.9600  -29.5940   21.5680 H   0  0  0  0  0  0  0  0  0  0  0  0
  -18.1070  -27.7570   22.6920 C   0  0  0  0  0  0  0  0  0  0  0  0
  -20.6570  -28.0600   22.9880 C   0  0  0  0  0  3  0  0  0  0  0  0
  -20.7940  -26.6480   22.3760 C   0  0  0  0  0  2  0  0  0  0  0  0
  -19.7050  -26.3280   21.3460 C   0  0  0  0  0  2  0  0  0  0  0  0
  -18.3170  -26.4290   21.9850 C   0  0  0  0  0  2  0  0  0  0  0  0
  -19.2070  -28.5310   23.1490 C   0  0  0  0  0  0  0  0  0  0  0  0
  -18.9580  -29.7750   23.7690 C   0  0  0  0  0  3  0  0  0  0  0  0
  -17.6420  -30.2440   23.9380 C   0  0  0  0  0  3  0  0  0  0  0  0
  -16.5570  -29.4670   23.4980 C   0  0  0  0  0  3  0  0  0  0  0  0
  -16.7900  -28.2250   22.8810 C   0  0  0  0  0  3  0  0  0  0  0  0
  -25.8200  -32.3580   23.7910 C   0  0  0  0  0  3  0  0  0  0  0  0
  -25.4740  -33.7430   24.1330 N   0  0  0  0  0  0  0  0  0  0  0  0
  -25.7910  -34.8120   23.3910 C   0  0  0  0  0  0  0  0  0  0  0  0
  -26.4780  -34.7360   22.3680 O   0  0  0  0  0  0  0  0  0  0  0  0
  -24.8650  -33.8750   24.9280 H   0  0  0  0  0  0  0  0  0  0  0  0
  -24.0280  -36.5670   23.0280 C   0  0  0  0  0  1  0  0  0  0  0  0
  -25.2650  -36.1830   23.8560 C   0  0  0  0  0  3  0  0  0  0  0  0
  -27.3600  -37.1110   24.7350 C   0  0  0  0  0  1  0  0  0  0  0  0
  -26.2730  -37.2610   23.7710 N   0  0  0  0  0  0  0  0  0  0  0  0
  -25.8430  -38.1700   23.9180 H   0  0  0  0  0  0  0  0  0  0  0  0
  -26.3370  -31.5820   25.0640 C   0  0  1  0  0  0  0  0  0  0  0  0
  -25.2360  -31.3050   26.1140 C   0  0  0  0  0  1  0  0  0  0  0  0
  -26.9570  -30.2240   24.6590 C   0  0  0  0  0  1  0  0  0  0  0  0
  -27.4600  -32.3920   25.7520 C   0  0  0  0  0  1  0  0  0  0  0  0
  2  1  1  0
  3  2  1  0
  4  3  1  6
  6  3  1  6
  4  6  1  0
  4  8  1  0
  5  4  1  0
  5  7  1  0
  5 12  1  0
  6  7  1  0
  6  8  1  0
  8 11  1  0
  8 10  1  0
  9  7  1  0
 13 21  1  0
 14 19  1  0
 15 16  1  0
 15 14  1  0
 17 16  1  0
 17 26  1  0
 17 18  1  0
 19 13  1  0
 19 18  1  0
 20 13  2  0
 21 12  1  0
 21 22  1  0
 23 24  2  0
 24 43  1  0
 25 24  1  0
 25 28  1  0
 26 27  1  0
 26 23  1  0
 27 25  2  0
 28 29  1  0
 29 30  2  0
 31 34  1  0
 31 30  1  0
 32 31  2  0
 33 32  1  0
 33 28  2  0
 34 35  1  0
 35 36  1  0
 36 37  2  0
 38 37  1  0
 38 42  1  0
 39 38  2  0
 40 35  2  0
 40 39  1  0
 41 40  1  0
 43 44  1  0
 44 47  1  0
 44 46  1  0
 45 43  2  0
 48 23  1  0
 48 49  1  0
 50 48  1  0
 51  2  1  0
 51 53  1  0
 52 53  1  0
 52 56  1  0
 53 55  1  0
 54 52  2  0
 57 59  1  0
 57 56  1  0
 58 69  2  0
 59 64  1  0
 60 68  1  0
 60 70  1  0
 61 67  1  0
 61 63  1  0
 62 68  1  0
 63 62  1  0
 64 63  2  0
 65 66  1  0
 65 59  2  0
 66 61  2  0
 67 60  1  0
 68 58  1  0
 70 72  2  0
 71 70  1  0
 73 71  1  0
 74 83  2  0
 74 79  1  0
 75 71  1  0
 75 79  1  0
 76 75  1  0
 77 78  1  0
 77 76  1  0
 78 74  1  0
 79 80  2  0
 80 81  1  0
 82 81  2  0
 83 82  1  0
 84 58  1  0
 84 85  1  0
 84 94  1  0
 85 88  1  0
 86 90  1  0
 86 85  1  0
 87 86  2  0
 90 89  1  0
 92 90  1  0
 92 93  1  0
 92 91  1  0
 94 97  1  1
 94 95  1  0
 96 94  1  0
M  ISO  4  13 100  21 100  56 101  57 101
M  END
>  <TORSDO>  (23) 
F 21

>  <SCORE>  (23) 
-12.543

>  <name>  (23) 
22

>  <ligand_id>  (23) 
22

>  <original_smiles>  (23) 
[H]c1c([H])c([H])c2c(c1[H])C([H])([H])C([H])([H])C([H])([H])C2([H])N([H])C(=O)C1([H])N(C(=O)C([H])(N([H])C(=O)C([H])(N([H])C([H])([H])[H])C([H])([H])[H])C(C([H])([H])[H])(C([H])([H])[H])C([H])([H])[H])C([H])([H])c2c([H])c(OC([H])([H])C(=O)N([H])C([H])([H])C([H])(C([H])([H])[H])C3([H])C4([H])N([H])C([H])(C([H])([H])N([H])C(=O)N5C([H])([H])C([H])([H])C([H])([H])C([H])(n6nc(-c7c([H])c([H])c(Oc8c([H])c([H])c(F)c([H])c8F)c([H])c7[H])c(C(=O)N([H])[H])c6N([H])[H])C5([H])[H])C3([H])[N+]4([H])[H])c([H])c([H])c2C1([H])[H]

>  <smiles>  (23) 
[H]c1c([H])c([H])c2c(c1[H])C([H])([H])C([H])([H])C([H])([H])C2([H])N([H])C(=O)C1([H])N(C(=O)C([H])(N([H])C(=O)C([H])(N([H])C([H])([H])[H])C([H])([H])[H])C(C([H])([H])[H])(C([H])([H])[H])C([H])([H])[H])C([H])([H])c2c([H])c(OC([H])([H])C(=O)N([H])C([H])([H])C([H])(C([H])([H])[H])C3([H])C4([H])N([H])C([H])(C([H])([H])N([H])C(=O)N5C([H])([H])C([H])([H])C([H])([H])C([H])(n6nc(-c7c([H])c([H])c(Oc8c([H])c([H])c(F)c([H])c8F)c([H])c7[H])c(C(=O)N([H])[H])c6N([H])[H])C5([H])[H])C3([H])[N+]4([H])[H])c([H])c([H])c2C1([H])[H]

$$$$
23:0:0
     RDKit          3D

 92100  0  0  1  0  0  0  0  0999 V2000
  -28.8020  -19.6400   21.1250 C   0  0  0  0  0  2  0  0  0  0  0  0
  -29.6590  -20.0260   18.8960 C   0  0  0  0  0  2  0  0  0  0  0  0
  -28.8160  -21.2370   21.3840 C   0  0  0  0  0  2  0  0  0  0  0  0
  -29.7130  -21.6020   19.1530 C   0  0  0  0  0  2  0  0  0  0  0  0
  -29.9280  -19.1360   20.1640 C   0  0  0  0  0  3  0  0  0  0  0  0
  -28.7830  -22.1910   20.1870 N   0  0  2  0  0  4  0  0  0  0  0  0
  -27.8540  -22.0980   19.7930 H   0  0  0  0  0  0  0  0  0  0  0  0
  -31.5190  -17.5710   21.3990 C   0  0  0  0  0  1  0  0  0  0  0  0
  -31.5970  -17.6960   18.8800 C   0  0  0  0  0  1  0  0  0  0  0  0
  -30.6500  -17.6050   20.1140 C   0  0  2  0  0  0  0  0  0  0  0  0
  -30.5950  -14.9300   19.9470 C   0  0  0  0  0  0  0  0  0  0  0  0
  -30.2750  -12.6420   18.9800 C   0  0  0  0  0  2  0  0  0  0  0  0
  -29.2790  -12.6920   17.8050 C   0  0  0  0  0  2  0  0  0  0  0  0
  -27.8430  -12.5090   18.3280 C   0  0  0  0  0  2  0  0  0  0  0  0
  -27.5340  -13.4050   19.5590 C   0  0  0  0  0  3  0  0  0  0  0  0
  -28.6610  -13.3790   20.6120 C   0  0  0  0  0  2  0  0  0  0  0  0
  -29.8960  -13.7400   19.9100 N   0  0  0  0  0  0  0  0  0  0  0  0
  -31.7880  -14.8640   19.6560 O   0  0  0  0  0  0  0  0  0  0  0  0
  -29.9690  -16.1920   20.0990 N   0  0  0  0  0  0  0  0  0  0  0  0
  -28.9700  -16.1690   20.2500 H   0  0  0  0  0  0  0  0  0  0  0  0
  -25.2050  -13.9680   20.4570 C   0  0  0  0  0  0  0  0  0  0  0  0
  -24.1650  -13.1860   20.8720 C   0  0  0  0  0  0  0  0  0  0  0  0
  -24.6230  -11.8360   20.7790 C   0  0  0  0  0  0  0  0  0  0  0  0
  -26.2310  -13.0970   20.1370 N   0  0  0  0  0  0  0  0  0  0  0  0
  -25.8940  -11.8050   20.3970 N   0  0  0  0  0  0  0  0  0  0  0  0
  -23.9080  -10.5700   20.9820 C   0  0  0  0  0  0  0  0  0  0  0  0
  -24.3750   -9.5940   21.8910 C   0  0  0  0  0  3  0  0  0  0  0  0
  -23.6580   -8.3940   22.0840 C   0  0  0  0  0  3  0  0  0  0  0  0
  -22.4600   -8.1600   21.3660 C   0  0  0  0  0  0  0  0  0  0  0  0
  -22.0130   -9.1240   20.4470 C   0  0  0  0  0  3  0  0  0  0  0  0
  -22.7300  -10.3160   20.2530 C   0  0  0  0  0  3  0  0  0  0  0  0
  -21.7110   -7.0130   21.4690 O   0  0  0  0  0  0  0  0  0  0  0  0
  -21.6850   -6.2710   22.6230 C   0  0  0  0  0  0  0  0  0  0  0  0
  -21.2350   -6.8130   23.8460 C   0  0  0  0  0  3  0  0  0  0  0  0
  -21.1600   -5.9970   24.9920 C   0  0  0  0  0  3  0  0  0  0  0  0
  -21.5210   -4.6380   24.9150 C   0  0  0  0  0  0  0  0  0  0  0  0
  -21.9630   -4.0960   23.6970 C   0  0  0  0  0  3  0  0  0  0  0  0
  -22.0410   -4.9090   22.5520 C   0  0  0  0  0  0  0  0  0  0  0  0
  -22.4460   -4.3750   21.3750 F   0  0  0  0  0  0  0  0  0  0  0  0
  -21.4410   -3.8520   26.0140 F   0  0  0  0  0  0  0  0  0  0  0  0
  -22.7860  -13.6570   21.2330 C   0  0  0  0  0  0  0  0  0  0  0  0
  -22.1100  -12.9380   22.1210 N   0  0  0  0  0  0  0  0  0  0  0  0
  -22.3220  -14.6980   20.7680 O   0  0  0  0  0  0  0  0  0  0  0  0
  -22.5000  -12.0950   22.5170 H   0  0  0  0  0  0  0  0  0  0  0  0
  -21.1890  -13.2320   22.4130 H   0  0  0  0  0  0  0  0  0  0  0  0
  -25.3570  -15.3450   20.3000 N   0  0  0  0  0  0  0  0  0  0  0  0
  -24.5990  -15.9930   20.4820 H   0  0  0  0  0  0  0  0  0  0  0  0
  -26.1770  -15.7910   19.9110 H   0  0  0  0  0  0  0  0  0  0  0  0
  -29.4030  -24.0540   21.9140 C   0  0  0  0  0  1  0  0  0  0  0  0
  -29.0150  -23.7450   20.4500 C   0  0  0  0  0  3  0  0  0  0  0  0
  -27.9370  -24.8950   19.9690 C   0  0  0  0  0  2  0  0  0  0  0  0
  -28.2050  -26.3950   20.1300 O   0  0  0  0  0  0  0  0  0  0  0  0
  -24.6190  -31.9150   23.2560 C   0  0  0  0  0  0  0  0  0  0  0  0
  -27.1340  -27.3360   20.0810 C   0  0  0  0  0  0  0  0  0  0  0  0
  -23.3780  -30.5570   21.6140 C   0  0  0  0  0  3  0  0  0  0  0  0
  -24.7940  -29.0320   20.1210 C   0  0  0  0  0  0  0  0  0  0  0  0
  -25.9230  -30.8540   21.3870 C   0  0  0  0  0  2  0  0  0  0  0  0
  -25.9810  -29.4830   20.7090 C   0  0  0  0  0  0  0  0  0  0  0  0
  -27.1540  -28.6500   20.6730 C   0  0  0  0  0  3  0  0  0  0  0  0
  -25.9250  -26.9720   19.4500 C   0  0  0  0  0  3  0  0  0  0  0  0
  -24.7760  -27.7860   19.4760 C   0  0  0  0  0  3  0  0  0  0  0  0
  -23.5610  -29.9170   20.2130 C   0  0  0  0  0  2  0  0  0  0  0  0
  -24.6610  -31.1280   22.1400 N   0  0  0  0  0  0  0  0  0  0  0  0
  -23.5470  -32.1800   23.8230 O   0  0  0  0  0  0  0  0  0  0  0  0
  -22.7330  -29.5200   22.5680 C   0  0  0  0  0  0  0  0  0  0  0  0
  -21.4070  -29.3220   22.4490 N   0  0  0  0  0  0  0  0  0  0  0  0
  -23.4240  -28.8960   23.3770 O   0  0  0  0  0  0  0  0  0  0  0  0
  -20.9040  -29.8760   21.7710 H   0  0  0  0  0  0  0  0  0  0  0  0
  -18.0560  -28.0500   22.9470 C   0  0  0  0  0  0  0  0  0  0  0  0
  -20.6090  -28.3650   23.2190 C   0  0  0  0  0  3  0  0  0  0  0  0
  -20.7440  -26.9380   22.6380 C   0  0  0  0  0  2  0  0  0  0  0  0
  -19.6480  -26.5960   21.6240 C   0  0  0  0  0  2  0  0  0  0  0  0
  -18.2610  -26.7090   22.2650 C   0  0  0  0  0  2  0  0  0  0  0  0
  -19.1590  -28.8330   23.3820 C   0  0  0  0  0  0  0  0  0  0  0  0
  -18.9100  -30.0870   23.9810 C   0  0  0  0  0  3  0  0  0  0  0  0
  -17.5960  -30.5620   24.1470 C   0  0  0  0  0  3  0  0  0  0  0  0
  -16.5070  -29.7740   23.7320 C   0  0  0  0  0  3  0  0  0  0  0  0
  -16.7400  -28.5220   23.1370 C   0  0  0  0  0  3  0  0  0  0  0  0
  -25.9120  -32.5410   23.8600 C   0  0  0  0  0  3  0  0  0  0  0  0
  -26.4340  -31.7690   25.1340 C   0  0  1  0  0  0  0  0  0  0  0  0
  -25.3470  -31.5450   26.2110 C   0  0  0  0  0  1  0  0  0  0  0  0
  -27.0100  -30.3850   24.7500 C   0  0  0  0  0  1  0  0  0  0  0  0
  -27.5860  -32.5640   25.7910 C   0  0  0  0  0  1  0  0  0  0  0  0
  -25.6090  -33.9400   24.1910 N   0  0  0  0  0  0  0  0  0  0  0  0
  -25.9160  -34.9960   23.4270 C   0  0  0  0  0  0  0  0  0  0  0  0
  -26.5530  -34.8930   22.3750 O   0  0  0  0  0  0  0  0  0  0  0  0
  -25.0320  -34.0890   25.0060 H   0  0  0  0  0  0  0  0  0  0  0  0
  -24.1850  -36.8060   23.1270 C   0  0  0  0  0  1  0  0  0  0  0  0
  -25.4450  -36.3850   23.9010 C   0  0  0  0  0  3  0  0  0  0  0  0
  -27.6000  -37.2750   24.6800 C   0  0  0  0  0  1  0  0  0  0  0  0
  -26.4790  -37.4350   23.7600 N   0  0  0  0  0  0  0  0  0  0  0  0
  -26.0780  -38.3580   23.9060 H   0  0  0  0  0  0  0  0  0  0  0  0
  1  3  1  0
  2  4  1  0
  2  5  1  0
  4  6  1  0
  5 10  1  0
  5  1  1  0
  6 50  1  0
  6  3  1  0
  6  7  1  6
 10  9  1  6
 10  8  1  0
 11 19  1  0
 12 17  1  0
 13 14  1  0
 13 12  1  0
 15 14  1  0
 15 24  1  0
 15 16  1  0
 17 11  1  0
 17 16  1  0
 18 11  2  0
 19 10  1  0
 19 20  1  0
 21 22  2  0
 22 41  1  0
 23 22  1  0
 23 26  1  0
 24 25  1  0
 24 21  1  0
 25 23  2  0
 26 27  1  0
 27 28  2  0
 29 32  1  0
 29 28  1  0
 30 29  2  0
 31 30  1  0
 31 26  2  0
 32 33  1  0
 33 34  1  0
 34 35  2  0
 36 35  1  0
 36 40  1  0
 37 36  2  0
 38 33  2  0
 38 37  1  0
 39 38  1  0
 41 42  1  0
 42 45  1  0
 42 44  1  0
 43 41  2  0
 46 21  1  0
 46 47  1  0
 48 46  1  0
 50 49  1  0
 51 52  1  0
 51 50  1  0
 53 64  2  0
 54 52  1  0
 54 59  1  0
 55 63  1  0
 55 65  1  0
 56 62  1  0
 56 58  1  0
 57 63  1  0
 58 57  1  0
 59 58  2  0
 60 61  1  0
 60 54  2  0
 61 56  2  0
 62 55  1  0
 63 53  1  0
 65 67  2  0
 66 65  1  0
 68 66  1  0
 69 78  2  0
 69 74  1  0
 70 66  1  0
 70 74  1  0
 71 70  1  0
 72 73  1  0
 72 71  1  0
 73 69  1  0
 74 75  2  0
 75 76  1  0
 77 76  2  0
 78 77  1  0
 79 53  1  0
 79 84  1  0
 79 80  1  0
 80 83  1  1
 80 81  1  0
 82 80  1  0
 84 87  1  0
 85 89  1  0
 85 84  1  0
 86 85  2  0
 89 88  1  0
 91 89  1  0
 91 92  1  0
 91 90  1  0
M  ISO  4  11 100  19 100  51 101  52 101
M  END
>  <TORSDO>  (24) 
F 19

>  <SCORE>  (24) 
-13.890

>  <name>  (24) 
23

>  <ligand_id>  (24) 
23

>  <original_smiles>  (24) 
[H]c1c([H])c([H])c2c(c1[H])C([H])([H])C([H])([H])C([H])([H])C2([H])N([H])C(=O)C1([H])N(C(=O)C([H])(N([H])C(=O)C([H])(N([H])C([H])([H])[H])C([H])([H])[H])C(C([H])([H])[H])(C([H])([H])[H])C([H])([H])[H])C([H])([H])c2c([H])c(OC([H])([H])C([H])(C([H])([H])[H])[N+]3([H])C([H])([H])C([H])([H])C([H])(C(N([H])C(=O)N4C([H])([H])C([H])([H])C([H])([H])C([H])(n5nc(-c6c([H])c([H])c(Oc7c([H])c([H])c(F)c([H])c7F)c([H])c6[H])c(C(=O)N([H])[H])c5N([H])[H])C4([H])[H])(C([H])([H])[H])C([H])([H])[H])C([H])([H])C3([H])[H])c([H])c([H])c2C1([H])[H]

>  <smiles>  (24) 
[H]c1c([H])c([H])c2c(c1[H])C([H])([H])C([H])([H])C([H])([H])C2([H])N([H])C(=O)C1([H])N(C(=O)C([H])(N([H])C(=O)C([H])(N([H])C([H])([H])[H])C([H])([H])[H])C(C([H])([H])[H])(C([H])([H])[H])C([H])([H])[H])C([H])([H])c2c([H])c(OC([H])([H])C([H])(C([H])([H])[H])[N+]3([H])C([H])([H])C([H])([H])C([H])(C(N([H])C(=O)N4C([H])([H])C([H])([H])C([H])([H])C([H])(n5nc(-c6c([H])c([H])c(Oc7c([H])c([H])c(F)c([H])c7F)c([H])c6[H])c(C(=O)N([H])[H])c5N([H])[H])C4([H])[H])(C([H])([H])[H])C([H])([H])[H])C([H])([H])C3([H])[H])c([H])c([H])c2C1([H])[H]

$$$$
24:0:0
     RDKit          3D

 97105  0  0  1  0  0  0  0  0999 V2000
  -28.8970  -21.5080   20.5270 C   0  0  0  0  0  3  0  0  0  0  0  0
  -28.9930  -20.2740   21.2120 C   0  0  0  0  0  3  0  0  0  0  0  0
  -29.5820  -20.3230   18.5420 C   0  0  0  0  0  3  0  0  0  0  0  0
  -29.1960  -21.6340   19.1560 C   0  0  0  0  0  0  0  0  0  0  0  0
  -29.3950  -19.0480   20.6120 C   0  0  0  0  0  0  0  0  0  0  0  0
  -29.7090  -18.9940   19.2220 C   0  0  0  0  0  0  0  0  0  0  0  0
  -29.4990  -17.8130   21.5130 C   0  0  1  0  0  0  0  0  0  0  0  0
  -29.2910  -18.1100   22.7980 F   0  0  0  0  0  0  0  0  0  0  0  0
  -28.5860  -16.9080   21.1590 F   0  0  0  0  0  0  0  0  0  0  0  0
  -30.7140  -17.2690   21.4320 F   0  0  0  0  0  0  0  0  0  0  0  0
  -30.2680  -17.5860   18.5250 C   0  0  0  0  0  2  0  0  0  0  0  0
  -30.9120  -14.9090   18.7790 C   0  0  0  0  0  0  0  0  0  0  0  0
  -30.7400  -12.4720   18.1040 C   0  0  0  0  0  2  0  0  0  0  0  0
  -29.5590  -12.2650   17.1230 C   0  0  0  0  0  2  0  0  0  0  0  0
  -28.2470  -12.0340   17.8950 C   0  0  0  0  0  2  0  0  0  0  0  0
  -28.0550  -13.0480   19.0540 C   0  0  0  0  0  3  0  0  0  0  0  0
  -29.3340  -13.2160   19.9020 C   0  0  0  0  0  2  0  0  0  0  0  0
  -30.4050  -13.6260   18.9860 N   0  0  0  0  0  0  0  0  0  0  0  0
  -32.0110  -14.9900   18.2180 O   0  0  0  0  0  0  0  0  0  0  0  0
  -30.1170  -16.0720   18.9910 N   0  0  0  0  0  0  0  0  0  0  0  0
  -29.2450  -15.8870   19.4660 H   0  0  0  0  0  0  0  0  0  0  0  0
  -26.0400  -13.6240   20.5250 C   0  0  0  0  0  0  0  0  0  0  0  0
  -25.0470  -12.8590   21.0690 C   0  0  0  0  0  0  0  0  0  0  0  0
  -25.3440  -11.5090   20.7080 C   0  0  0  0  0  0  0  0  0  0  0  0
  -26.8840  -12.7430   19.8690 N   0  0  0  0  0  0  0  0  0  0  0  0
  -26.4880  -11.4540   20.0360 N   0  0  0  0  0  0  0  0  0  0  0  0
  -24.5700  -10.2780   20.9080 C   0  0  0  0  0  0  0  0  0  0  0  0
  -24.9820   -9.2900   21.8280 C   0  0  0  0  0  3  0  0  0  0  0  0
  -24.2140   -8.1210   22.0190 C   0  0  0  0  0  3  0  0  0  0  0  0
  -23.0150   -7.9330   21.2890 C   0  0  0  0  0  0  0  0  0  0  0  0
  -22.6210   -8.9090   20.3580 C   0  0  0  0  0  3  0  0  0  0  0  0
  -23.3900  -10.0690   20.1660 C   0  0  0  0  0  3  0  0  0  0  0  0
  -22.2140   -6.8210   21.3920 O   0  0  0  0  0  0  0  0  0  0  0  0
  -21.8930   -6.2780   22.6110 C   0  0  0  0  0  0  0  0  0  0  0  0
  -21.2460   -7.0300   23.6150 C   0  0  0  0  0  3  0  0  0  0  0  0
  -20.8680   -6.4120   24.8240 C   0  0  0  0  0  3  0  0  0  0  0  0
  -21.1260   -5.0440   25.0270 C   0  0  0  0  0  0  0  0  0  0  0  0
  -21.7650   -4.2910   24.0260 C   0  0  0  0  0  3  0  0  0  0  0  0
  -22.1440   -4.9070   22.8200 C   0  0  0  0  0  0  0  0  0  0  0  0
  -22.7380   -4.1700   21.8510 F   0  0  0  0  0  0  0  0  0  0  0  0
  -20.7590   -4.4490   26.1860 F   0  0  0  0  0  0  0  0  0  0  0  0
  -23.8310  -13.3650   21.7930 C   0  0  0  0  0  0  0  0  0  0  0  0
  -23.3230  -12.5990   22.7520 N   0  0  0  0  0  0  0  0  0  0  0  0
  -23.3530  -14.4690   21.5400 O   0  0  0  0  0  0  0  0  0  0  0  0
  -23.7340  -11.7050   22.9810 H   0  0  0  0  0  0  0  0  0  0  0  0
  -22.5120  -12.9130   23.2640 H   0  0  0  0  0  0  0  0  0  0  0  0
  -26.2800  -14.9930   20.5040 N   0  0  0  0  0  0  0  0  0  0  0  0
  -25.6700  -15.6600   20.9590 H   0  0  0  0  0  0  0  0  0  0  0  0
  -27.0620  -15.4310   20.0350 H   0  0  0  0  0  0  0  0  0  0  0  0
  -29.0720  -23.1630   18.4880 C   0  0  0  0  0  3  0  0  0  0  0  0
  -30.4240  -23.6300   17.9010 C   0  0  0  0  0  2  0  0  0  0  0  0
  -30.8060  -22.9400   16.6540 N   0  0  0  0  0  4  0  0  0  0  0  0
  -30.9630  -21.9600   16.8050 H   0  0  0  0  0  0  0  0  0  0  0  0
  -31.6550  -23.3410   16.2980 H   0  0  0  0  0  0  0  0  0  0  0  0
  -30.1000  -23.0560   15.9470 H   0  0  0  0  0  0  0  0  0  0  0  0
  -28.3680  -24.5150   19.2520 C   0  0  0  0  0  2  0  0  0  0  0  0
  -28.4000  -26.0250   18.8200 O   0  0  0  0  0  0  0  0  0  0  0  0
  -24.6800  -31.2390   22.5290 C   0  0  0  0  0  0  0  0  0  0  0  0
  -27.2780  -26.9210   18.9720 C   0  0  0  0  0  0  0  0  0  0  0  0
  -23.4350  -29.8770   20.8980 C   0  0  0  0  0  3  0  0  0  0  0  0
  -24.8510  -28.5010   19.2500 C   0  0  0  0  0  0  0  0  0  0  0  0
  -25.9410  -30.3310   20.5410 C   0  0  0  0  0  2  0  0  0  0  0  0
  -26.0480  -28.9890   19.7910 C   0  0  0  0  0  0  0  0  0  0  0  0
  -27.2610  -28.2170   19.6330 C   0  0  0  0  0  3  0  0  0  0  0  0
  -26.0490  -26.5380   18.4020 C   0  0  0  0  0  3  0  0  0  0  0  0
  -24.8620  -27.2900   18.5400 C   0  0  0  0  0  3  0  0  0  0  0  0
  -23.5800  -29.3100   19.4600 C   0  0  0  0  0  2  0  0  0  0  0  0
  -24.7080  -30.5020   21.3760 N   0  0  0  0  0  0  0  0  0  0  0  0
  -23.6270  -31.4080   23.1620 O   0  0  0  0  0  0  0  0  0  0  0  0
  -22.9080  -28.7610   21.8350 C   0  0  0  0  0  0  0  0  0  0  0  0
  -21.5880  -28.5070   21.8100 N   0  0  0  0  0  0  0  0  0  0  0  0
  -23.6870  -28.1280   22.5520 O   0  0  0  0  0  0  0  0  0  0  0  0
  -21.0040  -29.0820   21.2170 H   0  0  0  0  0  0  0  0  0  0  0  0
  -18.3410  -27.0710   22.5320 C   0  0  0  0  0  0  0  0  0  0  0  0
  -20.8960  -27.4670   22.5760 C   0  0  0  0  0  3  0  0  0  0  0  0
  -21.0130  -26.0910   21.8810 C   0  0  0  0  0  2  0  0  0  0  0  0
  -19.8350  -25.7800   20.9520 C   0  0  0  0  0  2  0  0  0  0  0  0
  -18.5180  -25.7910   21.7330 C   0  0  0  0  0  2  0  0  0  0  0  0
  -19.4550  -27.8660   22.9140 C   0  0  0  0  0  0  0  0  0  0  0  0
  -19.2260  -29.0640   23.6260 C   0  0  0  0  0  3  0  0  0  0  0  0
  -17.9190  -29.4650   23.9640 C   0  0  0  0  0  3  0  0  0  0  0  0
  -16.8220  -28.6660   23.5940 C   0  0  0  0  0  3  0  0  0  0  0  0
  -17.0350  -27.4730   22.8830 C   0  0  0  0  0  3  0  0  0  0  0  0
  -25.9620  -31.9220   23.0960 C   0  0  0  0  0  3  0  0  0  0  0  0
  -25.5610  -33.2140   23.6760 N   0  0  0  0  0  0  0  0  0  0  0  0
  -25.6840  -34.4010   23.0650 C   0  0  0  0  0  0  0  0  0  0  0  0
  -26.2140  -34.5280   21.9580 O   0  0  0  0  0  0  0  0  0  0  0  0
  -25.0680  -33.1770   24.5570 H   0  0  0  0  0  0  0  0  0  0  0  0
  -23.7550  -36.0110   23.2300 C   0  0  0  0  0  1  0  0  0  0  0  0
  -25.1370  -35.6430   23.7950 C   0  0  0  0  0  3  0  0  0  0  0  0
  -27.2710  -36.6600   24.4620 C   0  0  0  0  0  1  0  0  0  0  0  0
  -26.0310  -36.8190   23.7090 N   0  0  0  0  0  0  0  0  0  0  0  0
  -25.5600  -37.6550   24.0440 H   0  0  0  0  0  0  0  0  0  0  0  0
  -26.7090  -31.0420   24.1720 C   0  0  1  0  0  0  0  0  0  0  0  0
  -25.7830  -30.4890   25.2820 C   0  0  0  0  0  1  0  0  0  0  0  0
  -27.4130  -29.8360   23.5070 C   0  0  0  0  0  1  0  0  0  0  0  0
  -27.8210  -31.8730   24.8490 C   0  0  0  0  0  1  0  0  0  0  0  0
  1  2  1  0
  3  4  1  0
  3  6  2  0
  4  1  2  0
  5  2  2  0
  5  7  1  0
  6  5  1  0
  7  8  1  1
  9  7  1  0
 10  7  1  0
 11 20  1  0
 11  6  1  0
 12 18  1  0
 12 20  1  0
 13 18  1  0
 14 15  1  0
 14 13  1  0
 16 15  1  0
 16 25  1  0
 16 17  1  0
 18 17  1  0
 19 12  2  0
 20 21  1  0
 22 23  2  0
 23 42  1  0
 24 27  1  0
 24 23  1  0
 25 26  1  0
 25 22  1  0
 26 24  2  0
 27 28  1  0
 28 29  2  0
 30 33  1  0
 30 29  1  0
 31 30  2  0
 32 31  1  0
 32 27  2  0
 33 34  1  0
 34 39  2  0
 34 35  1  0
 35 36  2  0
 36 37  1  0
 37 41  1  0
 38 37  2  0
 39 38  1  0
 40 39  1  0
 42 43  1  0
 43 45  1  0
 43 46  1  0
 44 42  2  0
 47 22  1  0
 47 48  1  0
 49 47  1  0
 50 51  1  0
 50  4  1  0
 50 56  1  0
 52 53  1  0
 52 51  1  0
 54 52  1  0
 55 52  1  0
 57 59  1  0
 57 56  1  0
 58 69  2  0
 59 64  1  0
 60 68  1  0
 60 70  1  0
 61 67  1  0
 61 63  1  0
 62 68  1  0
 63 62  1  0
 64 63  2  0
 65 66  1  0
 65 59  2  0
 66 61  2  0
 67 60  1  0
 68 58  1  0
 70 72  2  0
 71 70  1  0
 73 71  1  0
 74 83  2  0
 74 79  1  0
 75 71  1  0
 75 79  1  0
 76 75  1  0
 77 78  1  0
 77 76  1  0
 78 74  1  0
 79 80  2  0
 80 81  1  0
 82 81  2  0
 83 82  1  0
 84 58  1  0
 84 85  1  0
 84 94  1  0
 85 88  1  0
 86 85  1  0
 86 90  1  0
 87 86  2  0
 90 89  1  0
 92 90  1  0
 92 93  1  0
 92 91  1  0
 94 97  1  1
 94 95  1  0
 96 94  1  0
M  ISO  4  12 100  20 100  56 101  57 101
M  END
>  <TORSDO>  (25) 
F 22

>  <SCORE>  (25) 
-7.139

>  <name>  (25) 
24

>  <ligand_id>  (25) 
24

>  <original_smiles>  (25) 
[H]c1c([H])c([H])c2c(c1[H])C([H])([H])C([H])([H])C([H])([H])C2([H])N([H])C(=O)C1([H])N(C(=O)C([H])(N([H])C(=O)C([H])(N([H])C([H])([H])[H])C([H])([H])[H])C(C([H])([H])[H])(C([H])([H])[H])C([H])([H])[H])C([H])([H])c2c([H])c(OC([H])([H])C([H])(c3c([H])c([H])c(C(F)(F)F)c(C([H])([H])N([H])C(=O)N4C([H])([H])C([H])([H])C([H])([H])C([H])(n5nc(-c6c([H])c([H])c(Oc7c([H])c([H])c(F)c([H])c7F)c([H])c6[H])c(C(=O)N([H])[H])c5N([H])[H])C4([H])[H])c3[H])C([H])([H])[N+]([H])([H])[H])c([H])c([H])c2C1([H])[H]

>  <smiles>  (25) 
[H]c1c([H])c([H])c2c(c1[H])C([H])([H])C([H])([H])C([H])([H])C2([H])N([H])C(=O)C1([H])N(C(=O)C([H])(N([H])C(=O)C([H])(N([H])C([H])([H])[H])C([H])([H])[H])C(C([H])([H])[H])(C([H])([H])[H])C([H])([H])[H])C([H])([H])c2c([H])c(OC([H])([H])C([H])(c3c([H])c([H])c(C(F)(F)F)c(C([H])([H])N([H])C(=O)N4C([H])([H])C([H])([H])C([H])([H])C([H])(n5nc(-c6c([H])c([H])c(Oc7c([H])c([H])c(F)c([H])c7F)c([H])c6[H])c(C(=O)N([H])[H])c5N([H])[H])C4([H])[H])c3[H])C([H])([H])[N+]([H])([H])[H])c([H])c([H])c2C1([H])[H]

$$$$
25:0:0
     RDKit          3D

 98106  0  0  1  0  0  0  0  0999 V2000
  -28.8590  -18.4850   20.3710 C   0  0  0  0  0  0  0  0  0  0  0  0
  -28.4910  -19.7640   20.6250 N   0  0  0  0  0  0  0  0  0  0  0  0
  -28.6150  -17.9570   19.2820 O   0  0  0  0  0  0  0  0  0  0  0  0
  -28.6840  -20.1000   21.5580 H   0  0  0  0  0  0  0  0  0  0  0  0
  -31.9220  -17.5480   20.6190 C   0  0  0  0  0  2  0  0  0  0  0  0
  -32.1350  -18.7860   21.5340 C   0  0  0  0  0  2  0  0  0  0  0  0
  -29.9640  -18.4380   22.7600 C   0  0  0  0  0  2  0  0  0  0  0  0
  -29.5300  -17.6230   21.4930 C   0  0  0  0  0  3  0  0  0  0  0  0
  -30.7300  -16.6900   21.0780 C   0  0  0  0  0  3  0  0  0  0  0  0
  -31.4330  -18.6830   22.8450 N   0  0  0  0  0  4  0  0  0  0  0  0
  -31.5970  -19.5180   23.3870 H   0  0  0  0  0  0  0  0  0  0  0  0
  -31.8510  -17.9360   23.3770 H   0  0  0  0  0  0  0  0  0  0  0  0
  -31.1850  -14.4790   19.8020 C   0  0  0  0  0  0  0  0  0  0  0  0
  -30.8190  -12.2960   18.6780 C   0  0  0  0  0  2  0  0  0  0  0  0
  -29.8100  -12.5220   17.5330 C   0  0  0  0  0  2  0  0  0  0  0  0
  -28.3520  -12.4840   18.0410 C   0  0  0  0  0  2  0  0  0  0  0  0
  -28.1320  -13.3360   19.3180 C   0  0  0  0  0  3  0  0  0  0  0  0
  -29.2260  -13.0220   20.3580 C   0  0  0  0  0  2  0  0  0  0  0  0
  -30.5200  -13.2970   19.7110 N   0  0  0  0  0  0  0  0  0  0  0  0
  -32.3280  -14.6430   19.3660 O   0  0  0  0  0  0  0  0  0  0  0  0
  -30.4090  -15.4750   20.2920 N   0  0  0  0  0  0  0  0  0  0  0  0
  -29.4560  -15.1660   20.4080 H   0  0  0  0  0  0  0  0  0  0  0  0
  -25.8290  -14.1180   20.1560 C   0  0  0  0  0  0  0  0  0  0  0  0
  -24.7310  -13.4220   20.5890 C   0  0  0  0  0  0  0  0  0  0  0  0
  -25.0950  -12.0420   20.5340 C   0  0  0  0  0  0  0  0  0  0  0  0
  -26.7910  -13.1610   19.8690 N   0  0  0  0  0  0  0  0  0  0  0  0
  -26.3580  -11.9100   20.1530 N   0  0  0  0  0  0  0  0  0  0  0  0
  -24.2980  -10.8330   20.7730 C   0  0  0  0  0  0  0  0  0  0  0  0
  -24.6860   -9.8660   21.7270 C   0  0  0  0  0  3  0  0  0  0  0  0
  -23.8900   -8.7220   21.9470 C   0  0  0  0  0  3  0  0  0  0  0  0
  -22.6910   -8.5390   21.2210 C   0  0  0  0  0  0  0  0  0  0  0  0
  -22.3240   -9.4930   20.2540 C   0  0  0  0  0  3  0  0  0  0  0  0
  -23.1190  -10.6280   20.0290 C   0  0  0  0  0  3  0  0  0  0  0  0
  -21.8730   -7.4430   21.3480 O   0  0  0  0  0  0  0  0  0  0  0  0
  -21.7610   -6.7610   22.5330 C   0  0  0  0  0  0  0  0  0  0  0  0
  -21.3490   -7.4020   23.7220 C   0  0  0  0  0  3  0  0  0  0  0  0
  -21.1780   -6.6530   24.9030 C   0  0  0  0  0  3  0  0  0  0  0  0
  -21.4100   -5.2640   24.8970 C   0  0  0  0  0  0  0  0  0  0  0  0
  -21.8160   -4.6240   23.7130 C   0  0  0  0  0  3  0  0  0  0  0  0
  -21.9860   -5.3690   22.5340 C   0  0  0  0  0  0  0  0  0  0  0  0
  -22.3580   -4.7440   21.3920 F   0  0  0  0  0  0  0  0  0  0  0  0
  -21.2390   -4.5440   26.0310 F   0  0  0  0  0  0  0  0  0  0  0  0
  -23.3860  -13.9920   20.9350 C   0  0  0  0  0  0  0  0  0  0  0  0
  -22.6670  -13.3560   21.8520 N   0  0  0  0  0  0  0  0  0  0  0  0
  -22.9860  -15.0420   20.4310 O   0  0  0  0  0  0  0  0  0  0  0  0
  -23.0050  -12.5090   22.2830 H   0  0  0  0  0  0  0  0  0  0  0  0
  -21.7730  -13.7310   22.1340 H   0  0  0  0  0  0  0  0  0  0  0  0
  -26.0850  -15.4710   19.9630 N   0  0  0  0  0  0  0  0  0  0  0  0
  -25.3820  -16.1890   20.1110 H   0  0  0  0  0  0  0  0  0  0  0  0
  -26.9070  -15.8300   19.4920 H   0  0  0  0  0  0  0  0  0  0  0  0
  -27.5450  -20.5610   19.8120 C   0  0  0  0  0  2  0  0  0  0  0  0
  -27.9400  -22.0260   19.4570 C   0  0  0  0  0  2  0  0  0  0  0  0
  -28.3350  -22.8850   20.6040 N   0  0  0  0  0  4  0  0  0  0  0  0
  -29.3420  -22.8770   20.6510 H   0  0  0  0  0  0  0  0  0  0  0  0
  -27.9960  -22.4540   21.4460 H   0  0  0  0  0  0  0  0  0  0  0  0
  -27.8590  -24.3080   20.6380 C   0  0  0  0  0  2  0  0  0  0  0  0
  -28.2840  -25.2160   19.4520 C   0  0  0  0  0  2  0  0  0  0  0  0
  -28.2650  -26.6160   19.8100 O   0  0  0  0  0  0  0  0  0  0  0  0
  -24.5450  -31.7470   23.0810 C   0  0  0  0  0  0  0  0  0  0  0  0
  -27.0730  -27.3180   19.8530 C   0  0  0  0  0  0  0  0  0  0  0  0
  -23.2910  -30.3790   21.4490 C   0  0  0  0  0  3  0  0  0  0  0  0
  -24.6920  -28.8520   19.9610 C   0  0  0  0  0  0  0  0  0  0  0  0
  -25.8130  -30.7140   21.1940 C   0  0  0  0  0  2  0  0  0  0  0  0
  -25.8710  -29.3550   20.5250 C   0  0  0  0  0  0  0  0  0  0  0  0
  -27.0590  -28.5940   20.4660 C   0  0  0  0  0  3  0  0  0  0  0  0
  -25.8690  -26.8290   19.2910 C   0  0  0  0  0  3  0  0  0  0  0  0
  -24.6870  -27.5910   19.3400 C   0  0  0  0  0  3  0  0  0  0  0  0
  -23.4590  -29.7230   20.0540 C   0  0  0  0  0  2  0  0  0  0  0  0
  -24.5690  -30.9610   21.9670 N   0  0  0  0  0  0  0  0  0  0  0  0
  -23.4800  -32.0230   23.6480 O   0  0  0  0  0  0  0  0  0  0  0  0
  -22.6540  -29.3480   22.4060 C   0  0  0  0  0  0  0  0  0  0  0  0
  -21.3330  -29.1490   22.2850 N   0  0  0  0  0  0  0  0  0  0  0  0
  -23.3500  -28.7210   23.2120 O   0  0  0  0  0  0  0  0  0  0  0  0
  -20.8270  -29.7090   21.6150 H   0  0  0  0  0  0  0  0  0  0  0  0
  -17.9900  -27.8600   22.7400 C   0  0  0  0  0  0  0  0  0  0  0  0
  -20.5330  -28.1920   23.0490 C   0  0  0  0  0  3  0  0  0  0  0  0
  -20.6850  -26.7610   22.4850 C   0  0  0  0  0  2  0  0  0  0  0  0
  -19.6090  -26.4050   21.4540 C   0  0  0  0  0  2  0  0  0  0  0  0
  -18.2110  -26.5110   22.0750 C   0  0  0  0  0  2  0  0  0  0  0  0
  -19.0800  -28.6570   23.1810 C   0  0  0  0  0  0  0  0  0  0  0  0
  -18.8160  -29.9200   23.7570 C   0  0  0  0  0  3  0  0  0  0  0  0
  -17.4950  -30.3920   23.8920 C   0  0  0  0  0  3  0  0  0  0  0  0
  -16.4220  -29.5900   23.4710 C   0  0  0  0  0  3  0  0  0  0  0  0
  -16.6690  -28.3240   22.9080 C   0  0  0  0  0  3  0  0  0  0  0  0
  -25.8540  -32.3560   23.6760 C   0  0  0  0  0  3  0  0  0  0  0  0
  -25.5520  -33.7380   24.0740 N   0  0  0  0  0  0  0  0  0  0  0  0
  -25.8500  -34.8200   23.3460 C   0  0  0  0  0  0  0  0  0  0  0  0
  -26.4810  -34.7640   22.2870 O   0  0  0  0  0  0  0  0  0  0  0  0
  -24.9880  -33.8590   24.9010 H   0  0  0  0  0  0  0  0  0  0  0  0
  -24.0970  -36.6090   23.1270 C   0  0  0  0  0  1  0  0  0  0  0  0
  -25.3700  -36.1840   23.8760 C   0  0  0  0  0  3  0  0  0  0  0  0
  -27.5280  -37.0530   24.6590 C   0  0  0  0  0  1  0  0  0  0  0  0
  -26.3890  -37.2500   23.7690 N   0  0  0  0  0  0  0  0  0  0  0  0
  -25.9810  -38.1590   23.9720 H   0  0  0  0  0  0  0  0  0  0  0  0
  -26.4230  -31.5360   24.8970 C   0  0  1  0  0  0  0  0  0  0  0  0
  -25.3730  -31.2350   25.9910 C   0  0  0  0  0  1  0  0  0  0  0  0
  -27.0090  -30.1850   24.4210 C   0  0  0  0  0  1  0  0  0  0  0  0
  -27.5850  -32.3170   25.5590 C   0  0  0  0  0  1  0  0  0  0  0  0
  1  2  1  0
  2  4  1  0
  3  1  2  0
  5  9  1  0
  5  6  1  0
  6 10  1  0
  7 10  1  0
  8  1  1  0
  8  7  1  0
  9 21  1  0
  9  8  1  0
 10 12  1  0
 10 11  1  0
 13 21  1  0
 14 19  1  0
 15 16  1  0
 15 14  1  0
 17 16  1  0
 17 26  1  0
 17 18  1  0
 19 13  1  0
 19 18  1  0
 20 13  2  0
 21 22  1  0
 23 24  2  0
 24 43  1  0
 25 24  1  0
 25 28  1  0
 26 27  1  0
 26 23  1  0
 27 25  2  0
 28 29  1  0
 29 30  2  0
 31 34  1  0
 31 30  1  0
 32 31  2  0
 33 32  1  0
 33 28  2  0
 34 35  1  0
 35 40  2  0
 35 36  1  0
 36 37  2  0
 38 37  1  0
 38 42  1  0
 39 38  2  0
 40 39  1  0
 41 40  1  0
 43 44  1  0
 44 47  1  0
 44 46  1  0
 45 43  2  0
 48 49  1  0
 48 23  1  0
 50 48  1  0
 51  2  1  0
 52 51  1  0
 52 53  1  0
 53 56  1  0
 53 54  1  0
 53 55  1  0
 57 58  1  0
 57 56  1  0
 58 60  1  0
 59 70  2  0
 60 65  1  0
 61 69  1  0
 61 71  1  0
 62 68  1  0
 62 64  1  0
 63 69  1  0
 64 63  1  0
 65 64  2  0
 66 67  1  0
 66 60  2  0
 67 62  2  0
 68 61  1  0
 69 59  1  0
 71 73  2  0
 72 71  1  0
 74 72  1  0
 75 84  2  0
 75 80  1  0
 76 72  1  0
 76 80  1  0
 77 76  1  0
 78 79  1  0
 78 77  1  0
 79 75  1  0
 80 81  2  0
 81 82  1  0
 83 82  2  0
 84 83  1  0
 85 59  1  0
 85 86  1  0
 85 95  1  0
 86 89  1  0
 87 91  1  0
 87 86  1  0
 88 87  2  0
 91 90  1  0
 93 91  1  0
 93 94  1  0
 93 92  1  0
 95 98  1  1
 95 96  1  0
 97 95  1  0
M  ISO  4  13 100  21 100  57 101  58 101
M  END
>  <TORSDO>  (26) 
F 22

>  <SCORE>  (26) 
-11.291

>  <name>  (26) 
25

>  <ligand_id>  (26) 
25

>  <original_smiles>  (26) 
[H]c1c([H])c([H])c2c(c1[H])C([H])([H])C([H])([H])C([H])([H])C2([H])N([H])C(=O)C1([H])N(C(=O)C([H])(N([H])C(=O)C([H])(N([H])C([H])([H])[H])C([H])([H])[H])C(C([H])([H])[H])(C([H])([H])[H])C([H])([H])[H])C([H])([H])c2c([H])c(OC([H])([H])C([H])([H])[N+]([H])([H])C([H])([H])C([H])([H])N([H])C(=O)C3([H])C([H])(N([H])C(=O)N4C([H])([H])C([H])([H])C([H])([H])C([H])(n5nc(-c6c([H])c([H])c(Oc7c([H])c([H])c(F)c([H])c7F)c([H])c6[H])c(C(=O)N([H])[H])c5N([H])[H])C4([H])[H])C([H])([H])C([H])([H])[N+]([H])([H])C3([H])[H])c([H])c([H])c2C1([H])[H]

>  <smiles>  (26) 
[H]c1c([H])c([H])c2c(c1[H])C([H])([H])C([H])([H])C([H])([H])C2([H])N([H])C(=O)C1([H])N(C(=O)C([H])(N([H])C(=O)C([H])(N([H])C([H])([H])[H])C([H])([H])[H])C(C([H])([H])[H])(C([H])([H])[H])C([H])([H])[H])C([H])([H])c2c([H])c(OC([H])([H])C([H])([H])[N+]([H])([H])C([H])([H])C([H])([H])N([H])C(=O)C3([H])C([H])(N([H])C(=O)N4C([H])([H])C([H])([H])C([H])([H])C([H])(n5nc(-c6c([H])c([H])c(Oc7c([H])c([H])c(F)c([H])c7F)c([H])c6[H])c(C(=O)N([H])[H])c5N([H])[H])C4([H])[H])C([H])([H])C([H])([H])[N+]([H])([H])C3([H])[H])c([H])c([H])c2C1([H])[H]

$$$$
26:0:0
     RDKit          3D

 94103  0  0  1  0  0  0  0  0999 V2000
  -30.4990  -21.0220   19.9630 C   0  0  0  0  0  0  0  0  0  0  0  0
  -31.6920  -17.1190   21.8780 C   0  0  0  0  0  2  0  0  0  0  0  0
  -30.1430  -17.5540   19.9550 C   0  0  0  0  0  2  0  0  0  0  0  0
  -31.7690  -19.7940   21.7110 C   0  0  0  0  0  2  0  0  0  0  0  0
  -32.1310  -18.3990   21.1740 C   0  0  0  0  0  3  0  0  0  0  0  0
  -31.2030  -18.6410   19.9920 C   0  0  0  0  0  3  0  0  0  0  0  0
  -30.3070  -16.7620   21.2800 C   0  0  0  0  0  3  0  0  0  0  0  0
  -30.7480  -19.8470   20.6740 N   0  0  0  0  0  0  0  0  0  0  0  0
  -30.3610  -21.0210   18.7380 O   0  0  0  0  0  0  0  0  0  0  0  0
  -30.5860  -14.4570   20.3060 C   0  0  0  0  0  0  0  0  0  0  0  0
  -30.2070  -12.4040   19.0020 C   0  0  0  0  0  2  0  0  0  0  0  0
  -29.2060  -12.6880   17.8640 C   0  0  0  0  0  2  0  0  0  0  0  0
  -27.7540  -12.5280   18.3550 C   0  0  0  0  0  2  0  0  0  0  0  0
  -27.4850  -13.2870   19.6810 C   0  0  0  0  0  3  0  0  0  0  0  0
  -28.5870  -12.9770   20.7210 C   0  0  0  0  0  2  0  0  0  0  0  0
  -29.8950  -13.3040   20.1210 N   0  0  0  0  0  0  0  0  0  0  0  0
  -31.6130  -14.7370   19.6810 O   0  0  0  0  0  0  0  0  0  0  0  0
  -30.0170  -15.3290   21.1520 N   0  0  0  0  0  0  0  0  0  0  0  0
  -29.1990  -14.9930   21.6410 H   0  0  0  0  0  0  0  0  0  0  0  0
  -25.1030  -13.8540   20.4850 C   0  0  0  0  0  0  0  0  0  0  0  0
  -24.0610  -13.0610   20.8850 C   0  0  0  0  0  0  0  0  0  0  0  0
  -24.5390  -11.7160   20.8160 C   0  0  0  0  0  0  0  0  0  0  0  0
  -26.1520  -12.9910   20.2030 N   0  0  0  0  0  0  0  0  0  0  0  0
  -25.8160  -11.6990   20.4560 N   0  0  0  0  0  0  0  0  0  0  0  0
  -23.8400  -10.4410   21.0180 C   0  0  0  0  0  0  0  0  0  0  0  0
  -24.3130   -9.4750   21.9330 C   0  0  0  0  0  3  0  0  0  0  0  0
  -23.6130   -8.2640   22.1210 C   0  0  0  0  0  3  0  0  0  0  0  0
  -22.4260   -8.0100   21.3940 C   0  0  0  0  0  0  0  0  0  0  0  0
  -21.9720   -8.9640   20.4670 C   0  0  0  0  0  3  0  0  0  0  0  0
  -22.6730  -10.1670   20.2760 C   0  0  0  0  0  3  0  0  0  0  0  0
  -21.6940   -6.8510   21.4930 O   0  0  0  0  0  0  0  0  0  0  0  0
  -21.6810   -6.1040   22.6420 C   0  0  0  0  0  0  0  0  0  0  0  0
  -21.2600   -6.6430   23.8780 C   0  0  0  0  0  3  0  0  0  0  0  0
  -21.1960   -5.8210   25.0200 C   0  0  0  0  0  3  0  0  0  0  0  0
  -21.5440   -4.4600   24.9290 C   0  0  0  0  0  0  0  0  0  0  0  0
  -21.9590   -3.9190   23.6990 C   0  0  0  0  0  3  0  0  0  0  0  0
  -22.0240   -4.7390   22.5580 C   0  0  0  0  0  0  0  0  0  0  0  0
  -22.4040   -4.2090   21.3720 F   0  0  0  0  0  0  0  0  0  0  0  0
  -21.4750   -3.6670   26.0240 F   0  0  0  0  0  0  0  0  0  0  0  0
  -22.6700  -13.5130   21.2210 C   0  0  0  0  0  0  0  0  0  0  0  0
  -21.9860  -12.7900   22.1010 N   0  0  0  0  0  0  0  0  0  0  0  0
  -22.1970  -14.5410   20.7390 O   0  0  0  0  0  0  0  0  0  0  0  0
  -22.3810  -11.9580   22.5130 H   0  0  0  0  0  0  0  0  0  0  0  0
  -21.0530  -13.0720   22.3670 H   0  0  0  0  0  0  0  0  0  0  0  0
  -25.2420  -15.2290   20.3220 N   0  0  0  0  0  0  0  0  0  0  0  0
  -24.4720  -15.8710   20.4700 H   0  0  0  0  0  0  0  0  0  0  0  0
  -26.0760  -15.6840   19.9720 H   0  0  0  0  0  0  0  0  0  0  0  0
  -30.4250  -22.3410   20.7320 C   0  0  0  0  0  2  0  0  0  0  0  0
  -29.3780  -23.1860   20.1270 N   0  0  0  0  0  4  0  0  0  0  0  0
  -28.4850  -22.7830   20.3600 H   0  0  0  0  0  0  0  0  0  0  0  0
  -29.4920  -23.0800   19.1280 H   0  0  0  0  0  0  0  0  0  0  0  0
  -29.4140  -24.6210   20.5040 C   0  0  0  0  0  2  0  0  0  0  0  0
  -28.2150  -25.3810   19.9160 C   0  0  0  0  0  2  0  0  0  0  0  0
  -28.3060  -26.7810   20.2010 O   0  0  0  0  0  0  0  0  0  0  0  0
  -24.5540  -31.9760   23.2560 C   0  0  0  0  0  0  0  0  0  0  0  0
  -27.1320  -27.5060   20.1680 C   0  0  0  0  0  0  0  0  0  0  0  0
  -23.3240  -30.5840   21.6230 C   0  0  0  0  0  3  0  0  0  0  0  0
  -24.7530  -29.0350   20.1910 C   0  0  0  0  0  0  0  0  0  0  0  0
  -25.8530  -30.9160   21.4150 C   0  0  0  0  0  2  0  0  0  0  0  0
  -25.9190  -29.5460   20.7750 C   0  0  0  0  0  0  0  0  0  0  0  0
  -27.1100  -28.7860   20.7640 C   0  0  0  0  0  3  0  0  0  0  0  0
  -25.9460  -27.0160   19.5660 C   0  0  0  0  0  3  0  0  0  0  0  0
  -24.7610  -27.7700   19.5830 C   0  0  0  0  0  3  0  0  0  0  0  0
  -23.5180  -29.9040   20.2430 C   0  0  0  0  0  2  0  0  0  0  0  0
  -24.5950  -31.1720   22.1550 N   0  0  0  0  0  0  0  0  0  0  0  0
  -23.4790  -32.2600   23.8000 O   0  0  0  0  0  0  0  0  0  0  0  0
  -22.6710  -29.5670   22.5880 C   0  0  0  0  0  0  0  0  0  0  0  0
  -21.3470  -29.3870   22.4590 N   0  0  0  0  0  0  0  0  0  0  0  0
  -23.3530  -28.9450   23.4070 O   0  0  0  0  0  0  0  0  0  0  0  0
  -20.8610  -29.9420   21.7680 H   0  0  0  0  0  0  0  0  0  0  0  0
  -17.9660  -28.2130   22.9590 C   0  0  0  0  0  0  0  0  0  0  0  0
  -20.5240  -28.4580   23.2340 C   0  0  0  0  0  3  0  0  0  0  0  0
  -20.6200  -27.0230   22.6650 C   0  0  0  0  0  2  0  0  0  0  0  0
  -19.5160  -26.7010   21.6510 C   0  0  0  0  0  2  0  0  0  0  0  0
  -18.1350  -26.8590   22.2910 C   0  0  0  0  0  2  0  0  0  0  0  0
  -19.0880  -28.9710   23.3860 C   0  0  0  0  0  0  0  0  0  0  0  0
  -18.8780  -30.2400   23.9680 C   0  0  0  0  0  3  0  0  0  0  0  0
  -17.5760  -30.7520   24.1260 C   0  0  0  0  0  3  0  0  0  0  0  0
  -16.4670  -29.9910   23.7140 C   0  0  0  0  0  3  0  0  0  0  0  0
  -16.6630  -28.7240   23.1370 C   0  0  0  0  0  3  0  0  0  0  0  0
  -25.8510  -32.5920   23.8660 C   0  0  0  0  0  3  0  0  0  0  0  0
  -26.3720  -31.8130   25.1360 C   0  0  1  0  0  0  0  0  0  0  0  0
  -25.2840  -31.5780   26.2090 C   0  0  0  0  0  1  0  0  0  0  0  0
  -26.9430  -30.4340   24.7330 C   0  0  0  0  0  1  0  0  0  0  0  0
  -27.5330  -32.5980   25.7920 C   0  0  0  0  0  1  0  0  0  0  0  0
  -25.5580  -33.9910   24.1980 N   0  0  0  0  0  0  0  0  0  0  0  0
  -25.8900  -35.0400   23.4320 C   0  0  0  0  0  0  0  0  0  0  0  0
  -26.5480  -34.9290   22.3930 O   0  0  0  0  0  0  0  0  0  0  0  0
  -24.9750  -34.1530   25.0060 H   0  0  0  0  0  0  0  0  0  0  0  0
  -24.1710  -36.8410   23.0890 C   0  0  0  0  0  1  0  0  0  0  0  0
  -25.4170  -36.4330   23.8900 C   0  0  0  0  0  3  0  0  0  0  0  0
  -27.5630  -37.3040   24.7010 C   0  0  0  0  0  1  0  0  0  0  0  0
  -26.4560  -37.4760   23.7640 N   0  0  0  0  0  0  0  0  0  0  0  0
  -26.0600  -38.4010   23.9090 H   0  0  0  0  0  0  0  0  0  0  0  0
  1  8  1  0
  1 48  1  0
  3  7  1  0
  5  4  1  0
  5  2  1  0
  6  3  1  0
  6  8  1  0
  6  5  1  0
  7 18  1  0
  7  2  1  0
  8  4  1  0
  9  1  2  0
 10 18  1  0
 11 16  1  0
 12 13  1  0
 12 11  1  0
 14 13  1  0
 14 23  1  0
 14 15  1  0
 16 10  1  0
 16 15  1  0
 17 10  2  0
 18 19  1  0
 20 21  2  0
 21 40  1  0
 22 21  1  0
 22 25  1  0
 23 24  1  0
 23 20  1  0
 24 22  2  0
 25 26  1  0
 26 27  2  0
 28 31  1  0
 28 27  1  0
 29 28  2  0
 30 29  1  0
 30 25  2  0
 31 32  1  0
 32 33  1  0
 33 34  2  0
 35 34  1  0
 35 39  1  0
 36 35  2  0
 37 32  2  0
 37 36  1  0
 38 37  1  0
 40 41  1  0
 41 44  1  0
 41 43  1  0
 42 40  2  0
 45 46  1  0
 45 20  1  0
 47 45  1  0
 49 50  1  0
 49 52  1  0
 49 48  1  0
 51 49  1  0
 53 54  1  0
 53 52  1  0
 55 66  2  0
 56 54  1  0
 56 61  1  0
 57 65  1  0
 57 67  1  0
 58 64  1  0
 58 60  1  0
 59 65  1  0
 60 59  1  0
 61 60  2  0
 62 63  1  0
 62 56  2  0
 63 58  2  0
 64 57  1  0
 65 55  1  0
 67 69  2  0
 68 67  1  0
 70 68  1  0
 71 80  2  0
 71 76  1  0
 72 68  1  0
 72 76  1  0
 73 72  1  0
 74 75  1  0
 74 73  1  0
 75 71  1  0
 76 77  2  0
 77 78  1  0
 79 78  2  0
 80 79  1  0
 81 55  1  0
 81 86  1  0
 81 82  1  0
 82 85  1  1
 82 83  1  0
 84 82  1  0
 86 89  1  0
 87 91  1  0
 87 86  1  0
 88 87  2  0
 91 90  1  0
 93 91  1  0
 93 94  1  0
 93 92  1  0
M  ISO  4  10 100  18 100  53 101  54 101
M  END
>  <TORSDO>  (27) 
F 20

>  <SCORE>  (27) 
-13.533

>  <name>  (27) 
26

>  <ligand_id>  (27) 
26

>  <original_smiles>  (27) 
[H]c1c([H])c([H])c2c(c1[H])C([H])([H])C([H])([H])C([H])([H])C2([H])N([H])C(=O)C1([H])N(C(=O)C([H])(N([H])C(=O)C([H])(N([H])C([H])([H])[H])C([H])([H])[H])C(C([H])([H])[H])(C([H])([H])[H])C([H])([H])[H])C([H])([H])c2c([H])c(OC([H])([H])C([H])([H])[N+]([H])([H])C([H])([H])C(=O)N3C([H])([H])C4([H])C([H])([H])C([H])(N([H])C(=O)N5C([H])([H])C([H])([H])C([H])([H])C([H])(n6nc(-c7c([H])c([H])c(Oc8c([H])c([H])c(F)c([H])c8F)c([H])c7[H])c(C(=O)N([H])[H])c6N([H])[H])C5([H])[H])C([H])([H])C34[H])c([H])c([H])c2C1([H])[H]

>  <smiles>  (27) 
[H]c1c([H])c([H])c2c(c1[H])C([H])([H])C([H])([H])C([H])([H])C2([H])N([H])C(=O)C1([H])N(C(=O)C([H])(N([H])C(=O)C([H])(N([H])C([H])([H])[H])C([H])([H])[H])C(C([H])([H])[H])(C([H])([H])[H])C([H])([H])[H])C([H])([H])c2c([H])c(OC([H])([H])C([H])([H])[N+]([H])([H])C([H])([H])C(=O)N3C([H])([H])C4([H])C([H])([H])C([H])(N([H])C(=O)N5C([H])([H])C([H])([H])C([H])([H])C([H])(n6nc(-c7c([H])c([H])c(Oc8c([H])c([H])c(F)c([H])c8F)c([H])c7[H])c(C(=O)N([H])[H])c6N([H])[H])C5([H])[H])C([H])([H])C34[H])c([H])c([H])c2C1([H])[H]

$$$$
27:0:0
     RDKit          3D

 97105  0  0  1  0  0  0  0  0999 V2000
  -31.0660  -19.2830   18.4990 C   0  0  0  0  0  2  0  0  0  0  0  0
  -32.1620  -20.3000   20.4850 C   0  0  0  0  0  2  0  0  0  0  0  0
  -30.0400  -20.4730   18.5430 C   0  0  0  0  0  2  0  0  0  0  0  0
  -31.9430  -21.5950   19.6270 C   0  0  0  0  0  2  0  0  0  0  0  0
  -31.7090  -18.9180   19.8710 C   0  0  1  0  0  0  0  0  0  0  0  0
  -30.5250  -21.7410   19.1930 N   0  0  1  0  0  4  0  0  0  0  0  0
  -29.9900  -21.8160   20.0440 H   0  0  0  0  0  0  0  0  0  0  0  0
  -30.6190  -18.2650   20.7830 C   0  0  0  0  0  2  0  0  0  0  0  0
  -30.8990  -18.2990   22.3080 C   0  0  0  0  0  2  0  0  0  0  0  0
  -29.6710  -18.2880   23.1260 N   0  0  0  0  0  4  0  0  0  0  0  0
  -29.1230  -19.1190   22.9850 H   0  0  0  0  0  0  0  0  0  0  0  0
  -29.9260  -18.2570   24.0980 H   0  0  0  0  0  0  0  0  0  0  0  0
  -29.0980  -17.4860   22.9360 H   0  0  0  0  0  0  0  0  0  0  0  0
  -32.9700  -17.9510   19.7050 C   0  0  0  0  0  2  0  0  0  0  0  0
  -33.8180  -16.5610   17.7630 C   0  0  0  0  0  0  0  0  0  0  0  0
  -35.3130  -15.4420   16.1320 C   0  0  0  0  0  2  0  0  0  0  0  0
  -36.7730  -15.8680   16.4000 C   0  0  0  0  0  2  0  0  0  0  0  0
  -37.1030  -17.1870   15.6730 C   0  0  0  0  0  2  0  0  0  0  0  0
  -36.0240  -18.2800   15.8900 C   0  0  0  0  0  3  0  0  0  0  0  0
  -34.6080  -17.7140   15.6600 C   0  0  0  0  0  2  0  0  0  0  0  0
  -34.4470  -16.5590   16.5520 N   0  0  0  0  0  0  0  0  0  0  0  0
  -33.5660  -15.5100   18.3600 O   0  0  0  0  0  0  0  0  0  0  0  0
  -33.6410  -17.7680   18.3800 N   0  0  0  0  0  0  0  0  0  0  0  0
  -33.9700  -18.5840   17.8890 H   0  0  0  0  0  0  0  0  0  0  0  0
  -36.6050  -20.7460   15.4580 C   0  0  0  0  0  0  0  0  0  0  0  0
  -36.8030  -21.4500   14.3000 C   0  0  0  0  0  0  0  0  0  0  0  0
  -36.5710  -20.5300   13.2340 C   0  0  0  0  0  0  0  0  0  0  0  0
  -36.2730  -19.4590   15.0650 N   0  0  0  0  0  0  0  0  0  0  0  0
  -36.1950  -19.3520   13.7140 N   0  0  0  0  0  0  0  0  0  0  0  0
  -36.7460  -20.6830   11.7830 C   0  0  0  0  0  0  0  0  0  0  0  0
  -35.6910  -21.1270   10.9560 C   0  0  0  0  0  3  0  0  0  0  0  0
  -35.8890  -21.2850    9.5680 C   0  0  0  0  0  3  0  0  0  0  0  0
  -37.1510  -21.0020    8.9940 C   0  0  0  0  0  0  0  0  0  0  0  0
  -38.1920  -20.5390    9.8190 C   0  0  0  0  0  3  0  0  0  0  0  0
  -37.9910  -20.3780   11.2000 C   0  0  0  0  0  3  0  0  0  0  0  0
  -37.4290  -21.1040    7.6520 O   0  0  0  0  0  0  0  0  0  0  0  0
  -37.4050  -22.3130    7.0010 C   0  0  0  0  0  0  0  0  0  0  0  0
  -38.3460  -23.3280    7.2820 C   0  0  0  0  0  3  0  0  0  0  0  0
  -38.3270  -24.5270    6.5410 C   0  0  0  0  0  3  0  0  0  0  0  0
  -37.3800  -24.7080    5.5160 C   0  0  0  0  0  0  0  0  0  0  0  0
  -36.4480  -23.6940    5.2320 C   0  0  0  0  0  3  0  0  0  0  0  0
  -36.4630  -22.4990    5.9700 C   0  0  0  0  0  0  0  0  0  0  0  0
  -35.5760  -21.5180    5.6790 F   0  0  0  0  0  0  0  0  0  0  0  0
  -37.3680  -25.8550    4.7990 F   0  0  0  0  0  0  0  0  0  0  0  0
  -37.2790  -22.8690   14.1900 C   0  0  0  0  0  0  0  0  0  0  0  0
  -36.8600  -23.5780   13.1470 N   0  0  0  0  0  0  0  0  0  0  0  0
  -37.9890  -23.3740   15.0580 O   0  0  0  0  0  0  0  0  0  0  0  0
  -36.2620  -23.1690   12.4440 H   0  0  0  0  0  0  0  0  0  0  0  0
  -37.1450  -24.5420   13.0480 H   0  0  0  0  0  0  0  0  0  0  0  0
  -36.7040  -21.0810   16.8060 N   0  0  0  0  0  0  0  0  0  0  0  0
  -37.0770  -21.9800   17.0920 H   0  0  0  0  0  0  0  0  0  0  0  0
  -36.7170  -20.3960   17.5490 H   0  0  0  0  0  0  0  0  0  0  0  0
  -30.1640  -22.9780   18.3920 C   0  0  0  0  0  2  0  0  0  0  0  0
  -30.6110  -25.3580   17.4820 C   0  0  0  0  0  1  0  0  0  0  0  0
  -31.0510  -24.2910   18.4980 C   0  0  0  0  0  3  0  0  0  0  0  0
  -31.0030  -24.8720   19.9660 C   0  0  0  0  0  2  0  0  0  0  0  0
  -31.3950  -26.2540   20.2460 O   0  0  0  0  0  0  0  0  0  0  0  0
  -36.6940  -31.0100   19.4260 C   0  0  0  0  0  0  0  0  0  0  0  0
  -32.7550  -26.5260   20.4330 C   0  0  0  0  0  0  0  0  0  0  0  0
  -37.3860  -28.6740   19.8360 C   0  0  0  0  0  3  0  0  0  0  0  0
  -35.5450  -27.0930   20.6320 C   0  0  0  0  0  0  0  0  0  0  0  0
  -35.1670  -29.5540   20.7680 C   0  0  0  0  0  2  0  0  0  0  0  0
  -34.6170  -28.1420   20.6540 C   0  0  0  0  0  0  0  0  0  0  0  0
  -33.2250  -27.8630   20.5630 C   0  0  0  0  0  3  0  0  0  0  0  0
  -33.7230  -25.4920   20.4680 C   0  0  0  0  0  3  0  0  0  0  0  0
  -35.0990  -25.7660   20.5480 C   0  0  0  0  0  3  0  0  0  0  0  0
  -37.0120  -27.4510   20.7140 C   0  0  0  0  0  2  0  0  0  0  0  0
  -36.4000  -29.7950   19.9740 N   0  0  0  0  0  0  0  0  0  0  0  0
  -37.7730  -31.2100   18.8490 O   0  0  0  0  0  0  0  0  0  0  0  0
  -37.5720  -28.2010   18.3750 C   0  0  0  0  0  0  0  0  0  0  0  0
  -38.8040  -27.7930   18.0280 N   0  0  0  0  0  0  0  0  0  0  0  0
  -36.6200  -28.1790   17.5930 O   0  0  0  0  0  0  0  0  0  0  0  0
  -39.5330  -27.8410   18.7250 H   0  0  0  0  0  0  0  0  0  0  0  0
  -41.6460  -27.0100   15.9330 C   0  0  0  0  0  0  0  0  0  0  0  0
  -39.1960  -27.2700   16.7190 C   0  0  0  0  0  3  0  0  0  0  0  0
  -39.1330  -25.7250   16.6960 C   0  0  0  0  0  2  0  0  0  0  0  0
  -40.4680  -25.0600   17.0400 C   0  0  0  0  0  2  0  0  0  0  0  0
  -41.5560  -25.4980   16.0540 C   0  0  0  0  0  2  0  0  0  0  0  0
  -40.5410  -27.8430   16.2590 C   0  0  0  0  0  0  0  0  0  0  0  0
  -40.6880  -29.2430   16.1620 C   0  0  0  0  0  3  0  0  0  0  0  0
  -41.9060  -29.8130   15.7470 C   0  0  0  0  0  3  0  0  0  0  0  0
  -42.9910  -28.9850   15.4130 C   0  0  0  0  0  3  0  0  0  0  0  0
  -42.8590  -27.5880   15.5030 C   0  0  0  0  0  3  0  0  0  0  0  0
  -35.7010  -32.2090   19.5200 C   0  0  0  0  0  3  0  0  0  0  0  0
  -35.1530  -32.6710   18.1140 C   0  0  1  0  0  0  0  0  0  0  0  0
  -36.2630  -32.9410   17.0720 C   0  0  0  0  0  1  0  0  0  0  0  0
  -34.2000  -31.6040   17.5280 C   0  0  0  0  0  1  0  0  0  0  0  0
  -34.3200  -33.9650   18.2770 C   0  0  0  0  0  1  0  0  0  0  0  0
  -36.3990  -33.3140   20.1900 N   0  0  0  0  0  0  0  0  0  0  0  0
  -36.2970  -33.5990   21.4940 C   0  0  0  0  0  0  0  0  0  0  0  0
  -35.5370  -32.9910   22.2560 O   0  0  0  0  0  0  0  0  0  0  0  0
  -37.0740  -33.8210   19.6380 H   0  0  0  0  0  0  0  0  0  0  0  0
  -38.3600  -34.1440   22.8200 C   0  0  0  0  0  1  0  0  0  0  0  0
  -37.1740  -34.7390   22.0440 C   0  0  0  0  0  3  0  0  0  0  0  0
  -35.5240  -36.5540   22.1670 C   0  0  0  0  0  1  0  0  0  0  0  0
  -36.4370  -35.6870   22.9070 N   0  0  0  0  0  0  0  0  0  0  0  0
  -37.0810  -36.2770   23.4280 H   0  0  0  0  0  0  0  0  0  0  0  0
  1  3  1  0
  1  5  1  0
  3  6  1  0
  4  2  1  0
  5 14  1  6
  5  2  1  0
  5  8  1  0
  6  4  1  0
  6  7  1  1
  8  9  1  0
  9 10  1  0
 10 12  1  0
 11 10  1  0
 13 10  1  0
 15 22  2  0
 15 23  1  0
 16 17  1  0
 16 21  1  0
 18 19  1  0
 18 17  1  0
 19 28  1  0
 20 19  1  0
 20 21  1  0
 21 15  1  0
 23 14  1  0
 24 23  1  0
 25 50  1  0
 26 25  2  0
 27 29  2  0
 27 26  1  0
 28 25  1  0
 29 28  1  0
 30 27  1  0
 31 30  2  0
 32 31  1  0
 33 32  2  0
 33 34  1  0
 34 35  2  0
 35 30  1  0
 36 33  1  0
 37 38  1  0
 37 36  1  0
 39 38  2  0
 40 39  1  0
 41 40  2  0
 41 42  1  0
 42 37  2  0
 43 42  1  0
 44 40  1  0
 45 26  1  0
 45 47  2  0
 46 45  1  0
 48 46  1  0
 49 46  1  0
 50 51  1  0
 50 52  1  0
 53 55  1  0
 53  6  1  0
 55 54  1  0
 55 56  1  0
 56 57  1  0
 57 59  1  0
 58 68  1  0
 59 65  2  0
 59 64  1  0
 60 70  1  0
 60 68  1  0
 60 67  1  0
 61 63  1  0
 61 67  1  0
 63 62  1  0
 64 63  2  0
 65 66  1  0
 66 61  2  0
 68 62  1  0
 69 58  2  0
 71 70  1  0
 71 73  1  0
 72 70  2  0
 74 78  1  0
 74 79  1  0
 75 71  1  0
 76 75  1  0
 76 77  1  0
 78 77  1  0
 79 75  1  0
 80 79  2  0
 81 80  1  0
 82 83  1  0
 82 81  2  0
 83 74  2  0
 84 58  1  0
 84 89  1  0
 85 88  1  1
 85 84  1  0
 86 85  1  0
 87 85  1  0
 89 90  1  0
 90 94  1  0
 90 91  2  0
 92 89  1  0
 94 93  1  0
 94 96  1  0
 95 96  1  0
 96 97  1  0
M  ISO  4  15 100  23 100  56 101  57 101
M  END
>  <TORSDO>  (28) 
F 23

>  <SCORE>  (28) 
2.359

>  <name>  (28) 
27

>  <ligand_id>  (28) 
27

>  <original_smiles>  (28) 
[H]c1c([H])c([H])c2c(c1[H])C([H])([H])C([H])([H])C([H])([H])C2([H])N([H])C(=O)C1([H])N(C(=O)C([H])(N([H])C(=O)C([H])(N([H])C([H])([H])[H])C([H])([H])[H])C(C([H])([H])[H])(C([H])([H])[H])C([H])([H])[H])C([H])([H])c2c([H])c(OC([H])([H])C([H])(C([H])([H])[H])C([H])([H])[N+]3([H])C([H])([H])C([H])([H])C(C([H])([H])N([H])C(=O)N4C([H])([H])C([H])([H])C([H])([H])C([H])(n5nc(-c6c([H])c([H])c(Oc7c([H])c([H])c(F)c([H])c7F)c([H])c6[H])c(C(=O)N([H])[H])c5N([H])[H])C4([H])[H])(C([H])([H])C([H])([H])[N+]([H])([H])[H])C([H])([H])C3([H])[H])c([H])c([H])c2C1([H])[H]

>  <smiles>  (28) 
[H]c1c([H])c([H])c2c(c1[H])C([H])([H])C([H])([H])C([H])([H])C2([H])N([H])C(=O)C1([H])N(C(=O)C([H])(N([H])C(=O)C([H])(N([H])C([H])([H])[H])C([H])([H])[H])C(C([H])([H])[H])(C([H])([H])[H])C([H])([H])[H])C([H])([H])c2c([H])c(OC([H])([H])C([H])(C([H])([H])[H])C([H])([H])[N+]3([H])C([H])([H])C([H])([H])C(C([H])([H])N([H])C(=O)N4C([H])([H])C([H])([H])C([H])([H])C([H])(n5nc(-c6c([H])c([H])c(Oc7c([H])c([H])c(F)c([H])c7F)c([H])c6[H])c(C(=O)N([H])[H])c5N([H])[H])C4([H])[H])(C([H])([H])C([H])([H])[N+]([H])([H])[H])C([H])([H])C3([H])[H])c([H])c([H])c2C1([H])[H]

$$$$
28:0:0
     RDKit          3D

 96104  0  0  1  0  0  0  0  0999 V2000
  -29.4930  -20.6660   20.2010 C   0  0  0  0  0  2  0  0  0  0  0  0
  -31.7150  -17.5110   22.2440 C   0  0  0  0  0  2  0  0  0  0  0  0
  -30.5610  -18.4050   20.1590 C   0  0  0  0  0  2  0  0  0  0  0  0
  -30.9580  -19.9320   22.1460 C   0  0  0  0  0  2  0  0  0  0  0  0
  -31.5960  -17.4000   20.7080 C   0  0  0  0  0  3  0  0  0  0  0  0
  -31.9590  -18.9350   22.7880 C   0  0  1  0  0  0  0  0  0  0  0  0
  -30.7750  -19.8770   20.6010 C   0  0  2  0  0  0  0  0  0  0  0  0
  -31.6990  -18.9220   24.3110 C   0  0  0  0  0  1  0  0  0  0  0  0
  -33.4330  -19.3540   22.5940 C   0  0  0  0  0  1  0  0  0  0  0  0
  -31.9740  -20.4920   19.8430 C   0  0  0  0  0  1  0  0  0  0  0  0
  -31.6130  -15.1350   19.5580 C   0  0  0  0  0  0  0  0  0  0  0  0
  -31.2860  -12.8150   18.7600 C   0  0  0  0  0  2  0  0  0  0  0  0
  -30.2250  -12.7410   17.6450 C   0  0  0  0  0  2  0  0  0  0  0  0
  -28.8010  -12.6500   18.2300 C   0  0  0  0  0  2  0  0  0  0  0  0
  -28.5370  -13.7210   19.3180 C   0  0  0  0  0  3  0  0  0  0  0  0
  -29.6830  -13.7200   20.3500 C   0  0  0  0  0  2  0  0  0  0  0  0
  -30.9560  -13.9490   19.6340 N   0  0  0  0  0  0  0  0  0  0  0  0
  -32.5560  -15.3540   18.7890 O   0  0  0  0  0  0  0  0  0  0  0  0
  -31.1560  -16.0390   20.4310 N   0  0  0  0  0  0  0  0  0  0  0  0
  -30.3930  -15.7060   20.9980 H   0  0  0  0  0  0  0  0  0  0  0  0
  -26.3720  -14.4740   20.4970 C   0  0  0  0  0  0  0  0  0  0  0  0
  -25.2680  -13.7780   20.9080 C   0  0  0  0  0  0  0  0  0  0  0  0
  -25.5200  -12.4100   20.5830 C   0  0  0  0  0  0  0  0  0  0  0  0
  -27.2380  -13.5320   19.9600 N   0  0  0  0  0  0  0  0  0  0  0  0
  -26.7310  -12.2760   20.0620 N   0  0  0  0  0  0  0  0  0  0  0  0
  -24.6540  -11.2290   20.6850 C   0  0  0  0  0  0  0  0  0  0  0  0
  -25.0020  -10.1270   21.4970 C   0  0  0  0  0  3  0  0  0  0  0  0
  -24.1480   -9.0080   21.5910 C   0  0  0  0  0  3  0  0  0  0  0  0
  -22.9290   -8.9840   20.8730 C   0  0  0  0  0  0  0  0  0  0  0  0
  -22.5960  -10.0740   20.0490 C   0  0  0  0  0  3  0  0  0  0  0  0
  -23.4510  -11.1840   19.9520 C   0  0  0  0  0  3  0  0  0  0  0  0
  -22.0470   -7.9310   20.8840 O   0  0  0  0  0  0  0  0  0  0  0  0
  -21.8250   -7.1900   22.0170 C   0  0  0  0  0  0  0  0  0  0  0  0
  -21.3180   -7.7700   23.2000 C   0  0  0  0  0  3  0  0  0  0  0  0
  -21.0420   -6.9580   24.3190 C   0  0  0  0  0  3  0  0  0  0  0  0
  -21.2590   -5.5690   24.2540 C   0  0  0  0  0  0  0  0  0  0  0  0
  -21.7610   -4.9900   23.0740 C   0  0  0  0  0  3  0  0  0  0  0  0
  -22.0390   -5.7980   21.9590 C   0  0  0  0  0  0  0  0  0  0  0  0
  -22.5010   -5.2310   20.8190 F   0  0  0  0  0  0  0  0  0  0  0  0
  -20.9860   -4.7890   25.3250 F   0  0  0  0  0  0  0  0  0  0  0  0
  -24.0070  -14.3590   21.4830 C   0  0  0  0  0  0  0  0  0  0  0  0
  -23.3270  -13.6140   22.3510 N   0  0  0  0  0  0  0  0  0  0  0  0
  -23.6400  -15.4980   21.2000 O   0  0  0  0  0  0  0  0  0  0  0  0
  -23.6360  -12.6860   22.6020 H   0  0  0  0  0  0  0  0  0  0  0  0
  -22.4830  -13.9780   22.7700 H   0  0  0  0  0  0  0  0  0  0  0  0
  -26.7050  -15.8260   20.5180 N   0  0  0  0  0  0  0  0  0  0  0  0
  -26.0600  -16.5360   20.8470 H   0  0  0  0  0  0  0  0  0  0  0  0
  -27.5540  -16.2130   20.1250 H   0  0  0  0  0  0  0  0  0  0  0  0
  -29.4550  -22.0520   20.7200 N   0  0  0  0  0  4  0  0  0  0  0  0
  -30.3860  -22.4360   20.7120 H   0  0  0  0  0  0  0  0  0  0  0  0
  -29.1390  -22.0230   21.6760 H   0  0  0  0  0  0  0  0  0  0  0  0
  -28.5670  -22.9540   19.9550 C   0  0  0  0  0  2  0  0  0  0  0  0
  -28.1400  -24.1850   20.7770 C   0  0  0  0  0  2  0  0  0  0  0  0
  -27.4050  -25.2450   19.9310 C   0  0  0  0  0  2  0  0  0  0  0  0
  -28.2760  -26.4670   19.5910 C   0  0  0  0  0  2  0  0  0  0  0  0
  -27.6750  -27.2850   18.5960 O   0  0  0  0  0  0  0  0  0  0  0  0
  -24.3810  -31.7770   23.0560 C   0  0  0  0  0  0  0  0  0  0  0  0
  -26.5300  -27.9400   18.9660 C   0  0  0  0  0  0  0  0  0  0  0  0
  -22.9410  -30.6370   21.3950 C   0  0  0  0  0  3  0  0  0  0  0  0
  -24.1680  -29.3540   19.5650 C   0  0  0  0  0  0  0  0  0  0  0  0
  -25.4140  -31.0590   20.9070 C   0  0  0  0  0  2  0  0  0  0  0  0
  -25.3980  -29.8040   20.0620 C   0  0  0  0  0  0  0  0  0  0  0  0
  -26.5850  -29.1000   19.7680 C   0  0  0  0  0  3  0  0  0  0  0  0
  -25.2890  -27.4970   18.4680 C   0  0  0  0  0  3  0  0  0  0  0  0
  -24.1050  -28.1950   18.7710 C   0  0  0  0  0  3  0  0  0  0  0  0
  -22.9490  -30.1780   19.9130 C   0  0  0  0  0  2  0  0  0  0  0  0
  -24.2710  -31.1630   21.8440 N   0  0  0  0  0  0  0  0  0  0  0  0
  -23.3900  -31.9480   23.7790 O   0  0  0  0  0  0  0  0  0  0  0  0
  -22.4220  -29.4700   22.2660 C   0  0  0  0  0  0  0  0  0  0  0  0
  -21.1030  -29.2200   22.2040 N   0  0  0  0  0  0  0  0  0  0  0  0
  -23.1970  -28.7970   22.9500 O   0  0  0  0  0  0  0  0  0  0  0  0
  -20.5330  -29.8250   21.6290 H   0  0  0  0  0  0  0  0  0  0  0  0
  -17.8550  -27.7270   22.7150 C   0  0  0  0  0  0  0  0  0  0  0  0
  -20.3980  -28.1480   22.9040 C   0  0  0  0  0  3  0  0  0  0  0  0
  -20.5730  -26.7960   22.1740 C   0  0  0  0  0  2  0  0  0  0  0  0
  -19.4470  -26.4970   21.1800 C   0  0  0  0  0  2  0  0  0  0  0  0
  -18.0930  -26.4690   21.8940 C   0  0  0  0  0  2  0  0  0  0  0  0
  -18.9370  -28.5230   23.1750 C   0  0  0  0  0  0  0  0  0  0  0  0
  -18.6600  -29.7010   23.9020 C   0  0  0  0  0  3  0  0  0  0  0  0
  -17.3330  -30.0810   24.1760 C   0  0  0  0  0  3  0  0  0  0  0  0
  -16.2660  -29.2800   23.7320 C   0  0  0  0  0  3  0  0  0  0  0  0
  -16.5290  -28.1040   23.0070 C   0  0  0  0  0  3  0  0  0  0  0  0
  -25.7500  -32.3140   23.5790 C   0  0  0  0  0  3  0  0  0  0  0  0
  -25.5390  -33.6970   24.0280 N   0  0  0  0  0  0  0  0  0  0  0  0
  -25.8520  -34.7850   23.3100 C   0  0  0  0  0  0  0  0  0  0  0  0
  -26.4220  -34.7260   22.2170 O   0  0  0  0  0  0  0  0  0  0  0  0
  -25.0210  -33.8190   24.8860 H   0  0  0  0  0  0  0  0  0  0  0  0
  -24.1840  -36.6670   23.2290 C   0  0  0  0  0  1  0  0  0  0  0  0
  -25.4700  -36.1560   23.9010 C   0  0  0  0  0  3  0  0  0  0  0  0
  -27.7010  -36.8980   24.6090 C   0  0  0  0  0  1  0  0  0  0  0  0
  -26.5370  -37.1710   23.7700 N   0  0  0  0  0  0  0  0  0  0  0  0
  -26.1860  -38.0950   24.0090 H   0  0  0  0  0  0  0  0  0  0  0  0
  -26.3620  -31.4360   24.7380 C   0  0  1  0  0  0  0  0  0  0  0  0
  -25.3610  -31.1180   25.8720 C   0  0  0  0  0  1  0  0  0  0  0  0
  -26.8890  -30.0910   24.1840 C   0  0  0  0  0  1  0  0  0  0  0  0
  -27.5740  -32.1650   25.3640 C   0  0  0  0  0  1  0  0  0  0  0  0
  1  7  1  0
  1 49  1  0
  2  6  1  0
  3  7  1  0
  3  5  1  0
  4  6  1  0
  5 19  1  0
  5  2  1  0
  6  8  1  1
  7 10  1  6
  7  4  1  0
  9  6  1  0
 11 17  1  0
 11 19  1  0
 12 17  1  0
 13 14  1  0
 13 12  1  0
 15 14  1  0
 15 24  1  0
 15 16  1  0
 17 16  1  0
 18 11  2  0
 19 20  1  0
 21 46  1  0
 21 22  2  0
 22 41  1  0
 23 26  1  0
 23 22  1  0
 24 25  1  0
 24 21  1  0
 25 23  2  0
 26 27  1  0
 27 28  2  0
 29 32  1  0
 29 28  1  0
 30 29  2  0
 31 30  1  0
 31 26  2  0
 32 33  1  0
 33 34  1  0
 34 35  2  0
 36 35  1  0
 36 40  1  0
 37 36  2  0
 38 33  2  0
 38 37  1  0
 39 38  1  0
 41 42  1  0
 42 44  1  0
 42 45  1  0
 43 41  2  0
 46 47  1  0
 48 46  1  0
 49 51  1  0
 50 49  1  0
 52 49  1  0
 52 53  1  0
 54 53  1  0
 55 54  1  0
 56 58  1  0
 56 55  1  0
 57 68  2  0
 58 63  1  0
 59 67  1  0
 59 69  1  0
 60 66  1  0
 60 62  1  0
 61 67  1  0
 62 61  1  0
 63 62  2  0
 64 65  1  0
 64 58  2  0
 65 60  2  0
 66 59  1  0
 67 57  1  0
 69 71  2  0
 70 69  1  0
 72 70  1  0
 73 82  2  0
 73 78  1  0
 74 70  1  0
 74 78  1  0
 75 74  1  0
 76 77  1  0
 76 75  1  0
 77 73  1  0
 78 79  2  0
 79 80  1  0
 81 80  2  0
 82 81  1  0
 83 57  1  0
 83 84  1  0
 83 93  1  0
 84 87  1  0
 85 89  1  0
 85 84  1  0
 86 85  2  0
 89 88  1  0
 91 89  1  0
 91 92  1  0
 91 90  1  0
 93 96  1  1
 93 94  1  0
 95 93  1  0
M  ISO  4  11 100  19 100  55 101  56 101
M  END
>  <TORSDO>  (29) 
F 22

>  <SCORE>  (29) 
-7.207

>  <name>  (29) 
28

>  <ligand_id>  (29) 
28

>  <original_smiles>  (29) 
[H]c1c([H])c([H])c2c(c1[H])C([H])([H])C([H])([H])C([H])([H])C2([H])N([H])C(=O)C1([H])N(C(=O)C([H])(N([H])C(=O)C([H])(N([H])C([H])([H])[H])C([H])([H])[H])C(C([H])([H])[H])(C([H])([H])[H])C([H])([H])[H])C([H])([H])c2c([H])c(OC([H])([H])C([H])([H])C([H])([H])C([H])([H])[N+]([H])([H])C([H])([H])C3(C([H])([H])[H])C([H])([H])C([H])(N([H])C(=O)N4C([H])([H])C([H])([H])C([H])([H])C([H])(n5nc(-c6c([H])c([H])c(Oc7c([H])c([H])c(F)c([H])c7F)c([H])c6[H])c(C(=O)N([H])[H])c5N([H])[H])C4([H])[H])C([H])([H])C(C([H])([H])[H])(C([H])([H])[H])C3([H])[H])c([H])c([H])c2C1([H])[H]

>  <smiles>  (29) 
[H]c1c([H])c([H])c2c(c1[H])C([H])([H])C([H])([H])C([H])([H])C2([H])N([H])C(=O)C1([H])N(C(=O)C([H])(N([H])C(=O)C([H])(N([H])C([H])([H])[H])C([H])([H])[H])C(C([H])([H])[H])(C([H])([H])[H])C([H])([H])[H])C([H])([H])c2c([H])c(OC([H])([H])C([H])([H])C([H])([H])C([H])([H])[N+]([H])([H])C([H])([H])C3(C([H])([H])[H])C([H])([H])C([H])(N([H])C(=O)N4C([H])([H])C([H])([H])C([H])([H])C([H])(n5nc(-c6c([H])c([H])c(Oc7c([H])c([H])c(F)c([H])c7F)c([H])c6[H])c(C(=O)N([H])[H])c5N([H])[H])C4([H])[H])C([H])([H])C(C([H])([H])[H])(C([H])([H])[H])C3([H])[H])c([H])c([H])c2C1([H])[H]

$$$$
29:0:0
     RDKit          3D

102110  0  0  1  0  0  0  0  0999 V2000
  -30.2140  -18.7080   23.0850 N   0  0  0  0  0  4  0  0  0  0  0  0
  -30.0170  -17.8270   23.5360 H   0  0  0  0  0  0  0  0  0  0  0  0
  -31.2130  -18.8220   23.1090 H   0  0  0  0  0  0  0  0  0  0  0  0
  -29.5630  -19.7710   23.9010 C   0  0  0  0  0  2  0  0  0  0  0  0
  -30.4100  -21.0570   24.0970 C   0  0  0  0  0  2  0  0  0  0  0  0
  -30.7390  -21.8180   22.8100 C   0  0  0  0  0  2  0  0  0  0  0  0
  -30.8000  -23.3380   22.9640 C   0  0  0  0  0  2  0  0  0  0  0  0
  -30.9050  -24.0090   21.6540 N   0  0  0  0  0  4  0  0  0  0  0  0
  -30.4840  -23.4350   20.9460 H   0  0  0  0  0  0  0  0  0  0  0  0
  -31.8810  -24.1200   21.4210 H   0  0  0  0  0  0  0  0  0  0  0  0
  -30.2740  -25.3400   21.6030 C   0  0  0  0  0  2  0  0  0  0  0  0
  -30.6520  -26.0490   20.2980 C   0  0  0  0  0  2  0  0  0  0  0  0
  -30.2300  -27.3920   20.3410 O   0  0  0  0  0  0  0  0  0  0  0  0
  -25.1150  -31.2510   23.2860 C   0  0  0  0  0  0  0  0  0  0  0  0
  -28.8930  -27.6990   20.2940 C   0  0  0  0  0  0  0  0  0  0  0  0
  -24.3540  -29.6790   21.5270 C   0  0  0  0  0  3  0  0  0  0  0  0
  -26.2080  -28.5450   20.1950 C   0  0  0  0  0  0  0  0  0  0  0  0
  -26.7290  -30.6190   21.4980 C   0  0  0  0  0  2  0  0  0  0  0  0
  -27.1630  -29.3240   20.8530 C   0  0  0  0  0  0  0  0  0  0  0  0
  -28.5040  -28.9030   20.9020 C   0  0  0  0  0  3  0  0  0  0  0  0
  -27.9150  -26.9020   19.6470 C   0  0  0  0  0  3  0  0  0  0  0  0
  -26.5740  -27.3270   19.5950 C   0  0  0  0  0  3  0  0  0  0  0  0
  -24.7970  -29.0860   20.1620 C   0  0  0  0  0  2  0  0  0  0  0  0
  -25.4120  -30.5320   22.1670 N   0  0  0  0  0  0  0  0  0  0  0  0
  -23.9710  -31.2450   23.7620 O   0  0  0  0  0  0  0  0  0  0  0  0
  -23.8940  -28.5100   22.4260 C   0  0  0  0  0  0  0  0  0  0  0  0
  -22.6790  -28.0020   22.1600 N   0  0  0  0  0  0  0  0  0  0  0  0
  -24.6300  -28.0590   23.3070 O   0  0  0  0  0  0  0  0  0  0  0  0
  -22.1380  -28.4280   21.4210 H   0  0  0  0  0  0  0  0  0  0  0  0
  -19.7250  -25.9320   22.2420 C   0  0  0  0  0  0  0  0  0  0  0  0
  -22.0600  -26.8630   22.8390 C   0  0  0  0  0  3  0  0  0  0  0  0
  -22.6200  -25.5220   22.3030 C   0  0  0  0  0  2  0  0  0  0  0  0
  -21.7850  -24.9350   21.1630 C   0  0  0  0  0  2  0  0  0  0  0  0
  -20.3430  -24.6890   21.6180 C   0  0  0  0  0  2  0  0  0  0  0  0
  -20.5320  -26.9570   22.8000 C   0  0  0  0  0  0  0  0  0  0  0  0
  -19.9060  -28.1100   23.3270 C   0  0  0  0  0  3  0  0  0  0  0  0
  -18.5070  -28.2410   23.3070 C   0  0  0  0  0  3  0  0  0  0  0  0
  -17.7100  -27.2130   22.7740 C   0  0  0  0  0  3  0  0  0  0  0  0
  -18.3200  -26.0640   22.2440 C   0  0  0  0  0  3  0  0  0  0  0  0
  -26.1900  -32.1270   24.0030 C   0  0  0  0  0  3  0  0  0  0  0  0
  -25.5960  -33.4480   24.2360 N   0  0  0  0  0  0  0  0  0  0  0  0
  -25.8170  -34.5250   23.4700 C   0  0  0  0  0  0  0  0  0  0  0  0
  -26.6090  -34.5300   22.5240 O   0  0  0  0  0  0  0  0  0  0  0  0
  -24.8920  -33.5030   24.9570 H   0  0  0  0  0  0  0  0  0  0  0  0
  -23.8290  -35.9410   22.8690 C   0  0  0  0  0  1  0  0  0  0  0  0
  -25.0350  -35.8080   23.8110 C   0  0  0  0  0  3  0  0  0  0  0  0
  -26.8750  -37.1060   24.7930 C   0  0  0  0  0  1  0  0  0  0  0  0
  -25.8630  -37.0330   23.7420 N   0  0  0  0  0  0  0  0  0  0  0  0
  -25.2780  -37.8620   23.8060 H   0  0  0  0  0  0  0  0  0  0  0  0
  -26.7060  -31.4950   25.3530 C   0  0  1  0  0  0  0  0  0  0  0  0
  -25.5700  -31.0930   26.3210 C   0  0  0  0  0  1  0  0  0  0  0  0
  -27.5660  -30.2390   25.0750 C   0  0  0  0  0  1  0  0  0  0  0  0
  -27.6190  -32.5030   26.0850 C   0  0  0  0  0  1  0  0  0  0  0  0
  -29.7190  -18.6010   21.6860 C   0  0  0  0  0  2  0  0  0  0  0  0
  -30.8560  -18.5490   20.6120 C   0  0  0  0  0  3  0  0  0  0  0  0
  -30.8950  -19.8360   19.7230 C   0  0  0  0  0  2  0  0  0  0  0  0
  -29.7460  -20.0590   18.8210 N   0  0  0  0  0  4  0  0  0  0  0  0
  -29.8400  -20.9840   18.4320 H   0  0  0  0  0  0  0  0  0  0  0  0
  -28.8460  -20.0030   19.2680 H   0  0  0  0  0  0  0  0  0  0  0  0
  -29.7860  -19.4160   18.0470 H   0  0  0  0  0  0  0  0  0  0  0  0
  -30.9310  -17.2100   19.8130 C   0  0  0  0  0  3  0  0  0  0  0  0
  -31.9260  -15.0000   20.6190 C   0  0  0  0  0  0  0  0  0  0  0  0
  -31.6780  -12.7450   19.7010 C   0  0  0  0  0  2  0  0  0  0  0  0
  -30.8190  -12.8330   18.4180 C   0  0  0  0  0  2  0  0  0  0  0  0
  -29.3020  -12.9700   18.6950 C   0  0  0  0  0  2  0  0  0  0  0  0
  -28.9380  -13.8650   19.9090 C   0  0  0  0  0  3  0  0  0  0  0  0
  -29.8950  -13.6080   21.1000 C   0  0  0  0  0  2  0  0  0  0  0  0
  -31.2740  -13.8100   20.6220 N   0  0  0  0  0  0  0  0  0  0  0  0
  -33.1070  -15.1400   20.2810 O   0  0  0  0  0  0  0  0  0  0  0  0
  -31.0670  -16.0410   20.7140 N   0  0  0  0  0  0  0  0  0  0  0  0
  -30.2130  -15.7440   21.1640 H   0  0  0  0  0  0  0  0  0  0  0  0
  -26.5610  -14.7040   20.4630 C   0  0  0  0  0  0  0  0  0  0  0  0
  -25.4060  -14.0360   20.7580 C   0  0  0  0  0  0  0  0  0  0  0  0
  -25.7390  -12.6430   20.7310 C   0  0  0  0  0  0  0  0  0  0  0  0
  -27.5350  -13.7290   20.2930 N   0  0  0  0  0  0  0  0  0  0  0  0
  -27.0390  -12.4870   20.5140 N   0  0  0  0  0  0  0  0  0  0  0  0
  -24.8930  -11.4530   20.8450 C   0  0  0  0  0  0  0  0  0  0  0  0
  -25.1900  -10.4210   21.7660 C   0  0  0  0  0  3  0  0  0  0  0  0
  -24.3470   -9.2930   21.8720 C   0  0  0  0  0  3  0  0  0  0  0  0
  -23.1940   -9.1920   21.0570 C   0  0  0  0  0  0  0  0  0  0  0  0
  -22.9160  -10.2100   20.1270 C   0  0  0  0  0  3  0  0  0  0  0  0
  -23.7580  -11.3290   20.0190 C   0  0  0  0  0  3  0  0  0  0  0  0
  -22.3320   -8.1220   21.0740 O   0  0  0  0  0  0  0  0  0  0  0  0
  -22.1350   -7.3760   22.2080 C   0  0  0  0  0  0  0  0  0  0  0  0
  -21.6780   -7.9550   23.4120 C   0  0  0  0  0  3  0  0  0  0  0  0
  -21.4200   -7.1390   24.5320 C   0  0  0  0  0  3  0  0  0  0  0  0
  -21.6130   -5.7450   24.4490 C   0  0  0  0  0  0  0  0  0  0  0  0
  -22.0600   -5.1690   23.2460 C   0  0  0  0  0  3  0  0  0  0  0  0
  -22.3160   -5.9800   22.1300 C   0  0  0  0  0  0  0  0  0  0  0  0
  -22.7280   -5.4150   20.9680 F   0  0  0  0  0  0  0  0  0  0  0  0
  -21.3570   -4.9610   25.5210 F   0  0  0  0  0  0  0  0  0  0  0  0
  -24.0430  -14.6400   20.9550 C   0  0  0  0  0  0  0  0  0  0  0  0
  -23.2050  -14.0190   21.7750 N   0  0  0  0  0  0  0  0  0  0  0  0
  -23.7250  -15.6970   20.4100 O   0  0  0  0  0  0  0  0  0  0  0  0
  -23.4610  -13.1580   22.2370 H   0  0  0  0  0  0  0  0  0  0  0  0
  -22.2920  -14.4120   21.9430 H   0  0  0  0  0  0  0  0  0  0  0  0
  -26.8740  -16.0520   20.3000 N   0  0  0  0  0  0  0  0  0  0  0  0
  -26.1240  -16.7250   20.1870 H   0  0  0  0  0  0  0  0  0  0  0  0
  -27.7330  -16.3440   19.8590 H   0  0  0  0  0  0  0  0  0  0  0  0
  -31.7610  -16.2750   17.4990 C   0  0  0  0  0  2  0  0  0  0  0  0
  -31.5730  -17.7350   17.2310 C   0  0  0  0  0  2  0  0  0  0  0  0
  -31.9160  -17.2570   18.6340 C   0  0  0  0  0  3  0  0  0  0  0  0
  1  3  1  0
  1  2  1  0
  1  4  1  0
  4  5  1  0
  6  7  1  0
  6  5  1  0
  8  7  1  0
  9  8  1  0
 10  8  1  0
 11  8  1  0
 12 13  1  0
 12 11  1  0
 14 25  2  0
 15 13  1  0
 15 20  1  0
 16 24  1  0
 16 26  1  0
 17 19  1  0
 18 24  1  0
 19 20  2  0
 19 18  1  0
 21 15  2  0
 22 21  1  0
 22 17  2  0
 23 17  1  0
 23 16  1  0
 24 14  1  0
 26 28  2  0
 27 26  1  0
 29 27  1  0
 30 39  2  0
 30 35  1  0
 31 27  1  0
 32 31  1  0
 33 34  1  0
 33 32  1  0
 34 30  1  0
 35 31  1  0
 35 36  2  0
 37 36  1  0
 38 37  2  0
 39 38  1  0
 40 14  1  0
 40 41  1  0
 40 50  1  0
 41 44  1  0
 42 46  1  0
 42 41  1  0
 43 42  2  0
 46 45  1  0
 48 49  1  0
 48 46  1  0
 48 47  1  0
 50 53  1  1
 50 51  1  0
 52 50  1  0
 54  1  1  0
 55 56  1  0
 55 54  1  0
 57 59  1  0
 57 56  1  0
 58 57  1  0
 60 57  1  0
 61 55  1  0
 61 70  1  0
 62 68  1  0
 62 70  1  0
 63 68  1  0
 64 65  1  0
 64 63  1  0
 66 65  1  0
 66 75  1  0
 66 67  1  0
 68 67  1  0
 69 62  2  0
 70 71  1  0
 72 73  2  0
 73 92  1  0
 74 73  1  0
 74 77  1  0
 75 72  1  0
 75 76  1  0
 76 74  2  0
 77 78  1  0
 78 79  2  0
 80 83  1  0
 80 79  1  0
 81 80  2  0
 82 81  1  0
 82 77  2  0
 83 84  1  0
 84 85  1  0
 85 86  2  0
 87 86  1  0
 87 91  1  0
 88 87  2  0
 89 84  2  0
 89 88  1  0
 90 89  1  0
 92 93  1  0
 93 96  1  0
 93 95  1  0
 94 92  2  0
 97 72  1  0
 98 97  1  0
 99 97  1  0
100102  1  0
101100  1  0
101102  1  0
102 61  1  0
M  ISO  4  12 101  13 101  62 100  70 100
M  END
>  <TORSDO>  (30) 
F 29

>  <SCORE>  (30) 
-4.919

>  <name>  (30) 
29

>  <ligand_id>  (30) 
29

>  <original_smiles>  (30) 
[H]c1c([H])c([H])c2c(c1[H])C([H])([H])C([H])([H])C([H])([H])C2([H])N([H])C(=O)C1([H])N(C(=O)C([H])(N([H])C(=O)C([H])(N([H])C([H])([H])[H])C([H])([H])[H])C(C([H])([H])[H])(C([H])([H])[H])C([H])([H])[H])C([H])([H])c2c([H])c(OC([H])([H])C([H])([H])[N+]([H])([H])C([H])([H])C([H])([H])C([H])([H])C([H])([H])[N+]([H])([H])C([H])([H])C([H])(C([H])(N([H])C(=O)N3C([H])([H])C([H])([H])C([H])([H])C([H])(n4nc(-c5c([H])c([H])c(Oc6c([H])c([H])c(F)c([H])c6F)c([H])c5[H])c(C(=O)N([H])[H])c4N([H])[H])C3([H])[H])C3([H])C([H])([H])C3([H])[H])C([H])([H])[N+]([H])([H])[H])c([H])c([H])c2C1([H])[H]

>  <smiles>  (30) 
[H]c1c([H])c([H])c2c(c1[H])C([H])([H])C([H])([H])C([H])([H])C2([H])N([H])C(=O)C1([H])N(C(=O)C([H])(N([H])C(=O)C([H])(N([H])C([H])([H])[H])C([H])([H])[H])C(C([H])([H])[H])(C([H])([H])[H])C([H])([H])[H])C([H])([H])c2c([H])c(OC([H])([H])C([H])([H])[N+]([H])([H])C([H])([H])C([H])([H])C([H])([H])C([H])([H])[N+]([H])([H])C([H])([H])C([H])(C([H])(N([H])C(=O)N3C([H])([H])C([H])([H])C([H])([H])C([H])(n4nc(-c5c([H])c([H])c(Oc6c([H])c([H])c(F)c([H])c6F)c([H])c5[H])c(C(=O)N([H])[H])c4N([H])[H])C3([H])[H])C3([H])C([H])([H])C3([H])[H])C([H])([H])[N+]([H])([H])[H])c([H])c([H])c2C1([H])[H]

$$$$
30:0:0
     RDKit          3D

 97107  0  0  1  0  0  0  0  0999 V2000
  -29.3300  -21.7710   18.1520 C   0  0  0  0  0  0  0  0  0  0  0  0
  -29.0340  -20.9280   19.1450 N   0  0  0  0  0  0  0  0  0  0  0  0
  -30.1710  -21.5210   17.2840 O   0  0  0  0  0  0  0  0  0  0  0  0
  -28.3230  -21.2160   19.8040 H   0  0  0  0  0  0  0  0  0  0  0  0
  -31.4460  -18.8070   21.2570 C   0  0  0  0  0  2  0  0  0  0  0  0
  -28.6900  -18.5040   19.6090 C   0  0  0  0  0  2  0  0  0  0  0  0
  -30.1400  -19.4950   20.8490 C   0  0  0  0  0  3  0  0  0  0  0  0
  -29.4610  -18.1170   20.8800 C   0  0  0  0  0  3  0  0  0  0  0  0
  -30.8480  -17.4500   20.8680 C   0  0  0  0  0  3  0  0  0  0  0  0
  -29.6880  -19.6480   19.3870 C   0  0  0  0  0  3  0  0  0  0  0  0
  -31.1210  -16.2430   21.7660 C   0  0  0  0  0  2  0  0  0  0  0  0
  -30.7820  -14.3100   20.2390 C   0  0  0  0  0  0  0  0  0  0  0  0
  -30.2880  -12.3020   18.8960 C   0  0  0  0  0  2  0  0  0  0  0  0
  -29.2800  -12.6110   17.7750 C   0  0  0  0  0  2  0  0  0  0  0  0
  -27.8360  -12.4740   18.2880 C   0  0  0  0  0  2  0  0  0  0  0  0
  -27.6010  -13.2500   19.6110 C   0  0  0  0  0  3  0  0  0  0  0  0
  -28.7080  -12.9290   20.6390 C   0  0  0  0  0  2  0  0  0  0  0  0
  -30.0180  -13.2090   20.0210 N   0  0  0  0  0  0  0  0  0  0  0  0
  -31.7610  -14.6060   19.5460 O   0  0  0  0  0  0  0  0  0  0  0  0
  -30.4300  -15.0480   21.2970 N   0  0  0  0  0  0  0  0  0  0  0  0
  -29.6430  -14.7210   21.8390 H   0  0  0  0  0  0  0  0  0  0  0  0
  -25.2490  -13.8750   20.4550 C   0  0  0  0  0  0  0  0  0  0  0  0
  -24.1910  -13.1080   20.8650 C   0  0  0  0  0  0  0  0  0  0  0  0
  -24.6310  -11.7510   20.7810 C   0  0  0  0  0  0  0  0  0  0  0  0
  -26.2690  -12.9860   20.1530 N   0  0  0  0  0  0  0  0  0  0  0  0
  -25.9020  -11.7030   20.4030 N   0  0  0  0  0  0  0  0  0  0  0  0
  -23.9000  -10.4940   20.9860 C   0  0  0  0  0  0  0  0  0  0  0  0
  -24.3490   -9.5190   21.9040 C   0  0  0  0  0  3  0  0  0  0  0  0
  -23.6200   -8.3270   22.0950 C   0  0  0  0  0  3  0  0  0  0  0  0
  -22.4260   -8.1010   21.3690 C   0  0  0  0  0  0  0  0  0  0  0  0
  -21.9950   -9.0650   20.4390 C   0  0  0  0  0  3  0  0  0  0  0  0
  -22.7260  -10.2490   20.2460 C   0  0  0  0  0  3  0  0  0  0  0  0
  -21.6650   -6.9620   21.4700 O   0  0  0  0  0  0  0  0  0  0  0  0
  -21.6300   -6.2200   22.6240 C   0  0  0  0  0  0  0  0  0  0  0  0
  -21.1940   -6.7700   23.8490 C   0  0  0  0  0  3  0  0  0  0  0  0
  -21.1070   -5.9540   24.9960 C   0  0  0  0  0  3  0  0  0  0  0  0
  -21.4440   -4.5900   24.9170 C   0  0  0  0  0  0  0  0  0  0  0  0
  -21.8720   -4.0400   23.6960 C   0  0  0  0  0  3  0  0  0  0  0  0
  -21.9610   -4.8520   22.5520 C   0  0  0  0  0  0  0  0  0  0  0  0
  -22.3540   -4.3120   21.3740 F   0  0  0  0  0  0  0  0  0  0  0  0
  -21.3530   -3.8050   26.0160 F   0  0  0  0  0  0  0  0  0  0  0  0
  -22.8170  -13.5950   21.2250 C   0  0  0  0  0  0  0  0  0  0  0  0
  -22.1250  -12.8830   22.1070 N   0  0  0  0  0  0  0  0  0  0  0  0
  -22.3660  -14.6420   20.7580 O   0  0  0  0  0  0  0  0  0  0  0  0
  -22.5030  -12.0360   22.5040 H   0  0  0  0  0  0  0  0  0  0  0  0
  -21.2050  -13.1910   22.3890 H   0  0  0  0  0  0  0  0  0  0  0  0
  -25.4220  -15.2470   20.2970 N   0  0  0  0  0  0  0  0  0  0  0  0
  -24.6740  -15.9120   20.4630 H   0  0  0  0  0  0  0  0  0  0  0  0
  -26.2700  -15.6820   19.9510 H   0  0  0  0  0  0  0  0  0  0  0  0
  -29.6080  -24.6120   19.8300 C   0  0  0  0  0  0  0  0  0  0  0  0
  -28.4000  -23.8150   16.8090 C   0  0  0  0  0  2  0  0  0  0  0  0
  -28.8420  -25.1010   17.5120 C   0  0  0  0  0  2  0  0  0  0  0  0
  -28.5840  -23.1120   18.1630 C   0  0  0  0  0  3  0  0  0  0  0  0
  -29.4720  -24.2250   18.4960 N   0  0  0  0  0  0  0  0  0  0  0  0
  -30.6870  -24.4510   20.4050 O   0  0  0  0  0  0  0  0  0  0  0  0
  -28.4380  -25.3000   20.5460 C   0  0  0  0  0  2  0  0  0  0  0  0
  -28.5130  -26.7140   20.3360 O   0  0  0  0  0  0  0  0  0  0  0  0
  -24.5720  -31.8680   23.2500 C   0  0  0  0  0  0  0  0  0  0  0  0
  -27.3210  -27.4000   20.3170 C   0  0  0  0  0  0  0  0  0  0  0  0
  -23.4170  -30.4280   21.6070 C   0  0  0  0  0  3  0  0  0  0  0  0
  -24.9160  -28.8790   20.2490 C   0  0  0  0  0  0  0  0  0  0  0  0
  -25.9450  -30.8030   21.4690 C   0  0  0  0  0  2  0  0  0  0  0  0
  -26.0550  -29.4220   20.8580 C   0  0  0  0  0  0  0  0  0  0  0  0
  -27.2620  -28.6880   20.8900 C   0  0  0  0  0  3  0  0  0  0  0  0
  -26.1650  -26.8710   19.6980 C   0  0  0  0  0  3  0  0  0  0  0  0
  -24.9650  -27.6020   19.6680 C   0  0  0  0  0  3  0  0  0  0  0  0
  -23.6680  -29.7290   20.2450 C   0  0  0  0  0  2  0  0  0  0  0  0
  -24.6610  -31.0480   22.1680 N   0  0  0  0  0  0  0  0  0  0  0  0
  -23.4750  -32.1470   23.7530 O   0  0  0  0  0  0  0  0  0  0  0  0
  -22.7500  -29.4160   22.5650 C   0  0  0  0  0  0  0  0  0  0  0  0
  -21.4260  -29.2440   22.4230 N   0  0  0  0  0  0  0  0  0  0  0  0
  -23.4210  -28.7910   23.3910 O   0  0  0  0  0  0  0  0  0  0  0  0
  -20.9490  -29.7980   21.7260 H   0  0  0  0  0  0  0  0  0  0  0  0
  -18.0280  -28.1220   22.9150 C   0  0  0  0  0  0  0  0  0  0  0  0
  -20.5910  -28.3210   23.1910 C   0  0  0  0  0  3  0  0  0  0  0  0
  -20.6630  -26.8910   22.6080 C   0  0  0  0  0  2  0  0  0  0  0  0
  -19.5550  -26.5950   21.5930 C   0  0  0  0  0  2  0  0  0  0  0  0
  -18.1760  -26.7700   22.2360 C   0  0  0  0  0  2  0  0  0  0  0  0
  -19.1630  -28.8570   23.3480 C   0  0  0  0  0  0  0  0  0  0  0  0
  -18.9730  -30.1240   23.9390 C   0  0  0  0  0  3  0  0  0  0  0  0
  -17.6810  -30.6570   24.1030 C   0  0  0  0  0  3  0  0  0  0  0  0
  -16.5600  -29.9170   23.6880 C   0  0  0  0  0  3  0  0  0  0  0  0
  -16.7340  -28.6500   23.1020 C   0  0  0  0  0  3  0  0  0  0  0  0
  -25.8400  -32.5180   23.8910 C   0  0  0  0  0  3  0  0  0  0  0  0
  -26.3410  -31.7600   25.1800 C   0  0  1  0  0  0  0  0  0  0  0  0
  -25.2270  -31.5070   26.2230 C   0  0  0  0  0  1  0  0  0  0  0  0
  -26.9520  -30.3900   24.8050 C   0  0  0  0  0  1  0  0  0  0  0  0
  -27.4620  -32.5750   25.8650 C   0  0  0  0  0  1  0  0  0  0  0  0
  -25.5090  -33.9140   24.2010 N   0  0  0  0  0  0  0  0  0  0  0  0
  -25.8430  -34.9620   23.4350 C   0  0  0  0  0  0  0  0  0  0  0  0
  -26.5350  -34.8550   22.4180 O   0  0  0  0  0  0  0  0  0  0  0  0
  -24.8960  -34.0710   24.9870 H   0  0  0  0  0  0  0  0  0  0  0  0
  -24.1060  -36.7300   23.0180 C   0  0  0  0  0  1  0  0  0  0  0  0
  -25.3290  -36.3480   23.8650 C   0  0  0  0  0  3  0  0  0  0  0  0
  -27.4290  -37.2650   24.7490 C   0  0  0  0  0  1  0  0  0  0  0  0
  -26.3530  -37.4110   23.7710 N   0  0  0  0  0  0  0  0  0  0  0  0
  -25.9330  -38.3280   23.8980 H   0  0  0  0  0  0  0  0  0  0  0  0
  1  2  1  0
  2  4  1  0
  3  1  2  0
  7  8  1  0
  7  5  1  0
  8  6  1  0
  9  8  1  0
  9  5  1  0
  9 11  1  0
 10  2  1  0
 10  6  1  0
 10  7  1  0
 12 20  1  0
 13 18  1  0
 14 15  1  0
 14 13  1  0
 16 15  1  0
 16 25  1  0
 16 17  1  0
 18 12  1  0
 18 17  1  0
 19 12  2  0
 20 11  1  0
 20 21  1  0
 22 23  2  0
 23 42  1  0
 24 23  1  0
 24 27  1  0
 25 26  1  0
 25 22  1  0
 26 24  2  0
 27 28  1  0
 28 29  2  0
 30 33  1  0
 30 29  1  0
 31 30  2  0
 32 31  1  0
 32 27  2  0
 33 34  1  0
 34 35  1  0
 35 36  2  0
 37 36  1  0
 37 41  1  0
 38 37  2  0
 39 34  2  0
 39 38  1  0
 40 39  1  0
 42 43  1  0
 43 46  1  0
 43 45  1  0
 44 42  2  0
 47 22  1  0
 47 48  1  0
 49 47  1  0
 50 55  2  0
 50 56  1  0
 51 52  1  0
 51 53  1  0
 52 54  1  0
 53  1  1  0
 53 54  1  0
 54 50  1  0
 57 56  1  0
 58 69  2  0
 59 57  1  0
 59 64  1  0
 60 68  1  0
 60 70  1  0
 61 63  1  0
 62 68  1  0
 63 64  2  0
 63 62  1  0
 65 59  2  0
 66 65  1  0
 66 61  2  0
 67 61  1  0
 67 60  1  0
 68 58  1  0
 70 72  2  0
 71 70  1  0
 73 71  1  0
 74 83  2  0
 74 79  1  0
 75 71  1  0
 75 79  1  0
 76 75  1  0
 77 78  1  0
 77 76  1  0
 78 74  1  0
 79 80  2  0
 80 81  1  0
 82 81  2  0
 83 82  1  0
 84 58  1  0
 84 89  1  0
 84 85  1  0
 85 88  1  1
 85 86  1  0
 87 85  1  0
 89 92  1  0
 90 94  1  0
 90 89  1  0
 91 90  2  0
 94 93  1  0
 96 94  1  0
 96 97  1  0
 96 95  1  0
M  ISO  4  12 100  20 100  56 101  57 101
M  END
>  <TORSDO>  (31) 
F 20

>  <SCORE>  (31) 
-13.976

>  <name>  (31) 
30

>  <ligand_id>  (31) 
30

>  <original_smiles>  (31) 
[H]c1c([H])c([H])c2c(c1[H])C([H])([H])C([H])([H])C([H])([H])C2([H])N([H])C(=O)C1([H])N(C(=O)C([H])(N([H])C(=O)C([H])(N([H])C([H])([H])[H])C([H])([H])[H])C(C([H])([H])[H])(C([H])([H])[H])C([H])([H])[H])C([H])([H])c2c([H])c(OC([H])([H])C(=O)N3C([H])([H])C([H])([H])C3([H])C(=O)N([H])C3([H])C([H])([H])C4([H])C([H])(C([H])([H])N([H])C(=O)N5C([H])([H])C([H])([H])C([H])([H])C([H])(n6nc(-c7c([H])c([H])c(Oc8c([H])c([H])c(F)c([H])c8F)c([H])c7[H])c(C(=O)N([H])[H])c6N([H])[H])C5([H])[H])C([H])([H])C34[H])c([H])c([H])c2C1([H])[H]

>  <smiles>  (31) 
[H]c1c([H])c([H])c2c(c1[H])C([H])([H])C([H])([H])C([H])([H])C2([H])N([H])C(=O)C1([H])N(C(=O)C([H])(N([H])C(=O)C([H])(N([H])C([H])([H])[H])C([H])([H])[H])C(C([H])([H])[H])(C([H])([H])[H])C([H])([H])[H])C([H])([H])c2c([H])c(OC([H])([H])C(=O)N3C([H])([H])C([H])([H])C3([H])C(=O)N([H])C3([H])C([H])([H])C4([H])C([H])(C([H])([H])N([H])C(=O)N5C([H])([H])C([H])([H])C([H])([H])C([H])(n6nc(-c7c([H])c([H])c(Oc8c([H])c([H])c(F)c([H])c8F)c([H])c7[H])c(C(=O)N([H])[H])c6N([H])[H])C5([H])[H])C([H])([H])C34[H])c([H])c([H])c2C1([H])[H]

$$$$
31:0:0
     RDKit          3D

 95103  0  0  1  0  0  0  0  0999 V2000
  -26.6200  -21.6360   19.9270 C   0  0  0  0  0  3  0  0  0  0  0  0
  -27.0160  -22.9820   20.1020 C   0  0  0  0  0  3  0  0  0  0  0  0
  -27.5270  -20.5500   19.9620 C   0  0  0  0  0  3  0  0  0  0  0  0
  -29.2810  -22.1560   20.3720 C   0  0  0  0  0  3  0  0  0  0  0  0
  -28.3520  -23.3420   20.3610 C   0  0  0  0  0  0  0  0  0  0  0  0
  -28.9210  -20.7100   20.1400 C   0  0  0  0  0  0  0  0  0  0  0  0
  -29.4400  -18.8020   18.4610 C   0  0  0  0  0  1  0  0  0  0  0  0
  -29.8470  -19.3200   19.8600 C   0  0  1  0  0  0  0  0  0  0  0  0
  -31.3500  -19.7180   19.8250 C   0  0  0  0  0  2  0  0  0  0  0  0
  -31.8360  -20.5680   18.6240 C   0  0  0  0  0  2  0  0  0  0  0  0
  -33.2580  -20.9390   18.7410 N   0  0  0  0  0  4  0  0  0  0  0  0
  -33.4300  -21.4700   19.5750 H   0  0  0  0  0  0  0  0  0  0  0  0
  -33.5310  -21.4990   17.9530 H   0  0  0  0  0  0  0  0  0  0  0  0
  -33.8430  -20.1220   18.7520 H   0  0  0  0  0  0  0  0  0  0  0  0
  -29.8140  -17.8940   20.8000 C   0  0  0  0  0  2  0  0  0  0  0  0
  -30.6550  -15.1990   20.2590 C   0  0  0  0  0  0  0  0  0  0  0  0
  -30.5860  -12.8410   19.2790 C   0  0  0  0  0  2  0  0  0  0  0  0
  -29.6340  -12.7670   18.0610 C   0  0  0  0  0  2  0  0  0  0  0  0
  -28.1770  -12.5360   18.5100 C   0  0  0  0  0  2  0  0  0  0  0  0
  -27.7710  -13.4580   19.6890 C   0  0  0  0  0  3  0  0  0  0  0  0
  -28.8380  -13.4760   20.8010 C   0  0  0  0  0  2  0  0  0  0  0  0
  -30.0880  -13.9250   20.1730 N   0  0  0  0  0  0  0  0  0  0  0  0
  -31.8750  -15.2820   20.0710 O   0  0  0  0  0  0  0  0  0  0  0  0
  -29.8080  -16.3520   20.3450 N   0  0  0  0  0  0  0  0  0  0  0  0
  -28.8550  -16.0360   20.2670 H   0  0  0  0  0  0  0  0  0  0  0  0
  -25.4000  -14.0310   20.4600 C   0  0  0  0  0  0  0  0  0  0  0  0
  -24.3390  -13.2530   20.8340 C   0  0  0  0  0  0  0  0  0  0  0  0
  -24.8050  -11.9020   20.7890 C   0  0  0  0  0  0  0  0  0  0  0  0
  -26.4400  -13.1540   20.2020 N   0  0  0  0  0  0  0  0  0  0  0  0
  -26.0940  -11.8680   20.4690 N   0  0  0  0  0  0  0  0  0  0  0  0
  -24.0800  -10.6390   20.9740 C   0  0  0  0  0  0  0  0  0  0  0  0
  -24.4880   -9.6850   21.9330 C   0  0  0  0  0  3  0  0  0  0  0  0
  -23.7620   -8.4880   22.1050 C   0  0  0  0  0  3  0  0  0  0  0  0
  -22.6140   -8.2340   21.3190 C   0  0  0  0  0  0  0  0  0  0  0  0
  -22.2250   -9.1750   20.3490 C   0  0  0  0  0  3  0  0  0  0  0  0
  -22.9520  -10.3650   20.1750 C   0  0  0  0  0  3  0  0  0  0  0  0
  -21.8610   -7.0870   21.3990 O   0  0  0  0  0  0  0  0  0  0  0  0
  -21.7470   -6.3830   22.5700 C   0  0  0  0  0  0  0  0  0  0  0  0
  -21.1940   -6.9570   23.7350 C   0  0  0  0  0  3  0  0  0  0  0  0
  -21.0320   -6.1760   24.8980 C   0  0  0  0  0  3  0  0  0  0  0  0
  -21.4110   -4.8210   24.8940 C   0  0  0  0  0  0  0  0  0  0  0  0
  -21.9560   -4.2450   23.7330 C   0  0  0  0  0  3  0  0  0  0  0  0
  -22.1210   -5.0230   22.5730 C   0  0  0  0  0  0  0  0  0  0  0  0
  -22.6270   -4.4580   21.4510 F   0  0  0  0  0  0  0  0  0  0  0  0
  -21.2480   -4.0680   26.0070 F   0  0  0  0  0  0  0  0  0  0  0  0
  -22.9440  -13.7270   21.1140 C   0  0  0  0  0  0  0  0  0  0  0  0
  -22.2170  -13.0220   21.9740 N   0  0  0  0  0  0  0  0  0  0  0  0
  -22.5060  -14.7580   20.6060 O   0  0  0  0  0  0  0  0  0  0  0  0
  -22.5860  -12.1880   22.4070 H   0  0  0  0  0  0  0  0  0  0  0  0
  -21.2810  -13.3210   22.2050 H   0  0  0  0  0  0  0  0  0  0  0  0
  -25.5570  -15.4030   20.2880 N   0  0  0  0  0  0  0  0  0  0  0  0
  -24.7800  -16.0440   20.4050 H   0  0  0  0  0  0  0  0  0  0  0  0
  -26.3790  -15.8480   19.9060 H   0  0  0  0  0  0  0  0  0  0  0  0
  -28.5860  -24.9160   20.8730 C   0  0  0  0  0  2  0  0  0  0  0  0
  -28.3890  -26.3050   20.1650 O   0  0  0  0  0  0  0  0  0  0  0  0
  -24.5970  -31.9470   23.2370 C   0  0  0  0  0  0  0  0  0  0  0  0
  -27.2860  -27.2360   20.2660 C   0  0  0  0  0  0  0  0  0  0  0  0
  -23.4430  -30.5340   21.5790 C   0  0  0  0  0  3  0  0  0  0  0  0
  -24.9340  -28.9630   20.1920 C   0  0  0  0  0  0  0  0  0  0  0  0
  -25.9970  -30.8260   21.4560 C   0  0  0  0  0  2  0  0  0  0  0  0
  -26.0990  -29.4260   20.8170 C   0  0  0  0  0  0  0  0  0  0  0  0
  -27.2790  -28.5820   20.8290 C   0  0  0  0  0  3  0  0  0  0  0  0
  -26.0910  -26.8750   19.6140 C   0  0  0  0  0  3  0  0  0  0  0  0
  -24.9430  -27.7000   19.5760 C   0  0  0  0  0  3  0  0  0  0  0  0
  -23.6980  -29.8520   20.2080 C   0  0  0  0  0  2  0  0  0  0  0  0
  -24.6970  -31.1270   22.1460 N   0  0  0  0  0  0  0  0  0  0  0  0
  -23.4980  -32.2160   23.7470 O   0  0  0  0  0  0  0  0  0  0  0  0
  -22.7590  -29.5210   22.5320 C   0  0  0  0  0  0  0  0  0  0  0  0
  -21.4330  -29.3440   22.3920 N   0  0  0  0  0  0  0  0  0  0  0  0
  -23.4270  -28.8960   23.3600 O   0  0  0  0  0  0  0  0  0  0  0  0
  -20.9510  -29.8990   21.7000 H   0  0  0  0  0  0  0  0  0  0  0  0
  -18.0530  -28.1330   22.8770 C   0  0  0  0  0  0  0  0  0  0  0  0
  -20.6110  -28.3960   23.1510 C   0  0  0  0  0  3  0  0  0  0  0  0
  -20.7150  -26.9710   22.5600 C   0  0  0  0  0  2  0  0  0  0  0  0
  -19.6150  -26.6580   21.5400 C   0  0  0  0  0  2  0  0  0  0  0  0
  -18.2330  -26.7930   22.1840 C   0  0  0  0  0  2  0  0  0  0  0  0
  -19.1690  -28.8930   23.3170 C   0  0  0  0  0  0  0  0  0  0  0  0
  -18.9460  -30.1470   23.9270 C   0  0  0  0  0  3  0  0  0  0  0  0
  -17.6390  -30.6400   24.1000 C   0  0  0  0  0  3  0  0  0  0  0  0
  -16.5380  -29.8780   23.6750 C   0  0  0  0  0  3  0  0  0  0  0  0
  -16.7450  -28.6270   23.0690 C   0  0  0  0  0  3  0  0  0  0  0  0
  -25.8540  -32.6000   23.8860 C   0  0  0  0  0  3  0  0  0  0  0  0
  -25.5230  -34.0000   24.1960 N   0  0  0  0  0  0  0  0  0  0  0  0
  -25.8700  -35.0530   23.4430 C   0  0  0  0  0  0  0  0  0  0  0  0
  -26.5670  -34.9480   22.4300 O   0  0  0  0  0  0  0  0  0  0  0  0
  -24.9060  -34.1550   24.9790 H   0  0  0  0  0  0  0  0  0  0  0  0
  -24.1570  -36.8490   23.0220 C   0  0  0  0  0  1  0  0  0  0  0  0
  -25.3660  -36.4430   23.8810 C   0  0  0  0  0  3  0  0  0  0  0  0
  -27.4590  -37.3390   24.8020 C   0  0  0  0  0  1  0  0  0  0  0  0
  -26.4010  -37.4960   23.8070 N   0  0  0  0  0  0  0  0  0  0  0  0
  -25.9890  -38.4180   23.9270 H   0  0  0  0  0  0  0  0  0  0  0  0
  -26.3380  -31.8510   25.1890 C   0  0  1  0  0  0  0  0  0  0  0  0
  -25.2170  -31.6170   26.2270 C   0  0  0  0  0  1  0  0  0  0  0  0
  -26.9490  -30.4740   24.8380 C   0  0  0  0  0  1  0  0  0  0  0  0
  -27.4600  -32.6670   25.8740 C   0  0  0  0  0  1  0  0  0  0  0  0
  1  3  2  0
  1  2  1  0
  2  5  2  0
  3  6  1  0
  5  4  1  0
  5 54  1  0
  6  4  2  0
  8  7  1  6
  8  6  1  0
  8 15  1  0
  9  8  1  0
 10 11  1  0
 10  9  1  0
 11 14  1  0
 11 12  1  0
 13 11  1  0
 16 24  1  0
 17 22  1  0
 18 19  1  0
 18 17  1  0
 20 19  1  0
 20 29  1  0
 20 21  1  0
 22 16  1  0
 22 21  1  0
 23 16  2  0
 24 15  1  0
 25 24  1  0
 26 27  2  0
 27 46  1  0
 28 27  1  0
 28 31  1  0
 29 26  1  0
 29 30  1  0
 30 28  2  0
 31 32  1  0
 32 33  2  0
 34 37  1  0
 34 33  1  0
 35 34  2  0
 36 35  1  0
 36 31  2  0
 37 38  1  0
 38 43  2  0
 38 39  1  0
 39 40  2  0
 41 40  1  0
 41 45  1  0
 42 41  2  0
 43 42  1  0
 44 43  1  0
 46 47  1  0
 47 50  1  0
 47 49  1  0
 48 46  2  0
 51 52  1  0
 51 26  1  0
 53 51  1  0
 55 57  1  0
 55 54  1  0
 56 67  2  0
 57 62  1  0
 58 66  1  0
 58 68  1  0
 59 65  1  0
 59 61  1  0
 60 66  1  0
 61 62  2  0
 61 60  1  0
 63 57  2  0
 64 63  1  0
 64 59  2  0
 65 58  1  0
 66 56  1  0
 68 70  2  0
 69 68  1  0
 71 69  1  0
 72 81  2  0
 72 77  1  0
 73 69  1  0
 73 77  1  0
 74 73  1  0
 75 76  1  0
 75 74  1  0
 76 72  1  0
 77 78  2  0
 78 79  1  0
 80 79  2  0
 81 80  1  0
 82 56  1  0
 82 83  1  0
 82 92  1  0
 83 86  1  0
 84 88  1  0
 84 83  1  0
 85 84  2  0
 88 87  1  0
 90 88  1  0
 90 91  1  0
 90 89  1  0
 92 95  1  1
 92 93  1  0
 94 92  1  0
M  ISO  4  16 100  24 100  54 101  55 101
M  END
>  <TORSDO>  (32) 
F 22

>  <SCORE>  (32) 
-13.298

>  <name>  (32) 
31

>  <ligand_id>  (32) 
31

>  <original_smiles>  (32) 
[H]c1c([H])c([H])c2c(c1[H])C([H])([H])C([H])([H])C([H])([H])C2([H])N([H])C(=O)C1([H])N(C(=O)C([H])(N([H])C(=O)C([H])(N([H])C([H])([H])[H])C([H])([H])[H])C(C([H])([H])[H])(C([H])([H])[H])C([H])([H])[H])C([H])([H])c2c([H])c(OC([H])([H])c3c([H])c([H])c([H])c(C(C([H])([H])[H])(C([H])([H])N([H])C(=O)N4C([H])([H])C([H])([H])C([H])([H])C([H])(n5nc(-c6c([H])c([H])c(Oc7c([H])c([H])c(F)c([H])c7F)c([H])c6[H])c(C(=O)N([H])[H])c5N([H])[H])C4([H])[H])C([H])([H])C([H])([H])[N+]([H])([H])[H])c3[H])c([H])c([H])c2C1([H])[H]

>  <smiles>  (32) 
[H]c1c([H])c([H])c2c(c1[H])C([H])([H])C([H])([H])C([H])([H])C2([H])N([H])C(=O)C1([H])N(C(=O)C([H])(N([H])C(=O)C([H])(N([H])C([H])([H])[H])C([H])([H])[H])C(C([H])([H])[H])(C([H])([H])[H])C([H])([H])[H])C([H])([H])c2c([H])c(OC([H])([H])c3c([H])c([H])c([H])c(C(C([H])([H])[H])(C([H])([H])N([H])C(=O)N4C([H])([H])C([H])([H])C([H])([H])C([H])(n5nc(-c6c([H])c([H])c(Oc7c([H])c([H])c(F)c([H])c7F)c([H])c6[H])c(C(=O)N([H])[H])c5N([H])[H])C4([H])[H])C([H])([H])C([H])([H])[N+]([H])([H])[H])c3[H])c([H])c([H])c2C1([H])[H]

$$$$
32:0:0
     RDKit          3D

 97105  0  0  1  0  0  0  0  0999 V2000
  -25.5500  -22.8480   20.3420 C   0  0  0  0  0  1  0  0  0  0  0  0
  -26.4070  -23.0170   18.0110 C   0  0  0  0  0  1  0  0  0  0  0  0
  -26.8380  -22.8900   19.4960 C   0  0  2  0  0  0  0  0  0  0  0  0
  -27.2940  -20.3740   19.1270 C   0  0  0  0  0  3  0  0  0  0  0  0
  -28.6660  -21.5570   20.7390 C   0  0  0  0  0  3  0  0  0  0  0  0
  -27.9410  -19.1670   19.4640 C   0  0  0  0  0  3  0  0  0  0  0  0
  -29.3160  -20.3510   21.0740 C   0  0  0  0  0  3  0  0  0  0  0  0
  -27.6330  -21.5900   19.7670 C   0  0  0  0  0  0  0  0  0  0  0  0
  -28.9420  -19.1370   20.4570 C   0  0  0  0  0  0  0  0  0  0  0  0
  -29.4800  -17.7900   20.9520 C   0  0  2  0  0  0  0  0  0  0  0  0
  -28.4080  -17.0620   21.2710 F   0  0  0  0  0  0  0  0  0  0  0  0
  -30.1940  -17.9520   22.0670 F   0  0  0  0  0  0  0  0  0  0  0  0
  -30.3350  -16.9810   19.9460 C   0  0  0  0  0  2  0  0  0  0  0  0
  -30.9750  -14.5690   19.7240 C   0  0  0  0  0  0  0  0  0  0  0  0
  -30.6330  -12.3350   18.7340 C   0  0  0  0  0  2  0  0  0  0  0  0
  -29.5940  -12.4590   17.5980 C   0  0  0  0  0  2  0  0  0  0  0  0
  -28.1610  -12.3250   18.1520 C   0  0  0  0  0  2  0  0  0  0  0  0
  -27.9110  -13.2480   19.3730 C   0  0  0  0  0  3  0  0  0  0  0  0
  -29.0490  -13.0950   20.4110 C   0  0  0  0  0  2  0  0  0  0  0  0
  -30.3310  -13.3700   19.7360 N   0  0  0  0  0  0  0  0  0  0  0  0
  -32.0140  -14.7770   19.0930 O   0  0  0  0  0  0  0  0  0  0  0  0
  -30.3030  -15.5630   20.3160 N   0  0  0  0  0  0  0  0  0  0  0  0
  -29.5070  -15.2940   20.8700 H   0  0  0  0  0  0  0  0  0  0  0  0
  -25.6130  -13.9050   20.3350 C   0  0  0  0  0  0  0  0  0  0  0  0
  -24.5580  -13.1540   20.7810 C   0  0  0  0  0  0  0  0  0  0  0  0
  -24.9650  -11.7910   20.6510 C   0  0  0  0  0  0  0  0  0  0  0  0
  -26.5980  -13.0010   19.9690 N   0  0  0  0  0  0  0  0  0  0  0  0
  -26.2160  -11.7230   20.2150 N   0  0  0  0  0  0  0  0  0  0  0  0
  -24.2160  -10.5450   20.8600 C   0  0  0  0  0  0  0  0  0  0  0  0
  -24.6340   -9.5810   21.8030 C   0  0  0  0  0  3  0  0  0  0  0  0
  -23.8860   -8.4000   21.9970 C   0  0  0  0  0  3  0  0  0  0  0  0
  -22.7070   -8.1750   21.2480 C   0  0  0  0  0  0  0  0  0  0  0  0
  -22.3070   -9.1270   20.2940 C   0  0  0  0  0  3  0  0  0  0  0  0
  -23.0550  -10.3000   20.0980 C   0  0  0  0  0  3  0  0  0  0  0  0
  -21.9290   -7.0480   21.3540 O   0  0  0  0  0  0  0  0  0  0  0  0
  -21.7890   -6.3790   22.5430 C   0  0  0  0  0  0  0  0  0  0  0  0
  -21.2890   -7.0160   23.7010 C   0  0  0  0  0  3  0  0  0  0  0  0
  -21.0960   -6.2740   24.8840 C   0  0  0  0  0  3  0  0  0  0  0  0
  -21.3910   -4.8970   24.9090 C   0  0  0  0  0  0  0  0  0  0  0  0
  -21.8800   -4.2610   23.7550 C   0  0  0  0  0  3  0  0  0  0  0  0
  -22.0760   -4.9990   22.5740 C   0  0  0  0  0  0  0  0  0  0  0  0
  -22.5290   -4.3780   21.4590 F   0  0  0  0  0  0  0  0  0  0  0  0
  -21.1970   -4.1830   26.0420 F   0  0  0  0  0  0  0  0  0  0  0  0
  -23.2130  -13.6640   21.2110 C   0  0  0  0  0  0  0  0  0  0  0  0
  -22.5610  -12.9660   22.1350 N   0  0  0  0  0  0  0  0  0  0  0  0
  -22.7510  -14.7130   20.7640 O   0  0  0  0  0  0  0  0  0  0  0  0
  -22.9520  -12.1180   22.5180 H   0  0  0  0  0  0  0  0  0  0  0  0
  -21.6620  -13.2840   22.4680 H   0  0  0  0  0  0  0  0  0  0  0  0
  -25.8080  -15.2730   20.1950 N   0  0  0  0  0  0  0  0  0  0  0  0
  -25.0960  -15.9510   20.4380 H   0  0  0  0  0  0  0  0  0  0  0  0
  -26.6680  -15.6980   19.8700 H   0  0  0  0  0  0  0  0  0  0  0  0
  -27.6130  -24.0880   19.9250 N   0  0  0  0  0  4  0  0  0  0  0  0
  -27.0010  -24.8810   20.0310 H   0  0  0  0  0  0  0  0  0  0  0  0
  -27.9590  -23.8730   20.8470 H   0  0  0  0  0  0  0  0  0  0  0  0
  -28.7780  -24.5090   19.1120 C   0  0  0  0  0  2  0  0  0  0  0  0
  -28.5640  -25.8810   18.4450 C   0  0  0  0  0  2  0  0  0  0  0  0
  -28.3670  -26.8970   19.4340 O   0  0  0  0  0  0  0  0  0  0  0  0
  -24.6220  -31.6960   23.0940 C   0  0  0  0  0  0  0  0  0  0  0  0
  -27.1540  -27.5480   19.5390 C   0  0  0  0  0  0  0  0  0  0  0  0
  -23.3450  -30.4030   21.4170 C   0  0  0  0  0  3  0  0  0  0  0  0
  -24.7360  -28.9920   19.8140 C   0  0  0  0  0  0  0  0  0  0  0  0
  -25.8540  -30.8070   21.1190 C   0  0  0  0  0  2  0  0  0  0  0  0
  -25.9150  -29.4890   20.3790 C   0  0  0  0  0  0  0  0  0  0  0  0
  -27.1210  -28.7690   20.2500 C   0  0  0  0  0  3  0  0  0  0  0  0
  -25.9490  -27.0570   18.9830 C   0  0  0  0  0  3  0  0  0  0  0  0
  -24.7440  -27.7700   19.1210 C   0  0  0  0  0  3  0  0  0  0  0  0
  -23.4870  -29.8250   19.9840 C   0  0  0  0  0  2  0  0  0  0  0  0
  -24.6280  -30.9800   21.9330 N   0  0  0  0  0  0  0  0  0  0  0  0
  -23.5680  -31.9110   23.7080 O   0  0  0  0  0  0  0  0  0  0  0  0
  -22.7570  -29.3050   22.3310 C   0  0  0  0  0  0  0  0  0  0  0  0
  -21.4370  -29.0820   22.2220 N   0  0  0  0  0  0  0  0  0  0  0  0
  -23.4810  -28.6580   23.0930 O   0  0  0  0  0  0  0  0  0  0  0  0
  -20.9120  -29.6550   21.5750 H   0  0  0  0  0  0  0  0  0  0  0  0
  -18.1370  -27.6910   22.6630 C   0  0  0  0  0  0  0  0  0  0  0  0
  -20.6740  -28.0690   22.9510 C   0  0  0  0  0  3  0  0  0  0  0  0
  -20.8510  -26.6700   22.3180 C   0  0  0  0  0  2  0  0  0  0  0  0
  -19.7690  -26.3350   21.2880 C   0  0  0  0  0  2  0  0  0  0  0  0
  -18.3810  -26.3790   21.9370 C   0  0  0  0  0  2  0  0  0  0  0  0
  -19.2140  -28.4920   23.1240 C   0  0  0  0  0  0  0  0  0  0  0  0
  -18.9300  -29.7180   23.7620 C   0  0  0  0  0  3  0  0  0  0  0  0
  -17.6030  -30.1450   23.9430 C   0  0  0  0  0  3  0  0  0  0  0  0
  -16.5370  -29.3410   23.5000 C   0  0  0  0  0  3  0  0  0  0  0  0
  -16.8060  -28.1150   22.8660 C   0  0  0  0  0  3  0  0  0  0  0  0
  -25.9340  -32.2960   23.6910 C   0  0  0  0  0  3  0  0  0  0  0  0
  -25.6370  -33.6730   24.1080 N   0  0  0  0  0  0  0  0  0  0  0  0
  -25.9480  -34.7660   23.4000 C   0  0  0  0  0  0  0  0  0  0  0  0
  -26.5870  -34.7220   22.3440 O   0  0  0  0  0  0  0  0  0  0  0  0
  -25.0650  -33.7790   24.9340 H   0  0  0  0  0  0  0  0  0  0  0  0
  -24.2150  -36.5760   23.1950 C   0  0  0  0  0  1  0  0  0  0  0  0
  -25.4780  -36.1280   23.9480 C   0  0  0  0  0  3  0  0  0  0  0  0
  -27.6370  -36.9630   24.7650 C   0  0  0  0  0  1  0  0  0  0  0  0
  -26.5100  -37.1850   23.8630 N   0  0  0  0  0  0  0  0  0  0  0  0
  -26.1120  -38.0970   24.0710 H   0  0  0  0  0  0  0  0  0  0  0  0
  -26.5070  -31.4580   24.8990 C   0  0  1  0  0  0  0  0  0  0  0  0
  -25.4670  -31.1600   26.0030 C   0  0  0  0  0  1  0  0  0  0  0  0
  -27.0690  -30.1070   24.4040 C   0  0  0  0  0  1  0  0  0  0  0  0
  -27.6900  -32.2160   25.5480 C   0  0  0  0  0  1  0  0  0  0  0  0
  3  2  1  6
  3  8  1  0
  3 52  1  0
  3  1  1  0
  4  6  2  0
  4  8  1  0
  5  7  1  0
  6  9  1  0
  8  5  2  0
  9 10  1  0
  9  7  2  0
 10 11  1  1
 10 12  1  0
 13 22  1  0
 13 10  1  0
 14 20  1  0
 14 22  1  0
 15 20  1  0
 16 17  1  0
 16 15  1  0
 18 17  1  0
 18 27  1  0
 18 19  1  0
 20 19  1  0
 21 14  2  0
 22 23  1  0
 24 25  2  0
 25 44  1  0
 26 25  1  0
 26 29  1  0
 27 28  1  0
 27 24  1  0
 28 26  2  0
 29 30  1  0
 30 31  2  0
 32 35  1  0
 32 31  1  0
 33 32  2  0
 34 33  1  0
 34 29  2  0
 35 36  1  0
 36 41  2  0
 36 37  1  0
 37 38  2  0
 38 39  1  0
 39 43  1  0
 40 39  2  0
 41 40  1  0
 42 41  1  0
 44 45  1  0
 45 48  1  0
 45 47  1  0
 46 44  2  0
 49 24  1  0
 49 50  1  0
 51 49  1  0
 52 53  1  0
 52 54  1  0
 55 52  1  0
 56 55  1  0
 56 57  1  0
 57 59  1  0
 58 69  2  0
 59 64  1  0
 60 68  1  0
 60 70  1  0
 61 67  1  0
 61 63  1  0
 62 68  1  0
 63 62  1  0
 64 63  2  0
 65 66  1  0
 65 59  2  0
 66 61  2  0
 67 60  1  0
 68 58  1  0
 70 72  2  0
 71 70  1  0
 73 71  1  0
 74 83  2  0
 74 79  1  0
 75 71  1  0
 75 79  1  0
 76 75  1  0
 77 78  1  0
 77 76  1  0
 78 74  1  0
 79 80  2  0
 80 81  1  0
 82 81  2  0
 83 82  1  0
 84 58  1  0
 84 85  1  0
 84 94  1  0
 85 88  1  0
 86 90  1  0
 86 85  1  0
 87 86  2  0
 90 89  1  0
 92 90  1  0
 92 93  1  0
 92 91  1  0
 94 97  1  1
 94 95  1  0
 96 94  1  0
M  ISO  4  14 100  22 100  56 101  57 101
M  END
>  <TORSDO>  (33) 
F 22

>  <SCORE>  (33) 
-12.207

>  <name>  (33) 
32

>  <ligand_id>  (33) 
32

>  <original_smiles>  (33) 
[H]c1c([H])c([H])c2c(c1[H])C([H])([H])C([H])([H])C([H])([H])C2([H])N([H])C(=O)C1([H])N(C(=O)C([H])(N([H])C(=O)C([H])(N([H])C([H])([H])[H])C([H])([H])[H])C(C([H])([H])[H])(C([H])([H])[H])C([H])([H])[H])C([H])([H])c2c([H])c(OC([H])([H])C([H])([H])[N+]([H])([H])C(c3c([H])c([H])c(C(F)(F)C([H])([H])N([H])C(=O)N4C([H])([H])C([H])([H])C([H])([H])C([H])(n5nc(-c6c([H])c([H])c(Oc7c([H])c([H])c(F)c([H])c7F)c([H])c6[H])c(C(=O)N([H])[H])c5N([H])[H])C4([H])[H])c([H])c3[H])(C([H])([H])[H])C([H])([H])[H])c([H])c([H])c2C1([H])[H]

>  <smiles>  (33) 
[H]c1c([H])c([H])c2c(c1[H])C([H])([H])C([H])([H])C([H])([H])C2([H])N([H])C(=O)C1([H])N(C(=O)C([H])(N([H])C(=O)C([H])(N([H])C([H])([H])[H])C([H])([H])[H])C(C([H])([H])[H])(C([H])([H])[H])C([H])([H])[H])C([H])([H])c2c([H])c(OC([H])([H])C([H])([H])[N+]([H])([H])C(c3c([H])c([H])c(C(F)(F)C([H])([H])N([H])C(=O)N4C([H])([H])C([H])([H])C([H])([H])C([H])(n5nc(-c6c([H])c([H])c(Oc7c([H])c([H])c(F)c([H])c7F)c([H])c6[H])c(C(=O)N([H])[H])c5N([H])[H])C4([H])[H])c([H])c3[H])(C([H])([H])[H])C([H])([H])[H])c([H])c([H])c2C1([H])[H]

$$$$
33:0:0
     RDKit          3D

 97 96  0  0  1  0  0  0  0  0999 V2000
  -26.4430  -11.5710   22.6370 C   0  0  0  0  0  3  0  0  0  0  0  0
  -25.8890  -13.1600   22.3600 C   0  0  0  0  0  3  0  0  0  0  0  0
  -23.9400  -12.2430   20.2560 C   0  0  0  0  0 15  0  0  0  0  0  0
  -26.0110  -10.1340   21.7340 C   0  0  0  0  0  3  0  0  0  0  0  0
  -24.9910  -13.8000   21.0770 C   0  0  0  0  0  1  0  0  0  0  0  0
  -24.6100  -10.3410   20.4070 C   0  0  0  0  0  3  0  0  0  0  0  0
  -24.2760   -9.2430   19.4180 C   0  0  0  0  0  1  0  0  0  0  0  0
  -28.4800   -9.4160   22.9750 C   0  0  0  0  0  2  0  0  0  0  0  0
  -27.4810   -9.3350   21.7580 C   0  0  0  0  0  3  0  0  0  0  0  0
  -29.1740   -9.6460   21.6330 C   0  0  0  0  0  2  0  0  0  0  0  0
  -31.1410  -11.0610   20.3230 C   0  0  0  0  0  1  0  0  0  0  0  0
  -31.8180  -12.1250   22.0940 C   0  0  0  0  0  0  0  0  0  0  0  0
  -31.5220   -9.5890   22.1000 C   0  0  0  0  0  1  0  0  0  0  0  0
  -30.9810   -8.7550   20.3370 C   0  0  0  0  0 15  0  0  0  0  0  0
  -29.5140   -9.6530   19.3580 C   0  0  0  0  0 15  0  0  0  0  0  0
  -28.8960  -11.4020   20.1070 C   0  0  0  0  0  3  0  0  0  0  0  0
  -29.4340  -11.9830   21.8210 C   0  0  0  0  0  3  0  0  0  0  0  0
  -30.8660  -11.2290   22.5100 N   0  0  0  0  0  0  0  0  0  0  0  0
  -32.9800  -12.2830   22.4260 O   0  0  0  0  0  0  0  0  0  0  0  0
  -31.6540  -12.3170   20.8190 N   0  0  0  0  0  0  0  0  0  0  0  0
  -32.3750  -12.8090   20.3150 H   0  0  0  0  0  0  0  0  0  0  0  0
  -27.2410  -12.8140   19.0360 C   0  0  0  0  0  3  0  0  0  0  0  0
  -26.0560  -12.4000   18.6840 C   0  0  0  0  0  3  0  0  0  0  0  0
  -26.1170  -11.4900   19.8990 C   0  0  0  0  0  3  0  0  0  0  0  0
  -27.7280  -11.7740   19.7380 N   0  0  2  0  0  4  0  0  0  0  0  0
  -27.1050  -10.8150   19.3760 N   0  0  0  0  0  2  0  0  0  0  0  0
  -23.9290  -10.5220   21.5340 C   0  0  0  0  0  3  0  0  0  0  0  0
  -23.9100   -9.4540   22.5850 C   0  0  0  0  0  2  0  0  0  0  0  0
  -23.2570   -8.1540   22.5980 C   0  0  0  0  0  3  0  0  0  0  0  0
  -22.4660   -7.6800   21.5190 C   0  0  0  0  0  0  0  0  0  0  0  0
  -22.3460   -8.5630   20.4850 C   0  0  0  0  0  2  0  0  0  0  0  0
  -22.6520   -9.9000   20.8890 C   0  0  0  0  0  2  0  0  0  0  0  0
  -21.6380   -6.5770   21.5260 O   0  0  0  0  0  0  0  0  0  0  0  0
  -20.9810   -6.2710   22.6970 C   0  0  0  0  0  0  0  0  0  0  0  0
  -20.4230   -7.2600   23.5420 C   0  0  0  0  0  3  0  0  0  0  0  0
  -19.8470   -6.8940   24.7740 C   0  0  0  0  0  3  0  0  0  0  0  0
  -19.7950   -5.5400   25.1560 C   0  0  0  0  0  0  0  0  0  0  0  0
  -20.3000   -4.5520   24.2960 C   0  0  0  0  0  3  0  0  0  0  0  0
  -20.8860   -4.9160   23.0690 C   0  0  0  0  0  0  0  0  0  0  0  0
  -21.3680   -3.9570   22.2430 F   0  0  0  0  0  0  0  0  0  0  0  0
  -19.2660   -5.1870   26.3500 F   0  0  0  0  0  0  0  0  0  0  0  0
  -24.8750  -13.2030   17.8800 C   0  0  0  0  0  0  0  0  0  0  0  0
  -23.6330  -13.6380   18.3130 N   0  0  0  0  0  0  0  0  0  0  0  0
  -24.9410  -13.3330   16.7190 O   0  0  0  0  0  0  0  0  0  0  0  0
  -23.3540  -13.4300   19.2630 H   0  0  0  0  0  0  0  0  0  0  0  0
  -22.9590  -14.0020   17.6570 H   0  0  0  0  0  0  0  0  0  0  0  0
  -27.9610  -13.9200   18.7850 N   0  0  0  0  0  0  0  0  0  0  0  0
  -27.9680  -14.1760   17.8060 H   0  0  0  0  0  0  0  0  0  0  0  0
  -28.9160  -13.8010   19.1070 H   0  0  0  0  0  0  0  0  0  0  0  0
  -26.5420  -16.4500   21.4150 C   0  0  0  0  0  1  0  0  0  0  0  0
  -26.1520  -15.6180   20.1840 C   0  0  0  0  0  1  0  0  0  0  0  0
  -27.5330  -16.5700   18.8790 N   0  0  0  0  0  2  0  0  0  0  0  0
  -27.0410  -16.5420   18.0010 H   0  0  0  0  0  0  0  0  0  0  0  0
  -28.1230  -15.7360   18.8300 H   0  0  0  0  0  0  0  0  0  0  0  0
  -28.9500  -18.0840   18.4140 C   0  0  0  0  0 15  0  0  0  0  0  0
  -30.4200  -19.2730   16.8900 C   0  0  0  0  0 15  0  0  0  0  0  0
  -31.9580  -20.6730   16.2690 O   0  0  0  0  0  1  0  0  0  0  0  0
  -32.7320  -27.3020   11.5980 C   0  0  0  0  0  0  0  0  0  0  0  0
  -32.6910  -21.5740   14.9710 C   0  0  0  0  0  0  0  0  0  0  0  0
  -32.1520  -25.0560   10.8230 C   0  0  0  0  0  3  0  0  0  0  0  0
  -33.0530  -22.9750   12.1470 C   0  0  0  0  0  0  0  0  0  0  0  0
  -33.8720  -25.2160   12.7370 C   0  0  0  0  0  2  0  0  0  0  0  0
  -33.4590  -23.7250   13.2450 C   0  0  0  0  0  0  0  0  0  0  0  0
  -33.3190  -23.0130   14.6180 C   0  0  0  0  0  3  0  0  0  0  0  0
  -32.8010  -20.9760   13.6740 C   0  0  0  0  0  3  0  0  0  0  0  0
  -32.8680  -21.6070   12.3840 C   0  0  0  0  0  3  0  0  0  0  0  0
  -32.7810  -23.6270   10.7750 C   0  0  0  0  0  2  0  0  0  0  0  0
  -32.9550  -25.9370   11.7270 N   0  0  0  0  0  0  0  0  0  0  0  0
  -31.8520  -27.7570   10.8370 O   0  0  0  0  0  0  0  0  0  0  0  0
  -30.6640  -24.9980   11.2690 C   0  0  0  0  0  0  0  0  0  0  0  0
  -29.7320  -24.6590   10.3580 N   0  0  0  0  0  0  0  0  0  0  0  0
  -30.3670  -25.2590   12.4380 O   0  0  0  0  0  0  0  0  0  0  0  0
  -30.0350  -24.4730    9.4130 H   0  0  0  0  0  0  0  0  0  0  0  0
  -26.5230  -23.7520    8.9070 C   0  0  0  0  0  0  0  0  0  0  0  0
  -28.3000  -24.4850   10.6400 C   0  0  0  0  0  3  0  0  0  0  0  0
  -28.0370  -23.1240   11.3260 C   0  0  0  0  0  2  0  0  0  0  0  0
  -27.6800  -22.0110   10.3350 C   0  0  0  0  0  2  0  0  0  0  0  0
  -26.4200  -22.3770    9.5480 C   0  0  0  0  0  2  0  0  0  0  0  0
  -27.4170  -24.7360    9.4090 C   0  0  0  0  0  0  0  0  0  0  0  0
  -27.4880  -25.9890    8.7600 C   0  0  0  0  0  3  0  0  0  0  0  0
  -26.6900  -26.2640    7.6330 C   0  0  0  0  0  3  0  0  0  0  0  0
  -25.7990  -25.2910    7.1500 C   0  0  0  0  0  3  0  0  0  0  0  0
  -25.7140  -24.0400    7.7880 C   0  0  0  0  0  3  0  0  0  0  0  0
  -33.5590  -28.3710   12.3760 C   0  0  0  0  0  3  0  0  0  0  0  0
  -33.8410  -29.5040   11.4610 N   0  0  0  0  0  0  0  0  0  0  0  0
  -34.9760  -29.7080   10.7770 C   0  0  0  0  0  0  0  0  0  0  0  0
  -35.9440  -28.9530   10.8720 O   0  0  0  0  0  0  0  0  0  0  0  0
  -33.0660  -30.1250   11.2790 H   0  0  0  0  0  0  0  0  0  0  0  0
  -34.7420  -30.5280    8.3980 C   0  0  0  0  0  1  0  0  0  0  0  0
  -35.0560  -30.9400    9.8470 C   0  0  0  0  0  3  0  0  0  0  0  0
  -36.6610  -32.2600   11.1630 C   0  0  0  0  0  1  0  0  0  0  0  0
  -36.3650  -31.6300    9.8780 N   0  0  0  0  0  0  0  0  0  0  0  0
  -36.4140  -32.3450    9.1570 H   0  0  0  0  0  0  0  0  0  0  0  0
  -32.8160  -28.9240   13.6570 C   0  0  1  0  0  0  0  0  0  0  0  0
  -31.3870  -29.4450   13.3700 C   0  0  0  0  0  1  0  0  0  0  0  0
  -32.6970  -27.8520   14.7560 C   0  0  0  0  0  1  0  0  0  0  0  0
  -33.6400  -30.0800   14.2770 C   0  0  0  0  0  1  0  0  0  0  0  0
  2  1  2  0
  4  9  1  0
  4  1  1  0
  5  2  1  0
  6  7  1  0
  6  4  1  0
  9  8  1  0
 10  9  1  0
 10  8  1  0
 11 20  1  0
 12 19  2  0
 12 18  1  0
 13 18  1  0
 16 17  2  0
 17 18  1  0
 20 12  1  0
 21 20  1  0
 22 47  1  0
 22 25  1  0
 23 42  1  0
 23 22  1  0
 23 24  1  0
 24 26  1  0
 25 24  1  0
 25 16  1  1
 26 25  1  0
 27  6  1  0
 27 28  1  0
 28 29  1  0
 30 33  1  0
 30 29  2  0
 31 32  1  0
 31 30  1  0
 32 27  1  0
 33 34  1  0
 34 39  2  0
 34 35  1  0
 35 36  2  0
 36 37  1  0
 37 41  1  0
 38 37  2  0
 39 38  1  0
 40 39  1  0
 42 43  1  0
 43 45  1  0
 44 42  2  0
 46 43  1  0
 47 49  1  0
 48 47  1  0
 51 50  1  0
 53 52  1  0
 54 52  1  0
 58 68  1  0
 59 57  1  0
 60 70  1  0
 60 68  1  0
 61 66  2  0
 61 63  1  0
 62 63  1  0
 63 64  2  0
 64 59  1  0
 65 59  2  0
 66 65  1  0
 67 60  1  0
 67 61  1  0
 68 62  1  0
 69 58  2  0
 70 72  2  0
 71 70  1  0
 73 71  1  0
 74 79  1  0
 74 78  1  0
 75 71  1  0
 75 76  1  0
 77 76  1  0
 78 77  1  0
 79 75  1  0
 80 79  2  0
 81 80  1  0
 82 81  2  0
 82 83  1  0
 83 74  2  0
 84 58  1  0
 84 94  1  0
 85 84  1  0
 86 87  2  0
 86 85  1  0
 88 85  1  0
 90 89  1  0
 90 92  1  0
 90 86  1  0
 92 91  1  0
 93 92  1  0
 94 97  1  1
 94 96  1  0
 95 94  1  0
M  ISO  4  12 100  20 100  56 101  57 101
M  END
>  <TORSDO>  (34) 
F 22

>  <SCORE>  (34) 
10.498

>  <name>  (34) 
33

>  <ligand_id>  (34) 
33

>  <original_smiles>  (34) 
[H]c1c([H])c([H])c2c(c1[H])C([H])([H])C([H])([H])C([H])([H])C2([H])N([H])C(=O)C1([H])N(C(=O)C([H])(N([H])C(=O)C([H])(N([H])C([H])([H])[H])C([H])([H])[H])C(C([H])([H])[H])(C([H])([H])[H])C([H])([H])[H])C([H])([H])c2c([H])c(OC([H])([H])C([H])([H])[N+]([H])([H])C([H])(c3c([H])c([H])c(C4([H])C([H])([H])C4([H])C([H])([H])N([H])C(=O)N4C([H])([H])C([H])([H])C([H])([H])C([H])(n5nc(-c6c([H])c([H])c(Oc7c([H])c([H])c(F)c([H])c7F)c([H])c6[H])c(C(=O)N([H])[H])c5N([H])[H])C4([H])[H])c(C([H])([H])[H])c3[H])C([H])([H])[H])c([H])c([H])c2C1([H])[H]

>  <smiles>  (34) 
[H]c1c([H])c([H])c2c(c1[H])C([H])([H])C([H])([H])C([H])([H])C2([H])N([H])C(=O)C1([H])N(C(=O)C([H])(N([H])C(=O)C([H])(N([H])C([H])([H])[H])C([H])([H])[H])C(C([H])([H])[H])(C([H])([H])[H])C([H])([H])[H])C([H])([H])c2c([H])c(OC([H])([H])C([H])([H])[N+]([H])([H])C([H])(c3c([H])c([H])c(C4([H])C([H])([H])C4([H])C([H])([H])N([H])C(=O)N4C([H])([H])C([H])([H])C([H])([H])C([H])(n5nc(-c6c([H])c([H])c(Oc7c([H])c([H])c(F)c([H])c7F)c([H])c6[H])c(C(=O)N([H])[H])c5N([H])[H])C4([H])[H])c(C([H])([H])[H])c3[H])C([H])([H])[H])c([H])c([H])c2C1([H])[H]

$$$$
34:0:0
     RDKit          3D

 90 98  0  0  1  0  0  0  0  0999 V2000
  -29.4200  -23.0630   21.2310 C   0  0  0  0  0  0  0  0  0  0  0  0
  -29.1990  -20.7860   18.7720 C   0  0  0  0  0  2  0  0  0  0  0  0
  -28.8840  -22.2670   18.9360 C   0  0  0  0  0  2  0  0  0  0  0  0
  -29.7680  -20.7920   20.1990 C   0  0  0  0  0  3  0  0  0  0  0  0
  -28.9880  -22.0330   20.3730 N   0  0  0  0  0  0  0  0  0  0  0  0
  -29.8150  -22.7780   22.3630 O   0  0  0  0  0  0  0  0  0  0  0  0
  -29.5170  -24.5330   20.7330 C   0  0  0  0  0  2  0  0  0  0  0  0
  -28.1790  -25.2370   20.3950 C   0  0  0  0  0  2  0  0  0  0  0  0
  -28.3510  -26.6550   20.1570 O   0  0  0  0  0  0  0  0  0  0  0  0
  -24.6060  -31.8760   23.2180 C   0  0  0  0  0  0  0  0  0  0  0  0
  -27.1920  -27.4100   20.1230 C   0  0  0  0  0  0  0  0  0  0  0  0
  -23.3770  -30.4800   21.5900 C   0  0  0  0  0  3  0  0  0  0  0  0
  -24.8080  -28.9420   20.1440 C   0  0  0  0  0  0  0  0  0  0  0  0
  -25.9020  -30.8320   21.3580 C   0  0  0  0  0  2  0  0  0  0  0  0
  -25.9770  -29.4610   20.7150 C   0  0  0  0  0  0  0  0  0  0  0  0
  -27.1740  -28.7060   20.6930 C   0  0  0  0  0  3  0  0  0  0  0  0
  -26.0050  -26.9140   19.5380 C   0  0  0  0  0  3  0  0  0  0  0  0
  -24.8180  -27.6700   19.5480 C   0  0  0  0  0  3  0  0  0  0  0  0
  -23.5670  -29.8060   20.2060 C   0  0  0  0  0  2  0  0  0  0  0  0
  -24.6480  -31.0770   22.1140 N   0  0  0  0  0  0  0  0  0  0  0  0
  -23.5330  -32.1500   23.7720 O   0  0  0  0  0  0  0  0  0  0  0  0
  -22.7350  -29.4580   22.5570 C   0  0  0  0  0  0  0  0  0  0  0  0
  -21.4100  -29.2770   22.4460 N   0  0  0  0  0  0  0  0  0  0  0  0
  -23.4290  -28.8300   23.3630 O   0  0  0  0  0  0  0  0  0  0  0  0
  -20.9110  -29.8360   21.7670 H   0  0  0  0  0  0  0  0  0  0  0  0
  -18.0420  -28.0750   22.9700 C   0  0  0  0  0  0  0  0  0  0  0  0
  -20.6000  -28.3400   23.2240 C   0  0  0  0  0  3  0  0  0  0  0  0
  -20.7030  -26.9060   22.6530 C   0  0  0  0  0  2  0  0  0  0  0  0
  -19.5950  -26.5780   21.6470 C   0  0  0  0  0  2  0  0  0  0  0  0
  -18.2170  -26.7230   22.2990 C   0  0  0  0  0  2  0  0  0  0  0  0
  -19.1620  -28.8410   23.3910 C   0  0  0  0  0  0  0  0  0  0  0  0
  -18.9430  -30.1070   23.9780 C   0  0  0  0  0  3  0  0  0  0  0  0
  -17.6390  -30.6070   24.1480 C   0  0  0  0  0  3  0  0  0  0  0  0
  -16.5340  -29.8370   23.7430 C   0  0  0  0  0  3  0  0  0  0  0  0
  -16.7360  -28.5740   23.1600 C   0  0  0  0  0  3  0  0  0  0  0  0
  -25.9020  -32.5040   23.8220 C   0  0  0  0  0  3  0  0  0  0  0  0
  -25.5950  -33.8980   24.1710 N   0  0  0  0  0  0  0  0  0  0  0  0
  -25.9130  -34.9590   23.4170 C   0  0  0  0  0  0  0  0  0  0  0  0
  -26.5670  -34.8670   22.3750 O   0  0  0  0  0  0  0  0  0  0  0  0
  -25.0140  -34.0430   24.9840 H   0  0  0  0  0  0  0  0  0  0  0  0
  -24.1760  -36.7510   23.1050 C   0  0  0  0  0  1  0  0  0  0  0  0
  -25.4290  -36.3400   23.8950 C   0  0  0  0  0  3  0  0  0  0  0  0
  -27.5740  -37.2210   24.7030 C   0  0  0  0  0  1  0  0  0  0  0  0
  -26.4570  -37.3970   23.7800 N   0  0  0  0  0  0  0  0  0  0  0  0
  -26.0510  -38.3150   23.9440 H   0  0  0  0  0  0  0  0  0  0  0  0
  -26.4460  -31.7210   25.0790 C   0  0  1  0  0  0  0  0  0  0  0  0
  -25.3760  -31.4690   26.1660 C   0  0  0  0  0  1  0  0  0  0  0  0
  -27.0220  -30.3490   24.6570 C   0  0  0  0  0  1  0  0  0  0  0  0
  -27.6070  -32.5100   25.7270 C   0  0  0  0  0  1  0  0  0  0  0  0
  -29.4870  -19.5720   21.1200 C   0  0  0  0  0  2  0  0  0  0  0  0
  -29.8820  -18.2470   20.4030 C   0  0  0  0  0  3  0  0  0  0  0  0
  -29.7900  -16.8560   21.1350 C   0  0  0  0  0  3  0  0  0  0  0  0
  -30.7490  -14.5680   20.6290 C   0  0  0  0  0  0  0  0  0  0  0  0
  -30.5070  -12.3120   19.6620 C   0  0  0  0  0  2  0  0  0  0  0  0
  -29.6170  -12.3530   18.4000 C   0  0  0  0  0  2  0  0  0  0  0  0
  -28.1200  -12.3130   18.7630 C   0  0  0  0  0  2  0  0  0  0  0  0
  -27.7260  -13.2430   19.9430 C   0  0  0  0  0  3  0  0  0  0  0  0
  -28.7330  -13.1380   21.1100 C   0  0  0  0  0  2  0  0  0  0  0  0
  -30.0710  -13.3880   20.5640 N   0  0  0  0  0  0  0  0  0  0  0  0
  -31.9730  -14.6360   20.4980 O   0  0  0  0  0  0  0  0  0  0  0  0
  -30.0260  -15.9420   18.8120 C   0  0  0  0  0  1  0  0  0  0  0  0
  -30.0110  -15.6570   20.2620 N   0  0  0  0  0  0  0  0  0  0  0  0
  -25.3060  -13.8860   20.5310 C   0  0  0  0  0  0  0  0  0  0  0  0
  -24.2130  -13.1300   20.8620 C   0  0  0  0  0  0  0  0  0  0  0  0
  -24.6650  -11.7750   20.8930 C   0  0  0  0  0  0  0  0  0  0  0  0
  -26.3530  -12.9920   20.3780 N   0  0  0  0  0  0  0  0  0  0  0  0
  -25.9700  -11.7200   20.6620 N   0  0  0  0  0  0  0  0  0  0  0  0
  -23.9200  -10.5230   21.0730 C   0  0  0  0  0  0  0  0  0  0  0  0
  -24.3180   -9.5600   22.0280 C   0  0  0  0  0  3  0  0  0  0  0  0
  -23.5770   -8.3710   22.1970 C   0  0  0  0  0  3  0  0  0  0  0  0
  -22.4230   -8.1360   21.4110 C   0  0  0  0  0  0  0  0  0  0  0  0
  -22.0460   -9.0860   20.4460 C   0  0  0  0  0  3  0  0  0  0  0  0
  -22.7870  -10.2660   20.2750 C   0  0  0  0  0  3  0  0  0  0  0  0
  -21.6550   -7.0000   21.4900 O   0  0  0  0  0  0  0  0  0  0  0  0
  -21.5860   -6.2550   22.6390 C   0  0  0  0  0  0  0  0  0  0  0  0
  -21.1710   -6.8170   23.8660 C   0  0  0  0  0  3  0  0  0  0  0  0
  -21.0510   -6.0010   25.0090 C   0  0  0  0  0  3  0  0  0  0  0  0
  -21.3310   -4.6240   24.9240 C   0  0  0  0  0  0  0  0  0  0  0  0
  -21.7370   -4.0620   23.7000 C   0  0  0  0  0  3  0  0  0  0  0  0
  -21.8620   -4.8770   22.5620 C   0  0  0  0  0  0  0  0  0  0  0  0
  -22.2350   -4.3260   21.3800 F   0  0  0  0  0  0  0  0  0  0  0  0
  -21.2060   -3.8370   26.0180 F   0  0  0  0  0  0  0  0  0  0  0  0
  -22.8070  -13.6230   21.0440 C   0  0  0  0  0  0  0  0  0  0  0  0
  -22.0280  -12.9570   21.8890 N   0  0  0  0  0  0  0  0  0  0  0  0
  -22.4040  -14.6330   20.4710 O   0  0  0  0  0  0  0  0  0  0  0  0
  -22.3620  -12.1400   22.3780 H   0  0  0  0  0  0  0  0  0  0  0  0
  -21.0810  -13.2720   22.0520 H   0  0  0  0  0  0  0  0  0  0  0  0
  -25.4920  -15.2500   20.3250 N   0  0  0  0  0  0  0  0  0  0  0  0
  -24.7330  -15.9180   20.3900 H   0  0  0  0  0  0  0  0  0  0  0  0
  -26.3710  -15.6750   20.0550 H   0  0  0  0  0  0  0  0  0  0  0  0
  1  6  2  0
  2  3  1  0
  2  4  1  0
  3  5  1  0
  4  5  1  0
  4 50  1  0
  5  1  1  0
  7  1  1  0
  8  7  1  0
  9  8  1  0
 10 21  2  0
 11  9  1  0
 11 16  1  0
 12 20  1  0
 12 22  1  0
 13 19  1  0
 13 15  1  0
 14 20  1  0
 15 14  1  0
 16 15  2  0
 17 18  1  0
 17 11  2  0
 18 13  2  0
 19 12  1  0
 20 10  1  0
 22 24  2  0
 23 22  1  0
 25 23  1  0
 26 35  2  0
 26 31  1  0
 27 23  1  0
 27 31  1  0
 28 27  1  0
 29 30  1  0
 29 28  1  0
 30 26  1  0
 31 32  2  0
 32 33  1  0
 34 33  2  0
 35 34  1  0
 36 10  1  0
 36 37  1  0
 36 46  1  0
 37 40  1  0
 38 42  1  0
 38 37  1  0
 39 38  2  0
 42 41  1  0
 44 42  1  0
 44 45  1  0
 44 43  1  0
 46 49  1  1
 46 47  1  0
 48 46  1  0
 51 50  1  0
 51 52  2  0
 54 59  1  0
 55 56  1  0
 55 54  1  0
 57 56  1  0
 57 66  1  0
 57 58  1  0
 59 53  1  0
 59 58  1  0
 60 53  2  0
 61 62  1  0
 62 53  1  0
 62 52  1  0
 63 64  2  0
 64 65  1  0
 64 83  1  0
 65 68  1  0
 66 63  1  0
 66 67  1  0
 67 65  2  0
 68 69  1  0
 69 70  2  0
 71 74  1  0
 71 70  1  0
 72 71  2  0
 73 72  1  0
 73 68  2  0
 74 75  1  0
 75 76  1  0
 76 77  2  0
 78 77  1  0
 78 82  1  0
 79 78  2  0
 80 75  2  0
 80 79  1  0
 81 80  1  0
 83 84  1  0
 84 87  1  0
 84 86  1  0
 85 83  2  0
 88 89  1  0
 88 63  1  0
 90 88  1  0
M  ISO  4   8 101   9 101  53 100  62 100
M  END
>  <TORSDO>  (35) 
F 21

>  <SCORE>  (35) 
-13.120

>  <name>  (35) 
34

>  <ligand_id>  (35) 
34

>  <original_smiles>  (35) 
[H]c1c([H])c([H])c2c(c1[H])C([H])([H])C([H])([H])C([H])([H])C2([H])N([H])C(=O)C1([H])N(C(=O)C([H])(N([H])C(=O)C([H])(N([H])C([H])([H])[H])C([H])([H])[H])C(C([H])([H])[H])(C([H])([H])[H])C([H])([H])[H])C([H])([H])c2c([H])c(OC([H])([H])C([H])([H])C(=O)N3C([H])([H])C([H])([H])C3([H])C([H])([H])C([H])([H])C([H])([H])N(C(=O)N3C([H])([H])C([H])([H])C([H])([H])C([H])(n4nc(-c5c([H])c([H])c(Oc6c([H])c([H])c(F)c([H])c6F)c([H])c5[H])c(C(=O)N([H])[H])c4N([H])[H])C3([H])[H])C([H])([H])[H])c([H])c([H])c2C1([H])[H]

>  <smiles>  (35) 
[H]c1c([H])c([H])c2c(c1[H])C([H])([H])C([H])([H])C([H])([H])C2([H])N([H])C(=O)C1([H])N(C(=O)C([H])(N([H])C(=O)C([H])(N([H])C([H])([H])[H])C([H])([H])[H])C(C([H])([H])[H])(C([H])([H])[H])C([H])([H])[H])C([H])([H])c2c([H])c(OC([H])([H])C([H])([H])C(=O)N3C([H])([H])C([H])([H])C3([H])C([H])([H])C([H])([H])C([H])([H])N(C(=O)N3C([H])([H])C([H])([H])C([H])([H])C([H])(n4nc(-c5c([H])c([H])c(Oc6c([H])c([H])c(F)c([H])c6F)c([H])c5[H])c(C(=O)N([H])[H])c4N([H])[H])C3([H])[H])C([H])([H])[H])c([H])c([H])c2C1([H])[H]

$$$$
35:0:0
     RDKit          3D

101109  0  0  1  0  0  0  0  0999 V2000
  -30.1180  -20.0650   20.5180 C   0  0  0  0  0  0  0  0  0  0  0  0
  -30.3800  -20.1220   21.7190 O   0  0  0  0  0  0  0  0  0  0  0  0
  -28.1930  -21.8140   20.8230 C   0  0  0  0  0  2  0  0  0  0  0  0
  -29.9090  -22.1300   18.9920 C   0  0  0  0  0  2  0  0  0  0  0  0
  -28.8080  -23.0250   21.5640 C   0  0  0  0  0  2  0  0  0  0  0  0
  -30.5080  -23.2830   19.8240 C   0  0  0  0  0  2  0  0  0  0  0  0
  -29.1650  -21.0880   19.8570 C   0  0  0  0  0  3  0  0  0  0  0  0
  -29.4590  -23.9750   20.6190 N   0  0  2  0  0  4  0  0  0  0  0  0
  -28.7580  -24.2810   19.9580 H   0  0  0  0  0  0  0  0  0  0  0  0
  -29.9580  -25.2240   21.2630 C   0  0  0  0  0  2  0  0  0  0  0  0
  -28.8690  -26.3030   21.4260 C   0  0  0  0  0  2  0  0  0  0  0  0
  -28.3800  -26.6910   20.1420 O   0  0  0  0  0  0  0  0  0  0  0  0
  -24.5930  -31.8850   23.2410 C   0  0  0  0  0  0  0  0  0  0  0  0
  -27.2350  -27.4510   20.1740 C   0  0  0  0  0  0  0  0  0  0  0  0
  -23.3810  -30.4780   21.6030 C   0  0  0  0  0  3  0  0  0  0  0  0
  -24.8350  -28.9360   20.1830 C   0  0  0  0  0  0  0  0  0  0  0  0
  -25.9040  -30.8410   21.4000 C   0  0  0  0  0  2  0  0  0  0  0  0
  -25.9900  -29.4680   20.7710 C   0  0  0  0  0  0  0  0  0  0  0  0
  -27.1930  -28.7300   20.7730 C   0  0  0  0  0  3  0  0  0  0  0  0
  -26.0720  -26.9320   19.5720 C   0  0  0  0  0  3  0  0  0  0  0  0
  -24.8680  -27.6630   19.5830 C   0  0  0  0  0  3  0  0  0  0  0  0
  -23.5890  -29.7910   20.2250 C   0  0  0  0  0  2  0  0  0  0  0  0
  -24.6430  -31.0840   22.1390 N   0  0  0  0  0  0  0  0  0  0  0  0
  -23.5140  -32.1590   23.7850 O   0  0  0  0  0  0  0  0  0  0  0  0
  -22.7320  -29.4600   22.5680 C   0  0  0  0  0  0  0  0  0  0  0  0
  -21.4090  -29.2700   22.4400 N   0  0  0  0  0  0  0  0  0  0  0  0
  -23.4180  -28.8430   23.3890 O   0  0  0  0  0  0  0  0  0  0  0  0
  -20.9180  -29.8170   21.7490 H   0  0  0  0  0  0  0  0  0  0  0  0
  -18.0390  -28.0650   22.9220 C   0  0  0  0  0  0  0  0  0  0  0  0
  -20.5930  -28.3360   23.2170 C   0  0  0  0  0  3  0  0  0  0  0  0
  -20.7080  -26.9000   22.6590 C   0  0  0  0  0  2  0  0  0  0  0  0
  -19.6200  -26.5620   21.6360 C   0  0  0  0  0  2  0  0  0  0  0  0
  -18.2290  -26.7120   22.2580 C   0  0  0  0  0  2  0  0  0  0  0  0
  -19.1510  -28.8340   23.3570 C   0  0  0  0  0  0  0  0  0  0  0  0
  -18.9220  -30.1030   23.9320 C   0  0  0  0  0  3  0  0  0  0  0  0
  -17.6130  -30.6010   24.0810 C   0  0  0  0  0  3  0  0  0  0  0  0
  -16.5160  -29.8260   23.6690 C   0  0  0  0  0  3  0  0  0  0  0  0
  -16.7300  -28.5610   23.0950 C   0  0  0  0  0  3  0  0  0  0  0  0
  -25.8830  -32.5130   23.8560 C   0  0  0  0  0  3  0  0  0  0  0  0
  -26.4070  -31.7430   25.1290 C   0  0  1  0  0  0  0  0  0  0  0  0
  -25.3200  -31.5120   26.2040 C   0  0  0  0  0  1  0  0  0  0  0  0
  -26.9820  -30.3620   24.7330 C   0  0  0  0  0  1  0  0  0  0  0  0
  -27.5670  -32.5340   25.7800 C   0  0  0  0  0  1  0  0  0  0  0  0
  -25.5800  -33.9130   24.1840 N   0  0  0  0  0  0  0  0  0  0  0  0
  -25.9130  -34.9630   23.4210 C   0  0  0  0  0  0  0  0  0  0  0  0
  -26.5810  -34.8570   22.3880 O   0  0  0  0  0  0  0  0  0  0  0  0
  -24.9880  -34.0700   24.9860 H   0  0  0  0  0  0  0  0  0  0  0  0
  -24.1780  -36.7480   23.0640 C   0  0  0  0  0  1  0  0  0  0  0  0
  -25.4240  -36.3520   23.8760 C   0  0  0  0  0  3  0  0  0  0  0  0
  -27.5680  -37.2250   24.6900 C   0  0  0  0  0  1  0  0  0  0  0  0
  -26.4540  -37.4070   23.7630 N   0  0  0  0  0  0  0  0  0  0  0  0
  -26.0490  -38.3240   23.9370 H   0  0  0  0  0  0  0  0  0  0  0  0
  -30.7380  -18.9730   19.6090 C   0  0  0  0  0  3  0  0  0  0  0  0
  -32.2850  -18.9420   19.7580 C   0  0  0  0  0  2  0  0  0  0  0  0
  -34.5430  -18.1360   18.8380 C   0  0  0  0  0  1  0  0  0  0  0  0
  -33.0140  -18.0780   18.7070 C   0  0  0  0  0  2  0  0  0  0  0  0
  -30.0610  -17.5620   19.7310 C   0  0  0  0  0  3  0  0  0  0  0  0
  -30.3110  -16.8550   21.1030 C   0  0  0  0  0  2  0  0  0  0  0  0
  -30.6620  -14.4400   20.5330 C   0  0  0  0  0  0  0  0  0  0  0  0
  -30.3460  -12.3080   19.3410 C   0  0  0  0  0  2  0  0  0  0  0  0
  -29.4090  -12.5620   18.1400 C   0  0  0  0  0  2  0  0  0  0  0  0
  -27.9300  -12.4360   18.5620 C   0  0  0  0  0  2  0  0  0  0  0  0
  -27.6050  -13.2480   19.8440 C   0  0  0  0  0  3  0  0  0  0  0  0
  -28.6530  -12.9800   20.9470 C   0  0  0  0  0  2  0  0  0  0  0  0
  -29.9860  -13.2700   20.3930 N   0  0  0  0  0  0  0  0  0  0  0  0
  -31.7730  -14.6460   20.0410 O   0  0  0  0  0  0  0  0  0  0  0  0
  -29.9530  -15.4320   21.0990 N   0  0  0  0  0  0  0  0  0  0  0  0
  -29.0760  -15.1690   21.5220 H   0  0  0  0  0  0  0  0  0  0  0  0
  -25.2050  -13.8810   20.5300 C   0  0  0  0  0  0  0  0  0  0  0  0
  -24.1270  -13.1200   20.8950 C   0  0  0  0  0  0  0  0  0  0  0  0
  -24.5790  -11.7650   20.8720 C   0  0  0  0  0  0  0  0  0  0  0  0
  -26.2450  -12.9900   20.3130 N   0  0  0  0  0  0  0  0  0  0  0  0
  -25.8710  -11.7130   20.5730 N   0  0  0  0  0  0  0  0  0  0  0  0
  -23.8430  -10.5090   21.0630 C   0  0  0  0  0  0  0  0  0  0  0  0
  -24.2760   -9.5360   21.9890 C   0  0  0  0  0  3  0  0  0  0  0  0
  -23.5410   -8.3440   22.1690 C   0  0  0  0  0  3  0  0  0  0  0  0
  -22.3590   -8.1190   21.4220 C   0  0  0  0  0  0  0  0  0  0  0  0
  -21.9460   -9.0820   20.4860 C   0  0  0  0  0  3  0  0  0  0  0  0
  -22.6810  -10.2650   20.3040 C   0  0  0  0  0  3  0  0  0  0  0  0
  -21.5940   -6.9810   21.5120 O   0  0  0  0  0  0  0  0  0  0  0  0
  -21.5600   -6.2250   22.6560 C   0  0  0  0  0  0  0  0  0  0  0  0
  -21.1800   -6.7730   23.9010 C   0  0  0  0  0  3  0  0  0  0  0  0
  -21.0930   -5.9450   25.0380 C   0  0  0  0  0  3  0  0  0  0  0  0
  -21.3730   -4.5690   24.9300 C   0  0  0  0  0  0  0  0  0  0  0  0
  -21.7460   -4.0200   23.6910 C   0  0  0  0  0  3  0  0  0  0  0  0
  -21.8360   -4.8460   22.5570 C   0  0  0  0  0  0  0  0  0  0  0  0
  -22.1740   -4.3090   21.3600 F   0  0  0  0  0  0  0  0  0  0  0  0
  -21.2820   -3.7710   26.0190 F   0  0  0  0  0  0  0  0  0  0  0  0
  -22.7330  -13.6090   21.1610 C   0  0  0  0  0  0  0  0  0  0  0  0
  -21.9990  -12.9240   22.0290 N   0  0  0  0  0  0  0  0  0  0  0  0
  -22.3060  -14.6360   20.6340 O   0  0  0  0  0  0  0  0  0  0  0  0
  -22.3550  -12.0910   22.4750 H   0  0  0  0  0  0  0  0  0  0  0  0
  -21.0630  -13.2330   22.2480 H   0  0  0  0  0  0  0  0  0  0  0  0
  -25.3840  -15.2490   20.3530 N   0  0  0  0  0  0  0  0  0  0  0  0
  -24.6250  -15.9130   20.4630 H   0  0  0  0  0  0  0  0  0  0  0  0
  -26.2640  -15.6820   20.1220 H   0  0  0  0  0  0  0  0  0  0  0  0
  -28.5540  -17.5710   19.3490 C   0  0  0  0  0  2  0  0  0  0  0  0
  -28.3090  -17.8910   17.9250 N   0  0  0  0  0  4  0  0  0  0  0  0
  -28.5450  -18.8370   17.6860 H   0  0  0  0  0  0  0  0  0  0  0  0
  -27.3330  -17.7690   17.7110 H   0  0  0  0  0  0  0  0  0  0  0  0
  -28.8280  -17.2720   17.3250 H   0  0  0  0  0  0  0  0  0  0  0  0
  1  2  2  0
  3  5  1  0
  4  6  1  0
  4  7  1  0
  6  8  1  0
  7  1  1  0
  7  3  1  0
  8 10  1  0
  8  5  1  0
  8  9  1  6
 10 11  1  0
 12 14  1  0
 12 11  1  0
 13 24  2  0
 14 19  1  0
 15 23  1  0
 15 25  1  0
 16 22  1  0
 16 18  1  0
 17 23  1  0
 18 19  2  0
 18 17  1  0
 20 21  1  0
 20 14  2  0
 21 16  2  0
 22 15  1  0
 23 13  1  0
 25 27  2  0
 26 25  1  0
 28 26  1  0
 29 38  2  0
 29 34  1  0
 30 26  1  0
 30 34  1  0
 31 30  1  0
 32 33  1  0
 32 31  1  0
 33 29  1  0
 34 35  2  0
 35 36  1  0
 37 36  2  0
 38 37  1  0
 39 13  1  0
 39 44  1  0
 39 40  1  0
 40 43  1  1
 40 41  1  0
 42 40  1  0
 44 47  1  0
 45 49  1  0
 45 44  1  0
 46 45  2  0
 49 48  1  0
 51 49  1  0
 51 52  1  0
 51 50  1  0
 53 57  1  0
 53 54  1  0
 53  1  1  0
 56 55  1  0
 56 54  1  0
 57 97  1  0
 57 58  1  0
 59 67  1  0
 60 65  1  0
 61 62  1  0
 61 60  1  0
 63 62  1  0
 63 72  1  0
 63 64  1  0
 65 59  1  0
 65 64  1  0
 66 59  2  0
 67 58  1  0
 67 68  1  0
 69 70  2  0
 70 89  1  0
 71 70  1  0
 71 74  1  0
 72 69  1  0
 72 73  1  0
 73 71  2  0
 74 75  1  0
 75 76  2  0
 77 80  1  0
 77 76  1  0
 78 77  2  0
 79 78  1  0
 79 74  2  0
 80 81  1  0
 81 82  1  0
 82 83  2  0
 84 83  1  0
 84 88  1  0
 85 84  2  0
 86 81  2  0
 86 85  1  0
 87 86  1  0
 89 90  1  0
 90 93  1  0
 90 92  1  0
 91 89  2  0
 94 95  1  0
 94 69  1  0
 96 94  1  0
 98 97  1  0
 99 98  1  0
100 98  1  0
101 98  1  0
M  ISO  4  11 101  12 101  59 100  67 100
M  END
>  <TORSDO>  (36) 
F 26

>  <SCORE>  (36) 
-12.638

>  <name>  (36) 
35

>  <ligand_id>  (36) 
35

>  <original_smiles>  (36) 
[H]c1c([H])c([H])c2c(c1[H])C([H])([H])C([H])([H])C([H])([H])C2([H])N([H])C(=O)C1([H])N(C(=O)C([H])(N([H])C(=O)C([H])(N([H])C([H])([H])[H])C([H])([H])[H])C(C([H])([H])[H])(C([H])([H])[H])C([H])([H])[H])C([H])([H])c2c([H])c(OC([H])([H])C([H])([H])[N+]3([H])C([H])([H])C([H])([H])C([H])(C(=O)C([H])(C([H])([H])C([H])([H])C([H])([H])[H])C([H])(C([H])([H])N([H])C(=O)N4C([H])([H])C([H])([H])C([H])([H])C([H])(n5nc(-c6c([H])c([H])c(Oc7c([H])c([H])c(F)c([H])c7F)c([H])c6[H])c(C(=O)N([H])[H])c5N([H])[H])C4([H])[H])C([H])([H])[N+]([H])([H])[H])C([H])([H])C3([H])[H])c([H])c([H])c2C1([H])[H]

>  <smiles>  (36) 
[H]c1c([H])c([H])c2c(c1[H])C([H])([H])C([H])([H])C([H])([H])C2([H])N([H])C(=O)C1([H])N(C(=O)C([H])(N([H])C(=O)C([H])(N([H])C([H])([H])[H])C([H])([H])[H])C(C([H])([H])[H])(C([H])([H])[H])C([H])([H])[H])C([H])([H])c2c([H])c(OC([H])([H])C([H])([H])[N+]3([H])C([H])([H])C([H])([H])C([H])(C(=O)C([H])(C([H])([H])C([H])([H])C([H])([H])[H])C([H])(C([H])([H])N([H])C(=O)N4C([H])([H])C([H])([H])C([H])([H])C([H])(n5nc(-c6c([H])c([H])c(Oc7c([H])c([H])c(F)c([H])c7F)c([H])c6[H])c(C(=O)N([H])[H])c5N([H])[H])C4([H])[H])C([H])([H])[N+]([H])([H])[H])C([H])([H])C3([H])[H])c([H])c([H])c2C1([H])[H]

$$$$
36:0:0
     RDKit          3D

 94102  0  0  1  0  0  0  0  0999 V2000
  -28.1020  -21.3010   19.1440 C   0  0  0  0  0  0  0  0  0  0  0  0
  -29.0850  -22.1660   19.4270 N   0  0  0  0  0  0  0  0  0  0  0  0
  -27.0030  -21.6610   18.7140 O   0  0  0  0  0  0  0  0  0  0  0  0
  -29.9500  -21.7610   19.7610 H   0  0  0  0  0  0  0  0  0  0  0  0
  -28.1140  -19.0110   18.1140 C   0  0  0  0  0  3  0  0  0  0  0  0
  -29.1270  -19.2640   20.3180 C   0  0  0  0  0  3  0  0  0  0  0  0
  -29.1510  -17.0970   19.2000 C   0  0  0  0  0  3  0  0  0  0  0  0
  -28.4600  -19.8380   19.2050 C   0  0  0  0  0  0  0  0  0  0  0  0
  -28.4670  -17.6480   18.1020 C   0  0  0  0  0  0  0  0  0  0  0  0
  -29.4610  -17.8850   20.3310 C   0  0  0  0  0  0  0  0  0  0  0  0
  -28.1320  -16.7770   16.9090 C   0  0  0  0  0  1  0  0  0  0  0  0
  -30.1620  -17.2640   21.5450 C   0  0  0  0  0  2  0  0  0  0  0  0
  -30.7630  -14.8450   21.2590 C   0  0  0  0  0  0  0  0  0  0  0  0
  -30.6780  -12.6820   20.0880 C   0  0  0  0  0  2  0  0  0  0  0  0
  -29.8610  -12.8630   18.7910 C   0  0  0  0  0  2  0  0  0  0  0  0
  -28.3550  -12.6710   19.0600 C   0  0  0  0  0  2  0  0  0  0  0  0
  -27.8550  -13.4850   20.2820 C   0  0  0  0  0  3  0  0  0  0  0  0
  -28.7940  -13.2890   21.4960 C   0  0  0  0  0  2  0  0  0  0  0  0
  -30.1620  -13.6390   21.0770 N   0  0  0  0  0  0  0  0  0  0  0  0
  -31.9160  -15.0890   20.8940 O   0  0  0  0  0  0  0  0  0  0  0  0
  -29.9440  -15.8190   21.6850 N   0  0  0  0  0  0  0  0  0  0  0  0
  -29.0200  -15.5320   21.9710 H   0  0  0  0  0  0  0  0  0  0  0  0
  -25.3810  -14.0120   20.7610 C   0  0  0  0  0  0  0  0  0  0  0  0
  -24.3020  -13.2010   20.9930 C   0  0  0  0  0  0  0  0  0  0  0  0
  -24.8020  -11.8620   20.9590 C   0  0  0  0  0  0  0  0  0  0  0  0
  -26.4680  -13.1640   20.6080 N   0  0  0  0  0  0  0  0  0  0  0  0
  -26.1160  -11.8650   20.7810 N   0  0  0  0  0  0  0  0  0  0  0  0
  -24.0950  -10.5780   21.0290 C   0  0  0  0  0  0  0  0  0  0  0  0
  -24.4870   -9.5670   21.9350 C   0  0  0  0  0  3  0  0  0  0  0  0
  -23.7820   -8.3470   21.9960 C   0  0  0  0  0  3  0  0  0  0  0  0
  -22.6700   -8.1270   21.1480 C   0  0  0  0  0  0  0  0  0  0  0  0
  -22.2980   -9.1260   20.2320 C   0  0  0  0  0  3  0  0  0  0  0  0
  -23.0040  -10.3390   20.1700 C   0  0  0  0  0  3  0  0  0  0  0  0
  -21.9410   -6.9620   21.1200 O   0  0  0  0  0  0  0  0  0  0  0  0
  -21.8370   -6.1520   22.2210 C   0  0  0  0  0  0  0  0  0  0  0  0
  -21.3100   -6.6220   23.4440 C   0  0  0  0  0  3  0  0  0  0  0  0
  -21.1550   -5.7360   24.5310 C   0  0  0  0  0  3  0  0  0  0  0  0
  -21.5170   -4.3820   24.3930 C   0  0  0  0  0  0  0  0  0  0  0  0
  -22.0360   -3.9120   23.1740 C   0  0  0  0  0  3  0  0  0  0  0  0
  -22.1920   -4.7940   22.0900 C   0  0  0  0  0  0  0  0  0  0  0  0
  -22.6740   -4.3310   20.9110 F   0  0  0  0  0  0  0  0  0  0  0  0
  -21.3610   -3.5310   25.4330 F   0  0  0  0  0  0  0  0  0  0  0  0
  -22.8730  -13.6340   21.1420 C   0  0  0  0  0  0  0  0  0  0  0  0
  -22.0840  -12.8880   21.9070 N   0  0  0  0  0  0  0  0  0  0  0  0
  -22.4590  -14.6670   20.6160 O   0  0  0  0  0  0  0  0  0  0  0  0
  -22.4300  -12.0510   22.3530 H   0  0  0  0  0  0  0  0  0  0  0  0
  -21.1220  -13.1590   22.0520 H   0  0  0  0  0  0  0  0  0  0  0  0
  -25.5270  -15.3910   20.6490 N   0  0  0  0  0  0  0  0  0  0  0  0
  -24.7350  -16.0230   20.6900 H   0  0  0  0  0  0  0  0  0  0  0  0
  -26.3930  -15.8590   20.4070 H   0  0  0  0  0  0  0  0  0  0  0  0
  -29.1460  -23.5460   18.9320 C   0  0  0  0  0  2  0  0  0  0  0  0
  -28.5850  -24.6220   19.8900 C   0  0  0  0  0  2  0  0  0  0  0  0
  -28.7540  -26.0390   19.2920 C   0  0  0  0  0  2  0  0  0  0  0  0
  -28.5130  -27.0890   20.2340 O   0  0  0  0  0  0  0  0  0  0  0  0
  -24.5980  -32.0660   23.4550 C   0  0  0  0  0  0  0  0  0  0  0  0
  -27.3060  -27.7580   20.2350 C   0  0  0  0  0  0  0  0  0  0  0  0
  -23.4140  -30.7150   21.7540 C   0  0  0  0  0  3  0  0  0  0  0  0
  -24.8890  -29.2340   20.2910 C   0  0  0  0  0  0  0  0  0  0  0  0
  -25.9380  -31.0950   21.5920 C   0  0  0  0  0  2  0  0  0  0  0  0
  -26.0360  -29.7460   20.9080 C   0  0  0  0  0  0  0  0  0  0  0  0
  -27.2400  -29.0100   20.8870 C   0  0  0  0  0  3  0  0  0  0  0  0
  -26.1350  -27.2470   19.6280 C   0  0  0  0  0  3  0  0  0  0  0  0
  -24.9310  -27.9790   19.6560 C   0  0  0  0  0  3  0  0  0  0  0  0
  -23.6400  -30.0830   20.3530 C   0  0  0  0  0  2  0  0  0  0  0  0
  -24.6670  -31.3040   22.3250 N   0  0  0  0  0  0  0  0  0  0  0  0
  -23.5110  -32.3130   23.9940 O   0  0  0  0  0  0  0  0  0  0  0  0
  -22.7610  -29.6570   22.6730 C   0  0  0  0  0  0  0  0  0  0  0  0
  -21.4540  -29.4190   22.4780 N   0  0  0  0  0  0  0  0  0  0  0  0
  -23.4300  -29.0540   23.5150 O   0  0  0  0  0  0  0  0  0  0  0  0
  -20.9740  -29.9610   21.7720 H   0  0  0  0  0  0  0  0  0  0  0  0
  -18.1320  -28.0260   22.7400 C   0  0  0  0  0  0  0  0  0  0  0  0
  -20.6420  -28.4400   23.1980 C   0  0  0  0  0  3  0  0  0  0  0  0
  -20.8730  -27.0130   22.6500 C   0  0  0  0  0  2  0  0  0  0  0  0
  -19.8720  -26.6160   21.5610 C   0  0  0  0  0  2  0  0  0  0  0  0
  -18.4390  -26.6850   22.0980 C   0  0  0  0  0  2  0  0  0  0  0  0
  -19.1660  -28.8580   23.2430 C   0  0  0  0  0  0  0  0  0  0  0  0
  -18.8300  -30.1120   23.7970 C   0  0  0  0  0  3  0  0  0  0  0  0
  -17.4890  -30.5370   23.8560 C   0  0  0  0  0  3  0  0  0  0  0  0
  -16.4670  -29.7020   23.3720 C   0  0  0  0  0  3  0  0  0  0  0  0
  -16.7880  -28.4490   22.8190 C   0  0  0  0  0  3  0  0  0  0  0  0
  -25.8750  -32.6820   24.1070 C   0  0  0  0  0  3  0  0  0  0  0  0
  -25.5920  -34.0960   24.3850 N   0  0  0  0  0  0  0  0  0  0  0  0
  -25.9830  -35.1160   23.6100 C   0  0  0  0  0  0  0  0  0  0  0  0
  -26.6920  -34.9660   22.6110 O   0  0  0  0  0  0  0  0  0  0  0  0
  -24.9720  -34.2890   25.1570 H   0  0  0  0  0  0  0  0  0  0  0  0
  -24.3110  -36.9340   23.1400 C   0  0  0  0  0  1  0  0  0  0  0  0
  -25.5130  -36.5280   24.0070 C   0  0  0  0  0  3  0  0  0  0  0  0
  -27.6360  -37.3900   24.8860 C   0  0  0  0  0  1  0  0  0  0  0  0
  -26.5730  -37.5540   23.8990 N   0  0  0  0  0  0  0  0  0  0  0  0
  -26.1830  -38.4870   24.0030 H   0  0  0  0  0  0  0  0  0  0  0  0
  -26.3250  -31.9340   25.4220 C   0  0  1  0  0  0  0  0  0  0  0  0
  -25.1870  -31.7440   26.4520 C   0  0  0  0  0  1  0  0  0  0  0  0
  -26.8940  -30.5350   25.0860 C   0  0  0  0  0  1  0  0  0  0  0  0
  -27.4660  -32.7210   26.1100 C   0  0  0  0  0  1  0  0  0  0  0  0
  1  8  1  0
  1  2  1  0
  2  4  1  0
  3  1  2  0
  5  8  1  0
  6 10  1  0
  7 10  2  0
  8  6  2  0
  9  5  2  0
  9  7  1  0
 10 12  1  0
 11  9  1  0
 12 21  1  0
 13 21  1  0
 14 19  1  0
 15 16  1  0
 15 14  1  0
 17 16  1  0
 17 26  1  0
 17 18  1  0
 19 13  1  0
 19 18  1  0
 20 13  2  0
 21 22  1  0
 23 24  2  0
 24 43  1  0
 25 24  1  0
 25 28  1  0
 26 23  1  0
 26 27  1  0
 27 25  2  0
 28 29  1  0
 29 30  2  0
 31 30  1  0
 32 31  2  0
 33 32  1  0
 33 28  2  0
 34 31  1  0
 34 35  1  0
 35 36  1  0
 36 37  2  0
 38 37  1  0
 38 42  1  0
 39 38  2  0
 40 35  2  0
 40 39  1  0
 41 40  1  0
 43 44  1  0
 44 47  1  0
 44 46  1  0
 45 43  2  0
 48 49  1  0
 48 23  1  0
 50 48  1  0
 51  2  1  0
 51 52  1  0
 53 52  1  0
 53 54  1  0
 54 56  1  0
 55 66  2  0
 56 61  1  0
 57 65  1  0
 57 67  1  0
 58 64  1  0
 58 60  1  0
 59 65  1  0
 60 59  1  0
 61 60  2  0
 62 63  1  0
 62 56  2  0
 63 58  2  0
 64 57  1  0
 65 55  1  0
 67 69  2  0
 68 67  1  0
 70 68  1  0
 71 80  2  0
 71 76  1  0
 72 68  1  0
 72 76  1  0
 73 72  1  0
 74 75  1  0
 74 73  1  0
 75 71  1  0
 76 77  2  0
 77 78  1  0
 79 78  2  0
 80 79  1  0
 81 55  1  0
 81 82  1  0
 81 91  1  0
 82 85  1  0
 83 87  1  0
 83 82  1  0
 84 83  2  0
 87 86  1  0
 89 90  1  0
 89 87  1  0
 89 88  1  0
 91 94  1  1
 91 92  1  0
 93 91  1  0
M  ISO  4  13 100  21 100  53 101  54 101
M  END
>  <TORSDO>  (37) 
F 21

>  <SCORE>  (37) 
-9.838

>  <name>  (37) 
36

>  <ligand_id>  (37) 
36

>  <original_smiles>  (37) 
[H]c1c([H])c([H])c2c(c1[H])C([H])([H])C([H])([H])C([H])([H])C2([H])N([H])C(=O)C1([H])N(C(=O)C([H])(N([H])C(=O)C([H])(N([H])C([H])([H])[H])C([H])([H])[H])C(C([H])([H])[H])(C([H])([H])[H])C([H])([H])[H])C([H])([H])c2c([H])c(OC([H])([H])C([H])([H])C([H])([H])N([H])C(=O)c3c([H])c(C([H])([H])[H])c([H])c(C([H])([H])N([H])C(=O)N4C([H])([H])C([H])([H])C([H])([H])C([H])(n5nc(-c6c([H])c([H])c(Oc7c([H])c([H])c(F)c([H])c7F)c([H])c6[H])c(C(=O)N([H])[H])c5N([H])[H])C4([H])[H])c3[H])c([H])c([H])c2C1([H])[H]

>  <smiles>  (37) 
[H]c1c([H])c([H])c2c(c1[H])C([H])([H])C([H])([H])C([H])([H])C2([H])N([H])C(=O)C1([H])N(C(=O)C([H])(N([H])C(=O)C([H])(N([H])C([H])([H])[H])C([H])([H])[H])C(C([H])([H])[H])(C([H])([H])[H])C([H])([H])[H])C([H])([H])c2c([H])c(OC([H])([H])C([H])([H])C([H])([H])N([H])C(=O)c3c([H])c(C([H])([H])[H])c([H])c(C([H])([H])N([H])C(=O)N4C([H])([H])C([H])([H])C([H])([H])C([H])(n5nc(-c6c([H])c([H])c(Oc7c([H])c([H])c(F)c([H])c7F)c([H])c6[H])c(C(=O)N([H])[H])c5N([H])[H])C4([H])[H])c3[H])c([H])c([H])c2C1([H])[H]

$$$$
37:0:0
     RDKit          3D

 98106  0  0  1  0  0  0  0  0999 V2000
  -30.1640  -23.5890   20.9440 C   0  0  0  0  0  0  0  0  0  0  0  0
  -30.0900  -22.2390   21.0590 N   0  0  0  0  0  0  0  0  0  0  0  0
  -31.2340  -24.1370   20.6730 O   0  0  0  0  0  0  0  0  0  0  0  0
  -29.2250  -21.7920   21.3210 H   0  0  0  0  0  0  0  0  0  0  0  0
  -31.2540  -21.3430   20.9400 C   0  0  0  0  0  2  0  0  0  0  0  0
  -30.7220  -17.6340   21.9950 C   0  0  0  0  0  3  0  0  0  0  0  0
  -30.7330  -17.7320   19.5820 C   0  0  0  0  0  3  0  0  0  0  0  0
  -30.8800  -19.0410   22.0660 C   0  0  0  0  0  0  0  0  0  0  0  0
  -30.8810  -19.1400   19.6310 C   0  0  0  0  0  0  0  0  0  0  0  0
  -30.9690  -19.8210   20.8790 C   0  0  0  0  0  0  0  0  0  0  0  0
  -30.6730  -16.9550   20.7600 C   0  0  0  0  0  0  0  0  0  0  0  0
  -30.9910  -19.6770   23.4440 C   0  0  0  0  0  1  0  0  0  0  0  0
  -30.9800  -19.8780   18.3060 C   0  0  0  0  0  1  0  0  0  0  0  0
  -31.1630  -14.5680   20.0730 C   0  0  0  0  0  0  0  0  0  0  0  0
  -30.8580  -12.3680   18.9810 C   0  0  0  0  0  2  0  0  0  0  0  0
  -29.8470  -12.5160   17.8250 C   0  0  0  0  0  2  0  0  0  0  0  0
  -28.4000  -12.3750   18.3350 C   0  0  0  0  0  2  0  0  0  0  0  0
  -28.1200  -13.2500   19.5830 C   0  0  0  0  0  3  0  0  0  0  0  0
  -29.2260  -13.0540   20.6430 C   0  0  0  0  0  2  0  0  0  0  0  0
  -30.5190  -13.3680   20.0090 N   0  0  0  0  0  0  0  0  0  0  0  0
  -32.2290  -14.7760   19.4880 O   0  0  0  0  0  0  0  0  0  0  0  0
  -30.5100  -15.5290   20.7690 N   0  0  0  0  0  0  0  0  0  0  0  0
  -29.7340  -15.1890   21.3140 H   0  0  0  0  0  0  0  0  0  0  0  0
  -25.7900  -13.8900   20.4640 C   0  0  0  0  0  0  0  0  0  0  0  0
  -24.7240  -13.1320   20.8630 C   0  0  0  0  0  0  0  0  0  0  0  0
  -25.1390  -11.7700   20.7370 C   0  0  0  0  0  0  0  0  0  0  0  0
  -26.7910  -12.9920   20.1290 N   0  0  0  0  0  0  0  0  0  0  0  0
  -26.4050  -11.7090   20.3440 N   0  0  0  0  0  0  0  0  0  0  0  0
  -24.3850  -10.5220   20.9120 C   0  0  0  0  0  0  0  0  0  0  0  0
  -24.7510   -9.5740   21.8940 C   0  0  0  0  0  3  0  0  0  0  0  0
  -24.0020   -8.3890   22.0590 C   0  0  0  0  0  3  0  0  0  0  0  0
  -22.8730   -8.1450   21.2400 C   0  0  0  0  0  0  0  0  0  0  0  0
  -22.5270   -9.0810   20.2500 C   0  0  0  0  0  3  0  0  0  0  0  0
  -23.2760  -10.2580   20.0840 C   0  0  0  0  0  3  0  0  0  0  0  0
  -22.1020   -7.0100   21.3100 O   0  0  0  0  0  0  0  0  0  0  0  0
  -21.8250   -6.4010   22.5060 C   0  0  0  0  0  0  0  0  0  0  0  0
  -21.1610   -7.0780   23.5520 C   0  0  0  0  0  3  0  0  0  0  0  0
  -20.8350   -6.3930   24.7390 C   0  0  0  0  0  3  0  0  0  0  0  0
  -21.1610   -5.0310   24.8790 C   0  0  0  0  0  0  0  0  0  0  0  0
  -21.8170   -4.3520   23.8360 C   0  0  0  0  0  3  0  0  0  0  0  0
  -22.1450   -5.0350   22.6520 C   0  0  0  0  0  0  0  0  0  0  0  0
  -22.7590   -4.3730   21.6420 F   0  0  0  0  0  0  0  0  0  0  0  0
  -20.8400   -4.3700   26.0160 F   0  0  0  0  0  0  0  0  0  0  0  0
  -23.3620  -13.6360   21.2480 C   0  0  0  0  0  0  0  0  0  0  0  0
  -22.6810  -12.9340   22.1470 N   0  0  0  0  0  0  0  0  0  0  0  0
  -22.9130  -14.6860   20.7880 O   0  0  0  0  0  0  0  0  0  0  0  0
  -23.0600  -12.0860   22.5410 H   0  0  0  0  0  0  0  0  0  0  0  0
  -21.7700  -13.2520   22.4450 H   0  0  0  0  0  0  0  0  0  0  0  0
  -25.9850  -15.2630   20.3410 N   0  0  0  0  0  0  0  0  0  0  0  0
  -25.2440  -15.9280   20.5250 H   0  0  0  0  0  0  0  0  0  0  0  0
  -26.8210  -15.6970   19.9700 H   0  0  0  0  0  0  0  0  0  0  0  0
  -28.9190  -24.4860   21.2010 C   0  0  0  0  0  3  0  0  0  0  0  0
  -27.7370  -23.7080   21.6370 N   0  0  0  0  0  4  0  0  0  0  0  0
  -27.4280  -23.0840   20.9110 H   0  0  0  0  0  0  0  0  0  0  0  0
  -26.9770  -24.3210   21.8750 H   0  0  0  0  0  0  0  0  0  0  0  0
  -27.9580  -23.1720   22.4560 H   0  0  0  0  0  0  0  0  0  0  0  0
  -28.5750  -25.4720   20.0300 C   0  0  0  0  0  2  0  0  0  0  0  0
  -28.4510  -26.8480   20.4510 O   0  0  0  0  0  0  0  0  0  0  0  0
  -24.6010  -32.0400   23.4290 C   0  0  0  0  0  0  0  0  0  0  0  0
  -27.2400  -27.5240   20.4230 C   0  0  0  0  0  0  0  0  0  0  0  0
  -23.3930  -30.6150   21.8080 C   0  0  0  0  0  3  0  0  0  0  0  0
  -24.8420  -29.0460   20.4110 C   0  0  0  0  0  0  0  0  0  0  0  0
  -25.9220  -30.9560   21.6110 C   0  0  0  0  0  2  0  0  0  0  0  0
  -26.0000  -29.5750   20.9900 C   0  0  0  0  0  0  0  0  0  0  0  0
  -27.1960  -28.8210   20.9930 C   0  0  0  0  0  3  0  0  0  0  0  0
  -26.0550  -27.0090   19.8430 C   0  0  0  0  0  3  0  0  0  0  0  0
  -24.8640  -27.7630   19.8410 C   0  0  0  0  0  3  0  0  0  0  0  0
  -23.6030  -29.9130   20.4380 C   0  0  0  0  0  2  0  0  0  0  0  0
  -24.6560  -31.2200   22.3390 N   0  0  0  0  0  0  0  0  0  0  0  0
  -23.5190  -32.3260   23.9620 O   0  0  0  0  0  0  0  0  0  0  0  0
  -22.7370  -29.6110   22.7830 C   0  0  0  0  0  0  0  0  0  0  0  0
  -21.4300  -29.3610   22.6000 N   0  0  0  0  0  0  0  0  0  0  0  0
  -23.4040  -29.0590   23.6620 O   0  0  0  0  0  0  0  0  0  0  0  0
  -20.9530  -29.8570   21.8590 H   0  0  0  0  0  0  0  0  0  0  0  0
  -18.1240  -27.9350   22.8950 C   0  0  0  0  0  0  0  0  0  0  0  0
  -20.6170  -28.4240   23.3750 C   0  0  0  0  0  3  0  0  0  0  0  0
  -20.8810  -26.9650   22.9360 C   0  0  0  0  0  2  0  0  0  0  0  0
  -19.9100  -26.4730   21.8600 C   0  0  0  0  0  2  0  0  0  0  0  0
  -18.4650  -26.5550   22.3600 C   0  0  0  0  0  2  0  0  0  0  0  0
  -19.1350  -28.8190   23.3560 C   0  0  0  0  0  0  0  0  0  0  0  0
  -18.7660  -30.1050   23.8080 C   0  0  0  0  0  3  0  0  0  0  0  0
  -17.4170  -30.5080   23.8120 C   0  0  0  0  0  3  0  0  0  0  0  0
  -16.4200  -29.6220   23.3710 C   0  0  0  0  0  3  0  0  0  0  0  0
  -16.7720  -28.3400   22.9170 C   0  0  0  0  0  3  0  0  0  0  0  0
  -25.8880  -32.6760   24.0390 C   0  0  0  0  0  3  0  0  0  0  0  0
  -25.5940  -34.0860   24.3260 N   0  0  0  0  0  0  0  0  0  0  0  0
  -25.9280  -35.1100   23.5290 C   0  0  0  0  0  0  0  0  0  0  0  0
  -26.5900  -34.9670   22.4980 O   0  0  0  0  0  0  0  0  0  0  0  0
  -25.0110  -34.2730   25.1300 H   0  0  0  0  0  0  0  0  0  0  0  0
  -24.1970  -36.8880   23.1390 C   0  0  0  0  0  1  0  0  0  0  0  0
  -25.4510  -36.5140   23.9430 C   0  0  0  0  0  3  0  0  0  0  0  0
  -27.5970  -37.4260   24.7090 C   0  0  0  0  0  1  0  0  0  0  0  0
  -26.4830  -37.5610   23.7740 N   0  0  0  0  0  0  0  0  0  0  0  0
  -26.0820  -38.4860   23.8930 H   0  0  0  0  0  0  0  0  0  0  0  0
  -26.3940  -31.9370   25.3390 C   0  0  1  0  0  0  0  0  0  0  0  0
  -25.2890  -31.7160   26.3990 C   0  0  0  0  0  1  0  0  0  0  0  0
  -26.9900  -30.5570   24.9830 C   0  0  0  0  0  1  0  0  0  0  0  0
  -27.5340  -32.7530   25.9950 C   0  0  0  0  0  1  0  0  0  0  0  0
  1  2  1  0
  1 52  1  0
  2  4  1  0
  3  1  2  0
  5  2  1  0
  6  8  1  0
  7  9  2  0
  7 11  1  0
  8 12  1  0
  9 10  1  0
 10  5  1  0
 10  8  2  0
 11 22  1  0
 11  6  2  0
 13  9  1  0
 14 22  1  0
 15 20  1  0
 16 17  1  0
 16 15  1  0
 18 17  1  0
 18 27  1  0
 18 19  1  0
 20 14  1  0
 20 19  1  0
 21 14  2  0
 22 23  1  0
 24 25  2  0
 25 44  1  0
 26 25  1  0
 26 29  1  0
 27 28  1  0
 27 24  1  0
 28 26  2  0
 29 30  1  0
 30 31  2  0
 32 35  1  0
 32 31  1  0
 33 32  2  0
 34 33  1  0
 34 29  2  0
 35 36  1  0
 36 41  2  0
 36 37  1  0
 37 38  2  0
 38 39  1  0
 39 43  1  0
 40 39  2  0
 41 40  1  0
 42 41  1  0
 44 45  1  0
 45 48  1  0
 45 47  1  0
 46 44  2  0
 49 24  1  0
 49 50  1  0
 51 49  1  0
 52 57  1  0
 52 53  1  0
 53 55  1  0
 53 56  1  0
 54 53  1  0
 57 58  1  0
 59 70  2  0
 60 58  1  0
 60 65  1  0
 61 69  1  0
 61 71  1  0
 62 68  1  0
 62 64  1  0
 63 69  1  0
 64 65  2  0
 64 63  1  0
 66 60  2  0
 67 66  1  0
 67 62  2  0
 68 61  1  0
 69 59  1  0
 71 73  2  0
 72 71  1  0
 74 72  1  0
 75 84  2  0
 75 80  1  0
 76 72  1  0
 77 76  1  0
 78 79  1  0
 78 77  1  0
 79 75  1  0
 80 76  1  0
 80 81  2  0
 81 82  1  0
 83 82  2  0
 84 83  1  0
 85 59  1  0
 85 86  1  0
 85 95  1  0
 86 89  1  0
 87 91  1  0
 87 86  1  0
 88 87  2  0
 91 90  1  0
 93 94  1  0
 93 91  1  0
 93 92  1  0
 95 98  1  1
 95 96  1  0
 97 95  1  0
M  ISO  4  14 100  22 100  57 101  58 101
M  END
>  <TORSDO>  (38) 
F 21

>  <SCORE>  (38) 
-13.027

>  <name>  (38) 
37

>  <ligand_id>  (38) 
37

>  <original_smiles>  (38) 
[H]c1c([H])c([H])c2c(c1[H])C([H])([H])C([H])([H])C([H])([H])C2([H])N([H])C(=O)C1([H])N(C(=O)C([H])(N([H])C(=O)C([H])(N([H])C([H])([H])[H])C([H])([H])[H])C(C([H])([H])[H])(C([H])([H])[H])C([H])([H])[H])C([H])([H])c2c([H])c(OC([H])([H])C([H])(C(=O)N([H])C([H])([H])c3c(C([H])([H])[H])c([H])c(N([H])C(=O)N4C([H])([H])C([H])([H])C([H])([H])C([H])(n5nc(-c6c([H])c([H])c(Oc7c([H])c([H])c(F)c([H])c7F)c([H])c6[H])c(C(=O)N([H])[H])c5N([H])[H])C4([H])[H])c([H])c3C([H])([H])[H])[N+]([H])([H])[H])c([H])c([H])c2C1([H])[H]

>  <smiles>  (38) 
[H]c1c([H])c([H])c2c(c1[H])C([H])([H])C([H])([H])C([H])([H])C2([H])N([H])C(=O)C1([H])N(C(=O)C([H])(N([H])C(=O)C([H])(N([H])C([H])([H])[H])C([H])([H])[H])C(C([H])([H])[H])(C([H])([H])[H])C([H])([H])[H])C([H])([H])c2c([H])c(OC([H])([H])C([H])(C(=O)N([H])C([H])([H])c3c(C([H])([H])[H])c([H])c(N([H])C(=O)N4C([H])([H])C([H])([H])C([H])([H])C([H])(n5nc(-c6c([H])c([H])c(Oc7c([H])c([H])c(F)c([H])c7F)c([H])c6[H])c(C(=O)N([H])[H])c5N([H])[H])C4([H])[H])c([H])c3C([H])([H])[H])[N+]([H])([H])[H])c([H])c([H])c2C1([H])[H]

$$$$
38:0:0
     RDKit          3D

 93101  0  0  1  0  0  0  0  0999 V2000
  -29.0460  -19.0770   19.0010 C   0  0  0  0  0  2  0  0  0  0  0  0
  -28.8400  -20.6210   18.8620 C   0  0  0  0  0  2  0  0  0  0  0  0
  -30.1690  -20.2300   20.7630 C   0  0  0  0  0  3  0  0  0  0  0  0
  -29.6440  -18.7640   20.3940 C   0  0  0  0  0  3  0  0  0  0  0  0
  -29.2510  -21.2690   20.1280 N   0  0  1  0  0  4  0  0  0  0  0  0
  -28.4460  -21.2650   20.7390 H   0  0  0  0  0  0  0  0  0  0  0  0
  -31.0270  -15.0470   20.1520 C   0  0  0  0  0  0  0  0  0  0  0  0
  -30.7670  -12.8070   19.0750 C   0  0  0  0  0  2  0  0  0  0  0  0
  -29.8110  -12.9200   17.8680 C   0  0  0  0  0  2  0  0  0  0  0  0
  -28.3470  -12.7510   18.3190 C   0  0  0  0  0  2  0  0  0  0  0  0
  -28.0000  -13.6150   19.5620 C   0  0  0  0  0  3  0  0  0  0  0  0
  -29.0750  -13.4930   20.6610 C   0  0  0  0  0  2  0  0  0  0  0  0
  -30.3640  -13.8430   20.0530 N   0  0  0  0  0  0  0  0  0  0  0  0
  -32.2200  -15.0890   19.8370 O   0  0  0  0  0  0  0  0  0  0  0  0
  -30.6750  -17.5350   20.3940 C   0  0  0  0  0  0  0  0  0  0  0  0
  -30.2750  -16.2000   20.3730 N   0  0  0  0  0  0  0  0  0  0  0  0
  -31.8670  -17.8510   20.4060 O   0  0  0  0  0  0  0  0  0  0  0  0
  -29.2870  -16.0440   20.4710 H   0  0  0  0  0  0  0  0  0  0  0  0
  -25.6220  -14.2070   20.3200 C   0  0  0  0  0  0  0  0  0  0  0  0
  -24.5610  -13.4320   20.7020 C   0  0  0  0  0  0  0  0  0  0  0  0
  -25.0230  -12.0810   20.6640 C   0  0  0  0  0  0  0  0  0  0  0  0
  -26.6620  -13.3280   20.0680 N   0  0  0  0  0  0  0  0  0  0  0  0
  -26.3100  -12.0440   20.3400 N   0  0  0  0  0  0  0  0  0  0  0  0
  -24.2980  -10.8170   20.8560 C   0  0  0  0  0  0  0  0  0  0  0  0
  -24.6990   -9.8770   21.8320 C   0  0  0  0  0  3  0  0  0  0  0  0
  -23.9700   -8.6800   22.0120 C   0  0  0  0  0  3  0  0  0  0  0  0
  -22.8290   -8.4150   21.2160 C   0  0  0  0  0  0  0  0  0  0  0  0
  -22.4500   -9.3450   20.2320 C   0  0  0  0  0  3  0  0  0  0  0  0
  -23.1780  -10.5340   20.0490 C   0  0  0  0  0  3  0  0  0  0  0  0
  -22.0800   -7.2680   21.3010 O   0  0  0  0  0  0  0  0  0  0  0  0
  -21.9200   -6.5990   22.4890 C   0  0  0  0  0  0  0  0  0  0  0  0
  -21.3810   -7.2290   23.6320 C   0  0  0  0  0  3  0  0  0  0  0  0
  -21.1680   -6.4870   24.8100 C   0  0  0  0  0  3  0  0  0  0  0  0
  -21.4860   -5.1160   24.8460 C   0  0  0  0  0  0  0  0  0  0  0  0
  -22.0210   -4.4860   23.7070 C   0  0  0  0  0  3  0  0  0  0  0  0
  -22.2330   -5.2270   22.5310 C   0  0  0  0  0  0  0  0  0  0  0  0
  -22.7270   -4.6100   21.4300 F   0  0  0  0  0  0  0  0  0  0  0  0
  -21.2750   -4.4000   25.9750 F   0  0  0  0  0  0  0  0  0  0  0  0
  -23.1660  -13.9100   20.9840 C   0  0  0  0  0  0  0  0  0  0  0  0
  -22.4500  -13.2250   21.8690 N   0  0  0  0  0  0  0  0  0  0  0  0
  -22.7200  -14.9270   20.4560 O   0  0  0  0  0  0  0  0  0  0  0  0
  -22.8220  -12.4040   22.3220 H   0  0  0  0  0  0  0  0  0  0  0  0
  -21.5150  -13.5310   22.1000 H   0  0  0  0  0  0  0  0  0  0  0  0
  -25.7820  -15.5790   20.1440 N   0  0  0  0  0  0  0  0  0  0  0  0
  -25.0000  -16.2180   20.2490 H   0  0  0  0  0  0  0  0  0  0  0  0
  -26.5940  -16.0160   19.7300 H   0  0  0  0  0  0  0  0  0  0  0  0
  -30.1790  -20.4410   22.2860 C   0  0  0  0  0  0  0  0  0  0  0  0
  -31.2180  -19.6810   23.0970 C   0  0  0  0  0  1  0  0  0  0  0  0
  -29.3710  -21.1700   22.8700 O   0  0  0  0  0  0  0  0  0  0  0  0
  -29.6960  -22.7520   20.0580 C   0  0  0  0  0  2  0  0  0  0  0  0
  -28.6980  -23.9240   19.5310 C   0  0  0  0  0  2  0  0  0  0  0  0
  -28.7770  -25.3920   20.2180 C   0  0  0  0  0  2  0  0  0  0  0  0
  -28.6100  -26.6940   19.5010 O   0  0  0  0  0  0  0  0  0  0  0  0
  -24.7410  -31.7120   23.0710 C   0  0  0  0  0  0  0  0  0  0  0  0
  -27.4450  -27.4630   19.6490 C   0  0  0  0  0  0  0  0  0  0  0  0
  -23.5420  -30.3570   21.3900 C   0  0  0  0  0  3  0  0  0  0  0  0
  -25.0080  -28.9600   19.8220 C   0  0  0  0  0  0  0  0  0  0  0  0
  -26.0520  -30.8110   21.1320 C   0  0  0  0  0  2  0  0  0  0  0  0
  -26.1760  -29.4730   20.4020 C   0  0  0  0  0  0  0  0  0  0  0  0
  -27.3980  -28.7400   20.2980 C   0  0  0  0  0  3  0  0  0  0  0  0
  -26.2520  -26.9980   19.0620 C   0  0  0  0  0  3  0  0  0  0  0  0
  -25.0480  -27.7290   19.1440 C   0  0  0  0  0  3  0  0  0  0  0  0
  -23.7350  -29.7730   19.9650 C   0  0  0  0  0  2  0  0  0  0  0  0
  -24.8000  -30.9750   21.9220 N   0  0  0  0  0  0  0  0  0  0  0  0
  -23.6680  -31.9000   23.6610 O   0  0  0  0  0  0  0  0  0  0  0  0
  -22.9650  -29.2550   22.3100 C   0  0  0  0  0  0  0  0  0  0  0  0
  -21.6450  -29.0170   22.2160 N   0  0  0  0  0  0  0  0  0  0  0  0
  -23.7030  -28.6180   23.0670 O   0  0  0  0  0  0  0  0  0  0  0  0
  -21.1060  -29.5860   21.5760 H   0  0  0  0  0  0  0  0  0  0  0  0
  -18.3650  -27.5680   22.7010 C   0  0  0  0  0  0  0  0  0  0  0  0
  -20.9030  -27.9940   22.9540 C   0  0  0  0  0  3  0  0  0  0  0  0
  -21.0950  -26.5990   22.3140 C   0  0  0  0  0  2  0  0  0  0  0  0
  -20.0050  -26.2440   21.3000 C   0  0  0  0  0  2  0  0  0  0  0  0
  -18.6250  -26.2650   21.9640 C   0  0  0  0  0  2  0  0  0  0  0  0
  -19.4340  -28.3870   23.1520 C   0  0  0  0  0  0  0  0  0  0  0  0
  -19.1360  -29.6040   23.8030 C   0  0  0  0  0  3  0  0  0  0  0  0
  -17.8020  -30.0050   24.0060 C   0  0  0  0  0  3  0  0  0  0  0  0
  -16.7480  -29.1830   23.5680 C   0  0  0  0  0  3  0  0  0  0  0  0
  -17.0310  -27.9670   22.9240 C   0  0  0  0  0  3  0  0  0  0  0  0
  -26.0140  -32.3700   23.6870 C   0  0  0  0  0  3  0  0  0  0  0  0
  -26.5970  -31.5640   24.9130 C   0  0  1  0  0  0  0  0  0  0  0  0
  -25.5490  -31.2470   26.0060 C   0  0  0  0  0  1  0  0  0  0  0  0
  -27.2070  -30.2240   24.4440 C   0  0  0  0  0  1  0  0  0  0  0  0
  -27.7470  -32.3670   25.5690 C   0  0  0  0  0  1  0  0  0  0  0  0
  -25.6580  -33.7380   24.0920 N   0  0  0  0  0  0  0  0  0  0  0  0
  -25.9470  -34.8410   23.3870 C   0  0  0  0  0  0  0  0  0  0  0  0
  -26.6100  -34.8120   22.3460 O   0  0  0  0  0  0  0  0  0  0  0  0
  -25.0660  -33.8290   24.9040 H   0  0  0  0  0  0  0  0  0  0  0  0
  -24.1500  -36.5850   23.1470 C   0  0  0  0  0  1  0  0  0  0  0  0
  -25.4170  -36.1860   23.9200 C   0  0  0  0  0  3  0  0  0  0  0  0
  -27.5320  -37.1040   24.7660 C   0  0  0  0  0  1  0  0  0  0  0  0
  -26.4120  -37.2800   23.8460 N   0  0  0  0  0  0  0  0  0  0  0  0
  -25.9750  -38.1770   24.0440 H   0  0  0  0  0  0  0  0  0  0  0  0
  1  4  1  0
  2  1  1  0
  2  5  1  0
  3 47  1  0
  4 15  1  0
  4  3  1  0
  5  6  1  1
  5  3  1  0
  7 16  1  0
  8 13  1  0
  9 10  1  0
  9  8  1  0
 11 10  1  0
 11 22  1  0
 11 12  1  0
 13  7  1  0
 13 12  1  0
 14  7  2  0
 15 17  2  0
 16 15  1  0
 16 18  1  0
 19 20  2  0
 20 39  1  0
 21 20  1  0
 21 24  1  0
 22 19  1  0
 22 23  1  0
 23 21  2  0
 24 25  1  0
 25 26  2  0
 27 30  1  0
 27 26  1  0
 28 27  2  0
 29 28  1  0
 29 24  2  0
 30 31  1  0
 31 36  2  0
 31 32  1  0
 32 33  2  0
 33 34  1  0
 34 38  1  0
 35 34  2  0
 36 35  1  0
 37 36  1  0
 39 40  1  0
 40 43  1  0
 40 42  1  0
 41 39  2  0
 44 45  1  0
 44 19  1  0
 46 44  1  0
 47 49  2  0
 47 48  1  0
 50  5  1  0
 51 50  1  0
 51 52  1  0
 53 55  1  0
 53 52  1  0
 54 65  2  0
 55 60  1  0
 56 64  1  0
 56 66  1  0
 57 63  1  0
 57 59  1  0
 58 64  1  0
 59 58  1  0
 60 59  2  0
 61 62  1  0
 61 55  2  0
 62 57  2  0
 63 56  1  0
 64 54  1  0
 66 68  2  0
 67 66  1  0
 69 67  1  0
 70 79  2  0
 70 75  1  0
 71 67  1  0
 71 75  1  0
 72 71  1  0
 73 74  1  0
 73 72  1  0
 74 70  1  0
 75 76  2  0
 76 77  1  0
 78 77  2  0
 79 78  1  0
 80 54  1  0
 80 85  1  0
 80 81  1  0
 81 84  1  1
 81 82  1  0
 83 81  1  0
 85 88  1  0
 86 90  1  0
 86 85  1  0
 87 86  2  0
 90 89  1  0
 92 90  1  0
 92 93  1  0
 92 91  1  0
M  ISO  4   7 100  16 100  52 101  53 101
M  END
>  <TORSDO>  (39) 
F 20

>  <SCORE>  (39) 
-12.587

>  <name>  (39) 
38

>  <ligand_id>  (39) 
38

>  <original_smiles>  (39) 
[H]c1c([H])c([H])c2c(c1[H])C([H])([H])C([H])([H])C([H])([H])C2([H])N([H])C(=O)C1([H])N(C(=O)C([H])(N([H])C(=O)C([H])(N([H])C([H])([H])[H])C([H])([H])[H])C(C([H])([H])[H])(C([H])([H])[H])C([H])([H])[H])C([H])([H])c2c([H])c(OC([H])([H])C([H])([H])C([H])([H])[N+]3([H])C([H])([H])C([H])([H])C([H])(C(=O)N([H])C(=O)N4C([H])([H])C([H])([H])C([H])([H])C([H])(n5nc(-c6c([H])c([H])c(Oc7c([H])c([H])c(F)c([H])c7F)c([H])c6[H])c(C(=O)N([H])[H])c5N([H])[H])C4([H])[H])C3([H])C(=O)C([H])([H])[H])c([H])c([H])c2C1([H])[H]

>  <smiles>  (39) 
[H]c1c([H])c([H])c2c(c1[H])C([H])([H])C([H])([H])C([H])([H])C2([H])N([H])C(=O)C1([H])N(C(=O)C([H])(N([H])C(=O)C([H])(N([H])C([H])([H])[H])C([H])([H])[H])C(C([H])([H])[H])(C([H])([H])[H])C([H])([H])[H])C([H])([H])c2c([H])c(OC([H])([H])C([H])([H])C([H])([H])[N+]3([H])C([H])([H])C([H])([H])C([H])(C(=O)N([H])C(=O)N4C([H])([H])C([H])([H])C([H])([H])C([H])(n5nc(-c6c([H])c([H])c(Oc7c([H])c([H])c(F)c([H])c7F)c([H])c6[H])c(C(=O)N([H])[H])c5N([H])[H])C4([H])[H])C3([H])C(=O)C([H])([H])[H])c([H])c([H])c2C1([H])[H]

$$$$
39:0:0
     RDKit          3D

 96105  0  0  1  0  0  0  0  0999 V2000
  -28.7220  -20.2590   21.3710 C   0  0  0  0  0  2  0  0  0  0  0  0
  -30.9840  -21.0650   21.2080 C   0  0  0  0  0  2  0  0  0  0  0  0
  -29.3870  -18.0190   20.2780 C   0  0  0  0  0  2  0  0  0  0  0  0
  -31.8070  -17.3180   20.8920 C   0  0  0  0  0  2  0  0  0  0  0  0
  -29.6160  -21.4310   21.8030 C   0  0  0  0  0  3  0  0  0  0  0  0
  -29.6310  -19.0080   21.4330 C   0  0  0  0  0  3  0  0  0  0  0  0
  -30.5140  -16.9710   20.1140 C   0  0  0  0  0  3  0  0  0  0  0  0
  -31.0790  -19.5650   21.5300 C   0  0  0  0  0  3  0  0  0  0  0  0
  -32.5230  -19.2300   19.4750 C   0  0  0  0  0  1  0  0  0  0  0  0
  -32.1220  -18.7640   20.8260 N   0  0  2  0  0  4  0  0  0  0  0  0
  -32.9600  -18.8720   21.3820 H   0  0  0  0  0  0  0  0  0  0  0  0
  -30.7210  -14.5180   19.9520 C   0  0  0  0  0  0  0  0  0  0  0  0
  -30.3330  -12.3260   18.9380 C   0  0  0  0  0  2  0  0  0  0  0  0
  -29.3350  -12.4930   17.7770 C   0  0  0  0  0  2  0  0  0  0  0  0
  -27.8860  -12.3820   18.2900 C   0  0  0  0  0  2  0  0  0  0  0  0
  -27.6140  -13.2690   19.5360 C   0  0  0  0  0  3  0  0  0  0  0  0
  -28.7300  -13.1090   20.5950 C   0  0  0  0  0  2  0  0  0  0  0  0
  -30.0220  -13.3570   19.9370 N   0  0  0  0  0  0  0  0  0  0  0  0
  -31.8260  -14.6500   19.4210 O   0  0  0  0  0  0  0  0  0  0  0  0
  -30.0630  -15.5990   20.3960 N   0  0  0  0  0  0  0  0  0  0  0  0
  -29.1530  -15.4590   20.8090 H   0  0  0  0  0  0  0  0  0  0  0  0
  -25.2830  -13.8910   20.4320 C   0  0  0  0  0  0  0  0  0  0  0  0
  -24.2270  -13.1230   20.8430 C   0  0  0  0  0  0  0  0  0  0  0  0
  -24.6580  -11.7650   20.7330 C   0  0  0  0  0  0  0  0  0  0  0  0
  -26.2920  -13.0020   20.0980 N   0  0  0  0  0  0  0  0  0  0  0  0
  -25.9230  -11.7160   20.3360 N   0  0  0  0  0  0  0  0  0  0  0  0
  -23.9210  -10.5080   20.9240 C   0  0  0  0  0  0  0  0  0  0  0  0
  -24.3360   -9.5460   21.8700 C   0  0  0  0  0  3  0  0  0  0  0  0
  -23.6010   -8.3550   22.0510 C   0  0  0  0  0  3  0  0  0  0  0  0
  -22.4370   -8.1170   21.2830 C   0  0  0  0  0  0  0  0  0  0  0  0
  -22.0390   -9.0680   20.3270 C   0  0  0  0  0  3  0  0  0  0  0  0
  -22.7750  -10.2510   20.1450 C   0  0  0  0  0  3  0  0  0  0  0  0
  -21.6750   -6.9760   21.3700 O   0  0  0  0  0  0  0  0  0  0  0  0
  -21.5440   -6.2870   22.5480 C   0  0  0  0  0  0  0  0  0  0  0  0
  -21.0030   -6.8880   23.7060 C   0  0  0  0  0  3  0  0  0  0  0  0
  -20.8200   -6.1230   24.8760 C   0  0  0  0  0  3  0  0  0  0  0  0
  -21.1690   -4.7590   24.8880 C   0  0  0  0  0  0  0  0  0  0  0  0
  -21.7030   -4.1580   23.7350 C   0  0  0  0  0  3  0  0  0  0  0  0
  -21.8860   -4.9200   22.5670 C   0  0  0  0  0  0  0  0  0  0  0  0
  -22.3820   -4.3310   21.4530 F   0  0  0  0  0  0  0  0  0  0  0  0
  -20.9860   -4.0240   26.0090 F   0  0  0  0  0  0  0  0  0  0  0  0
  -22.8600  -13.6140   21.2270 C   0  0  0  0  0  0  0  0  0  0  0  0
  -22.1770  -12.8970   22.1120 N   0  0  0  0  0  0  0  0  0  0  0  0
  -22.4100  -14.6670   20.7770 O   0  0  0  0  0  0  0  0  0  0  0  0
  -22.5560  -12.0470   22.5020 H   0  0  0  0  0  0  0  0  0  0  0  0
  -21.2610  -13.2060   22.4070 H   0  0  0  0  0  0  0  0  0  0  0  0
  -25.4590  -15.2650   20.2950 N   0  0  0  0  0  0  0  0  0  0  0  0
  -24.7060  -15.9190   20.4780 H   0  0  0  0  0  0  0  0  0  0  0  0
  -26.2810  -15.7030   19.9010 H   0  0  0  0  0  0  0  0  0  0  0  0
  -29.0640  -22.8160   21.4380 C   0  0  0  0  0  0  0  0  0  0  0  0
  -29.8320  -23.6120   20.6820 N   0  0  0  0  0  0  0  0  0  0  0  0
  -27.9790  -23.1700   21.8990 O   0  0  0  0  0  0  0  0  0  0  0  0
  -30.6980  -23.2060   20.3520 H   0  0  0  0  0  0  0  0  0  0  0  0
  -29.6950  -25.0520   20.4810 C   0  0  0  0  0  2  0  0  0  0  0  0
  -28.3810  -25.5060   19.8260 C   0  0  0  0  0  2  0  0  0  0  0  0
  -28.4080  -26.9300   19.8100 O   0  0  0  0  0  0  0  0  0  0  0  0
  -24.4350  -31.7770   23.1290 C   0  0  0  0  0  0  0  0  0  0  0  0
  -27.1940  -27.5720   19.8520 C   0  0  0  0  0  0  0  0  0  0  0  0
  -23.2510  -30.3820   21.4650 C   0  0  0  0  0  3  0  0  0  0  0  0
  -24.7350  -28.9510   19.9640 C   0  0  0  0  0  0  0  0  0  0  0  0
  -25.7520  -30.8560   21.2270 C   0  0  0  0  0  2  0  0  0  0  0  0
  -25.8790  -29.5120   20.5420 C   0  0  0  0  0  0  0  0  0  0  0  0
  -27.1110  -28.8300   20.4820 C   0  0  0  0  0  3  0  0  0  0  0  0
  -26.0330  -27.0170   19.2680 C   0  0  0  0  0  3  0  0  0  0  0  0
  -24.8040  -27.7020   19.3240 C   0  0  0  0  0  3  0  0  0  0  0  0
  -23.4570  -29.7500   20.0620 C   0  0  0  0  0  2  0  0  0  0  0  0
  -24.4990  -31.0170   21.9990 N   0  0  0  0  0  0  0  0  0  0  0  0
  -23.3550  -31.9890   23.6970 O   0  0  0  0  0  0  0  0  0  0  0  0
  -22.6610  -29.3050   22.4030 C   0  0  0  0  0  0  0  0  0  0  0  0
  -21.3500  -29.0530   22.2710 N   0  0  0  0  0  0  0  0  0  0  0  0
  -23.3820  -28.7000   23.2040 O   0  0  0  0  0  0  0  0  0  0  0  0
  -20.8280  -29.5980   21.5990 H   0  0  0  0  0  0  0  0  0  0  0  0
  -18.0500  -27.6540   22.7140 C   0  0  0  0  0  0  0  0  0  0  0  0
  -20.5840  -28.0570   23.0190 C   0  0  0  0  0  3  0  0  0  0  0  0
  -20.7770  -26.6440   22.4200 C   0  0  0  0  0  2  0  0  0  0  0  0
  -19.7050  -26.2730   21.3910 C   0  0  0  0  0  2  0  0  0  0  0  0
  -18.3120  -26.3270   22.0230 C   0  0  0  0  0  2  0  0  0  0  0  0
  -19.1170  -28.4740   23.1670 C   0  0  0  0  0  0  0  0  0  0  0  0
  -18.8190  -29.7140   23.7720 C   0  0  0  0  0  3  0  0  0  0  0  0
  -17.4860  -30.1360   23.9320 C   0  0  0  0  0  3  0  0  0  0  0  0
  -16.4320  -29.3140   23.4980 C   0  0  0  0  0  3  0  0  0  0  0  0
  -16.7150  -28.0750   22.8930 C   0  0  0  0  0  3  0  0  0  0  0  0
  -25.7080  -32.4380   23.7470 C   0  0  0  0  0  3  0  0  0  0  0  0
  -26.2550  -31.6700   25.0120 C   0  0  1  0  0  0  0  0  0  0  0  0
  -25.1750  -31.3920   26.0820 C   0  0  0  0  0  1  0  0  0  0  0  0
  -26.8810  -30.3170   24.6020 C   0  0  0  0  0  1  0  0  0  0  0  0
  -27.3820  -32.4950   25.6770 C   0  0  0  0  0  1  0  0  0  0  0  0
  -25.3670  -33.8240   24.0840 N   0  0  0  0  0  0  0  0  0  0  0  0
  -25.6540  -34.8860   23.3220 C   0  0  0  0  0  0  0  0  0  0  0  0
  -26.3080  -34.8040   22.2780 O   0  0  0  0  0  0  0  0  0  0  0  0
  -24.7830  -33.9610   24.8980 H   0  0  0  0  0  0  0  0  0  0  0  0
  -23.8610  -36.6210   23.0140 C   0  0  0  0  0  1  0  0  0  0  0  0
  -25.1350  -36.2590   23.7930 C   0  0  0  0  0  3  0  0  0  0  0  0
  -27.2560  -37.2160   24.5730 C   0  0  0  0  0  1  0  0  0  0  0  0
  -26.1290  -37.3430   23.6520 N   0  0  0  0  0  0  0  0  0  0  0  0
  -25.6960  -38.2500   23.8050 H   0  0  0  0  0  0  0  0  0  0  0  0
  1  6  1  0
  1  5  1  0
  2  5  1  0
  5 50  1  0
  6  3  1  0
  6  8  1  0
  7  3  1  0
  7 20  1  0
  7  4  1  0
  8  2  1  0
  9 10  1  0
 10  4  1  0
 10 11  1  1
 10  8  1  0
 12 20  1  0
 13 18  1  0
 14 15  1  0
 14 13  1  0
 16 15  1  0
 16 25  1  0
 16 17  1  0
 18 12  1  0
 18 17  1  0
 19 12  2  0
 20 21  1  0
 22 23  2  0
 23 42  1  0
 24 23  1  0
 24 27  1  0
 25 26  1  0
 25 22  1  0
 26 24  2  0
 27 28  1  0
 28 29  2  0
 30 33  1  0
 30 29  1  0
 31 30  2  0
 32 31  1  0
 32 27  2  0
 33 34  1  0
 34 39  2  0
 34 35  1  0
 35 36  2  0
 36 37  1  0
 37 41  1  0
 38 37  2  0
 39 38  1  0
 40 39  1  0
 42 43  1  0
 43 46  1  0
 43 45  1  0
 44 42  2  0
 47 22  1  0
 47 48  1  0
 49 47  1  0
 50 52  2  0
 51 50  1  0
 53 51  1  0
 54 51  1  0
 55 54  1  0
 56 55  1  0
 56 58  1  0
 57 68  2  0
 58 63  1  0
 59 67  1  0
 59 69  1  0
 60 66  1  0
 60 62  1  0
 61 67  1  0
 62 61  1  0
 63 62  2  0
 64 65  1  0
 64 58  2  0
 65 60  2  0
 66 59  1  0
 67 57  1  0
 69 71  2  0
 70 69  1  0
 72 70  1  0
 73 82  2  0
 73 78  1  0
 74 70  1  0
 74 78  1  0
 75 74  1  0
 76 77  1  0
 76 75  1  0
 77 73  1  0
 78 79  2  0
 79 80  1  0
 81 80  2  0
 82 81  1  0
 83 57  1  0
 83 88  1  0
 83 84  1  0
 84 87  1  1
 84 85  1  0
 86 84  1  0
 88 91  1  0
 89 93  1  0
 89 88  1  0
 90 89  2  0
 93 92  1  0
 95 93  1  0
 95 96  1  0
 95 94  1  0
M  ISO  4  12 100  20 100  55 101  56 101
M  END
>  <TORSDO>  (40) 
F 19

>  <SCORE>  (40) 
-13.407

>  <name>  (40) 
39

>  <ligand_id>  (40) 
39

>  <original_smiles>  (40) 
[H]c1c([H])c([H])c2c(c1[H])C([H])([H])C([H])([H])C([H])([H])C2([H])N([H])C(=O)C1([H])N(C(=O)C([H])(N([H])C(=O)C([H])(N([H])C([H])([H])[H])C([H])([H])[H])C(C([H])([H])[H])(C([H])([H])[H])C([H])([H])[H])C([H])([H])c2c([H])c(OC([H])([H])C([H])([H])N([H])C(=O)C3([H])C([H])([H])C4([H])C([H])([H])C([H])(N([H])C(=O)N5C([H])([H])C([H])([H])C([H])([H])C([H])(n6nc(-c7c([H])c([H])c(Oc8c([H])c([H])c(F)c([H])c8F)c([H])c7[H])c(C(=O)N([H])[H])c6N([H])[H])C5([H])[H])C([H])([H])[N+]([H])(C([H])([H])[H])C4([H])C3([H])[H])c([H])c([H])c2C1([H])[H]

>  <smiles>  (40) 
[H]c1c([H])c([H])c2c(c1[H])C([H])([H])C([H])([H])C([H])([H])C2([H])N([H])C(=O)C1([H])N(C(=O)C([H])(N([H])C(=O)C([H])(N([H])C([H])([H])[H])C([H])([H])[H])C(C([H])([H])[H])(C([H])([H])[H])C([H])([H])[H])C([H])([H])c2c([H])c(OC([H])([H])C([H])([H])N([H])C(=O)C3([H])C([H])([H])C4([H])C([H])([H])C([H])(N([H])C(=O)N5C([H])([H])C([H])([H])C([H])([H])C([H])(n6nc(-c7c([H])c([H])c(Oc8c([H])c([H])c(F)c([H])c8F)c([H])c7[H])c(C(=O)N([H])[H])c6N([H])[H])C5([H])[H])C([H])([H])[N+]([H])(C([H])([H])[H])C4([H])C3([H])[H])c([H])c([H])c2C1([H])[H]

$$$$
40:0:0
     RDKit          3D

 97106  0  0  1  0  0  0  0  0999 V2000
  -29.7700  -21.7420   19.4750 C   0  0  0  0  0  0  0  0  0  0  0  0
  -33.0400  -20.0130   19.8450 C   0  0  0  0  0  2  0  0  0  0  0  0
  -32.3210  -20.0150   18.4570 C   0  0  0  0  0  2  0  0  0  0  0  0
  -32.1100  -20.1770   21.0860 C   0  0  0  0  0  2  0  0  0  0  0  0
  -30.4720  -18.2020   18.8740 C   0  0  0  0  0  2  0  0  0  0  0  0
  -30.7870  -18.1240   20.3640 C   0  0  0  0  0  3  0  0  0  0  0  0
  -30.7990  -19.6720   18.5080 C   0  0  0  0  0  3  0  0  0  0  0  0
  -30.6850  -19.6570   20.7930 C   0  0  0  0  0  3  0  0  0  0  0  0
  -30.2520  -20.4540   19.6140 N   0  0  0  0  0  0  0  0  0  0  0  0
  -29.6880  -22.2640   18.3600 O   0  0  0  0  0  0  0  0  0  0  0  0
  -29.2820  -22.6090   20.6740 C   0  0  0  0  0  2  0  0  0  0  0  0
  -29.4630  -24.2000   20.5890 C   0  0  0  0  0  3  0  0  0  0  0  0
  -29.8970  -24.7210   21.9080 N   0  0  0  0  0  4  0  0  0  0  0  0
  -29.2030  -24.5470   22.6160 H   0  0  0  0  0  0  0  0  0  0  0  0
  -30.0350  -25.7170   21.8560 H   0  0  0  0  0  0  0  0  0  0  0  0
  -30.7620  -24.3070   22.2030 H   0  0  0  0  0  0  0  0  0  0  0  0
  -28.2320  -25.0620   20.0870 C   0  0  0  0  0  2  0  0  0  0  0  0
  -28.3710  -26.5250   20.2130 O   0  0  0  0  0  0  0  0  0  0  0  0
  -24.5960  -31.8610   23.2290 C   0  0  0  0  0  0  0  0  0  0  0  0
  -27.2200  -27.3240   20.1660 C   0  0  0  0  0  0  0  0  0  0  0  0
  -23.3860  -30.4580   21.5940 C   0  0  0  0  0  3  0  0  0  0  0  0
  -24.8350  -28.9050   20.1650 C   0  0  0  0  0  0  0  0  0  0  0  0
  -25.9220  -30.7850   21.3990 C   0  0  0  0  0  2  0  0  0  0  0  0
  -26.0010  -29.4070   20.7560 C   0  0  0  0  0  0  0  0  0  0  0  0
  -27.1940  -28.6280   20.7450 C   0  0  0  0  0  3  0  0  0  0  0  0
  -26.0260  -26.8650   19.5580 C   0  0  0  0  0  3  0  0  0  0  0  0
  -24.8490  -27.6380   19.5590 C   0  0  0  0  0  3  0  0  0  0  0  0
  -23.5940  -29.7730   20.2150 C   0  0  0  0  0  2  0  0  0  0  0  0
  -24.6530  -31.0520   22.1310 N   0  0  0  0  0  0  0  0  0  0  0  0
  -23.5150  -32.1380   23.7680 O   0  0  0  0  0  0  0  0  0  0  0  0
  -22.7280  -29.4430   22.5590 C   0  0  0  0  0  0  0  0  0  0  0  0
  -21.4020  -29.2670   22.4360 N   0  0  0  0  0  0  0  0  0  0  0  0
  -23.4110  -28.8180   23.3750 O   0  0  0  0  0  0  0  0  0  0  0  0
  -20.9120  -29.8240   21.7500 H   0  0  0  0  0  0  0  0  0  0  0  0
  -18.0250  -28.0720   22.9430 C   0  0  0  0  0  0  0  0  0  0  0  0
  -20.5850  -28.3300   23.2100 C   0  0  0  0  0  3  0  0  0  0  0  0
  -20.6840  -26.8980   22.6370 C   0  0  0  0  0  2  0  0  0  0  0  0
  -19.5800  -26.5730   21.6260 C   0  0  0  0  0  2  0  0  0  0  0  0
  -18.1990  -26.7220   22.2700 C   0  0  0  0  0  2  0  0  0  0  0  0
  -19.1460  -28.8350   23.3700 C   0  0  0  0  0  0  0  0  0  0  0  0
  -18.9280  -30.0990   23.9580 C   0  0  0  0  0  3  0  0  0  0  0  0
  -17.6240  -30.6030   24.1230 C   0  0  0  0  0  3  0  0  0  0  0  0
  -16.5180  -29.8370   23.7130 C   0  0  0  0  0  3  0  0  0  0  0  0
  -16.7200  -28.5740   23.1290 C   0  0  0  0  0  3  0  0  0  0  0  0
  -25.8820  -32.4930   23.8470 C   0  0  0  0  0  3  0  0  0  0  0  0
  -25.5720  -33.8900   24.1810 N   0  0  0  0  0  0  0  0  0  0  0  0
  -25.8980  -34.9440   23.4230 C   0  0  0  0  0  0  0  0  0  0  0  0
  -26.5620  -34.8450   22.3880 O   0  0  0  0  0  0  0  0  0  0  0  0
  -24.9770  -34.0410   24.9830 H   0  0  0  0  0  0  0  0  0  0  0  0
  -24.1640  -36.7360   23.0890 C   0  0  0  0  0  1  0  0  0  0  0  0
  -25.4120  -36.3310   23.8880 C   0  0  0  0  0  3  0  0  0  0  0  0
  -27.5520  -37.2160   24.7040 C   0  0  0  0  0  1  0  0  0  0  0  0
  -26.4400  -37.3860   23.7700 N   0  0  0  0  0  0  0  0  0  0  0  0
  -26.0340  -38.3050   23.9260 H   0  0  0  0  0  0  0  0  0  0  0  0
  -26.4040  -31.7190   25.1200 C   0  0  1  0  0  0  0  0  0  0  0  0
  -25.3160  -31.4820   26.1950 C   0  0  0  0  0  1  0  0  0  0  0  0
  -26.9810  -30.3420   24.7230 C   0  0  0  0  0  1  0  0  0  0  0  0
  -27.5570  -32.5120   25.7780 C   0  0  0  0  0  1  0  0  0  0  0  0
  -30.0910  -17.0530   21.2910 C   0  0  0  0  0  2  0  0  0  0  0  0
  -30.6300  -14.5970   20.4700 C   0  0  0  0  0  0  0  0  0  0  0  0
  -30.3870  -12.3850   19.3540 C   0  0  0  0  0  2  0  0  0  0  0  0
  -29.4460  -12.5480   18.1420 C   0  0  0  0  0  2  0  0  0  0  0  0
  -27.9660  -12.4120   18.5590 C   0  0  0  0  0  2  0  0  0  0  0  0
  -27.6150  -13.2500   19.8190 C   0  0  0  0  0  3  0  0  0  0  0  0
  -28.6750  -13.0510   20.9260 C   0  0  0  0  0  2  0  0  0  0  0  0
  -29.9880  -13.3900   20.3530 N   0  0  0  0  0  0  0  0  0  0  0  0
  -31.7890  -14.7650   20.0940 O   0  0  0  0  0  0  0  0  0  0  0  0
  -29.8420  -15.6330   20.8680 N   0  0  0  0  0  0  0  0  0  0  0  0
  -28.9030  -15.3260   21.0730 H   0  0  0  0  0  0  0  0  0  0  0  0
  -25.2150  -13.8610   20.5160 C   0  0  0  0  0  0  0  0  0  0  0  0
  -24.1420  -13.0940   20.8840 C   0  0  0  0  0  0  0  0  0  0  0  0
  -24.5960  -11.7410   20.8570 C   0  0  0  0  0  0  0  0  0  0  0  0
  -26.2590  -12.9750   20.2930 N   0  0  0  0  0  0  0  0  0  0  0  0
  -25.8900  -11.6940   20.5570 N   0  0  0  0  0  0  0  0  0  0  0  0
  -23.8620  -10.4820   21.0540 C   0  0  0  0  0  0  0  0  0  0  0  0
  -24.2980   -9.5130   21.9830 C   0  0  0  0  0  3  0  0  0  0  0  0
  -23.5710   -8.3160   22.1650 C   0  0  0  0  0  3  0  0  0  0  0  0
  -22.3930   -8.0810   21.4170 C   0  0  0  0  0  0  0  0  0  0  0  0
  -21.9740   -9.0380   20.4770 C   0  0  0  0  0  3  0  0  0  0  0  0
  -22.7010  -10.2280   20.2950 C   0  0  0  0  0  3  0  0  0  0  0  0
  -21.6400   -6.9370   21.5070 O   0  0  0  0  0  0  0  0  0  0  0  0
  -21.6030   -6.1840   22.6540 C   0  0  0  0  0  0  0  0  0  0  0  0
  -21.2070   -6.7310   23.8920 C   0  0  0  0  0  3  0  0  0  0  0  0
  -21.1220   -5.9060   25.0320 C   0  0  0  0  0  3  0  0  0  0  0  0
  -21.4190   -4.5340   24.9330 C   0  0  0  0  0  0  0  0  0  0  0  0
  -21.8060   -3.9850   23.6970 C   0  0  0  0  0  3  0  0  0  0  0  0
  -21.8950   -4.8070   22.5600 C   0  0  0  0  0  0  0  0  0  0  0  0
  -22.2500   -4.2690   21.3680 F   0  0  0  0  0  0  0  0  0  0  0  0
  -21.3280   -3.7410   26.0250 F   0  0  0  0  0  0  0  0  0  0  0  0
  -22.7440  -13.5780   21.1510 C   0  0  0  0  0  0  0  0  0  0  0  0
  -22.0090  -12.8880   22.0180 N   0  0  0  0  0  0  0  0  0  0  0  0
  -22.3110  -14.6010   20.6220 O   0  0  0  0  0  0  0  0  0  0  0  0
  -22.3660  -12.0610   22.4720 H   0  0  0  0  0  0  0  0  0  0  0  0
  -21.0700  -13.1950   22.2310 H   0  0  0  0  0  0  0  0  0  0  0  0
  -25.3870  -15.2290   20.3280 N   0  0  0  0  0  0  0  0  0  0  0  0
  -24.6190  -15.8890   20.4000 H   0  0  0  0  0  0  0  0  0  0  0  0
  -26.2340  -15.6510   19.9720 H   0  0  0  0  0  0  0  0  0  0  0  0
  1  9  1  0
  1 11  1  0
  2  4  1  0
  3  2  1  0
  5  6  1  0
  6  8  1  0
  6 59  1  0
  7  3  1  0
  7  5  1  0
  7  9  1  0
  8  4  1  0
  9  8  1  0
 10  1  2  0
 12 17  1  0
 12 11  1  0
 12 13  1  0
 13 16  1  0
 13 14  1  0
 15 13  1  0
 17 18  1  0
 19 30  2  0
 20 18  1  0
 20 25  1  0
 21 29  1  0
 21 31  1  0
 22 28  1  0
 22 24  1  0
 23 29  1  0
 24 23  1  0
 25 24  2  0
 26 27  1  0
 26 20  2  0
 27 22  2  0
 28 21  1  0
 29 19  1  0
 31 33  2  0
 32 31  1  0
 34 32  1  0
 35 44  2  0
 35 40  1  0
 36 32  1  0
 36 40  1  0
 37 36  1  0
 38 39  1  0
 38 37  1  0
 39 35  1  0
 40 41  2  0
 41 42  1  0
 43 42  2  0
 44 43  1  0
 45 19  1  0
 45 46  1  0
 45 55  1  0
 46 49  1  0
 47 51  1  0
 47 46  1  0
 48 47  2  0
 51 50  1  0
 53 51  1  0
 53 54  1  0
 53 52  1  0
 55 58  1  1
 55 56  1  0
 57 55  1  0
 60 68  1  0
 61 66  1  0
 62 63  1  0
 62 61  1  0
 64 63  1  0
 64 73  1  0
 64 65  1  0
 66 60  1  0
 66 65  1  0
 67 60  2  0
 68 69  1  0
 68 59  1  0
 70 71  2  0
 71 90  1  0
 72 71  1  0
 72 75  1  0
 73 70  1  0
 73 74  1  0
 74 72  2  0
 75 76  1  0
 76 77  2  0
 78 81  1  0
 78 77  1  0
 79 78  2  0
 80 79  1  0
 80 75  2  0
 81 82  1  0
 82 83  1  0
 83 84  2  0
 85 84  1  0
 85 89  1  0
 86 85  2  0
 87 82  2  0
 87 86  1  0
 88 87  1  0
 90 91  1  0
 91 94  1  0
 91 93  1  0
 92 90  2  0
 95 96  1  0
 95 70  1  0
 97 95  1  0
M  ISO  4  17 101  18 101  60 100  68 100
M  END
>  <TORSDO>  (41) 
F 21

>  <SCORE>  (41) 
-13.926

>  <name>  (41) 
40

>  <ligand_id>  (41) 
40

>  <original_smiles>  (41) 
[H]c1c([H])c([H])c2c(c1[H])C([H])([H])C([H])([H])C([H])([H])C2([H])N([H])C(=O)C1([H])N(C(=O)C([H])(N([H])C(=O)C([H])(N([H])C([H])([H])[H])C([H])([H])[H])C(C([H])([H])[H])(C([H])([H])[H])C([H])([H])[H])C([H])([H])c2c([H])c(OC([H])([H])C([H])(C([H])([H])C(=O)N3C4([H])C([H])([H])C([H])([H])C([H])([H])C3([H])C([H])(C([H])([H])N([H])C(=O)N3C([H])([H])C([H])([H])C([H])([H])C([H])(n5nc(-c6c([H])c([H])c(Oc7c([H])c([H])c(F)c([H])c7F)c([H])c6[H])c(C(=O)N([H])[H])c5N([H])[H])C3([H])[H])C4([H])[H])[N+]([H])([H])[H])c([H])c([H])c2C1([H])[H]

>  <smiles>  (41) 
[H]c1c([H])c([H])c2c(c1[H])C([H])([H])C([H])([H])C([H])([H])C2([H])N([H])C(=O)C1([H])N(C(=O)C([H])(N([H])C(=O)C([H])(N([H])C([H])([H])[H])C([H])([H])[H])C(C([H])([H])[H])(C([H])([H])[H])C([H])([H])[H])C([H])([H])c2c([H])c(OC([H])([H])C([H])(C([H])([H])C(=O)N3C4([H])C([H])([H])C([H])([H])C([H])([H])C3([H])C([H])(C([H])([H])N([H])C(=O)N3C([H])([H])C([H])([H])C([H])([H])C([H])(n5nc(-c6c([H])c([H])c(Oc7c([H])c([H])c(F)c([H])c7F)c([H])c6[H])c(C(=O)N([H])[H])c5N([H])[H])C3([H])[H])C4([H])[H])[N+]([H])([H])[H])c([H])c([H])c2C1([H])[H]

$$$$
41:0:0
     RDKit          3D

 94102  0  0  1  0  0  0  0  0999 V2000
  -29.9630  -22.7340   20.3340 C   0  0  0  0  0  0  0  0  0  0  0  0
  -30.4350  -23.8410   19.7510 N   0  0  0  0  0  0  0  0  0  0  0  0
  -29.0930  -22.7480   21.2080 O   0  0  0  0  0  0  0  0  0  0  0  0
  -31.1470  -23.7320   19.0400 H   0  0  0  0  0  0  0  0  0  0  0  0
  -30.5710  -21.4210   19.8600 C   0  0  0  0  0  2  0  0  0  0  0  0
  -28.7630  -18.3040   20.8680 C   0  0  0  0  0  2  0  0  0  0  0  0
  -29.4770  -19.6090   21.2210 C   0  0  0  0  0  2  0  0  0  0  0  0
  -29.4370  -17.8830   19.5560 C   0  0  0  0  0  3  0  0  0  0  0  0
  -29.8990  -19.2270   18.9280 C   0  0  0  0  0  3  0  0  0  0  0  0
  -29.2780  -19.5130   17.5500 C   0  0  0  0  0  1  0  0  0  0  0  0
  -29.6110  -20.2910   19.9180 N   0  0  2  0  0  4  0  0  0  0  0  0
  -28.7010  -20.6780   19.7130 H   0  0  0  0  0  0  0  0  0  0  0  0
  -30.6380  -16.9410   19.7950 C   0  0  0  0  0  2  0  0  0  0  0  0
  -30.9510  -14.5010   19.8390 C   0  0  0  0  0  0  0  0  0  0  0  0
  -30.5350  -12.2960   18.8660 C   0  0  0  0  0  2  0  0  0  0  0  0
  -29.5260  -12.4710   17.7150 C   0  0  0  0  0  2  0  0  0  0  0  0
  -28.0760  -12.4030   18.2350 C   0  0  0  0  0  2  0  0  0  0  0  0
  -27.8430  -13.3070   19.4750 C   0  0  0  0  0  3  0  0  0  0  0  0
  -28.9610  -13.1260   20.5250 C   0  0  0  0  0  2  0  0  0  0  0  0
  -30.2530  -13.3420   19.8570 N   0  0  0  0  0  0  0  0  0  0  0  0
  -32.0630  -14.6150   19.3140 O   0  0  0  0  0  0  0  0  0  0  0  0
  -30.2560  -15.5900   20.2110 N   0  0  0  0  0  0  0  0  0  0  0  0
  -29.3470  -15.4530   20.6270 H   0  0  0  0  0  0  0  0  0  0  0  0
  -25.5530  -14.0250   20.3980 C   0  0  0  0  0  0  0  0  0  0  0  0
  -24.4760  -13.3020   20.8290 C   0  0  0  0  0  0  0  0  0  0  0  0
  -24.8500  -11.9270   20.7150 C   0  0  0  0  0  0  0  0  0  0  0  0
  -26.5200  -13.0940   20.0530 N   0  0  0  0  0  0  0  0  0  0  0  0
  -26.1060  -11.8240   20.3010 N   0  0  0  0  0  0  0  0  0  0  0  0
  -24.0680  -10.7030   20.9220 C   0  0  0  0  0  0  0  0  0  0  0  0
  -24.4850   -9.7030   21.8300 C   0  0  0  0  0  3  0  0  0  0  0  0
  -23.7040   -8.5440   22.0240 C   0  0  0  0  0  3  0  0  0  0  0  0
  -22.4940   -8.3750   21.3110 C   0  0  0  0  0  0  0  0  0  0  0  0
  -22.0940   -9.3620   20.3920 C   0  0  0  0  0  3  0  0  0  0  0  0
  -22.8750  -10.5140   20.1950 C   0  0  0  0  0  3  0  0  0  0  0  0
  -21.6850   -7.2670   21.4160 O   0  0  0  0  0  0  0  0  0  0  0  0
  -21.5980   -6.5470   22.5780 C   0  0  0  0  0  0  0  0  0  0  0  0
  -21.1780   -7.1370   23.7900 C   0  0  0  0  0  3  0  0  0  0  0  0
  -21.0370   -6.3450   24.9460 C   0  0  0  0  0  3  0  0  0  0  0  0
  -21.3040   -4.9640   24.8920 C   0  0  0  0  0  0  0  0  0  0  0  0
  -21.7130   -4.3730   23.6840 C   0  0  0  0  0  3  0  0  0  0  0  0
  -21.8570   -5.1620   22.5300 C   0  0  0  0  0  0  0  0  0  0  0  0
  -22.2330   -4.5840   21.3640 F   0  0  0  0  0  0  0  0  0  0  0  0
  -21.1580   -4.2010   26.0010 F   0  0  0  0  0  0  0  0  0  0  0  0
  -23.1360  -13.8450   21.2330 C   0  0  0  0  0  0  0  0  0  0  0  0
  -22.4460  -13.1640   22.1400 N   0  0  0  0  0  0  0  0  0  0  0  0
  -22.7140  -14.9100   20.7800 O   0  0  0  0  0  0  0  0  0  0  0  0
  -22.8050  -12.3030   22.5270 H   0  0  0  0  0  0  0  0  0  0  0  0
  -21.5490  -13.5090   22.4530 H   0  0  0  0  0  0  0  0  0  0  0  0
  -25.7890  -15.3900   20.2560 N   0  0  0  0  0  0  0  0  0  0  0  0
  -25.0690  -16.0810   20.4330 H   0  0  0  0  0  0  0  0  0  0  0  0
  -26.6290  -15.7890   19.8560 H   0  0  0  0  0  0  0  0  0  0  0  0
  -30.0870  -25.2050   20.1160 C   0  0  0  0  0  2  0  0  0  0  0  0
  -28.6460  -25.5920   19.7540 C   0  0  0  0  0  2  0  0  0  0  0  0
  -28.5030  -26.9040   20.2570 O   0  0  0  0  0  0  0  0  0  0  0  0
  -24.5550  -31.9110   23.2810 C   0  0  0  0  0  0  0  0  0  0  0  0
  -27.2750  -27.5150   20.2380 C   0  0  0  0  0  0  0  0  0  0  0  0
  -23.3710  -30.4910   21.6320 C   0  0  0  0  0  3  0  0  0  0  0  0
  -24.8480  -28.9520   20.2360 C   0  0  0  0  0  0  0  0  0  0  0  0
  -25.8900  -30.8770   21.4540 C   0  0  0  0  0  2  0  0  0  0  0  0
  -25.9890  -29.5050   20.8260 C   0  0  0  0  0  0  0  0  0  0  0  0
  -27.2000  -28.7910   20.8290 C   0  0  0  0  0  3  0  0  0  0  0  0
  -26.1150  -26.9530   19.6570 C   0  0  0  0  0  3  0  0  0  0  0  0
  -24.9020  -27.6720   19.6530 C   0  0  0  0  0  3  0  0  0  0  0  0
  -23.5940  -29.7940   20.2620 C   0  0  0  0  0  2  0  0  0  0  0  0
  -24.6220  -31.1080   22.1800 N   0  0  0  0  0  0  0  0  0  0  0  0
  -23.4670  -32.1810   23.8090 O   0  0  0  0  0  0  0  0  0  0  0  0
  -22.7210  -29.4730   22.5950 C   0  0  0  0  0  0  0  0  0  0  0  0
  -21.4030  -29.2650   22.4360 N   0  0  0  0  0  0  0  0  0  0  0  0
  -23.3980  -28.8710   23.4330 O   0  0  0  0  0  0  0  0  0  0  0  0
  -20.9220  -29.8020   21.7280 H   0  0  0  0  0  0  0  0  0  0  0  0
  -18.0460  -28.0080   22.8530 C   0  0  0  0  0  0  0  0  0  0  0  0
  -20.5870  -28.3230   23.1970 C   0  0  0  0  0  3  0  0  0  0  0  0
  -20.7370  -26.8860   22.6480 C   0  0  0  0  0  2  0  0  0  0  0  0
  -19.6750  -26.5230   21.6070 C   0  0  0  0  0  2  0  0  0  0  0  0
  -18.2710  -26.6510   22.2050 C   0  0  0  0  0  2  0  0  0  0  0  0
  -19.1350  -28.8000   23.3030 C   0  0  0  0  0  0  0  0  0  0  0  0
  -18.8750  -30.0700   23.8640 C   0  0  0  0  0  3  0  0  0  0  0  0
  -17.5560  -30.5480   23.9800 C   0  0  0  0  0  3  0  0  0  0  0  0
  -16.4810  -29.7530   23.5470 C   0  0  0  0  0  3  0  0  0  0  0  0
  -16.7260  -28.4850   22.9900 C   0  0  0  0  0  3  0  0  0  0  0  0
  -25.8330  -32.5490   23.9100 C   0  0  0  0  0  3  0  0  0  0  0  0
  -25.5190  -33.9490   24.2260 N   0  0  0  0  0  0  0  0  0  0  0  0
  -25.8660  -34.9950   23.4650 C   0  0  0  0  0  0  0  0  0  0  0  0
  -26.5570  -34.8850   22.4500 O   0  0  0  0  0  0  0  0  0  0  0  0
  -24.9090  -34.1100   25.0150 H   0  0  0  0  0  0  0  0  0  0  0  0
  -24.1500  -36.7840   23.0450 C   0  0  0  0  0  1  0  0  0  0  0  0
  -25.3650  -36.3860   23.9000 C   0  0  0  0  0  3  0  0  0  0  0  0
  -27.4700  -37.2740   24.7970 C   0  0  0  0  0  1  0  0  0  0  0  0
  -26.4030  -37.4360   23.8140 N   0  0  0  0  0  0  0  0  0  0  0  0
  -25.9930  -38.3590   23.9380 H   0  0  0  0  0  0  0  0  0  0  0  0
  -26.3410  -31.7880   25.1970 C   0  0  1  0  0  0  0  0  0  0  0  0
  -25.2380  -31.5570   26.2550 C   0  0  0  0  0  1  0  0  0  0  0  0
  -26.9330  -30.4100   24.8190 C   0  0  0  0  0  1  0  0  0  0  0  0
  -27.4870  -32.5890   25.8630 C   0  0  0  0  0  1  0  0  0  0  0  0
  1  3  2  0
  2 52  1  0
  2  1  1  0
  4  2  1  0
  5 11  1  0
  5  1  1  0
  6  7  1  0
  8 13  1  0
  8  6  1  0
  9 10  1  0
  9  8  1  0
  9 11  1  0
 11  7  1  0
 11 12  1  6
 13 22  1  0
 14 20  1  0
 14 22  1  0
 15 20  1  0
 16 17  1  0
 16 15  1  0
 18 17  1  0
 18 27  1  0
 18 19  1  0
 20 19  1  0
 21 14  2  0
 22 23  1  0
 24 25  2  0
 25 44  1  0
 26 25  1  0
 26 29  1  0
 27 28  1  0
 27 24  1  0
 28 26  2  0
 29 30  1  0
 30 31  2  0
 32 35  1  0
 32 31  1  0
 33 32  2  0
 34 33  1  0
 34 29  2  0
 35 36  1  0
 36 37  1  0
 37 38  2  0
 39 38  1  0
 39 43  1  0
 40 39  2  0
 41 36  2  0
 41 40  1  0
 42 41  1  0
 44 45  1  0
 45 48  1  0
 45 47  1  0
 46 44  2  0
 49 24  1  0
 49 50  1  0
 51 49  1  0
 53 52  1  0
 53 54  1  0
 55 66  2  0
 56 54  1  0
 56 61  1  0
 57 65  1  0
 57 67  1  0
 58 64  1  0
 58 60  1  0
 59 65  1  0
 60 61  2  0
 60 59  1  0
 62 56  2  0
 63 62  1  0
 63 58  2  0
 64 57  1  0
 65 55  1  0
 67 69  2  0
 68 67  1  0
 70 68  1  0
 71 80  2  0
 71 76  1  0
 72 68  1  0
 72 76  1  0
 73 72  1  0
 74 75  1  0
 74 73  1  0
 75 71  1  0
 76 77  2  0
 77 78  1  0
 79 78  2  0
 80 79  1  0
 81 55  1  0
 81 82  1  0
 81 91  1  0
 82 85  1  0
 83 87  1  0
 83 82  1  0
 84 83  2  0
 87 86  1  0
 89 87  1  0
 89 90  1  0
 89 88  1  0
 91 94  1  1
 91 92  1  0
 93 91  1  0
M  ISO  4  14 100  22 100  53 101  54 101
M  END
>  <TORSDO>  (42) 
F 21

>  <SCORE>  (42) 
-12.853

>  <name>  (42) 
41

>  <ligand_id>  (42) 
41

>  <original_smiles>  (42) 
[H]c1c([H])c([H])c2c(c1[H])C([H])([H])C([H])([H])C([H])([H])C2([H])N([H])C(=O)C1([H])N(C(=O)C([H])(N([H])C(=O)C([H])(N([H])C([H])([H])[H])C([H])([H])[H])C(C([H])([H])[H])(C([H])([H])[H])C([H])([H])[H])C([H])([H])c2c([H])c(OC([H])([H])C([H])([H])N([H])C(=O)C([H])([H])[N+]3([H])C([H])([H])C([H])([H])C([H])(C([H])([H])N([H])C(=O)N4C([H])([H])C([H])([H])C([H])([H])C([H])(n5nc(-c6c([H])c([H])c(Oc7c([H])c([H])c(F)c([H])c7F)c([H])c6[H])c(C(=O)N([H])[H])c5N([H])[H])C4([H])[H])C3([H])C([H])([H])[H])c([H])c([H])c2C1([H])[H]

>  <smiles>  (42) 
[H]c1c([H])c([H])c2c(c1[H])C([H])([H])C([H])([H])C([H])([H])C2([H])N([H])C(=O)C1([H])N(C(=O)C([H])(N([H])C(=O)C([H])(N([H])C([H])([H])[H])C([H])([H])[H])C(C([H])([H])[H])(C([H])([H])[H])C([H])([H])[H])C([H])([H])c2c([H])c(OC([H])([H])C([H])([H])N([H])C(=O)C([H])([H])[N+]3([H])C([H])([H])C([H])([H])C([H])(C([H])([H])N([H])C(=O)N4C([H])([H])C([H])([H])C([H])([H])C([H])(n5nc(-c6c([H])c([H])c(Oc7c([H])c([H])c(F)c([H])c7F)c([H])c6[H])c(C(=O)N([H])[H])c5N([H])[H])C4([H])[H])C3([H])C([H])([H])[H])c([H])c([H])c2C1([H])[H]

$$$$
42:0:0
     RDKit          3D

 95103  0  0  1  0  0  0  0  0999 V2000
  -28.7030  -21.6030   22.0370 C   0  0  0  0  0  2  0  0  0  0  0  0
  -29.6600  -17.9730   21.1310 C   0  0  0  0  0  3  0  0  0  0  0  0
  -28.9150  -19.0970   21.5490 C   0  0  0  0  0  3  0  0  0  0  0  0
  -30.7660  -20.5470   20.9610 C   0  0  0  0  0  3  0  0  0  0  0  0
  -30.9730  -18.1170   20.6210 C   0  0  0  0  0  0  0  0  0  0  0  0
  -29.4680  -20.3950   21.4850 C   0  0  0  0  0  0  0  0  0  0  0  0
  -31.5140  -19.4360   20.5160 C   0  0  0  0  0  0  0  0  0  0  0  0
  -32.9000  -19.7230   19.9430 C   0  0  0  0  0  1  0  0  0  0  0  0
  -31.6590  -14.6560   19.4260 C   0  0  0  0  0  0  0  0  0  0  0  0
  -31.1560  -12.4170   18.5110 C   0  0  0  0  0  2  0  0  0  0  0  0
  -30.0350  -12.4820   17.4580 C   0  0  0  0  0  2  0  0  0  0  0  0
  -28.6580  -12.3710   18.1350 C   0  0  0  0  0  2  0  0  0  0  0  0
  -28.5000  -13.3360   19.3390 C   0  0  0  0  0  3  0  0  0  0  0  0
  -29.7220  -13.2690   20.2830 C   0  0  0  0  0  2  0  0  0  0  0  0
  -30.9300  -13.5080   19.4770 N   0  0  0  0  0  0  0  0  0  0  0  0
  -32.6660  -14.7360   18.7160 O   0  0  0  0  0  0  0  0  0  0  0  0
  -31.8050  -16.8920   20.2990 C   0  0  0  0  0  0  0  0  0  0  0  0
  -31.1550  -15.7270   20.0800 N   0  0  0  0  0  0  0  0  0  0  0  0
  -33.0350  -17.0150   20.2500 O   0  0  0  0  0  0  0  0  0  0  0  0
  -30.1950  -15.6760   20.3700 H   0  0  0  0  0  0  0  0  0  0  0  0
  -26.3980  -13.9970   20.6670 C   0  0  0  0  0  0  0  0  0  0  0  0
  -25.3320  -13.2680   21.1160 C   0  0  0  0  0  0  0  0  0  0  0  0
  -25.5930  -11.9140   20.7380 C   0  0  0  0  0  0  0  0  0  0  0  0
  -27.2470  -13.0920   20.0520 N   0  0  0  0  0  0  0  0  0  0  0  0
  -26.7780  -11.8210   20.1500 N   0  0  0  0  0  0  0  0  0  0  0  0
  -24.7560  -10.7120   20.8500 C   0  0  0  0  0  0  0  0  0  0  0  0
  -25.1310   -9.6250   21.6690 C   0  0  0  0  0  3  0  0  0  0  0  0
  -24.3010   -8.4890   21.7760 C   0  0  0  0  0  3  0  0  0  0  0  0
  -23.0800   -8.4340   21.0620 C   0  0  0  0  0  0  0  0  0  0  0  0
  -22.7220   -9.5090   20.2300 C   0  0  0  0  0  3  0  0  0  0  0  0
  -23.5530  -10.6360   20.1210 C   0  0  0  0  0  3  0  0  0  0  0  0
  -22.2220   -7.3600   21.0840 O   0  0  0  0  0  0  0  0  0  0  0  0
  -21.9870   -6.6500   22.2330 C   0  0  0  0  0  0  0  0  0  0  0  0
  -21.4980   -7.2690   23.4050 C   0  0  0  0  0  3  0  0  0  0  0  0
  -21.2030   -6.4900   24.5420 C   0  0  0  0  0  3  0  0  0  0  0  0
  -21.3880   -5.0950   24.5080 C   0  0  0  0  0  0  0  0  0  0  0  0
  -21.8700   -4.4770   23.3410 C   0  0  0  0  0  3  0  0  0  0  0  0
  -22.1660   -5.2520   22.2060 C   0  0  0  0  0  0  0  0  0  0  0  0
  -22.6080   -4.6480   21.0770 F   0  0  0  0  0  0  0  0  0  0  0  0
  -21.0980   -4.3470   25.5990 F   0  0  0  0  0  0  0  0  0  0  0  0
  -24.0950  -13.8040   21.7760 C   0  0  0  0  0  0  0  0  0  0  0  0
  -23.4910  -13.0280   22.6690 N   0  0  0  0  0  0  0  0  0  0  0  0
  -23.6840  -14.9380   21.5350 O   0  0  0  0  0  0  0  0  0  0  0  0
  -23.8430  -12.1060   22.8780 H   0  0  0  0  0  0  0  0  0  0  0  0
  -22.6670  -13.3600   23.1490 H   0  0  0  0  0  0  0  0  0  0  0  0
  -26.7090  -15.3540   20.7090 N   0  0  0  0  0  0  0  0  0  0  0  0
  -26.0770  -16.0400   21.1070 H   0  0  0  0  0  0  0  0  0  0  0  0
  -27.5220  -15.7690   20.2710 H   0  0  0  0  0  0  0  0  0  0  0  0
  -28.3290  -22.6020   21.0070 N   0  0  0  0  0  4  0  0  0  0  0  0
  -27.3960  -22.9060   21.2330 H   0  0  0  0  0  0  0  0  0  0  0  0
  -28.2830  -22.1350   20.1160 H   0  0  0  0  0  0  0  0  0  0  0  0
  -29.2020  -23.8060   20.9360 C   0  0  0  0  0  2  0  0  0  0  0  0
  -28.7550  -24.8130   19.8510 C   0  0  0  0  0  2  0  0  0  0  0  0
  -29.5530  -26.1380   19.8740 C   0  0  0  0  0  2  0  0  0  0  0  0
  -29.1370  -27.0500   18.8520 O   0  0  0  0  0  0  0  0  0  0  0  0
  -24.8070  -30.9590   22.9290 C   0  0  0  0  0  0  0  0  0  0  0  0
  -27.8850  -27.5790   19.0370 C   0  0  0  0  0  0  0  0  0  0  0  0
  -23.7210  -29.6620   21.1210 C   0  0  0  0  0  3  0  0  0  0  0  0
  -25.2970  -28.6390   19.3910 C   0  0  0  0  0  0  0  0  0  0  0  0
  -26.1360  -30.4640   20.8800 C   0  0  0  0  0  2  0  0  0  0  0  0
  -26.3910  -29.2460   20.0210 C   0  0  0  0  0  0  0  0  0  0  0  0
  -27.6900  -28.7200   19.8480 C   0  0  0  0  0  3  0  0  0  0  0  0
  -26.7810  -26.9890   18.3930 C   0  0  0  0  0  3  0  0  0  0  0  0
  -25.4850  -27.5070   18.5750 C   0  0  0  0  0  3  0  0  0  0  0  0
  -23.9390  -29.2580   19.6370 C   0  0  0  0  0  2  0  0  0  0  0  0
  -24.9070  -30.3710   21.7030 N   0  0  0  0  0  0  0  0  0  0  0  0
  -23.7370  -30.9560   23.5540 O   0  0  0  0  0  0  0  0  0  0  0  0
  -23.3050  -28.4060   21.9190 C   0  0  0  0  0  0  0  0  0  0  0  0
  -22.0540  -27.9590   21.7220 N   0  0  0  0  0  0  0  0  0  0  0  0
  -24.1050  -27.8400   22.6700 O   0  0  0  0  0  0  0  0  0  0  0  0
  -21.4620  -28.4860   21.0950 H   0  0  0  0  0  0  0  0  0  0  0  0
  -19.0470  -25.9600   21.8620 C   0  0  0  0  0  0  0  0  0  0  0  0
  -21.4550  -26.7730   22.3340 C   0  0  0  0  0  3  0  0  0  0  0  0
  -21.9210  -25.4850   21.6190 C   0  0  0  0  0  2  0  0  0  0  0  0
  -20.9720  -25.0360   20.5040 C   0  0  0  0  0  2  0  0  0  0  0  0
  -19.5700  -24.7770   21.0650 C   0  0  0  0  0  2  0  0  0  0  0  0
  -19.9320  -26.9070   22.4440 C   0  0  0  0  0  0  0  0  0  0  0  0
  -19.3940  -28.0090   23.1450 C   0  0  0  0  0  3  0  0  0  0  0  0
  -18.0020  -28.1690   23.2740 C   0  0  0  0  0  3  0  0  0  0  0  0
  -17.1300  -27.2200   22.7090 C   0  0  0  0  0  3  0  0  0  0  0  0
  -17.6530  -26.1180   22.0090 C   0  0  0  0  0  3  0  0  0  0  0  0
  -26.0210  -31.6800   23.5920 C   0  0  0  0  0  3  0  0  0  0  0  0
  -25.5650  -33.0080   24.0200 N   0  0  0  0  0  0  0  0  0  0  0  0
  -25.7750  -34.1400   23.3360 C   0  0  0  0  0  0  0  0  0  0  0  0
  -26.4490  -34.1830   22.3020 O   0  0  0  0  0  0  0  0  0  0  0  0
  -24.9530  -33.0360   24.8230 H   0  0  0  0  0  0  0  0  0  0  0  0
  -23.8520  -35.7460   23.1110 C   0  0  0  0  0  1  0  0  0  0  0  0
  -25.1410  -35.4320   23.8870 C   0  0  0  0  0  3  0  0  0  0  0  0
  -27.1700  -36.5010   24.7650 C   0  0  0  0  0  1  0  0  0  0  0  0
  -26.0460  -36.6000   23.8360 N   0  0  0  0  0  0  0  0  0  0  0  0
  -25.5410  -37.4580   24.0400 H   0  0  0  0  0  0  0  0  0  0  0  0
  -26.6310  -30.8790   24.8070 C   0  0  1  0  0  0  0  0  0  0  0  0
  -25.5790  -30.4270   25.8470 C   0  0  0  0  0  1  0  0  0  0  0  0
  -27.3750  -29.6180   24.3090 C   0  0  0  0  0  1  0  0  0  0  0  0
  -27.6790  -31.7530   25.5360 C   0  0  0  0  0  1  0  0  0  0  0  0
  2  3  1  0
  4  6  1  0
  5  2  2  0
  6  3  2  0
  6  1  1  0
  7  5  1  0
  7  4  2  0
  8  7  1  0
  9 15  1  0
  9 18  1  0
 10 15  1  0
 11 12  1  0
 11 10  1  0
 13 12  1  0
 13 24  1  0
 13 14  1  0
 15 14  1  0
 16  9  2  0
 17  5  1  0
 18 17  1  0
 18 20  1  0
 19 17  2  0
 21 46  1  0
 21 22  2  0
 22 41  1  0
 23 26  1  0
 23 22  1  0
 24 25  1  0
 24 21  1  0
 25 23  2  0
 26 27  1  0
 27 28  2  0
 29 32  1  0
 29 28  1  0
 30 29  2  0
 31 30  1  0
 31 26  2  0
 32 33  1  0
 33 34  1  0
 34 35  2  0
 36 35  1  0
 36 40  1  0
 37 36  2  0
 38 33  2  0
 38 37  1  0
 39 38  1  0
 41 42  1  0
 42 44  1  0
 42 45  1  0
 43 41  2  0
 46 47  1  0
 48 46  1  0
 49 50  1  0
 49  1  1  0
 51 49  1  0
 52 49  1  0
 53 54  1  0
 53 52  1  0
 55 57  1  0
 55 54  1  0
 56 67  2  0
 57 62  1  0
 58 66  1  0
 58 68  1  0
 59 65  1  0
 59 61  1  0
 60 66  1  0
 61 60  1  0
 62 61  2  0
 63 64  1  0
 63 57  2  0
 64 59  2  0
 65 58  1  0
 66 56  1  0
 68 70  2  0
 69 68  1  0
 71 69  1  0
 72 81  2  0
 72 77  1  0
 73 69  1  0
 73 77  1  0
 74 73  1  0
 75 76  1  0
 75 74  1  0
 76 72  1  0
 77 78  2  0
 78 79  1  0
 80 79  2  0
 81 80  1  0
 82 56  1  0
 82 83  1  0
 82 92  1  0
 83 86  1  0
 84 88  1  0
 84 83  1  0
 85 84  2  0
 88 87  1  0
 90 88  1  0
 90 91  1  0
 90 89  1  0
 92 95  1  1
 92 93  1  0
 94 92  1  0
M  ISO  4   9 100  18 100  54 101  55 101
M  END
>  <TORSDO>  (43) 
F 21

>  <SCORE>  (43) 
-7.585

>  <name>  (43) 
42

>  <ligand_id>  (43) 
42

>  <original_smiles>  (43) 
[H]c1c([H])c([H])c2c(c1[H])C([H])([H])C([H])([H])C([H])([H])C2([H])N([H])C(=O)C1([H])N(C(=O)C([H])(N([H])C(=O)C([H])(N([H])C([H])([H])[H])C([H])([H])[H])C(C([H])([H])[H])(C([H])([H])[H])C([H])([H])[H])C([H])([H])c2c([H])c(OC([H])([H])C([H])([H])C([H])([H])[N+]([H])([H])C([H])([H])c3c([H])c([H])c(C(=O)N([H])C(=O)N4C([H])([H])C([H])([H])C([H])([H])C([H])(n5nc(-c6c([H])c([H])c(Oc7c([H])c([H])c(F)c([H])c7F)c([H])c6[H])c(C(=O)N([H])[H])c5N([H])[H])C4([H])[H])c(C([H])([H])[H])c3[H])c([H])c([H])c2C1([H])[H]

>  <smiles>  (43) 
[H]c1c([H])c([H])c2c(c1[H])C([H])([H])C([H])([H])C([H])([H])C2([H])N([H])C(=O)C1([H])N(C(=O)C([H])(N([H])C(=O)C([H])(N([H])C([H])([H])[H])C([H])([H])[H])C(C([H])([H])[H])(C([H])([H])[H])C([H])([H])[H])C([H])([H])c2c([H])c(OC([H])([H])C([H])([H])C([H])([H])[N+]([H])([H])C([H])([H])c3c([H])c([H])c(C(=O)N([H])C(=O)N4C([H])([H])C([H])([H])C([H])([H])C([H])(n5nc(-c6c([H])c([H])c(Oc7c([H])c([H])c(F)c([H])c7F)c([H])c6[H])c(C(=O)N([H])[H])c5N([H])[H])C4([H])[H])c(C([H])([H])[H])c3[H])c([H])c([H])c2C1([H])[H]

$$$$
43:0:0
     RDKit          3D

 99107  0  0  1  0  0  0  0  0999 V2000
  -28.6760  -22.5440   17.4000 C   0  0  0  0  0  2  0  0  0  0  0  0
  -28.9700  -20.0980   17.6110 C   0  0  0  0  0  0  0  0  0  0  0  0
  -29.1340  -21.3380   18.0700 N   0  0  0  0  0  0  0  0  0  0  0  0
  -28.5450  -19.8330   16.4850 O   0  0  0  0  0  0  0  0  0  0  0  0
  -29.5740  -21.4380   18.9760 H   0  0  0  0  0  0  0  0  0  0  0  0
  -30.2800  -18.0500   18.1170 C   0  0  0  0  0  3  0  0  0  0  0  0
  -30.5950  -16.9350   18.9060 C   0  0  0  0  0  3  0  0  0  0  0  0
  -29.0640  -17.7240   20.6280 C   0  0  0  0  0  3  0  0  0  0  0  0
  -29.3490  -19.0060   18.5610 C   0  0  0  0  0  0  0  0  0  0  0  0
  -28.7480  -18.8580   19.8440 C   0  0  0  0  0  0  0  0  0  0  0  0
  -29.9630  -16.7440   20.1620 C   0  0  0  0  0  0  0  0  0  0  0  0
  -27.7250  -19.8490   20.3870 C   0  0  0  0  0  1  0  0  0  0  0  0
  -30.8650  -14.5040   20.5670 C   0  0  0  0  0  0  0  0  0  0  0  0
  -30.5680  -12.3530   19.4420 C   0  0  0  0  0  2  0  0  0  0  0  0
  -29.6510  -12.5760   18.2200 C   0  0  0  0  0  2  0  0  0  0  0  0
  -28.1660  -12.4580   18.6210 C   0  0  0  0  0  2  0  0  0  0  0  0
  -27.8080  -13.2930   19.8800 C   0  0  0  0  0  3  0  0  0  0  0  0
  -28.8440  -13.0680   21.0080 C   0  0  0  0  0  2  0  0  0  0  0  0
  -30.1860  -13.3350   20.4650 N   0  0  0  0  0  0  0  0  0  0  0  0
  -32.0270  -14.6530   20.1800 O   0  0  0  0  0  0  0  0  0  0  0  0
  -30.1180  -15.5560   20.9300 N   0  0  0  0  0  0  0  0  0  0  0  0
  -29.3240  -15.3220   21.5060 H   0  0  0  0  0  0  0  0  0  0  0  0
  -25.3930  -13.8990   20.5390 C   0  0  0  0  0  0  0  0  0  0  0  0
  -24.3160  -13.1270   20.8900 C   0  0  0  0  0  0  0  0  0  0  0  0
  -24.7810  -11.7760   20.8740 C   0  0  0  0  0  0  0  0  0  0  0  0
  -26.4430  -13.0200   20.3320 N   0  0  0  0  0  0  0  0  0  0  0  0
  -26.0760  -11.7370   20.5880 N   0  0  0  0  0  0  0  0  0  0  0  0
  -24.0530  -10.5130   21.0550 C   0  0  0  0  0  0  0  0  0  0  0  0
  -24.4600   -9.5570   22.0120 C   0  0  0  0  0  3  0  0  0  0  0  0
  -23.7340   -8.3570   22.1800 C   0  0  0  0  0  3  0  0  0  0  0  0
  -22.5870   -8.1050   21.3900 C   0  0  0  0  0  0  0  0  0  0  0  0
  -22.1980   -9.0510   20.4240 C   0  0  0  0  0  3  0  0  0  0  0  0
  -22.9250  -10.2410   20.2550 C   0  0  0  0  0  3  0  0  0  0  0  0
  -21.8370   -6.9560   21.4640 O   0  0  0  0  0  0  0  0  0  0  0  0
  -21.7370   -6.2350   22.6270 C   0  0  0  0  0  0  0  0  0  0  0  0
  -21.2060   -6.7970   23.8090 C   0  0  0  0  0  3  0  0  0  0  0  0
  -21.0570   -6.0000   24.9620 C   0  0  0  0  0  3  0  0  0  0  0  0
  -21.4280   -4.6410   24.9330 C   0  0  0  0  0  0  0  0  0  0  0  0
  -21.9530   -4.0810   23.7560 C   0  0  0  0  0  3  0  0  0  0  0  0
  -22.1040   -4.8750   22.6060 C   0  0  0  0  0  0  0  0  0  0  0  0
  -22.5900   -4.3240   21.4680 F   0  0  0  0  0  0  0  0  0  0  0  0
  -21.2790   -3.8730   26.0380 F   0  0  0  0  0  0  0  0  0  0  0  0
  -22.9140  -13.6040   21.1320 C   0  0  0  0  0  0  0  0  0  0  0  0
  -22.1630  -12.9100   21.9800 N   0  0  0  0  0  0  0  0  0  0  0  0
  -22.4860  -14.6290   20.6010 O   0  0  0  0  0  0  0  0  0  0  0  0
  -22.5170  -12.0860   22.4400 H   0  0  0  0  0  0  0  0  0  0  0  0
  -21.2190  -13.2140   22.1740 H   0  0  0  0  0  0  0  0  0  0  0  0
  -25.5610  -15.2690   20.3610 N   0  0  0  0  0  0  0  0  0  0  0  0
  -24.7950  -15.9250   20.4590 H   0  0  0  0  0  0  0  0  0  0  0  0
  -26.4200  -15.7030   20.0480 H   0  0  0  0  0  0  0  0  0  0  0  0
  -27.5910  -23.2360   18.2350 C   0  0  0  0  0  2  0  0  0  0  0  0
  -28.3720  -25.6200   18.0410 C   0  0  0  0  0  0  0  0  0  0  0  0
  -28.2140  -25.7050   16.7130 N   0  0  0  0  0  4  0  0  0  0  0  0
  -28.0790  -24.5160   18.7470 N   0  0  0  0  0  0  0  0  0  0  0  0
  -28.4830  -26.5500   16.2300 H   0  0  0  0  0  0  0  0  0  0  0  0
  -27.8250  -24.9680   16.1510 H   0  0  0  0  0  0  0  0  0  0  0  0
  -28.2140  -24.5840   19.7480 H   0  0  0  0  0  0  0  0  0  0  0  0
  -28.8940  -26.7910   18.8020 C   0  0  0  0  0  2  0  0  0  0  0  0
  -28.3220  -26.8490   20.1010 O   0  0  0  0  0  0  0  0  0  0  0  0
  -24.5260  -31.9290   23.2480 C   0  0  0  0  0  0  0  0  0  0  0  0
  -27.1300  -27.5200   20.1430 C   0  0  0  0  0  0  0  0  0  0  0  0
  -23.2930  -30.5260   21.6250 C   0  0  0  0  0  3  0  0  0  0  0  0
  -24.7270  -28.9850   20.1900 C   0  0  0  0  0  0  0  0  0  0  0  0
  -25.8110  -30.8920   21.3890 C   0  0  0  0  0  2  0  0  0  0  0  0
  -25.8860  -29.5180   20.7640 C   0  0  0  0  0  0  0  0  0  0  0  0
  -27.0870  -28.7850   20.7560 C   0  0  0  0  0  3  0  0  0  0  0  0
  -25.9570  -26.9810   19.5730 C   0  0  0  0  0  3  0  0  0  0  0  0
  -24.7530  -27.7090   19.5990 C   0  0  0  0  0  3  0  0  0  0  0  0
  -23.4830  -29.8420   20.2440 C   0  0  0  0  0  2  0  0  0  0  0  0
  -24.5620  -31.1290   22.1460 N   0  0  0  0  0  0  0  0  0  0  0  0
  -23.4540  -32.2060   23.8040 O   0  0  0  0  0  0  0  0  0  0  0  0
  -22.6580  -29.5050   22.5960 C   0  0  0  0  0  0  0  0  0  0  0  0
  -21.3360  -29.3100   22.4740 N   0  0  0  0  0  0  0  0  0  0  0  0
  -23.3510  -28.8930   23.4140 O   0  0  0  0  0  0  0  0  0  0  0  0
  -20.8380  -29.8570   21.7860 H   0  0  0  0  0  0  0  0  0  0  0  0
  -17.9710  -28.1050   22.9870 C   0  0  0  0  0  0  0  0  0  0  0  0
  -20.5270  -28.3750   23.2550 C   0  0  0  0  0  3  0  0  0  0  0  0
  -20.6360  -26.9390   22.6910 C   0  0  0  0  0  2  0  0  0  0  0  0
  -19.5340  -26.6030   21.6810 C   0  0  0  0  0  2  0  0  0  0  0  0
  -18.1530  -26.7480   22.3260 C   0  0  0  0  0  2  0  0  0  0  0  0
  -19.0870  -28.8740   23.4080 C   0  0  0  0  0  0  0  0  0  0  0  0
  -18.8630  -30.1430   23.9860 C   0  0  0  0  0  3  0  0  0  0  0  0
  -17.5570  -30.6420   24.1470 C   0  0  0  0  0  3  0  0  0  0  0  0
  -16.4550  -29.8680   23.7420 C   0  0  0  0  0  3  0  0  0  0  0  0
  -16.6630  -28.6010   23.1670 C   0  0  0  0  0  3  0  0  0  0  0  0
  -25.8260  -32.5580   23.8460 C   0  0  0  0  0  3  0  0  0  0  0  0
  -25.5290  -33.9570   24.1740 N   0  0  0  0  0  0  0  0  0  0  0  0
  -25.8640  -35.0040   23.4080 C   0  0  0  0  0  0  0  0  0  0  0  0
  -26.5310  -34.8920   22.3740 O   0  0  0  0  0  0  0  0  0  0  0  0
  -24.9390  -34.1170   24.9780 H   0  0  0  0  0  0  0  0  0  0  0  0
  -24.1630  -36.8140   23.0250 C   0  0  0  0  0  1  0  0  0  0  0  0
  -25.3830  -36.3950   23.8590 C   0  0  0  0  0  3  0  0  0  0  0  0
  -27.5080  -37.2540   24.7390 C   0  0  0  0  0  1  0  0  0  0  0  0
  -26.4300  -37.4370   23.7710 N   0  0  0  0  0  0  0  0  0  0  0  0
  -26.0310  -38.3610   23.9130 H   0  0  0  0  0  0  0  0  0  0  0  0
  -26.3630  -31.7870   25.1130 C   0  0  1  0  0  0  0  0  0  0  0  0
  -25.2900  -31.5490   26.2000 C   0  0  0  0  0  1  0  0  0  0  0  0
  -26.9410  -30.4110   24.7070 C   0  0  0  0  0  1  0  0  0  0  0  0
  -27.5250  -32.5810   25.7580 C   0  0  0  0  0  1  0  0  0  0  0  0
  1  3  1  0
  1 51  1  0
  2  3  1  0
  2  9  1  0
  3  5  1  0
  4  2  2  0
  6  9  2  0
  6  7  1  0
  7 11  2  0
  9 10  1  0
 10 12  1  0
 10  8  2  0
 11  8  1  0
 11 21  1  0
 13 21  1  0
 14 19  1  0
 15 16  1  0
 15 14  1  0
 17 16  1  0
 17 26  1  0
 17 18  1  0
 19 13  1  0
 19 18  1  0
 20 13  2  0
 21 22  1  0
 23 24  2  0
 24 43  1  0
 25 24  1  0
 25 28  1  0
 26 23  1  0
 26 27  1  0
 27 25  2  0
 28 29  1  0
 29 30  2  0
 31 34  1  0
 31 30  1  0
 32 31  2  0
 33 32  1  0
 33 28  2  0
 34 35  1  0
 35 36  1  0
 36 37  2  0
 38 37  1  0
 38 42  1  0
 39 38  2  0
 40 35  2  0
 40 39  1  0
 41 40  1  0
 43 44  1  0
 44 47  1  0
 44 46  1  0
 45 43  2  0
 48 49  1  0
 48 23  1  0
 50 48  1  0
 51 54  1  0
 52 54  1  0
 52 58  1  0
 53 52  2  0
 54 57  1  0
 55 53  1  0
 56 53  1  0
 58 59  1  0
 59 61  1  0
 60 71  2  0
 61 66  1  0
 62 70  1  0
 62 72  1  0
 63 69  1  0
 63 65  1  0
 64 70  1  0
 65 64  1  0
 66 65  2  0
 67 68  1  0
 67 61  2  0
 68 63  2  0
 69 62  1  0
 70 60  1  0
 72 74  2  0
 73 72  1  0
 75 73  1  0
 76 85  2  0
 76 81  1  0
 77 73  1  0
 77 81  1  0
 78 77  1  0
 79 80  1  0
 79 78  1  0
 80 76  1  0
 81 82  2  0
 82 83  1  0
 84 83  2  0
 85 84  1  0
 86 60  1  0
 86 87  1  0
 86 96  1  0
 87 90  1  0
 88 92  1  0
 88 87  1  0
 89 88  2  0
 92 91  1  0
 94 92  1  0
 94 95  1  0
 94 93  1  0
 96 99  1  1
 96 97  1  0
 98 96  1  0
M  ISO  4  13 100  21 100  58 101  59 101
M  END
>  <TORSDO>  (44) 
F 21

>  <SCORE>  (44) 
-13.476

>  <name>  (44) 
43

>  <ligand_id>  (44) 
43

>  <original_smiles>  (44) 
[H]c1c([H])c([H])c2c(c1[H])C([H])([H])C([H])([H])C([H])([H])C2([H])N([H])C(=O)C1([H])N(C(=O)C([H])(N([H])C(=O)C([H])(N([H])C([H])([H])[H])C([H])([H])[H])C(C([H])([H])[H])(C([H])([H])[H])C([H])([H])[H])C([H])([H])c2c([H])c(OC([H])([H])C(N([H])[H])=[N+]([H])C([H])([H])C([H])([H])N([H])C(=O)c3c([H])c([H])c(N([H])C(=O)N4C([H])([H])C([H])([H])C([H])([H])C([H])(n5nc(-c6c([H])c([H])c(Oc7c([H])c([H])c(F)c([H])c7F)c([H])c6[H])c(C(=O)N([H])[H])c5N([H])[H])C4([H])[H])c([H])c3C([H])([H])[H])c([H])c([H])c2C1([H])[H]

>  <smiles>  (44) 
[H]c1c([H])c([H])c2c(c1[H])C([H])([H])C([H])([H])C([H])([H])C2([H])N([H])C(=O)C1([H])N(C(=O)C([H])(N([H])C(=O)C([H])(N([H])C([H])([H])[H])C([H])([H])[H])C(C([H])([H])[H])(C([H])([H])[H])C([H])([H])[H])C([H])([H])c2c([H])c(OC([H])([H])C(N([H])[H])=[N+]([H])C([H])([H])C([H])([H])N([H])C(=O)c3c([H])c([H])c(N([H])C(=O)N4C([H])([H])C([H])([H])C([H])([H])C([H])(n5nc(-c6c([H])c([H])c(Oc7c([H])c([H])c(F)c([H])c7F)c([H])c6[H])c(C(=O)N([H])[H])c5N([H])[H])C4([H])[H])c([H])c3C([H])([H])[H])c([H])c([H])c2C1([H])[H]

$$$$
44:0:0
     RDKit          3D

 95104  0  0  1  0  0  0  0  0999 V2000
  -31.5670  -18.9530   18.8100 C   0  0  0  0  0  2  0  0  0  0  0  0
  -31.6960  -17.6760   19.6730 C   0  0  0  0  0  2  0  0  0  0  0  0
  -29.6620  -20.7020   19.0540 C   0  0  0  0  0  2  0  0  0  0  0  0
  -29.5290  -20.6490   20.5820 C   0  0  0  0  0  3  0  0  0  0  0  0
  -30.0560  -19.2730   18.6530 C   0  0  0  0  0  3  0  0  0  0  0  0
  -30.2840  -17.0730   19.6620 C   0  0  0  0  0  3  0  0  0  0  0  0
  -29.3610  -18.3470   19.6620 C   0  0  0  0  0  3  0  0  0  0  0  0
  -29.2350  -19.2040   20.8880 N   0  0  0  0  0  4  0  0  0  0  0  0
  -28.2900  -19.2120   21.2470 H   0  0  0  0  0  0  0  0  0  0  0  0
  -29.8430  -18.8950   21.6270 H   0  0  0  0  0  0  0  0  0  0  0  0
  -30.6970  -14.6930   20.4170 C   0  0  0  0  0  0  0  0  0  0  0  0
  -30.4070  -12.4510   19.4320 C   0  0  0  0  0  2  0  0  0  0  0  0
  -29.5150  -12.5840   18.1800 C   0  0  0  0  0  2  0  0  0  0  0  0
  -28.0290  -12.4610   18.5640 C   0  0  0  0  0  2  0  0  0  0  0  0
  -27.6420  -13.3500   19.7770 C   0  0  0  0  0  3  0  0  0  0  0  0
  -28.6690  -13.2470   20.9290 C   0  0  0  0  0  2  0  0  0  0  0  0
  -30.0030  -13.5150   20.3740 N   0  0  0  0  0  0  0  0  0  0  0  0
  -31.8860  -14.7350   20.1050 O   0  0  0  0  0  0  0  0  0  0  0  0
  -29.9800  -15.8550   20.4950 N   0  0  0  0  0  0  0  0  0  0  0  0
  -29.0210  -15.7420   20.7860 H   0  0  0  0  0  0  0  0  0  0  0  0
  -25.2310  -13.9570   20.4170 C   0  0  0  0  0  0  0  0  0  0  0  0
  -24.1550  -13.1900   20.7740 C   0  0  0  0  0  0  0  0  0  0  0  0
  -24.6190  -11.8400   20.7910 C   0  0  0  0  0  0  0  0  0  0  0  0
  -26.2830  -13.0750   20.2340 N   0  0  0  0  0  0  0  0  0  0  0  0
  -25.9190  -11.7960   20.5210 N   0  0  0  0  0  0  0  0  0  0  0  0
  -23.8870  -10.5820   20.9900 C   0  0  0  0  0  0  0  0  0  0  0  0
  -24.3020   -9.6320   21.9490 C   0  0  0  0  0  3  0  0  0  0  0  0
  -23.5700   -8.4390   22.1370 C   0  0  0  0  0  3  0  0  0  0  0  0
  -22.4120   -8.1860   21.3640 C   0  0  0  0  0  0  0  0  0  0  0  0
  -22.0160   -9.1260   20.3960 C   0  0  0  0  0  3  0  0  0  0  0  0
  -22.7470  -10.3110   20.2070 C   0  0  0  0  0  3  0  0  0  0  0  0
  -21.6540   -7.0440   21.4580 O   0  0  0  0  0  0  0  0  0  0  0  0
  -21.5970   -6.3110   22.6160 C   0  0  0  0  0  0  0  0  0  0  0  0
  -21.1790   -6.8810   23.8390 C   0  0  0  0  0  3  0  0  0  0  0  0
  -21.0670   -6.0770   24.9890 C   0  0  0  0  0  3  0  0  0  0  0  0
  -21.3650   -4.7010   24.9210 C   0  0  0  0  0  0  0  0  0  0  0  0
  -21.7790   -4.1320   23.7040 C   0  0  0  0  0  3  0  0  0  0  0  0
  -21.8920   -4.9340   22.5540 C   0  0  0  0  0  0  0  0  0  0  0  0
  -22.2690   -4.3760   21.3790 F   0  0  0  0  0  0  0  0  0  0  0  0
  -21.2510   -3.9260   26.0240 F   0  0  0  0  0  0  0  0  0  0  0  0
  -22.7490  -13.6730   20.9900 C   0  0  0  0  0  0  0  0  0  0  0  0
  -21.9960  -12.9990   21.8530 N   0  0  0  0  0  0  0  0  0  0  0  0
  -22.3260  -14.6830   20.4300 O   0  0  0  0  0  0  0  0  0  0  0  0
  -22.3480  -12.1810   22.3260 H   0  0  0  0  0  0  0  0  0  0  0  0
  -21.0540  -13.3090   22.0440 H   0  0  0  0  0  0  0  0  0  0  0  0
  -25.3980  -15.3240   20.2080 N   0  0  0  0  0  0  0  0  0  0  0  0
  -24.6210  -15.9720   20.2580 H   0  0  0  0  0  0  0  0  0  0  0  0
  -26.2370  -15.7450   19.8310 H   0  0  0  0  0  0  0  0  0  0  0  0
  -28.3690  -21.5440   21.1350 C   0  0  0  0  0  0  0  0  0  0  0  0
  -28.2320  -22.8960   21.0270 N   0  0  0  0  0  0  0  0  0  0  0  0
  -27.4740  -20.9520   21.7460 O   0  0  0  0  0  0  0  0  0  0  0  0
  -27.3980  -23.2070   21.5050 H   0  0  0  0  0  0  0  0  0  0  0  0
  -28.9340  -24.0320   20.3700 C   0  0  0  0  0  2  0  0  0  0  0  0
  -28.4110  -25.4140   20.9480 C   0  0  0  0  0  2  0  0  0  0  0  0
  -28.5740  -26.6630   20.1930 O   0  0  0  0  0  0  0  0  0  0  0  0
  -24.7320  -31.9290   23.2180 C   0  0  0  0  0  0  0  0  0  0  0  0
  -27.4450  -27.4770   20.1550 C   0  0  0  0  0  0  0  0  0  0  0  0
  -23.5580  -30.5120   21.5700 C   0  0  0  0  0  3  0  0  0  0  0  0
  -25.0410  -28.9980   20.1450 C   0  0  0  0  0  0  0  0  0  0  0  0
  -26.0840  -30.8990   21.3850 C   0  0  0  0  0  2  0  0  0  0  0  0
  -26.1960  -29.5260   20.7400 C   0  0  0  0  0  0  0  0  0  0  0  0
  -27.4060  -28.7770   20.7340 C   0  0  0  0  0  3  0  0  0  0  0  0
  -26.2740  -26.9890   19.5390 C   0  0  0  0  0  3  0  0  0  0  0  0
  -25.0780  -27.7330   19.5390 C   0  0  0  0  0  3  0  0  0  0  0  0
  -23.7850  -29.8430   20.1910 C   0  0  0  0  0  2  0  0  0  0  0  0
  -24.8090  -31.1290   22.1160 N   0  0  0  0  0  0  0  0  0  0  0  0
  -23.6430  -32.1820   23.7530 O   0  0  0  0  0  0  0  0  0  0  0  0
  -22.9140  -29.4800   22.5250 C   0  0  0  0  0  0  0  0  0  0  0  0
  -21.5910  -29.2880   22.4010 N   0  0  0  0  0  0  0  0  0  0  0  0
  -23.6040  -28.8530   23.3350 O   0  0  0  0  0  0  0  0  0  0  0  0
  -21.0950  -29.8420   21.7180 H   0  0  0  0  0  0  0  0  0  0  0  0
  -18.2260  -28.0680   22.9170 C   0  0  0  0  0  0  0  0  0  0  0  0
  -20.7840  -28.3380   23.1700 C   0  0  0  0  0  3  0  0  0  0  0  0
  -20.8900  -26.9150   22.5750 C   0  0  0  0  0  2  0  0  0  0  0  0
  -19.7810  -26.6000   21.5670 C   0  0  0  0  0  2  0  0  0  0  0  0
  -18.4030  -26.7280   22.2250 C   0  0  0  0  0  2  0  0  0  0  0  0
  -19.3440  -28.8310   23.3470 C   0  0  0  0  0  0  0  0  0  0  0  0
  -19.1230  -30.0860   23.9560 C   0  0  0  0  0  3  0  0  0  0  0  0
  -17.8170  -30.5770   24.1390 C   0  0  0  0  0  3  0  0  0  0  0  0
  -16.7130  -29.8110   23.7260 C   0  0  0  0  0  3  0  0  0  0  0  0
  -16.9190  -28.5580   23.1210 C   0  0  0  0  0  3  0  0  0  0  0  0
  -26.0030  -32.5800   23.8470 C   0  0  0  0  0  3  0  0  0  0  0  0
  -26.5400  -31.8010   25.1100 C   0  0  1  0  0  0  0  0  0  0  0  0
  -25.4550  -31.5270   26.1760 C   0  0  0  0  0  1  0  0  0  0  0  0
  -27.1470  -30.4410   24.6960 C   0  0  0  0  0  1  0  0  0  0  0  0
  -27.6790  -32.6090   25.7780 C   0  0  0  0  0  1  0  0  0  0  0  0
  -25.6640  -33.9660   24.1980 N   0  0  0  0  0  0  0  0  0  0  0  0
  -25.9620  -35.0350   23.4480 C   0  0  0  0  0  0  0  0  0  0  0  0
  -26.6240  -34.9610   22.4080 O   0  0  0  0  0  0  0  0  0  0  0  0
  -25.0730  -34.0970   25.0060 H   0  0  0  0  0  0  0  0  0  0  0  0
  -24.1820  -36.7850   23.1360 C   0  0  0  0  0  1  0  0  0  0  0  0
  -25.4440  -36.4050   23.9260 C   0  0  0  0  0  3  0  0  0  0  0  0
  -27.5680  -37.3350   24.7350 C   0  0  0  0  0  1  0  0  0  0  0  0
  -26.4470  -37.4870   23.8100 N   0  0  0  0  0  0  0  0  0  0  0  0
  -26.0220  -38.3940   23.9760 H   0  0  0  0  0  0  0  0  0  0  0  0
  1  2  1  0
  3  4  1  0
  4  8  1  0
  4 49  1  0
  5  1  1  0
  5  3  1  0
  5  7  1  0
  6  7  1  0
  6  2  1  0
  6 19  1  0
  7  8  1  0
  8  9  1  0
  8 10  1  0
 11 19  1  0
 12 17  1  0
 13 14  1  0
 13 12  1  0
 15 14  1  0
 15 24  1  0
 15 16  1  0
 17 11  1  0
 17 16  1  0
 18 11  2  0
 19 20  1  0
 21 22  2  0
 22 23  1  0
 22 41  1  0
 23 26  1  0
 24 21  1  0
 24 25  1  0
 25 23  2  0
 26 27  1  0
 27 28  2  0
 29 32  1  0
 29 28  1  0
 30 29  2  0
 31 30  1  0
 31 26  2  0
 32 33  1  0
 33 34  1  0
 34 35  2  0
 36 35  1  0
 36 40  1  0
 37 36  2  0
 38 33  2  0
 38 37  1  0
 39 38  1  0
 41 42  1  0
 42 45  1  0
 42 44  1  0
 43 41  2  0
 46 47  1  0
 46 21  1  0
 48 46  1  0
 49 51  2  0
 50 49  1  0
 50 52  1  0
 53 54  1  0
 53 50  1  0
 55 54  1  0
 56 67  2  0
 57 55  1  0
 57 62  1  0
 58 66  1  0
 58 68  1  0
 59 65  1  0
 59 61  1  0
 60 66  1  0
 61 60  1  0
 62 61  2  0
 63 57  2  0
 64 63  1  0
 64 59  2  0
 65 58  1  0
 66 56  1  0
 68 70  2  0
 69 68  1  0
 71 69  1  0
 72 81  2  0
 72 77  1  0
 73 69  1  0
 73 77  1  0
 74 73  1  0
 75 76  1  0
 75 74  1  0
 76 72  1  0
 77 78  2  0
 78 79  1  0
 80 79  2  0
 81 80  1  0
 82 56  1  0
 82 87  1  0
 82 83  1  0
 83 86  1  1
 83 84  1  0
 85 83  1  0
 87 90  1  0
 88 92  1  0
 88 87  1  0
 89 88  2  0
 92 91  1  0
 94 92  1  0
 94 95  1  0
 94 93  1  0
M  ISO  4  11 100  19 100  54 101  55 101
M  END
>  <TORSDO>  (45) 
F 19

>  <SCORE>  (45) 
-13.541

>  <name>  (45) 
44

>  <ligand_id>  (45) 
44

>  <original_smiles>  (45) 
[H]c1c([H])c([H])c2c(c1[H])C([H])([H])C([H])([H])C([H])([H])C2([H])N([H])C(=O)C1([H])N(C(=O)C([H])(N([H])C(=O)C([H])(N([H])C([H])([H])[H])C([H])([H])[H])C(C([H])([H])[H])(C([H])([H])[H])C([H])([H])[H])C([H])([H])c2c([H])c(OC([H])([H])C([H])([H])N([H])C(=O)C3([H])C([H])([H])C4([H])C([H])([H])C([H])([H])C([H])(N([H])C(=O)N5C([H])([H])C([H])([H])C([H])([H])C([H])(n6nc(-c7c([H])c([H])c(Oc8c([H])c([H])c(F)c([H])c8F)c([H])c7[H])c(C(=O)N([H])[H])c6N([H])[H])C5([H])[H])C4([H])[N+]3([H])[H])c([H])c([H])c2C1([H])[H]

>  <smiles>  (45) 
[H]c1c([H])c([H])c2c(c1[H])C([H])([H])C([H])([H])C([H])([H])C2([H])N([H])C(=O)C1([H])N(C(=O)C([H])(N([H])C(=O)C([H])(N([H])C([H])([H])[H])C([H])([H])[H])C(C([H])([H])[H])(C([H])([H])[H])C([H])([H])[H])C([H])([H])c2c([H])c(OC([H])([H])C([H])([H])N([H])C(=O)C3([H])C([H])([H])C4([H])C([H])([H])C([H])([H])C([H])(N([H])C(=O)N5C([H])([H])C([H])([H])C([H])([H])C([H])(n6nc(-c7c([H])c([H])c(Oc8c([H])c([H])c(F)c([H])c8F)c([H])c7[H])c(C(=O)N([H])[H])c6N([H])[H])C5([H])[H])C4([H])[N+]3([H])[H])c([H])c([H])c2C1([H])[H]

$$$$
45:0:0
     RDKit          3D

 96104  0  0  1  0  0  0  0  0999 V2000
  -29.8320  -19.1190   20.1340 C   0  0  0  0  0  3  0  0  0  0  0  0
  -30.6030  -20.2990   17.9400 C   0  0  0  0  0  2  0  0  0  0  0  0
  -31.7990  -19.9790   17.0290 C   0  0  0  0  0  2  0  0  0  0  0  0
  -31.2720  -17.9840   18.2740 C   0  0  0  0  0  2  0  0  0  0  0  0
  -30.1450  -18.9820   18.6140 C   0  0  0  0  0  3  0  0  0  0  0  0
  -31.8990  -18.4540   16.9540 C   0  0  0  0  0  3  0  0  0  0  0  0
  -31.1920  -17.9110   15.7780 N   0  0  0  0  0  4  0  0  0  0  0  0
  -30.2220  -18.1710   15.7740 H   0  0  0  0  0  0  0  0  0  0  0  0
  -31.2570  -16.9090   15.7600 H   0  0  0  0  0  0  0  0  0  0  0  0
  -31.6150  -18.2550   14.9340 H   0  0  0  0  0  0  0  0  0  0  0  0
  -28.8500  -20.3560   20.3900 N   0  0  0  0  0  4  0  0  0  0  0  0
  -28.2170  -20.3820   19.6080 H   0  0  0  0  0  0  0  0  0  0  0  0
  -28.2760  -20.0730   21.1680 H   0  0  0  0  0  0  0  0  0  0  0  0
  -29.2270  -21.8660   20.7450 C   0  0  0  0  0  2  0  0  0  0  0  0
  -28.5200  -23.2610   20.0720 C   0  0  0  0  0  2  0  0  0  0  0  0
  -28.3010  -24.7570   20.8390 C   0  0  0  0  0  2  0  0  0  0  0  0
  -28.3500  -26.2210   20.3000 O   0  0  0  0  0  0  0  0  0  0  0  0
  -24.6090  -31.8800   23.2610 C   0  0  0  0  0  0  0  0  0  0  0  0
  -27.2550  -27.1550   20.3180 C   0  0  0  0  0  0  0  0  0  0  0  0
  -23.4380  -30.4670   21.6140 C   0  0  0  0  0  3  0  0  0  0  0  0
  -24.9130  -28.8770   20.2320 C   0  0  0  0  0  0  0  0  0  0  0  0
  -25.9910  -30.7440   21.4800 C   0  0  0  0  0  2  0  0  0  0  0  0
  -26.0820  -29.3430   20.8480 C   0  0  0  0  0  0  0  0  0  0  0  0
  -27.2570  -28.5020   20.8630 C   0  0  0  0  0  3  0  0  0  0  0  0
  -26.0580  -26.7770   19.6780 C   0  0  0  0  0  3  0  0  0  0  0  0
  -24.9130  -27.6070   19.6320 C   0  0  0  0  0  3  0  0  0  0  0  0
  -23.6820  -29.7720   20.2460 C   0  0  0  0  0  2  0  0  0  0  0  0
  -24.6990  -31.0530   22.1740 N   0  0  0  0  0  0  0  0  0  0  0  0
  -23.5150  -32.1630   23.7720 O   0  0  0  0  0  0  0  0  0  0  0  0
  -22.7480  -29.4660   22.5740 C   0  0  0  0  0  0  0  0  0  0  0  0
  -21.4220  -29.2920   22.4310 N   0  0  0  0  0  0  0  0  0  0  0  0
  -23.4090  -28.8480   23.4120 O   0  0  0  0  0  0  0  0  0  0  0  0
  -20.9450  -29.8420   21.7310 H   0  0  0  0  0  0  0  0  0  0  0  0
  -18.0350  -28.0970   22.9050 C   0  0  0  0  0  0  0  0  0  0  0  0
  -20.5920  -28.3580   23.1970 C   0  0  0  0  0  3  0  0  0  0  0  0
  -20.6970  -26.9230   22.6290 C   0  0  0  0  0  2  0  0  0  0  0  0
  -19.6050  -26.5980   21.6050 C   0  0  0  0  0  2  0  0  0  0  0  0
  -18.2160  -26.7460   22.2340 C   0  0  0  0  0  2  0  0  0  0  0  0
  -19.1500  -28.8610   23.3430 C   0  0  0  0  0  0  0  0  0  0  0  0
  -18.9230  -30.1250   23.9300 C   0  0  0  0  0  3  0  0  0  0  0  0
  -17.6160  -30.6260   24.0830 C   0  0  0  0  0  3  0  0  0  0  0  0
  -16.5170  -29.8580   23.6620 C   0  0  0  0  0  3  0  0  0  0  0  0
  -16.7260  -28.5960   23.0770 C   0  0  0  0  0  3  0  0  0  0  0  0
  -25.8760  -32.5240   23.9030 C   0  0  0  0  0  3  0  0  0  0  0  0
  -25.5580  -33.9280   24.2140 N   0  0  0  0  0  0  0  0  0  0  0  0
  -25.9030  -34.9760   23.4530 C   0  0  0  0  0  0  0  0  0  0  0  0
  -26.5880  -34.8620   22.4330 O   0  0  0  0  0  0  0  0  0  0  0  0
  -24.9530  -34.0890   25.0050 H   0  0  0  0  0  0  0  0  0  0  0  0
  -24.1890  -36.7730   23.0530 C   0  0  0  0  0  1  0  0  0  0  0  0
  -25.4120  -36.3690   23.8910 C   0  0  0  0  0  3  0  0  0  0  0  0
  -27.5290  -37.2570   24.7640 C   0  0  0  0  0  1  0  0  0  0  0  0
  -26.4500  -37.4180   23.7930 N   0  0  0  0  0  0  0  0  0  0  0  0
  -26.0430  -38.3410   23.9230 H   0  0  0  0  0  0  0  0  0  0  0  0
  -26.3640  -31.7730   25.2020 C   0  0  1  0  0  0  0  0  0  0  0  0
  -25.2500  -31.5500   26.2510 C   0  0  0  0  0  1  0  0  0  0  0  0
  -26.9570  -30.3900   24.8470 C   0  0  0  0  0  1  0  0  0  0  0  0
  -27.5030  -32.5760   25.8760 C   0  0  0  0  0  1  0  0  0  0  0  0
  -29.5810  -17.6190   20.8970 C   0  0  0  0  0  2  0  0  0  0  0  0
  -30.4860  -14.9710   20.3440 C   0  0  0  0  0  0  0  0  0  0  0  0
  -30.3830  -12.6350   19.3410 C   0  0  0  0  0  2  0  0  0  0  0  0
  -29.4290  -12.5950   18.1220 C   0  0  0  0  0  2  0  0  0  0  0  0
  -27.9660  -12.3890   18.5650 C   0  0  0  0  0  2  0  0  0  0  0  0
  -27.5730  -13.3000   19.7560 C   0  0  0  0  0  3  0  0  0  0  0  0
  -28.6410  -13.2870   20.8690 C   0  0  0  0  0  2  0  0  0  0  0  0
  -29.9030  -13.7110   20.2460 N   0  0  0  0  0  0  0  0  0  0  0  0
  -31.7070  -15.0590   20.1770 O   0  0  0  0  0  0  0  0  0  0  0  0
  -29.6380  -16.1110   20.3840 N   0  0  0  0  0  0  0  0  0  0  0  0
  -28.6950  -15.7830   20.2460 H   0  0  0  0  0  0  0  0  0  0  0  0
  -25.1960  -13.8870   20.5070 C   0  0  0  0  0  0  0  0  0  0  0  0
  -24.1320  -13.1150   20.8780 C   0  0  0  0  0  0  0  0  0  0  0  0
  -24.5930  -11.7630   20.8460 C   0  0  0  0  0  0  0  0  0  0  0  0
  -26.2370  -13.0070   20.2620 N   0  0  0  0  0  0  0  0  0  0  0  0
  -25.8840  -11.7230   20.5330 N   0  0  0  0  0  0  0  0  0  0  0  0
  -23.8640  -10.5020   21.0340 C   0  0  0  0  0  0  0  0  0  0  0  0
  -24.2850   -9.5380   21.9770 C   0  0  0  0  0  3  0  0  0  0  0  0
  -23.5560   -8.3420   22.1530 C   0  0  0  0  0  3  0  0  0  0  0  0
  -22.3900   -8.1040   21.3870 C   0  0  0  0  0  0  0  0  0  0  0  0
  -21.9880   -9.0560   20.4340 C   0  0  0  0  0  3  0  0  0  0  0  0
  -22.7170  -10.2430   20.2570 C   0  0  0  0  0  3  0  0  0  0  0  0
  -21.6310   -6.9620   21.4730 O   0  0  0  0  0  0  0  0  0  0  0  0
  -21.5620   -6.2300   22.6320 C   0  0  0  0  0  0  0  0  0  0  0  0
  -21.1020   -6.7920   23.8420 C   0  0  0  0  0  3  0  0  0  0  0  0
  -20.9820   -5.9870   24.9920 C   0  0  0  0  0  3  0  0  0  0  0  0
  -21.3110   -4.6190   24.9310 C   0  0  0  0  0  0  0  0  0  0  0  0
  -21.7630   -4.0560   23.7250 C   0  0  0  0  0  3  0  0  0  0  0  0
  -21.8870   -4.8600   22.5780 C   0  0  0  0  0  0  0  0  0  0  0  0
  -22.3030   -4.3070   21.4130 F   0  0  0  0  0  0  0  0  0  0  0  0
  -21.1880   -3.8430   26.0320 F   0  0  0  0  0  0  0  0  0  0  0  0
  -22.7350  -13.5940   21.1480 C   0  0  0  0  0  0  0  0  0  0  0  0
  -22.0010  -12.8960   22.0080 N   0  0  0  0  0  0  0  0  0  0  0  0
  -22.3050  -14.6260   20.6330 O   0  0  0  0  0  0  0  0  0  0  0  0
  -22.3610  -12.0630   22.4470 H   0  0  0  0  0  0  0  0  0  0  0  0
  -21.0640  -13.2040   22.2300 H   0  0  0  0  0  0  0  0  0  0  0  0
  -25.3600  -15.2580   20.3250 N   0  0  0  0  0  0  0  0  0  0  0  0
  -24.5820  -15.9010   20.4290 H   0  0  0  0  0  0  0  0  0  0  0  0
  -26.1770  -15.6940   19.9220 H   0  0  0  0  0  0  0  0  0  0  0  0
  1 11  1  0
  1 58  1  0
  2  5  1  0
  3  2  1  0
  4  5  1  0
  5  1  1  0
  6  7  1  0
  6  3  1  0
  6  4  1  0
  8  7  1  0
  9  7  1  0
 10  7  1  0
 11 14  1  0
 11 13  1  0
 12 11  1  0
 15 14  1  0
 15 16  1  0
 17 19  1  0
 17 16  1  0
 18 29  2  0
 19 24  1  0
 20 28  1  0
 20 30  1  0
 21 27  1  0
 21 23  1  0
 22 28  1  0
 23 24  2  0
 23 22  1  0
 25 19  2  0
 26 25  1  0
 26 21  2  0
 27 20  1  0
 28 18  1  0
 30 32  2  0
 31 30  1  0
 33 31  1  0
 34 43  2  0
 34 39  1  0
 35 31  1  0
 35 39  1  0
 36 35  1  0
 37 38  1  0
 37 36  1  0
 38 34  1  0
 39 40  2  0
 40 41  1  0
 42 41  2  0
 43 42  1  0
 44 18  1  0
 44 45  1  0
 44 54  1  0
 45 48  1  0
 46 50  1  0
 46 45  1  0
 47 46  2  0
 50 49  1  0
 52 50  1  0
 52 53  1  0
 52 51  1  0
 54 57  1  1
 54 55  1  0
 56 54  1  0
 59 67  1  0
 60 65  1  0
 61 62  1  0
 61 60  1  0
 63 62  1  0
 63 72  1  0
 63 64  1  0
 65 59  1  0
 65 64  1  0
 66 59  2  0
 67 58  1  0
 68 67  1  0
 69 70  2  0
 70 89  1  0
 71 70  1  0
 71 74  1  0
 72 69  1  0
 72 73  1  0
 73 71  2  0
 74 75  1  0
 75 76  2  0
 77 80  1  0
 77 76  1  0
 78 77  2  0
 79 78  1  0
 79 74  2  0
 80 81  1  0
 81 82  1  0
 82 83  2  0
 84 83  1  0
 84 88  1  0
 85 84  2  0
 86 81  2  0
 86 85  1  0
 87 86  1  0
 89 90  1  0
 90 93  1  0
 90 92  1  0
 91 89  2  0
 94 95  1  0
 94 69  1  0
 96 94  1  0
M  ISO  4  16 101  17 101  59 100  67 100
M  END
>  <TORSDO>  (46) 
F 23

>  <SCORE>  (46) 
-14.791

>  <name>  (46) 
45

>  <ligand_id>  (46) 
45

>  <original_smiles>  (46) 
[H]c1c([H])c([H])c2c(c1[H])C([H])([H])C([H])([H])C([H])([H])C2([H])N([H])C(=O)C1([H])N(C(=O)C([H])(N([H])C(=O)C([H])(N([H])C([H])([H])[H])C([H])([H])[H])C(C([H])([H])[H])(C([H])([H])[H])C([H])([H])[H])C([H])([H])c2c([H])c(OC([H])([H])C([H])([H])C([H])([H])[N+]([H])([H])C([H])(C([H])([H])N([H])C(=O)N3C([H])([H])C([H])([H])C([H])([H])C([H])(n4nc(-c5c([H])c([H])c(Oc6c([H])c([H])c(F)c([H])c6F)c([H])c5[H])c(C(=O)N([H])[H])c4N([H])[H])C3([H])[H])C3([H])C([H])([H])C([H])([H])C([H])([N+]([H])([H])[H])C3([H])[H])c([H])c([H])c2C1([H])[H]

>  <smiles>  (46) 
[H]c1c([H])c([H])c2c(c1[H])C([H])([H])C([H])([H])C([H])([H])C2([H])N([H])C(=O)C1([H])N(C(=O)C([H])(N([H])C(=O)C([H])(N([H])C([H])([H])[H])C([H])([H])[H])C(C([H])([H])[H])(C([H])([H])[H])C([H])([H])[H])C([H])([H])c2c([H])c(OC([H])([H])C([H])([H])C([H])([H])[N+]([H])([H])C([H])(C([H])([H])N([H])C(=O)N3C([H])([H])C([H])([H])C([H])([H])C([H])(n4nc(-c5c([H])c([H])c(Oc6c([H])c([H])c(F)c([H])c6F)c([H])c5[H])c(C(=O)N([H])[H])c4N([H])[H])C3([H])[H])C3([H])C([H])([H])C([H])([H])C([H])([N+]([H])([H])[H])C3([H])[H])c([H])c([H])c2C1([H])[H]

$$$$
46:0:0
     RDKit          3D

 94103  0  0  1  0  0  0  0  0999 V2000
  -31.2110  -19.1160   18.1720 C   0  0  0  0  0  3  0  0  0  0  0  0
  -31.1920  -18.0700   19.1080 C   0  0  0  0  0  3  0  0  0  0  0  0
  -30.2810  -20.1680   18.2480 C   0  0  0  0  0  3  0  0  0  0  0  0
  -30.2140  -18.0190   20.1200 C   0  0  0  0  0  0  0  0  0  0  0  0
  -29.2970  -20.2110   19.2590 C   0  0  0  0  0  0  0  0  0  0  0  0
  -29.2660  -19.1090   20.2020 C   0  0  0  0  0  0  0  0  0  0  0  0
  -28.2110  -19.0260   21.2990 C   0  0  0  0  0  1  0  0  0  0  0  0
  -31.0780  -14.6370   19.9460 C   0  0  0  0  0  0  0  0  0  0  0  0
  -30.6910  -12.4670   18.8080 C   0  0  0  0  0  2  0  0  0  0  0  0
  -29.6900  -12.6400   17.6500 C   0  0  0  0  0  2  0  0  0  0  0  0
  -28.2380  -12.5170   18.1580 C   0  0  0  0  0  2  0  0  0  0  0  0
  -27.9630  -13.3820   19.4170 C   0  0  0  0  0  3  0  0  0  0  0  0
  -29.0730  -13.1910   20.4770 C   0  0  0  0  0  2  0  0  0  0  0  0
  -30.3710  -13.4790   19.8340 N   0  0  0  0  0  0  0  0  0  0  0  0
  -32.0810  -14.8660   19.2590 O   0  0  0  0  0  0  0  0  0  0  0  0
  -31.2080  -16.9620   22.3090 C   0  0  0  0  0  2  0  0  0  0  0  0
  -31.4560  -15.4680   22.2300 C   0  0  0  0  0  2  0  0  0  0  0  0
  -30.2060  -16.8540   21.1640 C   0  0  0  0  0  3  0  0  0  0  0  0
  -30.7090  -15.4500   20.9660 N   0  0  0  0  0  0  0  0  0  0  0  0
  -25.6330  -14.0380   20.2860 C   0  0  0  0  0  0  0  0  0  0  0  0
  -24.5650  -13.2960   20.7010 C   0  0  0  0  0  0  0  0  0  0  0  0
  -24.9770  -11.9290   20.6070 C   0  0  0  0  0  0  0  0  0  0  0  0
  -26.6330  -13.1300   19.9690 N   0  0  0  0  0  0  0  0  0  0  0  0
  -26.2430  -11.8530   20.2180 N   0  0  0  0  0  0  0  0  0  0  0  0
  -24.2170  -10.6880   20.8030 C   0  0  0  0  0  0  0  0  0  0  0  0
  -24.5840   -9.7410   21.7840 C   0  0  0  0  0  3  0  0  0  0  0  0
  -23.8190   -8.5690   21.9670 C   0  0  0  0  0  3  0  0  0  0  0  0
  -22.6760   -8.3330   21.1680 C   0  0  0  0  0  0  0  0  0  0  0  0
  -22.3350   -9.2670   20.1740 C   0  0  0  0  0  3  0  0  0  0  0  0
  -23.1000  -10.4300   19.9900 C   0  0  0  0  0  3  0  0  0  0  0  0
  -21.8910   -7.2080   21.2610 O   0  0  0  0  0  0  0  0  0  0  0  0
  -21.6670   -6.5850   22.4640 C   0  0  0  0  0  0  0  0  0  0  0  0
  -21.0450   -7.2420   23.5460 C   0  0  0  0  0  3  0  0  0  0  0  0
  -20.7710   -6.5390   24.7370 C   0  0  0  0  0  3  0  0  0  0  0  0
  -21.1110   -5.1760   24.8470 C   0  0  0  0  0  0  0  0  0  0  0  0
  -21.7220   -4.5190   23.7660 C   0  0  0  0  0  3  0  0  0  0  0  0
  -21.9950   -5.2200   22.5780 C   0  0  0  0  0  0  0  0  0  0  0  0
  -22.5640   -4.5720   21.5350 F   0  0  0  0  0  0  0  0  0  0  0  0
  -20.8450   -4.5010   25.9880 F   0  0  0  0  0  0  0  0  0  0  0  0
  -23.2080  -13.8110   21.0810 C   0  0  0  0  0  0  0  0  0  0  0  0
  -22.5110  -13.1210   21.9790 N   0  0  0  0  0  0  0  0  0  0  0  0
  -22.7730  -14.8660   20.6160 O   0  0  0  0  0  0  0  0  0  0  0  0
  -22.8710  -12.2680   22.3800 H   0  0  0  0  0  0  0  0  0  0  0  0
  -21.6040  -13.4560   22.2700 H   0  0  0  0  0  0  0  0  0  0  0  0
  -25.8420  -15.4070   20.1370 N   0  0  0  0  0  0  0  0  0  0  0  0
  -25.1090  -16.0920   20.2910 H   0  0  0  0  0  0  0  0  0  0  0  0
  -26.6860  -15.8230   19.7730 H   0  0  0  0  0  0  0  0  0  0  0  0
  -28.3210  -21.4310   19.1540 C   0  0  0  0  0  2  0  0  0  0  0  0
  -28.9530  -22.7690   19.4620 N   0  0  0  0  0  4  0  0  0  0  0  0
  -29.9390  -22.6710   19.2650 H   0  0  0  0  0  0  0  0  0  0  0  0
  -28.8930  -22.8960   20.4600 H   0  0  0  0  0  0  0  0  0  0  0  0
  -28.4640  -24.0360   18.7740 C   0  0  0  0  0  2  0  0  0  0  0  0
  -28.2210  -25.2510   19.7630 C   0  0  0  0  0  2  0  0  0  0  0  0
  -28.1320  -26.6150   19.2410 O   0  0  0  0  0  0  0  0  0  0  0  0
  -24.4570  -31.5960   22.9200 C   0  0  0  0  0  0  0  0  0  0  0  0
  -26.9650  -27.3520   19.4120 C   0  0  0  0  0  0  0  0  0  0  0  0
  -23.1890  -30.3390   21.2060 C   0  0  0  0  0  3  0  0  0  0  0  0
  -24.5890  -28.9050   19.6220 C   0  0  0  0  0  0  0  0  0  0  0  0
  -25.7120  -30.6910   20.9600 C   0  0  0  0  0  2  0  0  0  0  0  0
  -25.7710  -29.3680   20.2120 C   0  0  0  0  0  0  0  0  0  0  0  0
  -26.9620  -28.6030   20.0970 C   0  0  0  0  0  3  0  0  0  0  0  0
  -25.7570  -26.9060   18.8390 C   0  0  0  0  0  3  0  0  0  0  0  0
  -24.5800  -27.6800   18.9300 C   0  0  0  0  0  3  0  0  0  0  0  0
  -23.3570  -29.7690   19.7710 C   0  0  0  0  0  2  0  0  0  0  0  0
  -24.4730  -30.8880   21.7550 N   0  0  0  0  0  0  0  0  0  0  0  0
  -23.3980  -31.8210   23.5220 O   0  0  0  0  0  0  0  0  0  0  0  0
  -22.5530  -29.2540   22.1050 C   0  0  0  0  0  0  0  0  0  0  0  0
  -21.2190  -29.1170   22.0340 N   0  0  0  0  0  0  0  0  0  0  0  0
  -23.2580  -28.5390   22.8240 O   0  0  0  0  0  0  0  0  0  0  0  0
  -20.7090  -29.7420   21.4260 H   0  0  0  0  0  0  0  0  0  0  0  0
  -17.8390  -27.9810   22.6390 C   0  0  0  0  0  0  0  0  0  0  0  0
  -20.4190  -28.1300   22.7570 C   0  0  0  0  0  3  0  0  0  0  0  0
  -20.4340  -26.7640   22.0290 C   0  0  0  0  0  2  0  0  0  0  0  0
  -19.2550  -26.5870   21.0670 C   0  0  0  0  0  2  0  0  0  0  0  0
  -17.9230  -26.7080   21.8120 C   0  0  0  0  0  2  0  0  0  0  0  0
  -19.0110  -28.6570   23.0690 C   0  0  0  0  0  0  0  0  0  0  0  0
  -18.8800  -29.8580   23.8020 C   0  0  0  0  0  3  0  0  0  0  0  0
  -17.6080  -30.3710   24.1160 C   0  0  0  0  0  3  0  0  0  0  0  0
  -16.4510  -29.6870   23.7070 C   0  0  0  0  0  3  0  0  0  0  0  0
  -16.5680  -28.4970   22.9670 C   0  0  0  0  0  3  0  0  0  0  0  0
  -25.7660  -32.1740   23.5410 C   0  0  0  0  0  3  0  0  0  0  0  0
  -26.3340  -31.2890   24.7190 C   0  0  1  0  0  0  0  0  0  0  0  0
  -25.2900  -30.9520   25.8080 C   0  0  0  0  0  1  0  0  0  0  0  0
  -26.8880  -29.9530   24.1760 C   0  0  0  0  0  1  0  0  0  0  0  0
  -27.5200  -32.0130   25.4000 C   0  0  0  0  0  1  0  0  0  0  0  0
  -25.4780  -33.5360   24.0100 N   0  0  0  0  0  0  0  0  0  0  0  0
  -25.7970  -34.6550   23.3420 C   0  0  0  0  0  0  0  0  0  0  0  0
  -26.4380  -34.6450   22.2890 O   0  0  0  0  0  0  0  0  0  0  0  0
  -24.9220  -33.6180   24.8490 H   0  0  0  0  0  0  0  0  0  0  0  0
  -24.0790  -36.4860   23.2010 C   0  0  0  0  0  1  0  0  0  0  0  0
  -25.3350  -35.9980   23.9410 C   0  0  0  0  0  3  0  0  0  0  0  0
  -27.4880  -36.7980   24.8110 C   0  0  0  0  0  1  0  0  0  0  0  0
  -26.3720  -37.0530   23.9010 N   0  0  0  0  0  0  0  0  0  0  0  0
  -25.9730  -37.9550   24.1460 H   0  0  0  0  0  0  0  0  0  0  0  0
  1  3  2  0
  1  2  1  0
  2  4  2  0
  3  5  1  0
  4  6  1  0
  5  6  2  0
  6  7  1  0
  8 19  1  0
  9 14  1  0
 10 11  1  0
 10  9  1  0
 12 11  1  0
 12 23  1  0
 12 13  1  0
 14  8  1  0
 14 13  1  0
 15  8  2  0
 17 16  1  0
 18  4  1  0
 18 16  1  0
 19 18  1  0
 19 17  1  0
 20 21  2  0
 21 40  1  0
 22 21  1  0
 22 25  1  0
 23 24  1  0
 23 20  1  0
 24 22  2  0
 25 26  1  0
 26 27  2  0
 28 31  1  0
 28 27  1  0
 29 28  2  0
 30 29  1  0
 30 25  2  0
 31 32  1  0
 32 37  2  0
 32 33  1  0
 33 34  2  0
 34 35  1  0
 35 39  1  0
 36 35  2  0
 37 36  1  0
 38 37  1  0
 40 41  1  0
 41 44  1  0
 41 43  1  0
 42 40  2  0
 45 20  1  0
 45 46  1  0
 47 45  1  0
 48  5  1  0
 48 49  1  0
 49 51  1  0
 50 49  1  0
 52 49  1  0
 52 53  1  0
 54 56  1  0
 54 53  1  0
 55 66  2  0
 56 61  1  0
 57 65  1  0
 57 67  1  0
 58 64  1  0
 58 60  1  0
 59 65  1  0
 60 59  1  0
 61 60  2  0
 62 63  1  0
 62 56  2  0
 63 58  2  0
 64 57  1  0
 65 55  1  0
 67 69  2  0
 68 67  1  0
 70 68  1  0
 71 80  2  0
 71 76  1  0
 72 68  1  0
 72 76  1  0
 73 72  1  0
 74 75  1  0
 74 73  1  0
 75 71  1  0
 76 77  2  0
 77 78  1  0
 79 78  2  0
 80 79  1  0
 81 55  1  0
 81 86  1  0
 81 82  1  0
 82 85  1  1
 82 83  1  0
 84 82  1  0
 86 89  1  0
 87 91  1  0
 87 86  1  0
 88 87  2  0
 91 90  1  0
 93 91  1  0
 93 94  1  0
 93 92  1  0
M  ISO  4   8 100  19 100  53 101  54 101
M  END
>  <TORSDO>  (47) 
F 20

>  <SCORE>  (47) 
-10.993

>  <name>  (47) 
46

>  <ligand_id>  (47) 
46

>  <original_smiles>  (47) 
[H]c1c([H])c([H])c2c(c1[H])C([H])([H])C([H])([H])C([H])([H])C2([H])N([H])C(=O)C1([H])N(C(=O)C([H])(N([H])C(=O)C([H])(N([H])C([H])([H])[H])C([H])([H])[H])C(C([H])([H])[H])(C([H])([H])[H])C([H])([H])[H])C([H])([H])c2c([H])c(OC([H])([H])C([H])([H])[N+]([H])([H])C([H])([H])c3c([H])c([H])c([H])c(C4([H])N(C(=O)N5C([H])([H])C([H])([H])C([H])([H])C([H])(n6nc(-c7c([H])c([H])c(Oc8c([H])c([H])c(F)c([H])c8F)c([H])c7[H])c(C(=O)N([H])[H])c6N([H])[H])C5([H])[H])C([H])([H])C4([H])[H])c3C([H])([H])[H])c([H])c([H])c2C1([H])[H]

>  <smiles>  (47) 
[H]c1c([H])c([H])c2c(c1[H])C([H])([H])C([H])([H])C([H])([H])C2([H])N([H])C(=O)C1([H])N(C(=O)C([H])(N([H])C(=O)C([H])(N([H])C([H])([H])[H])C([H])([H])[H])C(C([H])([H])[H])(C([H])([H])[H])C([H])([H])[H])C([H])([H])c2c([H])c(OC([H])([H])C([H])([H])[N+]([H])([H])C([H])([H])c3c([H])c([H])c([H])c(C4([H])N(C(=O)N5C([H])([H])C([H])([H])C([H])([H])C([H])(n6nc(-c7c([H])c([H])c(Oc8c([H])c([H])c(F)c([H])c8F)c([H])c7[H])c(C(=O)N([H])[H])c6N([H])[H])C5([H])[H])C([H])([H])C4([H])[H])c3C([H])([H])[H])c([H])c([H])c2C1([H])[H]

$$$$
47:0:0
     RDKit          3D

 98107  0  0  1  0  0  0  0  0999 V2000
  -32.9720  -18.5240   18.7040 C   0  0  0  0  0  3  0  0  0  0  0  0
  -32.5760  -19.8670   18.6040 C   0  0  0  0  0  3  0  0  0  0  0  0
  -32.3130  -17.6480   19.5900 C   0  0  0  0  0  3  0  0  0  0  0  0
  -31.5140  -20.3120   19.4100 C   0  0  0  0  0  0  0  0  0  0  0  0
  -30.8400  -19.4350   20.2880 C   0  0  0  0  0  0  0  0  0  0  0  0
  -31.2190  -18.0590   20.3970 C   0  0  0  0  0  0  0  0  0  0  0  0
  -31.0050  -21.6830   19.5530 C   0  0  0  0  0  0  0  0  0  0  0  0
  -29.8420  -20.2620   21.0180 C   0  0  0  0  0  0  0  0  0  0  0  0
  -30.0270  -21.6250   20.5050 C   0  0  0  0  0  3  0  0  0  0  0  0
  -31.5600  -22.5860   18.8820 O   0  0  0  0  0  0  0  0  0  0  0  0
  -29.0400  -19.9250   21.8890 O   0  0  0  0  0  0  0  0  0  0  0  0
  -29.3690  -22.8560   21.0430 N   0  0  0  0  0  4  0  0  0  0  0  0
  -28.8080  -22.6010   21.8420 H   0  0  0  0  0  0  0  0  0  0  0  0
  -30.0890  -23.4760   21.3770 H   0  0  0  0  0  0  0  0  0  0  0  0
  -28.5100  -23.6350   20.1140 C   0  0  0  0  0  2  0  0  0  0  0  0
  -27.3040  -24.5700   22.1970 C   0  0  0  0  0  1  0  0  0  0  0  0
  -27.8110  -24.8630   20.7690 C   0  0  0  0  0  3  0  0  0  0  0  0
  -28.6260  -26.1920   20.6980 C   0  0  0  0  0  2  0  0  0  0  0  0
  -28.3580  -26.9880   19.5340 O   0  0  0  0  0  0  0  0  0  0  0  0
  -24.6070  -31.8550   23.1410 C   0  0  0  0  0  0  0  0  0  0  0  0
  -27.2110  -27.7400   19.6220 C   0  0  0  0  0  0  0  0  0  0  0  0
  -23.3720  -30.5860   21.4140 C   0  0  0  0  0  3  0  0  0  0  0  0
  -24.8060  -29.2030   19.8190 C   0  0  0  0  0  0  0  0  0  0  0  0
  -25.8870  -30.9970   21.1840 C   0  0  0  0  0  2  0  0  0  0  0  0
  -25.9700  -29.6870   20.4290 C   0  0  0  0  0  0  0  0  0  0  0  0
  -27.1780  -28.9600   20.3350 C   0  0  0  0  0  3  0  0  0  0  0  0
  -26.0410  -27.2800   18.9860 C   0  0  0  0  0  3  0  0  0  0  0  0
  -24.8350  -27.9980   19.0960 C   0  0  0  0  0  3  0  0  0  0  0  0
  -23.5520  -30.0350   19.9740 C   0  0  0  0  0  2  0  0  0  0  0  0
  -24.6410  -31.1560   21.9720 N   0  0  0  0  0  0  0  0  0  0  0  0
  -23.5380  -32.0610   23.7320 O   0  0  0  0  0  0  0  0  0  0  0  0
  -22.7630  -29.4710   22.2950 C   0  0  0  0  0  0  0  0  0  0  0  0
  -21.4360  -29.2920   22.2050 N   0  0  0  0  0  0  0  0  0  0  0  0
  -23.4810  -28.7740   23.0200 O   0  0  0  0  0  0  0  0  0  0  0  0
  -20.9190  -29.9080   21.5930 H   0  0  0  0  0  0  0  0  0  0  0  0
  -18.0830  -28.0450   22.7170 C   0  0  0  0  0  0  0  0  0  0  0  0
  -20.6500  -28.2820   22.9130 C   0  0  0  0  0  3  0  0  0  0  0  0
  -20.7310  -26.9130   22.1980 C   0  0  0  0  0  2  0  0  0  0  0  0
  -19.5890  -26.6860   21.2010 C   0  0  0  0  0  2  0  0  0  0  0  0
  -18.2330  -26.7660   21.9080 C   0  0  0  0  0  2  0  0  0  0  0  0
  -19.2180  -28.7650   23.1750 C   0  0  0  0  0  0  0  0  0  0  0  0
  -19.0250  -29.9660   23.8910 C   0  0  0  0  0  3  0  0  0  0  0  0
  -17.7270  -30.4460   24.1530 C   0  0  0  0  0  3  0  0  0  0  0  0
  -16.6070  -29.7200   23.7130 C   0  0  0  0  0  3  0  0  0  0  0  0
  -16.7860  -28.5200   23.0010 C   0  0  0  0  0  3  0  0  0  0  0  0
  -25.9030  -32.4500   23.7790 C   0  0  0  0  0  3  0  0  0  0  0  0
  -25.5900  -33.8120   24.2280 N   0  0  0  0  0  0  0  0  0  0  0  0
  -25.9030  -34.9250   23.5500 C   0  0  0  0  0  0  0  0  0  0  0  0
  -26.5590  -34.9100   22.5050 O   0  0  0  0  0  0  0  0  0  0  0  0
  -25.0140  -33.8960   25.0520 H   0  0  0  0  0  0  0  0  0  0  0  0
  -24.1600  -36.7240   23.3620 C   0  0  0  0  0  1  0  0  0  0  0  0
  -25.4130  -36.2670   24.1240 C   0  0  0  0  0  3  0  0  0  0  0  0
  -27.5530  -37.0910   25.0000 C   0  0  0  0  0  1  0  0  0  0  0  0
  -26.4380  -37.3330   24.0880 N   0  0  0  0  0  0  0  0  0  0  0  0
  -26.0310  -38.2350   24.3190 H   0  0  0  0  0  0  0  0  0  0  0  0
  -26.4610  -31.5830   24.9740 C   0  0  1  0  0  0  0  0  0  0  0  0
  -25.4000  -31.2520   26.0510 C   0  0  0  0  0  1  0  0  0  0  0  0
  -27.0420  -30.2490   24.4540 C   0  0  0  0  0  1  0  0  0  0  0  0
  -27.6270  -32.3330   25.6630 C   0  0  0  0  0  1  0  0  0  0  0  0
  -30.6290  -17.0770   21.4400 C   0  0  0  0  0  2  0  0  0  0  0  0
  -30.7160  -14.6870   20.5800 C   0  0  0  0  0  0  0  0  0  0  0  0
  -30.4130  -12.4790   19.5240 C   0  0  0  0  0  2  0  0  0  0  0  0
  -29.5090  -12.5990   18.2840 C   0  0  0  0  0  2  0  0  0  0  0  0
  -28.0300  -12.4580   18.6840 C   0  0  0  0  0  2  0  0  0  0  0  0
  -27.6420  -13.3660   19.8830 C   0  0  0  0  0  3  0  0  0  0  0  0
  -28.6720  -13.2620   21.0290 C   0  0  0  0  0  2  0  0  0  0  0  0
  -30.0020  -13.5340   20.4640 N   0  0  0  0  0  0  0  0  0  0  0  0
  -31.8860  -14.7510   20.2170 O   0  0  0  0  0  0  0  0  0  0  0  0
  -30.0540  -15.7860   20.9920 N   0  0  0  0  0  0  0  0  0  0  0  0
  -29.0750  -15.6540   21.1870 H   0  0  0  0  0  0  0  0  0  0  0  0
  -25.2330  -13.9680   20.5500 C   0  0  0  0  0  0  0  0  0  0  0  0
  -24.1610  -13.1940   20.9030 C   0  0  0  0  0  0  0  0  0  0  0  0
  -24.6250  -11.8430   20.8870 C   0  0  0  0  0  0  0  0  0  0  0  0
  -26.2840  -13.0870   20.3430 N   0  0  0  0  0  0  0  0  0  0  0  0
  -25.9210  -11.8060   20.6040 N   0  0  0  0  0  0  0  0  0  0  0  0
  -23.8970  -10.5810   21.0670 C   0  0  0  0  0  0  0  0  0  0  0  0
  -24.3250   -9.6080   21.9970 C   0  0  0  0  0  3  0  0  0  0  0  0
  -23.5980   -8.4090   22.1650 C   0  0  0  0  0  3  0  0  0  0  0  0
  -22.4290   -8.1760   21.4040 C   0  0  0  0  0  0  0  0  0  0  0  0
  -22.0190   -9.1380   20.4630 C   0  0  0  0  0  3  0  0  0  0  0  0
  -22.7470  -10.3280   20.2930 C   0  0  0  0  0  3  0  0  0  0  0  0
  -21.6730   -7.0310   21.4810 O   0  0  0  0  0  0  0  0  0  0  0  0
  -21.6380   -6.2700   22.6220 C   0  0  0  0  0  0  0  0  0  0  0  0
  -21.2410   -6.8080   23.8650 C   0  0  0  0  0  3  0  0  0  0  0  0
  -21.1500   -5.9720   24.9970 C   0  0  0  0  0  3  0  0  0  0  0  0
  -21.4470   -4.6010   24.8870 C   0  0  0  0  0  0  0  0  0  0  0  0
  -21.8360   -4.0620   23.6480 C   0  0  0  0  0  3  0  0  0  0  0  0
  -21.9290   -4.8940   22.5190 C   0  0  0  0  0  0  0  0  0  0  0  0
  -22.2850   -4.3660   21.3230 F   0  0  0  0  0  0  0  0  0  0  0  0
  -21.3530   -3.7970   25.9710 F   0  0  0  0  0  0  0  0  0  0  0  0
  -22.7580  -13.6720   21.1460 C   0  0  0  0  0  0  0  0  0  0  0  0
  -22.0150  -12.9830   22.0040 N   0  0  0  0  0  0  0  0  0  0  0  0
  -22.3280  -14.6910   20.6080 O   0  0  0  0  0  0  0  0  0  0  0  0
  -22.3720  -12.1570   22.4610 H   0  0  0  0  0  0  0  0  0  0  0  0
  -21.0730  -13.2860   22.2080 H   0  0  0  0  0  0  0  0  0  0  0  0
  -25.3980  -15.3370   20.3660 N   0  0  0  0  0  0  0  0  0  0  0  0
  -24.6240  -15.9870   20.4460 H   0  0  0  0  0  0  0  0  0  0  0  0
  -26.2470  -15.7750   20.0300 H   0  0  0  0  0  0  0  0  0  0  0  0
  1  3  1  0
  2  1  2  0
  2  4  1  0
  3  6  2  0
  4  7  1  0
  4  5  2  0
  5  6  1  0
  5  8  1  0
  6 60  1  0
  7  9  1  0
  8 11  2  0
  9  8  1  0
  9 12  1  0
 10  7  2  0
 12 14  1  0
 12 13  1  0
 15 17  1  0
 15 12  1  0
 17 16  1  0
 18 17  1  0
 19 21  1  0
 19 18  1  0
 20 31  2  0
 21 26  1  0
 22 30  1  0
 22 32  1  0
 23 29  1  0
 23 25  1  0
 24 30  1  0
 25 24  1  0
 26 25  2  0
 27 28  1  0
 27 21  2  0
 28 23  2  0
 29 22  1  0
 30 20  1  0
 32 34  2  0
 33 32  1  0
 35 33  1  0
 36 45  2  0
 36 41  1  0
 37 33  1  0
 37 41  1  0
 38 37  1  0
 39 40  1  0
 39 38  1  0
 40 36  1  0
 41 42  2  0
 42 43  1  0
 44 43  2  0
 45 44  1  0
 46 20  1  0
 46 47  1  0
 46 56  1  0
 47 50  1  0
 48 52  1  0
 48 47  1  0
 49 48  2  0
 52 51  1  0
 54 52  1  0
 54 55  1  0
 54 53  1  0
 56 59  1  1
 56 57  1  0
 58 56  1  0
 61 69  1  0
 62 67  1  0
 63 64  1  0
 63 62  1  0
 65 64  1  0
 65 74  1  0
 65 66  1  0
 67 61  1  0
 67 66  1  0
 68 61  2  0
 69 70  1  0
 69 60  1  0
 71 72  2  0
 72 91  1  0
 73 72  1  0
 73 76  1  0
 74 71  1  0
 74 75  1  0
 75 73  2  0
 76 77  1  0
 77 78  2  0
 79 82  1  0
 79 78  1  0
 80 79  2  0
 81 80  1  0
 81 76  2  0
 82 83  1  0
 83 84  1  0
 84 85  2  0
 86 85  1  0
 86 90  1  0
 87 86  2  0
 88 83  2  0
 88 87  1  0
 89 88  1  0
 91 92  1  0
 92 95  1  0
 92 94  1  0
 93 91  2  0
 96 97  1  0
 96 71  1  0
 98 96  1  0
M  ISO  4  18 101  19 101  61 100  69 100
M  END
>  <TORSDO>  (48) 
F 21

>  <SCORE>  (48) 
-12.639

>  <name>  (48) 
47

>  <ligand_id>  (48) 
47

>  <original_smiles>  (48) 
[H]c1c([H])c2c(c(C([H])([H])N([H])C(=O)N3C([H])([H])C([H])([H])C([H])([H])C([H])(n4nc(-c5c([H])c([H])c(Oc6c([H])c([H])c(F)c([H])c6F)c([H])c5[H])c(C(=O)N([H])[H])c4N([H])[H])C3([H])[H])c1[H])C(=O)C([N+]([H])([H])C([H])([H])C([H])(C([H])([H])[H])C([H])([H])Oc1c([H])c([H])c3c(c1[H])C([H])([H])N(C(=O)C([H])(N([H])C(=O)C([H])(N([H])C([H])([H])[H])C([H])([H])[H])C(C([H])([H])[H])(C([H])([H])[H])C([H])([H])[H])C([H])(C(=O)N([H])C1([H])c4c([H])c([H])c([H])c([H])c4C([H])([H])C([H])([H])C1([H])[H])C3([H])[H])=C2[O-]

>  <smiles>  (48) 
[H]c1c([H])c2c(c(C([H])([H])N([H])C(=O)N3C([H])([H])C([H])([H])C([H])([H])C([H])(n4nc(-c5c([H])c([H])c(Oc6c([H])c([H])c(F)c([H])c6F)c([H])c5[H])c(C(=O)N([H])[H])c4N([H])[H])C3([H])[H])c1[H])C(=O)C([N+]([H])([H])C([H])([H])C([H])(C([H])([H])[H])C([H])([H])Oc1c([H])c([H])c3c(c1[H])C([H])([H])N(C(=O)C([H])(N([H])C(=O)C([H])(N([H])C([H])([H])[H])C([H])([H])[H])C(C([H])([H])[H])(C([H])([H])[H])C([H])([H])[H])C([H])(C(=O)N([H])C1([H])c4c([H])c([H])c([H])c([H])c4C([H])([H])C([H])([H])C1([H])[H])C3([H])[H])=C2[O-]

$$$$
48:0:0
     RDKit          3D

 96105  0  0  1  0  0  0  0  0999 V2000
  -27.6000  -19.4590   20.0860 N   0  0  0  0  0  4  0  0  0  0  0  0
  -28.3780  -19.5430   20.7250 H   0  0  0  0  0  0  0  0  0  0  0  0
  -26.7650  -19.3560   20.6420 H   0  0  0  0  0  0  0  0  0  0  0  0
  -27.8270  -18.1910   19.3480 C   0  0  0  0  0  2  0  0  0  0  0  0
  -28.9840  -17.4240   20.0130 C   0  0  0  0  0  0  0  0  0  0  0  0
  -29.2760  -17.6760   21.1880 O   0  0  0  0  0  0  0  0  0  0  0  0
  -31.1290  -14.7800   20.7570 C   0  0  0  0  0  0  0  0  0  0  0  0
  -30.7990  -12.5220   19.9300 C   0  0  0  0  0  2  0  0  0  0  0  0
  -29.9700  -12.5150   18.6420 C   0  0  0  0  0  2  0  0  0  0  0  0
  -28.4670  -12.4220   18.9660 C   0  0  0  0  0  2  0  0  0  0  0  0
  -27.9950  -13.3830   20.0930 C   0  0  0  0  0  3  0  0  0  0  0  0
  -28.9970  -13.4740   21.2660 C   0  0  0  0  0  2  0  0  0  0  0  0
  -30.3290  -13.6860   20.6780 N   0  0  0  0  0  0  0  0  0  0  0  0
  -32.2860  -14.6760   21.1370 O   0  0  0  0  0  0  0  0  0  0  0  0
  -31.3760  -15.9840   17.1500 C   0  0  0  0  0  2  0  0  0  0  0  0
  -32.5670  -15.7310   18.1210 C   0  0  0  0  0  2  0  0  0  0  0  0
  -31.5590  -17.8120   18.5890 C   0  0  0  0  0  2  0  0  0  0  0  0
  -29.7700  -16.3770   19.1630 C   0  0  0  0  0  3  0  0  0  0  0  0
  -30.4830  -17.0120   17.9230 C   0  0  0  0  0  3  0  0  0  0  0  0
  -32.0920  -16.5800   19.3110 C   0  0  0  0  0  3  0  0  0  0  0  0
  -30.9380  -15.8140   19.8740 N   0  0  0  0  0  0  0  0  0  0  0  0
  -25.5700  -14.0090   20.6200 C   0  0  0  0  0  0  0  0  0  0  0  0
  -24.4670  -13.2460   20.8800 C   0  0  0  0  0  0  0  0  0  0  0  0
  -24.9240  -11.8950   20.9130 C   0  0  0  0  0  0  0  0  0  0  0  0
  -26.6260  -13.1180   20.5020 N   0  0  0  0  0  0  0  0  0  0  0  0
  -26.2380  -11.8430   20.7400 N   0  0  0  0  0  0  0  0  0  0  0  0
  -24.1800  -10.6400   21.0430 C   0  0  0  0  0  0  0  0  0  0  0  0
  -24.5540   -9.6570   21.9850 C   0  0  0  0  0  3  0  0  0  0  0  0
  -23.8140   -8.4620   22.1040 C   0  0  0  0  0  3  0  0  0  0  0  0
  -22.6860   -8.2450   21.2800 C   0  0  0  0  0  0  0  0  0  0  0  0
  -22.3320   -9.2140   20.3250 C   0  0  0  0  0  3  0  0  0  0  0  0
  -23.0730  -10.4010   20.2040 C   0  0  0  0  0  3  0  0  0  0  0  0
  -21.9180   -7.1070   21.3110 O   0  0  0  0  0  0  0  0  0  0  0  0
  -21.8050   -6.3480   22.4470 C   0  0  0  0  0  0  0  0  0  0  0  0
  -21.3100   -6.8830   23.6550 C   0  0  0  0  0  3  0  0  0  0  0  0
  -21.1470   -6.0520   24.7810 C   0  0  0  0  0  3  0  0  0  0  0  0
  -21.4660   -4.6830   24.6970 C   0  0  0  0  0  0  0  0  0  0  0  0
  -21.9530   -4.1450   23.4920 C   0  0  0  0  0  3  0  0  0  0  0  0
  -22.1200   -4.9760   22.3710 C   0  0  0  0  0  0  0  0  0  0  0  0
  -22.5710   -4.4490   21.2060 F   0  0  0  0  0  0  0  0  0  0  0  0
  -21.3030   -3.8800   25.7750 F   0  0  0  0  0  0  0  0  0  0  0  0
  -23.0530  -13.7340   21.0070 C   0  0  0  0  0  0  0  0  0  0  0  0
  -22.2460  -13.0680   21.8260 N   0  0  0  0  0  0  0  0  0  0  0  0
  -22.6690  -14.7450   20.4200 O   0  0  0  0  0  0  0  0  0  0  0  0
  -22.5620  -12.2550   22.3330 H   0  0  0  0  0  0  0  0  0  0  0  0
  -21.2920  -13.3770   21.9450 H   0  0  0  0  0  0  0  0  0  0  0  0
  -25.7540  -15.3800   20.4590 N   0  0  0  0  0  0  0  0  0  0  0  0
  -24.9780  -16.0070   20.6380 H   0  0  0  0  0  0  0  0  0  0  0  0
  -26.6490  -15.7910   20.6740 H   0  0  0  0  0  0  0  0  0  0  0  0
  -27.5000  -20.6730   19.2300 C   0  0  0  0  0  2  0  0  0  0  0  0
  -27.3280  -21.9940   20.0350 C   0  0  0  0  0  2  0  0  0  0  0  0
  -27.9660  -23.1310   19.3660 N   0  0  0  0  0  0  0  0  0  0  0  0
  -27.4960  -23.3120   18.4800 H   0  0  0  0  0  0  0  0  0  0  0  0
  -27.9160  -24.3460   20.1850 C   0  0  0  0  0  2  0  0  0  0  0  0
  -28.5180  -25.5560   19.4200 C   0  0  0  0  0  2  0  0  0  0  0  0
  -28.4170  -26.8060   20.1210 O   0  0  0  0  0  0  0  0  0  0  0  0
  -24.5400  -31.9030   23.2480 C   0  0  0  0  0  0  0  0  0  0  0  0
  -27.2260  -27.5080   20.1130 C   0  0  0  0  0  0  0  0  0  0  0  0
  -23.3520  -30.5170   21.5810 C   0  0  0  0  0  3  0  0  0  0  0  0
  -24.8200  -29.0090   20.1440 C   0  0  0  0  0  0  0  0  0  0  0  0
  -25.8790  -30.8890   21.4050 C   0  0  0  0  0  2  0  0  0  0  0  0
  -25.9730  -29.5270   20.7450 C   0  0  0  0  0  0  0  0  0  0  0  0
  -27.1760  -28.7830   20.7290 C   0  0  0  0  0  3  0  0  0  0  0  0
  -26.0460  -27.0080   19.5120 C   0  0  0  0  0  3  0  0  0  0  0  0
  -24.8520  -27.7480   19.5270 C   0  0  0  0  0  3  0  0  0  0  0  0
  -23.5710  -29.8590   20.1940 C   0  0  0  0  0  2  0  0  0  0  0  0
  -24.6080  -31.1160   22.1360 N   0  0  0  0  0  0  0  0  0  0  0  0
  -23.4530  -32.1610   23.7840 O   0  0  0  0  0  0  0  0  0  0  0  0
  -22.7010  -29.4780   22.5230 C   0  0  0  0  0  0  0  0  0  0  0  0
  -21.3780  -29.2940   22.3870 N   0  0  0  0  0  0  0  0  0  0  0  0
  -23.3840  -28.8400   23.3290 O   0  0  0  0  0  0  0  0  0  0  0  0
  -20.8890  -29.8620   21.7110 H   0  0  0  0  0  0  0  0  0  0  0  0
  -18.0060  -28.0890   22.8620 C   0  0  0  0  0  0  0  0  0  0  0  0
  -20.5620  -28.3430   23.1420 C   0  0  0  0  0  3  0  0  0  0  0  0
  -20.6640  -26.9220   22.5440 C   0  0  0  0  0  2  0  0  0  0  0  0
  -19.5650  -26.6160   21.5210 C   0  0  0  0  0  2  0  0  0  0  0  0
  -18.1830  -26.7510   22.1650 C   0  0  0  0  0  2  0  0  0  0  0  0
  -19.1240  -28.8440   23.3070 C   0  0  0  0  0  0  0  0  0  0  0  0
  -18.9030  -30.0970   23.9180 C   0  0  0  0  0  3  0  0  0  0  0  0
  -17.5990  -30.5980   24.0860 C   0  0  0  0  0  3  0  0  0  0  0  0
  -16.4970  -29.8400   23.6570 C   0  0  0  0  0  3  0  0  0  0  0  0
  -16.7000  -28.5870   23.0540 C   0  0  0  0  0  3  0  0  0  0  0  0
  -25.8180  -32.5330   23.8850 C   0  0  0  0  0  3  0  0  0  0  0  0
  -26.3090  -31.7730   25.1780 C   0  0  1  0  0  0  0  0  0  0  0  0
  -25.1970  -31.5550   26.2310 C   0  0  0  0  0  1  0  0  0  0  0  0
  -26.8840  -30.3860   24.8110 C   0  0  0  0  0  1  0  0  0  0  0  0
  -27.4610  -32.5630   25.8450 C   0  0  0  0  0  1  0  0  0  0  0  0
  -25.5120  -33.9380   24.1890 N   0  0  0  0  0  0  0  0  0  0  0  0
  -25.8740  -34.9770   23.4230 C   0  0  0  0  0  0  0  0  0  0  0  0
  -26.5690  -34.8540   22.4120 O   0  0  0  0  0  0  0  0  0  0  0  0
  -24.8940  -34.1080   24.9690 H   0  0  0  0  0  0  0  0  0  0  0  0
  -24.1730  -36.7790   22.9930 C   0  0  0  0  0  1  0  0  0  0  0  0
  -25.3850  -36.3750   23.8480 C   0  0  0  0  0  3  0  0  0  0  0  0
  -27.5020  -37.2500   24.7350 C   0  0  0  0  0  1  0  0  0  0  0  0
  -26.4290  -37.4180   23.7570 N   0  0  0  0  0  0  0  0  0  0  0  0
  -26.0270  -38.3430   23.8860 H   0  0  0  0  0  0  0  0  0  0  0  0
  1  3  1  0
  1  2  1  0
  4  5  1  0
  4  1  1  0
  5  6  2  0
  7 14  2  0
  8 13  1  0
  9 10  1  0
  9  8  1  0
 11 10  1  0
 11 25  1  0
 11 12  1  0
 13  7  1  0
 13 12  1  0
 15 16  1  0
 17 20  1  0
 18 21  1  0
 18  5  1  0
 19 15  1  0
 19 17  1  0
 19 18  1  0
 20 16  1  0
 20 21  1  0
 21  7  1  0
 22 23  2  0
 23 24  1  0
 23 42  1  0
 24 27  1  0
 25 22  1  0
 25 26  1  0
 26 24  2  0
 27 28  1  0
 28 29  2  0
 30 33  1  0
 30 29  1  0
 31 30  2  0
 32 31  1  0
 32 27  2  0
 33 34  1  0
 34 35  1  0
 35 36  2  0
 37 36  1  0
 37 41  1  0
 38 37  2  0
 39 34  2  0
 39 38  1  0
 40 39  1  0
 42 43  1  0
 43 46  1  0
 43 45  1  0
 44 42  2  0
 47 22  1  0
 47 48  1  0
 47 49  1  0
 50 51  1  0
 50  1  1  0
 52 51  1  0
 52 54  1  0
 53 52  1  0
 55 56  1  0
 55 54  1  0
 57 68  2  0
 58 56  1  0
 58 63  1  0
 59 67  1  0
 59 69  1  0
 60 66  1  0
 60 62  1  0
 61 67  1  0
 62 61  1  0
 63 62  2  0
 64 65  1  0
 64 58  2  0
 65 60  2  0
 66 59  1  0
 67 57  1  0
 69 71  2  0
 70 69  1  0
 72 70  1  0
 73 82  2  0
 73 78  1  0
 74 70  1  0
 74 78  1  0
 75 74  1  0
 76 77  1  0
 76 75  1  0
 77 73  1  0
 78 79  2  0
 79 80  1  0
 81 80  2  0
 82 81  1  0
 83 57  1  0
 83 88  1  0
 83 84  1  0
 84 87  1  1
 84 85  1  0
 86 84  1  0
 88 91  1  0
 89 93  1  0
 89 88  1  0
 90 89  2  0
 93 92  1  0
 95 93  1  0
 95 96  1  0
 95 94  1  0
M  ISO  4   7 100  21 100  55 101  56 101
M  END
>  <TORSDO>  (49) 
F 23

>  <SCORE>  (49) 
-12.021

>  <name>  (49) 
48

>  <ligand_id>  (49) 
48

>  <original_smiles>  (49) 
[H]c1c([H])c([H])c2c(c1[H])C([H])([H])C([H])([H])C([H])([H])C2([H])N([H])C(=O)C1([H])N(C(=O)C([H])(N([H])C(=O)C([H])(N([H])C([H])([H])[H])C([H])([H])[H])C(C([H])([H])[H])(C([H])([H])[H])C([H])([H])[H])C([H])([H])c2c([H])c(OC([H])([H])C([H])([H])N([H])C([H])([H])C([H])([H])[N+]([H])([H])C([H])([H])C(=O)C3([H])N(C(=O)N4C([H])([H])C([H])([H])C([H])([H])C([H])(n5nc(-c6c([H])c([H])c(Oc7c([H])c([H])c(F)c([H])c7F)c([H])c6[H])c(C(=O)N([H])[H])c5N([H])[H])C4([H])[H])C4([H])C([H])([H])C([H])([H])C3([H])C4([H])[H])c([H])c([H])c2C1([H])[H]

>  <smiles>  (49) 
[H]c1c([H])c([H])c2c(c1[H])C([H])([H])C([H])([H])C([H])([H])C2([H])N([H])C(=O)C1([H])N(C(=O)C([H])(N([H])C(=O)C([H])(N([H])C([H])([H])[H])C([H])([H])[H])C(C([H])([H])[H])(C([H])([H])[H])C([H])([H])[H])C([H])([H])c2c([H])c(OC([H])([H])C([H])([H])N([H])C([H])([H])C([H])([H])[N+]([H])([H])C([H])([H])C(=O)C3([H])N(C(=O)N4C([H])([H])C([H])([H])C([H])([H])C([H])(n5nc(-c6c([H])c([H])c(Oc7c([H])c([H])c(F)c([H])c7F)c([H])c6[H])c(C(=O)N([H])[H])c5N([H])[H])C4([H])[H])C4([H])C([H])([H])C([H])([H])C3([H])C4([H])[H])c([H])c([H])c2C1([H])[H]

$$$$
49:0:0
     RDKit          3D

 97106  0  0  1  0  0  0  0  0999 V2000
  -29.3270  -20.5980   19.7280 C   0  0  0  0  0  0  0  0  0  0  0  0
  -29.8940  -19.3950   19.4240 N   0  0  0  0  0  0  0  0  0  0  0  0
  -28.2230  -20.6340   20.2800 O   0  0  0  0  0  0  0  0  0  0  0  0
  -30.8020  -19.4410   18.9810 H   0  0  0  0  0  0  0  0  0  0  0  0
  -30.8130  -14.6170   19.9110 C   0  0  0  0  0  0  0  0  0  0  0  0
  -30.5010  -12.4060   18.8660 C   0  0  0  0  0  2  0  0  0  0  0  0
  -29.4940  -12.5790   17.7060 C   0  0  0  0  0  2  0  0  0  0  0  0
  -28.0420  -12.4380   18.2130 C   0  0  0  0  0  2  0  0  0  0  0  0
  -27.7660  -13.2820   19.4850 C   0  0  0  0  0  3  0  0  0  0  0  0
  -28.8830  -13.0790   20.5290 C   0  0  0  0  0  2  0  0  0  0  0  0
  -30.1580  -13.4190   19.8800 N   0  0  0  0  0  0  0  0  0  0  0  0
  -31.9730  -14.7250   19.5040 O   0  0  0  0  0  0  0  0  0  0  0  0
  -30.1660  -16.8540   18.9760 C   0  0  0  0  0  2  0  0  0  0  0  0
  -29.5650  -16.3760   21.1730 C   0  0  0  0  0  2  0  0  0  0  0  0
  -29.2450  -18.0430   19.4080 C   0  0  0  0  0  3  0  0  0  0  0  0
  -28.6330  -17.5080   20.7200 C   0  0  0  0  0  3  0  0  0  0  0  0
  -30.0160  -15.7320   19.9420 N   0  0  0  0  0  0  0  0  0  0  0  0
  -25.4100  -13.8920   20.2990 C   0  0  0  0  0  0  0  0  0  0  0  0
  -24.3650  -13.1280   20.7440 C   0  0  0  0  0  0  0  0  0  0  0  0
  -24.8260  -11.7770   20.7040 C   0  0  0  0  0  0  0  0  0  0  0  0
  -26.4420  -13.0100   20.0320 N   0  0  0  0  0  0  0  0  0  0  0  0
  -26.0970  -11.7320   20.3290 N   0  0  0  0  0  0  0  0  0  0  0  0
  -24.1120  -10.5180   20.9380 C   0  0  0  0  0  0  0  0  0  0  0  0
  -24.5370   -9.6040   21.9270 C   0  0  0  0  0  3  0  0  0  0  0  0
  -23.8220   -8.4060   22.1420 C   0  0  0  0  0  3  0  0  0  0  0  0
  -22.6710   -8.1160   21.3720 C   0  0  0  0  0  0  0  0  0  0  0  0
  -22.2680   -9.0190   20.3740 C   0  0  0  0  0  3  0  0  0  0  0  0
  -22.9830  -10.2090   20.1550 C   0  0  0  0  0  3  0  0  0  0  0  0
  -21.9240   -6.9680   21.5030 O   0  0  0  0  0  0  0  0  0  0  0  0
  -21.7820   -6.3360   22.7140 C   0  0  0  0  0  0  0  0  0  0  0  0
  -21.2190   -6.9850   23.8340 C   0  0  0  0  0  3  0  0  0  0  0  0
  -21.0330   -6.2770   25.0380 C   0  0  0  0  0  3  0  0  0  0  0  0
  -21.3920   -4.9180   25.1200 C   0  0  0  0  0  0  0  0  0  0  0  0
  -21.9450   -4.2670   24.0030 C   0  0  0  0  0  3  0  0  0  0  0  0
  -22.1400   -4.9750   22.8030 C   0  0  0  0  0  0  0  0  0  0  0  0
  -22.6550   -4.3380   21.7250 F   0  0  0  0  0  0  0  0  0  0  0  0
  -21.2050   -4.2350   26.2740 F   0  0  0  0  0  0  0  0  0  0  0  0
  -22.9830  -13.6090   21.0820 C   0  0  0  0  0  0  0  0  0  0  0  0
  -22.3040  -12.9280   22.0000 N   0  0  0  0  0  0  0  0  0  0  0  0
  -22.5130  -14.6210   20.5660 O   0  0  0  0  0  0  0  0  0  0  0  0
  -22.6870  -12.1000   22.4330 H   0  0  0  0  0  0  0  0  0  0  0  0
  -21.3800  -13.2280   22.2650 H   0  0  0  0  0  0  0  0  0  0  0  0
  -25.5670  -15.2600   20.0740 N   0  0  0  0  0  0  0  0  0  0  0  0
  -24.7500  -15.8600   20.0910 H   0  0  0  0  0  0  0  0  0  0  0  0
  -26.2660  -15.5620   19.4060 H   0  0  0  0  0  0  0  0  0  0  0  0
  -28.3600  -18.5010   21.7730 N   0  0  0  0  0  4  0  0  0  0  0  0
  -27.7390  -18.1220   22.4670 H   0  0  0  0  0  0  0  0  0  0  0  0
  -27.9250  -19.3060   21.3420 H   0  0  0  0  0  0  0  0  0  0  0  0
  -29.2170  -18.7910   22.2070 H   0  0  0  0  0  0  0  0  0  0  0  0
  -31.5650  -21.9770   19.5750 C   0  0  0  0  0  2  0  0  0  0  0  0
  -31.3010  -22.6100   20.9370 C   0  0  0  0  0  2  0  0  0  0  0  0
  -30.0450  -21.9600   19.3900 C   0  0  0  0  0  3  0  0  0  0  0  0
  -29.9560  -23.0050   20.4620 N   0  0  2  0  0  4  0  0  0  0  0  0
  -29.2480  -22.7630   21.1460 H   0  0  0  0  0  0  0  0  0  0  0  0
  -29.8880  -24.4730   20.0620 C   0  0  0  0  0  2  0  0  0  0  0  0
  -28.4800  -25.1680   20.0630 C   0  0  0  0  0  2  0  0  0  0  0  0
  -28.5430  -26.6290   19.9590 O   0  0  0  0  0  0  0  0  0  0  0  0
  -24.5410  -31.7020   23.0760 C   0  0  0  0  0  0  0  0  0  0  0  0
  -27.3510  -27.3570   19.9390 C   0  0  0  0  0  0  0  0  0  0  0  0
  -23.4000  -30.3160   21.3770 C   0  0  0  0  0  3  0  0  0  0  0  0
  -24.9180  -28.8510   19.9340 C   0  0  0  0  0  0  0  0  0  0  0  0
  -25.9260  -30.7280   21.2380 C   0  0  0  0  0  2  0  0  0  0  0  0
  -26.0580  -29.3760   20.5530 C   0  0  0  0  0  0  0  0  0  0  0  0
  -27.2770  -28.6470   20.5420 C   0  0  0  0  0  3  0  0  0  0  0  0
  -26.1850  -26.8610   19.3080 C   0  0  0  0  0  3  0  0  0  0  0  0
  -24.9840  -27.5990   19.2950 C   0  0  0  0  0  3  0  0  0  0  0  0
  -23.6490  -29.6820   19.9840 C   0  0  0  0  0  2  0  0  0  0  0  0
  -24.6380  -30.9300   21.9540 N   0  0  0  0  0  0  0  0  0  0  0  0
  -23.4450  -31.9350   23.6030 O   0  0  0  0  0  0  0  0  0  0  0  0
  -22.7560  -29.2570   22.2980 C   0  0  0  0  0  0  0  0  0  0  0  0
  -21.4340  -29.0600   22.1600 N   0  0  0  0  0  0  0  0  0  0  0  0
  -23.4460  -28.6150   23.0940 O   0  0  0  0  0  0  0  0  0  0  0  0
  -20.9360  -29.6360   21.4950 H   0  0  0  0  0  0  0  0  0  0  0  0
  -18.0650  -27.8310   22.6470 C   0  0  0  0  0  0  0  0  0  0  0  0
  -20.6260  -28.0830   22.8960 C   0  0  0  0  0  3  0  0  0  0  0  0
  -20.7230  -26.6800   22.2510 C   0  0  0  0  0  2  0  0  0  0  0  0
  -19.6070  -26.4060   21.2390 C   0  0  0  0  0  2  0  0  0  0  0  0
  -18.2330  -26.5180   21.9060 C   0  0  0  0  0  2  0  0  0  0  0  0
  -19.1860  -28.5750   23.1000 C   0  0  0  0  0  0  0  0  0  0  0  0
  -18.9720  -29.8090   23.7510 C   0  0  0  0  0  3  0  0  0  0  0  0
  -17.6670  -30.2980   23.9550 C   0  0  0  0  0  3  0  0  0  0  0  0
  -16.5600  -29.5500   23.5170 C   0  0  0  0  0  3  0  0  0  0  0  0
  -16.7610  -28.3200   22.8710 C   0  0  0  0  0  3  0  0  0  0  0  0
  -25.8000  -32.3490   23.7350 C   0  0  0  0  0  3  0  0  0  0  0  0
  -26.3120  -31.5600   25.0030 C   0  0  1  0  0  0  0  0  0  0  0  0
  -25.2060  -31.2690   26.0440 C   0  0  0  0  0  1  0  0  0  0  0  0
  -26.9380  -30.2080   24.5890 C   0  0  0  0  0  1  0  0  0  0  0  0
  -27.4300  -32.3670   25.7040 C   0  0  0  0  0  1  0  0  0  0  0  0
  -25.4550  -33.7310   24.0930 N   0  0  0  0  0  0  0  0  0  0  0  0
  -25.7560  -34.8080   23.3540 C   0  0  0  0  0  0  0  0  0  0  0  0
  -26.4290  -34.7410   22.3210 O   0  0  0  0  0  0  0  0  0  0  0  0
  -24.8580  -33.8520   24.8990 H   0  0  0  0  0  0  0  0  0  0  0  0
  -23.9800  -36.5580   23.0300 C   0  0  0  0  0  1  0  0  0  0  0  0
  -25.2320  -36.1740   23.8360 C   0  0  0  0  0  3  0  0  0  0  0  0
  -27.3360  -37.1060   24.6900 C   0  0  0  0  0  1  0  0  0  0  0  0
  -26.2370  -37.2550   23.7390 N   0  0  0  0  0  0  0  0  0  0  0  0
  -25.8070  -38.1630   23.8880 H   0  0  0  0  0  0  0  0  0  0  0  0
  1  3  2  0
  2  1  1  0
  4  2  1  0
  5 17  1  0
  6 11  1  0
  7  8  1  0
  7  6  1  0
  9  8  1  0
  9 21  1  0
  9 10  1  0
 11  5  1  0
 11 10  1  0
 12  5  2  0
 13 15  1  0
 13 17  1  0
 15  2  1  0
 15 16  1  0
 16 14  1  0
 16 46  1  0
 17 14  1  0
 18 19  2  0
 19 38  1  0
 20 19  1  0
 20 23  1  0
 21 18  1  0
 21 22  1  0
 22 20  2  0
 23 24  1  0
 24 25  2  0
 26 29  1  0
 26 25  1  0
 27 26  2  0
 28 27  1  0
 28 23  2  0
 29 30  1  0
 30 35  2  0
 30 31  1  0
 31 32  2  0
 32 33  1  0
 33 37  1  0
 34 33  2  0
 35 34  1  0
 36 35  1  0
 38 39  1  0
 39 42  1  0
 39 41  1  0
 40 38  2  0
 43 44  1  0
 43 18  1  0
 45 43  1  0
 46 49  1  0
 46 47  1  0
 48 46  1  0
 50 51  1  0
 52 50  1  0
 52  1  1  0
 52 53  1  0
 53 51  1  0
 53 54  1  1
 55 56  1  0
 55 53  1  0
 57 56  1  0
 58 69  2  0
 59 57  1  0
 59 64  1  0
 60 68  1  0
 60 70  1  0
 61 67  1  0
 61 63  1  0
 62 68  1  0
 63 62  1  0
 64 63  2  0
 65 59  2  0
 66 65  1  0
 66 61  2  0
 67 60  1  0
 68 58  1  0
 70 72  2  0
 71 70  1  0
 73 71  1  0
 74 83  2  0
 74 79  1  0
 75 71  1  0
 75 79  1  0
 76 75  1  0
 77 78  1  0
 77 76  1  0
 78 74  1  0
 79 80  2  0
 80 81  1  0
 82 81  2  0
 83 82  1  0
 84 58  1  0
 84 89  1  0
 84 85  1  0
 85 88  1  1
 85 86  1  0
 87 85  1  0
 89 92  1  0
 90 94  1  0
 90 89  1  0
 91 90  2  0
 94 93  1  0
 96 94  1  0
 96 97  1  0
 96 95  1  0
M  ISO  4   5 100  17 100  56 101  57 101
M  END
>  <TORSDO>  (50) 
F 20

>  <SCORE>  (50) 
-12.027

>  <name>  (50) 
49

>  <ligand_id>  (50) 
49

>  <original_smiles>  (50) 
[H]c1c([H])c([H])c2c(c1[H])C([H])([H])C([H])([H])C([H])([H])C2([H])N([H])C(=O)C1([H])N(C(=O)C([H])(N([H])C(=O)C([H])(N([H])C([H])([H])[H])C([H])([H])[H])C(C([H])([H])[H])(C([H])([H])[H])C([H])([H])[H])C([H])([H])c2c([H])c(OC([H])([H])C([H])([H])[N+]3([H])C([H])([H])C([H])([H])C3([H])C(=O)N([H])C3([H])C([H])([H])N(C(=O)N4C([H])([H])C([H])([H])C([H])([H])C([H])(n5nc(-c6c([H])c([H])c(Oc7c([H])c([H])c(F)c([H])c7F)c([H])c6[H])c(C(=O)N([H])[H])c5N([H])[H])C4([H])[H])C([H])([H])C3([H])[N+]([H])([H])[H])c([H])c([H])c2C1([H])[H]

>  <smiles>  (50) 
[H]c1c([H])c([H])c2c(c1[H])C([H])([H])C([H])([H])C([H])([H])C2([H])N([H])C(=O)C1([H])N(C(=O)C([H])(N([H])C(=O)C([H])(N([H])C([H])([H])[H])C([H])([H])[H])C(C([H])([H])[H])(C([H])([H])[H])C([H])([H])[H])C([H])([H])c2c([H])c(OC([H])([H])C([H])([H])[N+]3([H])C([H])([H])C([H])([H])C3([H])C(=O)N([H])C3([H])C([H])([H])N(C(=O)N4C([H])([H])C([H])([H])C([H])([H])C([H])(n5nc(-c6c([H])c([H])c(Oc7c([H])c([H])c(F)c([H])c7F)c([H])c6[H])c(C(=O)N([H])[H])c5N([H])[H])C4([H])[H])C([H])([H])C3([H])[N+]([H])([H])[H])c([H])c([H])c2C1([H])[H]

$$$$
50:0:0
     RDKit          3D

100109  0  0  1  0  0  0  0  0999 V2000
  -28.8960  -22.5270   20.9120 C   0  0  0  0  0  0  0  0  0  0  0  0
  -29.6180  -23.5740   20.4900 N   0  0  0  0  0  0  0  0  0  0  0  0
  -28.0200  -22.6320   21.7720 O   0  0  0  0  0  0  0  0  0  0  0  0
  -30.3090  -23.3820   19.7760 H   0  0  0  0  0  0  0  0  0  0  0  0
  -28.1110  -20.2950   19.9270 C   0  0  0  0  0  2  0  0  0  0  0  0
  -29.0770  -19.9500   21.0380 C   0  0  0  0  0  3  0  0  0  0  0  0
  -29.2480  -21.2380   20.2510 C   0  0  0  0  0  3  0  0  0  0  0  0
  -32.4340  -18.2480   20.4880 C   0  0  0  0  0  3  0  0  0  0  0  0
  -31.4440  -19.2220   20.7010 C   0  0  0  0  0  3  0  0  0  0  0  0
  -32.0790  -16.8910   20.4420 C   0  0  0  0  0  3  0  0  0  0  0  0
  -30.0940  -18.8530   20.8910 C   0  0  0  0  0  0  0  0  0  0  0  0
  -29.7430  -17.4780   20.9000 C   0  0  0  0  0  0  0  0  0  0  0  0
  -30.7330  -16.5010   20.6230 C   0  0  0  0  0  0  0  0  0  0  0  0
  -28.3030  -17.0430   21.1590 C   0  0  0  0  0  1  0  0  0  0  0  0
  -30.7370  -14.2840   19.5730 C   0  0  0  0  0  0  0  0  0  0  0  0
  -30.2770  -12.1180   18.4920 C   0  0  0  0  0  2  0  0  0  0  0  0
  -29.2160  -12.2700   17.3860 C   0  0  0  0  0  2  0  0  0  0  0  0
  -27.7960  -12.1510   17.9700 C   0  0  0  0  0  2  0  0  0  0  0  0
  -27.5870  -13.0550   19.2140 C   0  0  0  0  0  3  0  0  0  0  0  0
  -28.7440  -12.8760   20.2220 C   0  0  0  0  0  2  0  0  0  0  0  0
  -30.0180  -13.1340   19.5220 N   0  0  0  0  0  0  0  0  0  0  0  0
  -31.6820  -14.5210   18.8120 O   0  0  0  0  0  0  0  0  0  0  0  0
  -30.3640  -15.1360   20.5370 N   0  0  0  0  0  0  0  0  0  0  0  0
  -29.5580  -14.8500   21.0680 H   0  0  0  0  0  0  0  0  0  0  0  0
  -25.3030  -13.7090   20.2110 C   0  0  0  0  0  0  0  0  0  0  0  0
  -24.2610  -12.9570   20.6830 C   0  0  0  0  0  0  0  0  0  0  0  0
  -24.6710  -11.5940   20.5580 C   0  0  0  0  0  0  0  0  0  0  0  0
  -26.2870  -12.8070   19.8370 N   0  0  0  0  0  0  0  0  0  0  0  0
  -25.9140  -11.5280   20.0970 N   0  0  0  0  0  0  0  0  0  0  0  0
  -23.9320  -10.3470   20.7960 C   0  0  0  0  0  0  0  0  0  0  0  0
  -24.3840   -9.3880   21.7280 C   0  0  0  0  0  3  0  0  0  0  0  0
  -23.6470   -8.2050   21.9540 C   0  0  0  0  0  3  0  0  0  0  0  0
  -22.4430   -7.9740   21.2450 C   0  0  0  0  0  0  0  0  0  0  0  0
  -22.0090   -8.9210   20.3020 C   0  0  0  0  0  3  0  0  0  0  0  0
  -22.7470  -10.0950   20.0750 C   0  0  0  0  0  3  0  0  0  0  0  0
  -21.6750   -6.8430   21.3800 O   0  0  0  0  0  0  0  0  0  0  0  0
  -21.5840   -6.1720   22.5730 C   0  0  0  0  0  0  0  0  0  0  0  0
  -21.1300   -6.8030   23.7510 C   0  0  0  0  0  3  0  0  0  0  0  0
  -20.9870   -6.0580   24.9380 C   0  0  0  0  0  3  0  0  0  0  0  0
  -21.2860   -4.6840   24.9480 C   0  0  0  0  0  0  0  0  0  0  0  0
  -21.7340   -4.0510   23.7740 C   0  0  0  0  0  3  0  0  0  0  0  0
  -21.8790   -4.7930   22.5900 C   0  0  0  0  0  0  0  0  0  0  0  0
  -22.2910   -4.1750   21.4570 F   0  0  0  0  0  0  0  0  0  0  0  0
  -21.1420   -3.9660   26.0870 F   0  0  0  0  0  0  0  0  0  0  0  0
  -22.9210  -13.4640   21.1340 C   0  0  0  0  0  0  0  0  0  0  0  0
  -22.2950  -12.7790   22.0850 N   0  0  0  0  0  0  0  0  0  0  0  0
  -22.4450  -14.5030   20.6810 O   0  0  0  0  0  0  0  0  0  0  0  0
  -22.6960  -11.9370   22.4720 H   0  0  0  0  0  0  0  0  0  0  0  0
  -21.4020  -13.1010   22.4300 H   0  0  0  0  0  0  0  0  0  0  0  0
  -25.4870  -15.0790   20.0500 N   0  0  0  0  0  0  0  0  0  0  0  0
  -24.7520  -15.7480   20.2510 H   0  0  0  0  0  0  0  0  0  0  0  0
  -26.2900  -15.4950   19.5980 H   0  0  0  0  0  0  0  0  0  0  0  0
  -29.4120  -24.9900   20.8200 C   0  0  0  0  0  3  0  0  0  0  0  0
  -29.3200  -25.2560   22.3450 C   0  0  0  0  0  2  0  0  0  0  0  0
  -30.2730  -24.4440   23.1240 N   0  0  0  0  0  4  0  0  0  0  0  0
  -30.0970  -23.4680   22.9770 H   0  0  0  0  0  0  0  0  0  0  0  0
  -30.1750  -24.6410   24.1040 H   0  0  0  0  0  0  0  0  0  0  0  0
  -31.2190  -24.6470   22.8550 H   0  0  0  0  0  0  0  0  0  0  0  0
  -28.2150  -25.5780   20.0430 C   0  0  0  0  0  2  0  0  0  0  0  0
  -28.2610  -26.9980   20.1360 O   0  0  0  0  0  0  0  0  0  0  0  0
  -24.3840  -31.9950   23.3130 C   0  0  0  0  0  0  0  0  0  0  0  0
  -27.0580  -27.6620   20.1410 C   0  0  0  0  0  0  0  0  0  0  0  0
  -23.1800  -30.6060   21.6570 C   0  0  0  0  0  3  0  0  0  0  0  0
  -24.6380  -29.1120   20.1950 C   0  0  0  0  0  0  0  0  0  0  0  0
  -25.6920  -31.0100   21.4380 C   0  0  0  0  0  2  0  0  0  0  0  0
  -25.7900  -29.6520   20.7780 C   0  0  0  0  0  0  0  0  0  0  0  0
  -27.0020  -28.9340   20.7440 C   0  0  0  0  0  3  0  0  0  0  0  0
  -25.8900  -27.1250   19.5540 C   0  0  0  0  0  3  0  0  0  0  0  0
  -24.6800  -27.8470   19.5810 C   0  0  0  0  0  3  0  0  0  0  0  0
  -23.3830  -29.9510   20.2630 C   0  0  0  0  0  2  0  0  0  0  0  0
  -24.4370  -31.2170   22.1950 N   0  0  0  0  0  0  0  0  0  0  0  0
  -23.3050  -32.2430   23.8690 O   0  0  0  0  0  0  0  0  0  0  0  0
  -22.5500  -29.5600   22.6050 C   0  0  0  0  0  0  0  0  0  0  0  0
  -21.2440  -29.3040   22.4290 N   0  0  0  0  0  0  0  0  0  0  0  0
  -23.2340  -28.9840   23.4550 O   0  0  0  0  0  0  0  0  0  0  0  0
  -20.7510  -29.8270   21.7190 H   0  0  0  0  0  0  0  0  0  0  0  0
  -17.9350  -27.8920   22.7660 C   0  0  0  0  0  0  0  0  0  0  0  0
  -20.4500  -28.3310   23.1800 C   0  0  0  0  0  3  0  0  0  0  0  0
  -20.6830  -26.8960   22.6530 C   0  0  0  0  0  2  0  0  0  0  0  0
  -19.6670  -26.4730   21.5860 C   0  0  0  0  0  2  0  0  0  0  0  0
  -18.2430  -26.5400   22.1440 C   0  0  0  0  0  2  0  0  0  0  0  0
  -18.9730  -28.7400   23.2380 C   0  0  0  0  0  0  0  0  0  0  0  0
  -18.6350  -30.0000   23.7770 C   0  0  0  0  0  3  0  0  0  0  0  0
  -17.2930  -30.4160   23.8480 C   0  0  0  0  0  3  0  0  0  0  0  0
  -16.2690  -29.5660   23.3940 C   0  0  0  0  0  3  0  0  0  0  0  0
  -16.5910  -28.3070   22.8600 C   0  0  0  0  0  3  0  0  0  0  0  0
  -25.6690  -32.6280   23.9330 C   0  0  0  0  0  3  0  0  0  0  0  0
  -25.3730  -34.0360   24.2280 N   0  0  0  0  0  0  0  0  0  0  0  0
  -25.7090  -35.0630   23.4370 C   0  0  0  0  0  0  0  0  0  0  0  0
  -26.3720  -34.9260   22.4050 O   0  0  0  0  0  0  0  0  0  0  0  0
  -24.7810  -34.2160   25.0250 H   0  0  0  0  0  0  0  0  0  0  0  0
  -23.9890  -36.8540   23.0340 C   0  0  0  0  0  1  0  0  0  0  0  0
  -25.2300  -36.4670   23.8550 C   0  0  0  0  0  3  0  0  0  0  0  0
  -27.3720  -37.3620   24.6550 C   0  0  0  0  0  1  0  0  0  0  0  0
  -26.2700  -37.5110   23.7080 N   0  0  0  0  0  0  0  0  0  0  0  0
  -25.8710  -38.4370   23.8300 H   0  0  0  0  0  0  0  0  0  0  0  0
  -26.1700  -31.8800   25.2280 C   0  0  1  0  0  0  0  0  0  0  0  0
  -25.0590  -31.6410   26.2760 C   0  0  0  0  0  1  0  0  0  0  0  0
  -26.7780  -30.5070   24.8610 C   0  0  0  0  0  1  0  0  0  0  0  0
  -27.2980  -32.6950   25.9020 C   0  0  0  0  0  1  0  0  0  0  0  0
  1  3  2  0
  2 53  1  0
  2  1  1  0
  4  2  1  0
  5  7  1  0
  5  6  1  0
  6 11  1  0
  7  1  1  0
  7  6  1  0
  8  9  1  0
  9 11  2  0
 10  8  2  0
 10 13  1  0
 11 12  1  0
 12 14  1  0
 13 12  2  0
 15 23  1  0
 16 21  1  0
 17 18  1  0
 17 16  1  0
 19 18  1  0
 19 28  1  0
 19 20  1  0
 21 15  1  0
 21 20  1  0
 22 15  2  0
 23 13  1  0
 23 24  1  0
 25 26  2  0
 26 45  1  0
 27 26  1  0
 27 30  1  0
 28 29  1  0
 28 25  1  0
 29 27  2  0
 30 31  1  0
 31 32  2  0
 33 36  1  0
 33 32  1  0
 34 33  2  0
 35 34  1  0
 35 30  2  0
 36 37  1  0
 37 42  2  0
 37 38  1  0
 38 39  2  0
 39 40  1  0
 40 44  1  0
 41 40  2  0
 42 41  1  0
 43 42  1  0
 45 46  1  0
 46 49  1  0
 46 48  1  0
 47 45  2  0
 50 25  1  0
 50 51  1  0
 52 50  1  0
 53 59  1  0
 53 54  1  0
 54 55  1  0
 55 57  1  0
 56 55  1  0
 58 55  1  0
 59 60  1  0
 60 62  1  0
 61 72  2  0
 62 67  1  0
 63 71  1  0
 63 73  1  0
 64 70  1  0
 64 66  1  0
 65 71  1  0
 66 65  1  0
 67 66  2  0
 68 69  1  0
 68 62  2  0
 69 64  2  0
 70 63  1  0
 71 61  1  0
 73 75  2  0
 74 73  1  0
 76 74  1  0
 77 86  2  0
 77 82  1  0
 78 74  1  0
 78 82  1  0
 79 78  1  0
 80 81  1  0
 80 79  1  0
 81 77  1  0
 82 83  2  0
 83 84  1  0
 85 84  2  0
 86 85  1  0
 87 61  1  0
 87 88  1  0
 87 97  1  0
 88 91  1  0
 89 93  1  0
 89 88  1  0
 90 89  2  0
 93 92  1  0
 95 96  1  0
 95 93  1  0
 95 94  1  0
 97100  1  1
 97 98  1  0
 99 97  1  0
M  ISO  4  15 100  23 100  59 101  60 101
M  END
>  <TORSDO>  (51) 
F 22

>  <SCORE>  (51) 
-11.938

>  <name>  (51) 
50

>  <ligand_id>  (51) 
50

>  <original_smiles>  (51) 
[H]c1c([H])c([H])c2c(c1[H])C([H])([H])C([H])([H])C([H])([H])C2([H])N([H])C(=O)C1([H])N(C(=O)C([H])(N([H])C(=O)C([H])(N([H])C([H])([H])[H])C([H])([H])[H])C(C([H])([H])[H])(C([H])([H])[H])C([H])([H])[H])C([H])([H])c2c([H])c(OC([H])([H])C([H])(N([H])C(=O)C3([H])C([H])([H])C3([H])c3c([H])c([H])c([H])c(N([H])C(=O)N4C([H])([H])C([H])([H])C([H])([H])C([H])(n5nc(-c6c([H])c([H])c(Oc7c([H])c([H])c(F)c([H])c7F)c([H])c6[H])c(C(=O)N([H])[H])c5N([H])[H])C4([H])[H])c3C([H])([H])[H])C([H])([H])[N+]([H])([H])[H])c([H])c([H])c2C1([H])[H]

>  <smiles>  (51) 
[H]c1c([H])c([H])c2c(c1[H])C([H])([H])C([H])([H])C([H])([H])C2([H])N([H])C(=O)C1([H])N(C(=O)C([H])(N([H])C(=O)C([H])(N([H])C([H])([H])[H])C([H])([H])[H])C(C([H])([H])[H])(C([H])([H])[H])C([H])([H])[H])C([H])([H])c2c([H])c(OC([H])([H])C([H])(N([H])C(=O)C3([H])C([H])([H])C3([H])c3c([H])c([H])c([H])c(N([H])C(=O)N4C([H])([H])C([H])([H])C([H])([H])C([H])(n5nc(-c6c([H])c([H])c(Oc7c([H])c([H])c(F)c([H])c7F)c([H])c6[H])c(C(=O)N([H])[H])c5N([H])[H])C4([H])[H])c3C([H])([H])[H])C([H])([H])[N+]([H])([H])[H])c([H])c([H])c2C1([H])[H]

$$$$
51:0:0
     RDKit          3D

 98107  0  0  1  0  0  0  0  0999 V2000
  -30.6050  -15.0510   20.4010 C   0  0  0  0  0  0  0  0  0  0  0  0
  -30.3850  -12.7050   19.4410 C   0  0  0  0  0  2  0  0  0  0  0  0
  -29.4730  -12.6280   18.2010 C   0  0  0  0  0  2  0  0  0  0  0  0
  -28.0110  -12.4190   18.6300 C   0  0  0  0  0  2  0  0  0  0  0  0
  -27.5920  -13.3590   19.7940 C   0  0  0  0  0  3  0  0  0  0  0  0
  -28.6440  -13.4390   20.9170 C   0  0  0  0  0  2  0  0  0  0  0  0
  -29.8970  -13.8510   20.2720 N   0  0  0  0  0  0  0  0  0  0  0  0
  -31.8280  -14.9090   20.2830 O   0  0  0  0  0  0  0  0  0  0  0  0
  -29.2330  -17.5130   20.7550 C   0  0  0  0  0  2  0  0  0  0  0  0
  -30.9360  -17.2300   19.2310 C   0  0  0  0  0  2  0  0  0  0  0  0
  -29.6960  -19.0870   20.3960 C   0  0  0  0  0  3  0  0  0  0  0  0
  -30.3940  -18.6910   19.0770 C   0  0  0  0  0  3  0  0  0  0  0  0
  -30.0790  -16.3710   20.0890 N   0  0  0  0  0  0  0  0  0  0  0  0
  -25.2180  -13.9300   20.5310 C   0  0  0  0  0  0  0  0  0  0  0  0
  -24.1510  -13.1540   20.8920 C   0  0  0  0  0  0  0  0  0  0  0  0
  -24.6160  -11.8020   20.8680 C   0  0  0  0  0  0  0  0  0  0  0  0
  -26.2600  -13.0510   20.2980 N   0  0  0  0  0  0  0  0  0  0  0  0
  -25.9120  -11.7670   20.5710 N   0  0  0  0  0  0  0  0  0  0  0  0
  -23.8870  -10.5410   21.0500 C   0  0  0  0  0  0  0  0  0  0  0  0
  -24.3070   -9.5720   21.9870 C   0  0  0  0  0  3  0  0  0  0  0  0
  -23.5750   -8.3770   22.1600 C   0  0  0  0  0  3  0  0  0  0  0  0
  -22.4090   -8.1420   21.3940 C   0  0  0  0  0  0  0  0  0  0  0  0
  -22.0070   -9.1000   20.4440 C   0  0  0  0  0  3  0  0  0  0  0  0
  -22.7410  -10.2860   20.2710 C   0  0  0  0  0  3  0  0  0  0  0  0
  -21.6480   -7.0010   21.4770 O   0  0  0  0  0  0  0  0  0  0  0  0
  -21.5770   -6.2630   22.6310 C   0  0  0  0  0  0  0  0  0  0  0  0
  -21.1340   -6.8230   23.8490 C   0  0  0  0  0  3  0  0  0  0  0  0
  -21.0110   -6.0120   24.9950 C   0  0  0  0  0  3  0  0  0  0  0  0
  -21.3250   -4.6420   24.9230 C   0  0  0  0  0  0  0  0  0  0  0  0
  -21.7620   -4.0800   23.7110 C   0  0  0  0  0  3  0  0  0  0  0  0
  -21.8850   -4.8900   22.5680 C   0  0  0  0  0  0  0  0  0  0  0  0
  -22.2870   -4.3400   21.3970 F   0  0  0  0  0  0  0  0  0  0  0  0
  -21.2020   -3.8600   26.0210 F   0  0  0  0  0  0  0  0  0  0  0  0
  -22.7510  -13.6320   21.1420 C   0  0  0  0  0  0  0  0  0  0  0  0
  -22.0080  -12.9370   21.9970 N   0  0  0  0  0  0  0  0  0  0  0  0
  -22.3230  -14.6560   20.6140 O   0  0  0  0  0  0  0  0  0  0  0  0
  -22.3650  -12.1090   22.4510 H   0  0  0  0  0  0  0  0  0  0  0  0
  -21.0680  -13.2400   22.2040 H   0  0  0  0  0  0  0  0  0  0  0  0
  -25.3830  -15.3000   20.3540 N   0  0  0  0  0  0  0  0  0  0  0  0
  -24.6170  -15.9560   20.4660 H   0  0  0  0  0  0  0  0  0  0  0  0
  -26.2400  -15.7380   20.0410 H   0  0  0  0  0  0  0  0  0  0  0  0
  -28.7420  -20.4580   20.1690 C   0  0  0  0  0  0  0  0  0  0  0  0
  -29.0420  -21.8120   20.5280 N   0  0  0  0  0  0  0  0  0  0  0  0
  -27.6960  -20.2700   19.5470 O   0  0  0  0  0  0  0  0  0  0  0  0
  -29.8520  -21.8900   21.1310 H   0  0  0  0  0  0  0  0  0  0  0  0
  -28.5830  -23.2340   19.9440 C   0  0  0  0  0  2  0  0  0  0  0  0
  -28.1960  -24.6740   20.7800 C   0  0  0  0  0  2  0  0  0  0  0  0
  -28.3560  -26.1840   20.3600 O   0  0  0  0  0  0  0  0  0  0  0  0
  -24.6120  -31.8980   23.2600 C   0  0  0  0  0  0  0  0  0  0  0  0
  -27.2840  -27.1560   20.3370 C   0  0  0  0  0  0  0  0  0  0  0  0
  -23.4630  -30.4830   21.6000 C   0  0  0  0  0  3  0  0  0  0  0  0
  -24.9550  -28.9020   20.2270 C   0  0  0  0  0  0  0  0  0  0  0  0
  -26.0200  -30.7600   21.4970 C   0  0  0  0  0  2  0  0  0  0  0  0
  -26.1190  -29.3600   20.8590 C   0  0  0  0  0  0  0  0  0  0  0  0
  -27.2890  -28.5070   20.8870 C   0  0  0  0  0  3  0  0  0  0  0  0
  -26.0940  -26.7990   19.6720 C   0  0  0  0  0  3  0  0  0  0  0  0
  -24.9570  -27.6370   19.6150 C   0  0  0  0  0  3  0  0  0  0  0  0
  -23.7240  -29.7980   20.2340 C   0  0  0  0  0  2  0  0  0  0  0  0
  -24.7180  -31.0710   22.1740 N   0  0  0  0  0  0  0  0  0  0  0  0
  -23.5100  -32.1780   23.7580 O   0  0  0  0  0  0  0  0  0  0  0  0
  -22.7640  -29.4790   22.5510 C   0  0  0  0  0  0  0  0  0  0  0  0
  -21.4360  -29.3200   22.4090 N   0  0  0  0  0  0  0  0  0  0  0  0
  -23.4200  -28.8460   23.3820 O   0  0  0  0  0  0  0  0  0  0  0  0
  -20.9630  -29.8820   21.7160 H   0  0  0  0  0  0  0  0  0  0  0  0
  -18.0330  -28.1780   22.9040 C   0  0  0  0  0  0  0  0  0  0  0  0
  -20.5970  -28.3870   23.1680 C   0  0  0  0  0  3  0  0  0  0  0  0
  -20.6700  -26.9620   22.5710 C   0  0  0  0  0  2  0  0  0  0  0  0
  -19.5600  -26.6770   21.5550 C   0  0  0  0  0  2  0  0  0  0  0  0
  -18.1820  -26.8380   22.2040 C   0  0  0  0  0  2  0  0  0  0  0  0
  -19.1670  -28.9120   23.3430 C   0  0  0  0  0  0  0  0  0  0  0  0
  -18.9730  -30.1660   23.9610 C   0  0  0  0  0  3  0  0  0  0  0  0
  -17.6780  -30.6880   24.1420 C   0  0  0  0  0  3  0  0  0  0  0  0
  -16.5580  -29.9490   23.7190 C   0  0  0  0  0  3  0  0  0  0  0  0
  -16.7370  -28.6960   23.1070 C   0  0  0  0  0  3  0  0  0  0  0  0
  -25.8680  -32.5470   23.9160 C   0  0  0  0  0  3  0  0  0  0  0  0
  -25.5460  -33.9540   24.2090 N   0  0  0  0  0  0  0  0  0  0  0  0
  -25.9050  -34.9950   23.4460 C   0  0  0  0  0  0  0  0  0  0  0  0
  -26.6070  -34.8730   22.4390 O   0  0  0  0  0  0  0  0  0  0  0  0
  -24.9250  -34.1210   24.9870 H   0  0  0  0  0  0  0  0  0  0  0  0
  -24.1970  -36.7920   23.0080 C   0  0  0  0  0  1  0  0  0  0  0  0
  -25.4080  -36.3930   23.8670 C   0  0  0  0  0  3  0  0  0  0  0  0
  -27.5150  -37.2870   24.7600 C   0  0  0  0  0  1  0  0  0  0  0  0
  -26.4490  -37.4410   23.7720 N   0  0  0  0  0  0  0  0  0  0  0  0
  -26.0410  -38.3660   23.8890 H   0  0  0  0  0  0  0  0  0  0  0  0
  -26.3330  -31.8060   25.2310 C   0  0  1  0  0  0  0  0  0  0  0  0
  -25.1970  -31.5950   26.2600 C   0  0  0  0  0  1  0  0  0  0  0  0
  -26.9290  -30.4190   24.9010 C   0  0  0  0  0  1  0  0  0  0  0  0
  -27.4580  -32.6140   25.9200 C   0  0  0  0  0  1  0  0  0  0  0  0
  -31.4700  -19.7150   18.6380 C   0  0  0  0  0  2  0  0  0  0  0  0
  -32.6210  -20.6390   15.2880 C   0  0  0  0  0  2  0  0  0  0  0  0
  -32.1470  -20.9880   16.6910 C   0  0  0  0  0  2  0  0  0  0  0  0
  -32.7410  -18.7320   16.7690 C   0  0  0  0  0  2  0  0  0  0  0  0
  -33.3700  -19.3210   15.4880 C   0  0  0  0  0  3  0  0  0  0  0  0
  -31.7130  -19.6910   17.1940 N   0  0  0  0  0  0  0  0  0  0  0  0
  -34.8210  -19.5470   15.6390 N   0  0  0  0  0  4  0  0  0  0  0  0
  -35.0210  -20.1200   16.4370 H   0  0  0  0  0  0  0  0  0  0  0  0
  -35.1930  -19.9950   14.8210 H   0  0  0  0  0  0  0  0  0  0  0  0
  -35.2990  -18.6700   15.7480 H   0  0  0  0  0  0  0  0  0  0  0  0
  2  7  1  0
  3  4  1  0
  3  2  1  0
  5  4  1  0
  5 17  1  0
  5  6  1  0
  7  1  1  0
  7  6  1  0
  8  1  2  0
 10 13  1  0
 11 42  1  0
 11  9  1  0
 12 89  1  0
 12 10  1  0
 12 11  1  0
 13  1  1  0
 13  9  1  0
 14 15  2  0
 15 34  1  0
 16 15  1  0
 16 19  1  0
 17 14  1  0
 17 18  1  0
 18 16  2  0
 19 20  1  0
 20 21  2  0
 22 25  1  0
 22 21  1  0
 23 22  2  0
 24 23  1  0
 24 19  2  0
 25 26  1  0
 26 27  1  0
 27 28  2  0
 29 28  1  0
 29 33  1  0
 30 29  2  0
 31 26  2  0
 31 30  1  0
 32 31  1  0
 34 35  1  0
 35 38  1  0
 35 37  1  0
 36 34  2  0
 39 40  1  0
 39 14  1  0
 41 39  1  0
 42 43  1  0
 43 45  1  0
 44 42  2  0
 46 43  1  0
 46 47  1  0
 48 47  1  0
 49 60  2  0
 50 48  1  0
 50 55  1  0
 51 59  1  0
 51 61  1  0
 52 58  1  0
 52 54  1  0
 53 59  1  0
 54 55  2  0
 54 53  1  0
 56 50  2  0
 57 56  1  0
 57 52  2  0
 58 51  1  0
 59 49  1  0
 61 63  2  0
 62 61  1  0
 64 62  1  0
 65 74  2  0
 65 70  1  0
 66 62  1  0
 66 70  1  0
 67 66  1  0
 68 69  1  0
 68 67  1  0
 69 65  1  0
 70 71  2  0
 71 72  1  0
 73 72  2  0
 74 73  1  0
 75 49  1  0
 75 76  1  0
 75 85  1  0
 76 79  1  0
 77 81  1  0
 77 76  1  0
 78 77  2  0
 81 80  1  0
 83 81  1  0
 83 84  1  0
 83 82  1  0
 85 88  1  1
 85 86  1  0
 87 85  1  0
 90 93  1  0
 90 91  1  0
 91 94  1  0
 92 94  1  0
 93 95  1  0
 93 92  1  0
 94 89  1  0
 95 98  1  0
 95 96  1  0
 97 95  1  0
M  ISO  4   1 100  13 100  47 101  48 101
M  END
>  <TORSDO>  (52) 
F 21

>  <SCORE>  (52) 
-14.605

>  <name>  (52) 
51

>  <ligand_id>  (52) 
51

>  <original_smiles>  (52) 
[H]c1c([H])c([H])c2c(c1[H])C([H])([H])C([H])([H])C([H])([H])C2([H])N([H])C(=O)C1([H])N(C(=O)C([H])(N([H])C(=O)C([H])(N([H])C([H])([H])[H])C([H])([H])[H])C(C([H])([H])[H])(C([H])([H])[H])C([H])([H])[H])C([H])([H])c2c([H])c(OC([H])([H])C([H])([H])N([H])C(=O)C3([H])C([H])([H])N(C(=O)N4C([H])([H])C([H])([H])C([H])([H])C([H])(n5nc(-c6c([H])c([H])c(Oc7c([H])c([H])c(F)c([H])c7F)c([H])c6[H])c(C(=O)N([H])[H])c5N([H])[H])C4([H])[H])C([H])([H])C3([H])C([H])([H])N3C([H])([H])C([H])([H])C([H])([N+]([H])([H])[H])C3([H])[H])c([H])c([H])c2C1([H])[H]

>  <smiles>  (52) 
[H]c1c([H])c([H])c2c(c1[H])C([H])([H])C([H])([H])C([H])([H])C2([H])N([H])C(=O)C1([H])N(C(=O)C([H])(N([H])C(=O)C([H])(N([H])C([H])([H])[H])C([H])([H])[H])C(C([H])([H])[H])(C([H])([H])[H])C([H])([H])[H])C([H])([H])c2c([H])c(OC([H])([H])C([H])([H])N([H])C(=O)C3([H])C([H])([H])N(C(=O)N4C([H])([H])C([H])([H])C([H])([H])C([H])(n5nc(-c6c([H])c([H])c(Oc7c([H])c([H])c(F)c([H])c7F)c([H])c6[H])c(C(=O)N([H])[H])c5N([H])[H])C4([H])[H])C([H])([H])C3([H])C([H])([H])N3C([H])([H])C([H])([H])C([H])([N+]([H])([H])[H])C3([H])[H])c([H])c([H])c2C1([H])[H]

$$$$
52:0:0
     RDKit          3D

101110  0  0  1  0  0  0  0  0999 V2000
  -36.8980  -21.4440   14.1350 C   0  0  0  0  0  0  0  0  0  0  0  0
  -37.7980  -21.6360   15.1090 N   0  0  0  0  0  0  0  0  0  0  0  0
  -36.7260  -22.2270   13.1950 O   0  0  0  0  0  0  0  0  0  0  0  0
  -37.8700  -20.9310   15.8310 H   0  0  0  0  0  0  0  0  0  0  0  0
  -36.2690  -19.5030   15.5950 C   0  0  0  0  0  2  0  0  0  0  0  0
  -36.3790  -18.2200   14.7960 C   0  0  0  0  0  2  0  0  0  0  0  0
  -36.0480  -20.1820   14.2470 C   0  0  0  0  0  3  0  0  0  0  0  0
  -36.6900  -19.0170   13.6010 N   0  0  2  0  0  4  0  0  0  0  0  0
  -37.6770  -19.2450   13.5820 H   0  0  0  0  0  0  0  0  0  0  0  0
  -35.6520  -17.1030   12.1950 C   0  0  0  0  0  1  0  0  0  0  0  0
  -36.2180  -18.5440   12.2400 C   0  0  0  0  0  3  0  0  0  0  0  0
  -37.1780  -18.8850   11.0270 C   0  0  0  0  0  2  0  0  0  0  0  0
  -38.4610  -19.5160   11.3160 O   0  0  0  0  0  0  0  0  0  0  0  0
  -40.7300  -13.0080   13.1990 C   0  0  0  0  0  0  0  0  0  0  0  0
  -39.4440  -18.7690   11.9380 C   0  0  0  0  0  0  0  0  0  0  0  0
  -41.7080  -14.9180   14.4210 C   0  0  0  0  0  3  0  0  0  0  0  0
  -41.2970  -17.2120   13.4030 C   0  0  0  0  0  0  0  0  0  0  0  0
  -40.8810  -15.1890   12.0160 C   0  0  0  0  0  2  0  0  0  0  0  0
  -40.5870  -16.6380   12.3430 C   0  0  0  0  0  0  0  0  0  0  0  0
  -39.6360  -17.4020   11.6210 C   0  0  0  0  0  3  0  0  0  0  0  0
  -40.2660  -19.3410   12.9270 C   0  0  0  0  0  3  0  0  0  0  0  0
  -41.1410  -18.5700   13.7010 C   0  0  0  0  0  3  0  0  0  0  0  0
  -42.2670  -16.3360   14.1530 C   0  0  0  0  0  2  0  0  0  0  0  0
  -41.0640  -14.3290   13.2060 N   0  0  0  0  0  0  0  0  0  0  0  0
  -40.9670  -12.2800   14.1750 O   0  0  0  0  0  0  0  0  0  0  0  0
  -40.7660  -14.9620   15.6480 C   0  0  0  0  0  0  0  0  0  0  0  0
  -39.6280  -15.6610   15.5080 N   0  0  0  0  0  0  0  0  0  0  0  0
  -41.0550  -14.3570   16.6840 O   0  0  0  0  0  0  0  0  0  0  0  0
  -39.4610  -16.1380   14.6320 H   0  0  0  0  0  0  0  0  0  0  0  0
  -38.0130  -14.0120   18.2860 C   0  0  0  0  0  0  0  0  0  0  0  0
  -38.5890  -15.8160   16.5270 C   0  0  0  0  0  3  0  0  0  0  0  0
  -39.0980  -16.6660   17.7130 C   0  0  0  0  0  2  0  0  0  0  0  0
  -39.6900  -15.8200   18.8460 C   0  0  0  0  0  2  0  0  0  0  0  0
  -38.6430  -14.8440   19.3910 C   0  0  0  0  0  2  0  0  0  0  0  0
  -38.0050  -14.4620   16.9380 C   0  0  0  0  0  0  0  0  0  0  0  0
  -37.4420  -13.6350   15.9440 C   0  0  0  0  0  3  0  0  0  0  0  0
  -36.8860  -12.3870   16.2770 C   0  0  0  0  0  3  0  0  0  0  0  0
  -36.8800  -11.9540   17.6140 C   0  0  0  0  0  3  0  0  0  0  0  0
  -37.4440  -12.7650   18.6150 C   0  0  0  0  0  3  0  0  0  0  0  0
  -40.0470  -12.3490   11.9620 C   0  0  0  0  0  3  0  0  0  0  0  0
  -40.5860  -10.9890   11.8390 N   0  0  0  0  0  0  0  0  0  0  0  0
  -41.1800  -10.5030   10.7410 C   0  0  0  0  0  0  0  0  0  0  0  0
  -41.2670  -11.1450    9.6900 O   0  0  0  0  0  0  0  0  0  0  0  0
  -40.5880  -10.4260   12.6760 H   0  0  0  0  0  0  0  0  0  0  0  0
  -41.5710   -8.5180   12.2370 C   0  0  0  0  0  1  0  0  0  0  0  0
  -41.7730   -9.0830   10.8230 C   0  0  0  0  0  3  0  0  0  0  0  0
  -43.9860   -8.1440   11.3340 C   0  0  0  0  0  1  0  0  0  0  0  0
  -43.2080   -9.0240   10.4660 N   0  0  0  0  0  0  0  0  0  0  0  0
  -43.6260   -9.9490   10.5020 H   0  0  0  0  0  0  0  0  0  0  0  0
  -38.4720  -12.3200   12.0640 C   0  0  1  0  0  0  0  0  0  0  0  0
  -37.7710  -12.0010   10.7230 C   0  0  0  0  0  1  0  0  0  0  0  0
  -38.0070  -11.2730   13.1050 C   0  0  0  0  0  1  0  0  0  0  0  0
  -37.9550  -13.6940   12.5540 C   0  0  0  0  0  1  0  0  0  0  0  0
  -40.0120  -22.5030   15.7510 C   0  0  0  0  0  1  0  0  0  0  0  0
  -38.5940  -22.8460   15.2820 C   0  0  0  0  0  3  0  0  0  0  0  0
  -37.8650  -23.7720   16.2820 C   0  0  0  0  0  2  0  0  0  0  0  0
  -35.9740  -24.5080   14.7670 C   0  0  0  0  0  3  0  0  0  0  0  0
  -34.6070  -24.7590   14.5630 C   0  0  0  0  0  3  0  0  0  0  0  0
  -35.4520  -23.5490   16.9490 C   0  0  0  0  0  3  0  0  0  0  0  0
  -36.3960  -23.9240   15.9730 C   0  0  0  0  0  0  0  0  0  0  0  0
  -34.0820  -23.7750   16.7510 C   0  0  0  0  0  0  0  0  0  0  0  0
  -33.6610  -24.4010   15.5440 C   0  0  0  0  0  0  0  0  0  0  0  0
  -33.1390  -23.3630   17.8750 C   0  0  0  0  0  1  0  0  0  0  0  0
  -31.9510  -25.7650   14.4710 C   0  0  0  0  0  0  0  0  0  0  0  0
  -31.6350  -28.1610   14.0560 C   0  0  0  0  0  2  0  0  0  0  0  0
  -32.7760  -28.7800   13.2360 C   0  0  0  0  0  2  0  0  0  0  0  0
  -33.9140  -29.2460   14.1620 C   0  0  0  0  0  2  0  0  0  0  0  0
  -34.3520  -28.1480   15.1710 C   0  0  0  0  0  3  0  0  0  0  0  0
  -33.1220  -27.5350   15.8770 C   0  0  0  0  0  2  0  0  0  0  0  0
  -32.1840  -27.0480   14.8460 N   0  0  0  0  0  0  0  0  0  0  0  0
  -31.3230  -25.4540   13.4570 O   0  0  0  0  0  0  0  0  0  0  0  0
  -32.3280  -24.7960   15.3010 N   0  0  0  0  0  0  0  0  0  0  0  0
  -31.7230  -23.9940   15.1890 H   0  0  0  0  0  0  0  0  0  0  0  0
  -35.6780  -29.9880   16.3940 C   0  0  0  0  0  0  0  0  0  0  0  0
  -36.5740  -29.9360   17.4320 C   0  0  0  0  0  0  0  0  0  0  0  0
  -36.7160  -28.5530   17.7610 C   0  0  0  0  0  0  0  0  0  0  0  0
  -35.3260  -28.6730   16.1290 N   0  0  0  0  0  0  0  0  0  0  0  0
  -35.9960  -27.8060   16.9320 N   0  0  0  0  0  0  0  0  0  0  0  0
  -37.4540  -27.9030   18.8530 C   0  0  0  0  0  0  0  0  0  0  0  0
  -38.6390  -27.1730   18.6100 C   0  0  0  0  0  3  0  0  0  0  0  0
  -39.3410  -26.5700   19.6770 C   0  0  0  0  0  3  0  0  0  0  0  0
  -38.8620  -26.6950   21.0030 C   0  0  0  0  0  0  0  0  0  0  0  0
  -37.6710  -27.4050   21.2370 C   0  0  0  0  0  3  0  0  0  0  0  0
  -36.9720  -28.0010   20.1730 C   0  0  0  0  0  3  0  0  0  0  0  0
  -39.4640  -26.1220   22.0970 O   0  0  0  0  0  0  0  0  0  0  0  0
  -39.3780  -26.6870   23.3440 C   0  0  0  0  0  0  0  0  0  0  0  0
  -38.5890  -26.1170   24.3660 C   0  0  0  0  0  3  0  0  0  0  0  0
  -38.5830  -26.6910   25.6530 C   0  0  0  0  0  3  0  0  0  0  0  0
  -39.3730  -27.8240   25.9230 C   0  0  0  0  0  0  0  0  0  0  0  0
  -40.1650  -28.3890   24.9080 C   0  0  0  0  0  3  0  0  0  0  0  0
  -40.1710  -27.8190   23.6230 C   0  0  0  0  0  0  0  0  0  0  0  0
  -40.9500  -28.3560   22.6520 F   0  0  0  0  0  0  0  0  0  0  0  0
  -39.3780  -28.3690   27.1620 F   0  0  0  0  0  0  0  0  0  0  0  0
  -37.1910  -31.1080   18.1360 C   0  0  0  0  0  0  0  0  0  0  0  0
  -38.5150  -31.2210   18.0950 N   0  0  0  0  0  0  0  0  0  0  0  0
  -36.5000  -31.9610   18.6890 O   0  0  0  0  0  0  0  0  0  0  0  0
  -39.0870  -30.5380   17.6190 H   0  0  0  0  0  0  0  0  0  0  0  0
  -38.9620  -32.0030   18.5500 H   0  0  0  0  0  0  0  0  0  0  0  0
  -35.1280  -31.0400   15.6760 N   0  0  0  0  0  0  0  0  0  0  0  0
  -35.3690  -32.0020   15.8770 H   0  0  0  0  0  0  0  0  0  0  0  0
  -34.5300  -30.9380   14.8660 H   0  0  0  0  0  0  0  0  0  0  0  0
  1  2  1  0
  2 55  1  0
  2  4  1  0
  3  1  2  0
  6  5  1  0
  7  1  1  0
  7  5  1  0
  8  7  1  0
  8  6  1  0
  8  9  1  6
 11 10  1  0
 11  8  1  0
 12 13  1  0
 12 11  1  0
 13 15  1  0
 14 24  1  0
 14 25  2  0
 15 21  1  0
 16 26  1  0
 17 22  1  0
 17 23  1  0
 18 19  1  0
 18 24  1  0
 19 17  2  0
 20 15  2  0
 20 19  1  0
 21 22  2  0
 23 16  1  0
 24 16  1  0
 26 28  2  0
 27 26  1  0
 29 27  1  0
 30 39  1  0
 30 34  1  0
 31 27  1  0
 31 35  1  0
 31 32  1  0
 32 33  1  0
 33 34  1  0
 35 30  2  0
 36 37  2  0
 36 35  1  0
 37 38  1  0
 38 39  2  0
 40 50  1  0
 40 14  1  0
 41 40  1  0
 41 44  1  0
 42 46  1  0
 42 41  1  0
 43 42  2  0
 46 45  1  0
 48 49  1  0
 48 46  1  0
 48 47  1  0
 50 53  1  1
 50 52  1  0
 51 50  1  0
 55 54  1  0
 55 56  1  0
 57 60  1  0
 58 57  2  0
 58 62  1  0
 60 56  1  0
 60 59  2  0
 61 59  1  0
 61 63  1  0
 62 61  2  0
 64 70  1  0
 64 72  1  0
 65 70  1  0
 66 65  1  0
 66 67  1  0
 68 67  1  0
 68 69  1  0
 68 77  1  0
 70 69  1  0
 71 64  2  0
 72 62  1  0
 73 72  1  0
 74 75  2  0
 75 76  1  0
 75 94  1  0
 76 79  1  0
 77 74  1  0
 77 78  1  0
 78 76  2  0
 79 84  1  0
 80 79  2  0
 80 81  1  0
 81 82  2  0
 82 83  1  0
 82 85  1  0
 84 83  2  0
 85 86  1  0
 86 91  2  0
 86 87  1  0
 87 88  2  0
 88 89  1  0
 89 93  1  0
 90 89  2  0
 91 90  1  0
 92 91  1  0
 94 96  2  0
 95 94  1  0
 95 98  1  0
 97 95  1  0
 99100  1  0
 99 74  1  0
101 99  1  0
M  ISO  4  12 101  13 101  64 100  72 100
M  END
>  <TORSDO>  (53) 
F 22

>  <SCORE>  (53) 
-1.308

>  <name>  (53) 
52

>  <ligand_id>  (53) 
52

>  <original_smiles>  (53) 
[H]c1c([H])c([H])c2c(c1[H])C([H])([H])C([H])([H])C([H])([H])C2([H])N([H])C(=O)C1([H])N(C(=O)C([H])(N([H])C(=O)C([H])(N([H])C([H])([H])[H])C([H])([H])[H])C(C([H])([H])[H])(C([H])([H])[H])C([H])([H])[H])C([H])([H])c2c([H])c(OC([H])([H])C([H])(C([H])([H])[H])[N+]3([H])C([H])([H])C([H])([H])C3([H])C(=O)N([H])C([H])(C([H])([H])[H])C([H])([H])c3c([H])c([H])c(N([H])C(=O)N4C([H])([H])C([H])([H])C([H])([H])C([H])(n5nc(-c6c([H])c([H])c(Oc7c([H])c([H])c(F)c([H])c7F)c([H])c6[H])c(C(=O)N([H])[H])c5N([H])[H])C4([H])[H])c(C([H])([H])[H])c3[H])c([H])c([H])c2C1([H])[H]

>  <smiles>  (53) 
[H]c1c([H])c([H])c2c(c1[H])C([H])([H])C([H])([H])C([H])([H])C2([H])N([H])C(=O)C1([H])N(C(=O)C([H])(N([H])C(=O)C([H])(N([H])C([H])([H])[H])C([H])([H])[H])C(C([H])([H])[H])(C([H])([H])[H])C([H])([H])[H])C([H])([H])c2c([H])c(OC([H])([H])C([H])(C([H])([H])[H])[N+]3([H])C([H])([H])C([H])([H])C3([H])C(=O)N([H])C([H])(C([H])([H])[H])C([H])([H])c3c([H])c([H])c(N([H])C(=O)N4C([H])([H])C([H])([H])C([H])([H])C([H])(n5nc(-c6c([H])c([H])c(Oc7c([H])c([H])c(F)c([H])c7F)c([H])c6[H])c(C(=O)N([H])[H])c5N([H])[H])C4([H])[H])c(C([H])([H])[H])c3[H])c([H])c([H])c2C1([H])[H]

$$$$
53:0:0
     RDKit          3D

 93101  0  0  1  0  0  0  0  0999 V2000
  -28.2890  -23.2590   19.7250 C   0  0  0  0  0  3  0  0  0  0  0  0
  -31.4740  -21.0080   19.3260 C   0  0  0  0  0  3  0  0  0  0  0  0
  -31.1490  -19.6650   19.6080 C   0  0  0  0  0  3  0  0  0  0  0  0
  -30.5590  -22.0670   19.4900 C   0  0  0  0  0  3  0  0  0  0  0  0
  -29.8950  -19.2830   20.1270 C   0  0  0  0  0  0  0  0  0  0  0  0
  -29.2300  -21.8790   19.9260 C   0  0  0  0  0  0  0  0  0  0  0  0
  -28.9320  -20.4390   20.2770 C   0  0  0  0  0  0  0  0  0  0  0  0
  -27.5520  -20.1130   20.8320 C   0  0  0  0  0  1  0  0  0  0  0  0
  -29.8580  -17.7180   20.7190 C   0  0  0  0  0  2  0  0  0  0  0  0
  -30.6460  -15.0890   19.9900 C   0  0  0  0  0  0  0  0  0  0  0  0
  -30.5130  -12.7500   18.9870 C   0  0  0  0  0  2  0  0  0  0  0  0
  -29.5200  -12.7060   17.8030 C   0  0  0  0  0  2  0  0  0  0  0  0
  -28.0720  -12.4980   18.2980 C   0  0  0  0  0  2  0  0  0  0  0  0
  -27.7200  -13.4040   19.5070 C   0  0  0  0  0  3  0  0  0  0  0  0
  -28.8300  -13.3850   20.5760 C   0  0  0  0  0  2  0  0  0  0  0  0
  -30.0550  -13.8280   19.9040 N   0  0  0  0  0  0  0  0  0  0  0  0
  -31.8660  -15.1420   19.7980 O   0  0  0  0  0  0  0  0  0  0  0  0
  -29.8300  -16.2670   20.0500 N   0  0  0  0  0  0  0  0  0  0  0  0
  -28.8740  -16.0100   19.8620 H   0  0  0  0  0  0  0  0  0  0  0  0
  -25.3830  -13.9880   20.3650 C   0  0  0  0  0  0  0  0  0  0  0  0
  -24.3330  -13.2160   20.7770 C   0  0  0  0  0  0  0  0  0  0  0  0
  -24.7880  -11.8630   20.7160 C   0  0  0  0  0  0  0  0  0  0  0  0
  -26.4090  -13.1050   20.0680 N   0  0  0  0  0  0  0  0  0  0  0  0
  -26.0670  -11.8230   20.3500 N   0  0  0  0  0  0  0  0  0  0  0  0
  -24.0630  -10.6040   20.9230 C   0  0  0  0  0  0  0  0  0  0  0  0
  -24.5030   -9.6430   21.8580 C   0  0  0  0  0  3  0  0  0  0  0  0
  -23.7770   -8.4470   22.0550 C   0  0  0  0  0  3  0  0  0  0  0  0
  -22.5970   -8.2040   21.3140 C   0  0  0  0  0  0  0  0  0  0  0  0
  -22.1760   -9.1530   20.3650 C   0  0  0  0  0  3  0  0  0  0  0  0
  -22.9030  -10.3380   20.1670 C   0  0  0  0  0  3  0  0  0  0  0  0
  -21.8420   -7.0600   21.4180 O   0  0  0  0  0  0  0  0  0  0  0  0
  -21.7680   -6.3500   22.5880 C   0  0  0  0  0  0  0  0  0  0  0  0
  -21.3100   -6.9350   23.7890 C   0  0  0  0  0  3  0  0  0  0  0  0
  -21.1910   -6.1510   24.9530 C   0  0  0  0  0  3  0  0  0  0  0  0
  -21.5160   -4.7830   24.9150 C   0  0  0  0  0  0  0  0  0  0  0  0
  -21.9620   -4.1940   23.7190 C   0  0  0  0  0  3  0  0  0  0  0  0
  -22.0860   -4.9760   22.5580 C   0  0  0  0  0  0  0  0  0  0  0  0
  -22.5000   -4.4030   21.4020 F   0  0  0  0  0  0  0  0  0  0  0  0
  -21.3890   -4.0260   26.0300 F   0  0  0  0  0  0  0  0  0  0  0  0
  -22.9500  -13.6970   21.0990 C   0  0  0  0  0  0  0  0  0  0  0  0
  -22.2500  -13.0040   21.9900 N   0  0  0  0  0  0  0  0  0  0  0  0
  -22.4990  -14.7260   20.5960 O   0  0  0  0  0  0  0  0  0  0  0  0
  -22.6290  -12.1740   22.4220 H   0  0  0  0  0  0  0  0  0  0  0  0
  -21.3210  -13.3080   22.2410 H   0  0  0  0  0  0  0  0  0  0  0  0
  -25.5390  -15.3600   20.1850 N   0  0  0  0  0  0  0  0  0  0  0  0
  -24.7640  -16.0010   20.3170 H   0  0  0  0  0  0  0  0  0  0  0  0
  -26.3430  -15.7950   19.7520 H   0  0  0  0  0  0  0  0  0  0  0  0
  -26.9060  -22.8910   19.3650 N   0  0  0  0  0  4  0  0  0  0  0  0
  -26.9060  -22.1140   18.7250 H   0  0  0  0  0  0  0  0  0  0  0  0
  -26.4450  -23.6600   18.9100 H   0  0  0  0  0  0  0  0  0  0  0  0
  -26.3680  -22.6510   20.1770 H   0  0  0  0  0  0  0  0  0  0  0  0
  -28.2960  -24.7180   20.5990 C   0  0  0  0  0  2  0  0  0  0  0  0
  -28.3280  -26.2180   20.1260 O   0  0  0  0  0  0  0  0  0  0  0  0
  -24.5310  -31.8260   23.1380 C   0  0  0  0  0  0  0  0  0  0  0  0
  -27.2270  -27.1490   20.1480 C   0  0  0  0  0  0  0  0  0  0  0  0
  -23.3800  -30.4140   21.4750 C   0  0  0  0  0  3  0  0  0  0  0  0
  -24.8740  -28.8600   20.0760 C   0  0  0  0  0  0  0  0  0  0  0  0
  -25.9310  -30.7240   21.3470 C   0  0  0  0  0  2  0  0  0  0  0  0
  -26.0350  -29.3280   20.7040 C   0  0  0  0  0  0  0  0  0  0  0  0
  -27.2140  -28.4890   20.7190 C   0  0  0  0  0  3  0  0  0  0  0  0
  -26.0390  -26.7830   19.4860 C   0  0  0  0  0  3  0  0  0  0  0  0
  -24.8880  -27.6010   19.4550 C   0  0  0  0  0  3  0  0  0  0  0  0
  -23.6350  -29.7400   20.0990 C   0  0  0  0  0  2  0  0  0  0  0  0
  -24.6330  -31.0110   22.0410 N   0  0  0  0  0  0  0  0  0  0  0  0
  -23.4310  -32.0910   23.6470 O   0  0  0  0  0  0  0  0  0  0  0  0
  -22.7010  -29.3940   22.4220 C   0  0  0  0  0  0  0  0  0  0  0  0
  -21.3790  -29.2100   22.2780 N   0  0  0  0  0  0  0  0  0  0  0  0
  -23.3690  -28.7710   23.2500 O   0  0  0  0  0  0  0  0  0  0  0  0
  -20.8940  -29.7670   21.5870 H   0  0  0  0  0  0  0  0  0  0  0  0
  -18.0010  -27.9860   22.7390 C   0  0  0  0  0  0  0  0  0  0  0  0
  -20.5570  -28.2620   23.0330 C   0  0  0  0  0  3  0  0  0  0  0  0
  -20.6710  -26.8370   22.4410 C   0  0  0  0  0  2  0  0  0  0  0  0
  -19.5780  -26.5180   21.4150 C   0  0  0  0  0  2  0  0  0  0  0  0
  -18.1910  -26.6460   22.0500 C   0  0  0  0  0  2  0  0  0  0  0  0
  -19.1110  -28.7530   23.1850 C   0  0  0  0  0  0  0  0  0  0  0  0
  -18.8740  -30.0070   23.7900 C   0  0  0  0  0  3  0  0  0  0  0  0
  -17.5620  -30.4920   23.9560 C   0  0  0  0  0  3  0  0  0  0  0  0
  -16.4680  -29.7220   23.5230 C   0  0  0  0  0  3  0  0  0  0  0  0
  -16.6890  -28.4720   22.9190 C   0  0  0  0  0  3  0  0  0  0  0  0
  -25.7860  -32.4780   23.7920 C   0  0  0  0  0  3  0  0  0  0  0  0
  -26.2920  -31.7080   25.0740 C   0  0  1  0  0  0  0  0  0  0  0  0
  -25.1810  -31.4460   26.1180 C   0  0  0  0  0  1  0  0  0  0  0  0
  -26.9050  -30.3430   24.6850 C   0  0  0  0  0  1  0  0  0  0  0  0
  -27.4220  -32.5120   25.7570 C   0  0  0  0  0  1  0  0  0  0  0  0
  -25.4460  -33.8700   24.1280 N   0  0  0  0  0  0  0  0  0  0  0  0
  -25.7740  -34.9360   23.3870 C   0  0  0  0  0  0  0  0  0  0  0  0
  -26.4580  -34.8530   22.3640 O   0  0  0  0  0  0  0  0  0  0  0  0
  -24.8460  -34.0110   24.9270 H   0  0  0  0  0  0  0  0  0  0  0  0
  -24.0260  -36.7090   23.0280 C   0  0  0  0  0  1  0  0  0  0  0  0
  -25.2610  -36.3130   23.8530 C   0  0  0  0  0  3  0  0  0  0  0  0
  -27.3700  -37.2200   24.7260 C   0  0  0  0  0  1  0  0  0  0  0  0
  -26.2800  -37.3820   23.7670 N   0  0  0  0  0  0  0  0  0  0  0  0
  -25.8580  -38.2950   23.9150 H   0  0  0  0  0  0  0  0  0  0  0  0
  1  6  1  0
  1 52  1  0
  2  4  2  0
  2  3  1  0
  3  5  2  0
  4  6  1  0
  5  7  1  0
  5  9  1  0
  6  7  2  0
  7  8  1  0
 10 18  1  0
 11 16  1  0
 12 13  1  0
 12 11  1  0
 14 13  1  0
 14 23  1  0
 14 15  1  0
 16 10  1  0
 16 15  1  0
 17 10  2  0
 18  9  1  0
 19 18  1  0
 20 21  2  0
 21 40  1  0
 22 21  1  0
 22 25  1  0
 23 24  1  0
 23 20  1  0
 24 22  2  0
 25 26  1  0
 26 27  2  0
 28 31  1  0
 28 27  1  0
 29 28  2  0
 30 29  1  0
 30 25  2  0
 31 32  1  0
 32 33  1  0
 33 34  2  0
 35 34  1  0
 35 39  1  0
 36 35  2  0
 37 32  2  0
 37 36  1  0
 38 37  1  0
 40 41  1  0
 41 44  1  0
 41 43  1  0
 42 40  2  0
 45 46  1  0
 45 20  1  0
 47 45  1  0
 48  1  1  0
 48 51  1  0
 49 48  1  0
 50 48  1  0
 53 55  1  0
 53 52  1  0
 54 65  2  0
 55 60  1  0
 56 64  1  0
 56 66  1  0
 57 63  1  0
 57 59  1  0
 58 64  1  0
 59 60  2  0
 59 58  1  0
 61 55  2  0
 62 61  1  0
 62 57  2  0
 63 56  1  0
 64 54  1  0
 66 68  2  0
 67 66  1  0
 69 67  1  0
 70 79  2  0
 70 75  1  0
 71 67  1  0
 71 75  1  0
 72 71  1  0
 73 74  1  0
 73 72  1  0
 74 70  1  0
 75 76  2  0
 76 77  1  0
 78 77  2  0
 79 78  1  0
 80 54  1  0
 80 85  1  0
 80 81  1  0
 81 84  1  1
 81 82  1  0
 83 81  1  0
 85 88  1  0
 86 90  1  0
 86 85  1  0
 87 86  2  0
 90 89  1  0
 92 90  1  0
 92 93  1  0
 92 91  1  0
M  ISO  4  10 100  18 100  52 101  53 101
M  END
>  <TORSDO>  (54) 
F 20

>  <SCORE>  (54) 
-13.784

>  <name>  (54) 
53

>  <ligand_id>  (54) 
53

>  <original_smiles>  (54) 
[H]c1c([H])c([H])c2c(c1[H])C([H])([H])C([H])([H])C([H])([H])C2([H])N([H])C(=O)C1([H])N(C(=O)C([H])(N([H])C(=O)C([H])(N([H])C([H])([H])[H])C([H])([H])[H])C(C([H])([H])[H])(C([H])([H])[H])C([H])([H])[H])C([H])([H])c2c([H])c(OC([H])([H])C([H])(c3c([H])c([H])c([H])c(C([H])([H])N([H])C(=O)N4C([H])([H])C([H])([H])C([H])([H])C([H])(n5nc(-c6c([H])c([H])c(Oc7c([H])c([H])c(F)c([H])c7F)c([H])c6[H])c(C(=O)N([H])[H])c5N([H])[H])C4([H])[H])c3C([H])([H])[H])[N+]([H])([H])[H])c([H])c([H])c2C1([H])[H]

>  <smiles>  (54) 
[H]c1c([H])c([H])c2c(c1[H])C([H])([H])C([H])([H])C([H])([H])C2([H])N([H])C(=O)C1([H])N(C(=O)C([H])(N([H])C(=O)C([H])(N([H])C([H])([H])[H])C([H])([H])[H])C(C([H])([H])[H])(C([H])([H])[H])C([H])([H])[H])C([H])([H])c2c([H])c(OC([H])([H])C([H])(c3c([H])c([H])c([H])c(C([H])([H])N([H])C(=O)N4C([H])([H])C([H])([H])C([H])([H])C([H])(n5nc(-c6c([H])c([H])c(Oc7c([H])c([H])c(F)c([H])c7F)c([H])c6[H])c(C(=O)N([H])[H])c5N([H])[H])C4([H])[H])c3C([H])([H])[H])[N+]([H])([H])[H])c([H])c([H])c2C1([H])[H]

$$$$
54:0:0
     RDKit          3D

 93102  0  0  1  0  0  0  0  0999 V2000
  -29.3540  -21.9490   20.8050 C   0  0  0  0  0  0  0  0  0  0  0  0
  -29.5470  -23.0200   20.0060 N   0  0  0  0  0  0  0  0  0  0  0  0
  -28.8650  -22.0670   21.9310 O   0  0  0  0  0  0  0  0  0  0  0  0
  -29.9150  -22.8290   19.0830 H   0  0  0  0  0  0  0  0  0  0  0  0
  -31.1760  -20.1280   20.8510 C   0  0  0  0  0  2  0  0  0  0  0  0
  -30.9040  -17.6590   21.8240 C   0  0  0  0  0  2  0  0  0  0  0  0
  -29.8110  -20.5500   20.2830 C   0  0  0  0  0  3  0  0  0  0  0  0
  -30.4880  -19.1290   21.8020 C   0  0  0  0  0  3  0  0  0  0  0  0
  -29.2180  -19.2710   20.9660 C   0  0  0  0  0  3  0  0  0  0  0  0
  -29.0050  -17.9020   20.2740 C   0  0  0  0  0  3  0  0  0  0  0  0
  -30.2630  -17.0280   20.5710 C   0  0  0  0  0  3  0  0  0  0  0  0
  -28.6710  -17.9840   18.7790 C   0  0  0  0  0  1  0  0  0  0  0  0
  -30.7010  -14.5560   20.2060 C   0  0  0  0  0  0  0  0  0  0  0  0
  -30.3850  -12.4010   19.0410 C   0  0  0  0  0  2  0  0  0  0  0  0
  -29.3990  -12.6230   17.8750 C   0  0  0  0  0  2  0  0  0  0  0  0
  -27.9410  -12.4720   18.3530 C   0  0  0  0  0  2  0  0  0  0  0  0
  -27.6470  -13.2780   19.6470 C   0  0  0  0  0  3  0  0  0  0  0  0
  -28.7440  -13.0420   20.7110 C   0  0  0  0  0  2  0  0  0  0  0  0
  -30.0440  -13.3660   20.1000 N   0  0  0  0  0  0  0  0  0  0  0  0
  -31.8200  -14.7430   19.7200 O   0  0  0  0  0  0  0  0  0  0  0  0
  -29.9710  -15.5810   20.6980 N   0  0  0  0  0  0  0  0  0  0  0  0
  -29.0640  -15.3340   21.0650 H   0  0  0  0  0  0  0  0  0  0  0  0
  -25.2750  -13.8650   20.4470 C   0  0  0  0  0  0  0  0  0  0  0  0
  -24.2220  -13.0840   20.8410 C   0  0  0  0  0  0  0  0  0  0  0  0
  -24.6860  -11.7340   20.7750 C   0  0  0  0  0  0  0  0  0  0  0  0
  -26.3140  -12.9910   20.1670 N   0  0  0  0  0  0  0  0  0  0  0  0
  -25.9650  -11.7030   20.4220 N   0  0  0  0  0  0  0  0  0  0  0  0
  -23.9690  -10.4670   20.9720 C   0  0  0  0  0  0  0  0  0  0  0  0
  -24.4150   -9.5050   21.9040 C   0  0  0  0  0  3  0  0  0  0  0  0
  -23.7000   -8.3020   22.0900 C   0  0  0  0  0  3  0  0  0  0  0  0
  -22.5260   -8.0520   21.3400 C   0  0  0  0  0  0  0  0  0  0  0  0
  -22.1000   -9.0040   20.3960 C   0  0  0  0  0  3  0  0  0  0  0  0
  -22.8160  -10.1980   20.2100 C   0  0  0  0  0  3  0  0  0  0  0  0
  -21.7820   -6.9020   21.4350 O   0  0  0  0  0  0  0  0  0  0  0  0
  -21.7110   -6.1830   22.6010 C   0  0  0  0  0  0  0  0  0  0  0  0
  -21.2210   -6.7490   23.7970 C   0  0  0  0  0  3  0  0  0  0  0  0
  -21.1010   -5.9540   24.9550 C   0  0  0  0  0  3  0  0  0  0  0  0
  -21.4610   -4.5950   24.9170 C   0  0  0  0  0  0  0  0  0  0  0  0
  -21.9440   -4.0270   23.7240 C   0  0  0  0  0  3  0  0  0  0  0  0
  -22.0660   -4.8190   22.5690 C   0  0  0  0  0  0  0  0  0  0  0  0
  -22.5120   -4.2620   21.4170 F   0  0  0  0  0  0  0  0  0  0  0  0
  -21.3390   -3.8280   26.0250 F   0  0  0  0  0  0  0  0  0  0  0  0
  -22.8330  -13.5520   21.1680 C   0  0  0  0  0  0  0  0  0  0  0  0
  -22.1390  -12.8410   22.0500 N   0  0  0  0  0  0  0  0  0  0  0  0
  -22.3740  -14.5830   20.6780 O   0  0  0  0  0  0  0  0  0  0  0  0
  -22.5250  -12.0090   22.4700 H   0  0  0  0  0  0  0  0  0  0  0  0
  -21.2070  -13.1350   22.3090 H   0  0  0  0  0  0  0  0  0  0  0  0
  -25.4290  -15.2380   20.2820 N   0  0  0  0  0  0  0  0  0  0  0  0
  -24.6610  -15.8860   20.4230 H   0  0  0  0  0  0  0  0  0  0  0  0
  -26.2580  -15.6830   19.9110 H   0  0  0  0  0  0  0  0  0  0  0  0
  -29.5100  -24.4470   20.4070 C   0  0  0  0  0  2  0  0  0  0  0  0
  -28.2840  -25.2480   19.8950 C   0  0  0  0  0  2  0  0  0  0  0  0
  -28.3830  -26.6650   20.1900 O   0  0  0  0  0  0  0  0  0  0  0  0
  -24.5940  -31.9020   23.2340 C   0  0  0  0  0  0  0  0  0  0  0  0
  -27.2250  -27.4310   20.1450 C   0  0  0  0  0  0  0  0  0  0  0  0
  -23.3930  -30.5230   21.5710 C   0  0  0  0  0  3  0  0  0  0  0  0
  -24.8480  -28.9880   20.1440 C   0  0  0  0  0  0  0  0  0  0  0  0
  -25.9280  -30.8540   21.4020 C   0  0  0  0  0  2  0  0  0  0  0  0
  -26.0070  -29.4860   20.7500 C   0  0  0  0  0  0  0  0  0  0  0  0
  -27.1970  -28.7160   20.7460 C   0  0  0  0  0  3  0  0  0  0  0  0
  -26.0440  -26.9630   19.5220 C   0  0  0  0  0  3  0  0  0  0  0  0
  -24.8630  -27.7270   19.5260 C   0  0  0  0  0  3  0  0  0  0  0  0
  -23.6120  -29.8570   20.1870 C   0  0  0  0  0  2  0  0  0  0  0  0
  -24.6570  -31.1080   22.1270 N   0  0  0  0  0  0  0  0  0  0  0  0
  -23.5090  -32.1790   23.7650 O   0  0  0  0  0  0  0  0  0  0  0  0
  -22.7260  -29.4990   22.5170 C   0  0  0  0  0  0  0  0  0  0  0  0
  -21.4020  -29.3200   22.3690 N   0  0  0  0  0  0  0  0  0  0  0  0
  -23.3950  -28.8690   23.3400 O   0  0  0  0  0  0  0  0  0  0  0  0
  -20.9240  -29.8790   21.6770 H   0  0  0  0  0  0  0  0  0  0  0  0
  -18.0160  -28.1410   22.8250 C   0  0  0  0  0  0  0  0  0  0  0  0
  -20.5730  -28.3810   23.1240 C   0  0  0  0  0  3  0  0  0  0  0  0
  -20.6720  -26.9540   22.5350 C   0  0  0  0  0  2  0  0  0  0  0  0
  -19.5780  -26.6470   21.5080 C   0  0  0  0  0  2  0  0  0  0  0  0
  -18.1910  -26.7960   22.1390 C   0  0  0  0  0  2  0  0  0  0  0  0
  -19.1360  -28.8910   23.2720 C   0  0  0  0  0  0  0  0  0  0  0  0
  -18.9190  -30.1520   23.8720 C   0  0  0  0  0  3  0  0  0  0  0  0
  -17.6160  -30.6600   24.0280 C   0  0  0  0  0  3  0  0  0  0  0  0
  -16.5100  -29.9070   23.5980 C   0  0  0  0  0  3  0  0  0  0  0  0
  -16.7120  -28.6490   23.0010 C   0  0  0  0  0  3  0  0  0  0  0  0
  -25.8780  -32.5200   23.8700 C   0  0  0  0  0  3  0  0  0  0  0  0
  -26.3780  -31.7390   25.1470 C   0  0  1  0  0  0  0  0  0  0  0  0
  -25.2730  -31.4990   26.2010 C   0  0  0  0  0  1  0  0  0  0  0  0
  -26.9600  -30.3610   24.7510 C   0  0  0  0  0  1  0  0  0  0  0  0
  -27.5260  -32.5220   25.8270 C   0  0  0  0  0  1  0  0  0  0  0  0
  -25.5780  -33.9190   24.2030 N   0  0  0  0  0  0  0  0  0  0  0  0
  -25.9060  -34.9700   23.4390 C   0  0  0  0  0  0  0  0  0  0  0  0
  -26.5650  -34.8640   22.4020 O   0  0  0  0  0  0  0  0  0  0  0  0
  -24.9930  -34.0760   25.0100 H   0  0  0  0  0  0  0  0  0  0  0  0
  -24.1750  -36.7640   23.1060 C   0  0  0  0  0  1  0  0  0  0  0  0
  -25.4270  -36.3610   23.9000 C   0  0  0  0  0  3  0  0  0  0  0  0
  -27.5710  -37.2490   24.7010 C   0  0  0  0  0  1  0  0  0  0  0  0
  -26.4580  -37.4110   23.7690 N   0  0  0  0  0  0  0  0  0  0  0  0
  -26.0540  -38.3330   23.9160 H   0  0  0  0  0  0  0  0  0  0  0  0
  1  3  2  0
  2 51  1  0
  2  1  1  0
  4  2  1  0
  7  1  1  0
  7  5  1  0
  7  9  1  0
  8  5  1  0
  8  6  1  0
  9  8  1  0
 10 11  1  0
 10  9  1  0
 11 21  1  0
 11  6  1  0
 12 10  1  0
 13 21  1  0
 14 19  1  0
 15 16  1  0
 15 14  1  0
 16 17  1  0
 17 26  1  0
 17 18  1  0
 19 13  1  0
 19 18  1  0
 20 13  2  0
 21 22  1  0
 23 24  2  0
 24 43  1  0
 25 24  1  0
 25 28  1  0
 26 27  1  0
 26 23  1  0
 27 25  2  0
 28 29  1  0
 29 30  2  0
 31 34  1  0
 31 30  1  0
 32 31  2  0
 33 32  1  0
 33 28  2  0
 34 35  1  0
 35 36  1  0
 36 37  2  0
 38 37  1  0
 38 42  1  0
 39 38  2  0
 40 35  2  0
 40 39  1  0
 41 40  1  0
 43 44  1  0
 44 47  1  0
 44 46  1  0
 45 43  2  0
 48 49  1  0
 48 23  1  0
 50 48  1  0
 52 53  1  0
 52 51  1  0
 54 65  2  0
 54 80  1  0
 55 53  1  0
 55 60  1  0
 56 64  1  0
 56 66  1  0
 57 63  1  0
 57 59  1  0
 58 64  1  0
 59 58  1  0
 60 59  2  0
 61 62  1  0
 61 55  2  0
 62 57  2  0
 63 56  1  0
 64 54  1  0
 66 68  2  0
 67 66  1  0
 67 71  1  0
 69 67  1  0
 70 79  2  0
 70 75  1  0
 71 75  1  0
 72 71  1  0
 73 74  1  0
 73 72  1  0
 74 70  1  0
 75 76  2  0
 76 77  1  0
 78 77  2  0
 79 78  1  0
 80 85  1  0
 80 81  1  0
 81 84  1  1
 81 82  1  0
 83 81  1  0
 85 88  1  0
 86 90  1  0
 86 85  1  0
 87 86  2  0
 89 90  1  0
 92 90  1  0
 92 93  1  0
 92 91  1  0
M  ISO  4  13 100  21 100  52 101  53 101
M  END
>  <TORSDO>  (55) 
F 19

>  <SCORE>  (55) 
-14.356

>  <name>  (55) 
54

>  <ligand_id>  (55) 
54

>  <original_smiles>  (55) 
[H]c1c([H])c([H])c2c(c1[H])C([H])([H])C([H])([H])C([H])([H])C2([H])N([H])C(=O)C1([H])N(C(=O)C([H])(N([H])C(=O)C([H])(N([H])C([H])([H])[H])C([H])([H])[H])C(C([H])([H])[H])(C([H])([H])[H])C([H])([H])[H])C([H])([H])c2c([H])c(OC([H])([H])C([H])([H])N([H])C(=O)C3([H])C([H])([H])C4([H])C([H])([H])C([H])(N([H])C(=O)N5C([H])([H])C([H])([H])C([H])([H])C([H])(n6nc(-c7c([H])c([H])c(Oc8c([H])c([H])c(F)c([H])c8F)c([H])c7[H])c(C(=O)N([H])[H])c6N([H])[H])C5([H])[H])C([H])(C([H])([H])[H])C34[H])c([H])c([H])c2C1([H])[H]

>  <smiles>  (55) 
[H]c1c([H])c([H])c2c(c1[H])C([H])([H])C([H])([H])C([H])([H])C2([H])N([H])C(=O)C1([H])N(C(=O)C([H])(N([H])C(=O)C([H])(N([H])C([H])([H])[H])C([H])([H])[H])C(C([H])([H])[H])(C([H])([H])[H])C([H])([H])[H])C([H])([H])c2c([H])c(OC([H])([H])C([H])([H])N([H])C(=O)C3([H])C([H])([H])C4([H])C([H])([H])C([H])(N([H])C(=O)N5C([H])([H])C([H])([H])C([H])([H])C([H])(n6nc(-c7c([H])c([H])c(Oc8c([H])c([H])c(F)c([H])c8F)c([H])c7[H])c(C(=O)N([H])[H])c6N([H])[H])C5([H])[H])C([H])(C([H])([H])[H])C34[H])c([H])c([H])c2C1([H])[H]

$$$$
55:0:0
     RDKit          3D

 97106  0  0  1  0  0  0  0  0999 V2000
  -31.0290  -21.8200   17.3240 C   0  0  0  0  0  2  0  0  0  0  0  0
  -30.5820  -19.7080   18.5800 C   0  0  0  0  0  0  0  0  0  0  0  0
  -30.1980  -20.8900   18.0880 N   0  0  0  0  0  0  0  0  0  0  0  0
  -31.7320  -19.2820   18.4460 O   0  0  0  0  0  0  0  0  0  0  0  0
  -29.2200  -21.1290   18.1890 H   0  0  0  0  0  0  0  0  0  0  0  0
  -30.8110  -14.3210   20.1720 C   0  0  0  0  0  0  0  0  0  0  0  0
  -30.3840  -12.2640   18.9030 C   0  0  0  0  0  2  0  0  0  0  0  0
  -29.3840  -12.5830   17.7720 C   0  0  0  0  0  2  0  0  0  0  0  0
  -27.9280  -12.4690   18.2680 C   0  0  0  0  0  2  0  0  0  0  0  0
  -27.6860  -13.2040   19.6130 C   0  0  0  0  0  3  0  0  0  0  0  0
  -28.7930  -12.8530   20.6290 C   0  0  0  0  0  2  0  0  0  0  0  0
  -30.0860  -13.1820   20.0110 N   0  0  0  0  0  0  0  0  0  0  0  0
  -31.9650  -14.4200   19.7390 O   0  0  0  0  0  0  0  0  0  0  0  0
  -28.6830  -18.0400   18.3600 C   0  0  0  0  0  2  0  0  0  0  0  0
  -29.4010  -16.6880   18.2670 C   0  0  0  0  0  2  0  0  0  0  0  0
  -29.1580  -17.3830   21.4210 C   0  0  0  0  0  2  0  0  0  0  0  0
  -29.5610  -15.9210   21.6320 C   0  0  0  0  0  2  0  0  0  0  0  0
  -29.5020  -18.9050   19.3320 C   0  0  0  0  0  3  0  0  0  0  0  0
  -30.0880  -17.8720   20.3150 C   0  0  0  0  0  3  0  0  0  0  0  0
  -30.3400  -16.6150   19.4860 C   0  0  0  0  0  3  0  0  0  0  0  0
  -30.0770  -15.4470   20.3410 N   0  0  0  0  0  0  0  0  0  0  0  0
  -25.3200  -13.8250   20.4070 C   0  0  0  0  0  0  0  0  0  0  0  0
  -24.2610  -13.0540   20.8100 C   0  0  0  0  0  0  0  0  0  0  0  0
  -24.7150  -11.7010   20.7530 C   0  0  0  0  0  0  0  0  0  0  0  0
  -26.3510  -12.9390   20.1370 N   0  0  0  0  0  0  0  0  0  0  0  0
  -25.9920  -11.6570   20.3990 N   0  0  0  0  0  0  0  0  0  0  0  0
  -23.9940  -10.4400   20.9640 C   0  0  0  0  0  0  0  0  0  0  0  0
  -24.4420   -9.4810   21.8970 C   0  0  0  0  0  3  0  0  0  0  0  0
  -23.7220   -8.2840   22.0950 C   0  0  0  0  0  3  0  0  0  0  0  0
  -22.5380   -8.0390   21.3590 C   0  0  0  0  0  0  0  0  0  0  0  0
  -22.1090   -8.9880   20.4140 C   0  0  0  0  0  3  0  0  0  0  0  0
  -22.8290  -10.1760   20.2150 C   0  0  0  0  0  3  0  0  0  0  0  0
  -21.7860   -6.8940   21.4660 O   0  0  0  0  0  0  0  0  0  0  0  0
  -21.7300   -6.1770   22.6330 C   0  0  0  0  0  0  0  0  0  0  0  0
  -21.2990   -6.7580   23.8450 C   0  0  0  0  0  3  0  0  0  0  0  0
  -21.1910   -5.9680   25.0070 C   0  0  0  0  0  3  0  0  0  0  0  0
  -21.5020   -4.5960   24.9580 C   0  0  0  0  0  0  0  0  0  0  0  0
  -21.9240   -4.0140   23.7490 C   0  0  0  0  0  3  0  0  0  0  0  0
  -22.0350   -4.8010   22.5890 C   0  0  0  0  0  0  0  0  0  0  0  0
  -22.4220   -4.2310   21.4220 F   0  0  0  0  0  0  0  0  0  0  0  0
  -21.3890   -3.8330   26.0690 F   0  0  0  0  0  0  0  0  0  0  0  0
  -22.8780  -13.5340   21.1430 C   0  0  0  0  0  0  0  0  0  0  0  0
  -22.1910  -12.8440   22.0470 N   0  0  0  0  0  0  0  0  0  0  0  0
  -22.4160  -14.5540   20.6340 O   0  0  0  0  0  0  0  0  0  0  0  0
  -22.5800  -12.0160   22.4750 H   0  0  0  0  0  0  0  0  0  0  0  0
  -21.2670  -13.1490   22.3180 H   0  0  0  0  0  0  0  0  0  0  0  0
  -25.4900  -15.1950   20.2330 N   0  0  0  0  0  0  0  0  0  0  0  0
  -24.7430  -15.8670   20.3730 H   0  0  0  0  0  0  0  0  0  0  0  0
  -26.3530  -15.6190   19.9140 H   0  0  0  0  0  0  0  0  0  0  0  0
  -32.0670  -22.5820   18.1790 C   0  0  0  0  0  2  0  0  0  0  0  0
  -31.5540  -23.1970   19.4990 C   0  0  0  0  0  2  0  0  0  0  0  0
  -30.0830  -25.2170   19.3250 C   0  0  0  0  0  0  0  0  0  0  0  0
  -30.2820  -23.8960   19.3460 N   0  0  0  0  0  0  0  0  0  0  0  0
  -31.0060  -26.0350   19.3760 O   0  0  0  0  0  0  0  0  0  0  0  0
  -29.4510  -23.3200   19.3230 H   0  0  0  0  0  0  0  0  0  0  0  0
  -28.6230  -25.6750   19.2670 C   0  0  0  0  0  2  0  0  0  0  0  0
  -28.4670  -26.8180   20.0990 O   0  0  0  0  0  0  0  0  0  0  0  0
  -24.6130  -31.8690   23.2270 C   0  0  0  0  0  0  0  0  0  0  0  0
  -27.2540  -27.4660   20.1070 C   0  0  0  0  0  0  0  0  0  0  0  0
  -23.3950  -30.4680   21.5900 C   0  0  0  0  0  3  0  0  0  0  0  0
  -24.8410  -28.9340   20.1560 C   0  0  0  0  0  0  0  0  0  0  0  0
  -25.9170  -30.8330   21.3810 C   0  0  0  0  0  2  0  0  0  0  0  0
  -25.9960  -29.4650   20.7400 C   0  0  0  0  0  0  0  0  0  0  0  0
  -27.2000  -28.7310   20.7230 C   0  0  0  0  0  3  0  0  0  0  0  0
  -26.0760  -26.9340   19.5280 C   0  0  0  0  0  3  0  0  0  0  0  0
  -24.8730  -27.6640   19.5540 C   0  0  0  0  0  3  0  0  0  0  0  0
  -23.5930  -29.7870   20.2100 C   0  0  0  0  0  2  0  0  0  0  0  0
  -24.6590  -31.0720   22.1230 N   0  0  0  0  0  0  0  0  0  0  0  0
  -23.5350  -32.1420   23.7750 O   0  0  0  0  0  0  0  0  0  0  0  0
  -22.7520  -29.4470   22.5540 C   0  0  0  0  0  0  0  0  0  0  0  0
  -21.4270  -29.2670   22.4340 N   0  0  0  0  0  0  0  0  0  0  0  0
  -23.4410  -28.8180   23.3600 O   0  0  0  0  0  0  0  0  0  0  0  0
  -20.9360  -29.8240   21.7510 H   0  0  0  0  0  0  0  0  0  0  0  0
  -18.0520  -28.0880   22.9490 C   0  0  0  0  0  0  0  0  0  0  0  0
  -20.6130  -28.3290   23.2070 C   0  0  0  0  0  3  0  0  0  0  0  0
  -20.7040  -26.9010   22.6220 C   0  0  0  0  0  2  0  0  0  0  0  0
  -19.5940  -26.5880   21.6150 C   0  0  0  0  0  2  0  0  0  0  0  0
  -18.2170  -26.7390   22.2670 C   0  0  0  0  0  2  0  0  0  0  0  0
  -19.1780  -28.8410   23.3740 C   0  0  0  0  0  0  0  0  0  0  0  0
  -18.9700  -30.1060   23.9690 C   0  0  0  0  0  3  0  0  0  0  0  0
  -17.6690  -30.6140   24.1440 C   0  0  0  0  0  3  0  0  0  0  0  0
  -16.5590  -29.8540   23.7370 C   0  0  0  0  0  3  0  0  0  0  0  0
  -16.7510  -28.5950   23.1450 C   0  0  0  0  0  3  0  0  0  0  0  0
  -25.9050  -32.4960   23.8400 C   0  0  0  0  0  3  0  0  0  0  0  0
  -25.5990  -33.8900   24.1850 N   0  0  0  0  0  0  0  0  0  0  0  0
  -25.9160  -34.9480   23.4280 C   0  0  0  0  0  0  0  0  0  0  0  0
  -26.5720  -34.8540   22.3860 O   0  0  0  0  0  0  0  0  0  0  0  0
  -25.0160  -34.0360   24.9970 H   0  0  0  0  0  0  0  0  0  0  0  0
  -24.1750  -36.7320   23.1080 C   0  0  0  0  0  1  0  0  0  0  0  0
  -25.4280  -36.3310   23.9010 C   0  0  0  0  0  3  0  0  0  0  0  0
  -27.5730  -37.2180   24.7030 C   0  0  0  0  0  1  0  0  0  0  0  0
  -26.4540  -37.3890   23.7800 N   0  0  0  0  0  0  0  0  0  0  0  0
  -26.0470  -38.3060   23.9390 H   0  0  0  0  0  0  0  0  0  0  0  0
  -26.4410  -31.7110   25.1000 C   0  0  1  0  0  0  0  0  0  0  0  0
  -25.3610  -31.4590   26.1780 C   0  0  0  0  0  1  0  0  0  0  0  0
  -27.0220  -30.3390   24.6850 C   0  0  0  0  0  1  0  0  0  0  0  0
  -27.5980  -32.5000   25.7560 C   0  0  0  0  0  1  0  0  0  0  0  0
  1  3  1  0
  1 50  1  0
  3  5  1  0
  3  2  1  0
  4  2  2  0
  6 21  1  0
  7 12  1  0
  8  9  1  0
  8  7  1  0
 10  9  1  0
 10 25  1  0
 10 11  1  0
 12  6  1  0
 12 11  1  0
 13  6  2  0
 14 18  1  0
 15 14  1  0
 16 17  1  0
 18  2  1  0
 18 19  1  0
 19 16  1  0
 20 15  1  0
 20 19  1  0
 20 21  1  0
 21 17  1  0
 22 23  2  0
 23 42  1  0
 24 23  1  0
 24 27  1  0
 25 26  1  0
 25 22  1  0
 26 24  2  0
 27 28  1  0
 28 29  2  0
 30 33  1  0
 30 29  1  0
 31 30  2  0
 32 31  1  0
 32 27  2  0
 33 34  1  0
 34 35  1  0
 35 36  2  0
 37 36  1  0
 37 41  1  0
 38 37  2  0
 39 34  2  0
 39 38  1  0
 40 39  1  0
 42 43  1  0
 43 46  1  0
 43 45  1  0
 44 42  2  0
 47 48  1  0
 47 22  1  0
 49 47  1  0
 50 51  1  0
 52 53  1  0
 52 54  2  0
 53 51  1  0
 55 53  1  0
 56 52  1  0
 56 57  1  0
 57 59  1  0
 58 69  2  0
 59 64  1  0
 60 68  1  0
 60 70  1  0
 61 67  1  0
 61 63  1  0
 62 68  1  0
 63 62  1  0
 64 63  2  0
 65 66  1  0
 65 59  2  0
 66 61  2  0
 67 60  1  0
 68 58  1  0
 70 72  2  0
 71 70  1  0
 73 71  1  0
 74 83  2  0
 74 79  1  0
 75 71  1  0
 75 79  1  0
 76 75  1  0
 77 78  1  0
 77 76  1  0
 78 74  1  0
 79 80  2  0
 80 81  1  0
 82 81  2  0
 83 82  1  0
 84 58  1  0
 84 85  1  0
 84 94  1  0
 85 88  1  0
 86 90  1  0
 86 85  1  0
 87 86  2  0
 90 89  1  0
 92 90  1  0
 92 93  1  0
 92 91  1  0
 94 97  1  1
 94 95  1  0
 96 94  1  0
M  ISO  4   6 100  21 100  56 101  57 101
M  END
>  <TORSDO>  (56) 
F 21

>  <SCORE>  (56) 
-12.583

>  <name>  (56) 
55

>  <ligand_id>  (56) 
55

>  <original_smiles>  (56) 
[H]c1c([H])c([H])c2c(c1[H])C([H])([H])C([H])([H])C([H])([H])C2([H])N([H])C(=O)C1([H])N(C(=O)C([H])(N([H])C(=O)C([H])(N([H])C([H])([H])[H])C([H])([H])[H])C(C([H])([H])[H])(C([H])([H])[H])C([H])([H])[H])C([H])([H])c2c([H])c(OC([H])([H])C(=O)N([H])C([H])([H])C([H])([H])C([H])([H])N([H])C(=O)C3([H])C([H])([H])C([H])([H])C4([H])N(C(=O)N5C([H])([H])C([H])([H])C([H])([H])C([H])(n6nc(-c7c([H])c([H])c(Oc8c([H])c([H])c(F)c([H])c8F)c([H])c7[H])c(C(=O)N([H])[H])c6N([H])[H])C5([H])[H])C([H])([H])C([H])([H])C34[H])c([H])c([H])c2C1([H])[H]

>  <smiles>  (56) 
[H]c1c([H])c([H])c2c(c1[H])C([H])([H])C([H])([H])C([H])([H])C2([H])N([H])C(=O)C1([H])N(C(=O)C([H])(N([H])C(=O)C([H])(N([H])C([H])([H])[H])C([H])([H])[H])C(C([H])([H])[H])(C([H])([H])[H])C([H])([H])[H])C([H])([H])c2c([H])c(OC([H])([H])C(=O)N([H])C([H])([H])C([H])([H])C([H])([H])N([H])C(=O)C3([H])C([H])([H])C([H])([H])C4([H])N(C(=O)N5C([H])([H])C([H])([H])C([H])([H])C([H])(n6nc(-c7c([H])c([H])c(Oc8c([H])c([H])c(F)c([H])c8F)c([H])c7[H])c(C(=O)N([H])[H])c6N([H])[H])C5([H])[H])C([H])([H])C([H])([H])C34[H])c([H])c([H])c2C1([H])[H]

$$$$
56:0:0
     RDKit          3D

101109  0  0  1  0  0  0  0  0999 V2000
  -30.7570  -18.5200   20.2460 C   0  0  0  0  0  3  0  0  0  0  0  0
  -33.0540  -19.0950   21.3190 C   0  0  0  0  0  1  0  0  0  0  0  0
  -31.6520  -18.4930   21.5070 C   0  0  0  0  0  2  0  0  0  0  0  0
  -30.5110  -20.0610   19.7000 C   0  0  0  0  0  2  0  0  0  0  0  0
  -30.0890  -21.2450   20.5840 N   0  0  0  0  0  4  0  0  0  0  0  0
  -29.4030  -20.9320   21.2510 H   0  0  0  0  0  0  0  0  0  0  0  0
  -30.8960  -21.5350   21.1120 H   0  0  0  0  0  0  0  0  0  0  0  0
  -29.5050  -22.4800   19.8670 C   0  0  0  0  0  2  0  0  0  0  0  0
  -29.4760  -23.9350   20.5860 C   0  0  0  0  0  3  0  0  0  0  0  0
  -28.5190  -25.0850   19.9740 C   0  0  0  0  0  3  0  0  0  0  0  0
  -28.5760  -26.5140   20.4270 O   0  0  0  0  0  0  0  0  0  0  0  0
  -24.6110  -31.8840   23.2590 C   0  0  0  0  0  0  0  0  0  0  0  0
  -27.4410  -27.3540   20.3130 C   0  0  0  0  0  0  0  0  0  0  0  0
  -23.5040  -30.4640   21.5690 C   0  0  0  0  0  3  0  0  0  0  0  0
  -25.0430  -28.9410   20.2020 C   0  0  0  0  0  0  0  0  0  0  0  0
  -26.0470  -30.8210   21.4980 C   0  0  0  0  0  2  0  0  0  0  0  0
  -26.1770  -29.4430   20.8530 C   0  0  0  0  0  0  0  0  0  0  0  0
  -27.3760  -28.6620   20.9000 C   0  0  0  0  0  3  0  0  0  0  0  0
  -26.2820  -26.9190   19.6260 C   0  0  0  0  0  3  0  0  0  0  0  0
  -25.1010  -27.6850   19.5810 C   0  0  0  0  0  3  0  0  0  0  0  0
  -23.7880  -29.7920   20.2000 C   0  0  0  0  0  2  0  0  0  0  0  0
  -24.7370  -31.0770   22.1640 N   0  0  0  0  0  0  0  0  0  0  0  0
  -23.5000  -32.1430   23.7440 O   0  0  0  0  0  0  0  0  0  0  0  0
  -22.8150  -29.4380   22.5010 C   0  0  0  0  0  0  0  0  0  0  0  0
  -21.4880  -29.2760   22.3510 N   0  0  0  0  0  0  0  0  0  0  0  0
  -23.4740  -28.7910   23.3180 O   0  0  0  0  0  0  0  0  0  0  0  0
  -21.0160  -29.8550   21.6710 H   0  0  0  0  0  0  0  0  0  0  0  0
  -18.0800  -28.1510   22.8220 C   0  0  0  0  0  0  0  0  0  0  0  0
  -20.6460  -28.3320   23.0900 C   0  0  0  0  0  3  0  0  0  0  0  0
  -20.7070  -26.9200   22.4610 C   0  0  0  0  0  2  0  0  0  0  0  0
  -19.5940  -26.6650   21.4400 C   0  0  0  0  0  2  0  0  0  0  0  0
  -18.2190  -26.8240   22.0950 C   0  0  0  0  0  2  0  0  0  0  0  0
  -19.2210  -28.8670   23.2740 C   0  0  0  0  0  0  0  0  0  0  0  0
  -19.0370  -30.1110   23.9140 C   0  0  0  0  0  3  0  0  0  0  0  0
  -17.7480  -30.6400   24.1060 C   0  0  0  0  0  3  0  0  0  0  0  0
  -16.6210  -29.9210   23.6700 C   0  0  0  0  0  3  0  0  0  0  0  0
  -16.7890  -28.6770   23.0350 C   0  0  0  0  0  3  0  0  0  0  0  0
  -25.8540  -32.5370   23.9390 C   0  0  0  0  0  3  0  0  0  0  0  0
  -26.3040  -31.7950   25.2580 C   0  0  1  0  0  0  0  0  0  0  0  0
  -25.1560  -31.5740   26.2710 C   0  0  0  0  0  1  0  0  0  0  0  0
  -26.9130  -30.4130   24.9270 C   0  0  0  0  0  1  0  0  0  0  0  0
  -27.4120  -32.6110   25.9650 C   0  0  0  0  0  1  0  0  0  0  0  0
  -25.5170  -33.9390   24.2260 N   0  0  0  0  0  0  0  0  0  0  0  0
  -25.8790  -34.9810   23.4660 C   0  0  0  0  0  0  0  0  0  0  0  0
  -26.5990  -34.8650   22.4700 O   0  0  0  0  0  0  0  0  0  0  0  0
  -24.8770  -34.1030   24.9890 H   0  0  0  0  0  0  0  0  0  0  0  0
  -24.1550  -36.7540   23.0050 C   0  0  0  0  0  1  0  0  0  0  0  0
  -25.3630  -36.3740   23.8750 C   0  0  0  0  0  3  0  0  0  0  0  0
  -27.4490  -37.2960   24.7830 C   0  0  0  0  0  1  0  0  0  0  0  0
  -26.3910  -37.4330   23.7850 N   0  0  0  0  0  0  0  0  0  0  0  0
  -25.9700  -38.3520   23.8960 H   0  0  0  0  0  0  0  0  0  0  0  0
  -29.5480  -17.4510   20.4180 C   0  0  0  0  0  0  0  0  0  0  0  0
  -30.5550  -14.8890   19.9670 C   0  0  0  0  0  0  0  0  0  0  0  0
  -30.3630  -12.6160   18.9220 C   0  0  0  0  0  2  0  0  0  0  0  0
  -29.3470  -12.6980   17.7580 C   0  0  0  0  0  2  0  0  0  0  0  0
  -27.9010  -12.5140   18.2640 C   0  0  0  0  0  2  0  0  0  0  0  0
  -27.5970  -13.3820   19.5130 C   0  0  0  0  0  3  0  0  0  0  0  0
  -28.7160  -13.2500   20.5710 C   0  0  0  0  0  2  0  0  0  0  0  0
  -29.9820  -13.6350   19.9240 N   0  0  0  0  0  0  0  0  0  0  0  0
  -31.7030  -15.0720   19.5520 O   0  0  0  0  0  0  0  0  0  0  0  0
  -29.6850  -15.9110   20.3120 N   0  0  0  0  0  4  0  0  0  0  0  0
  -28.8290  -15.4620   20.5920 H   0  0  0  0  0  0  0  0  0  0  0  0
  -25.2790  -14.0030   20.4100 C   0  0  0  0  0  0  0  0  0  0  0  0
  -24.2160  -13.2560   20.8250 C   0  0  0  0  0  0  0  0  0  0  0  0
  -24.6280  -11.8960   20.6950 C   0  0  0  0  0  0  0  0  0  0  0  0
  -26.2760  -13.1090   20.0680 N   0  0  0  0  0  0  0  0  0  0  0  0
  -25.8950  -11.8290   20.3010 N   0  0  0  0  0  0  0  0  0  0  0  0
  -23.8690  -10.6550   20.8600 C   0  0  0  0  0  0  0  0  0  0  0  0
  -24.3300   -9.6220   21.7050 C   0  0  0  0  0  3  0  0  0  0  0  0
  -23.5740   -8.4420   21.8630 C   0  0  0  0  0  3  0  0  0  0  0  0
  -22.3460   -8.2870   21.1770 C   0  0  0  0  0  0  0  0  0  0  0  0
  -21.9040   -9.3110   20.3200 C   0  0  0  0  0  3  0  0  0  0  0  0
  -22.6590  -10.4840   20.1590 C   0  0  0  0  0  3  0  0  0  0  0  0
  -21.5580   -7.1640   21.2520 O   0  0  0  0  0  0  0  0  0  0  0  0
  -21.5640   -6.3560   22.3590 C   0  0  0  0  0  0  0  0  0  0  0  0
  -21.2370   -6.8490   23.6430 C   0  0  0  0  0  3  0  0  0  0  0  0
  -21.1870   -5.9690   24.7420 C   0  0  0  0  0  3  0  0  0  0  0  0
  -21.4550   -4.5980   24.5610 C   0  0  0  0  0  0  0  0  0  0  0  0
  -21.7770   -4.1060   23.2830 C   0  0  0  0  0  3  0  0  0  0  0  0
  -21.8270   -4.9830   22.1860 C   0  0  0  0  0  0  0  0  0  0  0  0
  -22.1170   -4.5000   20.9530 F   0  0  0  0  0  0  0  0  0  0  0  0
  -21.3990   -3.7510   25.6140 F   0  0  0  0  0  0  0  0  0  0  0  0
  -22.8570  -13.7730   21.2000 C   0  0  0  0  0  0  0  0  0  0  0  0
  -22.1580  -13.0760   22.0870 N   0  0  0  0  0  0  0  0  0  0  0  0
  -22.4320  -14.8330   20.7420 O   0  0  0  0  0  0  0  0  0  0  0  0
  -22.5190  -12.2210   22.4810 H   0  0  0  0  0  0  0  0  0  0  0  0
  -21.2480  -13.4020   22.3760 H   0  0  0  0  0  0  0  0  0  0  0  0
  -25.4630  -15.3630   20.2380 N   0  0  0  0  0  0  0  0  0  0  0  0
  -24.5340  -15.7690   20.3150 H   0  0  0  0  0  0  0  0  0  0  0  0
  -25.7740  -15.4750   19.2800 H   0  0  0  0  0  0  0  0  0  0  0  0
  -27.1920  -18.4030   17.3340 C   0  0  0  0  0  2  0  0  0  0  0  0
  -28.4620  -17.9200   18.0770 C   0  0  0  0  0  2  0  0  0  0  0  0
  -25.8550  -18.2070   19.5700 C   0  0  0  0  0  2  0  0  0  0  0  0
  -26.1290  -19.0260   18.2670 C   0  0  0  0  0  3  0  0  0  0  0  0
  -28.3070  -17.9540   19.6170 C   0  0  0  0  0  3  0  0  0  0  0  0
  -27.0060  -17.3640   19.9950 N   0  0  0  0  0  4  0  0  0  0  0  0
  -26.8650  -16.4750   19.5220 H   0  0  0  0  0  0  0  0  0  0  0  0
  -26.9370  -17.2100   20.9860 H   0  0  0  0  0  0  0  0  0  0  0  0
  -26.5660  -20.3780   18.5790 N   0  0  0  0  0  0  0  0  0  0  0  0
  -26.6960  -20.8740   17.7030 H   0  0  0  0  0  0  0  0  0  0  0  0
  -25.7970  -20.8760   19.0170 H   0  0  0  0  0  0  0  0  0  0  0  0
  1  4  1  0
  1 52  1  0
  1  3  1  0
  2  3  1  0
  4  5  1  0
  5  7  1  0
  5  6  1  0
  8  5  1  0
  8  9  1  0
 10 11  1  0
 10  9  2  0
 12 23  2  0
 13 11  1  0
 13 18  1  0
 14 22  1  0
 14 24  1  0
 15 17  1  0
 16 22  1  0
 17 18  2  0
 17 16  1  0
 19 13  2  0
 20 19  1  0
 20 15  2  0
 21 15  1  0
 21 14  1  0
 22 12  1  0
 24 26  2  0
 25 24  1  0
 27 25  1  0
 28 37  2  0
 28 33  1  0
 29 25  1  0
 29 33  1  0
 30 29  1  0
 31 32  1  0
 31 30  1  0
 32 28  1  0
 33 34  2  0
 34 35  1  0
 36 35  2  0
 37 36  1  0
 38 12  1  0
 38 43  1  0
 38 39  1  0
 39 42  1  1
 39 40  1  0
 41 39  1  0
 43 46  1  0
 44 48  1  0
 44 43  1  0
 45 44  2  0
 48 47  1  0
 50 48  1  0
 50 51  1  0
 50 49  1  0
 53 61  1  0
 54 59  1  0
 55 56  1  0
 55 54  1  0
 57 56  1  0
 57 66  1  0
 57 58  1  0
 59 53  1  0
 59 58  1  0
 60 53  2  0
 61 52  2  0
 61 62  1  0
 63 64  2  0
 64 83  1  0
 65 64  1  0
 65 68  1  0
 66 67  1  0
 66 63  1  0
 67 65  2  0
 68 69  1  0
 69 70  2  0
 71 74  1  0
 71 70  1  0
 72 71  2  0
 73 72  1  0
 73 68  2  0
 74 75  1  0
 75 76  1  0
 76 77  2  0
 78 77  1  0
 78 82  1  0
 79 78  2  0
 80 75  2  0
 80 79  1  0
 81 80  1  0
 83 84  1  0
 84 87  1  0
 84 86  1  0
 85 83  2  0
 88 89  1  0
 88 63  1  0
 90 88  1  0
 91 92  1  0
 91 94  1  0
 92 95  1  0
 93 96  1  0
 94 99  1  0
 94 93  1  0
 95 96  1  0
 95 52  1  0
 96 98  1  0
 97 96  1  0
 99101  1  0
100 99  1  0
M  ISO  4  10 101  11 101  53 100  61 100
M  END
>  <TORSDO>  (57) 
F 25

>  <SCORE>  (57) 
-11.318

>  <name>  (57) 
56

>  <ligand_id>  (57) 
56

>  <original_smiles>  (57) 
[H]c1c([H])c([H])c2c(c1[H])C([H])([H])C([H])([H])C([H])([H])C2([H])N([H])C(=O)C1([H])N(C(=O)C([H])(N([H])C(=O)C([H])(N([H])C([H])([H])[H])C([H])([H])[H])C(C([H])([H])[H])(C([H])([H])[H])C([H])([H])[H])C([H])([H])c2c([H])c(OC([H])([H])C([H])([H])C([H])([H])[N+]([H])([H])C([H])([H])C([H])(C([H])([H])C([H])([H])[H])C([H])(N([H])C(=O)N3C([H])([H])C([H])([H])C([H])([H])C([H])(n4nc(-c5c([H])c([H])c(Oc6c([H])c([H])c(F)c([H])c6F)c([H])c5[H])c(C(=O)N([H])[H])c4N([H])[H])C3([H])[H])C3([H])C([H])([H])C([H])([H])C([H])(N([H])[H])C([H])([H])[N+]3([H])[H])c([H])c([H])c2C1([H])[H]

>  <smiles>  (57) 
[H]c1c([H])c([H])c2c(c1[H])C([H])([H])C([H])([H])C([H])([H])C2([H])N([H])C(=O)C1([H])N(C(=O)C([H])(N([H])C(=O)C([H])(N([H])C([H])([H])[H])C([H])([H])[H])C(C([H])([H])[H])(C([H])([H])[H])C([H])([H])[H])C([H])([H])c2c([H])c(OC([H])([H])C([H])([H])C([H])([H])[N+]([H])([H])C([H])([H])C([H])(C([H])([H])C([H])([H])[H])C([H])(N([H])C(=O)N3C([H])([H])C([H])([H])C([H])([H])C([H])(n4nc(-c5c([H])c([H])c(Oc6c([H])c([H])c(F)c([H])c6F)c([H])c5[H])c(C(=O)N([H])[H])c4N([H])[H])C3([H])[H])C3([H])C([H])([H])C([H])([H])C([H])(N([H])[H])C([H])([H])[N+]3([H])[H])c([H])c([H])c2C1([H])[H]

$$$$
57:0:0
     RDKit          3D

 96105  0  0  1  0  0  0  0  0999 V2000
  -30.3470  -21.9490   19.9690 C   0  0  0  0  0  0  0  0  0  0  0  0
  -30.2980  -20.7720   20.6410 N   0  0  0  0  0  0  0  0  0  0  0  0
  -31.1330  -22.1300   19.0320 O   0  0  0  0  0  0  0  0  0  0  0  0
  -29.6600  -20.7380   21.4300 H   0  0  0  0  0  0  0  0  0  0  0  0
  -29.3000  -23.0550   20.3700 C   0  0  0  0  0  2  0  0  0  0  0  0
  -29.6270  -24.6060   20.2690 C   0  0  0  0  0  3  0  0  0  0  0  0
  -30.0760  -25.0890   18.9420 N   0  0  0  0  0  4  0  0  0  0  0  0
  -30.2390  -26.0780   19.0690 H   0  0  0  0  0  0  0  0  0  0  0  0
  -29.3820  -24.9990   18.2190 H   0  0  0  0  0  0  0  0  0  0  0  0
  -30.9440  -24.6650   18.6530 H   0  0  0  0  0  0  0  0  0  0  0  0
  -28.4760  -25.5580   20.7920 C   0  0  0  0  0  2  0  0  0  0  0  0
  -28.3750  -26.7980   20.0370 O   0  0  0  0  0  0  0  0  0  0  0  0
  -24.5180  -31.9270   23.2230 C   0  0  0  0  0  0  0  0  0  0  0  0
  -27.1810  -27.5050   20.1040 C   0  0  0  0  0  0  0  0  0  0  0  0
  -23.2990  -30.5340   21.5780 C   0  0  0  0  0  3  0  0  0  0  0  0
  -24.7580  -28.9960   20.1350 C   0  0  0  0  0  0  0  0  0  0  0  0
  -25.8220  -30.8990   21.3580 C   0  0  0  0  0  2  0  0  0  0  0  0
  -25.9140  -29.5250   20.7190 C   0  0  0  0  0  0  0  0  0  0  0  0
  -27.1290  -28.7940   20.6820 C   0  0  0  0  0  3  0  0  0  0  0  0
  -26.0020  -26.9860   19.5240 C   0  0  0  0  0  3  0  0  0  0  0  0
  -24.7950  -27.7200   19.5330 C   0  0  0  0  0  3  0  0  0  0  0  0
  -23.5130  -29.8620   20.1900 C   0  0  0  0  0  2  0  0  0  0  0  0
  -24.5680  -31.1300   22.1160 N   0  0  0  0  0  0  0  0  0  0  0  0
  -23.4440  -32.2040   23.7740 O   0  0  0  0  0  0  0  0  0  0  0  0
  -22.6550  -29.5070   22.5330 C   0  0  0  0  0  0  0  0  0  0  0  0
  -21.3290  -29.3410   22.4210 N   0  0  0  0  0  0  0  0  0  0  0  0
  -23.3490  -28.8660   23.3300 O   0  0  0  0  0  0  0  0  0  0  0  0
  -20.8360  -29.9260   21.7620 H   0  0  0  0  0  0  0  0  0  0  0  0
  -17.9380  -28.1920   22.9660 C   0  0  0  0  0  0  0  0  0  0  0  0
  -20.5100  -28.3900   23.1680 C   0  0  0  0  0  3  0  0  0  0  0  0
  -20.5790  -26.9810   22.5300 C   0  0  0  0  0  2  0  0  0  0  0  0
  -19.4120  -26.6680   21.5950 C   0  0  0  0  0  2  0  0  0  0  0  0
  -18.0720  -26.8330   22.3100 C   0  0  0  0  0  2  0  0  0  0  0  0
  -19.0870  -28.9250   23.3700 C   0  0  0  0  0  0  0  0  0  0  0  0
  -18.9070  -30.1810   23.9870 C   0  0  0  0  0  3  0  0  0  0  0  0
  -17.6140  -30.7080   24.1920 C   0  0  0  0  0  3  0  0  0  0  0  0
  -16.4810  -29.9720   23.7950 C   0  0  0  0  0  3  0  0  0  0  0  0
  -16.6460  -28.7190   23.1850 C   0  0  0  0  0  3  0  0  0  0  0  0
  -25.8140  -32.5500   23.8380 C   0  0  0  0  0  3  0  0  0  0  0  0
  -25.5240  -33.9500   24.1700 N   0  0  0  0  0  0  0  0  0  0  0  0
  -25.8760  -34.9990   23.4120 C   0  0  0  0  0  0  0  0  0  0  0  0
  -26.5510  -34.8840   22.3840 O   0  0  0  0  0  0  0  0  0  0  0  0
  -24.9380  -34.1150   24.9770 H   0  0  0  0  0  0  0  0  0  0  0  0
  -24.1900  -36.8190   23.0230 C   0  0  0  0  0  1  0  0  0  0  0  0
  -25.4060  -36.3940   23.8620 C   0  0  0  0  0  3  0  0  0  0  0  0
  -27.5390  -37.2430   24.7340 C   0  0  0  0  0  1  0  0  0  0  0  0
  -26.4590  -37.4280   23.7690 N   0  0  0  0  0  0  0  0  0  0  0  0
  -26.0680  -38.3550   23.9030 H   0  0  0  0  0  0  0  0  0  0  0  0
  -26.3320  -31.7700   25.1080 C   0  0  1  0  0  0  0  0  0  0  0  0
  -25.2430  -31.5370   26.1820 C   0  0  0  0  0  1  0  0  0  0  0  0
  -26.9090  -30.3920   24.7050 C   0  0  0  0  0  1  0  0  0  0  0  0
  -27.4900  -32.5520   25.7680 C   0  0  0  0  0  1  0  0  0  0  0  0
  -31.0460  -19.4920   20.4480 C   0  0  0  0  0  2  0  0  0  0  0  0
  -30.8340  -14.7670   20.7110 C   0  0  0  0  0  0  0  0  0  0  0  0
  -30.6990  -12.4330   19.9640 C   0  0  0  0  0  2  0  0  0  0  0  0
  -29.8640  -12.4770   18.6690 C   0  0  0  0  0  2  0  0  0  0  0  0
  -28.3580  -12.3780   18.9830 C   0  0  0  0  0  2  0  0  0  0  0  0
  -27.9030  -13.3180   20.1370 C   0  0  0  0  0  3  0  0  0  0  0  0
  -28.8880  -13.2700   21.3300 C   0  0  0  0  0  2  0  0  0  0  0  0
  -30.2220  -13.5490   20.7900 N   0  0  0  0  0  0  0  0  0  0  0  0
  -32.0660  -14.8600   20.7690 O   0  0  0  0  0  0  0  0  0  0  0  0
  -29.2920  -16.9980   18.1400 C   0  0  0  0  0  2  0  0  0  0  0  0
  -31.5180  -17.4450   18.7120 C   0  0  0  0  0  2  0  0  0  0  0  0
  -29.3290  -16.7950   20.5030 C   0  0  0  0  0  2  0  0  0  0  0  0
  -29.2750  -17.8840   19.3790 C   0  0  0  0  0  3  0  0  0  0  0  0
  -30.6160  -18.6390   19.2050 C   0  0  0  0  0  3  0  0  0  0  0  0
  -30.5320  -16.2400   18.6210 C   0  0  0  0  0  3  0  0  0  0  0  0
  -30.1540  -15.7030   19.9630 N   0  0  0  0  0  0  0  0  0  0  0  0
  -25.4540  -13.9020   20.6320 C   0  0  0  0  0  0  0  0  0  0  0  0
  -24.3580  -13.1140   20.9070 C   0  0  0  0  0  0  0  0  0  0  0  0
  -24.8380  -11.7740   20.9620 C   0  0  0  0  0  0  0  0  0  0  0  0
  -26.5240  -13.0310   20.5280 N   0  0  0  0  0  0  0  0  0  0  0  0
  -26.1540  -11.7510   20.7860 N   0  0  0  0  0  0  0  0  0  0  0  0
  -24.1080  -10.5040   21.1120 C   0  0  0  0  0  0  0  0  0  0  0  0
  -24.4620   -9.5670   22.1060 C   0  0  0  0  0  3  0  0  0  0  0  0
  -23.7360   -8.3630   22.2470 C   0  0  0  0  0  3  0  0  0  0  0  0
  -22.6420   -8.0910   21.3960 C   0  0  0  0  0  0  0  0  0  0  0  0
  -22.3060   -9.0160   20.3920 C   0  0  0  0  0  3  0  0  0  0  0  0
  -23.0280  -10.2120   20.2480 C   0  0  0  0  0  3  0  0  0  0  0  0
  -21.8960   -6.9370   21.4480 O   0  0  0  0  0  0  0  0  0  0  0  0
  -21.7580   -6.2180   22.6060 C   0  0  0  0  0  0  0  0  0  0  0  0
  -21.2110   -6.7890   23.7760 C   0  0  0  0  0  3  0  0  0  0  0  0
  -21.0160   -5.9950   24.9240 C   0  0  0  0  0  3  0  0  0  0  0  0
  -21.3650   -4.6320   24.9050 C   0  0  0  0  0  0  0  0  0  0  0  0
  -21.9040   -4.0590   23.7380 C   0  0  0  0  0  3  0  0  0  0  0  0
  -22.0960   -4.8500   22.5930 C   0  0  0  0  0  0  0  0  0  0  0  0
  -22.5940   -4.2880   21.4650 F   0  0  0  0  0  0  0  0  0  0  0  0
  -21.1750   -3.8680   26.0070 F   0  0  0  0  0  0  0  0  0  0  0  0
  -22.9330  -13.5740   21.0170 C   0  0  0  0  0  0  0  0  0  0  0  0
  -22.1360  -12.8830   21.8360 N   0  0  0  0  0  0  0  0  0  0  0  0
  -22.5280  -14.5600   20.4090 O   0  0  0  0  0  0  0  0  0  0  0  0
  -22.4780  -12.0800   22.3400 H   0  0  0  0  0  0  0  0  0  0  0  0
  -21.1820  -13.1750   21.9810 H   0  0  0  0  0  0  0  0  0  0  0  0
  -25.6150  -15.2630   20.4200 N   0  0  0  0  0  0  0  0  0  0  0  0
  -24.8240  -15.8960   20.4070 H   0  0  0  0  0  0  0  0  0  0  0  0
  -26.4770  -15.6970   20.1210 H   0  0  0  0  0  0  0  0  0  0  0  0
  1  5  1  0
  1  2  1  0
  2  4  1  0
  3  1  2  0
  6  5  1  0
  6 11  1  0
  7  8  1  0
  7  6  1  0
  9  7  1  0
 10  7  1  0
 12 14  1  0
 12 11  1  0
 13 24  2  0
 14 19  1  0
 15 23  1  0
 15 25  1  0
 16 22  1  0
 16 18  1  0
 17 23  1  0
 18 17  1  0
 19 18  2  0
 20 21  1  0
 20 14  2  0
 21 16  2  0
 22 15  1  0
 23 13  1  0
 25 27  2  0
 26 25  1  0
 28 26  1  0
 29 38  2  0
 29 34  1  0
 30 26  1  0
 30 34  1  0
 31 30  1  0
 32 33  1  0
 32 31  1  0
 33 29  1  0
 34 35  2  0
 35 36  1  0
 37 36  2  0
 38 37  1  0
 39 13  1  0
 39 40  1  0
 39 49  1  0
 40 43  1  0
 41 45  1  0
 41 40  1  0
 42 41  2  0
 45 44  1  0
 47 45  1  0
 47 48  1  0
 47 46  1  0
 49 52  1  1
 49 50  1  0
 51 49  1  0
 53  2  1  0
 54 61  2  0
 54 60  1  0
 55 60  1  0
 56 57  1  0
 56 55  1  0
 58 57  1  0
 58 72  1  0
 58 59  1  0
 60 59  1  0
 63 66  1  0
 65 62  1  0
 65 64  1  0
 66 65  1  0
 66 53  1  0
 67 62  1  0
 67 63  1  0
 67 68  1  0
 68 64  1  0
 68 54  1  0
 69 70  2  0
 70 71  1  0
 70 89  1  0
 71 74  1  0
 72 69  1  0
 72 73  1  0
 73 71  2  0
 74 75  1  0
 75 76  2  0
 77 80  1  0
 77 76  1  0
 78 77  2  0
 79 78  1  0
 79 74  2  0
 80 81  1  0
 81 82  1  0
 82 83  2  0
 84 83  1  0
 84 88  1  0
 85 84  2  0
 86 81  2  0
 86 85  1  0
 87 86  1  0
 89 90  1  0
 90 93  1  0
 90 92  1  0
 91 89  2  0
 94 69  1  0
 95 94  1  0
 96 94  1  0
M  ISO  4  11 101  12 101  54 100  68 100
M  END
>  <TORSDO>  (58) 
F 21

>  <SCORE>  (58) 
-12.911

>  <name>  (58) 
57

>  <ligand_id>  (58) 
57

>  <original_smiles>  (58) 
[H]c1c([H])c([H])c2c(c1[H])C([H])([H])C([H])([H])C([H])([H])C2([H])N([H])C(=O)C1([H])N(C(=O)C([H])(N([H])C(=O)C([H])(N([H])C([H])([H])[H])C([H])([H])[H])C(C([H])([H])[H])(C([H])([H])[H])C([H])([H])[H])C([H])([H])c2c([H])c(OC([H])([H])C([H])(C([H])([H])C(=O)N([H])C([H])([H])C3([H])C([H])([H])C4([H])N(C(=O)N5C([H])([H])C([H])([H])C([H])([H])C([H])(n6nc(-c7c([H])c([H])c(Oc8c([H])c([H])c(F)c([H])c8F)c([H])c7[H])c(C(=O)N([H])[H])c6N([H])[H])C5([H])[H])C([H])([H])C3([H])C4([H])[H])[N+]([H])([H])[H])c([H])c([H])c2C1([H])[H]

>  <smiles>  (58) 
[H]c1c([H])c([H])c2c(c1[H])C([H])([H])C([H])([H])C([H])([H])C2([H])N([H])C(=O)C1([H])N(C(=O)C([H])(N([H])C(=O)C([H])(N([H])C([H])([H])[H])C([H])([H])[H])C(C([H])([H])[H])(C([H])([H])[H])C([H])([H])[H])C([H])([H])c2c([H])c(OC([H])([H])C([H])(C([H])([H])C(=O)N([H])C([H])([H])C3([H])C([H])([H])C4([H])N(C(=O)N5C([H])([H])C([H])([H])C([H])([H])C([H])(n6nc(-c7c([H])c([H])c(Oc8c([H])c([H])c(F)c([H])c8F)c([H])c7[H])c(C(=O)N([H])[H])c6N([H])[H])C5([H])[H])C([H])([H])C3([H])C4([H])[H])[N+]([H])([H])[H])c([H])c([H])c2C1([H])[H]

$$$$
58:0:0
     RDKit          3D

 93101  0  0  1  0  0  0  0  0999 V2000
  -28.9580  -22.6900   20.3820 C   0  0  0  0  0  3  0  0  0  0  0  0
  -31.5110  -20.0440   18.6970 C   0  0  0  0  0  3  0  0  0  0  0  0
  -30.7210  -21.1660   19.0680 C   0  0  0  0  0  3  0  0  0  0  0  0
  -31.2410  -18.6970   19.0580 C   0  0  0  0  0  3  0  0  0  0  0  0
  -29.5500  -21.0860   19.8550 C   0  0  0  0  0  0  0  0  0  0  0  0
  -29.2740  -19.5740   20.1760 C   0  0  0  0  0  0  0  0  0  0  0  0
  -30.1130  -18.3080   19.8110 C   0  0  0  0  0  0  0  0  0  0  0  0
  -28.0020  -19.2450   20.9330 C   0  0  0  0  0  1  0  0  0  0  0  0
  -30.6880  -15.4180   19.8260 C   0  0  0  0  0  0  0  0  0  0  0  0
  -30.6180  -12.9600   18.9510 C   0  0  0  0  0  2  0  0  0  0  0  0
  -29.6290  -12.7520   17.7730 C   0  0  0  0  0  2  0  0  0  0  0  0
  -28.2120  -12.4720   18.2980 C   0  0  0  0  0  2  0  0  0  0  0  0
  -27.8270  -13.4290   19.4510 C   0  0  0  0  0  3  0  0  0  0  0  0
  -28.9370  -13.5820   20.5140 C   0  0  0  0  0  2  0  0  0  0  0  0
  -30.1260  -14.1020   19.8160 N   0  0  0  0  0  0  0  0  0  0  0  0
  -31.8840  -15.4050   19.4930 O   0  0  0  0  0  0  0  0  0  0  0  0
  -29.9420  -16.6980   20.0540 N   0  0  0  0  0  0  0  0  0  0  0  0
  -29.0280  -16.4760   20.4210 H   0  0  0  0  0  0  0  0  0  0  0  0
  -25.5200  -13.9850   20.3770 C   0  0  0  0  0  0  0  0  0  0  0  0
  -24.4740  -13.2080   20.7870 C   0  0  0  0  0  0  0  0  0  0  0  0
  -24.9190  -11.8540   20.6800 C   0  0  0  0  0  0  0  0  0  0  0  0
  -26.5320  -13.1070   20.0350 N   0  0  0  0  0  0  0  0  0  0  0  0
  -26.1880  -11.8160   20.2860 N   0  0  0  0  0  0  0  0  0  0  0  0
  -24.1880  -10.5940   20.8730 C   0  0  0  0  0  0  0  0  0  0  0  0
  -24.5880   -9.6460   21.8390 C   0  0  0  0  0  3  0  0  0  0  0  0
  -23.8540   -8.4550   22.0200 C   0  0  0  0  0  3  0  0  0  0  0  0
  -22.7040   -8.2020   21.2340 C   0  0  0  0  0  0  0  0  0  0  0  0
  -22.3220   -9.1400   20.2580 C   0  0  0  0  0  3  0  0  0  0  0  0
  -23.0570  -10.3220   20.0760 C   0  0  0  0  0  3  0  0  0  0  0  0
  -21.9430   -7.0610   21.3230 O   0  0  0  0  0  0  0  0  0  0  0  0
  -21.7590   -6.4100   22.5170 C   0  0  0  0  0  0  0  0  0  0  0  0
  -21.1600   -7.0430   23.6270 C   0  0  0  0  0  3  0  0  0  0  0  0
  -20.9260   -6.3160   24.8110 C   0  0  0  0  0  3  0  0  0  0  0  0
  -21.2810   -4.9560   24.8840 C   0  0  0  0  0  0  0  0  0  0  0  0
  -21.8740   -4.3220   23.7780 C   0  0  0  0  0  3  0  0  0  0  0  0
  -22.1080   -5.0470   22.5970 C   0  0  0  0  0  0  0  0  0  0  0  0
  -22.6600   -4.4250   21.5270 F   0  0  0  0  0  0  0  0  0  0  0  0
  -21.0510   -4.2550   26.0200 F   0  0  0  0  0  0  0  0  0  0  0  0
  -23.1040  -13.6930   21.1590 C   0  0  0  0  0  0  0  0  0  0  0  0
  -22.4280  -12.9870   22.0580 N   0  0  0  0  0  0  0  0  0  0  0  0
  -22.6450  -14.7330   20.6880 O   0  0  0  0  0  0  0  0  0  0  0  0
  -22.8150  -12.1440   22.4580 H   0  0  0  0  0  0  0  0  0  0  0  0
  -21.5100  -13.2910   22.3510 H   0  0  0  0  0  0  0  0  0  0  0  0
  -25.6890  -15.3590   20.2330 N   0  0  0  0  0  0  0  0  0  0  0  0
  -24.9290  -16.0110   20.3940 H   0  0  0  0  0  0  0  0  0  0  0  0
  -26.4960  -15.7910   19.8050 H   0  0  0  0  0  0  0  0  0  0  0  0
  -28.1460  -22.5780   21.6900 C   0  0  0  0  0  2  0  0  0  0  0  0
  -28.9630  -22.1620   22.8440 N   0  0  0  0  0  4  0  0  0  0  0  0
  -28.3890  -22.0960   23.6660 H   0  0  0  0  0  0  0  0  0  0  0  0
  -29.6900  -22.8310   23.0280 H   0  0  0  0  0  0  0  0  0  0  0  0
  -29.3870  -21.2680   22.6730 H   0  0  0  0  0  0  0  0  0  0  0  0
  -28.3270  -24.2030   19.5750 C   0  0  0  0  0  2  0  0  0  0  0  0
  -28.3320  -25.8420   19.9110 O   0  0  0  0  0  0  0  0  0  0  0  0
  -24.6090  -31.6880   22.9500 C   0  0  0  0  0  0  0  0  0  0  0  0
  -27.2800  -26.9130   19.8280 C   0  0  0  0  0  0  0  0  0  0  0  0
  -23.4380  -30.2710   21.3110 C   0  0  0  0  0  3  0  0  0  0  0  0
  -24.9170  -28.7310   19.8410 C   0  0  0  0  0  0  0  0  0  0  0  0
  -25.9930  -30.5650   21.1300 C   0  0  0  0  0  2  0  0  0  0  0  0
  -26.0990  -29.1640   20.4530 C   0  0  0  0  0  0  0  0  0  0  0  0
  -27.2690  -28.2730   20.4250 C   0  0  0  0  0  3  0  0  0  0  0  0
  -26.0640  -26.6430   19.1580 C   0  0  0  0  0  3  0  0  0  0  0  0
  -24.9260  -27.4950   19.1720 C   0  0  0  0  0  3  0  0  0  0  0  0
  -23.6680  -29.6110   19.9220 C   0  0  0  0  0  2  0  0  0  0  0  0
  -24.7010  -30.8700   21.8500 N   0  0  0  0  0  0  0  0  0  0  0  0
  -23.5180  -31.9350   23.4910 O   0  0  0  0  0  0  0  0  0  0  0  0
  -22.7920  -29.2420   22.2770 C   0  0  0  0  0  0  0  0  0  0  0  0
  -21.4640  -29.0430   22.1800 N   0  0  0  0  0  0  0  0  0  0  0  0
  -23.4930  -28.6230   23.0820 O   0  0  0  0  0  0  0  0  0  0  0  0
  -20.9500  -29.5960   21.5090 H   0  0  0  0  0  0  0  0  0  0  0  0
  -18.1290  -27.7270   22.7450 C   0  0  0  0  0  0  0  0  0  0  0  0
  -20.6860  -28.0690   22.9540 C   0  0  0  0  0  3  0  0  0  0  0  0
  -20.8170  -26.6490   22.3540 C   0  0  0  0  0  2  0  0  0  0  0  0
  -19.7020  -26.3110   21.3600 C   0  0  0  0  0  2  0  0  0  0  0  0
  -18.3320  -26.3970   22.0380 C   0  0  0  0  0  2  0  0  0  0  0  0
  -19.2340  -28.5190   23.1610 C   0  0  0  0  0  0  0  0  0  0  0  0
  -18.9870  -29.7590   23.7890 C   0  0  0  0  0  3  0  0  0  0  0  0
  -17.6710  -30.2100   24.0010 C   0  0  0  0  0  3  0  0  0  0  0  0
  -16.5810  -29.4170   23.5990 C   0  0  0  0  0  3  0  0  0  0  0  0
  -16.8120  -28.1770   22.9770 C   0  0  0  0  0  3  0  0  0  0  0  0
  -25.8660  -32.3680   23.5720 C   0  0  0  0  0  3  0  0  0  0  0  0
  -26.4610  -31.5650   24.7960 C   0  0  1  0  0  0  0  0  0  0  0  0
  -25.4160  -31.2170   25.8820 C   0  0  0  0  0  1  0  0  0  0  0  0
  -27.1060  -30.2410   24.3280 C   0  0  0  0  0  1  0  0  0  0  0  0
  -27.5880  -32.3900   25.4630 C   0  0  0  0  0  1  0  0  0  0  0  0
  -25.4840  -33.7260   23.9980 N   0  0  0  0  0  0  0  0  0  0  0  0
  -25.7500  -34.8490   23.3170 C   0  0  0  0  0  0  0  0  0  0  0  0
  -26.4050  -34.8520   22.2720 O   0  0  0  0  0  0  0  0  0  0  0  0
  -24.8940  -33.7900   24.8150 H   0  0  0  0  0  0  0  0  0  0  0  0
  -23.9380  -36.5880   23.1220 C   0  0  0  0  0  1  0  0  0  0  0  0
  -25.2090  -36.1780   23.8850 C   0  0  0  0  0  3  0  0  0  0  0  0
  -27.3080  -37.1060   24.7590 C   0  0  0  0  0  1  0  0  0  0  0  0
  -26.1900  -37.2840   23.8370 N   0  0  0  0  0  0  0  0  0  0  0  0
  -25.7440  -38.1720   24.0490 H   0  0  0  0  0  0  0  0  0  0  0  0
  1 52  1  0
  1 47  1  0
  2  4  2  0
  2  3  1  0
  3  5  2  0
  4  7  1  0
  5  6  1  0
  5  1  1  0
  6  8  1  0
  7 17  1  0
  7  6  2  0
  9 17  1  0
 10 15  1  0
 11 12  1  0
 11 10  1  0
 13 12  1  0
 13 22  1  0
 13 14  1  0
 15  9  1  0
 15 14  1  0
 16  9  2  0
 17 18  1  0
 19 20  2  0
 20 39  1  0
 21 20  1  0
 21 24  1  0
 22 23  1  0
 22 19  1  0
 23 21  2  0
 24 25  1  0
 25 26  2  0
 27 30  1  0
 27 26  1  0
 28 27  2  0
 29 28  1  0
 29 24  2  0
 30 31  1  0
 31 36  2  0
 31 32  1  0
 32 33  2  0
 33 34  1  0
 34 38  1  0
 35 34  2  0
 36 35  1  0
 37 36  1  0
 39 40  1  0
 40 43  1  0
 40 42  1  0
 41 39  2  0
 44 19  1  0
 44 45  1  0
 46 44  1  0
 47 48  1  0
 48 50  1  0
 48 49  1  0
 51 48  1  0
 52 53  1  0
 54 65  2  0
 55 53  1  0
 55 60  1  0
 56 64  1  0
 56 66  1  0
 57 63  1  0
 57 59  1  0
 58 64  1  0
 59 58  1  0
 60 59  2  0
 61 62  1  0
 61 55  2  0
 62 57  2  0
 63 56  1  0
 64 54  1  0
 66 68  2  0
 67 66  1  0
 69 67  1  0
 70 79  2  0
 70 75  1  0
 71 67  1  0
 71 75  1  0
 72 71  1  0
 73 74  1  0
 73 72  1  0
 74 70  1  0
 75 76  2  0
 76 77  1  0
 78 77  2  0
 79 78  1  0
 80 54  1  0
 80 85  1  0
 80 81  1  0
 81 84  1  1
 81 82  1  0
 83 81  1  0
 85 88  1  0
 86 90  1  0
 86 85  1  0
 87 86  2  0
 90 89  1  0
 92 90  1  0
 92 93  1  0
 92 91  1  0
M  ISO  4   9 100  17 100  52 101  53 101
M  END
>  <TORSDO>  (59) 
F 20

>  <SCORE>  (59) 
-14.712

>  <name>  (59) 
58

>  <ligand_id>  (59) 
58

>  <original_smiles>  (59) 
[H]c1c([H])c([H])c2c(c1[H])C([H])([H])C([H])([H])C([H])([H])C2([H])N([H])C(=O)C1([H])N(C(=O)C([H])(N([H])C(=O)C([H])(N([H])C([H])([H])[H])C([H])([H])[H])C(C([H])([H])[H])(C([H])([H])[H])C([H])([H])[H])C([H])([H])c2c([H])c(OC([H])([H])C([H])(c3c([H])c([H])c([H])c(N([H])C(=O)N4C([H])([H])C([H])([H])C([H])([H])C([H])(n5nc(-c6c([H])c([H])c(Oc7c([H])c([H])c(F)c([H])c7F)c([H])c6[H])c(C(=O)N([H])[H])c5N([H])[H])C4([H])[H])c3C([H])([H])[H])C([H])([H])[N+]([H])([H])[H])c([H])c([H])c2C1([H])[H]

>  <smiles>  (59) 
[H]c1c([H])c([H])c2c(c1[H])C([H])([H])C([H])([H])C([H])([H])C2([H])N([H])C(=O)C1([H])N(C(=O)C([H])(N([H])C(=O)C([H])(N([H])C([H])([H])[H])C([H])([H])[H])C(C([H])([H])[H])(C([H])([H])[H])C([H])([H])[H])C([H])([H])c2c([H])c(OC([H])([H])C([H])(c3c([H])c([H])c([H])c(N([H])C(=O)N4C([H])([H])C([H])([H])C([H])([H])C([H])(n5nc(-c6c([H])c([H])c(Oc7c([H])c([H])c(F)c([H])c7F)c([H])c6[H])c(C(=O)N([H])[H])c5N([H])[H])C4([H])[H])c3C([H])([H])[H])C([H])([H])[N+]([H])([H])[H])c([H])c([H])c2C1([H])[H]

$$$$
59:0:0
     RDKit          3D

 91 99  0  0  1  0  0  0  0  0999 V2000
  -29.9970  -21.7220   20.7520 C   0  0  0  0  0  0  0  0  0  0  0  0
  -29.1340  -22.7250   20.4300 N   0  0  0  0  0  0  0  0  0  0  0  0
  -31.1060  -21.9880   21.2210 O   0  0  0  0  0  0  0  0  0  0  0  0
  -28.2310  -22.4550   20.0630 H   0  0  0  0  0  0  0  0  0  0  0  0
  -30.5520  -19.5150   19.4740 C   0  0  0  0  0  2  0  0  0  0  0  0
  -29.7340  -19.3500   21.8270 C   0  0  0  0  0  2  0  0  0  0  0  0
  -30.3280  -17.9800   19.2780 C   0  0  0  0  0  2  0  0  0  0  0  0
  -29.4900  -17.8190   21.6280 C   0  0  0  0  0  2  0  0  0  0  0  0
  -29.6240  -20.2040   20.5260 C   0  0  0  0  0  3  0  0  0  0  0  0
  -30.4460  -17.1570   20.5910 C   0  0  0  0  0  3  0  0  0  0  0  0
  -30.9270  -14.6690   19.9830 C   0  0  0  0  0  0  0  0  0  0  0  0
  -30.6460  -12.4640   18.8690 C   0  0  0  0  0  2  0  0  0  0  0  0
  -29.6110  -12.6070   17.7270 C   0  0  0  0  0  2  0  0  0  0  0  0
  -28.1670  -12.4650   18.2470 C   0  0  0  0  0  2  0  0  0  0  0  0
  -27.9060  -13.3020   19.5230 C   0  0  0  0  0  3  0  0  0  0  0  0
  -29.0340  -13.1060   20.5590 C   0  0  0  0  0  2  0  0  0  0  0  0
  -30.3030  -13.4560   19.9030 N   0  0  0  0  0  0  0  0  0  0  0  0
  -32.0600  -14.8550   19.5310 O   0  0  0  0  0  0  0  0  0  0  0  0
  -30.1520  -15.6980   20.4300 N   0  0  0  0  0  0  0  0  0  0  0  0
  -29.2160  -15.4190   20.6850 H   0  0  0  0  0  0  0  0  0  0  0  0
  -25.5810  -13.8920   20.4390 C   0  0  0  0  0  0  0  0  0  0  0  0
  -24.5320  -13.1160   20.8460 C   0  0  0  0  0  0  0  0  0  0  0  0
  -24.9680  -11.7620   20.7160 C   0  0  0  0  0  0  0  0  0  0  0  0
  -26.5920  -13.0130   20.0880 N   0  0  0  0  0  0  0  0  0  0  0  0
  -26.2320  -11.7230   20.3100 N   0  0  0  0  0  0  0  0  0  0  0  0
  -24.2390  -10.5010   20.9040 C   0  0  0  0  0  0  0  0  0  0  0  0
  -24.6400   -9.5490   21.8670 C   0  0  0  0  0  3  0  0  0  0  0  0
  -23.9140   -8.3490   22.0310 C   0  0  0  0  0  3  0  0  0  0  0  0
  -22.7720   -8.0960   21.2350 C   0  0  0  0  0  0  0  0  0  0  0  0
  -22.3930   -9.0350   20.2610 C   0  0  0  0  0  3  0  0  0  0  0  0
  -23.1190  -10.2260   20.0960 C   0  0  0  0  0  3  0  0  0  0  0  0
  -22.0170   -6.9510   21.3130 O   0  0  0  0  0  0  0  0  0  0  0  0
  -21.7910   -6.3190   22.5100 C   0  0  0  0  0  0  0  0  0  0  0  0
  -21.1390   -6.9650   23.5830 C   0  0  0  0  0  3  0  0  0  0  0  0
  -20.8620   -6.2530   24.7680 C   0  0  0  0  0  3  0  0  0  0  0  0
  -21.2310   -4.9000   24.8810 C   0  0  0  0  0  0  0  0  0  0  0  0
  -21.8760   -4.2560   23.8110 C   0  0  0  0  0  3  0  0  0  0  0  0
  -22.1550   -4.9640   22.6300 C   0  0  0  0  0  0  0  0  0  0  0  0
  -22.7570   -4.3320   21.5940 F   0  0  0  0  0  0  0  0  0  0  0  0
  -20.9620   -4.2150   26.0180 F   0  0  0  0  0  0  0  0  0  0  0  0
  -23.1660  -13.5930   21.2480 C   0  0  0  0  0  0  0  0  0  0  0  0
  -22.5020  -12.8610   22.1340 N   0  0  0  0  0  0  0  0  0  0  0  0
  -22.7020  -14.6450   20.8110 O   0  0  0  0  0  0  0  0  0  0  0  0
  -22.8990  -12.0090   22.5020 H   0  0  0  0  0  0  0  0  0  0  0  0
  -21.5860  -13.1520   22.4480 H   0  0  0  0  0  0  0  0  0  0  0  0
  -25.7640  -15.2670   20.3150 N   0  0  0  0  0  0  0  0  0  0  0  0
  -25.0420  -15.9410   20.5370 H   0  0  0  0  0  0  0  0  0  0  0  0
  -26.5920  -15.6880   19.9110 H   0  0  0  0  0  0  0  0  0  0  0  0
  -29.4060  -24.1980   20.5440 C   0  0  0  0  0  3  0  0  0  0  0  0
  -28.2500  -25.1550   20.0600 C   0  0  0  0  0  3  0  0  0  0  0  0
  -28.4430  -26.6050   20.2150 O   0  0  0  0  0  0  0  0  0  0  0  0
  -24.6050  -31.8280   23.2710 C   0  0  0  0  0  0  0  0  0  0  0  0
  -27.3020  -27.4090   20.1450 C   0  0  0  0  0  0  0  0  0  0  0  0
  -23.4220  -30.4340   21.6100 C   0  0  0  0  0  3  0  0  0  0  0  0
  -24.9020  -28.9480   20.1520 C   0  0  0  0  0  0  0  0  0  0  0  0
  -25.9490  -30.8200   21.4260 C   0  0  0  0  0  2  0  0  0  0  0  0
  -26.0570  -29.4560   20.7600 C   0  0  0  0  0  0  0  0  0  0  0  0
  -27.2590  -28.6990   20.7500 C   0  0  0  0  0  3  0  0  0  0  0  0
  -26.1320  -26.9540   19.4940 C   0  0  0  0  0  3  0  0  0  0  0  0
  -24.9400  -27.7010   19.5060 C   0  0  0  0  0  3  0  0  0  0  0  0
  -23.6480  -29.7920   20.2140 C   0  0  0  0  0  2  0  0  0  0  0  0
  -24.6770  -31.0420   22.1600 N   0  0  0  0  0  0  0  0  0  0  0  0
  -23.5180  -32.0730   23.8170 O   0  0  0  0  0  0  0  0  0  0  0  0
  -22.7880  -29.3860   22.5530 C   0  0  0  0  0  0  0  0  0  0  0  0
  -21.4740  -29.1550   22.3980 N   0  0  0  0  0  0  0  0  0  0  0  0
  -23.4750  -28.7850   23.3830 O   0  0  0  0  0  0  0  0  0  0  0  0
  -20.9770  -29.6900   21.7000 H   0  0  0  0  0  0  0  0  0  0  0  0
  -18.1370  -27.8280   22.8320 C   0  0  0  0  0  0  0  0  0  0  0  0
  -20.6780  -28.1880   23.1540 C   0  0  0  0  0  3  0  0  0  0  0  0
  -20.8500  -26.7620   22.5840 C   0  0  0  0  0  2  0  0  0  0  0  0
  -19.7810  -26.3950   21.5480 C   0  0  0  0  0  2  0  0  0  0  0  0
  -18.3820  -26.4860   22.1620 C   0  0  0  0  0  2  0  0  0  0  0  0
  -19.2170  -28.6320   23.2850 C   0  0  0  0  0  0  0  0  0  0  0  0
  -18.9370  -29.8880   23.8690 C   0  0  0  0  0  3  0  0  0  0  0  0
  -17.6110  -30.3360   24.0120 C   0  0  0  0  0  3  0  0  0  0  0  0
  -16.5460  -29.5280   23.5760 C   0  0  0  0  0  3  0  0  0  0  0  0
  -16.8110  -28.2790   22.9880 C   0  0  0  0  0  3  0  0  0  0  0  0
  -25.8800  -32.4760   23.8970 C   0  0  0  0  0  3  0  0  0  0  0  0
  -26.3720  -31.7380   25.2020 C   0  0  1  0  0  0  0  0  0  0  0  0
  -25.2550  -31.5220   26.2490 C   0  0  0  0  0  1  0  0  0  0  0  0
  -26.9710  -30.3560   24.8600 C   0  0  0  0  0  1  0  0  0  0  0  0
  -27.5090  -32.5500   25.8670 C   0  0  0  0  0  1  0  0  0  0  0  0
  -25.5670  -33.8830   24.1800 N   0  0  0  0  0  0  0  0  0  0  0  0
  -25.8800  -34.9090   23.3760 C   0  0  0  0  0  0  0  0  0  0  0  0
  -26.5330  -34.7720   22.3370 O   0  0  0  0  0  0  0  0  0  0  0  0
  -24.9850  -34.0650   24.9840 H   0  0  0  0  0  0  0  0  0  0  0  0
  -24.1160  -36.6650   23.0100 C   0  0  0  0  0  1  0  0  0  0  0  0
  -25.3920  -36.3100   23.7900 C   0  0  0  0  0  3  0  0  0  0  0  0
  -27.5350  -37.2650   24.5150 C   0  0  0  0  0  1  0  0  0  0  0  0
  -26.4050  -37.3710   23.5950 N   0  0  0  0  0  0  0  0  0  0  0  0
  -25.9870  -38.2910   23.7080 H   0  0  0  0  0  0  0  0  0  0  0  0
  1  3  2  0
  2 49  1  0
  2  1  1  0
  4  2  1  0
  5  9  1  0
  7  5  1  0
  7 10  1  0
  8  6  1  0
  9  1  1  0
  9  6  1  0
 10 19  1  0
 10  8  1  0
 11 19  1  0
 12 17  1  0
 13 14  1  0
 13 12  1  0
 15 14  1  0
 15 24  1  0
 15 16  1  0
 17 11  1  0
 17 16  1  0
 18 11  2  0
 19 20  1  0
 21 22  2  0
 22 41  1  0
 23 22  1  0
 23 26  1  0
 24 25  1  0
 24 21  1  0
 25 23  2  0
 26 27  1  0
 27 28  2  0
 29 32  1  0
 29 28  1  0
 30 29  2  0
 31 30  1  0
 31 26  2  0
 32 33  1  0
 33 38  2  0
 33 34  1  0
 34 35  2  0
 35 36  1  0
 36 40  1  0
 37 36  2  0
 38 37  1  0
 39 38  1  0
 41 42  1  0
 42 45  1  0
 42 44  1  0
 43 41  2  0
 46 21  1  0
 46 47  1  0
 48 46  1  0
 50 51  1  0
 50 49  2  0
 52 63  2  0
 53 51  1  0
 53 58  1  0
 54 62  1  0
 54 64  1  0
 55 61  1  0
 55 57  1  0
 56 62  1  0
 57 56  1  0
 58 57  2  0
 59 60  1  0
 59 53  2  0
 60 55  2  0
 61 54  1  0
 62 52  1  0
 64 66  2  0
 65 64  1  0
 67 65  1  0
 68 77  2  0
 68 73  1  0
 69 65  1  0
 69 73  1  0
 70 69  1  0
 71 72  1  0
 71 70  1  0
 72 68  1  0
 73 74  2  0
 74 75  1  0
 76 75  2  0
 77 76  1  0
 78 52  1  0
 78 83  1  0
 78 79  1  0
 79 82  1  1
 79 80  1  0
 81 79  1  0
 83 86  1  0
 84 88  1  0
 84 83  1  0
 85 84  2  0
 88 87  1  0
 90 91  1  0
 90 88  1  0
 90 89  1  0
M  ISO  4  11 100  19 100  50 101  51 101
M  END
>  <TORSDO>  (60) 
F 19

>  <SCORE>  (60) 
-12.683

>  <name>  (60) 
59

>  <ligand_id>  (60) 
59

>  <original_smiles>  (60) 
[H]c1c([H])c([H])c2c(c1[H])C([H])([H])C([H])([H])C([H])([H])C2([H])N([H])C(=O)C1([H])N(C(=O)C([H])(N([H])C(=O)C([H])(N([H])C([H])([H])[H])C([H])([H])[H])C(C([H])([H])[H])(C([H])([H])[H])C([H])([H])[H])C([H])([H])c2c([H])c(OC([H])([H])C([H])([H])N([H])C(=O)C3([H])C([H])([H])C([H])([H])C([H])(N([H])C(=O)N4C([H])([H])C([H])([H])C([H])([H])C([H])(n5nc(-c6c([H])c([H])c(Oc7c([H])c([H])c(F)c([H])c7F)c([H])c6[H])c(C(=O)N([H])[H])c5N([H])[H])C4([H])[H])C([H])([H])C3([H])[H])c([H])c([H])c2C1([H])[H]

>  <smiles>  (60) 
[H]c1c([H])c([H])c2c(c1[H])C([H])([H])C([H])([H])C([H])([H])C2([H])N([H])C(=O)C1([H])N(C(=O)C([H])(N([H])C(=O)C([H])(N([H])C([H])([H])[H])C([H])([H])[H])C(C([H])([H])[H])(C([H])([H])[H])C([H])([H])[H])C([H])([H])c2c([H])c(OC([H])([H])C([H])([H])N([H])C(=O)C3([H])C([H])([H])C([H])([H])C([H])(N([H])C(=O)N4C([H])([H])C([H])([H])C([H])([H])C([H])(n5nc(-c6c([H])c([H])c(Oc7c([H])c([H])c(F)c([H])c7F)c([H])c6[H])c(C(=O)N([H])[H])c5N([H])[H])C4([H])[H])C([H])([H])C3([H])[H])c([H])c([H])c2C1([H])[H]

$$$$
60:0:0
     RDKit          3D

 96105  0  0  1  0  0  0  0  0999 V2000
  -27.5020  -18.9190   19.8050 C   0  0  0  0  0  3  0  0  0  0  0  0
  -28.3470  -17.8000   19.8550 C   0  0  0  0  0  3  0  0  0  0  0  0
  -30.1780  -19.2330   20.5910 C   0  0  0  0  0  3  0  0  0  0  0  0
  -29.3460  -20.3700   20.4950 C   0  0  0  0  0  0  0  0  0  0  0  0
  -27.9980  -20.2010   20.1090 C   0  0  0  0  0  0  0  0  0  0  0  0
  -29.6900  -17.9560   20.2440 C   0  0  0  0  0  0  0  0  0  0  0  0
  -29.9380  -21.7480   20.6750 C   0  0  0  0  0  0  0  0  0  0  0  0
  -27.1030  -21.4060   19.9280 C   0  0  0  0  0  2  0  0  0  0  0  0
  -27.6320  -22.6650   20.6360 C   0  0  0  0  0  2  0  0  0  0  0  0
  -29.0950  -22.8110   20.5830 N   0  0  0  0  0  0  0  0  0  0  0  0
  -31.1580  -21.8700   20.8150 O   0  0  0  0  0  0  0  0  0  0  0  0
  -30.9690  -16.6270   18.6040 C   0  0  0  0  0  1  0  0  0  0  0  0
  -30.6590  -16.8100   20.1130 C   0  0  0  0  0  3  0  0  0  0  0  0
  -30.8350  -14.4300   20.6240 C   0  0  0  0  0  0  0  0  0  0  0  0
  -30.4440  -12.3450   19.4450 C   0  0  0  0  0  2  0  0  0  0  0  0
  -29.5330  -12.6270   18.2370 C   0  0  0  0  0  2  0  0  0  0  0  0
  -28.0530  -12.5150   18.6380 C   0  0  0  0  0  2  0  0  0  0  0  0
  -27.7060  -13.3190   19.9180 C   0  0  0  0  0  3  0  0  0  0  0  0
  -28.7430  -13.0810   21.0410 C   0  0  0  0  0  2  0  0  0  0  0  0
  -30.0850  -13.3160   20.4850 N   0  0  0  0  0  0  0  0  0  0  0  0
  -32.0340  -14.4790   20.3430 O   0  0  0  0  0  0  0  0  0  0  0  0
  -30.1470  -15.5680   20.7070 N   0  0  0  0  0  0  0  0  0  0  0  0
  -29.1910  -15.5420   21.0230 H   0  0  0  0  0  0  0  0  0  0  0  0
  -25.2780  -13.9280   20.5170 C   0  0  0  0  0  0  0  0  0  0  0  0
  -24.1950  -13.1550   20.8500 C   0  0  0  0  0  0  0  0  0  0  0  0
  -24.6620  -11.8050   20.8600 C   0  0  0  0  0  0  0  0  0  0  0  0
  -26.3360  -13.0470   20.3530 N   0  0  0  0  0  0  0  0  0  0  0  0
  -25.9640  -11.7670   20.6110 N   0  0  0  0  0  0  0  0  0  0  0  0
  -23.9330  -10.5460   21.0400 C   0  0  0  0  0  0  0  0  0  0  0  0
  -24.3380   -9.5920   22.0000 C   0  0  0  0  0  3  0  0  0  0  0  0
  -23.6110   -8.3930   22.1680 C   0  0  0  0  0  3  0  0  0  0  0  0
  -22.4640   -8.1400   21.3780 C   0  0  0  0  0  0  0  0  0  0  0  0
  -22.0800   -9.0820   20.4050 C   0  0  0  0  0  3  0  0  0  0  0  0
  -22.8090  -10.2730   20.2350 C   0  0  0  0  0  3  0  0  0  0  0  0
  -21.7120   -6.9910   21.4560 O   0  0  0  0  0  0  0  0  0  0  0  0
  -21.6270   -6.2630   22.6160 C   0  0  0  0  0  0  0  0  0  0  0  0
  -21.1470   -6.8290   23.8160 C   0  0  0  0  0  3  0  0  0  0  0  0
  -21.0050   -6.0270   24.9680 C   0  0  0  0  0  3  0  0  0  0  0  0
  -21.3360   -4.6590   24.9170 C   0  0  0  0  0  0  0  0  0  0  0  0
  -21.8120   -4.0910   23.7230 C   0  0  0  0  0  3  0  0  0  0  0  0
  -21.9520   -4.8910   22.5740 C   0  0  0  0  0  0  0  0  0  0  0  0
  -22.3870   -4.3320   21.4190 F   0  0  0  0  0  0  0  0  0  0  0  0
  -21.1990   -3.8880   26.0220 F   0  0  0  0  0  0  0  0  0  0  0  0
  -22.7900  -13.6270   21.0700 C   0  0  0  0  0  0  0  0  0  0  0  0
  -22.0390  -12.9320   21.9200 N   0  0  0  0  0  0  0  0  0  0  0  0
  -22.3630  -14.6440   20.5230 O   0  0  0  0  0  0  0  0  0  0  0  0
  -22.4050  -12.1070   22.3720 H   0  0  0  0  0  0  0  0  0  0  0  0
  -21.0900  -13.2170   22.1120 H   0  0  0  0  0  0  0  0  0  0  0  0
  -25.4530  -15.2960   20.3340 N   0  0  0  0  0  0  0  0  0  0  0  0
  -24.7060  -15.9750   20.4310 H   0  0  0  0  0  0  0  0  0  0  0  0
  -26.3380  -15.7180   20.0860 H   0  0  0  0  0  0  0  0  0  0  0  0
  -29.6180  -24.1600   20.2980 C   0  0  0  0  0  2  0  0  0  0  0  0
  -30.0400  -24.4520   22.8700 C   0  0  0  0  0  1  0  0  0  0  0  0
  -29.7530  -25.1380   21.5060 C   0  0  0  0  0  3  0  0  0  0  0  0
  -28.5530  -26.1160   21.5640 C   0  0  0  0  0  2  0  0  0  0  0  0
  -28.2760  -26.6930   20.2810 O   0  0  0  0  0  0  0  0  0  0  0  0
  -24.5210  -31.9400   23.2400 C   0  0  0  0  0  0  0  0  0  0  0  0
  -27.1350  -27.4520   20.2530 C   0  0  0  0  0  0  0  0  0  0  0  0
  -23.3040  -30.5260   21.6140 C   0  0  0  0  0  3  0  0  0  0  0  0
  -24.7490  -28.9690   20.2000 C   0  0  0  0  0  0  0  0  0  0  0  0
  -25.8250  -30.8750   21.4060 C   0  0  0  0  0  2  0  0  0  0  0  0
  -25.9060  -29.4950   20.7910 C   0  0  0  0  0  0  0  0  0  0  0  0
  -27.1040  -28.7440   20.8190 C   0  0  0  0  0  3  0  0  0  0  0  0
  -25.9700  -26.9340   19.6450 C   0  0  0  0  0  3  0  0  0  0  0  0
  -24.7780  -27.6860   19.6230 C   0  0  0  0  0  3  0  0  0  0  0  0
  -23.5060  -29.8350   20.2380 C   0  0  0  0  0  2  0  0  0  0  0  0
  -24.5690  -31.1300   22.1450 N   0  0  0  0  0  0  0  0  0  0  0  0
  -23.4440  -32.2220   23.7850 O   0  0  0  0  0  0  0  0  0  0  0  0
  -22.6470  -29.5230   22.5860 C   0  0  0  0  0  0  0  0  0  0  0  0
  -21.3220  -29.3500   22.4650 N   0  0  0  0  0  0  0  0  0  0  0  0
  -23.3260  -28.8980   23.4060 O   0  0  0  0  0  0  0  0  0  0  0  0
  -20.8330  -29.8990   21.7730 H   0  0  0  0  0  0  0  0  0  0  0  0
  -17.9370  -28.2070   22.9680 C   0  0  0  0  0  0  0  0  0  0  0  0
  -20.4950  -28.4330   23.2540 C   0  0  0  0  0  3  0  0  0  0  0  0
  -20.5740  -26.9920   22.7000 C   0  0  0  0  0  2  0  0  0  0  0  0
  -19.4910  -26.6990   21.6610 C   0  0  0  0  0  2  0  0  0  0  0  0
  -18.0970  -26.8590   22.2850 C   0  0  0  0  0  2  0  0  0  0  0  0
  -19.0650  -28.9540   23.3990 C   0  0  0  0  0  0  0  0  0  0  0  0
  -18.8640  -30.2220   23.9820 C   0  0  0  0  0  3  0  0  0  0  0  0
  -17.5660  -30.7430   24.1420 C   0  0  0  0  0  3  0  0  0  0  0  0
  -16.4530  -29.9900   23.7350 C   0  0  0  0  0  3  0  0  0  0  0  0
  -16.6390  -28.7220   23.1540 C   0  0  0  0  0  3  0  0  0  0  0  0
  -25.8160  -32.5650   23.8530 C   0  0  0  0  0  3  0  0  0  0  0  0
  -26.3340  -31.7960   25.1300 C   0  0  1  0  0  0  0  0  0  0  0  0
  -25.2440  -31.5610   26.2010 C   0  0  0  0  0  1  0  0  0  0  0  0
  -26.9160  -30.4180   24.7350 C   0  0  0  0  0  1  0  0  0  0  0  0
  -27.4880  -32.5880   25.7850 C   0  0  0  0  0  1  0  0  0  0  0  0
  -25.5170  -33.9670   24.1710 N   0  0  0  0  0  0  0  0  0  0  0  0
  -25.8720  -35.0110   23.4080 C   0  0  0  0  0  0  0  0  0  0  0  0
  -26.5580  -34.8940   22.3890 O   0  0  0  0  0  0  0  0  0  0  0  0
  -24.9120  -34.1330   24.9630 H   0  0  0  0  0  0  0  0  0  0  0  0
  -24.1830  -36.8300   23.0040 C   0  0  0  0  0  1  0  0  0  0  0  0
  -25.3940  -36.4080   23.8500 C   0  0  0  0  0  3  0  0  0  0  0  0
  -27.5150  -37.2650   24.7450 C   0  0  0  0  0  1  0  0  0  0  0  0
  -26.4470  -37.4440   23.7660 N   0  0  0  0  0  0  0  0  0  0  0  0
  -26.0510  -38.3700   23.8960 H   0  0  0  0  0  0  0  0  0  0  0  0
  1  2  2  0
  1  5  1  0
  2  6  1  0
  4  3  1  0
  4  7  1  0
  5  4  2  0
  6  3  2  0
  7 11  2  0
  8  5  1  0
  8  9  1  0
 10  9  1  0
 10  7  1  0
 13 12  1  0
 13  6  1  0
 13 22  1  0
 14 22  1  0
 15 20  1  0
 16 17  1  0
 16 15  1  0
 18 17  1  0
 18 27  1  0
 18 19  1  0
 20 14  1  0
 20 19  1  0
 21 14  2  0
 22 23  1  0
 24 25  2  0
 25 26  1  0
 25 44  1  0
 26 29  1  0
 27 24  1  0
 27 28  1  0
 28 26  2  0
 29 30  1  0
 30 31  2  0
 32 35  1  0
 32 31  1  0
 33 32  2  0
 34 33  1  0
 34 29  2  0
 35 36  1  0
 36 37  1  0
 37 38  2  0
 39 38  1  0
 39 43  1  0
 40 39  2  0
 41 36  2  0
 41 40  1  0
 42 41  1  0
 44 45  1  0
 45 48  1  0
 45 47  1  0
 46 44  2  0
 49 50  1  0
 49 24  1  0
 51 49  1  0
 52 10  1  0
 52 54  1  0
 54 55  1  0
 54 53  1  0
 56 55  1  0
 57 68  2  0
 58 56  1  0
 58 63  1  0
 59 67  1  0
 59 69  1  0
 60 66  1  0
 60 62  1  0
 61 67  1  0
 62 63  2  0
 62 61  1  0
 64 58  2  0
 65 64  1  0
 65 60  2  0
 66 59  1  0
 67 57  1  0
 69 71  2  0
 70 69  1  0
 72 70  1  0
 73 82  2  0
 73 78  1  0
 74 70  1  0
 74 78  1  0
 75 74  1  0
 76 77  1  0
 76 75  1  0
 77 73  1  0
 78 79  2  0
 79 80  1  0
 81 80  2  0
 82 81  1  0
 83 57  1  0
 83 88  1  0
 83 84  1  0
 84 87  1  1
 84 85  1  0
 86 84  1  0
 88 91  1  0
 89 93  1  0
 89 88  1  0
 90 89  2  0
 93 92  1  0
 95 93  1  0
 95 96  1  0
 95 94  1  0
M  ISO  4  14 100  22 100  55 101  56 101
M  END
>  <TORSDO>  (61) 
F 20

>  <SCORE>  (61) 
-13.814

>  <name>  (61) 
60

>  <ligand_id>  (61) 
60

>  <original_smiles>  (61) 
[H]c1c([H])c([H])c2c(c1[H])C([H])([H])C([H])([H])C([H])([H])C2([H])N([H])C(=O)C1([H])N(C(=O)C([H])(N([H])C(=O)C([H])(N([H])C([H])([H])[H])C([H])([H])[H])C(C([H])([H])[H])(C([H])([H])[H])C([H])([H])[H])C([H])([H])c2c([H])c(OC([H])([H])C([H])(C([H])([H])[H])C([H])([H])N3C(=O)c4c([H])c(C([H])(N([H])C(=O)N5C([H])([H])C([H])([H])C([H])([H])C([H])(n6nc(-c7c([H])c([H])c(Oc8c([H])c([H])c(F)c([H])c8F)c([H])c7[H])c(C(=O)N([H])[H])c6N([H])[H])C5([H])[H])C([H])([H])[H])c([H])c([H])c4C([H])([H])C3([H])[H])c([H])c([H])c2C1([H])[H]

>  <smiles>  (61) 
[H]c1c([H])c([H])c2c(c1[H])C([H])([H])C([H])([H])C([H])([H])C2([H])N([H])C(=O)C1([H])N(C(=O)C([H])(N([H])C(=O)C([H])(N([H])C([H])([H])[H])C([H])([H])[H])C(C([H])([H])[H])(C([H])([H])[H])C([H])([H])[H])C([H])([H])c2c([H])c(OC([H])([H])C([H])(C([H])([H])[H])C([H])([H])N3C(=O)c4c([H])c(C([H])(N([H])C(=O)N5C([H])([H])C([H])([H])C([H])([H])C([H])(n6nc(-c7c([H])c([H])c(Oc8c([H])c([H])c(F)c([H])c8F)c([H])c7[H])c(C(=O)N([H])[H])c6N([H])[H])C5([H])[H])C([H])([H])[H])c([H])c([H])c4C([H])([H])C3([H])[H])c([H])c([H])c2C1([H])[H]

$$$$
61:0:0
     RDKit          3D

 96104  0  0  1  0  0  0  0  0999 V2000
  -29.2750  -20.2780   20.5200 C   0  0  0  0  0  2  0  0  0  0  0  0
  -29.4120  -17.8550   21.0470 C   0  0  0  0  0  0  0  0  0  0  0  0
  -29.5280  -18.8450   20.1160 N   0  0  0  0  0  0  0  0  0  0  0  0
  -29.0530  -18.1880   22.1790 O   0  0  0  0  0  0  0  0  0  0  0  0
  -29.8280  -18.6280   19.1730 H   0  0  0  0  0  0  0  0  0  0  0  0
  -31.0510  -14.7340   19.1390 C   0  0  0  0  0  0  0  0  0  0  0  0
  -30.5070  -12.5790   18.0260 C   0  0  0  0  0  2  0  0  0  0  0  0
  -29.3290  -12.7340   17.0420 C   0  0  0  0  0  2  0  0  0  0  0  0
  -27.9860  -12.5390   17.7720 C   0  0  0  0  0  2  0  0  0  0  0  0
  -27.9030  -13.3550   19.0870 C   0  0  0  0  0  3  0  0  0  0  0  0
  -29.1730  -13.1600   19.9370 C   0  0  0  0  0  2  0  0  0  0  0  0
  -30.3270  -13.5640   19.1190 N   0  0  0  0  0  0  0  0  0  0  0  0
  -32.0190  -14.8750   18.3880 O   0  0  0  0  0  0  0  0  0  0  0  0
  -31.7640  -16.0650   21.1020 C   0  0  0  0  0  2  0  0  0  0  0  0
  -29.6930  -16.2940   20.8710 C   0  0  0  0  0  3  0  0  0  0  0  0
  -30.5830  -15.7200   22.0180 C   0  0  0  0  0  3  0  0  0  0  0  0
  -30.8080  -15.7520   20.0270 N   0  0  0  0  0  0  0  0  0  0  0  0
  -25.7870  -13.9020   20.4370 C   0  0  0  0  0  0  0  0  0  0  0  0
  -24.7990  -13.1100   20.9520 C   0  0  0  0  0  0  0  0  0  0  0  0
  -25.1600  -11.7660   20.6300 C   0  0  0  0  0  0  0  0  0  0  0  0
  -26.6930  -13.0400   19.8410 N   0  0  0  0  0  0  0  0  0  0  0  0
  -26.3360  -11.7410   20.0130 N   0  0  0  0  0  0  0  0  0  0  0  0
  -24.4290  -10.5070   20.8200 C   0  0  0  0  0  0  0  0  0  0  0  0
  -24.9020   -9.5030   21.6950 C   0  0  0  0  0  3  0  0  0  0  0  0
  -24.1700   -8.3090   21.8750 C   0  0  0  0  0  3  0  0  0  0  0  0
  -22.9520   -8.1110   21.1810 C   0  0  0  0  0  0  0  0  0  0  0  0
  -22.4990   -9.1040   20.2950 C   0  0  0  0  0  3  0  0  0  0  0  0
  -23.2310  -10.2900   20.1120 C   0  0  0  0  0  3  0  0  0  0  0  0
  -22.1870   -6.9740   21.2740 O   0  0  0  0  0  0  0  0  0  0  0  0
  -22.0230   -6.3130   22.4650 C   0  0  0  0  0  0  0  0  0  0  0  0
  -21.4950   -6.9560   23.6060 C   0  0  0  0  0  3  0  0  0  0  0  0
  -21.2780   -6.2210   24.7900 C   0  0  0  0  0  3  0  0  0  0  0  0
  -21.5790   -4.8460   24.8320 C   0  0  0  0  0  0  0  0  0  0  0  0
  -22.0990   -4.2040   23.6940 C   0  0  0  0  0  3  0  0  0  0  0  0
  -22.3170   -4.9360   22.5140 C   0  0  0  0  0  0  0  0  0  0  0  0
  -22.7980   -4.3070   21.4130 F   0  0  0  0  0  0  0  0  0  0  0  0
  -21.3640   -4.1390   25.9660 F   0  0  0  0  0  0  0  0  0  0  0  0
  -23.5350  -13.5770   21.6150 C   0  0  0  0  0  0  0  0  0  0  0  0
  -23.0240  -12.8080   22.5710 N   0  0  0  0  0  0  0  0  0  0  0  0
  -23.0190  -14.6540   21.3200 O   0  0  0  0  0  0  0  0  0  0  0  0
  -23.4570  -11.9330   22.8240 H   0  0  0  0  0  0  0  0  0  0  0  0
  -22.1860  -13.0990   23.0540 H   0  0  0  0  0  0  0  0  0  0  0  0
  -25.9820  -15.2810   20.4040 N   0  0  0  0  0  0  0  0  0  0  0  0
  -25.2810  -15.9230   20.7570 H   0  0  0  0  0  0  0  0  0  0  0  0
  -26.6910  -15.7400   19.8480 H   0  0  0  0  0  0  0  0  0  0  0  0
  -30.5610  -16.3210   23.3740 N   0  0  0  0  0  4  0  0  0  0  0  0
  -30.3340  -17.3030   23.3090 H   0  0  0  0  0  0  0  0  0  0  0  0
  -31.4350  -16.2050   23.8580 H   0  0  0  0  0  0  0  0  0  0  0  0
  -29.8420  -15.8950   23.9320 H   0  0  0  0  0  0  0  0  0  0  0  0
  -29.3750  -21.4870   19.5080 C   0  0  0  0  0  2  0  0  0  0  0  0
  -29.0140  -22.8000   20.1690 N   0  0  0  0  0  4  0  0  0  0  0  0
  -29.6290  -22.9100   20.9600 H   0  0  0  0  0  0  0  0  0  0  0  0
  -28.0830  -22.6920   20.5410 H   0  0  0  0  0  0  0  0  0  0  0  0
  -29.0450  -24.0950   19.3820 C   0  0  0  0  0  2  0  0  0  0  0  0
  -28.5690  -25.3550   20.2150 C   0  0  0  0  0  2  0  0  0  0  0  0
  -28.6720  -26.6910   19.6160 O   0  0  0  0  0  0  0  0  0  0  0  0
  -24.7890  -31.7230   22.9760 C   0  0  0  0  0  0  0  0  0  0  0  0
  -27.5210  -27.4710   19.6580 C   0  0  0  0  0  0  0  0  0  0  0  0
  -23.6140  -30.3800   21.2670 C   0  0  0  0  0  3  0  0  0  0  0  0
  -25.1000  -28.9600   19.7500 C   0  0  0  0  0  0  0  0  0  0  0  0
  -26.1350  -30.8040   21.0810 C   0  0  0  0  0  2  0  0  0  0  0  0
  -26.2530  -29.4690   20.3620 C   0  0  0  0  0  0  0  0  0  0  0  0
  -27.4710  -28.7370   20.3050 C   0  0  0  0  0  3  0  0  0  0  0  0
  -26.3500  -26.9970   19.0300 C   0  0  0  0  0  3  0  0  0  0  0  0
  -25.1470  -27.7280   19.0770 C   0  0  0  0  0  3  0  0  0  0  0  0
  -23.8360  -29.7860   19.8510 C   0  0  0  0  0  2  0  0  0  0  0  0
  -24.8640  -30.9840   21.8330 N   0  0  0  0  0  0  0  0  0  0  0  0
  -23.7020  -31.9350   23.5350 O   0  0  0  0  0  0  0  0  0  0  0  0
  -22.9930  -29.2920   22.1740 C   0  0  0  0  0  0  0  0  0  0  0  0
  -21.6720  -29.0810   22.0430 N   0  0  0  0  0  0  0  0  0  0  0  0
  -23.6980  -28.6420   22.9510 O   0  0  0  0  0  0  0  0  0  0  0  0
  -21.1620  -29.6600   21.3910 H   0  0  0  0  0  0  0  0  0  0  0  0
  -18.3330  -27.7740   22.5030 C   0  0  0  0  0  0  0  0  0  0  0  0
  -20.8870  -28.0790   22.7650 C   0  0  0  0  0  3  0  0  0  0  0  0
  -21.0170  -26.6870   22.1050 C   0  0  0  0  0  2  0  0  0  0  0  0
  -19.9120  -26.3980   21.0840 C   0  0  0  0  0  2  0  0  0  0  0  0
  -18.5340  -26.4710   21.7490 C   0  0  0  0  0  2  0  0  0  0  0  0
  -19.4370  -28.5370   22.9670 C   0  0  0  0  0  0  0  0  0  0  0  0
  -19.1930  -29.7580   23.6330 C   0  0  0  0  0  3  0  0  0  0  0  0
  -17.8790  -30.2160   23.8400 C   0  0  0  0  0  3  0  0  0  0  0  0
  -16.7900  -29.4490   23.3930 C   0  0  0  0  0  3  0  0  0  0  0  0
  -17.0170  -28.2300   22.7300 C   0  0  0  0  0  3  0  0  0  0  0  0
  -26.0580  -32.3590   23.6250 C   0  0  0  0  0  3  0  0  0  0  0  0
  -25.6760  -33.6770   24.1480 N   0  0  0  0  0  0  0  0  0  0  0  0
  -25.9040  -34.8390   23.5220 C   0  0  0  0  0  0  0  0  0  0  0  0
  -26.5290  -34.9160   22.4610 O   0  0  0  0  0  0  0  0  0  0  0  0
  -25.1100  -33.6860   24.9840 H   0  0  0  0  0  0  0  0  0  0  0  0
  -24.0410  -36.5290   23.4880 C   0  0  0  0  0  1  0  0  0  0  0  0
  -25.3520  -36.1200   24.1770 C   0  0  0  0  0  3  0  0  0  0  0  0
  -27.4740  -37.0470   24.9960 C   0  0  0  0  0  1  0  0  0  0  0  0
  -26.3040  -37.2530   24.1470 N   0  0  0  0  0  0  0  0  0  0  0  0
  -25.8470  -38.1130   24.4380 H   0  0  0  0  0  0  0  0  0  0  0  0
  -26.6840  -31.4670   24.7660 C   0  0  1  0  0  0  0  0  0  0  0  0
  -25.6520  -30.9690   25.8050 C   0  0  0  0  0  1  0  0  0  0  0  0
  -27.3850  -30.2250   24.1670 C   0  0  0  0  0  1  0  0  0  0  0  0
  -27.7720  -32.2680   25.5190 C   0  0  0  0  0  1  0  0  0  0  0  0
  2  4  2  0
  3  1  1  0
  3  2  1  0
  5  3  1  0
  6 17  1  0
  7 12  1  0
  8  9  1  0
  8  7  1  0
 10  9  1  0
 10 21  1  0
 10 11  1  0
 12  6  1  0
 12 11  1  0
 13  6  2  0
 14 16  1  0
 15  2  1  0
 15 16  1  0
 16 46  1  0
 17 15  1  0
 17 14  1  0
 18 19  2  0
 19 38  1  0
 20 23  1  0
 20 19  1  0
 21 22  1  0
 21 18  1  0
 22 20  2  0
 23 24  1  0
 24 25  2  0
 26 29  1  0
 26 25  1  0
 27 26  2  0
 28 27  1  0
 28 23  2  0
 29 30  1  0
 30 35  2  0
 30 31  1  0
 31 32  2  0
 32 33  1  0
 33 37  1  0
 34 33  2  0
 35 34  1  0
 36 35  1  0
 38 39  1  0
 39 41  1  0
 39 42  1  0
 40 38  2  0
 43 18  1  0
 43 44  1  0
 45 43  1  0
 46 48  1  0
 46 49  1  0
 47 46  1  0
 50 51  1  0
 50  1  1  0
 51 53  1  0
 51 52  1  0
 54 51  1  0
 54 55  1  0
 56 58  1  0
 56 55  1  0
 57 68  2  0
 58 63  1  0
 59 67  1  0
 59 69  1  0
 60 66  1  0
 60 62  1  0
 61 67  1  0
 62 61  1  0
 63 62  2  0
 64 65  1  0
 64 58  2  0
 65 60  2  0
 66 59  1  0
 67 57  1  0
 69 71  2  0
 70 69  1  0
 72 70  1  0
 73 82  2  0
 73 78  1  0
 74 70  1  0
 74 78  1  0
 75 74  1  0
 76 77  1  0
 76 75  1  0
 77 73  1  0
 78 79  2  0
 79 80  1  0
 81 80  2  0
 82 81  1  0
 83 57  1  0
 83 84  1  0
 83 93  1  0
 84 87  1  0
 85 84  1  0
 85 89  1  0
 86 85  2  0
 89 88  1  0
 91 89  1  0
 91 92  1  0
 91 90  1  0
 93 96  1  1
 93 94  1  0
 95 93  1  0
M  ISO  4   6 100  17 100  55 101  56 101
M  END
>  <TORSDO>  (62) 
F 22

>  <SCORE>  (62) 
-7.705

>  <name>  (62) 
61

>  <ligand_id>  (62) 
61

>  <original_smiles>  (62) 
[H]c1c([H])c([H])c2c(c1[H])C([H])([H])C([H])([H])C([H])([H])C2([H])N([H])C(=O)C1([H])N(C(=O)C([H])(N([H])C(=O)C([H])(N([H])C([H])([H])[H])C([H])([H])[H])C(C([H])([H])[H])(C([H])([H])[H])C([H])([H])[H])C([H])([H])c2c([H])c(OC([H])([H])C([H])([H])[N+]([H])([H])C([H])([H])C([H])([H])N([H])C(=O)C3([H])N(C(=O)N4C([H])([H])C([H])([H])C([H])([H])C([H])(n5nc(-c6c([H])c([H])c(Oc7c([H])c([H])c(F)c([H])c7F)c([H])c6[H])c(C(=O)N([H])[H])c5N([H])[H])C4([H])[H])C([H])([H])C3([H])[N+]([H])([H])[H])c([H])c([H])c2C1([H])[H]

>  <smiles>  (62) 
[H]c1c([H])c([H])c2c(c1[H])C([H])([H])C([H])([H])C([H])([H])C2([H])N([H])C(=O)C1([H])N(C(=O)C([H])(N([H])C(=O)C([H])(N([H])C([H])([H])[H])C([H])([H])[H])C(C([H])([H])[H])(C([H])([H])[H])C([H])([H])[H])C([H])([H])c2c([H])c(OC([H])([H])C([H])([H])[N+]([H])([H])C([H])([H])C([H])([H])N([H])C(=O)C3([H])N(C(=O)N4C([H])([H])C([H])([H])C([H])([H])C([H])(n5nc(-c6c([H])c([H])c(Oc7c([H])c([H])c(F)c([H])c7F)c([H])c6[H])c(C(=O)N([H])[H])c5N([H])[H])C4([H])[H])C([H])([H])C3([H])[N+]([H])([H])[H])c([H])c([H])c2C1([H])[H]

$$$$
62:0:0
     RDKit          3D

104114  0  0  1  0  0  0  0  0999 V2000
  -30.5040  -23.5410   22.0940 C   0  0  0  0  0  2  0  0  0  0  0  0
  -31.7760  -24.0520   19.9270 C   0  0  0  0  0  2  0  0  0  0  0  0
  -30.7230  -25.9550   21.2500 C   0  0  0  0  0  2  0  0  0  0  0  0
  -32.3080  -25.1960   19.0350 C   0  0  0  0  0  2  0  0  0  0  0  0
  -30.8340  -26.8920   20.0170 C   0  0  0  0  0  2  0  0  0  0  0  0
  -30.6210  -24.4690   20.8720 C   0  0  0  0  0  3  0  0  0  0  0  0
  -31.2780  -26.2230   18.7540 N   0  0  2  0  0  4  0  0  0  0  0  0
  -31.7530  -26.9340   18.2200 H   0  0  0  0  0  0  0  0  0  0  0  0
  -30.2090  -25.7120   17.8470 C   0  0  0  0  0  2  0  0  0  0  0  0
  -29.5440  -26.7760   16.9550 C   0  0  0  0  0  2  0  0  0  0  0  0
  -28.4520  -27.6100   17.6390 C   0  0  0  0  0  2  0  0  0  0  0  0
  -27.6100  -26.7830   18.4550 O   0  0  0  0  0  0  0  0  0  0  0  0
  -25.0930  -31.0700   23.5590 C   0  0  0  0  0  0  0  0  0  0  0  0
  -26.5910  -27.5090   18.9920 C   0  0  0  0  0  0  0  0  0  0  0  0
  -23.5000  -30.4490   21.7720 C   0  0  0  0  0  3  0  0  0  0  0  0
  -24.5050  -29.2110   19.7870 C   0  0  0  0  0  0  0  0  0  0  0  0
  -26.0150  -30.4790   21.3270 C   0  0  0  0  0  2  0  0  0  0  0  0
  -25.7870  -29.3650   20.3380 C   0  0  0  0  0  0  0  0  0  0  0  0
  -26.8350  -28.5090   19.9530 C   0  0  0  0  0  3  0  0  0  0  0  0
  -25.2990  -27.3300   18.4720 C   0  0  0  0  0  3  0  0  0  0  0  0
  -24.2500  -28.1820   18.8610 C   0  0  0  0  0  3  0  0  0  0  0  0
  -23.4520  -30.1960   20.2410 C   0  0  0  0  0  2  0  0  0  0  0  0
  -24.8960  -30.6570   22.2750 N   0  0  0  0  0  0  0  0  0  0  0  0
  -24.1340  -31.3280   24.3000 O   0  0  0  0  0  0  0  0  0  0  0  0
  -22.7600  -29.2910   22.4770 C   0  0  0  0  0  0  0  0  0  0  0  0
  -21.4220  -29.2780   22.3560 N   0  0  0  0  0  0  0  0  0  0  0  0
  -23.3810  -28.4210   23.0920 O   0  0  0  0  0  0  0  0  0  0  0  0
  -20.9840  -30.0300   21.8470 H   0  0  0  0  0  0  0  0  0  0  0  0
  -17.9660  -28.2660   22.5330 C   0  0  0  0  0  0  0  0  0  0  0  0
  -20.5250  -28.2670   22.9090 C   0  0  0  0  0  3  0  0  0  0  0  0
  -20.5500  -26.9750   22.0590 C   0  0  0  0  0  2  0  0  0  0  0  0
  -19.4660  -26.9460   20.9790 C   0  0  0  0  0  2  0  0  0  0  0  0
  -18.0730  -27.0670   21.6060 C   0  0  0  0  0  2  0  0  0  0  0  0
  -19.1180  -28.8380   23.1320 C   0  0  0  0  0  0  0  0  0  0  0  0
  -18.9660  -29.9780   23.9550 C   0  0  0  0  0  3  0  0  0  0  0  0
  -17.6960  -30.5370   24.1850 C   0  0  0  0  0  3  0  0  0  0  0  0
  -16.5560  -29.9560   23.6020 C   0  0  0  0  0  3  0  0  0  0  0  0
  -16.6910  -28.8210   22.7820 C   0  0  0  0  0  3  0  0  0  0  0  0
  -26.5250  -31.2650   24.1460 C   0  0  0  0  0  3  0  0  0  0  0  0
  -26.9430  -30.1240   25.1470 C   0  0  1  0  0  0  0  0  0  0  0  0
  -25.9000  -29.8320   26.2480 C   0  0  0  0  0  1  0  0  0  0  0  0
  -27.2000  -28.7930   24.4000 C   0  0  0  0  0  1  0  0  0  0  0  0
  -28.2760  -30.5050   25.8340 C   0  0  0  0  0  1  0  0  0  0  0  0
  -26.5650  -32.5790   24.8020 N   0  0  0  0  0  0  0  0  0  0  0  0
  -27.0930  -33.6820   24.2510 C   0  0  0  0  0  0  0  0  0  0  0  0
  -27.6780  -33.6720   23.1630 O   0  0  0  0  0  0  0  0  0  0  0  0
  -26.0920  -32.6590   25.6900 H   0  0  0  0  0  0  0  0  0  0  0  0
  -25.7980  -35.8230   24.4210 C   0  0  0  0  0  1  0  0  0  0  0  0
  -26.9470  -35.0010   25.0310 C   0  0  0  0  0  3  0  0  0  0  0  0
  -29.2620  -35.1960   25.8310 C   0  0  0  0  0  1  0  0  0  0  0  0
  -28.1870  -35.8090   25.0550 N   0  0  0  0  0  0  0  0  0  0  0  0
  -28.0100  -36.7320   25.4420 H   0  0  0  0  0  0  0  0  0  0  0  0
  -29.9820  -22.1510   21.6940 C   0  0  0  0  0  2  0  0  0  0  0  0
  -31.7130  -19.2440   23.1470 C   0  0  0  0  0  2  0  0  0  0  0  0
  -30.7520  -16.9440   22.5610 C   0  0  0  0  0  2  0  0  0  0  0  0
  -30.1920  -17.6260   20.3330 C   0  0  0  0  0  2  0  0  0  0  0  0
  -31.4370  -20.7530   23.0500 C   0  0  0  0  0  2  0  0  0  0  0  0
  -30.9000  -20.0740   20.6980 C   0  0  0  0  0  2  0  0  0  0  0  0
  -30.4930  -18.4530   22.6380 C   0  0  0  0  0  3  0  0  0  0  0  0
  -29.9900  -16.4810   21.3300 C   0  0  0  0  0  3  0  0  0  0  0  0
  -30.0330  -18.9030   21.2150 C   0  0  2  0  0  0  0  0  0  0  0  0
  -31.0600  -21.1610   21.6860 N   0  0  0  0  0  0  0  0  0  0  0  0
  -30.9410  -14.4460   19.9970 C   0  0  0  0  0  0  0  0  0  0  0  0
  -30.6490  -12.3800   18.6630 C   0  0  0  0  0  2  0  0  0  0  0  0
  -29.5740  -12.6040   17.5720 C   0  0  0  0  0  2  0  0  0  0  0  0
  -28.1300  -12.4720   18.1130 C   0  0  0  0  0  2  0  0  0  0  0  0
  -27.9200  -13.2500   19.4390 C   0  0  0  0  0  3  0  0  0  0  0  0
  -29.0440  -12.8520   20.4150 C   0  0  0  0  0  2  0  0  0  0  0  0
  -30.3350  -13.2490   19.8020 N   0  0  0  0  0  0  0  0  0  0  0  0
  -31.8900  -14.8690   19.3240 O   0  0  0  0  0  0  0  0  0  0  0  0
  -30.3330  -15.1010   20.9990 N   0  0  0  0  0  0  0  0  0  0  0  0
  -29.6880  -14.4690   21.4520 H   0  0  0  0  0  0  0  0  0  0  0  0
  -25.6170  -13.9160   20.3970 C   0  0  0  0  0  0  0  0  0  0  0  0
  -24.5580  -13.1600   20.8270 C   0  0  0  0  0  0  0  0  0  0  0  0
  -24.9570  -11.7980   20.6730 C   0  0  0  0  0  0  0  0  0  0  0  0
  -26.5980  -13.0110   20.0160 N   0  0  0  0  0  0  0  0  0  0  0  0
  -26.2070  -11.7290   20.2360 N   0  0  0  0  0  0  0  0  0  0  0  0
  -24.2080  -10.5510   20.8610 C   0  0  0  0  0  0  0  0  0  0  0  0
  -24.5570   -9.6220   21.8670 C   0  0  0  0  0  3  0  0  0  0  0  0
  -23.8100   -8.4360   22.0370 C   0  0  0  0  0  3  0  0  0  0  0  0
  -22.7010   -8.1700   21.1970 C   0  0  0  0  0  0  0  0  0  0  0  0
  -22.3760   -9.0860   20.1800 C   0  0  0  0  0  3  0  0  0  0  0  0
  -23.1230  -10.2630   20.0100 C   0  0  0  0  0  3  0  0  0  0  0  0
  -21.9330   -7.0340   21.2720 O   0  0  0  0  0  0  0  0  0  0  0  0
  -21.5700   -6.4900   22.4790 C   0  0  0  0  0  0  0  0  0  0  0  0
  -20.8710   -7.2360   23.4520 C   0  0  0  0  0  3  0  0  0  0  0  0
  -20.4560   -6.6160   24.6490 C   0  0  0  0  0  3  0  0  0  0  0  0
  -20.7290   -5.2530   24.8690 C   0  0  0  0  0  0  0  0  0  0  0  0
  -21.4180   -4.5070   23.8970 C   0  0  0  0  0  3  0  0  0  0  0  0
  -21.8360   -5.1240   22.7040 C   0  0  0  0  0  0  0  0  0  0  0  0
  -22.4830   -4.3960   21.7620 F   0  0  0  0  0  0  0  0  0  0  0  0
  -20.3230   -4.6560   26.0140 F   0  0  0  0  0  0  0  0  0  0  0  0
  -23.2090  -13.6650   21.2600 C   0  0  0  0  0  0  0  0  0  0  0  0
  -22.5710  -12.9850   22.2050 N   0  0  0  0  0  0  0  0  0  0  0  0
  -22.7310  -14.6960   20.7900 O   0  0  0  0  0  0  0  0  0  0  0  0
  -22.9700  -12.1500   22.6120 H   0  0  0  0  0  0  0  0  0  0  0  0
  -21.6700  -13.3040   22.5310 H   0  0  0  0  0  0  0  0  0  0  0  0
  -25.8190  -15.2880   20.2790 N   0  0  0  0  0  0  0  0  0  0  0  0
  -25.0760  -15.9580   20.4470 H   0  0  0  0  0  0  0  0  0  0  0  0
  -26.6310  -15.7020   19.8410 H   0  0  0  0  0  0  0  0  0  0  0  0
  -28.6110  -19.3300   21.2500 N   0  0  0  0  0  4  0  0  0  0  0  0
  -28.2850  -19.6290   20.3460 H   0  0  0  0  0  0  0  0  0  0  0  0
  -28.5040  -20.1040   21.8860 H   0  0  0  0  0  0  0  0  0  0  0  0
  -28.0200  -18.5910   21.5810 H   0  0  0  0  0  0  0  0  0  0  0  0
  2  6  1  0
  4  2  1  0
  5  3  1  0
  6  3  1  0
  6  1  1  0
  7  4  1  0
  7  5  1  0
  7  8  1  6
  9  7  1  0
 10 11  1  0
 10  9  1  0
 11 12  1  0
 12 14  1  0
 13 24  2  0
 14 19  1  0
 15 23  1  0
 15 25  1  0
 16 22  1  0
 16 18  1  0
 17 23  1  0
 18 17  1  0
 19 18  2  0
 20 21  1  0
 20 14  2  0
 21 16  2  0
 22 15  1  0
 23 13  1  0
 25 27  2  0
 26 25  1  0
 28 26  1  0
 29 38  2  0
 29 34  1  0
 30 26  1  0
 30 34  1  0
 31 30  1  0
 32 33  1  0
 32 31  1  0
 33 29  1  0
 34 35  2  0
 35 36  1  0
 37 36  2  0
 38 37  1  0
 39 13  1  0
 39 44  1  0
 39 40  1  0
 40 43  1  1
 40 41  1  0
 42 40  1  0
 44 47  1  0
 45 44  1  0
 45 49  1  0
 46 45  2  0
 49 48  1  0
 49 51  1  0
 51 52  1  0
 51 50  1  0
 53  1  1  0
 56 61  1  0
 56 60  1  0
 57 54  1  0
 58 61  1  0
 58 62  1  0
 59 55  1  0
 59 54  1  0
 60 71  1  0
 60 55  1  0
 61101  1  1
 61 59  1  0
 62 53  1  0
 62 57  1  0
 63 71  1  0
 64 69  1  0
 65 66  1  0
 65 64  1  0
 67 66  1  0
 67 76  1  0
 67 68  1  0
 69 63  1  0
 69 68  1  0
 70 63  2  0
 71 72  1  0
 73 74  2  0
 74 93  1  0
 75 74  1  0
 75 78  1  0
 76 77  1  0
 76 73  1  0
 77 75  2  0
 78 79  1  0
 79 80  2  0
 81 84  1  0
 81 80  1  0
 82 81  2  0
 83 82  1  0
 83 78  2  0
 84 85  1  0
 85 90  2  0
 85 86  1  0
 86 87  2  0
 87 88  1  0
 88 92  1  0
 89 88  2  0
 90 89  1  0
 91 90  1  0
 93 94  1  0
 94 97  1  0
 94 96  1  0
 95 93  2  0
 98 73  1  0
 98 99  1  0
100 98  1  0
101104  1  0
101103  1  0
102101  1  0
M  ISO  4  11 101  12 101  63 100  71 100
M  END
>  <TORSDO>  (63) 
F 23

>  <SCORE>  (63) 
-10.479

>  <name>  (63) 
62

>  <ligand_id>  (63) 
62

>  <original_smiles>  (63) 
[H]c1c([H])c([H])c2c(c1[H])C([H])([H])C([H])([H])C([H])([H])C2([H])N([H])C(=O)C1([H])N(C(=O)C([H])(N([H])C(=O)C([H])(N([H])C([H])([H])[H])C([H])([H])[H])C(C([H])([H])[H])(C([H])([H])[H])C([H])([H])[H])C([H])([H])c2c([H])c(OC([H])([H])C([H])([H])C([H])([H])[N+]3([H])C([H])([H])C([H])([H])C([H])(C([H])([H])C([H])([H])N4C([H])([H])C([H])([H])C5([H])C([H])([H])C([H])(N([H])C(=O)N6C([H])([H])C([H])([H])C([H])([H])C([H])(n7nc(-c8c([H])c([H])c(Oc9c([H])c([H])c(F)c([H])c9F)c([H])c8[H])c(C(=O)N([H])[H])c7N([H])[H])C6([H])[H])C([H])([H])C5([N+]([H])([H])[H])C4([H])[H])C([H])([H])C3([H])[H])c([H])c([H])c2C1([H])[H]

>  <smiles>  (63) 
[H]c1c([H])c([H])c2c(c1[H])C([H])([H])C([H])([H])C([H])([H])C2([H])N([H])C(=O)C1([H])N(C(=O)C([H])(N([H])C(=O)C([H])(N([H])C([H])([H])[H])C([H])([H])[H])C(C([H])([H])[H])(C([H])([H])[H])C([H])([H])[H])C([H])([H])c2c([H])c(OC([H])([H])C([H])([H])C([H])([H])[N+]3([H])C([H])([H])C([H])([H])C([H])(C([H])([H])C([H])([H])N4C([H])([H])C([H])([H])C5([H])C([H])([H])C([H])(N([H])C(=O)N6C([H])([H])C([H])([H])C([H])([H])C([H])(n7nc(-c8c([H])c([H])c(Oc9c([H])c([H])c(F)c([H])c9F)c([H])c8[H])c(C(=O)N([H])[H])c7N([H])[H])C6([H])[H])C([H])([H])C5([N+]([H])([H])[H])C4([H])[H])C([H])([H])C3([H])[H])c([H])c([H])c2C1([H])[H]

$$$$
63:0:0
     RDKit          3D

 92 99  0  0  1  0  0  0  0  0999 V2000
  -28.9260  -18.7310   21.0630 C   0  0  0  0  0  0  0  0  0  0  0  0
  -28.5460  -20.0200   20.2900 N   0  0  0  0  0  0  0  0  0  0  0  0
  -29.2090  -19.0670   22.2180 O   0  0  0  0  0  0  0  0  0  0  0  0
  -28.2790  -19.7850   19.3410 H   0  0  0  0  0  0  0  0  0  0  0  0
  -30.6160  -16.2140   21.1580 C   0  0  0  0  0  2  0  0  0  0  0  0
  -29.2440  -14.4940   22.3340 C   0  0  0  0  0  2  0  0  0  0  0  0
  -29.2160  -16.8700   20.8510 C   0  0  0  0  0  3  0  0  0  0  0  0
  -30.4090  -14.5770   21.3910 C   0  0  2  0  0  0  0  0  0  0  0  0
  -28.7210  -15.1180   21.0470 C   0  0  2  0  0  0  0  0  0  0  0  0
  -29.5380  -13.5520   20.3070 C   0  0  0  0  0  2  0  0  0  0  0  0
  -30.1090  -13.2290   17.4110 C   0  0  0  0  0  1  0  0  0  0  0  0
  -31.9560  -14.4950   18.0610 C   0  0  0  0  0  0  0  0  0  0  0  0
  -31.3700  -12.6830   19.3100 C   0  0  0  0  0  3  0  0  0  0  0  0
  -30.0200  -11.5200   19.0460 C   0  0  0  0  0  3  0  0  0  0  0  0
  -28.4470  -11.9150   18.4120 C   0  0  0  0  0  2  0  0  0  0  0  0
  -27.9200  -13.6000   18.4190 C   0  0  0  0  0  2  0  0  0  0  0  0
  -29.3270  -15.0650   18.4360 C   0  0  0  0  0 15  0  0  0  0  0  0
  -31.0930  -14.4170   18.9220 N   0  0  0  0  0  2  0  0  0  0  0  0
  -33.1390  -14.6450   18.2840 O   0  0  0  0  0  0  0  0  0  0  0  0
  -31.3500  -13.9810   17.0000 N   0  0  0  0  0  0  0  0  0  0  0  0
  -31.8560  -13.7550   16.1570 H   0  0  0  0  0  0  0  0  0  0  0  0
  -25.8890  -14.3050   19.8590 C   0  0  0  0  0  3  0  0  0  0  0  0
  -24.8940  -13.5880   20.4690 C   0  0  0  0  0  0  0  0  0  0  0  0
  -25.2470  -12.2120   20.4150 C   0  0  0  0  0  0  0  0  0  0  0  0
  -26.8290  -13.4140   19.4570 N   0  0  0  0  0  0  0  0  0  0  0  0
  -26.4650  -12.1650   19.9530 N   0  0  0  0  0  2  0  0  0  0  0  0
  -24.4730  -10.9680   20.6560 C   0  0  0  0  0  0  0  0  0  0  0  0
  -24.8830   -9.9600   21.5610 C   0  0  0  0  0  3  0  0  0  0  0  0
  -24.0730   -8.8220   21.7960 C   0  0  0  0  0  3  0  0  0  0  0  0
  -22.8370   -8.6730   21.1210 C   0  0  0  0  0  0  0  0  0  0  0  0
  -22.4550   -9.6510   20.1860 C   0  0  0  0  0  3  0  0  0  0  0  0
  -23.2630  -10.7780   19.9530 C   0  0  0  0  0  3  0  0  0  0  0  0
  -21.9880   -7.6010   21.2750 O   0  0  0  0  0  0  0  0  0  0  0  0
  -21.8700   -6.9290   22.4660 C   0  0  0  0  0  0  0  0  0  0  0  0
  -21.5390   -7.5920   23.6680 C   0  0  0  0  0  3  0  0  0  0  0  0
  -21.3640   -6.8530   24.8560 C   0  0  0  0  0  3  0  0  0  0  0  0
  -21.5110   -5.4520   24.8440 C   0  0  0  0  0  0  0  0  0  0  0  0
  -21.8310   -4.7880   23.6460 C   0  0  0  0  0  3  0  0  0  0  0  0
  -22.0050   -5.5240   22.4600 C   0  0  0  0  0  0  0  0  0  0  0  0
  -22.2910   -4.8760   21.3050 F   0  0  0  0  0  0  0  0  0  0  0  0
  -21.3400   -4.7410   25.9830 F   0  0  0  0  0  0  0  0  0  0  0  0
  -23.5900  -14.1450   20.9060 C   0  0  0  0  0  0  0  0  0  0  0  0
  -22.9550  -13.5130   21.8840 N   0  0  0  0  0  0  0  0  0  0  0  0
  -23.1560  -15.1780   20.4060 O   0  0  0  0  0  0  0  0  0  0  0  0
  -23.3360  -12.6760   22.3000 H   0  0  0  0  0  0  0  0  0  0  0  0
  -22.0750  -13.8720   22.2250 H   0  0  0  0  0  0  0  0  0  0  0  0
  -26.0360  -15.6370   19.5080 N   0  0  0  0  0  0  0  0  0  0  0  0
  -25.3300  -16.3360   19.7080 H   0  0  0  0  0  0  0  0  0  0  0  0
  -26.8380  -15.9980   19.0090 H   0  0  0  0  0  0  0  0  0  0  0  0
  -28.5930  -21.7890   20.5020 C   0  0  0  0  0  3  0  0  0  0  0  0
  -27.8970  -23.4410   19.7620 C   0  0  0  0  0  3  0  0  0  0  0  0
  -28.1640  -25.1810   19.7610 O   0  0  0  0  0  0  0  0  0  0  0  0
  -24.6810  -31.2900   22.7110 C   0  0  0  0  0  0  0  0  0  0  0  0
  -27.2430  -26.4060   19.6070 C   0  0  0  0  0  0  0  0  0  0  0  0
  -23.5050  -29.8960   21.0620 C   0  0  0  0  0  3  0  0  0  0  0  0
  -24.9730  -28.3810   19.5420 C   0  0  0  0  0  0  0  0  0  0  0  0
  -26.0630  -30.1690   20.8700 C   0  0  0  0  0  2  0  0  0  0  0  0
  -26.1580  -28.7600   20.1810 C   0  0  0  0  0  0  0  0  0  0  0  0
  -27.2880  -27.7990   20.1800 C   0  0  0  0  0  3  0  0  0  0  0  0
  -26.0570  -26.2540   18.8540 C   0  0  0  0  0  3  0  0  0  0  0  0
  -24.9640  -27.1660   18.8370 C   0  0  0  0  0  3  0  0  0  0  0  0
  -23.7300  -29.2740   19.6530 C   0  0  0  0  0  2  0  0  0  0  0  0
  -24.7730  -30.4850   21.6000 N   0  0  0  0  0  0  0  0  0  0  0  0
  -23.5940  -31.5150   23.2700 O   0  0  0  0  0  0  0  0  0  0  0  0
  -22.8810  -28.8400   22.0140 C   0  0  0  0  0  0  0  0  0  0  0  0
  -21.5580  -28.6050   21.9160 N   0  0  0  0  0  0  0  0  0  0  0  0
  -23.5960  -28.2350   22.8170 O   0  0  0  0  0  0  0  0  0  0  0  0
  -21.0280  -29.1480   21.2470 H   0  0  0  0  0  0  0  0  0  0  0  0
  -18.2670  -27.1720   22.4630 C   0  0  0  0  0  0  0  0  0  0  0  0
  -20.8100  -27.6000   22.6790 C   0  0  0  0  0  3  0  0  0  0  0  0
  -20.9910  -26.1900   22.0690 C   0  0  0  0  0  2  0  0  0  0  0  0
  -19.8910  -25.8220   21.0680 C   0  0  0  0  0  2  0  0  0  0  0  0
  -18.5170  -25.8560   21.7430 C   0  0  0  0  0  2  0  0  0  0  0  0
  -19.3430  -27.9970   22.8890 C   0  0  0  0  0  0  0  0  0  0  0  0
  -19.0520  -29.2210   23.5280 C   0  0  0  0  0  3  0  0  0  0  0  0
  -17.7200  -29.6250   23.7410 C   0  0  0  0  0  3  0  0  0  0  0  0
  -16.6600  -28.7990   23.3270 C   0  0  0  0  0  3  0  0  0  0  0  0
  -16.9350  -27.5740   22.6950 C   0  0  0  0  0  3  0  0  0  0  0  0
  -25.9350  -31.9790   23.3310 C   0  0  0  0  0  3  0  0  0  0  0  0
  -26.6130  -31.1200   24.4700 C   0  0  1  0  0  0  0  0  0  0  0  0
  -25.6250  -30.6370   25.5590 C   0  0  0  0  0  1  0  0  0  0  0  0
  -27.3070  -29.8690   23.8870 C   0  0  0  0  0  1  0  0  0  0  0  0
  -27.7190  -31.9500   25.1620 C   0  0  0  0  0  1  0  0  0  0  0  0
  -25.5180  -33.2870   23.8710 N   0  0  0  0  0  0  0  0  0  0  0  0
  -25.7420  -34.4710   23.2870 C   0  0  0  0  0  0  0  0  0  0  0  0
  -26.3820  -34.5820   22.2380 O   0  0  0  0  0  0  0  0  0  0  0  0
  -24.9380  -33.2660   24.6970 H   0  0  0  0  0  0  0  0  0  0  0  0
  -23.8850  -36.1740   23.2530 C   0  0  0  0  0  1  0  0  0  0  0  0
  -25.1720  -35.7320   23.9700 C   0  0  0  0  0  3  0  0  0  0  0  0
  -27.2570  -36.6340   24.9070 C   0  0  0  0  0  1  0  0  0  0  0  0
  -26.1250  -36.8650   24.0130 N   0  0  0  0  0  0  0  0  0  0  0  0
  -25.6570  -37.7180   24.3070 H   0  0  0  0  0  0  0  0  0  0  0  0
  1  3  2  0
  2 50  1  0
  2  1  1  0
  4  2  1  0
  8  5  1  6
  7  9  1  0
  7  1  1  0
  7  5  1  0
  8 10  1  0
  8  6  1  0
  9 10  1  6
  9  8  1  0
  9  6  1  0
 12 19  2  0
 12 18  1  0
 14 13  2  0
 15 16  1  0
 15 14  1  0
 16 25  1  0
 18 13  1  0
 20 11  1  0
 20 12  1  0
 21 20  1  0
 22 47  1  0
 22 23  1  0
 23 42  1  0
 24 23  2  0
 24 27  1  0
 25 22  1  0
 25 26  1  0
 26 24  1  0
 27 28  1  0
 28 29  2  0
 30 33  1  0
 30 29  1  0
 31 30  2  0
 32 31  1  0
 32 27  2  0
 33 34  1  0
 34 35  1  0
 35 36  2  0
 37 36  1  0
 37 41  1  0
 38 37  2  0
 39 34  2  0
 39 38  1  0
 40 39  1  0
 42 43  1  0
 43 46  1  0
 43 45  1  0
 44 42  2  0
 47 48  1  0
 49 47  1  0
 51 50  2  0
 52 51  1  0
 53 64  2  0
 54 52  1  0
 54 59  1  0
 55 63  1  0
 55 65  1  0
 56 62  1  0
 56 58  1  0
 57 63  1  0
 58 57  1  0
 59 58  2  0
 60 54  2  0
 61 60  1  0
 61 56  2  0
 62 55  1  0
 63 53  1  0
 65 67  2  0
 66 65  1  0
 68 66  1  0
 69 78  2  0
 69 74  1  0
 70 66  1  0
 70 74  1  0
 71 70  1  0
 72 73  1  0
 72 71  1  0
 73 69  1  0
 74 75  2  0
 75 76  1  0
 77 76  2  0
 78 77  1  0
 79 53  1  0
 79 84  1  0
 79 80  1  0
 80 83  1  1
 80 81  1  0
 82 80  1  0
 84 87  1  0
 85 84  1  0
 85 89  1  0
 86 85  2  0
 89 88  1  0
 89 91  1  0
 91 92  1  0
 91 90  1  0
M  ISO  4  12 100  20 100  51 101  52 101
M  END
>  <TORSDO>  (64) 
F 20

>  <SCORE>  (64) 
-7.980

>  <name>  (64) 
63

>  <ligand_id>  (64) 
63

>  <original_smiles>  (64) 
[H]c1c([H])c([H])c2c(c1[H])C([H])([H])C([H])([H])C([H])([H])C2([H])N([H])C(=O)C1([H])N(C(=O)C([H])(N([H])C(=O)C([H])(N([H])C([H])([H])[H])C([H])([H])[H])C(C([H])([H])[H])(C([H])([H])[H])C([H])([H])[H])C([H])([H])c2c([H])c(OC([H])([H])C([H])([H])N([H])C(=O)C3([H])C([H])([H])C4([H])C([H])([H])C3([H])C4([H])C([H])([H])N([H])C(=O)N3C([H])([H])C([H])([H])C([H])([H])C([H])(n4nc(-c5c([H])c([H])c(Oc6c([H])c([H])c(F)c([H])c6F)c([H])c5[H])c(C(=O)N([H])[H])c4N([H])[H])C3([H])[H])c([H])c([H])c2C1([H])[H]

>  <smiles>  (64) 
[H]c1c([H])c([H])c2c(c1[H])C([H])([H])C([H])([H])C([H])([H])C2([H])N([H])C(=O)C1([H])N(C(=O)C([H])(N([H])C(=O)C([H])(N([H])C([H])([H])[H])C([H])([H])[H])C(C([H])([H])[H])(C([H])([H])[H])C([H])([H])[H])C([H])([H])c2c([H])c(OC([H])([H])C([H])([H])N([H])C(=O)C3([H])C([H])([H])C4([H])C([H])([H])C3([H])C4([H])C([H])([H])N([H])C(=O)N3C([H])([H])C([H])([H])C([H])([H])C([H])(n4nc(-c5c([H])c([H])c(Oc6c([H])c([H])c(F)c([H])c6F)c([H])c5[H])c(C(=O)N([H])[H])c4N([H])[H])C3([H])[H])c([H])c([H])c2C1([H])[H]

$$$$
64:0:0
     RDKit          3D

 91 99  0  0  1  0  0  0  0  0999 V2000
  -28.5450  -22.4240   20.5610 N   0  0  0  0  0  4  0  0  0  0  0  0
  -28.4610  -22.3980   21.5650 H   0  0  0  0  0  0  0  0  0  0  0  0
  -27.6130  -22.2850   20.1960 H   0  0  0  0  0  0  0  0  0  0  0  0
  -28.4190  -19.8340   18.8190 C   0  0  0  0  0  2  0  0  0  0  0  0
  -29.4150  -20.9840   18.6370 C   0  0  0  0  0  2  0  0  0  0  0  0
  -28.8080  -19.7350   20.3070 C   0  0  0  0  0  3  0  0  0  0  0  0
  -29.4090  -21.2230   20.1570 C   0  0  0  0  0  3  0  0  0  0  0  0
  -30.7020  -18.7840   21.8100 C   0  0  0  0  0  1  0  0  0  0  0  0
  -29.5350  -18.4130   20.8860 C   0  0  0  0  0  3  0  0  0  0  0  0
  -29.9380  -17.1790   19.9360 C   0  0  0  0  0  2  0  0  0  0  0  0
  -30.6010  -14.6740   20.1270 C   0  0  0  0  0  0  0  0  0  0  0  0
  -30.3170  -12.4430   19.0710 C   0  0  0  0  0  2  0  0  0  0  0  0
  -29.3330  -12.5890   17.8890 C   0  0  0  0  0  2  0  0  0  0  0  0
  -27.8760  -12.4400   18.3700 C   0  0  0  0  0  2  0  0  0  0  0  0
  -27.5740  -13.2860   19.6360 C   0  0  0  0  0  3  0  0  0  0  0  0
  -28.6760  -13.1300   20.7120 C   0  0  0  0  0  2  0  0  0  0  0  0
  -29.9620  -13.4610   20.0830 N   0  0  0  0  0  0  0  0  0  0  0  0
  -31.7320  -14.8090   19.6510 O   0  0  0  0  0  0  0  0  0  0  0  0
  -29.8530  -15.7700   20.4890 N   0  0  0  0  0  0  0  0  0  0  0  0
  -28.9760  -15.5340   20.9250 H   0  0  0  0  0  0  0  0  0  0  0  0
  -25.2160  -13.8880   20.4520 C   0  0  0  0  0  0  0  0  0  0  0  0
  -24.1590  -13.1140   20.8490 C   0  0  0  0  0  0  0  0  0  0  0  0
  -24.6150  -11.7610   20.7950 C   0  0  0  0  0  0  0  0  0  0  0  0
  -26.2440  -13.0040   20.1700 N   0  0  0  0  0  0  0  0  0  0  0  0
  -25.8920  -11.7180   20.4360 N   0  0  0  0  0  0  0  0  0  0  0  0
  -23.8900  -10.5010   21.0040 C   0  0  0  0  0  0  0  0  0  0  0  0
  -24.3450   -9.5320   21.9250 C   0  0  0  0  0  3  0  0  0  0  0  0
  -23.6170   -8.3400   22.1270 C   0  0  0  0  0  3  0  0  0  0  0  0
  -22.4200   -8.1070   21.4060 C   0  0  0  0  0  0  0  0  0  0  0  0
  -21.9830   -9.0670   20.4760 C   0  0  0  0  0  3  0  0  0  0  0  0
  -22.7120  -10.2510   20.2720 C   0  0  0  0  0  3  0  0  0  0  0  0
  -21.6610   -6.9670   21.5180 O   0  0  0  0  0  0  0  0  0  0  0  0
  -21.6430   -6.2240   22.6730 C   0  0  0  0  0  0  0  0  0  0  0  0
  -21.2530   -6.7810   23.9090 C   0  0  0  0  0  3  0  0  0  0  0  0
  -21.1770   -5.9660   25.0550 C   0  0  0  0  0  3  0  0  0  0  0  0
  -21.4860   -4.5950   24.9690 C   0  0  0  0  0  0  0  0  0  0  0  0
  -21.8700   -4.0380   23.7360 C   0  0  0  0  0  3  0  0  0  0  0  0
  -21.9470   -4.8500   22.5910 C   0  0  0  0  0  0  0  0  0  0  0  0
  -22.2980   -4.3040   21.4020 F   0  0  0  0  0  0  0  0  0  0  0  0
  -21.4080   -3.8100   26.0690 F   0  0  0  0  0  0  0  0  0  0  0  0
  -22.7760  -13.5960   21.1770 C   0  0  0  0  0  0  0  0  0  0  0  0
  -22.0810  -12.8930   22.0640 N   0  0  0  0  0  0  0  0  0  0  0  0
  -22.3240  -14.6290   20.6830 O   0  0  0  0  0  0  0  0  0  0  0  0
  -22.4630  -12.0520   22.4720 H   0  0  0  0  0  0  0  0  0  0  0  0
  -21.1540  -13.1950   22.3300 H   0  0  0  0  0  0  0  0  0  0  0  0
  -25.3820  -15.2580   20.2850 N   0  0  0  0  0  0  0  0  0  0  0  0
  -26.2110  -15.7030   19.9080 H   0  0  0  0  0  0  0  0  0  0  0  0
  -24.6330  -15.9180   20.4590 H   0  0  0  0  0  0  0  0  0  0  0  0
  -28.9860  -23.8400   20.1720 C   0  0  0  0  0  3  0  0  0  0  0  0
  -28.0610  -25.0410   20.6810 C   0  0  0  0  0  3  0  0  0  0  0  0
  -28.3210  -26.4500   20.2620 O   0  0  0  0  0  0  0  0  0  0  0  0
  -24.5920  -31.8800   23.2370 C   0  0  0  0  0  0  0  0  0  0  0  0
  -27.2170  -27.3150   20.2140 C   0  0  0  0  0  0  0  0  0  0  0  0
  -23.3950  -30.4670   21.6050 C   0  0  0  0  0  3  0  0  0  0  0  0
  -24.8520  -28.9240   20.1820 C   0  0  0  0  0  0  0  0  0  0  0  0
  -25.9330  -30.7990   21.4190 C   0  0  0  0  0  2  0  0  0  0  0  0
  -26.0190  -29.4180   20.7810 C   0  0  0  0  0  0  0  0  0  0  0  0
  -27.2080  -28.6280   20.7810 C   0  0  0  0  0  3  0  0  0  0  0  0
  -26.0360  -26.8850   19.5720 C   0  0  0  0  0  3  0  0  0  0  0  0
  -24.8650  -27.6640   19.5630 C   0  0  0  0  0  3  0  0  0  0  0  0
  -23.6100  -29.7890   20.2260 C   0  0  0  0  0  2  0  0  0  0  0  0
  -24.6590  -31.0690   22.1410 N   0  0  0  0  0  0  0  0  0  0  0  0
  -23.5070  -32.1530   23.7700 O   0  0  0  0  0  0  0  0  0  0  0  0
  -22.7390  -29.4480   22.5710 C   0  0  0  0  0  0  0  0  0  0  0  0
  -21.4120  -29.2710   22.4540 N   0  0  0  0  0  0  0  0  0  0  0  0
  -23.4250  -28.8260   23.3860 O   0  0  0  0  0  0  0  0  0  0  0  0
  -20.9210  -29.8230   21.7650 H   0  0  0  0  0  0  0  0  0  0  0  0
  -18.0400  -28.0710   22.9680 C   0  0  0  0  0  0  0  0  0  0  0  0
  -20.5980  -28.3350   23.2310 C   0  0  0  0  0  3  0  0  0  0  0  0
  -20.7020  -26.9020   22.6610 C   0  0  0  0  0  2  0  0  0  0  0  0
  -19.5970  -26.5720   21.6520 C   0  0  0  0  0  2  0  0  0  0  0  0
  -18.2170  -26.7170   22.2990 C   0  0  0  0  0  2  0  0  0  0  0  0
  -19.1570  -28.8370   23.3910 C   0  0  0  0  0  0  0  0  0  0  0  0
  -18.9370  -30.1030   23.9770 C   0  0  0  0  0  3  0  0  0  0  0  0
  -17.6320  -30.6010   24.1490 C   0  0  0  0  0  3  0  0  0  0  0  0
  -16.5290  -29.8320   23.7410 C   0  0  0  0  0  3  0  0  0  0  0  0
  -16.7330  -28.5700   23.1550 C   0  0  0  0  0  3  0  0  0  0  0  0
  -25.8710  -32.5240   23.8540 C   0  0  0  0  0  3  0  0  0  0  0  0
  -25.5530  -33.9230   24.1730 N   0  0  0  0  0  0  0  0  0  0  0  0
  -25.8860  -34.9740   23.4110 C   0  0  0  0  0  0  0  0  0  0  0  0
  -26.5600  -34.8660   22.3830 O   0  0  0  0  0  0  0  0  0  0  0  0
  -24.9510  -34.0780   24.9690 H   0  0  0  0  0  0  0  0  0  0  0  0
  -24.1570  -36.7630   23.0390 C   0  0  0  0  0  1  0  0  0  0  0  0
  -25.3940  -36.3640   23.8590 C   0  0  0  0  0  3  0  0  0  0  0  0
  -27.5210  -37.2590   24.6970 C   0  0  0  0  0  1  0  0  0  0  0  0
  -26.4250  -37.4180   23.7450 N   0  0  0  0  0  0  0  0  0  0  0  0
  -26.0180  -38.3390   23.8810 H   0  0  0  0  0  0  0  0  0  0  0  0
  -26.3900  -31.7630   25.1350 C   0  0  1  0  0  0  0  0  0  0  0  0
  -25.2980  -31.5280   26.2060 C   0  0  0  0  0  1  0  0  0  0  0  0
  -26.9790  -30.3850   24.7560 C   0  0  0  0  0  1  0  0  0  0  0  0
  -27.5350  -32.5680   25.7910 C   0  0  0  0  0  1  0  0  0  0  0  0
  1  2  1  0
  3  1  1  0
  4  6  1  0
  5  4  1  0
  5  7  1  0
  6  9  1  0
  7  6  1  0
  7  1  1  0
  9  8  1  0
 10 19  1  0
 10  9  1  0
 11 19  1  0
 12 17  1  0
 13 14  1  0
 13 12  1  0
 15 14  1  0
 15 24  1  0
 15 16  1  0
 17 11  1  0
 17 16  1  0
 18 11  2  0
 19 20  1  0
 21 22  2  0
 22 41  1  0
 23 22  1  0
 23 26  1  0
 24 25  1  0
 24 21  1  0
 25 23  2  0
 26 27  1  0
 27 28  2  0
 29 32  1  0
 29 28  1  0
 30 29  2  0
 31 30  1  0
 31 26  2  0
 32 33  1  0
 33 34  1  0
 34 35  2  0
 36 35  1  0
 36 40  1  0
 37 36  2  0
 38 33  2  0
 38 37  1  0
 39 38  1  0
 41 42  1  0
 42 45  1  0
 42 44  1  0
 43 41  2  0
 46 21  1  0
 46 48  1  0
 47 46  1  0
 49  1  1  0
 49 50  2  0
 51 50  1  0
 52 63  2  0
 53 51  1  0
 53 58  1  0
 54 62  1  0
 54 64  1  0
 55 61  1  0
 55 57  1  0
 56 62  1  0
 57 56  1  0
 58 57  2  0
 59 53  2  0
 60 59  1  0
 60 55  2  0
 61 54  1  0
 62 52  1  0
 64 66  2  0
 65 64  1  0
 67 65  1  0
 68 77  2  0
 68 73  1  0
 69 65  1  0
 69 73  1  0
 70 69  1  0
 71 72  1  0
 71 70  1  0
 72 68  1  0
 73 74  2  0
 74 75  1  0
 76 75  2  0
 77 76  1  0
 78 52  1  0
 78 79  1  0
 78 88  1  0
 79 82  1  0
 80 84  1  0
 80 79  1  0
 81 80  2  0
 84 83  1  0
 86 84  1  0
 86 87  1  0
 86 85  1  0
 88 91  1  1
 88 89  1  0
 90 88  1  0
M  ISO  4  11 100  19 100  50 101  51 101
M  END
>  <TORSDO>  (65) 
F 21

>  <SCORE>  (65) 
-13.330

>  <name>  (65) 
64

>  <ligand_id>  (65) 
64

>  <original_smiles>  (65) 
[H]c1c([H])c([H])c2c(c1[H])C([H])([H])C([H])([H])C([H])([H])C2([H])N([H])C(=O)C1([H])N(C(=O)C([H])(N([H])C(=O)C([H])(N([H])C([H])([H])[H])C([H])([H])[H])C(C([H])([H])[H])(C([H])([H])[H])C([H])([H])[H])C([H])([H])c2c([H])c(OC([H])([H])C([H])([H])[N+]([H])([H])C3([H])C([H])([H])C([H])([H])C3([H])C([H])(C([H])([H])[H])C([H])([H])N([H])C(=O)N3C([H])([H])C([H])([H])C([H])([H])C([H])(n4nc(-c5c([H])c([H])c(Oc6c([H])c([H])c(F)c([H])c6F)c([H])c5[H])c(C(=O)N([H])[H])c4N([H])[H])C3([H])[H])c([H])c([H])c2C1([H])[H]

>  <smiles>  (65) 
[H]c1c([H])c([H])c2c(c1[H])C([H])([H])C([H])([H])C([H])([H])C2([H])N([H])C(=O)C1([H])N(C(=O)C([H])(N([H])C(=O)C([H])(N([H])C([H])([H])[H])C([H])([H])[H])C(C([H])([H])[H])(C([H])([H])[H])C([H])([H])[H])C([H])([H])c2c([H])c(OC([H])([H])C([H])([H])[N+]([H])([H])C3([H])C([H])([H])C([H])([H])C3([H])C([H])(C([H])([H])[H])C([H])([H])N([H])C(=O)N3C([H])([H])C([H])([H])C([H])([H])C([H])(n4nc(-c5c([H])c([H])c(Oc6c([H])c([H])c(F)c([H])c6F)c([H])c5[H])c(C(=O)N([H])[H])c4N([H])[H])C3([H])[H])c([H])c([H])c2C1([H])[H]

$$$$
65:0:0
     RDKit          3D

 98106  0  0  1  0  0  0  0  0999 V2000
  -28.5500  -22.6090   18.4620 C   0  0  0  0  0  2  0  0  0  0  0  0
  -28.5590  -23.5250   17.2120 C   0  0  0  0  0  2  0  0  0  0  0  0
  -29.6640  -24.6030   17.2000 C   0  0  0  0  0  2  0  0  0  0  0  0
  -29.2790  -25.7910   17.9910 N   0  0  0  0  0  4  0  0  0  0  0  0
  -28.4970  -25.5370   18.5720 H   0  0  0  0  0  0  0  0  0  0  0  0
  -28.9640  -26.5240   17.3750 H   0  0  0  0  0  0  0  0  0  0  0  0
  -30.3160  -26.3050   18.9140 C   0  0  0  0  0  2  0  0  0  0  0  0
  -29.7060  -27.3300   19.8830 C   0  0  0  0  0  2  0  0  0  0  0  0
  -28.5560  -26.7090   20.4510 O   0  0  0  0  0  0  0  0  0  0  0  0
  -24.5810  -31.9490   23.1990 C   0  0  0  0  0  0  0  0  0  0  0  0
  -27.4000  -27.4460   20.4130 C   0  0  0  0  0  0  0  0  0  0  0  0
  -23.4450  -30.4410   21.5990 C   0  0  0  0  0  3  0  0  0  0  0  0
  -24.9680  -28.8660   20.2940 C   0  0  0  0  0  0  0  0  0  0  0  0
  -25.9630  -30.8560   21.4390 C   0  0  0  0  0  2  0  0  0  0  0  0
  -26.0980  -29.4570   20.8740 C   0  0  0  0  0  0  0  0  0  0  0  0
  -27.3200  -28.7570   20.9330 C   0  0  0  0  0  3  0  0  0  0  0  0
  -26.2510  -26.8490   19.8590 C   0  0  0  0  0  3  0  0  0  0  0  0
  -25.0390  -27.5580   19.7820 C   0  0  0  0  0  3  0  0  0  0  0  0
  -23.7050  -29.6960   20.2620 C   0  0  0  0  0  2  0  0  0  0  0  0
  -24.6790  -31.0980   22.1390 N   0  0  0  0  0  0  0  0  0  0  0  0
  -23.4830  -32.2230   23.6990 O   0  0  0  0  0  0  0  0  0  0  0  0
  -22.7920  -29.4530   22.5930 C   0  0  0  0  0  0  0  0  0  0  0  0
  -21.4750  -29.2340   22.4390 N   0  0  0  0  0  0  0  0  0  0  0  0
  -23.4660  -28.8870   23.4580 O   0  0  0  0  0  0  0  0  0  0  0  0
  -20.9910  -29.7450   21.7130 H   0  0  0  0  0  0  0  0  0  0  0  0
  -18.1060  -28.0320   22.9380 C   0  0  0  0  0  0  0  0  0  0  0  0
  -20.6560  -28.3190   23.2350 C   0  0  0  0  0  3  0  0  0  0  0  0
  -20.7780  -26.8670   22.7140 C   0  0  0  0  0  2  0  0  0  0  0  0
  -19.6920  -26.4970   21.6990 C   0  0  0  0  0  2  0  0  0  0  0  0
  -18.3000  -26.6590   22.3180 C   0  0  0  0  0  2  0  0  0  0  0  0
  -19.2130  -28.8170   23.3540 C   0  0  0  0  0  0  0  0  0  0  0  0
  -18.9790  -30.1020   23.8910 C   0  0  0  0  0  3  0  0  0  0  0  0
  -17.6680  -30.6010   24.0180 C   0  0  0  0  0  3  0  0  0  0  0  0
  -16.5750  -29.8120   23.6210 C   0  0  0  0  0  3  0  0  0  0  0  0
  -16.7940  -28.5300   23.0860 C   0  0  0  0  0  3  0  0  0  0  0  0
  -25.8400  -32.6340   23.8160 C   0  0  0  0  0  3  0  0  0  0  0  0
  -26.3920  -31.8880   25.0910 C   0  0  1  0  0  0  0  0  0  0  0  0
  -25.3080  -31.5850   26.1530 C   0  0  0  0  0  1  0  0  0  0  0  0
  -27.0560  -30.5490   24.6960 C   0  0  0  0  0  1  0  0  0  0  0  0
  -27.4920  -32.7450   25.7650 C   0  0  0  0  0  1  0  0  0  0  0  0
  -25.4740  -34.0190   24.1380 N   0  0  0  0  0  0  0  0  0  0  0  0
  -25.7820  -35.0820   23.3820 C   0  0  0  0  0  0  0  0  0  0  0  0
  -26.4760  -35.0020   22.3640 O   0  0  0  0  0  0  0  0  0  0  0  0
  -24.8600  -34.1530   24.9280 H   0  0  0  0  0  0  0  0  0  0  0  0
  -24.0120  -36.8200   22.9670 C   0  0  0  0  0  1  0  0  0  0  0  0
  -25.2330  -36.4510   23.8260 C   0  0  0  0  0  3  0  0  0  0  0  0
  -27.3020  -37.3990   24.7470 C   0  0  0  0  0  1  0  0  0  0  0  0
  -26.2340  -37.5360   23.7600 N   0  0  0  0  0  0  0  0  0  0  0  0
  -25.7930  -38.4420   23.8970 H   0  0  0  0  0  0  0  0  0  0  0  0
  -27.5210  -21.4560   18.3370 C   0  0  0  0  0  2  0  0  0  0  0  0
  -27.9960  -20.1770   18.9210 N   0  0  0  0  0  4  0  0  0  0  0  0
  -29.0070  -20.1740   18.9230 H   0  0  0  0  0  0  0  0  0  0  0  0
  -27.7010  -20.1030   19.8880 H   0  0  0  0  0  0  0  0  0  0  0  0
  -27.5720  -18.9800   18.1560 C   0  0  0  0  0  2  0  0  0  0  0  0
  -27.4170  -16.3150   20.8830 C   0  0  0  0  0  3  0  0  0  0  0  0
  -27.0500  -17.3630   20.0210 C   0  0  0  0  0  3  0  0  0  0  0  0
  -28.6130  -15.6110   20.6710 C   0  0  0  0  0  3  0  0  0  0  0  0
  -29.0390  -16.9290   18.6690 C   0  0  0  0  0  3  0  0  0  0  0  0
  -27.8850  -17.7130   18.9400 C   0  0  0  0  0  0  0  0  0  0  0  0
  -29.4170  -15.8750   19.5490 C   0  0  0  0  0  0  0  0  0  0  0  0
  -31.2310  -14.0510   19.4550 C   0  0  0  0  0  0  0  0  0  0  0  0
  -30.8400  -11.6740   18.9370 C   0  0  0  0  0  2  0  0  0  0  0  0
  -29.8730  -11.5380   17.7490 C   0  0  0  0  0  2  0  0  0  0  0  0
  -28.4130  -11.5250   18.2420 C   0  0  0  0  0  2  0  0  0  0  0  0
  -28.1130  -12.6500   19.2720 C   0  0  0  0  0  3  0  0  0  0  0  0
  -29.2200  -12.7490   20.3470 C   0  0  0  0  0  2  0  0  0  0  0  0
  -30.4920  -12.9190   19.6440 N   0  0  0  0  0  0  0  0  0  0  0  0
  -32.3820  -13.9860   19.0300 O   0  0  0  0  0  0  0  0  0  0  0  0
  -30.7140  -15.3020   19.5130 N   0  0  0  0  0  0  0  0  0  0  0  0
  -31.4260  -15.9970   19.3220 H   0  0  0  0  0  0  0  0  0  0  0  0
  -25.8150  -13.4610   20.0870 C   0  0  0  0  0  0  0  0  0  0  0  0
  -24.7200  -12.8000   20.5660 C   0  0  0  0  0  0  0  0  0  0  0  0
  -25.0660  -11.4150   20.5570 C   0  0  0  0  0  0  0  0  0  0  0  0
  -26.7810  -12.4950   19.8520 N   0  0  0  0  0  0  0  0  0  0  0  0
  -26.3320  -11.2560   20.1840 N   0  0  0  0  0  0  0  0  0  0  0  0
  -24.2380  -10.2330   20.8230 C   0  0  0  0  0  0  0  0  0  0  0  0
  -24.6360   -9.2610   21.7610 C   0  0  0  0  0  3  0  0  0  0  0  0
  -23.8210   -8.1390   22.0160 C   0  0  0  0  0  3  0  0  0  0  0  0
  -22.5930   -7.9810   21.3290 C   0  0  0  0  0  0  0  0  0  0  0  0
  -22.2160   -8.9390   20.3720 C   0  0  0  0  0  3  0  0  0  0  0  0
  -23.0320  -10.0530   20.1160 C   0  0  0  0  0  3  0  0  0  0  0  0
  -21.7480   -6.9120   21.4880 O   0  0  0  0  0  0  0  0  0  0  0  0
  -21.7070   -6.2030   22.6610 C   0  0  0  0  0  0  0  0  0  0  0  0
  -21.3160   -6.7970   23.8840 C   0  0  0  0  0  3  0  0  0  0  0  0
  -21.2230   -6.0090   25.0480 C   0  0  0  0  0  3  0  0  0  0  0  0
  -21.5080   -4.6360   24.9970 C   0  0  0  0  0  0  0  0  0  0  0  0
  -21.8960   -4.0400   23.7800 C   0  0  0  0  0  3  0  0  0  0  0  0
  -21.9900   -4.8240   22.6180 C   0  0  0  0  0  0  0  0  0  0  0  0
  -22.3400   -4.2430   21.4450 F   0  0  0  0  0  0  0  0  0  0  0  0
  -21.4110   -3.8800   26.1150 F   0  0  0  0  0  0  0  0  0  0  0  0
  -23.3970  -13.4140   20.9060 C   0  0  0  0  0  0  0  0  0  0  0  0
  -22.6740  -12.8240   21.8510 N   0  0  0  0  0  0  0  0  0  0  0  0
  -23.0120  -14.4510   20.3650 O   0  0  0  0  0  0  0  0  0  0  0  0
  -22.9970  -11.9900   22.3130 H   0  0  0  0  0  0  0  0  0  0  0  0
  -21.7850  -13.2180   22.1220 H   0  0  0  0  0  0  0  0  0  0  0  0
  -26.0570  -14.7990   19.8060 N   0  0  0  0  0  0  0  0  0  0  0  0
  -25.3410  -15.5060   19.9360 H   0  0  0  0  0  0  0  0  0  0  0  0
  -26.9560  -15.1860   19.5460 H   0  0  0  0  0  0  0  0  0  0  0  0
  2  1  1  0
  3  2  1  0
  3  4  1  0
  4  5  1  0
  4  7  1  0
  6  4  1  0
  7  8  1  0
  8  9  1  0
 10 21  2  0
 11  9  1  0
 11 16  1  0
 12 20  1  0
 12 22  1  0
 13 15  1  0
 14 20  1  0
 15 16  2  0
 15 14  1  0
 17 11  2  0
 18 17  1  0
 18 13  2  0
 19 13  1  0
 19 12  1  0
 20 10  1  0
 22 24  2  0
 23 22  1  0
 25 23  1  0
 26 35  2  0
 26 31  1  0
 27 23  1  0
 27 31  1  0
 28 27  1  0
 29 30  1  0
 29 28  1  0
 30 26  1  0
 31 32  2  0
 32 33  1  0
 34 33  2  0
 35 34  1  0
 36 10  1  0
 36 41  1  0
 36 37  1  0
 37 40  1  1
 37 38  1  0
 39 37  1  0
 41 44  1  0
 42 46  1  0
 42 41  1  0
 43 42  2  0
 46 45  1  0
 48 46  1  0
 48 49  1  0
 48 47  1  0
 50  1  1  0
 50 51  1  0
 51 52  1  0
 51 53  1  0
 54 51  1  0
 54 59  1  0
 56 55  2  0
 57 55  1  0
 58 59  2  0
 58 60  1  0
 59 56  1  0
 60 57  2  0
 61 69  1  0
 61 67  1  0
 62 67  1  0
 63 64  1  0
 63 62  1  0
 65 64  1  0
 65 74  1  0
 65 66  1  0
 67 66  1  0
 68 61  2  0
 69 60  1  0
 70 69  1  0
 71 72  2  0
 72 91  1  0
 73 72  1  0
 73 76  1  0
 74 71  1  0
 74 75  1  0
 75 73  2  0
 76 77  1  0
 77 78  2  0
 79 82  1  0
 79 78  1  0
 80 79  2  0
 81 80  1  0
 81 76  2  0
 82 83  1  0
 83 84  1  0
 84 85  2  0
 86 85  1  0
 86 90  1  0
 87 86  2  0
 88 83  2  0
 88 87  1  0
 89 88  1  0
 91 92  1  0
 92 95  1  0
 92 94  1  0
 93 91  2  0
 96 97  1  0
 96 71  1  0
 98 96  1  0
M  ISO  4   8 101   9 101  61 100  69 100
M  END
>  <TORSDO>  (66) 
F 25

>  <SCORE>  (66) 
-11.254

>  <name>  (66) 
65

>  <ligand_id>  (66) 
65

>  <original_smiles>  (66) 
[H]c1c([H])c([H])c2c(c1[H])C([H])([H])C([H])([H])C([H])([H])C2([H])N([H])C(=O)C1([H])N(C(=O)C([H])(N([H])C(=O)C([H])(N([H])C([H])([H])[H])C([H])([H])[H])C(C([H])([H])[H])(C([H])([H])[H])C([H])([H])[H])C([H])([H])c2c([H])c(OC([H])([H])C([H])([H])[N+]([H])([H])C([H])([H])C([H])([H])C([H])([H])C([H])([H])[N+]([H])([H])C([H])([H])c3c([H])c([H])c([H])c(N([H])C(=O)N4C([H])([H])C([H])([H])C([H])([H])C([H])(n5nc(-c6c([H])c([H])c(Oc7c([H])c([H])c(F)c([H])c7F)c([H])c6[H])c(C(=O)N([H])[H])c5N([H])[H])C4([H])[H])c3[H])c([H])c([H])c2C1([H])[H]

>  <smiles>  (66) 
[H]c1c([H])c([H])c2c(c1[H])C([H])([H])C([H])([H])C([H])([H])C2([H])N([H])C(=O)C1([H])N(C(=O)C([H])(N([H])C(=O)C([H])(N([H])C([H])([H])[H])C([H])([H])[H])C(C([H])([H])[H])(C([H])([H])[H])C([H])([H])[H])C([H])([H])c2c([H])c(OC([H])([H])C([H])([H])[N+]([H])([H])C([H])([H])C([H])([H])C([H])([H])C([H])([H])[N+]([H])([H])C([H])([H])c3c([H])c([H])c([H])c(N([H])C(=O)N4C([H])([H])C([H])([H])C([H])([H])C([H])(n5nc(-c6c([H])c([H])c(Oc7c([H])c([H])c(F)c([H])c7F)c([H])c6[H])c(C(=O)N([H])[H])c5N([H])[H])C4([H])[H])c3[H])c([H])c([H])c2C1([H])[H]

$$$$
66:0:0
     RDKit          3D

 91100  0  0  1  0  0  0  0  0999 V2000
  -28.9980  -20.3220   18.5090 C   0  0  0  0  0  2  0  0  0  0  0  0
  -28.8190  -20.5340   19.8170 C   0  0  0  0  0  3  0  0  0  0  0  0
  -28.4160  -23.1760   20.3830 C   0  0  0  0  0  0  0  0  0  0  0  0
  -31.4630  -20.0370   18.8920 C   0  0  0  0  0  2  0  0  0  0  0  0
  -31.1320  -19.6670   20.3710 C   0  0  0  0  0  2  0  0  0  0  0  0
  -30.2170  -22.2600   18.9320 C   0  0  0  0  0  2  0  0  0  0  0  0
  -30.3590  -20.9090   18.2220 C   0  0  0  0  0  3  0  0  0  0  0  0
  -29.6460  -19.2630   20.5170 C   0  0  0  0  0  3  0  0  0  0  0  0
  -29.1640  -22.0190   19.9300 N   0  0  0  0  0  0  0  0  0  0  0  0
  -27.6230  -23.0260   21.3170 O   0  0  0  0  0  0  0  0  0  0  0  0
  -28.4230  -24.7110   19.6700 C   0  0  0  0  0  2  0  0  0  0  0  0
  -28.2580  -26.1100   20.3790 O   0  0  0  0  0  0  0  0  0  0  0  0
  -24.6150  -31.8530   23.2390 C   0  0  0  0  0  0  0  0  0  0  0  0
  -27.2070  -27.1030   20.2260 C   0  0  0  0  0  0  0  0  0  0  0  0
  -23.4230  -30.4550   21.5940 C   0  0  0  0  0  3  0  0  0  0  0  0
  -24.8800  -28.8710   20.1730 C   0  0  0  0  0  0  0  0  0  0  0  0
  -25.9790  -30.7090   21.4460 C   0  0  0  0  0  2  0  0  0  0  0  0
  -26.0540  -29.3130   20.7950 C   0  0  0  0  0  0  0  0  0  0  0  0
  -27.2100  -28.4410   20.8100 C   0  0  0  0  0  3  0  0  0  0  0  0
  -26.0090  -26.7720   19.5580 C   0  0  0  0  0  3  0  0  0  0  0  0
  -24.8730  -27.6180   19.5390 C   0  0  0  0  0  3  0  0  0  0  0  0
  -23.6510  -29.7720   20.2180 C   0  0  0  0  0  2  0  0  0  0  0  0
  -24.6930  -31.0290   22.1490 N   0  0  0  0  0  0  0  0  0  0  0  0
  -23.5270  -32.1410   23.7610 O   0  0  0  0  0  0  0  0  0  0  0  0
  -22.7370  -29.4540   22.5570 C   0  0  0  0  0  0  0  0  0  0  0  0
  -21.4090  -29.2820   22.4210 N   0  0  0  0  0  0  0  0  0  0  0  0
  -23.4010  -28.8340   23.3910 O   0  0  0  0  0  0  0  0  0  0  0  0
  -20.9290  -29.8340   21.7240 H   0  0  0  0  0  0  0  0  0  0  0  0
  -18.0280  -28.0660   22.8920 C   0  0  0  0  0  0  0  0  0  0  0  0
  -20.5820  -28.3480   23.1900 C   0  0  0  0  0  3  0  0  0  0  0  0
  -20.7000  -26.9100   22.6290 C   0  0  0  0  0  2  0  0  0  0  0  0
  -19.6130  -26.5730   21.6030 C   0  0  0  0  0  2  0  0  0  0  0  0
  -18.2220  -26.7130   22.2280 C   0  0  0  0  0  2  0  0  0  0  0  0
  -19.1370  -28.8400   23.3300 C   0  0  0  0  0  0  0  0  0  0  0  0
  -18.9000  -30.1030   23.9130 C   0  0  0  0  0  3  0  0  0  0  0  0
  -17.5890  -30.5950   24.0600 C   0  0  0  0  0  3  0  0  0  0  0  0
  -16.4960  -29.8190   23.6370 C   0  0  0  0  0  3  0  0  0  0  0  0
  -16.7160  -28.5560   23.0590 C   0  0  0  0  0  3  0  0  0  0  0  0
  -25.8900  -32.4910   23.8730 C   0  0  0  0  0  3  0  0  0  0  0  0
  -25.5790  -33.8940   24.1920 N   0  0  0  0  0  0  0  0  0  0  0  0
  -25.9240  -34.9450   23.4360 C   0  0  0  0  0  0  0  0  0  0  0  0
  -26.6010  -34.8340   22.4100 O   0  0  0  0  0  0  0  0  0  0  0  0
  -24.9780  -34.0520   24.9860 H   0  0  0  0  0  0  0  0  0  0  0  0
  -24.2090  -36.7510   23.0690 C   0  0  0  0  0  1  0  0  0  0  0  0
  -25.4440  -36.3390   23.8870 C   0  0  0  0  0  3  0  0  0  0  0  0
  -27.5770  -37.2170   24.7280 C   0  0  0  0  0  1  0  0  0  0  0  0
  -26.4830  -37.3860   23.7770 N   0  0  0  0  0  0  0  0  0  0  0  0
  -26.0810  -38.3090   23.9160 H   0  0  0  0  0  0  0  0  0  0  0  0
  -26.3830  -31.7320   25.1670 C   0  0  1  0  0  0  0  0  0  0  0  0
  -25.2750  -31.5160   26.2250 C   0  0  0  0  0  1  0  0  0  0  0  0
  -26.9620  -30.3450   24.8040 C   0  0  0  0  0  1  0  0  0  0  0  0
  -27.5320  -32.5250   25.8340 C   0  0  0  0  0  1  0  0  0  0  0  0
  -29.5290  -17.6490   19.9070 C   0  0  0  0  0  2  0  0  0  0  0  0
  -30.4680  -15.0230   20.3300 C   0  0  0  0  0  0  0  0  0  0  0  0
  -30.3770  -12.6430   19.4320 C   0  0  0  0  0  2  0  0  0  0  0  0
  -29.4560  -12.5850   18.1890 C   0  0  0  0  0  2  0  0  0  0  0  0
  -27.9910  -12.3690   18.6090 C   0  0  0  0  0  2  0  0  0  0  0  0
  -27.5750  -13.2920   19.7830 C   0  0  0  0  0  3  0  0  0  0  0  0
  -28.6220  -13.3160   20.9190 C   0  0  0  0  0  2  0  0  0  0  0  0
  -29.8970  -13.7430   20.3280 N   0  0  0  0  0  0  0  0  0  0  0  0
  -31.6380  -15.0990   19.9390 O   0  0  0  0  0  0  0  0  0  0  0  0
  -29.6930  -16.2050   20.5870 N   0  0  0  0  0  0  0  0  0  0  0  0
  -28.8490  -15.9530   21.0820 H   0  0  0  0  0  0  0  0  0  0  0  0
  -25.1900  -13.8660   20.5060 C   0  0  0  0  0  0  0  0  0  0  0  0
  -24.1240  -13.0910   20.8710 C   0  0  0  0  0  0  0  0  0  0  0  0
  -24.5900  -11.7400   20.8440 C   0  0  0  0  0  0  0  0  0  0  0  0
  -26.2350  -12.9890   20.2720 N   0  0  0  0  0  0  0  0  0  0  0  0
  -25.8830  -11.7050   20.5400 N   0  0  0  0  0  0  0  0  0  0  0  0
  -23.8610  -10.4780   21.0310 C   0  0  0  0  0  0  0  0  0  0  0  0
  -24.2850   -9.5120   21.9700 C   0  0  0  0  0  3  0  0  0  0  0  0
  -23.5550   -8.3170   22.1480 C   0  0  0  0  0  3  0  0  0  0  0  0
  -22.3870   -8.0780   21.3850 C   0  0  0  0  0  0  0  0  0  0  0  0
  -21.9820   -9.0330   20.4350 C   0  0  0  0  0  3  0  0  0  0  0  0
  -22.7120  -10.2190   20.2570 C   0  0  0  0  0  3  0  0  0  0  0  0
  -21.6300   -6.9350   21.4710 O   0  0  0  0  0  0  0  0  0  0  0  0
  -21.5680   -6.1970   22.6250 C   0  0  0  0  0  0  0  0  0  0  0  0
  -21.1240   -6.7570   23.8440 C   0  0  0  0  0  3  0  0  0  0  0  0
  -21.0090   -5.9450   24.9900 C   0  0  0  0  0  3  0  0  0  0  0  0
  -21.3270   -4.5760   24.9200 C   0  0  0  0  0  0  0  0  0  0  0  0
  -21.7640   -4.0160   23.7060 C   0  0  0  0  0  3  0  0  0  0  0  0
  -21.8800   -4.8240   22.5620 C   0  0  0  0  0  0  0  0  0  0  0  0
  -22.2810   -4.2760   21.3890 F   0  0  0  0  0  0  0  0  0  0  0  0
  -21.2110   -3.7940   26.0180 F   0  0  0  0  0  0  0  0  0  0  0  0
  -22.7260  -13.5690   21.1330 C   0  0  0  0  0  0  0  0  0  0  0  0
  -21.9910  -12.8740   21.9930 N   0  0  0  0  0  0  0  0  0  0  0  0
  -22.2930  -14.5950   20.6100 O   0  0  0  0  0  0  0  0  0  0  0  0
  -22.3550  -12.0440   22.4390 H   0  0  0  0  0  0  0  0  0  0  0  0
  -21.0530  -13.1750   22.2130 H   0  0  0  0  0  0  0  0  0  0  0  0
  -25.3530  -15.2370   20.3270 N   0  0  0  0  0  0  0  0  0  0  0  0
  -24.5830  -15.8890   20.4290 H   0  0  0  0  0  0  0  0  0  0  0  0
  -26.1950  -15.6720   19.9740 H   0  0  0  0  0  0  0  0  0  0  0  0
  2  1  1  0
  2  9  1  0
  2  8  1  0
  3 10  2  0
  4  5  1  0
  5  8  1  0
  6  9  1  0
  7  1  1  0
  7  4  1  0
  7  6  1  0
  8 53  1  0
  9  3  1  0
 11 12  1  0
 11  3  1  0
 13 24  2  0
 14 12  1  0
 14 19  1  0
 15 23  1  0
 15 25  1  0
 16 22  1  0
 16 18  1  0
 17 23  1  0
 18 19  2  0
 18 17  1  0
 20 14  2  0
 21 20  1  0
 21 16  2  0
 22 15  1  0
 23 13  1  0
 25 27  2  0
 26 25  1  0
 28 26  1  0
 29 38  2  0
 29 34  1  0
 30 26  1  0
 30 34  1  0
 31 30  1  0
 32 33  1  0
 32 31  1  0
 33 29  1  0
 34 35  2  0
 35 36  1  0
 37 36  2  0
 38 37  1  0
 39 13  1  0
 39 40  1  0
 39 49  1  0
 40 43  1  0
 41 45  1  0
 41 40  1  0
 42 41  2  0
 45 44  1  0
 47 45  1  0
 47 48  1  0
 47 46  1  0
 49 52  1  1
 49 50  1  0
 51 49  1  0
 53 62  1  0
 54 62  1  0
 55 60  1  0
 56 57  1  0
 56 55  1  0
 58 57  1  0
 58 67  1  0
 58 59  1  0
 60 54  1  0
 60 59  1  0
 61 54  2  0
 62 63  1  0
 64 65  2  0
 65 84  1  0
 66 65  1  0
 66 69  1  0
 67 64  1  0
 67 68  1  0
 68 66  2  0
 69 70  1  0
 70 71  2  0
 72 75  1  0
 72 71  1  0
 73 72  2  0
 74 73  1  0
 74 69  2  0
 75 76  1  0
 76 77  1  0
 77 78  2  0
 79 78  1  0
 79 83  1  0
 80 79  2  0
 81 76  2  0
 81 80  1  0
 82 81  1  0
 84 85  1  0
 85 88  1  0
 85 87  1  0
 86 84  2  0
 89 90  1  0
 89 64  1  0
 91 89  1  0
M  ISO  4  11 101  12 101  54 100  62 100
M  END
>  <TORSDO>  (67) 
F 18

>  <SCORE>  (67) 
-15.327

>  <name>  (67) 
66

>  <ligand_id>  (67) 
66

>  <original_smiles>  (67) 
[H]C1=C2N(C(=O)C([H])([H])Oc3c([H])c([H])c4c(c3[H])C([H])([H])N(C(=O)C([H])(N([H])C(=O)C([H])(N([H])C([H])([H])[H])C([H])([H])[H])C(C([H])([H])[H])(C([H])([H])[H])C([H])([H])[H])C([H])(C(=O)N([H])C3([H])c5c([H])c([H])c([H])c([H])c5C([H])([H])C([H])([H])C3([H])[H])C4([H])[H])C([H])([H])C1([H])C([H])([H])C([H])([H])C2([H])C([H])([H])N([H])C(=O)N1C([H])([H])C([H])([H])C([H])([H])C([H])(n2nc(-c3c([H])c([H])c(Oc4c([H])c([H])c(F)c([H])c4F)c([H])c3[H])c(C(=O)N([H])[H])c2N([H])[H])C1([H])[H]

>  <smiles>  (67) 
[H]C1=C2N(C(=O)C([H])([H])Oc3c([H])c([H])c4c(c3[H])C([H])([H])N(C(=O)C([H])(N([H])C(=O)C([H])(N([H])C([H])([H])[H])C([H])([H])[H])C(C([H])([H])[H])(C([H])([H])[H])C([H])([H])[H])C([H])(C(=O)N([H])C3([H])c5c([H])c([H])c([H])c([H])c5C([H])([H])C([H])([H])C3([H])[H])C4([H])[H])C([H])([H])C1([H])C([H])([H])C([H])([H])C2([H])C([H])([H])N([H])C(=O)N1C([H])([H])C([H])([H])C([H])([H])C([H])(n2nc(-c3c([H])c([H])c(Oc4c([H])c([H])c(F)c([H])c4F)c([H])c3[H])c(C(=O)N([H])[H])c2N([H])[H])C1([H])[H]

$$$$
67:0:0
     RDKit          3D

 95104  0  0  1  0  0  0  0  0999 V2000
  -28.7140  -21.7090   18.1950 C   0  0  0  0  0  1  0  0  0  0  0  0
  -29.2940  -21.7990   19.6250 C   0  0  0  0  0  3  0  0  0  0  0  0
  -28.9230  -20.5360   20.4550 C   0  0  0  0  0  0  0  0  0  0  0  0
  -29.2680  -17.1910   18.4470 C   0  0  0  0  0  2  0  0  0  0  0  0
  -28.1960  -17.5120   19.5110 C   0  0  0  0  0  2  0  0  0  0  0  0
  -30.6830  -19.0510   19.3610 C   0  0  0  0  0  2  0  0  0  0  0  0
  -30.5830  -17.5170   19.1960 C   0  0  0  0  0  3  0  0  0  0  0  0
  -29.0560  -18.0240   20.6870 C   0  0  0  0  0  3  0  0  0  0  0  0
  -30.2820  -17.0780   20.6340 C   0  0  0  0  0  3  0  0  0  0  0  0
  -29.5520  -19.3470   20.2450 N   0  0  0  0  0  0  0  0  0  0  0  0
  -27.9950  -20.6330   21.2680 O   0  0  0  0  0  0  0  0  0  0  0  0
  -30.7250  -14.5770   20.4580 C   0  0  0  0  0  0  0  0  0  0  0  0
  -30.4650  -12.3840   19.3650 C   0  0  0  0  0  2  0  0  0  0  0  0
  -29.5430  -12.5610   18.1410 C   0  0  0  0  0  2  0  0  0  0  0  0
  -28.0620  -12.4180   18.5490 C   0  0  0  0  0  2  0  0  0  0  0  0
  -27.6960  -13.2730   19.7910 C   0  0  0  0  0  3  0  0  0  0  0  0
  -28.7380  -13.0920   20.9200 C   0  0  0  0  0  2  0  0  0  0  0  0
  -30.0680  -13.3890   20.3640 N   0  0  0  0  0  0  0  0  0  0  0  0
  -31.8830  -14.7310   20.0640 O   0  0  0  0  0  0  0  0  0  0  0  0
  -29.9600  -15.6360   20.8010 N   0  0  0  0  0  0  0  0  0  0  0  0
  -29.0220  -15.4170   21.1010 H   0  0  0  0  0  0  0  0  0  0  0  0
  -25.2840  -13.8760   20.4580 C   0  0  0  0  0  0  0  0  0  0  0  0
  -24.2140  -13.1050   20.8200 C   0  0  0  0  0  0  0  0  0  0  0  0
  -24.6820  -11.7560   20.8090 C   0  0  0  0  0  0  0  0  0  0  0  0
  -26.3370  -12.9980   20.2530 N   0  0  0  0  0  0  0  0  0  0  0  0
  -25.9770  -11.7180   20.5230 N   0  0  0  0  0  0  0  0  0  0  0  0
  -23.9570  -10.4940   21.0010 C   0  0  0  0  0  0  0  0  0  0  0  0
  -24.3720   -9.5400   21.9550 C   0  0  0  0  0  3  0  0  0  0  0  0
  -23.6470   -8.3420   22.1330 C   0  0  0  0  0  3  0  0  0  0  0  0
  -22.4930   -8.0900   21.3560 C   0  0  0  0  0  0  0  0  0  0  0  0
  -22.0960   -9.0320   20.3900 C   0  0  0  0  0  3  0  0  0  0  0  0
  -22.8210  -10.2220   20.2110 C   0  0  0  0  0  3  0  0  0  0  0  0
  -21.7410   -6.9430   21.4410 O   0  0  0  0  0  0  0  0  0  0  0  0
  -21.6650   -6.2180   22.6030 C   0  0  0  0  0  0  0  0  0  0  0  0
  -21.1840   -6.7840   23.8040 C   0  0  0  0  0  3  0  0  0  0  0  0
  -21.0570   -5.9830   24.9570 C   0  0  0  0  0  3  0  0  0  0  0  0
  -21.4010   -4.6200   24.9100 C   0  0  0  0  0  0  0  0  0  0  0  0
  -21.8750   -4.0530   23.7130 C   0  0  0  0  0  3  0  0  0  0  0  0
  -22.0040   -4.8510   22.5620 C   0  0  0  0  0  0  0  0  0  0  0  0
  -22.4410   -4.2960   21.4060 F   0  0  0  0  0  0  0  0  0  0  0  0
  -21.2720   -3.8480   26.0150 F   0  0  0  0  0  0  0  0  0  0  0  0
  -22.8110  -13.5820   21.0630 C   0  0  0  0  0  0  0  0  0  0  0  0
  -22.0710  -12.8910   21.9230 N   0  0  0  0  0  0  0  0  0  0  0  0
  -22.3800  -14.6020   20.5270 O   0  0  0  0  0  0  0  0  0  0  0  0
  -22.4320  -12.0660   22.3790 H   0  0  0  0  0  0  0  0  0  0  0  0
  -21.1290  -13.1930   22.1290 H   0  0  0  0  0  0  0  0  0  0  0  0
  -25.4370  -15.2440   20.2660 N   0  0  0  0  0  0  0  0  0  0  0  0
  -24.6550  -15.8850   20.3410 H   0  0  0  0  0  0  0  0  0  0  0  0
  -26.2700  -15.6790   19.8940 H   0  0  0  0  0  0  0  0  0  0  0  0
  -29.0820  -24.3140   19.9710 C   0  0  0  0  0  0  0  0  0  0  0  0
  -28.7820  -23.0320   20.2660 N   0  0  0  0  0  0  0  0  0  0  0  0
  -29.9200  -24.6100   19.1160 O   0  0  0  0  0  0  0  0  0  0  0  0
  -28.1070  -22.8630   21.0020 H   0  0  0  0  0  0  0  0  0  0  0  0
  -28.3310  -25.4250   20.7470 C   0  0  0  0  0  2  0  0  0  0  0  0
  -28.4310  -26.7210   20.1060 O   0  0  0  0  0  0  0  0  0  0  0  0
  -24.6000  -31.8980   23.1930 C   0  0  0  0  0  0  0  0  0  0  0  0
  -27.2710  -27.4710   20.1060 C   0  0  0  0  0  0  0  0  0  0  0  0
  -23.4040  -30.4960   21.5420 C   0  0  0  0  0  3  0  0  0  0  0  0
  -24.8690  -28.9720   20.1130 C   0  0  0  0  0  0  0  0  0  0  0  0
  -25.9290  -30.8680   21.3500 C   0  0  0  0  0  2  0  0  0  0  0  0
  -26.0250  -29.5000   20.7030 C   0  0  0  0  0  0  0  0  0  0  0  0
  -27.2310  -28.7590   20.6920 C   0  0  0  0  0  3  0  0  0  0  0  0
  -26.1000  -26.9630   19.5010 C   0  0  0  0  0  3  0  0  0  0  0  0
  -24.9030  -27.7040   19.5060 C   0  0  0  0  0  3  0  0  0  0  0  0
  -23.6190  -29.8230   20.1610 C   0  0  0  0  0  2  0  0  0  0  0  0
  -24.6620  -31.1020   22.0870 N   0  0  0  0  0  0  0  0  0  0  0  0
  -23.5160  -32.1600   23.7330 O   0  0  0  0  0  0  0  0  0  0  0  0
  -22.7560  -29.4690   22.4970 C   0  0  0  0  0  0  0  0  0  0  0  0
  -21.4300  -29.2880   22.3730 N   0  0  0  0  0  0  0  0  0  0  0  0
  -23.4420  -28.8360   23.3040 O   0  0  0  0  0  0  0  0  0  0  0  0
  -20.9380  -29.8500   21.6930 H   0  0  0  0  0  0  0  0  0  0  0  0
  -18.0560  -28.0980   22.8820 C   0  0  0  0  0  0  0  0  0  0  0  0
  -20.6170  -28.3430   23.1380 C   0  0  0  0  0  3  0  0  0  0  0  0
  -20.7090  -26.9180   22.5430 C   0  0  0  0  0  2  0  0  0  0  0  0
  -19.5980  -26.6130   21.5330 C   0  0  0  0  0  2  0  0  0  0  0  0
  -18.2220  -26.7560   22.1890 C   0  0  0  0  0  2  0  0  0  0  0  0
  -19.1800  -28.8500   23.3140 C   0  0  0  0  0  0  0  0  0  0  0  0
  -18.9720  -30.1080   23.9210 C   0  0  0  0  0  3  0  0  0  0  0  0
  -17.6700  -30.6120   24.1030 C   0  0  0  0  0  3  0  0  0  0  0  0
  -16.5610  -29.8570   23.6880 C   0  0  0  0  0  3  0  0  0  0  0  0
  -16.7530  -28.6010   23.0840 C   0  0  0  0  0  3  0  0  0  0  0  0
  -25.8810  -32.5310   23.8180 C   0  0  0  0  0  3  0  0  0  0  0  0
  -26.4040  -31.7550   25.0880 C   0  0  1  0  0  0  0  0  0  0  0  0
  -25.3140  -31.5020   26.1550 C   0  0  0  0  0  1  0  0  0  0  0  0
  -26.9950  -30.3840   24.6830 C   0  0  0  0  0  1  0  0  0  0  0  0
  -27.5500  -32.5510   25.7550 C   0  0  0  0  0  1  0  0  0  0  0  0
  -25.5640  -33.9260   24.1560 N   0  0  0  0  0  0  0  0  0  0  0  0
  -25.8900  -34.9840   23.4020 C   0  0  0  0  0  0  0  0  0  0  0  0
  -26.5600  -34.8900   22.3690 O   0  0  0  0  0  0  0  0  0  0  0  0
  -24.9710  -34.0730   24.9590 H   0  0  0  0  0  0  0  0  0  0  0  0
  -24.1570  -36.7710   23.0490 C   0  0  0  0  0  1  0  0  0  0  0  0
  -25.3940  -36.3670   23.8660 C   0  0  0  0  0  3  0  0  0  0  0  0
  -27.5170  -37.2560   24.7180 C   0  0  0  0  0  1  0  0  0  0  0  0
  -26.4240  -37.4240   23.7670 N   0  0  0  0  0  0  0  0  0  0  0  0
  -26.0130  -38.3420   23.9150 H   0  0  0  0  0  0  0  0  0  0  0  0
  2  1  1  0
  2 51  1  0
  2  3  1  0
  3 11  2  0
  4  5  1  0
  6 10  1  0
  7  4  1  0
  7  6  1  0
  7  9  1  0
  8  5  1  0
  9  8  1  0
  9 20  1  0
 10  3  1  0
 10  8  1  0
 12 20  1  0
 13 18  1  0
 14 15  1  0
 14 13  1  0
 16 15  1  0
 16 25  1  0
 16 17  1  0
 18 12  1  0
 18 17  1  0
 19 12  2  0
 20 21  1  0
 22 23  2  0
 23 42  1  0
 24 23  1  0
 24 27  1  0
 25 22  1  0
 25 26  1  0
 26 24  2  0
 27 28  1  0
 28 29  2  0
 30 33  1  0
 30 29  1  0
 31 30  2  0
 32 31  1  0
 32 27  2  0
 33 34  1  0
 34 35  1  0
 35 36  2  0
 37 36  1  0
 37 41  1  0
 38 37  2  0
 39 34  2  0
 39 38  1  0
 40 39  1  0
 42 43  1  0
 43 46  1  0
 43 45  1  0
 44 42  2  0
 47 48  1  0
 47 22  1  0
 49 47  1  0
 50 51  1  0
 50 54  1  0
 51 53  1  0
 52 50  2  0
 55 54  1  0
 56 67  2  0
 57 55  1  0
 57 62  1  0
 58 66  1  0
 58 68  1  0
 59 65  1  0
 59 61  1  0
 60 66  1  0
 61 60  1  0
 62 61  2  0
 63 64  1  0
 63 57  2  0
 64 59  2  0
 65 58  1  0
 66 56  1  0
 68 70  2  0
 69 68  1  0
 71 69  1  0
 72 81  2  0
 72 77  1  0
 73 69  1  0
 73 77  1  0
 74 73  1  0
 75 76  1  0
 75 74  1  0
 76 72  1  0
 77 78  2  0
 78 79  1  0
 80 79  2  0
 81 80  1  0
 82 56  1  0
 82 87  1  0
 82 83  1  0
 83 86  1  1
 83 84  1  0
 85 83  1  0
 87 90  1  0
 88 92  1  0
 88 87  1  0
 89 88  2  0
 92 91  1  0
 94 92  1  0
 94 95  1  0
 94 93  1  0
M  ISO  4  12 100  20 100  54 101  55 101
M  END
>  <TORSDO>  (68) 
F 19

>  <SCORE>  (68) 
-14.267

>  <name>  (68) 
67

>  <ligand_id>  (68) 
67

>  <original_smiles>  (68) 
[H]c1c([H])c([H])c2c(c1[H])C([H])([H])C([H])([H])C([H])([H])C2([H])N([H])C(=O)C1([H])N(C(=O)C([H])(N([H])C(=O)C([H])(N([H])C([H])([H])[H])C([H])([H])[H])C(C([H])([H])[H])(C([H])([H])[H])C([H])([H])[H])C([H])([H])c2c([H])c(OC([H])([H])C(=O)N([H])C([H])(C(=O)N3C([H])([H])C4([H])C([H])([H])C([H])([H])C3([H])C4([H])N([H])C(=O)N3C([H])([H])C([H])([H])C([H])([H])C([H])(n4nc(-c5c([H])c([H])c(Oc6c([H])c([H])c(F)c([H])c6F)c([H])c5[H])c(C(=O)N([H])[H])c4N([H])[H])C3([H])[H])C([H])([H])[H])c([H])c([H])c2C1([H])[H]

>  <smiles>  (68) 
[H]c1c([H])c([H])c2c(c1[H])C([H])([H])C([H])([H])C([H])([H])C2([H])N([H])C(=O)C1([H])N(C(=O)C([H])(N([H])C(=O)C([H])(N([H])C([H])([H])[H])C([H])([H])[H])C(C([H])([H])[H])(C([H])([H])[H])C([H])([H])[H])C([H])([H])c2c([H])c(OC([H])([H])C(=O)N([H])C([H])(C(=O)N3C([H])([H])C4([H])C([H])([H])C([H])([H])C3([H])C4([H])N([H])C(=O)N3C([H])([H])C([H])([H])C([H])([H])C([H])(n4nc(-c5c([H])c([H])c(Oc6c([H])c([H])c(F)c([H])c6F)c([H])c5[H])c(C(=O)N([H])[H])c4N([H])[H])C3([H])[H])C([H])([H])[H])c([H])c([H])c2C1([H])[H]

$$$$
68:0:0
     RDKit          3D

 96 96  0  0  1  0  0  0  0  0999 V2000
  -28.1800  -13.0930   18.0660 C   0  0  0  0  0  0  0  0  0  0  0  0
  -29.0920  -14.0430   18.6270 N   0  0  0  0  0  2  0  0  0  0  0  0
  -28.5130  -12.5660   17.0060 O   0  0  0  0  0  0  0  0  0  0  0  0
  -30.0140  -13.7080   18.3890 H   0  0  0  0  0  0  0  0  0  0  0  0
  -25.4650  -13.1740   18.3940 C   0  0  0  0  0  2  0  0  0  0  0  0
  -26.8100  -12.5460   18.6830 C   0  0  0  0  0  3  0  0  0  0  0  0
  -26.3250  -12.5760   20.2380 C   0  0  0  0  0  2  0  0  0  0  0  0
  -23.9170  -13.3520   20.3070 C   0  0  0  0  0  1  0  0  0  0  0  0
  -24.9600  -12.5270   19.6430 N   0  0  1  0  0  4  0  0  0  0  0  0
  -24.6560  -11.5830   19.4520 H   0  0  0  0  0  0  0  0  0  0  0  0
  -28.3070  -10.4070   22.3960 C   0  0  0  0  0  2  0  0  0  0  0  0
  -30.1570  -10.5140   22.5000 C   0  0  0  0  0  2  0  0  0  0  0  0
  -32.1100  -11.5180   20.3670 C   0  0  0  0  0  0  0  0  0  0  0  0
  -31.9510  -13.7530   18.9200 C   0  0  0  0  0  1  0  0  0  0  0  0
  -31.5680  -15.5800   19.6430 C   0  0  0  0  0 15  0  0  0  0  0  0
  -30.0500  -15.4530   21.4910 C   0  0  0  0  0 15  0  0  0  0  0  0
  -29.8410  -13.2980   21.6890 C   0  0  0  0  0  2  0  0  0  0  0  0
  -30.0330  -12.0850   20.3260 C   0  0  0  0  0  2  0  0  0  0  0  0
  -31.3580  -12.3440   19.6600 N   0  0  0  0  0  0  0  0  0  0  0  0
  -33.2690  -11.6000   19.9130 O   0  0  0  0  0  0  0  0  0  0  0  0
  -31.5510  -10.7430   21.5260 N   0  0  0  0  0  0  0  0  0  0  0  0
  -32.3100  -10.1970   21.9110 H   0  0  0  0  0  0  0  0  0  0  0  0
  -27.4760  -13.8870   22.0270 C   0  0  0  0  0  3  0  0  0  0  0  0
  -26.1580  -13.1880   22.2330 C   0  0  0  0  0  0  0  0  0  0  0  0
  -26.2800  -11.5900   22.2090 C   0  0  0  0  0  0  0  0  0  0  0  0
  -28.6140  -12.8230   21.8270 N   0  0  0  0  0  0  0  0  0  0  0  0
  -27.8130  -11.1940   21.9760 N   0  0  0  0  0  0  0  0  0  0  0  0
  -25.0970  -10.6520   22.0760 C   0  0  0  0  0  0  0  0  0  0  0  0
  -24.9630   -9.4950   22.8700 C   0  0  0  0  0  3  0  0  0  0  0  0
  -23.8080   -8.6760   22.8010 C   0  0  0  0  0  3  0  0  0  0  0  0
  -22.7490   -8.9780   21.9100 C   0  0  0  0  0  0  0  0  0  0  0  0
  -22.8730  -10.1070   21.0900 C   0  0  0  0  0  3  0  0  0  0  0  0
  -24.0060  -10.9360   21.2000 C   0  0  0  0  0  3  0  0  0  0  0  0
  -21.6100   -8.2190   21.7650 O   0  0  0  0  0  0  0  0  0  0  0  0
  -21.0570   -7.5460   22.8280 C   0  0  0  0  0  0  0  0  0  0  0  0
  -20.4930   -8.2260   23.9280 C   0  0  0  0  0  3  0  0  0  0  0  0
  -19.8920   -7.4990   24.9750 C   0  0  0  0  0  3  0  0  0  0  0  0
  -19.8440   -6.0920   24.9200 C   0  0  0  0  0  0  0  0  0  0  0  0
  -20.3960   -5.4130   23.8200 C   0  0  0  0  0  3  0  0  0  0  0  0
  -20.9990   -6.1380   22.7760 C   0  0  0  0  0  0  0  0  0  0  0  0
  -21.5110   -5.4780   21.7090 F   0  0  0  0  0  0  0  0  0  0  0  0
  -19.2620   -5.3930   25.9210 F   0  0  0  0  0  0  0  0  0  0  0  0
  -24.9140  -14.0000   22.3110 C   0  0  0  0  0  0  0  0  0  0  0  0
  -23.8330  -13.4510   22.8390 N   0  0  0  0  0  0  0  0  0  0  0  0
  -24.9350  -15.1690   21.9300 O   0  0  0  0  0  0  0  0  0  0  0  0
  -23.8190  -12.5080   23.2000 H   0  0  0  0  0  0  0  0  0  0  0  0
  -22.9870  -14.0000   22.9110 H   0  0  0  0  0  0  0  0  0  0  0  0
  -27.8750  -15.1990   21.9790 N   0  0  0  0  0  0  0  0  0  0  0  0
  -27.2030  -15.9530   22.0790 H   0  0  0  0  0  0  0  0  0  0  0  0
  -28.8310  -15.5290   21.9510 H   0  0  0  0  0  0  0  0  0  0  0  0
  -29.1980  -17.9390   17.7840 C   0  0  0  0  0  1  0  0  0  0  0  0
  -29.5880  -16.9700   19.0790 C   0  0  0  0  0  1  0  0  0  0  0  0
  -29.1020  -19.6050   19.6820 C   0  0  0  0  0  2  0  0  0  0  0  0
  -29.3500  -19.6180   20.8900 O   0  0  0  0  0  0  0  0  0  0  0  0
  -28.5290  -21.9900   19.3100 C   0  0  0  0  0 15  0  0  0  0  0  0
  -28.3460  -24.3030   19.7720 O   0  0  0  0  0 15  0  0  0  0  0  0
  -24.6980  -31.7770   22.9930 C   0  0  0  0  0  0  0  0  0  0  0  0
  -27.4970  -25.9940   19.8350 C   0  0  0  0  0  3  0  0  0  0  0  0
  -23.6770  -30.3320   21.3090 C   0  0  0  0  0  3  0  0  0  0  0  0
  -25.2390  -28.6020   19.9030 C   0  0  0  0  0  0  0  0  0  0  0  0
  -26.2860  -30.2790   21.3690 C   0  0  0  0  0  2  0  0  0  0  0  0
  -26.4230  -28.7690   20.6230 C   0  0  0  0  0  0  0  0  0  0  0  0
  -27.4780  -27.5310   20.5440 C   0  0  0  0  0  3  0  0  0  0  0  0
  -26.2730  -26.3340   19.0920 C   0  0  0  0  0  3  0  0  0  0  0  0
  -25.2660  -27.4200   19.1240 C   0  0  0  0  0  3  0  0  0  0  0  0
  -24.0280  -29.6230   19.9490 C   0  0  0  0  0  2  0  0  0  0  0  0
  -24.9270  -30.8590   21.9450 N   0  0  0  0  0  0  0  0  0  0  0  0
  -23.5520  -32.0380   23.4210 O   0  0  0  0  0  0  0  0  0  0  0  0
  -22.9050  -29.3710   22.2590 C   0  0  0  0  0  0  0  0  0  0  0  0
  -21.5650  -29.2430   22.1450 N   0  0  0  0  0  0  0  0  0  0  0  0
  -23.5410  -28.7270   23.0960 O   0  0  0  0  0  0  0  0  0  0  0  0
  -21.0820  -29.8110   21.4630 H   0  0  0  0  0  0  0  0  0  0  0  0
  -18.1840  -27.9820   22.7170 C   0  0  0  0  0  0  0  0  0  0  0  0
  -20.7540  -28.2530   22.8770 C   0  0  0  0  0  3  0  0  0  0  0  0
  -20.8280  -26.8700   22.1880 C   0  0  0  0  0  2  0  0  0  0  0  0
  -19.6870  -26.6310   21.1940 C   0  0  0  0  0  2  0  0  0  0  0  0
  -18.3340  -26.7050   21.9070 C   0  0  0  0  0  2  0  0  0  0  0  0
  -19.3170  -28.7190   23.1560 C   0  0  0  0  0  0  0  0  0  0  0  0
  -19.1130  -29.9080   23.8890 C   0  0  0  0  0  3  0  0  0  0  0  0
  -17.8120  -30.3650   24.1760 C   0  0  0  0  0  3  0  0  0  0  0  0
  -16.6960  -29.6290   23.7440 C   0  0  0  0  0  3  0  0  0  0  0  0
  -16.8830  -28.4370   23.0210 C   0  0  0  0  0  3  0  0  0  0  0  0
  -25.8340  -32.5610   23.7340 C   0  0  0  0  0  3  0  0  0  0  0  0
  -25.3930  -33.9610   24.0030 N   0  0  0  0  0  0  0  0  0  0  0  0
  -25.7960  -35.0650   23.3540 C   0  0  0  0  0  0  0  0  0  0  0  0
  -26.6100  -35.0180   22.4310 O   0  0  0  0  0  0  0  0  0  0  0  0
  -24.6750  -34.0650   24.7050 H   0  0  0  0  0  0  0  0  0  0  0  0
  -24.1050  -36.8720   22.8210 C   0  0  0  0  0  1  0  0  0  0  0  0
  -25.2180  -36.4370   23.7880 C   0  0  0  0  0  3  0  0  0  0  0  0
  -27.1800  -37.3480   24.9650 C   0  0  0  0  0  1  0  0  0  0  0  0
  -26.2300  -37.5170   23.8700 N   0  0  0  0  0  0  0  0  0  0  0  0
  -25.7790  -38.4220   23.9790 H   0  0  0  0  0  0  0  0  0  0  0  0
  -26.2330  -31.9000   25.1130 C   0  0  1  0  0  0  0  0  0  0  0  0
  -25.0390  -31.6560   26.0680 C   0  0  0  0  0  1  0  0  0  0  0  0
  -26.9280  -30.5430   24.8950 C   0  0  0  0  0  1  0  0  0  0  0  0
  -27.2540  -32.7960   25.8560 C   0  0  0  0  0  1  0  0  0  0  0  0
  1  2  1  0
  1  6  1  0
  3  1  2  0
  4  2  1  0
  5  6  1  0
  5  9  1  0
  6  7  1  0
  9  7  1  0
  9  8  1  0
  9 10  1  6
 11 12  1  0
 13 21  1  0
 14 19  1  0
 18 17  1  0
 19 18  1  0
 19 13  1  0
 20 13  2  0
 21 22  1  0
 21 12  1  0
 23 48  1  0
 23 24  1  0
 24 43  1  0
 25 24  2  0
 26 17  1  0
 26 27  1  0
 26 23  1  0
 27 25  1  0
 27 11  1  0
 28 25  1  0
 28 29  1  0
 30 29  2  0
 31 30  1  0
 32 33  1  0
 32 31  2  0
 33 28  2  0
 34 31  1  0
 34 35  1  0
 35 36  1  0
 36 37  2  0
 38 37  1  0
 38 42  1  0
 39 38  2  0
 40 35  2  0
 40 39  1  0
 41 40  1  0
 43 44  1  0
 44 47  1  0
 44 46  1  0
 45 43  2  0
 48 49  1  0
 50 48  1  0
 51 52  1  0
 53 54  2  0
 57 68  2  0
 58 63  1  0
 59 67  1  0
 59 69  1  0
 60 66  1  0
 60 62  1  0
 61 67  1  0
 62 61  1  0
 63 62  2  0
 64 65  1  0
 64 58  2  0
 65 60  2  0
 66 59  1  0
 67 57  1  0
 69 71  2  0
 70 69  1  0
 72 70  1  0
 73 82  2  0
 73 78  1  0
 74 70  1  0
 74 78  1  0
 75 74  1  0
 76 77  1  0
 76 75  1  0
 77 73  1  0
 78 79  2  0
 79 80  1  0
 81 80  2  0
 82 81  1  0
 83 57  1  0
 83 84  1  0
 83 93  1  0
 84 87  1  0
 85 89  1  0
 85 84  1  0
 86 85  2  0
 89 88  1  0
 89 91  1  0
 91 92  1  0
 91 90  1  0
 93 96  1  1
 93 94  1  0
 95 93  1  0
M  ISO  4  13 100  21 100  55 101  56 101
M  END
>  <TORSDO>  (69) 
F 22

>  <SCORE>  (69) 
-3.230

>  <name>  (69) 
68

>  <ligand_id>  (69) 
68

>  <original_smiles>  (69) 
[H]c1c([H])c([H])c2c(c1[H])C([H])([H])C([H])([H])C([H])([H])C2([H])N([H])C(=O)C1([H])N(C(=O)C([H])(N([H])C(=O)C([H])(N([H])C([H])([H])[H])C([H])([H])[H])C(C([H])([H])[H])(C([H])([H])[H])C([H])([H])[H])C([H])([H])c2c([H])c(OC([H])([H])C(=O)C([H])(N([H])C(=O)C3([H])C([H])([H])[N+]([H])(C([H])([H])[H])C3([H])C([H])([H])C([H])([H])N([H])C(=O)N3C([H])([H])C([H])([H])C([H])([H])C([H])(n4nc(-c5c([H])c([H])c(Oc6c([H])c([H])c(F)c([H])c6F)c([H])c5[H])c(C(=O)N([H])[H])c4N([H])[H])C3([H])[H])C([H])([H])[H])c([H])c([H])c2C1([H])[H]

>  <smiles>  (69) 
[H]c1c([H])c([H])c2c(c1[H])C([H])([H])C([H])([H])C([H])([H])C2([H])N([H])C(=O)C1([H])N(C(=O)C([H])(N([H])C(=O)C([H])(N([H])C([H])([H])[H])C([H])([H])[H])C(C([H])([H])[H])(C([H])([H])[H])C([H])([H])[H])C([H])([H])c2c([H])c(OC([H])([H])C(=O)C([H])(N([H])C(=O)C3([H])C([H])([H])[N+]([H])(C([H])([H])[H])C3([H])C([H])([H])C([H])([H])N([H])C(=O)N3C([H])([H])C([H])([H])C([H])([H])C([H])(n4nc(-c5c([H])c([H])c(Oc6c([H])c([H])c(F)c([H])c6F)c([H])c5[H])c(C(=O)N([H])[H])c4N([H])[H])C3([H])[H])C([H])([H])[H])c([H])c([H])c2C1([H])[H]

$$$$
69:0:0
     RDKit          3D

 97105  0  0  1  0  0  0  0  0999 V2000
  -29.2560  -21.1340   18.0580 C   0  0  0  0  0  2  0  0  0  0  0  0
  -29.4610  -19.6560   18.4270 C   0  0  0  0  0  2  0  0  0  0  0  0
  -29.8000  -22.0750   19.1460 C   0  0  0  0  0  2  0  0  0  0  0  0
  -29.4130  -20.3680   20.8700 C   0  0  0  0  0  2  0  0  0  0  0  0
  -28.8870  -19.3390   19.8270 C   0  0  0  0  0  3  0  0  0  0  0  0
  -29.1460  -21.7790   20.4490 N   0  0  1  0  0  4  0  0  0  0  0  0
  -28.1540  -21.8360   20.2820 H   0  0  0  0  0  0  0  0  0  0  0  0
  -29.4220  -22.7620   21.5410 C   0  0  0  0  0  2  0  0  0  0  0  0
  -29.4190  -24.2760   21.1780 C   0  0  0  0  0  2  0  0  0  0  0  0
  -28.1300  -24.8650   20.5640 C   0  0  0  0  0  2  0  0  0  0  0  0
  -28.2500  -26.2930   20.5410 O   0  0  0  0  0  0  0  0  0  0  0  0
  -24.5930  -31.7490   23.2460 C   0  0  0  0  0  0  0  0  0  0  0  0
  -27.0920  -27.0410   20.4640 C   0  0  0  0  0  0  0  0  0  0  0  0
  -23.3560  -30.3240   21.6440 C   0  0  0  0  0  3  0  0  0  0  0  0
  -24.7650  -28.6450   20.3380 C   0  0  0  0  0  0  0  0  0  0  0  0
  -25.8980  -30.5560   21.4910 C   0  0  0  0  0  2  0  0  0  0  0  0
  -25.9320  -29.1530   20.9200 C   0  0  0  0  0  0  0  0  0  0  0  0
  -27.1000  -28.3600   20.9710 C   0  0  0  0  0  3  0  0  0  0  0  0
  -25.9070  -26.5420   19.8800 C   0  0  0  0  0  3  0  0  0  0  0  0
  -24.7470  -27.3410   19.8120 C   0  0  0  0  0  3  0  0  0  0  0  0
  -23.5640  -29.5630   20.3070 C   0  0  0  0  0  2  0  0  0  0  0  0
  -24.6330  -30.8940   22.1850 N   0  0  0  0  0  0  0  0  0  0  0  0
  -23.5150  -32.0990   23.7470 O   0  0  0  0  0  0  0  0  0  0  0  0
  -22.6340  -29.3870   22.6390 C   0  0  0  0  0  0  0  0  0  0  0  0
  -21.3080  -29.2460   22.4730 N   0  0  0  0  0  0  0  0  0  0  0  0
  -23.2620  -28.7870   23.5140 O   0  0  0  0  0  0  0  0  0  0  0  0
  -20.8640  -29.7810   21.7400 H   0  0  0  0  0  0  0  0  0  0  0  0
  -17.8720  -28.2170   22.9180 C   0  0  0  0  0  0  0  0  0  0  0  0
  -20.4290  -28.3860   23.2650 C   0  0  0  0  0  3  0  0  0  0  0  0
  -20.4900  -26.9210   22.7700 C   0  0  0  0  0  2  0  0  0  0  0  0
  -19.4090  -26.5880   21.7380 C   0  0  0  0  0  2  0  0  0  0  0  0
  -18.0140  -26.8260   22.3240 C   0  0  0  0  0  2  0  0  0  0  0  0
  -19.0070  -28.9560   23.3450 C   0  0  0  0  0  0  0  0  0  0  0  0
  -18.8230  -30.2580   23.8580 C   0  0  0  0  0  3  0  0  0  0  0  0
  -17.5360  -30.8210   23.9490 C   0  0  0  0  0  3  0  0  0  0  0  0
  -16.4160  -30.0790   23.5390 C   0  0  0  0  0  3  0  0  0  0  0  0
  -16.5830  -28.7790   23.0290 C   0  0  0  0  0  3  0  0  0  0  0  0
  -25.8950  -32.3460   23.8670 C   0  0  0  0  0  3  0  0  0  0  0  0
  -25.6190  -33.7470   24.2090 N   0  0  0  0  0  0  0  0  0  0  0  0
  -25.9440  -34.7960   23.4400 C   0  0  0  0  0  0  0  0  0  0  0  0
  -26.5800  -34.6840   22.3870 O   0  0  0  0  0  0  0  0  0  0  0  0
  -25.0550  -33.9110   25.0290 H   0  0  0  0  0  0  0  0  0  0  0  0
  -24.2230  -36.6070   23.1540 C   0  0  0  0  0  1  0  0  0  0  0  0
  -25.4930  -36.1910   23.9140 C   0  0  0  0  0  3  0  0  0  0  0  0
  -27.6700  -37.0540   24.6510 C   0  0  0  0  0  1  0  0  0  0  0  0
  -26.5310  -37.2310   23.7550 N   0  0  0  0  0  0  0  0  0  0  0  0
  -26.1430  -38.1570   23.9160 H   0  0  0  0  0  0  0  0  0  0  0  0
  -26.4070  -31.5510   25.1310 C   0  0  1  0  0  0  0  0  0  0  0  0
  -25.3100  -31.3090   26.1920 C   0  0  0  0  0  1  0  0  0  0  0  0
  -26.9770  -30.1750   24.7170 C   0  0  0  0  0  1  0  0  0  0  0  0
  -27.5630  -32.3260   25.8060 C   0  0  0  0  0  1  0  0  0  0  0  0
  -29.0620  -17.8360   20.2510 C   0  0  0  0  0  3  0  0  0  0  0  0
  -30.5360  -17.4330   20.5450 C   0  0  0  0  0  2  0  0  0  0  0  0
  -30.7520  -16.3970   21.6830 C   0  0  0  0  0  2  0  0  0  0  0  0
  -30.6880  -14.1940   20.4940 C   0  0  0  0  0  0  0  0  0  0  0  0
  -30.3280  -12.0440   19.3410 C   0  0  0  0  0  2  0  0  0  0  0  0
  -29.3680  -12.2120   18.1480 C   0  0  0  0  0  2  0  0  0  0  0  0
  -27.9030  -12.0750   18.6030 C   0  0  0  0  0  2  0  0  0  0  0  0
  -27.5840  -12.9450   19.8480 C   0  0  0  0  0  3  0  0  0  0  0  0
  -28.6550  -12.7600   20.9490 C   0  0  0  0  0  2  0  0  0  0  0  0
  -29.9790  -13.0400   20.3640 N   0  0  0  0  0  0  0  0  0  0  0  0
  -31.7000  -14.4470   19.8370 O   0  0  0  0  0  0  0  0  0  0  0  0
  -30.2080  -15.0660   21.3930 N   0  0  0  0  0  0  0  0  0  0  0  0
  -29.4190  -14.7510   21.9340 H   0  0  0  0  0  0  0  0  0  0  0  0
  -25.2140  -13.5570   20.6510 C   0  0  0  0  0  0  0  0  0  0  0  0
  -24.1510  -12.7820   21.0300 C   0  0  0  0  0  0  0  0  0  0  0  0
  -24.5880  -11.4270   20.9250 C   0  0  0  0  0  0  0  0  0  0  0  0
  -26.2410  -12.6720   20.3540 N   0  0  0  0  0  0  0  0  0  0  0  0
  -25.8680  -11.3840   20.5730 N   0  0  0  0  0  0  0  0  0  0  0  0
  -23.8490  -10.1660   21.0830 C   0  0  0  0  0  0  0  0  0  0  0  0
  -24.2800   -9.1710   21.9850 C   0  0  0  0  0  3  0  0  0  0  0  0
  -23.5420   -7.9750   22.1360 C   0  0  0  0  0  3  0  0  0  0  0  0
  -22.3610   -7.7700   21.3830 C   0  0  0  0  0  0  0  0  0  0  0  0
  -21.9500   -8.7550   20.4680 C   0  0  0  0  0  3  0  0  0  0  0  0
  -22.6870   -9.9410   20.3150 C   0  0  0  0  0  3  0  0  0  0  0  0
  -21.5960   -6.6300   21.4430 O   0  0  0  0  0  0  0  0  0  0  0  0
  -21.5210   -5.8730   22.5850 C   0  0  0  0  0  0  0  0  0  0  0  0
  -21.0580   -6.4090   23.8070 C   0  0  0  0  0  3  0  0  0  0  0  0
  -20.9320   -5.5780   24.9380 C   0  0  0  0  0  3  0  0  0  0  0  0
  -21.2610   -4.2120   24.8500 C   0  0  0  0  0  0  0  0  0  0  0  0
  -21.7170   -3.6750   23.6320 C   0  0  0  0  0  3  0  0  0  0  0  0
  -21.8440   -4.5030   22.5030 C   0  0  0  0  0  0  0  0  0  0  0  0
  -22.2620   -3.9760   21.3280 F   0  0  0  0  0  0  0  0  0  0  0  0
  -21.1360   -3.4120   25.9340 F   0  0  0  0  0  0  0  0  0  0  0  0
  -22.7680  -13.2640   21.3600 C   0  0  0  0  0  0  0  0  0  0  0  0
  -22.0530  -12.5460   22.2160 N   0  0  0  0  0  0  0  0  0  0  0  0
  -22.3340  -14.3150   20.8880 O   0  0  0  0  0  0  0  0  0  0  0  0
  -22.4150  -11.6920   22.6130 H   0  0  0  0  0  0  0  0  0  0  0  0
  -21.1260  -12.8530   22.4790 H   0  0  0  0  0  0  0  0  0  0  0  0
  -25.3780  -14.9330   20.4910 N   0  0  0  0  0  0  0  0  0  0  0  0
  -24.4530  -15.3470   20.4060 H   0  0  0  0  0  0  0  0  0  0  0  0
  -25.9120  -15.0980   19.6460 H   0  0  0  0  0  0  0  0  0  0  0  0
  -28.4150  -16.8710   19.2120 C   0  0  0  0  0  2  0  0  0  0  0  0
  -26.0610  -16.8530   20.0450 C   0  0  0  0  0  1  0  0  0  0  0  0
  -26.9860  -17.1280   18.9290 N   0  0  0  0  0  4  0  0  0  0  0  0
  -26.8460  -18.0630   18.5830 H   0  0  0  0  0  0  0  0  0  0  0  0
  -26.7270  -16.4840   18.1890 H   0  0  0  0  0  0  0  0  0  0  0  0
  1  2  1  0
  1  3  1  0
  2  5  1  0
  3  6  1  0
  5 52  1  0
  5  4  1  0
  6  4  1  0
  6  8  1  0
  6  7  1  6
  9  8  1  0
 10  9  1  0
 11 10  1  0
 12 23  2  0
 13 11  1  0
 13 18  1  0
 14 22  1  0
 14 24  1  0
 15 17  1  0
 16 22  1  0
 17 18  2  0
 17 16  1  0
 19 13  2  0
 20 19  1  0
 20 15  2  0
 21 15  1  0
 21 14  1  0
 22 12  1  0
 24 26  2  0
 25 24  1  0
 27 25  1  0
 28 37  2  0
 28 33  1  0
 29 25  1  0
 29 33  1  0
 30 29  1  0
 31 32  1  0
 31 30  1  0
 32 28  1  0
 33 34  2  0
 34 35  1  0
 36 35  2  0
 37 36  1  0
 38 12  1  0
 38 39  1  0
 38 48  1  0
 39 42  1  0
 40 44  1  0
 40 39  1  0
 41 40  2  0
 44 43  1  0
 46 44  1  0
 46 47  1  0
 46 45  1  0
 48 51  1  1
 48 49  1  0
 50 48  1  0
 52 93  1  0
 52 53  1  0
 53 54  1  0
 55 63  1  0
 56 61  1  0
 57 58  1  0
 57 56  1  0
 59 58  1  0
 59 68  1  0
 59 60  1  0
 61 55  1  0
 61 60  1  0
 62 55  2  0
 63 54  1  0
 63 64  1  0
 65 66  2  0
 66 85  1  0
 67 66  1  0
 67 70  1  0
 68 69  1  0
 68 65  1  0
 69 67  2  0
 70 71  1  0
 71 72  2  0
 73 76  1  0
 73 72  1  0
 74 73  2  0
 75 74  1  0
 75 70  2  0
 76 77  1  0
 77 78  1  0
 78 79  2  0
 80 79  1  0
 80 84  1  0
 81 80  2  0
 82 77  2  0
 82 81  1  0
 83 82  1  0
 85 86  1  0
 86 89  1  0
 86 88  1  0
 87 85  2  0
 90 65  1  0
 91 90  1  0
 92 90  1  0
 95 93  1  0
 95 94  1  0
 96 95  1  0
 97 95  1  0
M  ISO  4  10 101  11 101  55 100  63 100
M  END
>  <TORSDO>  (70) 
F 24

>  <SCORE>  (70) 
-12.189

>  <name>  (70) 
69

>  <ligand_id>  (70) 
69

>  <original_smiles>  (70) 
[H]c1c([H])c([H])c2c(c1[H])C([H])([H])C([H])([H])C([H])([H])C2([H])N([H])C(=O)C1([H])N(C(=O)C([H])(N([H])C(=O)C([H])(N([H])C([H])([H])[H])C([H])([H])[H])C(C([H])([H])[H])(C([H])([H])[H])C([H])([H])[H])C([H])([H])c2c([H])c(OC([H])([H])C([H])([H])C([H])([H])[N+]3([H])C([H])([H])C([H])([H])C([H])([H])C([H])(C([H])(C([H])([H])C([H])([H])N([H])C(=O)N4C([H])([H])C([H])([H])C([H])([H])C([H])(n5nc(-c6c([H])c([H])c(Oc7c([H])c([H])c(F)c([H])c7F)c([H])c6[H])c(C(=O)N([H])[H])c5N([H])[H])C4([H])[H])C([H])([H])[N+]([H])([H])C([H])([H])[H])C3([H])[H])c([H])c([H])c2C1([H])[H]

>  <smiles>  (70) 
[H]c1c([H])c([H])c2c(c1[H])C([H])([H])C([H])([H])C([H])([H])C2([H])N([H])C(=O)C1([H])N(C(=O)C([H])(N([H])C(=O)C([H])(N([H])C([H])([H])[H])C([H])([H])[H])C(C([H])([H])[H])(C([H])([H])[H])C([H])([H])[H])C([H])([H])c2c([H])c(OC([H])([H])C([H])([H])C([H])([H])[N+]3([H])C([H])([H])C([H])([H])C([H])([H])C([H])(C([H])(C([H])([H])C([H])([H])N([H])C(=O)N4C([H])([H])C([H])([H])C([H])([H])C([H])(n5nc(-c6c([H])c([H])c(Oc7c([H])c([H])c(F)c([H])c7F)c([H])c6[H])c(C(=O)N([H])[H])c5N([H])[H])C4([H])[H])C([H])([H])[N+]([H])([H])C([H])([H])[H])C3([H])[H])c([H])c([H])c2C1([H])[H]

$$$$
70:0:0
     RDKit          3D

 93102  0  0  1  0  0  0  0  0999 V2000
  -30.7610  -22.3850   19.6670 C   0  0  0  0  0  2  0  0  0  0  0  0
  -29.9410  -18.5310   19.1980 C   0  0  0  0  0  2  0  0  0  0  0  0
  -29.7510  -18.9990   21.6050 C   0  0  0  0  0  2  0  0  0  0  0  0
  -29.6000  -17.8650   20.5550 C   0  0  0  0  0  3  0  0  0  0  0  0
  -30.7420  -19.7740   19.5120 C   0  0  0  0  0  3  0  0  0  0  0  0
  -30.6150  -20.0770   20.9760 C   0  0  0  0  0  3  0  0  0  0  0  0
  -30.0760  -21.0570   19.9520 C   0  0  0  0  0  3  0  0  0  0  0  0
  -30.7610  -14.4040   20.1030 C   0  0  0  0  0  0  0  0  0  0  0  0
  -30.3390  -12.2910   18.9120 C   0  0  0  0  0  2  0  0  0  0  0  0
  -29.3300  -12.5300   17.7700 C   0  0  0  0  0  2  0  0  0  0  0  0
  -27.8830  -12.4020   18.2860 C   0  0  0  0  0  2  0  0  0  0  0  0
  -27.6310  -13.2200   19.5830 C   0  0  0  0  0  3  0  0  0  0  0  0
  -28.7500  -12.9670   20.6180 C   0  0  0  0  0  2  0  0  0  0  0  0
  -30.0330  -13.2640   19.9690 N   0  0  0  0  0  0  0  0  0  0  0  0
  -31.8840  -14.5220   19.6110 O   0  0  0  0  0  0  0  0  0  0  0  0
  -30.5640  -16.6870   20.7960 C   0  0  0  0  0  0  0  0  0  0  0  0
  -30.0760  -15.4510   20.5970 N   0  0  0  0  0  0  0  0  0  0  0  0
  -31.7380  -16.9230   21.1080 O   0  0  0  0  0  0  0  0  0  0  0  0
  -29.0800  -15.3370   20.6540 H   0  0  0  0  0  0  0  0  0  0  0  0
  -25.2840  -13.8360   20.4390 C   0  0  0  0  0  0  0  0  0  0  0  0
  -24.2310  -13.0660   20.8530 C   0  0  0  0  0  0  0  0  0  0  0  0
  -24.6780  -11.7110   20.7710 C   0  0  0  0  0  0  0  0  0  0  0  0
  -26.3060  -12.9500   20.1360 N   0  0  0  0  0  0  0  0  0  0  0  0
  -25.9490  -11.6660   20.3940 N   0  0  0  0  0  0  0  0  0  0  0  0
  -23.9510  -10.4530   20.9790 C   0  0  0  0  0  0  0  0  0  0  0  0
  -24.4010   -9.4850   21.9030 C   0  0  0  0  0  3  0  0  0  0  0  0
  -23.6780   -8.2890   22.0950 C   0  0  0  0  0  3  0  0  0  0  0  0
  -22.4890   -8.0520   21.3640 C   0  0  0  0  0  0  0  0  0  0  0  0
  -22.0610   -9.0080   20.4280 C   0  0  0  0  0  3  0  0  0  0  0  0
  -22.7850  -10.1960   20.2340 C   0  0  0  0  0  3  0  0  0  0  0  0
  -21.7360   -6.9070   21.4680 O   0  0  0  0  0  0  0  0  0  0  0  0
  -21.6730   -6.1880   22.6350 C   0  0  0  0  0  0  0  0  0  0  0  0
  -21.2070   -6.7600   23.8390 C   0  0  0  0  0  3  0  0  0  0  0  0
  -21.0940   -5.9640   24.9970 C   0  0  0  0  0  3  0  0  0  0  0  0
  -21.4390   -4.5990   24.9510 C   0  0  0  0  0  0  0  0  0  0  0  0
  -21.8980   -4.0270   23.7530 C   0  0  0  0  0  3  0  0  0  0  0  0
  -22.0100   -4.8200   22.5960 C   0  0  0  0  0  0  0  0  0  0  0  0
  -22.4340   -4.2570   21.4380 F   0  0  0  0  0  0  0  0  0  0  0  0
  -21.3220   -3.8330   26.0610 F   0  0  0  0  0  0  0  0  0  0  0  0
  -22.8560  -13.5490   21.2130 C   0  0  0  0  0  0  0  0  0  0  0  0
  -22.1700  -12.8380   22.1030 N   0  0  0  0  0  0  0  0  0  0  0  0
  -22.4010  -14.5900   20.7420 O   0  0  0  0  0  0  0  0  0  0  0  0
  -22.5530  -11.9970   22.5110 H   0  0  0  0  0  0  0  0  0  0  0  0
  -21.2520  -13.1450   22.3840 H   0  0  0  0  0  0  0  0  0  0  0  0
  -25.4510  -15.2090   20.2750 N   0  0  0  0  0  0  0  0  0  0  0  0
  -24.6950  -15.8720   20.4240 H   0  0  0  0  0  0  0  0  0  0  0  0
  -26.2750  -15.6400   19.8790 H   0  0  0  0  0  0  0  0  0  0  0  0
  -29.7180  -24.6610   19.9180 C   0  0  0  0  0  0  0  0  0  0  0  0
  -29.8220  -23.4570   19.3430 N   0  0  0  0  0  0  0  0  0  0  0  0
  -30.5660  -25.1170   20.6920 O   0  0  0  0  0  0  0  0  0  0  0  0
  -29.1010  -23.2240   18.6710 H   0  0  0  0  0  0  0  0  0  0  0  0
  -28.4290  -25.4280   19.5970 C   0  0  0  0  0  2  0  0  0  0  0  0
  -28.4350  -26.7480   20.1520 O   0  0  0  0  0  0  0  0  0  0  0  0
  -24.6010  -31.8930   23.2260 C   0  0  0  0  0  0  0  0  0  0  0  0
  -27.2420  -27.4440   20.1430 C   0  0  0  0  0  0  0  0  0  0  0  0
  -23.3910  -30.4920   21.5860 C   0  0  0  0  0  3  0  0  0  0  0  0
  -24.8400  -28.9480   20.1700 C   0  0  0  0  0  0  0  0  0  0  0  0
  -25.9220  -30.8370   21.3980 C   0  0  0  0  0  2  0  0  0  0  0  0
  -26.0010  -29.4700   20.7540 C   0  0  0  0  0  0  0  0  0  0  0  0
  -27.2000  -28.7280   20.7380 C   0  0  0  0  0  3  0  0  0  0  0  0
  -26.0530  -26.9330   19.5620 C   0  0  0  0  0  3  0  0  0  0  0  0
  -24.8590  -27.6750   19.5830 C   0  0  0  0  0  3  0  0  0  0  0  0
  -23.6020  -29.8140   20.2090 C   0  0  0  0  0  2  0  0  0  0  0  0
  -24.6550  -31.0890   22.1260 N   0  0  0  0  0  0  0  0  0  0  0  0
  -23.5210  -32.1720   23.7620 O   0  0  0  0  0  0  0  0  0  0  0  0
  -22.7390  -29.4710   22.5450 C   0  0  0  0  0  0  0  0  0  0  0  0
  -21.4130  -29.2970   22.4160 N   0  0  0  0  0  0  0  0  0  0  0  0
  -23.4200  -28.8390   23.3570 O   0  0  0  0  0  0  0  0  0  0  0  0
  -20.9260  -29.8550   21.7300 H   0  0  0  0  0  0  0  0  0  0  0  0
  -18.0280  -28.1470   22.9310 C   0  0  0  0  0  0  0  0  0  0  0  0
  -20.5900  -28.3660   23.1880 C   0  0  0  0  0  3  0  0  0  0  0  0
  -20.6700  -26.9370   22.6030 C   0  0  0  0  0  2  0  0  0  0  0  0
  -19.5580  -26.6340   21.5930 C   0  0  0  0  0  2  0  0  0  0  0  0
  -18.1830  -26.7980   22.2470 C   0  0  0  0  0  2  0  0  0  0  0  0
  -19.1600  -28.8880   23.3580 C   0  0  0  0  0  0  0  0  0  0  0  0
  -18.9670  -30.1520   23.9570 C   0  0  0  0  0  3  0  0  0  0  0  0
  -17.6700  -30.6710   24.1350 C   0  0  0  0  0  3  0  0  0  0  0  0
  -16.5500  -29.9240   23.7280 C   0  0  0  0  0  3  0  0  0  0  0  0
  -16.7310  -28.6630   23.1320 C   0  0  0  0  0  3  0  0  0  0  0  0
  -25.8930  -32.5160   23.8430 C   0  0  0  0  0  3  0  0  0  0  0  0
  -26.4170  -31.7410   25.1130 C   0  0  1  0  0  0  0  0  0  0  0  0
  -25.3310  -31.5050   26.1870 C   0  0  0  0  0  1  0  0  0  0  0  0
  -26.9970  -30.3610   24.7140 C   0  0  0  0  0  1  0  0  0  0  0  0
  -27.5680  -32.5350   25.7760 C   0  0  0  0  0  1  0  0  0  0  0  0
  -25.5940  -33.9150   24.1760 N   0  0  0  0  0  0  0  0  0  0  0  0
  -25.9130  -34.9640   23.4040 C   0  0  0  0  0  0  0  0  0  0  0  0
  -26.5670  -34.8530   22.3620 O   0  0  0  0  0  0  0  0  0  0  0  0
  -25.0280  -34.0760   24.9950 H   0  0  0  0  0  0  0  0  0  0  0  0
  -24.1820  -36.7510   23.0590 C   0  0  0  0  0  1  0  0  0  0  0  0
  -25.4310  -36.3520   23.8620 C   0  0  0  0  0  3  0  0  0  0  0  0
  -27.5700  -37.2420   24.6770 C   0  0  0  0  0  1  0  0  0  0  0  0
  -26.4620  -37.4060   23.7410 N   0  0  0  0  0  0  0  0  0  0  0  0
  -26.0530  -38.3240   23.8970 H   0  0  0  0  0  0  0  0  0  0  0  0
  2  4  1  0
  4 16  1  0
  4  3  1  0
  5  2  1  0
  5  7  1  0
  5  6  1  0
  6  3  1  0
  7  1  1  0
  7  6  1  0
  8 17  1  0
  9 14  1  0
 10 11  1  0
 10  9  1  0
 12 11  1  0
 12 23  1  0
 12 13  1  0
 14  8  1  0
 14 13  1  0
 15  8  2  0
 16 18  2  0
 17 19  1  0
 17 16  1  0
 20 21  2  0
 21 40  1  0
 22 21  1  0
 22 25  1  0
 23 24  1  0
 23 20  1  0
 24 22  2  0
 25 26  1  0
 26 27  2  0
 28 31  1  0
 28 27  1  0
 29 28  2  0
 30 29  1  0
 30 25  2  0
 31 32  1  0
 32 33  1  0
 33 34  2  0
 35 34  1  0
 35 39  1  0
 36 35  2  0
 37 32  2  0
 37 36  1  0
 38 37  1  0
 40 41  1  0
 41 44  1  0
 41 43  1  0
 42 40  2  0
 45 46  1  0
 45 20  1  0
 47 45  1  0
 48 50  2  0
 49  1  1  0
 49 48  1  0
 51 49  1  0
 52 48  1  0
 52 53  1  0
 54 65  2  0
 55 53  1  0
 55 60  1  0
 56 64  1  0
 56 66  1  0
 57 63  1  0
 57 59  1  0
 58 64  1  0
 59 58  1  0
 60 59  2  0
 61 62  1  0
 61 55  2  0
 62 57  2  0
 63 56  1  0
 64 54  1  0
 66 68  2  0
 67 66  1  0
 69 67  1  0
 70 79  2  0
 70 75  1  0
 71 67  1  0
 71 75  1  0
 72 71  1  0
 73 74  1  0
 73 72  1  0
 74 70  1  0
 75 76  2  0
 76 77  1  0
 78 77  2  0
 79 78  1  0
 80 54  1  0
 80 85  1  0
 80 81  1  0
 81 84  1  1
 81 82  1  0
 83 81  1  0
 85 88  1  0
 86 90  1  0
 86 85  1  0
 87 86  2  0
 90 89  1  0
 92 90  1  0
 92 93  1  0
 92 91  1  0
M  ISO  4   8 100  17 100  52 101  53 101
M  END
>  <TORSDO>  (71) 
F 19

>  <SCORE>  (71) 
-13.873

>  <name>  (71) 
70

>  <ligand_id>  (71) 
70

>  <original_smiles>  (71) 
[H]c1c([H])c([H])c2c(c1[H])C([H])([H])C([H])([H])C([H])([H])C2([H])N([H])C(=O)C1([H])N(C(=O)C([H])(N([H])C(=O)C([H])(N([H])C([H])([H])[H])C([H])([H])[H])C(C([H])([H])[H])(C([H])([H])[H])C([H])([H])[H])C([H])([H])c2c([H])c(OC([H])([H])C(=O)N([H])C([H])([H])C3([H])C4([H])C([H])([H])C([H])(C(=O)N([H])C(=O)N5C([H])([H])C([H])([H])C([H])([H])C([H])(n6nc(-c7c([H])c([H])c(Oc8c([H])c([H])c(F)c([H])c8F)c([H])c7[H])c(C(=O)N([H])[H])c6N([H])[H])C5([H])[H])C([H])([H])C34[H])c([H])c([H])c2C1([H])[H]

>  <smiles>  (71) 
[H]c1c([H])c([H])c2c(c1[H])C([H])([H])C([H])([H])C([H])([H])C2([H])N([H])C(=O)C1([H])N(C(=O)C([H])(N([H])C(=O)C([H])(N([H])C([H])([H])[H])C([H])([H])[H])C(C([H])([H])[H])(C([H])([H])[H])C([H])([H])[H])C([H])([H])c2c([H])c(OC([H])([H])C(=O)N([H])C([H])([H])C3([H])C4([H])C([H])([H])C([H])(C(=O)N([H])C(=O)N5C([H])([H])C([H])([H])C([H])([H])C([H])(n6nc(-c7c([H])c([H])c(Oc8c([H])c([H])c(F)c([H])c8F)c([H])c7[H])c(C(=O)N([H])[H])c6N([H])[H])C5([H])[H])C([H])([H])C34[H])c([H])c([H])c2C1([H])[H]

$$$$
72:0:0
     RDKit          3D

100109  0  0  1  0  0  0  0  0999 V2000
  -29.9960  -19.8030   21.8950 C   0  0  0  0  0  0  0  0  0  0  0  0
  -30.1080  -18.8260   22.8070 N   0  0  0  0  0  0  0  0  0  0  0  0
  -29.7910  -19.5960   20.7000 O   0  0  0  0  0  0  0  0  0  0  0  0
  -30.3080  -19.1490   23.7440 H   0  0  0  0  0  0  0  0  0  0  0  0
  -31.2660  -22.0830   21.9620 C   0  0  0  0  0  2  0  0  0  0  0  0
  -28.7450  -22.0230   22.2810 C   0  0  0  0  0  2  0  0  0  0  0  0
  -31.0180  -22.8390   20.6380 C   0  0  0  0  0  2  0  0  0  0  0  0
  -28.6100  -22.7380   20.9200 C   0  0  0  0  0  2  0  0  0  0  0  0
  -30.0660  -21.2420   22.4580 C   0  0  0  0  0  3  0  0  0  0  0  0
  -29.7670  -23.6490   20.6740 N   0  0  2  0  0  4  0  0  0  0  0  0
  -29.8290  -24.2640   21.4720 H   0  0  0  0  0  0  0  0  0  0  0  0
  -29.6600  -24.5410   19.4710 C   0  0  0  0  0  2  0  0  0  0  0  0
  -28.3880  -25.4220   19.3460 C   0  0  0  0  0  2  0  0  0  0  0  0
  -28.4020  -26.6720   20.0700 O   0  0  0  0  0  0  0  0  0  0  0  0
  -24.6180  -31.8680   23.2130 C   0  0  0  0  0  0  0  0  0  0  0  0
  -27.2280  -27.4190   20.0700 C   0  0  0  0  0  0  0  0  0  0  0  0
  -23.4030  -30.4970   21.5550 C   0  0  0  0  0  3  0  0  0  0  0  0
  -24.8450  -28.9670   20.1170 C   0  0  0  0  0  0  0  0  0  0  0  0
  -25.9380  -30.8240   21.3730 C   0  0  0  0  0  2  0  0  0  0  0  0
  -26.0100  -29.4580   20.7180 C   0  0  0  0  0  0  0  0  0  0  0  0
  -27.1990  -28.6890   20.7010 C   0  0  0  0  0  3  0  0  0  0  0  0
  -26.0320  -26.9580   19.4600 C   0  0  0  0  0  3  0  0  0  0  0  0
  -24.8510  -27.7140   19.4920 C   0  0  0  0  0  3  0  0  0  0  0  0
  -23.6100  -29.8370   20.1690 C   0  0  0  0  0  2  0  0  0  0  0  0
  -24.6710  -31.0770   22.1050 N   0  0  0  0  0  0  0  0  0  0  0  0
  -23.5370  -32.1440   23.7530 O   0  0  0  0  0  0  0  0  0  0  0  0
  -22.7410  -29.4680   22.5000 C   0  0  0  0  0  0  0  0  0  0  0  0
  -21.4150  -29.3040   22.3720 N   0  0  0  0  0  0  0  0  0  0  0  0
  -23.4190  -28.8210   23.3030 O   0  0  0  0  0  0  0  0  0  0  0  0
  -20.9310  -29.8750   21.6940 H   0  0  0  0  0  0  0  0  0  0  0  0
  -18.0270  -28.1380   22.8490 C   0  0  0  0  0  0  0  0  0  0  0  0
  -20.5860  -28.3680   23.1310 C   0  0  0  0  0  3  0  0  0  0  0  0
  -20.6770  -26.9420   22.5420 C   0  0  0  0  0  2  0  0  0  0  0  0
  -19.5750  -26.6390   21.5210 C   0  0  0  0  0  2  0  0  0  0  0  0
  -18.1930  -26.7930   22.1620 C   0  0  0  0  0  2  0  0  0  0  0  0
  -19.1520  -28.8840   23.2900 C   0  0  0  0  0  0  0  0  0  0  0  0
  -18.9440  -30.1450   23.8910 C   0  0  0  0  0  3  0  0  0  0  0  0
  -17.6450  -30.6590   24.0570 C   0  0  0  0  0  3  0  0  0  0  0  0
  -16.5340  -29.9090   23.6330 C   0  0  0  0  0  3  0  0  0  0  0  0
  -16.7260  -28.6510   23.0350 C   0  0  0  0  0  3  0  0  0  0  0  0
  -25.9080  -32.4810   23.8410 C   0  0  0  0  0  3  0  0  0  0  0  0
  -25.5940  -33.8610   24.2340 N   0  0  0  0  0  0  0  0  0  0  0  0
  -25.9050  -34.9460   23.5120 C   0  0  0  0  0  0  0  0  0  0  0  0
  -26.5590  -34.8910   22.4670 O   0  0  0  0  0  0  0  0  0  0  0  0
  -25.0130  -33.9760   25.0510 H   0  0  0  0  0  0  0  0  0  0  0  0
  -24.1490  -36.7300   23.2640 C   0  0  0  0  0  1  0  0  0  0  0  0
  -25.4120  -36.3100   24.0340 C   0  0  0  0  0  3  0  0  0  0  0  0
  -27.5580  -37.1810   24.8470 C   0  0  0  0  0  1  0  0  0  0  0  0
  -26.4300  -37.3780   23.9400 N   0  0  0  0  0  0  0  0  0  0  0  0
  -26.0180  -38.2860   24.1390 H   0  0  0  0  0  0  0  0  0  0  0  0
  -26.4500  -31.6570   25.0730 C   0  0  1  0  0  0  0  0  0  0  0  0
  -25.3760  -31.3670   26.1470 C   0  0  0  0  0  1  0  0  0  0  0  0
  -27.0320  -30.3010   24.6120 C   0  0  0  0  0  1  0  0  0  0  0  0
  -27.6080  -32.4280   25.7480 C   0  0  0  0  0  1  0  0  0  0  0  0
  -31.1650  -16.0390   24.2610 C   0  0  0  0  0  2  0  0  0  0  0  0
  -31.9230  -16.3190   22.9620 C   0  0  0  0  0  2  0  0  0  0  0  0
  -29.8290  -16.8100   24.1530 C   0  0  0  0  0  3  0  0  0  0  0  0
  -30.8230  -16.5630   21.9260 C   0  0  0  0  0  3  0  0  0  0  0  0
  -29.7840  -17.3950   22.7120 C   0  0  0  0  0  3  0  0  0  0  0  0
  -30.7560  -14.4090   20.6390 C   0  0  0  0  0  0  0  0  0  0  0  0
  -30.4210  -12.2970   19.4050 C   0  0  0  0  0  2  0  0  0  0  0  0
  -29.4930  -12.5230   18.1970 C   0  0  0  0  0  2  0  0  0  0  0  0
  -28.0140  -12.3840   18.6100 C   0  0  0  0  0  2  0  0  0  0  0  0
  -27.6700  -13.2060   19.8800 C   0  0  0  0  0  3  0  0  0  0  0  0
  -28.7130  -12.9640   20.9950 C   0  0  0  0  0  2  0  0  0  0  0  0
  -30.0500  -13.2620   20.4510 N   0  0  0  0  0  0  0  0  0  0  0  0
  -31.8140  -14.6530   20.0500 O   0  0  0  0  0  0  0  0  0  0  0  0
  -30.2300  -15.2840   21.5050 N   0  0  0  0  0  0  0  0  0  0  0  0
  -29.3590  -15.0210   21.9430 H   0  0  0  0  0  0  0  0  0  0  0  0
  -25.2640  -13.8180   20.5700 C   0  0  0  0  0  0  0  0  0  0  0  0
  -24.1880  -13.0460   20.9180 C   0  0  0  0  0  0  0  0  0  0  0  0
  -24.6430  -11.6920   20.8750 C   0  0  0  0  0  0  0  0  0  0  0  0
  -26.3090  -12.9340   20.3400 N   0  0  0  0  0  0  0  0  0  0  0  0
  -25.9350  -11.6510   20.5780 N   0  0  0  0  0  0  0  0  0  0  0  0
  -23.9080  -10.4300   21.0400 C   0  0  0  0  0  0  0  0  0  0  0  0
  -24.3630   -9.4220   21.9180 C   0  0  0  0  0  3  0  0  0  0  0  0
  -23.6310   -8.2250   22.0760 C   0  0  0  0  0  3  0  0  0  0  0  0
  -22.4290   -8.0280   21.3550 C   0  0  0  0  0  0  0  0  0  0  0  0
  -21.9920   -9.0250   20.4650 C   0  0  0  0  0  3  0  0  0  0  0  0
  -22.7240  -10.2130   20.3050 C   0  0  0  0  0  3  0  0  0  0  0  0
  -21.6650   -6.8890   21.4240 O   0  0  0  0  0  0  0  0  0  0  0  0
  -21.6850   -6.0740   22.5290 C   0  0  0  0  0  0  0  0  0  0  0  0
  -21.4000   -6.5650   23.8210 C   0  0  0  0  0  3  0  0  0  0  0  0
  -21.3660   -5.6800   24.9180 C   0  0  0  0  0  3  0  0  0  0  0  0
  -21.6040   -4.3060   24.7230 C   0  0  0  0  0  0  0  0  0  0  0  0
  -21.8820   -3.8160   23.4350 C   0  0  0  0  0  3  0  0  0  0  0  0
  -21.9190   -4.6980   22.3410 C   0  0  0  0  0  0  0  0  0  0  0  0
  -22.1660   -4.2160   21.0990 F   0  0  0  0  0  0  0  0  0  0  0  0
  -21.5640   -3.4540   25.7740 F   0  0  0  0  0  0  0  0  0  0  0  0
  -22.7890  -13.5260   21.1830 C   0  0  0  0  0  0  0  0  0  0  0  0
  -22.0510  -12.8250   22.0370 N   0  0  0  0  0  0  0  0  0  0  0  0
  -22.3570  -14.5540   20.6660 O   0  0  0  0  0  0  0  0  0  0  0  0
  -22.4090  -11.9890   22.4760 H   0  0  0  0  0  0  0  0  0  0  0  0
  -21.1120  -13.1270   22.2530 H   0  0  0  0  0  0  0  0  0  0  0  0
  -25.4390  -15.1890   20.4080 N   0  0  0  0  0  0  0  0  0  0  0  0
  -24.6840  -15.8550   20.5310 H   0  0  0  0  0  0  0  0  0  0  0  0
  -26.3070  -15.6220   20.1190 H   0  0  0  0  0  0  0  0  0  0  0  0
  -28.6380  -15.9180   24.5350 C   0  0  0  0  0  0  0  0  0  0  0  0
  -28.4490  -15.6420   26.0200 C   0  0  0  0  0  1  0  0  0  0  0  0
  -27.8920  -15.4130   23.6930 O   0  0  0  0  0  0  0  0  0  0  0  0
  1  2  1  0
  2  4  1  0
  3  1  2  0
  5  9  1  0
  6  9  1  0
  7 10  1  0
  7  5  1  0
  8  6  1  0
  9  1  1  0
 10  8  1  0
 10 11  1  1
 12 10  1  0
 13 12  1  0
 13 14  1  0
 15 26  2  0
 16 14  1  0
 16 21  1  0
 17 25  1  0
 17 27  1  0
 18 24  1  0
 18 20  1  0
 19 25  1  0
 20 19  1  0
 21 20  2  0
 22 23  1  0
 22 16  2  0
 23 18  2  0
 24 17  1  0
 25 15  1  0
 27 29  2  0
 28 27  1  0
 30 28  1  0
 31 40  2  0
 31 36  1  0
 32 28  1  0
 32 36  1  0
 33 32  1  0
 34 35  1  0
 34 33  1  0
 35 31  1  0
 36 37  2  0
 37 38  1  0
 39 38  2  0
 40 39  1  0
 41 15  1  0
 41 42  1  0
 41 51  1  0
 42 45  1  0
 43 47  1  0
 43 42  1  0
 44 43  2  0
 47 46  1  0
 49 47  1  0
 49 50  1  0
 49 48  1  0
 51 54  1  1
 51 52  1  0
 53 51  1  0
 56 55  1  0
 57 55  1  0
 57 98  1  0
 58 68  1  0
 58 59  1  0
 58 56  1  0
 59  2  1  0
 59 57  1  0
 60 68  1  0
 61 66  1  0
 62 63  1  0
 62 61  1  0
 64 63  1  0
 64 73  1  0
 64 65  1  0
 66 60  1  0
 66 65  1  0
 67 60  2  0
 68 69  1  0
 70 71  2  0
 71 90  1  0
 72 71  1  0
 72 75  1  0
 73 70  1  0
 73 74  1  0
 74 72  2  0
 75 76  1  0
 76 77  2  0
 78 81  1  0
 78 77  1  0
 79 78  2  0
 80 79  1  0
 80 75  2  0
 81 82  1  0
 82 83  1  0
 83 84  2  0
 85 84  1  0
 85 89  1  0
 86 85  2  0
 87 82  2  0
 87 86  1  0
 88 87  1  0
 90 91  1  0
 91 94  1  0
 91 93  1  0
 92 90  2  0
 95 96  1  0
 95 70  1  0
 97 95  1  0
 98 99  1  0
100 98  2  0
M  ISO  4  13 101  14 101  60 100  68 100
M  END
>  <TORSDO>  (72) 
F 21

>  <SCORE>  (72) 
25.147

>  <name>  (72) 
72

>  <ligand_id>  (72) 
72

>  <original_smiles>  (72) 
[H]c1c([H])c([H])c2c(c1[H])C([H])([H])C([H])([H])C([H])([H])C2([H])N([H])C(=O)C1([H])N(C(=O)C([H])(N([H])C(=O)C([H])(N([H])C([H])([H])[H])C([H])([H])[H])C(C([H])([H])[H])(C([H])([H])[H])C([H])([H])[H])C([H])([H])c2c([H])c(OC([H])([H])C([H])([H])[N+]3([H])C([H])([H])C([H])([H])C([H])(C(=O)N([H])C4([H])C([H])(C(=O)C([H])([H])[H])C([H])([H])C([H])([H])C4([H])N([H])C(=O)N4C([H])([H])C([H])([H])C([H])([H])C([H])(n5nc(-c6c([H])c([H])c(Oc7c([H])c([H])c(F)c([H])c7F)c([H])c6[H])c(C(=O)N([H])[H])c5N([H])[H])C4([H])[H])C([H])([H])C3([H])[H])c([H])c([H])c2C1([H])[H]

>  <smiles>  (72) 
[H]c1c([H])c([H])c2c(c1[H])C([H])([H])C([H])([H])C([H])([H])C2([H])N([H])C(=O)C1([H])N(C(=O)C([H])(N([H])C(=O)C([H])(N([H])C([H])([H])[H])C([H])([H])[H])C(C([H])([H])[H])(C([H])([H])[H])C([H])([H])[H])C([H])([H])c2c([H])c(OC([H])([H])C([H])([H])[N+]3([H])C([H])([H])C([H])([H])C([H])(C(=O)N([H])C4([H])C([H])(C(=O)C([H])([H])[H])C([H])([H])C([H])([H])C4([H])N([H])C(=O)N4C([H])([H])C([H])([H])C([H])([H])C([H])(n5nc(-c6c([H])c([H])c(Oc7c([H])c([H])c(F)c([H])c7F)c([H])c6[H])c(C(=O)N([H])[H])c5N([H])[H])C4([H])[H])C([H])([H])C3([H])[H])c([H])c([H])c2C1([H])[H]

$$$$
73:0:0
     RDKit          3D

 95104  0  0  1  0  0  0  0  0999 V2000
  -28.6900  -22.4210   17.7640 C   0  0  0  0  0  2  0  0  0  0  0  0
  -27.5550  -22.9800   18.6470 C   0  0  0  0  0  2  0  0  0  0  0  0
  -29.8410  -22.0550   18.7340 C   0  0  0  0  0  2  0  0  0  0  0  0
  -28.2180  -23.2190   20.0130 C   0  0  0  0  0  3  0  0  0  0  0  0
  -29.1970  -21.9510   20.0620 N   0  0  1  0  0  4  0  0  0  0  0  0
  -29.8900  -22.0920   20.7840 H   0  0  0  0  0  0  0  0  0  0  0  0
  -28.6250  -20.4600   20.1850 C   0  0  0  0  0  2  0  0  0  0  0  0
  -31.3540  -18.1750   20.4520 C   0  0  0  0  0  2  0  0  0  0  0  0
  -29.3510  -19.0000   20.7070 C   0  0  0  0  0  3  0  0  0  0  0  0
  -30.0040  -17.6720   19.8950 C   0  0  0  0  0  3  0  0  0  0  0  0
  -30.6490  -18.9990   21.5530 C   0  0  0  0  0  3  0  0  0  0  0  0
  -30.4910  -14.9420   19.9260 C   0  0  0  0  0  0  0  0  0  0  0  0
  -30.2920  -12.5900   18.9750 C   0  0  0  0  0  2  0  0  0  0  0  0
  -29.2980  -12.5840   17.7880 C   0  0  0  0  0  2  0  0  0  0  0  0
  -27.8600  -12.3700   18.2970 C   0  0  0  0  0  2  0  0  0  0  0  0
  -27.5280  -13.2750   19.5130 C   0  0  0  0  0  3  0  0  0  0  0  0
  -28.6450  -13.2660   20.5810 C   0  0  0  0  0  2  0  0  0  0  0  0
  -29.8830  -13.6820   19.9130 N   0  0  0  0  0  0  0  0  0  0  0  0
  -31.6390  -15.0070   19.4730 O   0  0  0  0  0  0  0  0  0  0  0  0
  -29.7740  -16.1330   20.2560 N   0  0  0  0  0  0  0  0  0  0  0  0
  -28.8520  -15.9330   20.6230 H   0  0  0  0  0  0  0  0  0  0  0  0
  -25.2050  -13.8510   20.4150 C   0  0  0  0  0  0  0  0  0  0  0  0
  -24.1600  -13.0750   20.8320 C   0  0  0  0  0  0  0  0  0  0  0  0
  -24.6040  -11.7230   20.7270 C   0  0  0  0  0  0  0  0  0  0  0  0
  -26.2210  -12.9720   20.0790 N   0  0  0  0  0  0  0  0  0  0  0  0
  -25.8720  -11.6830   20.3310 N   0  0  0  0  0  0  0  0  0  0  0  0
  -23.8720  -10.4620   20.9250 C   0  0  0  0  0  0  0  0  0  0  0  0
  -24.3100   -9.4930   21.8540 C   0  0  0  0  0  3  0  0  0  0  0  0
  -23.5780   -8.3010   22.0440 C   0  0  0  0  0  3  0  0  0  0  0  0
  -22.3930   -8.0710   21.3070 C   0  0  0  0  0  0  0  0  0  0  0  0
  -21.9720   -9.0280   20.3690 C   0  0  0  0  0  3  0  0  0  0  0  0
  -22.7030  -10.2130   20.1760 C   0  0  0  0  0  3  0  0  0  0  0  0
  -21.6350   -6.9290   21.4040 O   0  0  0  0  0  0  0  0  0  0  0  0
  -21.5510   -6.2170   22.5740 C   0  0  0  0  0  0  0  0  0  0  0  0
  -21.0780   -6.8030   23.7680 C   0  0  0  0  0  3  0  0  0  0  0  0
  -20.9410   -6.0170   24.9290 C   0  0  0  0  0  3  0  0  0  0  0  0
  -21.2710   -4.6490   24.8970 C   0  0  0  0  0  0  0  0  0  0  0  0
  -21.7370   -4.0650   23.7070 C   0  0  0  0  0  3  0  0  0  0  0  0
  -21.8760   -4.8470   22.5490 C   0  0  0  0  0  0  0  0  0  0  0  0
  -22.3060   -4.2750   21.3970 F   0  0  0  0  0  0  0  0  0  0  0  0
  -21.1340   -3.8920   26.0120 F   0  0  0  0  0  0  0  0  0  0  0  0
  -22.7910  -13.5630   21.2090 C   0  0  0  0  0  0  0  0  0  0  0  0
  -22.1170  -12.8570   22.1100 N   0  0  0  0  0  0  0  0  0  0  0  0
  -22.3310  -14.6020   20.7410 O   0  0  0  0  0  0  0  0  0  0  0  0
  -22.5070  -12.0140   22.5070 H   0  0  0  0  0  0  0  0  0  0  0  0
  -21.1990  -13.1620   22.4020 H   0  0  0  0  0  0  0  0  0  0  0  0
  -25.3730  -15.2230   20.2620 N   0  0  0  0  0  0  0  0  0  0  0  0
  -24.6010  -15.8660   20.4030 H   0  0  0  0  0  0  0  0  0  0  0  0
  -26.1680  -15.6600   19.8140 H   0  0  0  0  0  0  0  0  0  0  0  0
  -31.7040  -18.4820   23.7610 C   0  0  0  0  0  1  0  0  0  0  0  0
  -30.5610  -18.2620   22.8490 N   0  0  0  0  0  4  0  0  0  0  0  0
  -30.4780  -17.2720   22.6820 H   0  0  0  0  0  0  0  0  0  0  0  0
  -29.7360  -18.5420   23.3550 H   0  0  0  0  0  0  0  0  0  0  0  0
  -28.7880  -24.8200   19.9410 C   0  0  0  0  0  2  0  0  0  0  0  0
  -28.3430  -26.2710   20.3310 O   0  0  0  0  0  0  0  0  0  0  0  0
  -24.5310  -31.8090   23.1050 C   0  0  0  0  0  0  0  0  0  0  0  0
  -27.2230  -27.1450   20.1130 C   0  0  0  0  0  0  0  0  0  0  0  0
  -23.3660  -30.4060   21.4370 C   0  0  0  0  0  3  0  0  0  0  0  0
  -24.8500  -28.8290   20.0350 C   0  0  0  0  0  0  0  0  0  0  0  0
  -25.9090  -30.7050   21.3040 C   0  0  0  0  0  2  0  0  0  0  0  0
  -26.0070  -29.3120   20.6550 C   0  0  0  0  0  0  0  0  0  0  0  0
  -27.1790  -28.4790   20.6840 C   0  0  0  0  0  3  0  0  0  0  0  0
  -26.0520  -26.7540   19.4320 C   0  0  0  0  0  3  0  0  0  0  0  0
  -24.8830  -27.5620   19.4120 C   0  0  0  0  0  3  0  0  0  0  0  0
  -23.6140  -29.7150   20.0640 C   0  0  0  0  0  2  0  0  0  0  0  0
  -24.6210  -30.9970   22.0060 N   0  0  0  0  0  0  0  0  0  0  0  0
  -23.4360  -32.0770   23.6260 O   0  0  0  0  0  0  0  0  0  0  0  0
  -22.6860  -29.4000   22.4010 C   0  0  0  0  0  0  0  0  0  0  0  0
  -21.3530  -29.2540   22.2940 N   0  0  0  0  0  0  0  0  0  0  0  0
  -23.3570  -28.7520   23.2070 O   0  0  0  0  0  0  0  0  0  0  0  0
  -20.8700  -29.8370   21.6250 H   0  0  0  0  0  0  0  0  0  0  0  0
  -17.9550  -28.1230   22.8520 C   0  0  0  0  0  0  0  0  0  0  0  0
  -20.5240  -28.3130   23.0540 C   0  0  0  0  0  3  0  0  0  0  0  0
  -20.5740  -26.8970   22.4360 C   0  0  0  0  0  2  0  0  0  0  0  0
  -19.4370  -26.6330   21.4430 C   0  0  0  0  0  2  0  0  0  0  0  0
  -18.0780  -26.7920   22.1300 C   0  0  0  0  0  2  0  0  0  0  0  0
  -19.1040  -28.8430   23.2710 C   0  0  0  0  0  0  0  0  0  0  0  0
  -18.9360  -30.0880   23.9170 C   0  0  0  0  0  3  0  0  0  0  0  0
  -17.6500  -30.6130   24.1410 C   0  0  0  0  0  3  0  0  0  0  0  0
  -16.5140  -29.8900   23.7340 C   0  0  0  0  0  3  0  0  0  0  0  0
  -16.6670  -28.6460   23.0940 C   0  0  0  0  0  3  0  0  0  0  0  0
  -25.7950  -32.4590   23.7500 C   0  0  0  0  0  3  0  0  0  0  0  0
  -26.3150  -31.6820   25.0230 C   0  0  1  0  0  0  0  0  0  0  0  0
  -25.2210  -31.4110   26.0840 C   0  0  0  0  0  1  0  0  0  0  0  0
  -26.9230  -30.3200   24.6210 C   0  0  0  0  0  1  0  0  0  0  0  0
  -27.4510  -32.4830   25.7040 C   0  0  0  0  0  1  0  0  0  0  0  0
  -25.4550  -33.8480   24.1070 N   0  0  0  0  0  0  0  0  0  0  0  0
  -25.7640  -34.9260   23.3750 C   0  0  0  0  0  0  0  0  0  0  0  0
  -26.4280  -34.8580   22.3380 O   0  0  0  0  0  0  0  0  0  0  0  0
  -24.8640  -33.9690   24.9160 H   0  0  0  0  0  0  0  0  0  0  0  0
  -23.9970  -36.6970   23.0820 C   0  0  0  0  0  1  0  0  0  0  0  0
  -25.2570  -36.2980   23.8650 C   0  0  0  0  0  3  0  0  0  0  0  0
  -27.3830  -37.2140   24.6830 C   0  0  0  0  0  1  0  0  0  0  0  0
  -26.2660  -37.3740   23.7580 N   0  0  0  0  0  0  0  0  0  0  0  0
  -25.8430  -38.2830   23.9310 H   0  0  0  0  0  0  0  0  0  0  0  0
  1  2  1  0
  1  3  1  0
  2  4  1  0
  3  5  1  0
  4 54  1  0
  4  5  1  0
  5  7  1  0
  5  6  1  1
  8 11  1  0
  9  7  1  0
  9 11  1  0
 10 20  1  0
 10  8  1  0
 10  9  1  0
 11 51  1  0
 12 20  1  0
 13 18  1  0
 14 15  1  0
 14 13  1  0
 16 15  1  0
 16 25  1  0
 16 17  1  0
 18 12  1  0
 18 17  1  0
 19 12  2  0
 20 21  1  0
 22 23  2  0
 23 42  1  0
 24 23  1  0
 24 27  1  0
 25 26  1  0
 25 22  1  0
 26 24  2  0
 27 28  1  0
 28 29  2  0
 30 33  1  0
 30 29  1  0
 31 30  2  0
 32 31  1  0
 32 27  2  0
 33 34  1  0
 34 35  1  0
 35 36  2  0
 37 36  1  0
 37 41  1  0
 38 37  2  0
 39 34  2  0
 39 38  1  0
 40 39  1  0
 42 43  1  0
 43 46  1  0
 43 45  1  0
 44 42  2  0
 47 48  1  0
 47 22  1  0
 49 47  1  0
 51 53  1  0
 51 50  1  0
 52 51  1  0
 54 55  1  0
 56 67  2  0
 57 55  1  0
 57 62  1  0
 58 66  1  0
 58 68  1  0
 59 65  1  0
 59 61  1  0
 60 66  1  0
 61 62  2  0
 61 60  1  0
 63 57  2  0
 64 63  1  0
 64 59  2  0
 65 58  1  0
 66 56  1  0
 68 70  2  0
 69 68  1  0
 71 69  1  0
 72 81  2  0
 72 77  1  0
 73 69  1  0
 73 77  1  0
 74 73  1  0
 75 76  1  0
 75 74  1  0
 76 72  1  0
 77 78  2  0
 78 79  1  0
 80 79  2  0
 81 80  1  0
 82 56  1  0
 82 87  1  0
 82 83  1  0
 83 86  1  1
 83 84  1  0
 85 83  1  0
 87 90  1  0
 88 92  1  0
 88 87  1  0
 89 88  2  0
 92 91  1  0
 94 92  1  0
 94 95  1  0
 94 93  1  0
M  ISO  4  12 100  20 100  54 101  55 101
M  END
>  <TORSDO>  (73) 
F 20

>  <SCORE>  (73) 
-13.730

>  <name>  (73) 
73

>  <ligand_id>  (73) 
73

>  <original_smiles>  (73) 
[H]c1c([H])c([H])c2c(c1[H])C([H])([H])C([H])([H])C([H])([H])C2([H])N([H])C(=O)C1([H])N(C(=O)C([H])(N([H])C(=O)C([H])(N([H])C([H])([H])[H])C([H])([H])[H])C(C([H])([H])[H])(C([H])([H])[H])C([H])([H])[H])C([H])([H])c2c([H])c(OC([H])([H])C3([H])C([H])([H])C([H])([H])C([H])([H])[N+]3([H])C([H])([H])C3([H])C([H])(N([H])C(=O)N4C([H])([H])C([H])([H])C([H])([H])C([H])(n5nc(-c6c([H])c([H])c(Oc7c([H])c([H])c(F)c([H])c7F)c([H])c6[H])c(C(=O)N([H])[H])c5N([H])[H])C4([H])[H])C([H])([H])C3([H])[N+]([H])([H])C([H])([H])[H])c([H])c([H])c2C1([H])[H]

>  <smiles>  (73) 
[H]c1c([H])c([H])c2c(c1[H])C([H])([H])C([H])([H])C([H])([H])C2([H])N([H])C(=O)C1([H])N(C(=O)C([H])(N([H])C(=O)C([H])(N([H])C([H])([H])[H])C([H])([H])[H])C(C([H])([H])[H])(C([H])([H])[H])C([H])([H])[H])C([H])([H])c2c([H])c(OC([H])([H])C3([H])C([H])([H])C([H])([H])C([H])([H])[N+]3([H])C([H])([H])C3([H])C([H])(N([H])C(=O)N4C([H])([H])C([H])([H])C([H])([H])C([H])(n5nc(-c6c([H])c([H])c(Oc7c([H])c([H])c(F)c([H])c7F)c([H])c6[H])c(C(=O)N([H])[H])c5N([H])[H])C4([H])[H])C([H])([H])C3([H])[N+]([H])([H])C([H])([H])[H])c([H])c([H])c2C1([H])[H]

$$$$
74:0:0
     RDKit          3D

 99108  0  0  1  0  0  0  0  0999 V2000
  -28.2150  -16.7570   20.5590 C   0  0  0  0  0  3  0  0  0  0  0  0
  -28.0820  -19.0730   19.7830 C   0  0  0  0  0  3  0  0  0  0  0  0
  -30.2240  -18.1130   20.4440 C   0  0  0  0  0  3  0  0  0  0  0  0
  -27.4510  -17.8480   20.0790 C   0  0  0  0  0  0  0  0  0  0  0  0
  -29.6130  -16.8720   20.7510 C   0  0  0  0  0  0  0  0  0  0  0  0
  -29.4670  -19.2200   19.9830 C   0  0  0  0  0  0  0  0  0  0  0  0
  -31.1510  -14.0170   19.6360 C   0  0  0  0  0  0  0  0  0  0  0  0
  -30.6940  -11.7380   18.7660 C   0  0  0  0  0  2  0  0  0  0  0  0
  -29.6600  -11.7260   17.6260 C   0  0  0  0  0  2  0  0  0  0  0  0
  -28.2310  -11.6710   18.1950 C   0  0  0  0  0  2  0  0  0  0  0  0
  -27.9890  -12.7390   19.2880 C   0  0  0  0  0  3  0  0  0  0  0  0
  -29.1090  -12.7180   20.3390 C   0  0  0  0  0  2  0  0  0  0  0  0
  -30.4060  -12.8790   19.6560 N   0  0  0  0  0  0  0  0  0  0  0  0
  -32.0720  -14.1870   18.8300 O   0  0  0  0  0  0  0  0  0  0  0  0
  -31.6370  -16.0490   22.2800 C   0  0  0  0  0  2  0  0  0  0  0  0
  -32.2280  -14.7350   21.7920 C   0  0  0  0  0  2  0  0  0  0  0  0
  -30.3540  -15.7400   21.4980 C   0  0  0  0  0  3  0  0  0  0  0  0
  -31.1500  -14.6900   20.8100 N   0  0  0  0  0  0  0  0  0  0  0  0
  -25.7550  -13.5460   20.2560 C   0  0  0  0  0  0  0  0  0  0  0  0
  -24.6690  -12.8870   20.7610 C   0  0  0  0  0  0  0  0  0  0  0  0
  -24.9910  -11.5000   20.6770 C   0  0  0  0  0  0  0  0  0  0  0  0
  -26.6790  -12.5800   19.9120 N   0  0  0  0  0  0  0  0  0  0  0  0
  -26.2270  -11.3370   20.2170 N   0  0  0  0  0  0  0  0  0  0  0  0
  -24.1680  -10.3190   20.9490 C   0  0  0  0  0  0  0  0  0  0  0  0
  -24.5930   -9.3210   21.8550 C   0  0  0  0  0  3  0  0  0  0  0  0
  -23.7770   -8.1980   22.1130 C   0  0  0  0  0  3  0  0  0  0  0  0
  -22.5270   -8.0670   21.4630 C   0  0  0  0  0  0  0  0  0  0  0  0
  -22.1190   -9.0520   20.5470 C   0  0  0  0  0  3  0  0  0  0  0  0
  -22.9320  -10.1670   20.2890 C   0  0  0  0  0  3  0  0  0  0  0  0
  -21.6830   -6.9980   21.6300 O   0  0  0  0  0  0  0  0  0  0  0  0
  -21.6570   -6.2760   22.7970 C   0  0  0  0  0  0  0  0  0  0  0  0
  -21.3620   -6.8810   24.0390 C   0  0  0  0  0  3  0  0  0  0  0  0
  -21.2770   -6.0910   25.2020 C   0  0  0  0  0  3  0  0  0  0  0  0
  -21.4770   -4.7010   25.1270 C   0  0  0  0  0  0  0  0  0  0  0  0
  -21.7680   -4.0970   23.8920 C   0  0  0  0  0  3  0  0  0  0  0  0
  -21.8540   -4.8820   22.7300 C   0  0  0  0  0  0  0  0  0  0  0  0
  -22.1120   -4.2940   21.5370 F   0  0  0  0  0  0  0  0  0  0  0  0
  -21.3890   -3.9400   26.2430 F   0  0  0  0  0  0  0  0  0  0  0  0
  -23.3660  -13.5000   21.1960 C   0  0  0  0  0  0  0  0  0  0  0  0
  -22.6860  -12.8890   22.1600 N   0  0  0  0  0  0  0  0  0  0  0  0
  -22.9690  -14.5610   20.7140 O   0  0  0  0  0  0  0  0  0  0  0  0
  -23.0250  -12.0340   22.5800 H   0  0  0  0  0  0  0  0  0  0  0  0
  -21.8190  -13.2870   22.4930 H   0  0  0  0  0  0  0  0  0  0  0  0
  -26.0260  -14.8810   20.0340 N   0  0  0  0  0  0  0  0  0  0  0  0
  -25.3850  -15.6250   20.2890 H   0  0  0  0  0  0  0  0  0  0  0  0
  -26.9000  -15.2240   19.6470 H   0  0  0  0  0  0  0  0  0  0  0  0
  -25.9670  -17.7430   19.9500 C   0  0  0  0  0  0  0  0  0  0  0  0
  -25.3250  -17.5160   21.0890 N   0  0  0  0  0  0  0  0  0  0  0  0
  -25.4020  -17.8280   18.8600 O   0  0  0  0  0  0  0  0  0  0  0  0
  -25.8280  -17.5760   21.9620 H   0  0  0  0  0  0  0  0  0  0  0  0
  -24.3460  -17.2750   21.1110 H   0  0  0  0  0  0  0  0  0  0  0  0
  -30.1330  -20.5850   19.8290 C   0  0  0  0  0  2  0  0  0  0  0  0
  -29.1020  -22.8820   19.7630 C   0  0  0  0  0  0  0  0  0  0  0  0
  -29.3120  -21.6610   19.2380 N   0  0  0  0  0  0  0  0  0  0  0  0
  -29.4100  -23.1490   20.9280 O   0  0  0  0  0  0  0  0  0  0  0  0
  -28.9800  -21.5010   18.2960 H   0  0  0  0  0  0  0  0  0  0  0  0
  -28.5000  -23.9720   18.8430 C   0  0  0  0  0  2  0  0  0  0  0  0
  -28.2510  -25.3500   19.5050 C   0  0  0  0  0  2  0  0  0  0  0  0
  -28.0660  -26.3960   18.5230 O   0  0  0  0  0  0  0  0  0  0  0  0
  -24.7030  -31.0180   22.7190 C   0  0  0  0  0  0  0  0  0  0  0  0
  -26.9340  -27.1560   18.7180 C   0  0  0  0  0  0  0  0  0  0  0  0
  -23.3040  -29.9080   20.9950 C   0  0  0  0  0  3  0  0  0  0  0  0
  -24.5780  -28.6330   19.1910 C   0  0  0  0  0  0  0  0  0  0  0  0
  -25.7990  -30.3060   20.5920 C   0  0  0  0  0  2  0  0  0  0  0  0
  -25.7930  -29.0560   19.7430 C   0  0  0  0  0  0  0  0  0  0  0  0
  -26.9770  -28.3180   19.5130 C   0  0  0  0  0  3  0  0  0  0  0  0
  -25.7140  -26.7520   18.1410 C   0  0  0  0  0  3  0  0  0  0  0  0
  -24.5330  -27.4810   18.3870 C   0  0  0  0  0  3  0  0  0  0  0  0
  -23.3550  -29.4650   19.5020 C   0  0  0  0  0  2  0  0  0  0  0  0
  -24.6220  -30.4240   21.4930 N   0  0  0  0  0  0  0  0  0  0  0  0
  -23.6920  -31.1720   23.4180 O   0  0  0  0  0  0  0  0  0  0  0  0
  -22.7570  -28.7330   21.8390 C   0  0  0  0  0  0  0  0  0  0  0  0
  -21.4350  -28.5120   21.7640 N   0  0  0  0  0  0  0  0  0  0  0  0
  -23.5150  -28.0280   22.5080 O   0  0  0  0  0  0  0  0  0  0  0  0
  -20.8750  -29.1350   21.2000 H   0  0  0  0  0  0  0  0  0  0  0  0
  -18.1670  -27.0260   22.1850 C   0  0  0  0  0  0  0  0  0  0  0  0
  -20.7070  -27.4350   22.4420 C   0  0  0  0  0  3  0  0  0  0  0  0
  -20.8950  -26.0920   21.6970 C   0  0  0  0  0  2  0  0  0  0  0  0
  -19.7920  -25.8090   20.6730 C   0  0  0  0  0  2  0  0  0  0  0  0
  -18.4190  -25.7800   21.3530 C   0  0  0  0  0  2  0  0  0  0  0  0
  -19.2400  -27.8120   22.6820 C   0  0  0  0  0  0  0  0  0  0  0  0
  -18.9530  -28.9840   23.4170 C   0  0  0  0  0  3  0  0  0  0  0  0
  -17.6210  -29.3680   23.6640 C   0  0  0  0  0  3  0  0  0  0  0  0
  -16.5620  -28.5780   23.1770 C   0  0  0  0  0  3  0  0  0  0  0  0
  -16.8340  -27.4090   22.4430 C   0  0  0  0  0  3  0  0  0  0  0  0
  -26.0570  -31.5380   23.2910 C   0  0  0  0  0  3  0  0  0  0  0  0
  -25.8050  -32.8580   23.8870 N   0  0  0  0  0  0  0  0  0  0  0  0
  -26.1300  -34.0280   23.3180 C   0  0  0  0  0  0  0  0  0  0  0  0
  -26.7430  -34.1080   22.2510 O   0  0  0  0  0  0  0  0  0  0  0  0
  -25.2640  -32.8690   24.7390 H   0  0  0  0  0  0  0  0  0  0  0  0
  -24.4610  -35.9120   23.3500 C   0  0  0  0  0  1  0  0  0  0  0  0
  -25.6980  -35.3150   24.0460 C   0  0  0  0  0  3  0  0  0  0  0  0
  -27.8740  -35.9500   24.9880 C   0  0  0  0  0  1  0  0  0  0  0  0
  -26.7620  -36.3400   24.1200 N   0  0  0  0  0  0  0  0  0  0  0  0
  -26.3890  -37.2280   24.4480 H   0  0  0  0  0  0  0  0  0  0  0  0
  -26.7030  -30.5670   24.3530 C   0  0  1  0  0  0  0  0  0  0  0  0
  -25.7380  -30.1550   25.4880 C   0  0  0  0  0  1  0  0  0  0  0  0
  -27.2140  -29.2780   23.6710 C   0  0  0  0  0  1  0  0  0  0  0  0
  -27.9290  -31.2450   25.0090 C   0  0  0  0  0  1  0  0  0  0  0  0
  1  5  1  0
  2  6  2  0
  2  4  1  0
  3  5  2  0
  4  1  2  0
  6  3  1  0
  7 13  1  0
  7 18  1  0
  8 13  1  0
  9 10  1  0
  9  8  1  0
 11 10  1  0
 11 22  1  0
 11 12  1  0
 13 12  1  0
 14  7  2  0
 16 15  1  0
 17  5  1  0
 17 15  1  0
 18 17  1  0
 18 16  1  0
 19 20  2  0
 20 39  1  0
 21 20  1  0
 21 24  1  0
 22 23  1  0
 22 19  1  0
 23 21  2  0
 24 25  1  0
 25 26  2  0
 27 30  1  0
 27 26  1  0
 28 27  2  0
 29 28  1  0
 29 24  2  0
 30 31  1  0
 31 32  1  0
 32 33  2  0
 34 33  1  0
 34 38  1  0
 35 34  2  0
 36 31  2  0
 36 35  1  0
 37 36  1  0
 39 40  1  0
 40 43  1  0
 40 42  1  0
 41 39  2  0
 44 19  1  0
 44 45  1  0
 46 44  1  0
 47  4  1  0
 47 48  1  0
 48 51  1  0
 48 50  1  0
 49 47  2  0
 52  6  1  0
 53 55  2  0
 54 53  1  0
 54 52  1  0
 56 54  1  0
 57 58  1  0
 57 53  1  0
 59 61  1  0
 59 58  1  0
 60 71  2  0
 61 66  1  0
 62 70  1  0
 62 72  1  0
 63 69  1  0
 63 65  1  0
 64 70  1  0
 65 64  1  0
 66 65  2  0
 67 68  1  0
 67 61  2  0
 68 63  2  0
 69 62  1  0
 70 60  1  0
 72 74  2  0
 73 72  1  0
 75 73  1  0
 76 85  2  0
 76 81  1  0
 77 73  1  0
 77 81  1  0
 78 77  1  0
 79 80  1  0
 79 78  1  0
 80 76  1  0
 81 82  2  0
 82 83  1  0
 84 83  2  0
 85 84  1  0
 86 60  1  0
 86 87  1  0
 86 96  1  0
 87 90  1  0
 88 87  1  0
 88 92  1  0
 89 88  2  0
 92 91  1  0
 92 94  1  0
 94 95  1  0
 94 93  1  0
 96 99  1  1
 96 97  1  0
 98 96  1  0
M  ISO  4   7 100  18 100  58 101  59 101
M  END
>  <TORSDO>  (74) 
F 21

>  <SCORE>  (74) 
-7.826

>  <name>  (74) 
74

>  <ligand_id>  (74) 
74

>  <original_smiles>  (74) 
[H]c1c([H])c([H])c2c(c1[H])C([H])([H])C([H])([H])C([H])([H])C2([H])N([H])C(=O)C1([H])N(C(=O)C([H])(N([H])C(=O)C([H])(N([H])C([H])([H])[H])C([H])([H])[H])C(C([H])([H])[H])(C([H])([H])[H])C([H])([H])[H])C([H])([H])c2c([H])c(OC([H])([H])C([H])([H])C(=O)N([H])C([H])([H])c3c([H])c(C(=O)N([H])[H])c([H])c(C4([H])N(C(=O)N5C([H])([H])C([H])([H])C([H])([H])C([H])(n6nc(-c7c([H])c([H])c(Oc8c([H])c([H])c(F)c([H])c8F)c([H])c7[H])c(C(=O)N([H])[H])c6N([H])[H])C5([H])[H])C([H])([H])C4([H])[H])c3[H])c([H])c([H])c2C1([H])[H]

>  <smiles>  (74) 
[H]c1c([H])c([H])c2c(c1[H])C([H])([H])C([H])([H])C([H])([H])C2([H])N([H])C(=O)C1([H])N(C(=O)C([H])(N([H])C(=O)C([H])(N([H])C([H])([H])[H])C([H])([H])[H])C(C([H])([H])[H])(C([H])([H])[H])C([H])([H])[H])C([H])([H])c2c([H])c(OC([H])([H])C([H])([H])C(=O)N([H])C([H])([H])c3c([H])c(C(=O)N([H])[H])c([H])c(C4([H])N(C(=O)N5C([H])([H])C([H])([H])C([H])([H])C([H])(n6nc(-c7c([H])c([H])c(Oc8c([H])c([H])c(F)c([H])c8F)c([H])c7[H])c(C(=O)N([H])[H])c6N([H])[H])C5([H])[H])C([H])([H])C4([H])[H])c3[H])c([H])c([H])c2C1([H])[H]

$$$$
75:0:0
     RDKit          3D

 90 99  0  0  1  0  0  0  0  0999 V2000
  -28.3730  -19.6720   20.4140 C   0  0  0  0  0  3  0  0  0  0  0  0
  -30.7170  -19.8860   20.2630 C   0  0  0  0  0  3  0  0  0  0  0  0
  -28.2110  -21.1090   20.2460 C   0  0  0  0  0  3  0  0  0  0  0  0
  -30.5560  -21.3170   20.0930 C   0  0  0  0  0  3  0  0  0  0  0  0
  -29.6320  -18.9720   20.4480 C   0  0  0  0  0  0  0  0  0  0  0  0
  -29.3030  -22.0240   20.1000 C   0  0  0  0  0  0  0  0  0  0  0  0
  -30.5850  -14.9140   20.0460 C   0  0  0  0  0  0  0  0  0  0  0  0
  -30.3910  -12.6340   18.9400 C   0  0  0  0  0  2  0  0  0  0  0  0
  -29.3740  -12.6670   17.7750 C   0  0  0  0  0  2  0  0  0  0  0  0
  -27.9350  -12.4550   18.2850 C   0  0  0  0  0  2  0  0  0  0  0  0
  -27.6200  -13.3210   19.5320 C   0  0  0  0  0  3  0  0  0  0  0  0
  -28.7400  -13.2220   20.5870 C   0  0  0  0  0  2  0  0  0  0  0  0
  -29.9880  -13.6600   19.9400 N   0  0  0  0  0  0  0  0  0  0  0  0
  -31.6870  -15.0830   19.5110 O   0  0  0  0  0  0  0  0  0  0  0  0
  -30.8860  -17.1870   22.1240 C   0  0  0  0  0  2  0  0  0  0  0  0
  -30.2510  -15.7960   22.1840 C   0  0  0  0  0  2  0  0  0  0  0  0
  -29.7950  -17.4860   21.1250 C   0  0  0  0  0  3  0  0  0  0  0  0
  -29.9010  -15.9400   20.7420 N   0  0  0  0  0  0  0  0  0  0  0  0
  -25.2770  -13.8890   20.4010 C   0  0  0  0  0  0  0  0  0  0  0  0
  -24.2360  -13.1050   20.8170 C   0  0  0  0  0  0  0  0  0  0  0  0
  -24.7010  -11.7560   20.7420 C   0  0  0  0  0  0  0  0  0  0  0  0
  -26.3080  -13.0170   20.0930 N   0  0  0  0  0  0  0  0  0  0  0  0
  -25.9730  -11.7280   20.3600 N   0  0  0  0  0  0  0  0  0  0  0  0
  -23.9890  -10.4880   20.9540 C   0  0  0  0  0  0  0  0  0  0  0  0
  -24.4530   -9.5250   21.8760 C   0  0  0  0  0  3  0  0  0  0  0  0
  -23.7400   -8.3240   22.0770 C   0  0  0  0  0  3  0  0  0  0  0  0
  -22.5490   -8.0760   21.3540 C   0  0  0  0  0  0  0  0  0  0  0  0
  -22.1030   -9.0280   20.4200 C   0  0  0  0  0  3  0  0  0  0  0  0
  -22.8170  -10.2220   20.2180 C   0  0  0  0  0  3  0  0  0  0  0  0
  -21.8050   -6.9270   21.4630 O   0  0  0  0  0  0  0  0  0  0  0  0
  -21.7610   -6.2060   22.6300 C   0  0  0  0  0  0  0  0  0  0  0  0
  -21.3360   -6.7830   23.8460 C   0  0  0  0  0  3  0  0  0  0  0  0
  -21.2410   -5.9880   25.0070 C   0  0  0  0  0  3  0  0  0  0  0  0
  -21.5610   -4.6170   24.9500 C   0  0  0  0  0  0  0  0  0  0  0  0
  -21.9790   -4.0420   23.7370 C   0  0  0  0  0  3  0  0  0  0  0  0
  -22.0760   -4.8330   22.5800 C   0  0  0  0  0  0  0  0  0  0  0  0
  -22.4590   -4.2690   21.4100 F   0  0  0  0  0  0  0  0  0  0  0  0
  -21.4620   -3.8510   26.0610 F   0  0  0  0  0  0  0  0  0  0  0  0
  -22.8540  -13.5730   21.1710 C   0  0  0  0  0  0  0  0  0  0  0  0
  -22.1770  -12.8650   22.0680 N   0  0  0  0  0  0  0  0  0  0  0  0
  -22.3840  -14.6020   20.6860 O   0  0  0  0  0  0  0  0  0  0  0  0
  -22.5710  -12.0320   22.4800 H   0  0  0  0  0  0  0  0  0  0  0  0
  -21.2540  -13.1610   22.3490 H   0  0  0  0  0  0  0  0  0  0  0  0
  -25.4300  -15.2620   20.2390 N   0  0  0  0  0  0  0  0  0  0  0  0
  -24.6760  -15.9150   20.4170 H   0  0  0  0  0  0  0  0  0  0  0  0
  -26.2670  -15.7080   19.8880 H   0  0  0  0  0  0  0  0  0  0  0  0
  -29.3200  -23.8580   18.3000 C   0  0  0  0  0  1  0  0  0  0  0  0
  -29.2500  -23.6460   19.8190 C   0  0  0  0  0  3  0  0  0  0  0  0
  -28.1840  -24.7720   20.4080 C   0  0  0  0  0  2  0  0  0  0  0  0
  -28.3860  -26.2960   20.2280 O   0  0  0  0  0  0  0  0  0  0  0  0
  -24.7090  -31.9020   23.2280 C   0  0  0  0  0  0  0  0  0  0  0  0
  -27.2950  -27.2230   20.2060 C   0  0  0  0  0  0  0  0  0  0  0  0
  -23.5030  -30.4960   21.6010 C   0  0  0  0  0  3  0  0  0  0  0  0
  -24.9490  -28.9220   20.1780 C   0  0  0  0  0  0  0  0  0  0  0  0
  -26.0500  -30.7850   21.4120 C   0  0  0  0  0  2  0  0  0  0  0  0
  -26.1260  -29.3900   20.7750 C   0  0  0  0  0  0  0  0  0  0  0  0
  -27.3010  -28.5560   20.7710 C   0  0  0  0  0  3  0  0  0  0  0  0
  -26.0920  -26.8470   19.5680 C   0  0  0  0  0  3  0  0  0  0  0  0
  -24.9400  -27.6630   19.5600 C   0  0  0  0  0  3  0  0  0  0  0  0
  -23.7170  -29.8110   20.2230 C   0  0  0  0  0  2  0  0  0  0  0  0
  -24.7750  -31.0820   22.1350 N   0  0  0  0  0  0  0  0  0  0  0  0
  -23.6260  -32.1820   23.7640 O   0  0  0  0  0  0  0  0  0  0  0  0
  -22.8370  -29.4880   22.5700 C   0  0  0  0  0  0  0  0  0  0  0  0
  -21.5120  -29.3000   22.4430 N   0  0  0  0  0  0  0  0  0  0  0  0
  -23.5160  -28.8770   23.4000 O   0  0  0  0  0  0  0  0  0  0  0  0
  -21.0170  -29.8450   21.7490 H   0  0  0  0  0  0  0  0  0  0  0  0
  -18.1510  -28.0460   22.9260 C   0  0  0  0  0  0  0  0  0  0  0  0
  -20.7010  -28.3630   23.2230 C   0  0  0  0  0  3  0  0  0  0  0  0
  -20.8380  -26.9210   22.6800 C   0  0  0  0  0  2  0  0  0  0  0  0
  -19.7570  -26.5580   21.6570 C   0  0  0  0  0  2  0  0  0  0  0  0
  -18.3630  -26.6880   22.2780 C   0  0  0  0  0  2  0  0  0  0  0  0
  -19.2470  -28.8400   23.3550 C   0  0  0  0  0  0  0  0  0  0  0  0
  -18.9930  -30.1090   23.9190 C   0  0  0  0  0  3  0  0  0  0  0  0
  -17.6760  -30.5850   24.0580 C   0  0  0  0  0  3  0  0  0  0  0  0
  -16.5940  -29.7890   23.6440 C   0  0  0  0  0  3  0  0  0  0  0  0
  -16.8310  -28.5210   23.0830 C   0  0  0  0  0  3  0  0  0  0  0  0
  -25.9920  -32.5460   23.8440 C   0  0  0  0  0  3  0  0  0  0  0  0
  -25.6710  -33.9400   24.1880 N   0  0  0  0  0  0  0  0  0  0  0  0
  -25.9850  -35.0030   23.4360 C   0  0  0  0  0  0  0  0  0  0  0  0
  -26.6400  -34.9140   22.3930 O   0  0  0  0  0  0  0  0  0  0  0  0
  -25.0940  -34.0820   25.0030 H   0  0  0  0  0  0  0  0  0  0  0  0
  -24.2370  -36.7840   23.1210 C   0  0  0  0  0  1  0  0  0  0  0  0
  -25.4930  -36.3840   23.9130 C   0  0  0  0  0  3  0  0  0  0  0  0
  -27.6340  -37.2770   24.7160 C   0  0  0  0  0  1  0  0  0  0  0  0
  -26.5140  -37.4480   23.7940 N   0  0  0  0  0  0  0  0  0  0  0  0
  -26.1030  -38.3620   23.9600 H   0  0  0  0  0  0  0  0  0  0  0  0
  -26.5210  -31.7740   25.1130 C   0  0  1  0  0  0  0  0  0  0  0  0
  -25.4390  -31.5250   26.1890 C   0  0  0  0  0  1  0  0  0  0  0  0
  -27.1100  -30.4010   24.7120 C   0  0  0  0  0  1  0  0  0  0  0  0
  -27.6720  -32.5720   25.7690 C   0  0  0  0  0  1  0  0  0  0  0  0
  1  5  1  0
  2  5  2  0
  3  1  2  0
  4  6  2  0
  4  2  1  0
  6  3  1  0
  7 18  1  0
  8 13  1  0
  9 10  1  0
  9  8  1  0
 11 10  1  0
 11 22  1  0
 11 12  1  0
 13  7  1  0
 13 12  1  0
 14  7  2  0
 15 16  1  0
 17  5  1  0
 17 15  1  0
 18 17  1  0
 18 16  1  0
 19 20  2  0
 20 39  1  0
 21 20  1  0
 21 24  1  0
 22 23  1  0
 22 19  1  0
 23 21  2  0
 24 25  1  0
 25 26  2  0
 27 30  1  0
 27 26  1  0
 28 27  2  0
 29 28  1  0
 29 24  2  0
 30 31  1  0
 31 32  1  0
 32 33  2  0
 34 33  1  0
 34 38  1  0
 35 34  2  0
 36 31  2  0
 36 35  1  0
 37 36  1  0
 39 40  1  0
 40 43  1  0
 40 42  1  0
 41 39  2  0
 44 19  1  0
 44 45  1  0
 46 44  1  0
 48 47  1  0
 48  6  1  0
 48 49  1  0
 50 49  1  0
 51 62  2  0
 52 50  1  0
 52 57  1  0
 53 61  1  0
 53 63  1  0
 54 60  1  0
 54 56  1  0
 55 61  1  0
 56 55  1  0
 57 56  2  0
 58 52  2  0
 59 58  1  0
 59 54  2  0
 60 53  1  0
 61 51  1  0
 63 65  2  0
 64 63  1  0
 66 64  1  0
 67 76  2  0
 67 72  1  0
 68 64  1  0
 68 72  1  0
 69 68  1  0
 70 71  1  0
 70 69  1  0
 71 67  1  0
 72 73  2  0
 73 74  1  0
 75 74  2  0
 76 75  1  0
 77 51  1  0
 77 78  1  0
 77 87  1  0
 78 81  1  0
 79 83  1  0
 79 78  1  0
 80 79  2  0
 83 82  1  0
 85 83  1  0
 85 86  1  0
 85 84  1  0
 87 90  1  1
 87 88  1  0
 89 87  1  0
M  ISO  4   7 100  18 100  49 101  50 101
M  END
>  <TORSDO>  (75) 
F 18

>  <SCORE>  (75) 
-14.303

>  <name>  (75) 
75

>  <ligand_id>  (75) 
75

>  <original_smiles>  (75) 
[H]c1c([H])c([H])c2c(c1[H])C([H])([H])C([H])([H])C([H])([H])C2([H])N([H])C(=O)C1([H])N(C(=O)C([H])(N([H])C(=O)C([H])(N([H])C([H])([H])[H])C([H])([H])[H])C(C([H])([H])[H])(C([H])([H])[H])C([H])([H])[H])C([H])([H])c2c([H])c(OC([H])([H])C([H])(c3c([H])c([H])c(C4([H])N(C(=O)N5C([H])([H])C([H])([H])C([H])([H])C([H])(n6nc(-c7c([H])c([H])c(Oc8c([H])c([H])c(F)c([H])c8F)c([H])c7[H])c(C(=O)N([H])[H])c6N([H])[H])C5([H])[H])C([H])([H])C4([H])[H])c([H])c3[H])C([H])([H])[H])c([H])c([H])c2C1([H])[H]

>  <smiles>  (75) 
[H]c1c([H])c([H])c2c(c1[H])C([H])([H])C([H])([H])C([H])([H])C2([H])N([H])C(=O)C1([H])N(C(=O)C([H])(N([H])C(=O)C([H])(N([H])C([H])([H])[H])C([H])([H])[H])C(C([H])([H])[H])(C([H])([H])[H])C([H])([H])[H])C([H])([H])c2c([H])c(OC([H])([H])C([H])(c3c([H])c([H])c(C4([H])N(C(=O)N5C([H])([H])C([H])([H])C([H])([H])C([H])(n6nc(-c7c([H])c([H])c(Oc8c([H])c([H])c(F)c([H])c8F)c([H])c7[H])c(C(=O)N([H])[H])c6N([H])[H])C5([H])[H])C([H])([H])C4([H])[H])c([H])c3[H])C([H])([H])[H])c([H])c([H])c2C1([H])[H]

$$$$
76:0:0
     RDKit          3D

100107  0  0  1  0  0  0  0  0999 V2000
  -26.4160  -19.6810   20.0710 C   0  0  0  0  0  2  0  0  0  0  0  0
  -27.1270  -18.3880   19.9790 N   0  0  0  0  0  4  0  0  0  0  0  0
  -26.5250  -17.6970   20.4000 H   0  0  0  0  0  0  0  0  0  0  0  0
  -27.9640  -18.4170   20.5360 H   0  0  0  0  0  0  0  0  0  0  0  0
  -27.4330  -17.9040   18.6170 C   0  0  0  0  0  2  0  0  0  0  0  0
  -28.8890  -18.1830   18.2020 C   0  0  0  0  0  2  0  0  0  0  0  0
  -29.7980  -16.9350   18.2560 C   0  0  0  0  0  2  0  0  0  0  0  0
  -30.4730  -16.5830   19.6170 C   0  0  0  0  0  3  0  0  0  0  0  0
  -32.3510  -14.8130   19.9500 C   0  0  0  0  0  0  0  0  0  0  0  0
  -32.4330  -12.5650   20.9440 C   0  0  0  0  0  2  0  0  0  0  0  0
  -31.7720  -11.5350   20.0050 C   0  0  0  0  0  2  0  0  0  0  0  0
  -30.2520  -11.4610   20.2530 C   0  0  0  0  0  2  0  0  0  0  0  0
  -29.5830  -12.8610   20.3080 C   0  0  0  0  0  3  0  0  0  0  0  0
  -30.3850  -13.7960   21.2380 C   0  0  0  0  0  2  0  0  0  0  0  0
  -31.7640  -13.8630   20.7330 N   0  0  0  0  0  0  0  0  0  0  0  0
  -33.5280  -14.7340   19.5950 O   0  0  0  0  0  0  0  0  0  0  0  0
  -31.6050  -15.7130   19.2850 N   0  0  0  0  0  0  0  0  0  0  0  0
  -32.1600  -16.0980   18.5340 H   0  0  0  0  0  0  0  0  0  0  0  0
  -27.2530  -13.7770   20.8990 C   0  0  0  0  0  0  0  0  0  0  0  0
  -26.0750  -13.1520   21.2090 C   0  0  0  0  0  0  0  0  0  0  0  0
  -26.3510  -11.7520   21.1670 C   0  0  0  0  0  0  0  0  0  0  0  0
  -28.1820  -12.7670   20.7090 N   0  0  0  0  0  0  0  0  0  0  0  0
  -27.6370  -11.5430   20.9230 N   0  0  0  0  0  0  0  0  0  0  0  0
  -25.4530  -10.5970   21.2890 C   0  0  0  0  0  0  0  0  0  0  0  0
  -25.4800   -9.7550   22.4230 C   0  0  0  0  0  3  0  0  0  0  0  0
  -24.5910   -8.6630   22.5240 C   0  0  0  0  0  3  0  0  0  0  0  0
  -23.6620   -8.4080   21.4880 C   0  0  0  0  0  0  0  0  0  0  0  0
  -23.6550   -9.2350   20.3520 C   0  0  0  0  0  3  0  0  0  0  0  0
  -24.5450  -10.3170   20.2500 C   0  0  0  0  0  3  0  0  0  0  0  0
  -22.7780   -7.3570   21.4880 O   0  0  0  0  0  0  0  0  0  0  0  0
  -22.1120   -6.9760   22.6250 C   0  0  0  0  0  0  0  0  0  0  0  0
  -21.2330   -7.8500   23.3020 C   0  0  0  0  0  3  0  0  0  0  0  0
  -20.5190   -7.3960   24.4290 C   0  0  0  0  0  3  0  0  0  0  0  0
  -20.6750   -6.0680   24.8730 C   0  0  0  0  0  0  0  0  0  0  0  0
  -21.5450   -5.1960   24.1960 C   0  0  0  0  0  3  0  0  0  0  0  0
  -22.2590   -5.6480   23.0740 C   0  0  0  0  0  0  0  0  0  0  0  0
  -23.0820   -4.7990   22.4140 F   0  0  0  0  0  0  0  0  0  0  0  0
  -19.9830   -5.6280   25.9500 F   0  0  0  0  0  0  0  0  0  0  0  0
  -24.7420  -13.8120   21.4230 C   0  0  0  0  0  0  0  0  0  0  0  0
  -23.8880  -13.2210   22.2520 N   0  0  0  0  0  0  0  0  0  0  0  0
  -24.4710  -14.8840   20.8870 O   0  0  0  0  0  0  0  0  0  0  0  0
  -24.1140  -12.3460   22.7010 H   0  0  0  0  0  0  0  0  0  0  0  0
  -22.9860  -13.6430   22.4260 H   0  0  0  0  0  0  0  0  0  0  0  0
  -27.5990  -15.1140   20.7350 N   0  0  0  0  0  0  0  0  0  0  0  0
  -26.8480  -15.7850   20.6190 H   0  0  0  0  0  0  0  0  0  0  0  0
  -28.4250  -15.3560   20.2030 H   0  0  0  0  0  0  0  0  0  0  0  0
  -30.9680  -17.8460   20.3840 C   0  0  0  0  0  2  0  0  0  0  0  0
  -29.8890  -18.7830   20.7450 N   0  0  0  0  0  4  0  0  0  0  0  0
  -29.4190  -19.1360   19.9310 H   0  0  0  0  0  0  0  0  0  0  0  0
  -30.2780  -19.5700   21.2350 H   0  0  0  0  0  0  0  0  0  0  0  0
  -29.2200  -18.3510   21.3570 H   0  0  0  0  0  0  0  0  0  0  0  0
  -27.3180  -20.9010   19.7850 C   0  0  0  0  0  2  0  0  0  0  0  0
  -26.5860  -22.2330   20.0270 C   0  0  0  0  0  2  0  0  0  0  0  0
  -27.5190  -23.4070   20.3750 C   0  0  0  0  0  2  0  0  0  0  0  0
  -29.3580  -24.6080   19.2360 C   0  0  0  0  0  0  0  0  0  0  0  0
  -28.1750  -23.9780   19.2020 N   0  0  0  0  0  0  0  0  0  0  0  0
  -30.1200  -24.5330   20.2040 O   0  0  0  0  0  0  0  0  0  0  0  0
  -27.6180  -24.0810   18.3630 H   0  0  0  0  0  0  0  0  0  0  0  0
  -29.7160  -25.5190   18.0470 C   0  0  0  0  0  2  0  0  0  0  0  0
  -29.6390  -26.8980   18.4350 O   0  0  0  0  0  0  0  0  0  0  0  0
  -25.9720  -29.7260   23.8180 C   0  0  0  0  0  0  0  0  0  0  0  0
  -28.4260  -27.4250   18.8300 C   0  0  0  0  0  0  0  0  0  0  0  0
  -24.6510  -29.1590   21.8060 C   0  0  0  0  0  3  0  0  0  0  0  0
  -25.9970  -28.5600   19.7270 C   0  0  0  0  0  0  0  0  0  0  0  0
  -27.1320  -29.7480   21.6110 C   0  0  0  0  0  2  0  0  0  0  0  0
  -27.1900  -28.8380   20.4030 C   0  0  0  0  0  0  0  0  0  0  0  0
  -28.4050  -28.2770   19.9560 C   0  0  0  0  0  3  0  0  0  0  0  0
  -27.2110  -27.1570   18.1570 C   0  0  0  0  0  3  0  0  0  0  0  0
  -26.0000  -27.7120   18.6060 C   0  0  0  0  0  3  0  0  0  0  0  0
  -24.7410  -29.2100   20.2580 C   0  0  0  0  0  2  0  0  0  0  0  0
  -25.9420  -29.5320   22.4680 N   0  0  0  0  0  0  0  0  0  0  0  0
  -24.9420  -29.6420   24.5010 O   0  0  0  0  0  0  0  0  0  0  0  0
  -24.1280  -27.7660   22.2250 C   0  0  0  0  0  0  0  0  0  0  0  0
  -22.8540  -27.4870   21.9030 N   0  0  0  0  0  0  0  0  0  0  0  0
  -24.8640  -26.9560   22.7950 O   0  0  0  0  0  0  0  0  0  0  0  0
  -22.3140  -28.2060   21.4400 H   0  0  0  0  0  0  0  0  0  0  0  0
  -19.7580  -25.7070   21.3540 C   0  0  0  0  0  0  0  0  0  0  0  0
  -22.1570  -26.2280   22.1620 C   0  0  0  0  0  3  0  0  0  0  0  0
  -22.6190  -25.1270   21.1790 C   0  0  0  0  0  2  0  0  0  0  0  0
  -21.7370  -25.0250   19.9300 C   0  0  0  0  0  2  0  0  0  0  0  0
  -20.2870  -24.7260   20.3210 C   0  0  0  0  0  2  0  0  0  0  0  0
  -20.6380  -26.4250   22.2060 C   0  0  0  0  0  0  0  0  0  0  0  0
  -20.0990  -27.3510   23.1250 C   0  0  0  0  0  3  0  0  0  0  0  0
  -18.7100  -27.5630   23.2020 C   0  0  0  0  0  3  0  0  0  0  0  0
  -17.8420  -26.8390   22.3680 C   0  0  0  0  0  3  0  0  0  0  0  0
  -18.3650  -25.9110   21.4490 C   0  0  0  0  0  3  0  0  0  0  0  0
  -27.2950  -30.0880   24.5620 C   0  0  0  0  0  3  0  0  0  0  0  0
  -27.0710  -31.3540   25.2710 N   0  0  0  0  0  0  0  0  0  0  0  0
  -27.5760  -32.5370   24.8950 C   0  0  0  0  0  0  0  0  0  0  0  0
  -28.3490  -32.6620   23.9420 O   0  0  0  0  0  0  0  0  0  0  0  0
  -26.4030  -31.3370   26.0270 H   0  0  0  0  0  0  0  0  0  0  0  0
  -26.1180  -34.5880   24.9130 C   0  0  0  0  0  1  0  0  0  0  0  0
  -27.1560  -33.7790   25.7070 C   0  0  0  0  0  3  0  0  0  0  0  0
  -29.1920  -34.0470   27.0530 C   0  0  0  0  0  1  0  0  0  0  0  0
  -28.2930  -34.6520   26.0750 N   0  0  0  0  0  0  0  0  0  0  0  0
  -27.9610  -35.5350   26.4530 H   0  0  0  0  0  0  0  0  0  0  0  0
  -27.7720  -28.9640   25.5630 C   0  0  1  0  0  0  0  0  0  0  0  0
  -26.6800  -28.5120   26.5590 C   0  0  0  0  0  1  0  0  0  0  0  0
  -28.2510  -27.7150   24.7870 C   0  0  0  0  0  1  0  0  0  0  0  0
  -28.9830  -29.4710   26.3800 C   0  0  0  0  0  1  0  0  0  0  0  0
  2  1  1  0
  2  3  1  0
  2  4  1  0
  5  2  1  0
  6  7  1  0
  6  5  1  0
  8  7  1  0
  8 47  1  0
  9 15  1  0
 11 12  1  0
 11 10  1  0
 13 12  1  0
 13 22  1  0
 13 14  1  0
 15 10  1  0
 15 14  1  0
 16  9  2  0
 17  8  1  0
 17  9  1  0
 18 17  1  0
 19 20  2  0
 20 39  1  0
 21 20  1  0
 21 24  1  0
 22 19  1  0
 22 23  1  0
 23 21  2  0
 24 25  1  0
 25 26  2  0
 27 30  1  0
 27 26  1  0
 28 27  2  0
 29 28  1  0
 29 24  2  0
 30 31  1  0
 31 36  2  0
 31 32  1  0
 32 33  2  0
 33 34  1  0
 34 38  1  0
 35 34  2  0
 36 35  1  0
 37 36  1  0
 39 40  1  0
 40 43  1  0
 40 42  1  0
 41 39  2  0
 44 19  1  0
 45 44  1  0
 46 44  1  0
 47 48  1  0
 48 50  1  0
 48 51  1  0
 49 48  1  0
 52 53  1  0
 52  1  1  0
 53 54  1  0
 55 57  2  0
 56 55  1  0
 56 54  1  0
 58 56  1  0
 59 60  1  0
 59 55  1  0
 60 62  1  0
 61 72  2  0
 62 67  1  0
 63 73  1  0
 63 71  1  0
 64 70  1  0
 64 66  1  0
 65 71  1  0
 66 65  1  0
 67 66  2  0
 68 69  1  0
 68 62  2  0
 69 64  2  0
 70 63  1  0
 71 61  1  0
 73 75  2  0
 74 73  1  0
 76 74  1  0
 77 86  2  0
 77 82  1  0
 78 74  1  0
 78 82  1  0
 79 78  1  0
 80 81  1  0
 80 79  1  0
 81 77  1  0
 82 83  2  0
 83 84  1  0
 85 84  2  0
 86 85  1  0
 87 61  1  0
 87 88  1  0
 87 97  1  0
 88 91  1  0
 89 88  1  0
 89 93  1  0
 90 89  2  0
 93 92  1  0
 93 95  1  0
 95 96  1  0
 95 94  1  0
 97100  1  1
 97 98  1  0
 99 97  1  0
M  ISO  4   9 100  17 100  59 101  60 101
M  END
>  <TORSDO>  (76) 
F 28

>  <SCORE>  (76) 
-5.652

>  <name>  (76) 
76

>  <ligand_id>  (76) 
76

>  <original_smiles>  (76) 
[H]c1c([H])c([H])c2c(c1[H])C([H])([H])C([H])([H])C([H])([H])C2([H])N([H])C(=O)C1([H])N(C(=O)C([H])(N([H])C(=O)C([H])(N([H])C([H])([H])[H])C([H])([H])[H])C(C([H])([H])[H])(C([H])([H])[H])C([H])([H])[H])C([H])([H])c2c([H])c(OC([H])([H])C(=O)N([H])C([H])([H])C([H])([H])C([H])([H])C([H])([H])[N+]([H])([H])C([H])([H])C([H])([H])C([H])([H])C([H])(N([H])C(=O)N3C([H])([H])C([H])([H])C([H])([H])C([H])(n4nc(-c5c([H])c([H])c(Oc6c([H])c([H])c(F)c([H])c6F)c([H])c5[H])c(C(=O)N([H])[H])c4N([H])[H])C3([H])[H])C([H])([H])[N+]([H])([H])[H])c([H])c([H])c2C1([H])[H]

>  <smiles>  (76) 
[H]c1c([H])c([H])c2c(c1[H])C([H])([H])C([H])([H])C([H])([H])C2([H])N([H])C(=O)C1([H])N(C(=O)C([H])(N([H])C(=O)C([H])(N([H])C([H])([H])[H])C([H])([H])[H])C(C([H])([H])[H])(C([H])([H])[H])C([H])([H])[H])C([H])([H])c2c([H])c(OC([H])([H])C(=O)N([H])C([H])([H])C([H])([H])C([H])([H])C([H])([H])[N+]([H])([H])C([H])([H])C([H])([H])C([H])([H])C([H])(N([H])C(=O)N3C([H])([H])C([H])([H])C([H])([H])C([H])(n4nc(-c5c([H])c([H])c(Oc6c([H])c([H])c(F)c([H])c6F)c([H])c5[H])c(C(=O)N([H])[H])c4N([H])[H])C3([H])[H])C([H])([H])[N+]([H])([H])[H])c([H])c([H])c2C1([H])[H]

$$$$
77:0:0
     RDKit          3D

 96106  0  0  1  0  0  0  0  0999 V2000
  -30.2770  -23.8380   20.5450 C   0  0  0  0  0  2  0  0  0  0  0  0
  -30.7160  -24.9350   18.4320 C   0  0  0  0  0  2  0  0  0  0  0  0
  -30.2850  -22.7930   19.4340 C   0  0  0  0  0  3  0  0  0  0  0  0
  -30.0360  -25.1500   19.7990 C   0  0  0  0  0  3  0  0  0  0  0  0
  -30.5490  -22.9450   16.9480 C   0  0  0  0  0  1  0  0  0  0  0  0
  -30.9150  -23.4750   18.2820 N   0  0  1  0  0  4  0  0  0  0  0  0
  -31.8990  -23.2790   18.4250 H   0  0  0  0  0  0  0  0  0  0  0  0
  -31.1120  -21.5640   19.8210 C   0  0  0  0  0  0  0  0  0  0  0  0
  -30.4570  -20.4660   20.2280 N   0  0  0  0  0  0  0  0  0  0  0  0
  -32.3390  -21.5960   19.6700 O   0  0  0  0  0  0  0  0  0  0  0  0
  -29.4590  -20.5260   20.3850 H   0  0  0  0  0  0  0  0  0  0  0  0
  -30.7110  -14.4440   20.5950 C   0  0  0  0  0  0  0  0  0  0  0  0
  -30.3900  -12.2670   19.5310 C   0  0  0  0  0  2  0  0  0  0  0  0
  -29.4910  -12.4480   18.2930 C   0  0  0  0  0  2  0  0  0  0  0  0
  -27.9960  -12.4070   18.6660 C   0  0  0  0  0  2  0  0  0  0  0  0
  -27.6320  -13.2550   19.9160 C   0  0  0  0  0  3  0  0  0  0  0  0
  -28.6590  -13.0630   21.0550 C   0  0  0  0  0  2  0  0  0  0  0  0
  -30.0000  -13.2940   20.5030 N   0  0  0  0  0  0  0  0  0  0  0  0
  -31.9250  -14.5100   20.3850 O   0  0  0  0  0  0  0  0  0  0  0  0
  -30.8350  -18.6860   18.6070 C   0  0  0  0  0  2  0  0  0  0  0  0
  -29.9610  -16.0910   19.0500 C   0  0  0  0  0  2  0  0  0  0  0  0
  -30.2560  -16.7280   21.3630 C   0  0  0  0  0  2  0  0  0  0  0  0
  -30.8010  -17.3110   19.2330 C   0  0  0  0  0  3  0  0  0  0  0  0
  -30.1520  -17.9380   20.4400 C   0  0  0  0  0  3  0  0  0  0  0  0
  -31.0550  -19.1440   20.0840 C   0  0  0  0  0  3  0  0  0  0  0  0
  -29.9790  -15.5690   20.4510 N   0  0  0  0  0  0  0  0  0  0  0  0
  -25.2120  -13.8750   20.5340 C   0  0  0  0  0  0  0  0  0  0  0  0
  -24.1300  -13.1070   20.8780 C   0  0  0  0  0  0  0  0  0  0  0  0
  -24.5900  -11.7560   20.8850 C   0  0  0  0  0  0  0  0  0  0  0  0
  -26.2640  -12.9890   20.3570 N   0  0  0  0  0  0  0  0  0  0  0  0
  -25.8920  -11.7120   20.6310 N   0  0  0  0  0  0  0  0  0  0  0  0
  -23.8600  -10.4950   21.0720 C   0  0  0  0  0  0  0  0  0  0  0  0
  -24.2770   -9.5340   22.0190 C   0  0  0  0  0  3  0  0  0  0  0  0
  -23.5450   -8.3380   22.1890 C   0  0  0  0  0  3  0  0  0  0  0  0
  -22.3870   -8.0970   21.4130 C   0  0  0  0  0  0  0  0  0  0  0  0
  -21.9930   -9.0450   20.4530 C   0  0  0  0  0  3  0  0  0  0  0  0
  -22.7240  -10.2320   20.2820 C   0  0  0  0  0  3  0  0  0  0  0  0
  -21.6290   -6.9540   21.4940 O   0  0  0  0  0  0  0  0  0  0  0  0
  -21.5660   -6.2090   22.6420 C   0  0  0  0  0  0  0  0  0  0  0  0
  -21.1330   -6.7640   23.8670 C   0  0  0  0  0  3  0  0  0  0  0  0
  -21.0200   -5.9460   25.0070 C   0  0  0  0  0  3  0  0  0  0  0  0
  -21.3290   -4.5740   24.9270 C   0  0  0  0  0  0  0  0  0  0  0  0
  -21.7540   -4.0200   23.7060 C   0  0  0  0  0  3  0  0  0  0  0  0
  -21.8690   -4.8340   22.5680 C   0  0  0  0  0  0  0  0  0  0  0  0
  -22.2610   -4.2890   21.3900 F   0  0  0  0  0  0  0  0  0  0  0  0
  -21.2080   -3.7900   26.0220 F   0  0  0  0  0  0  0  0  0  0  0  0
  -22.7250  -13.5920   21.0910 C   0  0  0  0  0  0  0  0  0  0  0  0
  -21.9640  -12.9070   21.9390 N   0  0  0  0  0  0  0  0  0  0  0  0
  -22.3080  -14.6080   20.5370 O   0  0  0  0  0  0  0  0  0  0  0  0
  -22.3100  -12.0810   22.4030 H   0  0  0  0  0  0  0  0  0  0  0  0
  -21.0220  -13.2180   22.1310 H   0  0  0  0  0  0  0  0  0  0  0  0
  -25.3870  -15.2430   20.3420 N   0  0  0  0  0  0  0  0  0  0  0  0
  -24.6250  -15.9070   20.4320 H   0  0  0  0  0  0  0  0  0  0  0  0
  -26.2620  -15.6850   20.0900 H   0  0  0  0  0  0  0  0  0  0  0  0
  -28.5390  -25.5140   19.6920 C   0  0  0  0  0  2  0  0  0  0  0  0
  -28.4450  -26.8690   20.0800 O   0  0  0  0  0  0  0  0  0  0  0  0
  -24.5820  -31.8730   23.2270 C   0  0  0  0  0  0  0  0  0  0  0  0
  -27.2210  -27.4880   20.1010 C   0  0  0  0  0  0  0  0  0  0  0  0
  -23.3640  -30.4770   21.5840 C   0  0  0  0  0  3  0  0  0  0  0  0
  -24.8090  -28.9460   20.1500 C   0  0  0  0  0  0  0  0  0  0  0  0
  -25.8810  -30.8520   21.3670 C   0  0  0  0  0  2  0  0  0  0  0  0
  -25.9630  -29.4850   20.7250 C   0  0  0  0  0  0  0  0  0  0  0  0
  -27.1690  -28.7620   20.7010 C   0  0  0  0  0  3  0  0  0  0  0  0
  -26.0430  -26.9390   19.5410 C   0  0  0  0  0  3  0  0  0  0  0  0
  -24.8380  -27.6680   19.5630 C   0  0  0  0  0  3  0  0  0  0  0  0
  -23.5620  -29.7970   20.2020 C   0  0  0  0  0  2  0  0  0  0  0  0
  -24.6270  -31.0800   22.1180 N   0  0  0  0  0  0  0  0  0  0  0  0
  -23.5050  -32.1390   23.7780 O   0  0  0  0  0  0  0  0  0  0  0  0
  -22.7210  -29.4520   22.5450 C   0  0  0  0  0  0  0  0  0  0  0  0
  -21.3970  -29.2680   22.4250 N   0  0  0  0  0  0  0  0  0  0  0  0
  -23.4130  -28.8190   23.3460 O   0  0  0  0  0  0  0  0  0  0  0  0
  -20.9010  -29.8300   21.7460 H   0  0  0  0  0  0  0  0  0  0  0  0
  -18.0270  -28.0780   22.9400 C   0  0  0  0  0  0  0  0  0  0  0  0
  -20.5870  -28.3280   23.1980 C   0  0  0  0  0  3  0  0  0  0  0  0
  -20.6830  -26.9000   22.6130 C   0  0  0  0  0  2  0  0  0  0  0  0
  -19.5750  -26.5860   21.6050 C   0  0  0  0  0  2  0  0  0  0  0  0
  -18.1970  -26.7310   22.2580 C   0  0  0  0  0  2  0  0  0  0  0  0
  -19.1500  -28.8350   23.3680 C   0  0  0  0  0  0  0  0  0  0  0  0
  -18.9400  -30.0970   23.9640 C   0  0  0  0  0  3  0  0  0  0  0  0
  -17.6380  -30.6020   24.1400 C   0  0  0  0  0  3  0  0  0  0  0  0
  -16.5280  -29.8420   23.7300 C   0  0  0  0  0  3  0  0  0  0  0  0
  -16.7240  -28.5820   23.1350 C   0  0  0  0  0  3  0  0  0  0  0  0
  -25.8740  -32.5000   23.8380 C   0  0  0  0  0  3  0  0  0  0  0  0
  -25.5680  -33.8950   24.1800 N   0  0  0  0  0  0  0  0  0  0  0  0
  -25.8920  -34.9510   23.4220 C   0  0  0  0  0  0  0  0  0  0  0  0
  -26.5520  -34.8540   22.3830 O   0  0  0  0  0  0  0  0  0  0  0  0
  -24.9860  -34.0440   24.9910 H   0  0  0  0  0  0  0  0  0  0  0  0
  -24.1590  -36.7430   23.0870 C   0  0  0  0  0  1  0  0  0  0  0  0
  -25.4050  -36.3360   23.8900 C   0  0  0  0  0  3  0  0  0  0  0  0
  -27.5440  -37.2170   24.7130 C   0  0  0  0  0  1  0  0  0  0  0  0
  -26.4340  -37.3920   23.7790 N   0  0  0  0  0  0  0  0  0  0  0  0
  -26.0270  -38.3090   23.9390 H   0  0  0  0  0  0  0  0  0  0  0  0
  -26.4100  -31.7190   25.1010 C   0  0  1  0  0  0  0  0  0  0  0  0
  -25.3320  -31.4740   26.1810 C   0  0  0  0  0  1  0  0  0  0  0  0
  -26.9900  -30.3450   24.6900 C   0  0  0  0  0  1  0  0  0  0  0  0
  -27.5670  -32.5090   25.7560 C   0  0  0  0  0  1  0  0  0  0  0  0
  2  4  1  0
  3  8  1  0
  3  1  1  0
  4 55  1  0
  4  1  1  0
  5  6  1  0
  6  7  1  1
  6  2  1  0
  6  3  1  0
  8  9  1  0
  9 11  1  0
 10  8  2  0
 13 18  1  0
 14 15  1  0
 14 13  1  0
 16 15  1  0
 16 30  1  0
 16 17  1  0
 18 12  1  0
 18 17  1  0
 19 12  2  0
 20 25  1  0
 21 23  1  0
 21 26  1  0
 23 20  1  0
 23 24  1  0
 24 22  1  0
 25  9  1  0
 25 24  1  0
 26 12  1  0
 26 22  1  0
 27 28  2  0
 28 29  1  0
 28 47  1  0
 29 32  1  0
 30 27  1  0
 30 31  1  0
 31 29  2  0
 32 33  1  0
 33 34  2  0
 35 38  1  0
 35 34  1  0
 36 35  2  0
 37 36  1  0
 37 32  2  0
 38 39  1  0
 39 40  1  0
 40 41  2  0
 42 41  1  0
 42 46  1  0
 43 42  2  0
 44 39  2  0
 44 43  1  0
 45 44  1  0
 47 48  1  0
 48 51  1  0
 48 50  1  0
 49 47  2  0
 52 53  1  0
 52 27  1  0
 54 52  1  0
 55 56  1  0
 56 58  1  0
 57 68  2  0
 58 63  1  0
 59 67  1  0
 59 69  1  0
 60 66  1  0
 60 62  1  0
 61 67  1  0
 62 61  1  0
 63 62  2  0
 64 65  1  0
 64 58  2  0
 65 60  2  0
 66 59  1  0
 67 57  1  0
 69 71  2  0
 70 69  1  0
 72 70  1  0
 73 82  2  0
 73 78  1  0
 74 70  1  0
 74 78  1  0
 75 74  1  0
 76 77  1  0
 76 75  1  0
 77 73  1  0
 78 79  2  0
 79 80  1  0
 81 80  2  0
 82 81  1  0
 83 57  1  0
 83 84  1  0
 83 93  1  0
 84 87  1  0
 85 89  1  0
 85 84  1  0
 86 85  2  0
 89 88  1  0
 91 89  1  0
 91 92  1  0
 91 90  1  0
 93 96  1  1
 93 94  1  0
 95 93  1  0
M  ISO  4  12 100  26 100  55 101  56 101
M  END
>  <TORSDO>  (77) 
F 18

>  <SCORE>  (77) 
-14.628

>  <name>  (77) 
77

>  <ligand_id>  (77) 
77

>  <original_smiles>  (77) 
[H]c1c([H])c([H])c2c(c1[H])C([H])([H])C([H])([H])C([H])([H])C2([H])N([H])C(=O)C1([H])N(C(=O)C([H])(N([H])C(=O)C([H])(N([H])C([H])([H])[H])C([H])([H])[H])C(C([H])([H])[H])(C([H])([H])[H])C([H])([H])[H])C([H])([H])c2c([H])c(OC([H])([H])C3([H])C([H])([H])C([H])(C(=O)N([H])C4([H])C([H])([H])C5([H])C([H])([H])N(C(=O)N6C([H])([H])C([H])([H])C([H])([H])C([H])(n7nc(-c8c([H])c([H])c(Oc9c([H])c([H])c(F)c([H])c9F)c([H])c8[H])c(C(=O)N([H])[H])c7N([H])[H])C6([H])[H])C([H])([H])C45[H])[N+]([H])(C([H])([H])[H])C3([H])[H])c([H])c([H])c2C1([H])[H]

>  <smiles>  (77) 
[H]c1c([H])c([H])c2c(c1[H])C([H])([H])C([H])([H])C([H])([H])C2([H])N([H])C(=O)C1([H])N(C(=O)C([H])(N([H])C(=O)C([H])(N([H])C([H])([H])[H])C([H])([H])[H])C(C([H])([H])[H])(C([H])([H])[H])C([H])([H])[H])C([H])([H])c2c([H])c(OC([H])([H])C3([H])C([H])([H])C([H])(C(=O)N([H])C4([H])C([H])([H])C5([H])C([H])([H])N(C(=O)N6C([H])([H])C([H])([H])C([H])([H])C([H])(n7nc(-c8c([H])c([H])c(Oc9c([H])c([H])c(F)c([H])c9F)c([H])c8[H])c(C(=O)N([H])[H])c7N([H])[H])C6([H])[H])C([H])([H])C45[H])[N+]([H])(C([H])([H])[H])C3([H])[H])c([H])c([H])c2C1([H])[H]

$$$$
78:0:0
     RDKit          3D

 96104  0  0  1  0  0  0  0  0999 V2000
  -28.7510  -21.8600   20.5380 C   0  0  0  0  0  3  0  0  0  0  0  0
  -30.5240  -20.5650   19.2650 C   0  0  0  0  0  2  0  0  0  0  0  0
  -29.6650  -19.0900   20.6060 C   0  0  0  0  0  3  0  0  0  0  0  0
  -31.1060  -19.5310   20.2440 C   0  0  0  0  0  3  0  0  0  0  0  0
  -32.1640  -19.8680   21.2980 C   0  0  0  0  0  1  0  0  0  0  0  0
  -29.1950  -20.4530   19.8680 N   0  0  1  0  0  4  0  0  0  0  0  0
  -28.5160  -20.1940   19.1670 H   0  0  0  0  0  0  0  0  0  0  0  0
  -30.4330  -15.0770   20.4020 C   0  0  0  0  0  0  0  0  0  0  0  0
  -30.4180  -12.6690   19.6000 C   0  0  0  0  0  2  0  0  0  0  0  0
  -29.5420  -12.5660   18.3300 C   0  0  0  0  0  2  0  0  0  0  0  0
  -28.0760  -12.3030   18.7120 C   0  0  0  0  0  2  0  0  0  0  0  0
  -27.5980  -13.2630   19.8330 C   0  0  0  0  0  3  0  0  0  0  0  0
  -28.6020  -13.3550   21.0050 C   0  0  0  0  0  2  0  0  0  0  0  0
  -29.8920  -13.7880   20.4480 N   0  0  0  0  0  0  0  0  0  0  0  0
  -31.6070  -15.1460   20.0150 O   0  0  0  0  0  0  0  0  0  0  0  0
  -29.5930  -17.5210   19.9990 C   0  0  0  0  0  0  0  0  0  0  0  0
  -29.6980  -16.2720   20.6980 N   0  0  0  0  0  0  0  0  0  0  0  0
  -29.4700  -17.4600   18.7710 O   0  0  0  0  0  0  0  0  0  0  0  0
  -29.2790  -16.2590   21.6190 H   0  0  0  0  0  0  0  0  0  0  0  0
  -25.1930  -13.7980   20.5070 C   0  0  0  0  0  0  0  0  0  0  0  0
  -24.1330  -13.0050   20.8560 C   0  0  0  0  0  0  0  0  0  0  0  0
  -24.6220  -11.6620   20.8390 C   0  0  0  0  0  0  0  0  0  0  0  0
  -26.2550  -12.9380   20.2940 N   0  0  0  0  0  0  0  0  0  0  0  0
  -25.9200  -11.6500   20.5590 N   0  0  0  0  0  0  0  0  0  0  0  0
  -23.9160  -10.3860   21.0140 C   0  0  0  0  0  0  0  0  0  0  0  0
  -24.3240   -9.4410   21.9810 C   0  0  0  0  0  3  0  0  0  0  0  0
  -23.6180   -8.2300   22.1450 C   0  0  0  0  0  3  0  0  0  0  0  0
  -22.4850   -7.9550   21.3450 C   0  0  0  0  0  0  0  0  0  0  0  0
  -22.0930   -8.8870   20.3690 C   0  0  0  0  0  3  0  0  0  0  0  0
  -22.8000  -10.0910   20.2020 C   0  0  0  0  0  3  0  0  0  0  0  0
  -21.7500   -6.7960   21.4180 O   0  0  0  0  0  0  0  0  0  0  0  0
  -21.6460   -6.0820   22.5850 C   0  0  0  0  0  0  0  0  0  0  0  0
  -21.0920   -6.6430   23.7560 C   0  0  0  0  0  3  0  0  0  0  0  0
  -20.9410   -5.8510   24.9120 C   0  0  0  0  0  3  0  0  0  0  0  0
  -21.3320   -4.5000   24.8970 C   0  0  0  0  0  0  0  0  0  0  0  0
  -21.8790   -3.9390   23.7310 C   0  0  0  0  0  3  0  0  0  0  0  0
  -22.0320   -4.7260   22.5780 C   0  0  0  0  0  0  0  0  0  0  0  0
  -22.5370   -4.1740   21.4490 F   0  0  0  0  0  0  0  0  0  0  0  0
  -21.1810   -3.7370   26.0060 F   0  0  0  0  0  0  0  0  0  0  0  0
  -22.7210  -13.4520   21.0870 C   0  0  0  0  0  0  0  0  0  0  0  0
  -21.9820  -12.7400   21.9290 N   0  0  0  0  0  0  0  0  0  0  0  0
  -22.2780  -14.4710   20.5550 O   0  0  0  0  0  0  0  0  0  0  0  0
  -22.3490  -11.9150   22.3810 H   0  0  0  0  0  0  0  0  0  0  0  0
  -21.0320  -13.0230   22.1250 H   0  0  0  0  0  0  0  0  0  0  0  0
  -25.3510  -15.1720   20.3340 N   0  0  0  0  0  0  0  0  0  0  0  0
  -24.6010  -15.8420   20.4600 H   0  0  0  0  0  0  0  0  0  0  0  0
  -26.2240  -15.6020   20.0530 H   0  0  0  0  0  0  0  0  0  0  0  0
  -29.7010  -22.4600   21.6200 C   0  0  0  0  0  2  0  0  0  0  0  0
  -30.6980  -23.5790   21.2040 C   0  0  0  0  0  2  0  0  0  0  0  0
  -30.6360  -24.7660   22.0870 N   0  0  0  0  0  4  0  0  0  0  0  0
  -29.7110  -25.1620   22.1140 H   0  0  0  0  0  0  0  0  0  0  0  0
  -31.2610  -25.4840   21.7600 H   0  0  0  0  0  0  0  0  0  0  0  0
  -30.9160  -24.5400   23.0260 H   0  0  0  0  0  0  0  0  0  0  0  0
  -27.8040  -23.0900   19.8140 C   0  0  0  0  0  2  0  0  0  0  0  0
  -28.0230  -24.7170   19.3220 C   0  0  0  0  0  2  0  0  0  0  0  0
  -27.9570  -26.1370   19.9750 O   0  0  0  0  0  0  0  0  0  0  0  0
  -24.5170  -31.8590   23.0780 C   0  0  0  0  0  0  0  0  0  0  0  0
  -26.9020  -27.1240   19.9020 C   0  0  0  0  0  0  0  0  0  0  0  0
  -23.2360  -30.4960   21.4720 C   0  0  0  0  0  3  0  0  0  0  0  0
  -24.6000  -28.9090   19.9770 C   0  0  0  0  0  0  0  0  0  0  0  0
  -25.7850  -30.7170   21.2180 C   0  0  0  0  0  2  0  0  0  0  0  0
  -25.8070  -29.3300   20.5490 C   0  0  0  0  0  0  0  0  0  0  0  0
  -26.9520  -28.4490   20.5000 C   0  0  0  0  0  3  0  0  0  0  0  0
  -25.6690  -26.7980   19.3020 C   0  0  0  0  0  3  0  0  0  0  0  0
  -24.5430  -27.6550   19.3440 C   0  0  0  0  0  3  0  0  0  0  0  0
  -23.3920  -29.8290   20.0780 C   0  0  0  0  0  2  0  0  0  0  0  0
  -24.5340  -31.0470   21.9750 N   0  0  0  0  0  0  0  0  0  0  0  0
  -23.4560  -32.1590   23.6470 O   0  0  0  0  0  0  0  0  0  0  0  0
  -22.5760  -29.4920   22.4500 C   0  0  0  0  0  0  0  0  0  0  0  0
  -21.2420  -29.3400   22.3640 N   0  0  0  0  0  0  0  0  0  0  0  0
  -23.2640  -28.8550   23.2510 O   0  0  0  0  0  0  0  0  0  0  0  0
  -20.7410  -29.9050   21.6920 H   0  0  0  0  0  0  0  0  0  0  0  0
  -17.8650  -28.1690   22.9500 C   0  0  0  0  0  0  0  0  0  0  0  0
  -20.4330  -28.4100   23.1560 C   0  0  0  0  0  3  0  0  0  0  0  0
  -20.5080  -26.9780   22.5770 C   0  0  0  0  0  2  0  0  0  0  0  0
  -19.3770  -26.6650   21.5920 C   0  0  0  0  0  2  0  0  0  0  0  0
  -18.0130  -26.8210   22.2670 C   0  0  0  0  0  2  0  0  0  0  0  0
  -19.0000  -28.9230   23.3530 C   0  0  0  0  0  0  0  0  0  0  0  0
  -18.8040  -30.1870   23.9510 C   0  0  0  0  0  3  0  0  0  0  0  0
  -17.5070  -30.6940   24.1560 C   0  0  0  0  0  3  0  0  0  0  0  0
  -16.3880  -29.9370   23.7700 C   0  0  0  0  0  3  0  0  0  0  0  0
  -16.5690  -28.6770   23.1710 C   0  0  0  0  0  3  0  0  0  0  0  0
  -25.8280  -32.4660   23.6660 C   0  0  0  0  0  3  0  0  0  0  0  0
  -25.5520  -33.8620   24.0380 N   0  0  0  0  0  0  0  0  0  0  0  0
  -25.8960  -34.9330   23.3100 C   0  0  0  0  0  0  0  0  0  0  0  0
  -26.5520  -34.8480   22.2690 O   0  0  0  0  0  0  0  0  0  0  0  0
  -24.9770  -34.0070   24.8560 H   0  0  0  0  0  0  0  0  0  0  0  0
  -24.2310  -36.7950   23.0080 C   0  0  0  0  0  1  0  0  0  0  0  0
  -25.4450  -36.3160   23.8190 C   0  0  0  0  0  3  0  0  0  0  0  0
  -27.5870  -37.1050   24.7270 C   0  0  0  0  0  1  0  0  0  0  0  0
  -26.5120  -37.3410   23.7660 N   0  0  0  0  0  0  0  0  0  0  0  0
  -26.1280  -38.2660   23.9410 H   0  0  0  0  0  0  0  0  0  0  0  0
  -26.3830  -31.6650   24.9080 C   0  0  1  0  0  0  0  0  0  0  0  0
  -25.3300  -31.4210   26.0150 C   0  0  0  0  0  1  0  0  0  0  0  0
  -26.9320  -30.2870   24.4730 C   0  0  0  0  0  1  0  0  0  0  0  0
  -27.5670  -32.4350   25.5380 C   0  0  0  0  0  1  0  0  0  0  0  0
  1 54  1  0
  1 48  1  0
  2  6  1  0
  2  4  1  0
  3 16  1  0
  4  3  1  0
  4  5  1  0
  6  1  1  0
  6  3  1  0
  6  7  1  6
  8 14  1  0
  8 17  1  0
  9 14  1  0
 10 11  1  0
 10  9  1  0
 12 11  1  0
 12 23  1  0
 12 13  1  0
 14 13  1  0
 15  8  2  0
 16 17  1  0
 17 19  1  0
 18 16  2  0
 20 21  2  0
 21 40  1  0
 22 21  1  0
 22 25  1  0
 23 20  1  0
 23 24  1  0
 24 22  2  0
 25 26  1  0
 26 27  2  0
 28 31  1  0
 28 27  1  0
 29 28  2  0
 30 29  1  0
 30 25  2  0
 31 32  1  0
 32 33  1  0
 33 34  2  0
 35 34  1  0
 35 39  1  0
 36 35  2  0
 37 32  2  0
 37 36  1  0
 38 37  1  0
 40 41  1  0
 41 44  1  0
 41 43  1  0
 42 40  2  0
 45 46  1  0
 45 20  1  0
 47 45  1  0
 49 48  1  0
 49 50  1  0
 50 51  1  0
 50 53  1  0
 52 50  1  0
 55 54  1  0
 55 56  1  0
 57 68  2  0
 58 56  1  0
 58 63  1  0
 59 67  1  0
 59 69  1  0
 60 66  1  0
 60 62  1  0
 61 67  1  0
 62 61  1  0
 63 62  2  0
 64 65  1  0
 64 58  2  0
 65 60  2  0
 66 59  1  0
 67 57  1  0
 69 71  2  0
 70 69  1  0
 72 70  1  0
 73 82  2  0
 73 78  1  0
 74 70  1  0
 74 78  1  0
 75 74  1  0
 76 77  1  0
 76 75  1  0
 77 73  1  0
 78 79  2  0
 79 80  1  0
 81 80  2  0
 82 81  1  0
 83 57  1  0
 83 84  1  0
 83 93  1  0
 84 87  1  0
 85 89  1  0
 85 84  1  0
 86 85  2  0
 89 88  1  0
 91 89  1  0
 91 92  1  0
 91 90  1  0
 93 96  1  1
 93 94  1  0
 95 93  1  0
M  ISO  4   8 100  17 100  55 101  56 101
M  END
>  <TORSDO>  (78) 
F 22

>  <SCORE>  (78) 
-14.310

>  <name>  (78) 
78

>  <ligand_id>  (78) 
78

>  <original_smiles>  (78) 
[H]c1c([H])c([H])c2c(c1[H])C([H])([H])C([H])([H])C([H])([H])C2([H])N([H])C(=O)C1([H])N(C(=O)C([H])(N([H])C(=O)C([H])(N([H])C([H])([H])[H])C([H])([H])[H])C(C([H])([H])[H])(C([H])([H])[H])C([H])([H])[H])C([H])([H])c2c([H])c(OC([H])([H])C([H])([H])C([H])(C([H])([H])C([H])([H])[N+]([H])([H])[H])[N+]3([H])C([H])([H])C([H])(C([H])([H])[H])C3([H])C(=O)N([H])C(=O)N3C([H])([H])C([H])([H])C([H])([H])C([H])(n4nc(-c5c([H])c([H])c(Oc6c([H])c([H])c(F)c([H])c6F)c([H])c5[H])c(C(=O)N([H])[H])c4N([H])[H])C3([H])[H])c([H])c([H])c2C1([H])[H]

>  <smiles>  (78) 
[H]c1c([H])c([H])c2c(c1[H])C([H])([H])C([H])([H])C([H])([H])C2([H])N([H])C(=O)C1([H])N(C(=O)C([H])(N([H])C(=O)C([H])(N([H])C([H])([H])[H])C([H])([H])[H])C(C([H])([H])[H])(C([H])([H])[H])C([H])([H])[H])C([H])([H])c2c([H])c(OC([H])([H])C([H])([H])C([H])(C([H])([H])C([H])([H])[N+]([H])([H])[H])[N+]3([H])C([H])([H])C([H])(C([H])([H])[H])C3([H])C(=O)N([H])C(=O)N3C([H])([H])C([H])([H])C([H])([H])C([H])(n4nc(-c5c([H])c([H])c(Oc6c([H])c([H])c(F)c([H])c6F)c([H])c5[H])c(C(=O)N([H])[H])c4N([H])[H])C3([H])[H])c([H])c([H])c2C1([H])[H]

$$$$
79:0:0
     RDKit          3D

 96104  0  0  1  0  0  0  0  0999 V2000
  -28.2550  -20.7130   20.6940 C   0  0  0  0  0  2  0  0  0  0  0  0
  -30.5330  -20.4070   21.8900 C   0  0  0  0  0  2  0  0  0  0  0  0
  -31.4640  -19.2100   22.0640 C   0  0  0  0  0  3  0  0  0  0  0  0
  -29.6270  -19.9810   20.7280 C   0  0  0  0  0  3  0  0  0  0  0  0
  -30.5560  -17.9990   21.7700 C   0  0  0  0  0  3  0  0  0  0  0  0
  -32.1730  -19.1560   23.4260 C   0  0  0  0  0  1  0  0  0  0  0  0
  -29.5140  -18.5010   20.8470 N   0  0  0  0  0  4  0  0  0  0  0  0
  -29.6300  -18.0760   19.9400 H   0  0  0  0  0  0  0  0  0  0  0  0
  -28.6110  -18.2360   21.2040 H   0  0  0  0  0  0  0  0  0  0  0  0
  -31.3600  -16.8040   21.2060 C   0  0  0  0  0  2  0  0  0  0  0  0
  -31.0610  -14.6310   20.0810 C   0  0  0  0  0  0  0  0  0  0  0  0
  -30.6750  -12.4410   19.0220 C   0  0  0  0  0  2  0  0  0  0  0  0
  -29.7120  -12.5820   17.8290 C   0  0  0  0  0  2  0  0  0  0  0  0
  -28.2500  -12.4710   18.3000 C   0  0  0  0  0  2  0  0  0  0  0  0
  -27.9400  -13.3850   19.5160 C   0  0  0  0  0  3  0  0  0  0  0  0
  -29.0190  -13.2360   20.6140 C   0  0  0  0  0  2  0  0  0  0  0  0
  -30.3360  -13.4840   20.0020 N   0  0  0  0  0  0  0  0  0  0  0  0
  -32.1100  -14.8000   19.4560 O   0  0  0  0  0  0  0  0  0  0  0  0
  -30.5750  -15.6070   20.8670 N   0  0  0  0  0  0  0  0  0  0  0  0
  -29.7210  -15.4180   21.3710 H   0  0  0  0  0  0  0  0  0  0  0  0
  -25.5770  -14.0390   20.3010 C   0  0  0  0  0  0  0  0  0  0  0  0
  -24.5070  -13.2880   20.7080 C   0  0  0  0  0  0  0  0  0  0  0  0
  -24.9400  -11.9280   20.6630 C   0  0  0  0  0  0  0  0  0  0  0  0
  -26.5970  -13.1370   20.0380 N   0  0  0  0  0  0  0  0  0  0  0  0
  -26.2180  -11.8620   20.3120 N   0  0  0  0  0  0  0  0  0  0  0  0
  -24.1960  -10.6800   20.8800 C   0  0  0  0  0  0  0  0  0  0  0  0
  -24.5880   -9.7480   21.8650 C   0  0  0  0  0  3  0  0  0  0  0  0
  -23.8440   -8.5650   22.0680 C   0  0  0  0  0  3  0  0  0  0  0  0
  -22.6940   -8.3060   21.2830 C   0  0  0  0  0  0  0  0  0  0  0  0
  -22.3210   -9.2280   20.2900 C   0  0  0  0  0  3  0  0  0  0  0  0
  -23.0660  -10.4010   20.0860 C   0  0  0  0  0  3  0  0  0  0  0  0
  -21.9250   -7.1720   21.3930 O   0  0  0  0  0  0  0  0  0  0  0  0
  -21.7670   -6.5230   22.5910 C   0  0  0  0  0  0  0  0  0  0  0  0
  -21.2070   -7.1620   23.7180 C   0  0  0  0  0  3  0  0  0  0  0  0
  -20.9980   -6.4370   24.9070 C   0  0  0  0  0  3  0  0  0  0  0  0
  -21.3390   -5.0730   24.9700 C   0  0  0  0  0  0  0  0  0  0  0  0
  -21.8920   -4.4320   23.8470 C   0  0  0  0  0  3  0  0  0  0  0  0
  -22.1020   -5.1550   22.6590 C   0  0  0  0  0  0  0  0  0  0  0  0
  -22.6150   -4.5280   21.5730 F   0  0  0  0  0  0  0  0  0  0  0  0
  -21.1310   -4.3730   26.1100 F   0  0  0  0  0  0  0  0  0  0  0  0
  -23.1300  -13.7940   21.0270 C   0  0  0  0  0  0  0  0  0  0  0  0
  -22.4140  -13.1090   21.9130 N   0  0  0  0  0  0  0  0  0  0  0  0
  -22.6990  -14.8320   20.5280 O   0  0  0  0  0  0  0  0  0  0  0  0
  -22.7760  -12.2670   22.3370 H   0  0  0  0  0  0  0  0  0  0  0  0
  -21.4920  -13.4280   22.1680 H   0  0  0  0  0  0  0  0  0  0  0  0
  -25.7590  -15.4050   20.1130 N   0  0  0  0  0  0  0  0  0  0  0  0
  -24.9960  -16.0640   20.2240 H   0  0  0  0  0  0  0  0  0  0  0  0
  -26.5870  -15.8210   19.7050 H   0  0  0  0  0  0  0  0  0  0  0  0
  -26.7630  -22.4940   19.6750 C   0  0  0  0  0  1  0  0  0  0  0  0
  -28.2210  -22.1290   20.0310 C   0  0  0  0  0  3  0  0  0  0  0  0
  -28.8670  -23.2040   20.8440 N   0  0  0  0  0  4  0  0  0  0  0  0
  -28.3650  -23.3440   21.7090 H   0  0  0  0  0  0  0  0  0  0  0  0
  -29.7890  -22.8860   21.1020 H   0  0  0  0  0  0  0  0  0  0  0  0
  -29.0640  -24.5230   20.1630 C   0  0  0  0  0  2  0  0  0  0  0  0
  -28.0620  -25.5990   20.6380 C   0  0  0  0  0  2  0  0  0  0  0  0
  -28.2230  -26.8630   19.9630 O   0  0  0  0  0  0  0  0  0  0  0  0
  -24.5060  -32.0180   23.1850 C   0  0  0  0  0  0  0  0  0  0  0  0
  -27.0840  -27.6410   19.9640 C   0  0  0  0  0  0  0  0  0  0  0  0
  -23.2760  -30.6680   21.5220 C   0  0  0  0  0  3  0  0  0  0  0  0
  -24.7040  -29.1630   20.0400 C   0  0  0  0  0  0  0  0  0  0  0  0
  -25.8030  -31.0160   21.3060 C   0  0  0  0  0  2  0  0  0  0  0  0
  -25.8740  -29.6640   20.6250 C   0  0  0  0  0  0  0  0  0  0  0  0
  -27.0730  -28.9130   20.5790 C   0  0  0  0  0  3  0  0  0  0  0  0
  -25.9030  -27.1620   19.3580 C   0  0  0  0  0  3  0  0  0  0  0  0
  -24.7120  -27.9110   19.4040 C   0  0  0  0  0  3  0  0  0  0  0  0
  -23.4660  -30.0270   20.1240 C   0  0  0  0  0  2  0  0  0  0  0  0
  -24.5470  -31.2460   22.0630 N   0  0  0  0  0  0  0  0  0  0  0  0
  -23.4310  -32.2850   23.7410 O   0  0  0  0  0  0  0  0  0  0  0  0
  -22.6270  -29.6260   22.4620 C   0  0  0  0  0  0  0  0  0  0  0  0
  -21.3000  -29.4590   22.3460 N   0  0  0  0  0  0  0  0  0  0  0  0
  -23.3150  -28.9720   23.2500 O   0  0  0  0  0  0  0  0  0  0  0  0
  -20.8050  -30.0370   21.6800 H   0  0  0  0  0  0  0  0  0  0  0  0
  -17.9210  -28.2810   22.8640 C   0  0  0  0  0  0  0  0  0  0  0  0
  -20.4850  -28.5080   23.1030 C   0  0  0  0  0  3  0  0  0  0  0  0
  -20.5630  -27.0930   22.4830 C   0  0  0  0  0  2  0  0  0  0  0  0
  -19.4420  -26.8100   21.4770 C   0  0  0  0  0  2  0  0  0  0  0  0
  -18.0720  -26.9510   22.1450 C   0  0  0  0  0  2  0  0  0  0  0  0
  -19.0530  -29.0190   23.2990 C   0  0  0  0  0  0  0  0  0  0  0  0
  -18.8550  -30.2670   23.9300 C   0  0  0  0  0  3  0  0  0  0  0  0
  -17.5580  -30.7780   24.1260 C   0  0  0  0  0  3  0  0  0  0  0  0
  -16.4400  -30.0360   23.7050 C   0  0  0  0  0  3  0  0  0  0  0  0
  -16.6230  -28.7880   23.0830 C   0  0  0  0  0  3  0  0  0  0  0  0
  -25.8020  -32.6240   23.8100 C   0  0  0  0  0  3  0  0  0  0  0  0
  -25.5140  -34.0240   24.1480 N   0  0  0  0  0  0  0  0  0  0  0  0
  -25.8730  -35.0740   23.4000 C   0  0  0  0  0  0  0  0  0  0  0  0
  -26.5500  -34.9660   22.3740 O   0  0  0  0  0  0  0  0  0  0  0  0
  -24.9100  -34.1840   24.9420 H   0  0  0  0  0  0  0  0  0  0  0  0
  -24.1850  -36.9030   23.0440 C   0  0  0  0  0  1  0  0  0  0  0  0
  -25.4090  -36.4680   23.8640 C   0  0  0  0  0  3  0  0  0  0  0  0
  -27.5540  -37.3010   24.7250 C   0  0  0  0  0  1  0  0  0  0  0  0
  -26.4630  -37.5010   23.7720 N   0  0  0  0  0  0  0  0  0  0  0  0
  -26.0750  -38.4280   23.9220 H   0  0  0  0  0  0  0  0  0  0  0  0
  -26.3130  -31.8340   25.0770 C   0  0  1  0  0  0  0  0  0  0  0  0
  -25.2170  -31.5970   26.1430 C   0  0  0  0  0  1  0  0  0  0  0  0
  -26.8800  -30.4530   24.6710 C   0  0  0  0  0  1  0  0  0  0  0  0
  -27.4780  -32.6080   25.7400 C   0  0  0  0  0  1  0  0  0  0  0  0
  2  3  1  0
  3  6  1  0
  4  1  1  0
  4  7  1  0
  4  2  1  0
  5 10  1  0
  5  3  1  0
  7  9  1  0
  7  5  1  0
  8  7  1  0
 11 19  1  0
 12 17  1  0
 13 14  1  0
 13 12  1  0
 15 14  1  0
 15 24  1  0
 15 16  1  0
 17 11  1  0
 17 16  1  0
 18 11  2  0
 19 10  1  0
 19 20  1  0
 21 22  2  0
 22 41  1  0
 23 22  1  0
 23 26  1  0
 24 21  1  0
 24 25  1  0
 25 23  2  0
 26 27  1  0
 27 28  2  0
 29 32  1  0
 29 28  1  0
 30 29  2  0
 31 30  1  0
 31 26  2  0
 32 33  1  0
 33 38  2  0
 33 34  1  0
 34 35  2  0
 35 36  1  0
 36 40  1  0
 37 36  2  0
 38 37  1  0
 39 38  1  0
 41 42  1  0
 42 45  1  0
 42 44  1  0
 43 41  2  0
 46 47  1  0
 46 21  1  0
 48 46  1  0
 50 49  1  0
 50  1  1  0
 50 51  1  0
 51 53  1  0
 51 52  1  0
 54 55  1  0
 54 51  1  0
 56 58  1  0
 56 55  1  0
 57 68  2  0
 58 63  1  0
 59 67  1  0
 59 69  1  0
 60 66  1  0
 60 62  1  0
 61 67  1  0
 62 61  1  0
 63 62  2  0
 64 65  1  0
 64 58  2  0
 65 60  2  0
 66 59  1  0
 67 57  1  0
 69 71  2  0
 70 69  1  0
 72 70  1  0
 73 82  2  0
 73 78  1  0
 74 70  1  0
 74 78  1  0
 75 74  1  0
 76 77  1  0
 76 75  1  0
 77 73  1  0
 78 79  2  0
 79 80  1  0
 81 80  2  0
 82 81  1  0
 83 57  1  0
 83 84  1  0
 83 93  1  0
 84 87  1  0
 85 89  1  0
 85 84  1  0
 86 85  2  0
 89 88  1  0
 91 89  1  0
 91 92  1  0
 91 90  1  0
 93 96  1  1
 93 94  1  0
 95 93  1  0
M  ISO  4  11 100  19 100  55 101  56 101
M  END
>  <TORSDO>  (79) 
F 22

>  <SCORE>  (79) 
-12.330

>  <name>  (79) 
79

>  <ligand_id>  (79) 
79

>  <original_smiles>  (79) 
[H]c1c([H])c([H])c2c(c1[H])C([H])([H])C([H])([H])C([H])([H])C2([H])N([H])C(=O)C1([H])N(C(=O)C([H])(N([H])C(=O)C([H])(N([H])C([H])([H])[H])C([H])([H])[H])C(C([H])([H])[H])(C([H])([H])[H])C([H])([H])[H])C([H])([H])c2c([H])c(OC([H])([H])C([H])([H])[N+]([H])([H])C([H])(C([H])([H])[H])C([H])([H])C3([H])C([H])([H])C([H])(C([H])([H])[H])C([H])(C([H])([H])N([H])C(=O)N4C([H])([H])C([H])([H])C([H])([H])C([H])(n5nc(-c6c([H])c([H])c(Oc7c([H])c([H])c(F)c([H])c7F)c([H])c6[H])c(C(=O)N([H])[H])c5N([H])[H])C4([H])[H])[N+]3([H])[H])c([H])c([H])c2C1([H])[H]

>  <smiles>  (79) 
[H]c1c([H])c([H])c2c(c1[H])C([H])([H])C([H])([H])C([H])([H])C2([H])N([H])C(=O)C1([H])N(C(=O)C([H])(N([H])C(=O)C([H])(N([H])C([H])([H])[H])C([H])([H])[H])C(C([H])([H])[H])(C([H])([H])[H])C([H])([H])[H])C([H])([H])c2c([H])c(OC([H])([H])C([H])([H])[N+]([H])([H])C([H])(C([H])([H])[H])C([H])([H])C3([H])C([H])([H])C([H])(C([H])([H])[H])C([H])(C([H])([H])N([H])C(=O)N4C([H])([H])C([H])([H])C([H])([H])C([H])(n5nc(-c6c([H])c([H])c(Oc7c([H])c([H])c(F)c([H])c7F)c([H])c6[H])c(C(=O)N([H])[H])c5N([H])[H])C4([H])[H])[N+]3([H])[H])c([H])c([H])c2C1([H])[H]

$$$$
80:0:0
     RDKit          3D

 94102  0  0  1  0  0  0  0  0999 V2000
  -27.6010  -23.1430   20.6560 C   0  0  0  0  0  3  0  0  0  0  0  0
  -27.4370  -21.7890   21.0210 C   0  0  0  0  0  3  0  0  0  0  0  0
  -29.5680  -22.4380   19.4240 C   0  0  0  0  0  3  0  0  0  0  0  0
  -28.6660  -23.5640   19.8460 C   0  0  0  0  0  0  0  0  0  0  0  0
  -28.3180  -20.7460   20.6260 C   0  0  0  0  0  0  0  0  0  0  0  0
  -29.4520  -20.9820   19.7970 C   0  0  0  0  0  0  0  0  0  0  0  0
  -28.0390  -19.3660   21.2000 C   0  0  0  0  0  1  0  0  0  0  0  0
  -28.6300  -25.1560   19.3580 C   0  0  0  0  0  2  0  0  0  0  0  0
  -28.3780  -26.4560   20.2030 O   0  0  0  0  0  0  0  0  0  0  0  0
  -24.6340  -31.9960   23.3250 C   0  0  0  0  0  0  0  0  0  0  0  0
  -27.2860  -27.4060   20.1260 C   0  0  0  0  0  0  0  0  0  0  0  0
  -23.4480  -30.6170   21.6610 C   0  0  0  0  0  3  0  0  0  0  0  0
  -24.9130  -29.1060   20.1770 C   0  0  0  0  0  0  0  0  0  0  0  0
  -25.9920  -30.9370   21.4750 C   0  0  0  0  0  2  0  0  0  0  0  0
  -26.0880  -29.5610   20.7860 C   0  0  0  0  0  0  0  0  0  0  0  0
  -27.2670  -28.7240   20.7480 C   0  0  0  0  0  3  0  0  0  0  0  0
  -26.0810  -27.0540   19.4830 C   0  0  0  0  0  3  0  0  0  0  0  0
  -24.9230  -27.8670   19.5150 C   0  0  0  0  0  3  0  0  0  0  0  0
  -23.6690  -29.9770   20.2630 C   0  0  0  0  0  2  0  0  0  0  0  0
  -24.7120  -31.2050   22.2100 N   0  0  0  0  0  0  0  0  0  0  0  0
  -23.5480  -32.2420   23.8710 O   0  0  0  0  0  0  0  0  0  0  0  0
  -22.8010  -29.5730   22.6080 C   0  0  0  0  0  0  0  0  0  0  0  0
  -21.4820  -29.3460   22.4650 N   0  0  0  0  0  0  0  0  0  0  0  0
  -23.4900  -28.9700   23.4350 O   0  0  0  0  0  0  0  0  0  0  0  0
  -20.9790  -29.8900   21.7780 H   0  0  0  0  0  0  0  0  0  0  0  0
  -18.1640  -27.9540   22.8800 C   0  0  0  0  0  0  0  0  0  0  0  0
  -20.6960  -28.3650   23.2180 C   0  0  0  0  0  3  0  0  0  0  0  0
  -20.8950  -26.9380   22.6520 C   0  0  0  0  0  2  0  0  0  0  0  0
  -19.8420  -26.5520   21.6090 C   0  0  0  0  0  2  0  0  0  0  0  0
  -18.4370  -26.6180   22.2130 C   0  0  0  0  0  2  0  0  0  0  0  0
  -19.2240  -28.7830   23.3390 C   0  0  0  0  0  0  0  0  0  0  0  0
  -18.9150  -30.0290   23.9230 C   0  0  0  0  0  3  0  0  0  0  0  0
  -17.5790  -30.4520   24.0550 C   0  0  0  0  0  3  0  0  0  0  0  0
  -16.5340  -29.6230   23.6140 C   0  0  0  0  0  3  0  0  0  0  0  0
  -16.8260  -28.3760   23.0320 C   0  0  0  0  0  3  0  0  0  0  0  0
  -25.9040  -32.6460   23.9560 C   0  0  0  0  0  3  0  0  0  0  0  0
  -25.5910  -34.0530   24.2540 N   0  0  0  0  0  0  0  0  0  0  0  0
  -25.9340  -35.0950   23.4840 C   0  0  0  0  0  0  0  0  0  0  0  0
  -26.6180  -34.9720   22.4640 O   0  0  0  0  0  0  0  0  0  0  0  0
  -24.9900  -34.2230   25.0470 H   0  0  0  0  0  0  0  0  0  0  0  0
  -24.2180  -36.8890   23.0830 C   0  0  0  0  0  1  0  0  0  0  0  0
  -25.4490  -36.4940   23.9130 C   0  0  0  0  0  3  0  0  0  0  0  0
  -27.5760  -37.3900   24.7500 C   0  0  0  0  0  1  0  0  0  0  0  0
  -26.4850  -37.5430   23.7900 N   0  0  0  0  0  0  0  0  0  0  0  0
  -26.0800  -38.4670   23.9170 H   0  0  0  0  0  0  0  0  0  0  0  0
  -26.3980  -31.9070   25.2610 C   0  0  1  0  0  0  0  0  0  0  0  0
  -25.2840  -31.6780   26.3100 C   0  0  0  0  0  1  0  0  0  0  0  0
  -27.0040  -30.5280   24.9130 C   0  0  0  0  0  1  0  0  0  0  0  0
  -27.5260  -32.7270   25.9310 C   0  0  0  0  0  1  0  0  0  0  0  0
  -30.5430  -19.7080   19.6050 C   0  0  0  0  0  3  0  0  0  0  0  0
  -30.2190  -18.0970   19.1110 C   0  0  0  0  0  2  0  0  0  0  0  0
  -31.2500  -15.5110   19.7060 C   0  0  0  0  0  0  0  0  0  0  0  0
  -31.1500  -13.0550   19.0480 C   0  0  0  0  0  2  0  0  0  0  0  0
  -30.1870  -12.8640   17.8490 C   0  0  0  0  0  2  0  0  0  0  0  0
  -28.7380  -12.6920   18.3380 C   0  0  0  0  0  2  0  0  0  0  0  0
  -28.3540  -13.7460   19.4080 C   0  0  0  0  0  3  0  0  0  0  0  0
  -29.4300  -13.8750   20.5100 C   0  0  0  0  0  2  0  0  0  0  0  0
  -30.6890  -14.2340   19.8450 N   0  0  0  0  0  0  0  0  0  0  0  0
  -32.4120  -15.5700   19.2880 O   0  0  0  0  0  0  0  0  0  0  0  0
  -30.4600  -16.6950   19.8630 N   0  0  0  0  0  0  0  0  0  0  0  0
  -29.6400  -16.4570   20.4030 H   0  0  0  0  0  0  0  0  0  0  0  0
  -26.0410  -14.4390   20.2540 C   0  0  0  0  0  0  0  0  0  0  0  0
  -24.9520  -13.7150   20.6560 C   0  0  0  0  0  0  0  0  0  0  0  0
  -25.3410  -12.3420   20.5830 C   0  0  0  0  0  0  0  0  0  0  0  0
  -27.0230  -13.5100   19.9570 N   0  0  0  0  0  0  0  0  0  0  0  0
  -26.6140  -12.2420   20.2200 N   0  0  0  0  0  0  0  0  0  0  0  0
  -24.5540  -11.1160   20.7800 C   0  0  0  0  0  0  0  0  0  0  0  0
  -24.9060  -10.1650   21.7620 C   0  0  0  0  0  3  0  0  0  0  0  0
  -24.1240   -9.0040   21.9460 C   0  0  0  0  0  3  0  0  0  0  0  0
  -22.9780   -8.7860   21.1470 C   0  0  0  0  0  0  0  0  0  0  0  0
  -22.6460   -9.7240   20.1540 C   0  0  0  0  0  3  0  0  0  0  0  0
  -23.4270  -10.8770   19.9690 C   0  0  0  0  0  3  0  0  0  0  0  0
  -22.1740   -7.6760   21.2380 O   0  0  0  0  0  0  0  0  0  0  0  0
  -21.9430   -7.0490   22.4360 C   0  0  0  0  0  0  0  0  0  0  0  0
  -21.3740   -7.7290   23.5350 C   0  0  0  0  0  3  0  0  0  0  0  0
  -21.0920   -7.0290   24.7260 C   0  0  0  0  0  3  0  0  0  0  0  0
  -21.3690   -5.6510   24.8160 C   0  0  0  0  0  0  0  0  0  0  0  0
  -21.9300   -4.9720   23.7200 C   0  0  0  0  0  3  0  0  0  0  0  0
  -22.2130   -5.6680   22.5330 C   0  0  0  0  0  0  0  0  0  0  0  0
  -22.7340   -5.0040   21.4740 F   0  0  0  0  0  0  0  0  0  0  0  0
  -21.0900   -4.9770   25.9560 F   0  0  0  0  0  0  0  0  0  0  0  0
  -23.5930  -14.2590   20.9880 C   0  0  0  0  0  0  0  0  0  0  0  0
  -22.8740  -13.6010   21.8890 N   0  0  0  0  0  0  0  0  0  0  0  0
  -23.1830  -15.3040   20.4840 O   0  0  0  0  0  0  0  0  0  0  0  0
  -23.2230  -12.7570   22.3190 H   0  0  0  0  0  0  0  0  0  0  0  0
  -21.9620  -13.9430   22.1530 H   0  0  0  0  0  0  0  0  0  0  0  0
  -26.2760  -15.8010   20.0900 N   0  0  0  0  0  0  0  0  0  0  0  0
  -25.5570  -16.4990   20.2430 H   0  0  0  0  0  0  0  0  0  0  0  0
  -27.1160  -16.1810   19.6720 H   0  0  0  0  0  0  0  0  0  0  0  0
  -31.7450  -20.2300   18.7840 C   0  0  0  0  0  2  0  0  0  0  0  0
  -32.9300  -19.3510   18.8500 N   0  0  0  0  0  4  0  0  0  0  0  0
  -33.3290  -19.3690   19.7710 H   0  0  0  0  0  0  0  0  0  0  0  0
  -33.6290  -19.6760   18.2060 H   0  0  0  0  0  0  0  0  0  0  0  0
  -32.7050  -18.4000   18.6120 H   0  0  0  0  0  0  0  0  0  0  0  0
  1  2  1  0
  3  6  2  0
  3  4  1  0
  4  1  2  0
  5  2  2  0
  5  7  1  0
  6  5  1  0
  8  4  1  0
  8  9  1  0
 10 21  2  0
 11  9  1  0
 11 16  1  0
 12 20  1  0
 12 22  1  0
 13 19  1  0
 13 15  1  0
 14 20  1  0
 15 14  1  0
 16 15  2  0
 17 18  1  0
 17 11  2  0
 18 13  2  0
 19 12  1  0
 20 10  1  0
 22 24  2  0
 23 22  1  0
 25 23  1  0
 26 35  2  0
 26 31  1  0
 27 23  1  0
 27 31  1  0
 28 27  1  0
 29 30  1  0
 29 28  1  0
 30 26  1  0
 31 32  2  0
 32 33  1  0
 34 33  2  0
 35 34  1  0
 36 10  1  0
 36 37  1  0
 36 46  1  0
 37 40  1  0
 38 42  1  0
 38 37  1  0
 39 38  2  0
 42 41  1  0
 44 42  1  0
 44 45  1  0
 44 43  1  0
 46 49  1  1
 46 47  1  0
 48 46  1  0
 50 90  1  0
 50  6  1  0
 51 50  1  0
 51 60  1  0
 52 58  1  0
 52 60  1  0
 53 58  1  0
 54 55  1  0
 54 53  1  0
 56 55  1  0
 56 65  1  0
 56 57  1  0
 58 57  1  0
 59 52  2  0
 60 61  1  0
 62 63  2  0
 63 82  1  0
 64 63  1  0
 64 67  1  0
 65 66  1  0
 65 62  1  0
 66 64  2  0
 67 68  1  0
 68 69  2  0
 70 73  1  0
 70 69  1  0
 71 70  2  0
 72 71  1  0
 72 67  2  0
 73 74  1  0
 74 79  2  0
 74 75  1  0
 75 76  2  0
 76 77  1  0
 77 81  1  0
 78 77  2  0
 79 78  1  0
 80 79  1  0
 82 83  1  0
 83 86  1  0
 83 85  1  0
 84 82  2  0
 87 88  1  0
 87 62  1  0
 89 87  1  0
 90 91  1  0
 91 92  1  0
 93 91  1  0
 94 91  1  0
M  ISO  4   8 101   9 101  52 100  60 100
M  END
>  <TORSDO>  (80) 
F 21

>  <SCORE>  (80) 
-11.844

>  <name>  (80) 
80

>  <ligand_id>  (80) 
80

>  <original_smiles>  (80) 
[H]c1c([H])c([H])c2c(c1[H])C([H])([H])C([H])([H])C([H])([H])C2([H])N([H])C(=O)C1([H])N(C(=O)C([H])(N([H])C(=O)C([H])(N([H])C([H])([H])[H])C([H])([H])[H])C(C([H])([H])[H])(C([H])([H])[H])C([H])([H])[H])C([H])([H])c2c([H])c(OC([H])([H])c3c([H])c([H])c(C([H])([H])[H])c(C([H])(C([H])([H])N([H])C(=O)N4C([H])([H])C([H])([H])C([H])([H])C([H])(n5nc(-c6c([H])c([H])c(Oc7c([H])c([H])c(F)c([H])c7F)c([H])c6[H])c(C(=O)N([H])[H])c5N([H])[H])C4([H])[H])C([H])([H])[N+]([H])([H])[H])c3[H])c([H])c([H])c2C1([H])[H]

>  <smiles>  (80) 
[H]c1c([H])c([H])c2c(c1[H])C([H])([H])C([H])([H])C([H])([H])C2([H])N([H])C(=O)C1([H])N(C(=O)C([H])(N([H])C(=O)C([H])(N([H])C([H])([H])[H])C([H])([H])[H])C(C([H])([H])[H])(C([H])([H])[H])C([H])([H])[H])C([H])([H])c2c([H])c(OC([H])([H])c3c([H])c([H])c(C([H])([H])[H])c(C([H])(C([H])([H])N([H])C(=O)N4C([H])([H])C([H])([H])C([H])([H])C([H])(n5nc(-c6c([H])c([H])c(Oc7c([H])c([H])c(F)c([H])c7F)c([H])c6[H])c(C(=O)N([H])[H])c5N([H])[H])C4([H])[H])C([H])([H])[N+]([H])([H])[H])c3[H])c([H])c([H])c2C1([H])[H]

$$$$
81:0:0
     RDKit          3D

 97107  0  0  1  0  0  0  0  0999 V2000
  -29.7090  -22.7760   24.6370 C   0  0  0  0  0  2  0  0  0  0  0  0
  -30.7290  -22.3920   23.5680 C   0  0  0  0  0  2  0  0  0  0  0  0
  -29.2440  -24.1590   24.1760 C   0  0  0  0  0  2  0  0  0  0  0  0
  -30.1870  -23.0280   22.2670 C   0  0  0  0  0  3  0  0  0  0  0  0
  -29.2530  -24.1100   22.6950 N   0  0  2  0  0  4  0  0  0  0  0  0
  -28.3670  -23.6960   22.4180 H   0  0  0  0  0  0  0  0  0  0  0  0
  -29.3800  -22.0180   21.4350 C   0  0  0  0  0  0  0  0  0  0  0  0
  -29.9950  -20.9460   20.9090 N   0  0  0  0  0  0  0  0  0  0  0  0
  -28.1730  -22.2320   21.2670 O   0  0  0  0  0  0  0  0  0  0  0  0
  -30.9840  -20.8140   21.0840 H   0  0  0  0  0  0  0  0  0  0  0  0
  -29.0890  -20.5220   18.6610 C   0  0  0  0  0  1  0  0  0  0  0  0
  -29.3020  -19.9580   20.0810 C   0  0  0  0  0  3  0  0  0  0  0  0
  -30.6650  -14.5200   20.3690 C   0  0  0  0  0  0  0  0  0  0  0  0
  -30.4250  -12.3130   19.3330 C   0  0  0  0  0  2  0  0  0  0  0  0
  -29.4750  -12.4920   18.1270 C   0  0  0  0  0  2  0  0  0  0  0  0
  -27.9970  -12.3720   18.5590 C   0  0  0  0  0  2  0  0  0  0  0  0
  -27.6580  -13.2200   19.8140 C   0  0  0  0  0  3  0  0  0  0  0  0
  -28.7240  -13.0390   20.9220 C   0  0  0  0  0  2  0  0  0  0  0  0
  -30.0460  -13.3130   20.3360 N   0  0  0  0  0  0  0  0  0  0  0  0
  -31.8540  -14.6850   20.0800 O   0  0  0  0  0  0  0  0  0  0  0  0
  -30.4760  -17.7980   21.2520 C   0  0  0  0  0  2  0  0  0  0  0  0
  -29.6440  -16.2120   18.8790 C   0  0  0  0  0  2  0  0  0  0  0  0
  -29.1200  -17.4140   19.6370 C   0  0  0  0  0  3  0  0  0  0  0  0
  -30.0150  -18.6010   20.0150 C   0  0  0  0  0  3  0  0  0  0  0  0
  -29.4210  -16.7130   20.9560 C   0  0  0  0  0  3  0  0  0  0  0  0
  -29.7810  -15.5200   20.1620 N   0  0  0  0  0  0  0  0  0  0  0  0
  -25.2740  -13.8500   20.5380 C   0  0  0  0  0  0  0  0  0  0  0  0
  -24.2020  -13.0830   20.9090 C   0  0  0  0  0  0  0  0  0  0  0  0
  -24.6550  -11.7300   20.8770 C   0  0  0  0  0  0  0  0  0  0  0  0
  -26.3100  -12.9570   20.3030 N   0  0  0  0  0  0  0  0  0  0  0  0
  -25.9430  -11.6800   20.5650 N   0  0  0  0  0  0  0  0  0  0  0  0
  -23.9240  -10.4720   21.0680 C   0  0  0  0  0  0  0  0  0  0  0  0
  -24.3660   -9.4950   21.9880 C   0  0  0  0  0  3  0  0  0  0  0  0
  -23.6360   -8.3000   22.1670 C   0  0  0  0  0  3  0  0  0  0  0  0
  -22.4500   -8.0760   21.4290 C   0  0  0  0  0  0  0  0  0  0  0  0
  -22.0280   -9.0400   20.4970 C   0  0  0  0  0  3  0  0  0  0  0  0
  -22.7580  -10.2270   20.3160 C   0  0  0  0  0  3  0  0  0  0  0  0
  -21.6920   -6.9340   21.5180 O   0  0  0  0  0  0  0  0  0  0  0  0
  -21.6640   -6.1780   22.6620 C   0  0  0  0  0  0  0  0  0  0  0  0
  -21.2670   -6.7200   23.9040 C   0  0  0  0  0  3  0  0  0  0  0  0
  -21.1860   -5.8900   25.0400 C   0  0  0  0  0  3  0  0  0  0  0  0
  -21.4920   -4.5200   24.9350 C   0  0  0  0  0  0  0  0  0  0  0  0
  -21.8810   -3.9770   23.6980 C   0  0  0  0  0  3  0  0  0  0  0  0
  -21.9640   -4.8040   22.5640 C   0  0  0  0  0  0  0  0  0  0  0  0
  -22.3200   -4.2730   21.3700 F   0  0  0  0  0  0  0  0  0  0  0  0
  -21.4050   -3.7210   26.0240 F   0  0  0  0  0  0  0  0  0  0  0  0
  -22.8090  -13.5700   21.1880 C   0  0  0  0  0  0  0  0  0  0  0  0
  -22.0830  -12.8740   22.0580 N   0  0  0  0  0  0  0  0  0  0  0  0
  -22.3730  -14.5980   20.6730 O   0  0  0  0  0  0  0  0  0  0  0  0
  -22.4500  -12.0410   22.4960 H   0  0  0  0  0  0  0  0  0  0  0  0
  -21.1490  -13.1790   22.2910 H   0  0  0  0  0  0  0  0  0  0  0  0
  -25.4500  -15.2180   20.3600 N   0  0  0  0  0  0  0  0  0  0  0  0
  -24.6940  -15.8870   20.4700 H   0  0  0  0  0  0  0  0  0  0  0  0
  -26.3170  -15.6450   20.0580 H   0  0  0  0  0  0  0  0  0  0  0  0
  -29.3460  -25.4320   22.0030 C   0  0  0  0  0  2  0  0  0  0  0  0
  -28.5260  -25.4660   20.6850 C   0  0  0  0  0  2  0  0  0  0  0  0
  -28.5110  -26.7830   20.1180 O   0  0  0  0  0  0  0  0  0  0  0  0
  -24.6240  -31.8650   23.1770 C   0  0  0  0  0  0  0  0  0  0  0  0
  -27.3090  -27.4590   20.1230 C   0  0  0  0  0  0  0  0  0  0  0  0
  -23.4240  -30.4600   21.5270 C   0  0  0  0  0  3  0  0  0  0  0  0
  -24.8930  -28.9270   20.1090 C   0  0  0  0  0  0  0  0  0  0  0  0
  -25.9410  -30.8460   21.3240 C   0  0  0  0  0  2  0  0  0  0  0  0
  -26.0410  -29.4720   20.6960 C   0  0  0  0  0  0  0  0  0  0  0  0
  -27.2520  -28.7460   20.6990 C   0  0  0  0  0  3  0  0  0  0  0  0
  -26.1480  -26.9210   19.5240 C   0  0  0  0  0  3  0  0  0  0  0  0
  -24.9390  -27.6500   19.5190 C   0  0  0  0  0  3  0  0  0  0  0  0
  -23.6390  -29.7760   20.1490 C   0  0  0  0  0  2  0  0  0  0  0  0
  -24.6810  -31.0700   22.0700 N   0  0  0  0  0  0  0  0  0  0  0  0
  -23.5440  -32.1320   23.7210 O   0  0  0  0  0  0  0  0  0  0  0  0
  -22.7770  -29.4360   22.4860 C   0  0  0  0  0  0  0  0  0  0  0  0
  -21.4510  -29.2650   22.3760 N   0  0  0  0  0  0  0  0  0  0  0  0
  -23.4680  -28.7980   23.2860 O   0  0  0  0  0  0  0  0  0  0  0  0
  -20.9560  -29.8340   21.7040 H   0  0  0  0  0  0  0  0  0  0  0  0
  -18.0710  -28.1060   22.9130 C   0  0  0  0  0  0  0  0  0  0  0  0
  -20.6370  -28.3230   23.1420 C   0  0  0  0  0  3  0  0  0  0  0  0
  -20.7080  -26.9010   22.5380 C   0  0  0  0  0  2  0  0  0  0  0  0
  -19.5830  -26.6140   21.5390 C   0  0  0  0  0  2  0  0  0  0  0  0
  -18.2170  -26.7680   22.2100 C   0  0  0  0  0  2  0  0  0  0  0  0
  -19.2080  -28.8440   23.3370 C   0  0  0  0  0  0  0  0  0  0  0  0
  -19.0170  -30.1010   23.9510 C   0  0  0  0  0  3  0  0  0  0  0  0
  -17.7230  -30.6190   24.1430 C   0  0  0  0  0  3  0  0  0  0  0  0
  -16.6000  -29.8780   23.7340 C   0  0  0  0  0  3  0  0  0  0  0  0
  -16.7770  -28.6220   23.1270 C   0  0  0  0  0  3  0  0  0  0  0  0
  -25.9100  -32.4950   23.8040 C   0  0  0  0  0  3  0  0  0  0  0  0
  -26.4430  -31.7070   25.0620 C   0  0  1  0  0  0  0  0  0  0  0  0
  -25.3590  -31.4380   26.1310 C   0  0  0  0  0  1  0  0  0  0  0  0
  -27.0320  -30.3410   24.6360 C   0  0  0  0  0  1  0  0  0  0  0  0
  -27.5940  -32.4960   25.7280 C   0  0  0  0  0  1  0  0  0  0  0  0
  -25.5940  -33.8870   24.1550 N   0  0  0  0  0  0  0  0  0  0  0  0
  -25.9110  -34.9480   23.4030 C   0  0  0  0  0  0  0  0  0  0  0  0
  -26.5730  -34.8600   22.3640 O   0  0  0  0  0  0  0  0  0  0  0  0
  -25.0080  -34.0270   24.9670 H   0  0  0  0  0  0  0  0  0  0  0  0
  -24.1670  -36.7250   23.0800 C   0  0  0  0  0  1  0  0  0  0  0  0
  -25.4160  -36.3260   23.8800 C   0  0  0  0  0  3  0  0  0  0  0  0
  -27.5510  -37.2200   24.7010 C   0  0  0  0  0  1  0  0  0  0  0  0
  -26.4400  -37.3860   23.7680 N   0  0  0  0  0  0  0  0  0  0  0  0
  -26.0290  -38.3020   23.9240 H   0  0  0  0  0  0  0  0  0  0  0  0
  2  1  1  0
  3  1  1  0
  4  7  1  0
  4  5  1  0
  4  2  1  0
  5  3  1  0
  5  6  1  6
  8 10  1  0
  8  7  1  0
  9  7  2  0
 12 11  1  0
 12  8  1  0
 14 19  1  0
 15 16  1  0
 15 14  1  0
 17 16  1  0
 17 30  1  0
 17 18  1  0
 19 13  1  0
 19 18  1  0
 20 13  2  0
 22 26  1  0
 23 22  1  0
 23 24  1  0
 23 25  1  0
 24 12  1  0
 24 21  1  0
 25 21  1  0
 26 13  1  0
 26 25  1  0
 27 28  2  0
 28 47  1  0
 29 28  1  0
 29 32  1  0
 30 27  1  0
 30 31  1  0
 31 29  2  0
 32 33  1  0
 33 34  2  0
 35 38  1  0
 35 34  1  0
 36 35  2  0
 37 36  1  0
 37 32  2  0
 38 39  1  0
 39 40  1  0
 40 41  2  0
 42 41  1  0
 42 46  1  0
 43 42  2  0
 44 39  2  0
 44 43  1  0
 45 44  1  0
 47 48  1  0
 48 51  1  0
 48 50  1  0
 49 47  2  0
 52 53  1  0
 52 27  1  0
 54 52  1  0
 55  5  1  0
 56 55  1  0
 57 59  1  0
 57 56  1  0
 58 69  2  0
 59 64  1  0
 60 68  1  0
 60 70  1  0
 61 67  1  0
 61 63  1  0
 62 68  1  0
 63 64  2  0
 63 62  1  0
 65 59  2  0
 66 65  1  0
 66 61  2  0
 67 60  1  0
 68 58  1  0
 70 72  2  0
 71 70  1  0
 73 71  1  0
 74 83  2  0
 74 79  1  0
 75 71  1  0
 75 79  1  0
 76 75  1  0
 77 78  1  0
 77 76  1  0
 78 74  1  0
 79 80  2  0
 80 81  1  0
 82 81  2  0
 83 82  1  0
 84 58  1  0
 84 89  1  0
 84 85  1  0
 85 88  1  1
 85 86  1  0
 87 85  1  0
 89 92  1  0
 90 94  1  0
 90 89  1  0
 91 90  2  0
 94 93  1  0
 96 94  1  0
 96 97  1  0
 96 95  1  0
M  ISO  4  13 100  26 100  56 101  57 101
M  END
>  <TORSDO>  (81) 
F 20

>  <SCORE>  (81) 
-13.508

>  <name>  (81) 
81

>  <ligand_id>  (81) 
81

>  <original_smiles>  (81) 
[H]c1c([H])c([H])c2c(c1[H])C([H])([H])C([H])([H])C([H])([H])C2([H])N([H])C(=O)C1([H])N(C(=O)C([H])(N([H])C(=O)C([H])(N([H])C([H])([H])[H])C([H])([H])[H])C(C([H])([H])[H])(C([H])([H])[H])C([H])([H])[H])C([H])([H])c2c([H])c(OC([H])([H])C([H])([H])[N+]3([H])C([H])([H])C([H])([H])C([H])([H])C3([H])C(=O)N([H])C([H])(C([H])([H])[H])C3([H])C([H])([H])C4([H])N(C(=O)N5C([H])([H])C([H])([H])C([H])([H])C([H])(n6nc(-c7c([H])c([H])c(Oc8c([H])c([H])c(F)c([H])c8F)c([H])c7[H])c(C(=O)N([H])[H])c6N([H])[H])C5([H])[H])C([H])([H])C43[H])c([H])c([H])c2C1([H])[H]

>  <smiles>  (81) 
[H]c1c([H])c([H])c2c(c1[H])C([H])([H])C([H])([H])C([H])([H])C2([H])N([H])C(=O)C1([H])N(C(=O)C([H])(N([H])C(=O)C([H])(N([H])C([H])([H])[H])C([H])([H])[H])C(C([H])([H])[H])(C([H])([H])[H])C([H])([H])[H])C([H])([H])c2c([H])c(OC([H])([H])C([H])([H])[N+]3([H])C([H])([H])C([H])([H])C([H])([H])C3([H])C(=O)N([H])C([H])(C([H])([H])[H])C3([H])C([H])([H])C4([H])N(C(=O)N5C([H])([H])C([H])([H])C([H])([H])C([H])(n6nc(-c7c([H])c([H])c(Oc8c([H])c([H])c(F)c([H])c8F)c([H])c7[H])c(C(=O)N([H])[H])c6N([H])[H])C5([H])[H])C([H])([H])C43[H])c([H])c([H])c2C1([H])[H]

$$$$
82:0:0
     RDKit          3D

 94102  0  0  1  0  0  0  0  0999 V2000
  -28.9040  -22.4620   21.2670 C   0  0  0  0  0  3  0  0  0  0  0  0
  -29.1080  -21.1990   21.8510 C   0  0  0  0  0  3  0  0  0  0  0  0
  -29.8630  -21.6060   19.2090 C   0  0  0  0  0  3  0  0  0  0  0  0
  -29.2610  -22.7220   19.9270 C   0  0  0  0  0  0  0  0  0  0  0  0
  -29.6600  -20.1190   21.1310 C   0  0  0  0  0  0  0  0  0  0  0  0
  -30.0710  -20.2870   19.7820 C   0  0  0  0  0  0  0  0  0  0  0  0
  -29.7470  -18.7810   21.8530 C   0  0  0  0  0  1  0  0  0  0  0  0
  -30.5450  -19.0160   18.9510 C   0  0  0  0  0  2  0  0  0  0  0  0
  -31.6460  -17.9790   19.5070 C   0  0  0  0  0  2  0  0  0  0  0  0
  -32.0300  -15.3760   19.6020 C   0  0  0  0  0  0  0  0  0  0  0  0
  -31.7640  -12.9800   18.9740 C   0  0  0  0  0  2  0  0  0  0  0  0
  -30.7960  -12.8930   17.7750 C   0  0  0  0  0  2  0  0  0  0  0  0
  -29.3340  -12.8270   18.2600 C   0  0  0  0  0  2  0  0  0  0  0  0
  -29.0100  -13.9070   19.3260 C   0  0  0  0  0  3  0  0  0  0  0  0
  -30.0930  -13.9660   20.4240 C   0  0  0  0  0  2  0  0  0  0  0  0
  -31.3840  -14.1750   19.7540 N   0  0  0  0  0  0  0  0  0  0  0  0
  -33.2090  -15.4190   19.2420 O   0  0  0  0  0  0  0  0  0  0  0  0
  -31.2590  -16.5160   19.6590 N   0  0  0  0  0  0  0  0  0  0  0  0
  -30.2920  -16.3450   19.8900 H   0  0  0  0  0  0  0  0  0  0  0  0
  -26.7480  -14.7050   20.2370 C   0  0  0  0  0  0  0  0  0  0  0  0
  -25.6280  -14.0280   20.6330 C   0  0  0  0  0  0  0  0  0  0  0  0
  -25.9390  -12.6390   20.5010 C   0  0  0  0  0  0  0  0  0  0  0  0
  -27.6740  -13.7360   19.8850 N   0  0  0  0  0  0  0  0  0  0  0  0
  -27.1960  -12.4840   20.1050 N   0  0  0  0  0  0  0  0  0  0  0  0
  -25.0930  -11.4510   20.6730 C   0  0  0  0  0  0  0  0  0  0  0  0
  -25.3970  -10.4590   21.6300 C   0  0  0  0  0  3  0  0  0  0  0  0
  -24.5570   -9.3350   21.7890 C   0  0  0  0  0  3  0  0  0  0  0  0
  -23.4000   -9.1950   20.9870 C   0  0  0  0  0  0  0  0  0  0  0  0
  -23.1150  -10.1740   20.0180 C   0  0  0  0  0  3  0  0  0  0  0  0
  -23.9540  -11.2890   19.8590 C   0  0  0  0  0  3  0  0  0  0  0  0
  -22.5410   -8.1250   21.0530 O   0  0  0  0  0  0  0  0  0  0  0  0
  -22.2530   -7.5050   22.2420 C   0  0  0  0  0  0  0  0  0  0  0  0
  -21.6790   -8.2040   23.3260 C   0  0  0  0  0  3  0  0  0  0  0  0
  -21.3350   -7.5130   24.5050 C   0  0  0  0  0  3  0  0  0  0  0  0
  -21.5530   -6.1260   24.5990 C   0  0  0  0  0  0  0  0  0  0  0  0
  -22.1190   -5.4270   23.5180 C   0  0  0  0  0  3  0  0  0  0  0  0
  -22.4650   -6.1150   22.3410 C   0  0  0  0  0  0  0  0  0  0  0  0
  -22.9900   -5.4340   21.2950 F   0  0  0  0  0  0  0  0  0  0  0  0
  -21.2150   -5.4610   25.7280 F   0  0  0  0  0  0  0  0  0  0  0  0
  -24.3100  -14.6300   21.0200 C   0  0  0  0  0  0  0  0  0  0  0  0
  -23.5770  -13.9800   21.9170 N   0  0  0  0  0  0  0  0  0  0  0  0
  -23.9430  -15.7120   20.5610 O   0  0  0  0  0  0  0  0  0  0  0  0
  -23.8880  -13.1020   22.3060 H   0  0  0  0  0  0  0  0  0  0  0  0
  -22.6930  -14.3650   22.2180 H   0  0  0  0  0  0  0  0  0  0  0  0
  -27.0500  -16.0600   20.1220 N   0  0  0  0  0  0  0  0  0  0  0  0
  -26.3630  -16.7810   20.3160 H   0  0  0  0  0  0  0  0  0  0  0  0
  -27.9080  -16.4270   19.7320 H   0  0  0  0  0  0  0  0  0  0  0  0
  -28.9830  -24.1740   19.3190 C   0  0  0  0  0  3  0  0  0  0  0  0
  -28.1420  -24.0360   18.1160 N   0  0  0  0  0  4  0  0  0  0  0  0
  -27.9770  -24.9380   17.7060 H   0  0  0  0  0  0  0  0  0  0  0  0
  -27.2590  -23.6130   18.3370 H   0  0  0  0  0  0  0  0  0  0  0  0
  -28.6010  -23.4700   17.4250 H   0  0  0  0  0  0  0  0  0  0  0  0
  -28.3470  -25.3170   20.2720 C   0  0  0  0  0  2  0  0  0  0  0  0
  -28.5380  -26.7750   20.0040 O   0  0  0  0  0  0  0  0  0  0  0  0
  -24.6840  -31.8960   23.4010 C   0  0  0  0  0  0  0  0  0  0  0  0
  -27.4080  -27.6090   20.0560 C   0  0  0  0  0  0  0  0  0  0  0  0
  -23.5190  -30.5850   21.6630 C   0  0  0  0  0  3  0  0  0  0  0  0
  -25.0100  -29.1670   20.1430 C   0  0  0  0  0  0  0  0  0  0  0  0
  -26.0510  -30.9750   21.5110 C   0  0  0  0  0  2  0  0  0  0  0  0
  -26.1660  -29.6430   20.7740 C   0  0  0  0  0  0  0  0  0  0  0  0
  -27.3720  -28.8800   20.7180 C   0  0  0  0  0  3  0  0  0  0  0  0
  -26.2300  -27.1900   19.4040 C   0  0  0  0  0  3  0  0  0  0  0  0
  -25.0440  -27.9480   19.4480 C   0  0  0  0  0  3  0  0  0  0  0  0
  -23.7540  -30.0080   20.2420 C   0  0  0  0  0  2  0  0  0  0  0  0
  -24.7700  -31.1660   22.2500 N   0  0  0  0  0  0  0  0  0  0  0  0
  -23.5930  -32.1110   23.9470 O   0  0  0  0  0  0  0  0  0  0  0  0
  -22.8780  -29.4920   22.5510 C   0  0  0  0  0  0  0  0  0  0  0  0
  -21.5670  -29.2580   22.3720 N   0  0  0  0  0  0  0  0  0  0  0  0
  -23.5610  -28.8550   23.3580 O   0  0  0  0  0  0  0  0  0  0  0  0
  -21.0720  -29.8260   21.6980 H   0  0  0  0  0  0  0  0  0  0  0  0
  -18.2560  -27.8260   22.6450 C   0  0  0  0  0  0  0  0  0  0  0  0
  -20.7730  -28.2420   23.0650 C   0  0  0  0  0  3  0  0  0  0  0  0
  -21.0020  -26.8410   22.4520 C   0  0  0  0  0  2  0  0  0  0  0  0
  -19.9810  -26.4800   21.3700 C   0  0  0  0  0  2  0  0  0  0  0  0
  -18.5590  -26.5150   21.9410 C   0  0  0  0  0  2  0  0  0  0  0  0
  -19.2970  -28.6450   23.1590 C   0  0  0  0  0  0  0  0  0  0  0  0
  -18.9640  -29.8710   23.7750 C   0  0  0  0  0  3  0  0  0  0  0  0
  -17.6210  -30.2810   23.8820 C   0  0  0  0  0  3  0  0  0  0  0  0
  -16.5940  -29.4600   23.3850 C   0  0  0  0  0  3  0  0  0  0  0  0
  -16.9110  -28.2350   22.7720 C   0  0  0  0  0  3  0  0  0  0  0  0
  -25.9500  -32.5150   24.0710 C   0  0  0  0  0  3  0  0  0  0  0  0
  -25.6480  -33.9190   24.3840 N   0  0  0  0  0  0  0  0  0  0  0  0
  -26.0350  -34.9640   23.6420 C   0  0  0  0  0  0  0  0  0  0  0  0
  -26.7530  -34.8480   22.6450 O   0  0  0  0  0  0  0  0  0  0  0  0
  -25.0170  -34.0850   25.1540 H   0  0  0  0  0  0  0  0  0  0  0  0
  -24.3600  -36.7890   23.1970 C   0  0  0  0  0  1  0  0  0  0  0  0
  -25.5490  -36.3620   24.0730 C   0  0  0  0  0  3  0  0  0  0  0  0
  -27.6510  -37.2090   25.0160 C   0  0  0  0  0  1  0  0  0  0  0  0
  -26.6050  -37.3960   24.0160 N   0  0  0  0  0  0  0  0  0  0  0  0
  -26.2070  -38.3230   24.1400 H   0  0  0  0  0  0  0  0  0  0  0  0
  -26.4040  -31.7430   25.3710 C   0  0  1  0  0  0  0  0  0  0  0  0
  -25.2590  -31.4960   26.3800 C   0  0  0  0  0  1  0  0  0  0  0  0
  -27.0160  -30.3700   25.0070 C   0  0  0  0  0  1  0  0  0  0  0  0
  -27.5140  -32.5410   26.0940 C   0  0  0  0  0  1  0  0  0  0  0  0
  1  2  1  0
  3  6  2  0
  3  4  1  0
  4  1  2  0
  5  2  2  0
  5  7  1  0
  6  5  1  0
  8  9  1  0
  8  6  1  0
  9 18  1  0
 10 18  1  0
 10 16  1  0
 11 16  1  0
 12 13  1  0
 12 11  1  0
 14 13  1  0
 14 23  1  0
 14 15  1  0
 16 15  1  0
 17 10  2  0
 18 19  1  0
 20 21  2  0
 21 40  1  0
 22 21  1  0
 22 25  1  0
 23 24  1  0
 23 20  1  0
 24 22  2  0
 25 26  1  0
 26 27  2  0
 28 31  1  0
 28 27  1  0
 29 28  2  0
 30 29  1  0
 30 25  2  0
 31 32  1  0
 32 37  2  0
 32 33  1  0
 33 34  2  0
 34 35  1  0
 35 39  1  0
 36 35  2  0
 37 36  1  0
 38 37  1  0
 40 41  1  0
 41 44  1  0
 41 43  1  0
 42 40  2  0
 45 20  1  0
 45 46  1  0
 47 45  1  0
 48  4  1  0
 48 53  1  0
 49 51  1  0
 49 48  1  0
 50 49  1  0
 52 49  1  0
 54 56  1  0
 54 53  1  0
 55 66  2  0
 56 61  1  0
 57 65  1  0
 57 67  1  0
 58 64  1  0
 58 60  1  0
 59 65  1  0
 60 59  1  0
 61 60  2  0
 62 63  1  0
 62 56  2  0
 63 58  2  0
 64 57  1  0
 65 55  1  0
 67 69  2  0
 68 67  1  0
 70 68  1  0
 71 80  2  0
 71 76  1  0
 72 68  1  0
 72 76  1  0
 73 72  1  0
 74 75  1  0
 74 73  1  0
 75 71  1  0
 76 77  2  0
 77 78  1  0
 79 78  2  0
 80 79  1  0
 81 55  1  0
 81 82  1  0
 81 91  1  0
 82 85  1  0
 83 87  1  0
 83 82  1  0
 84 83  2  0
 87 86  1  0
 89 87  1  0
 89 90  1  0
 89 88  1  0
 91 94  1  1
 91 92  1  0
 93 91  1  0
M  ISO  4  10 100  18 100  53 101  54 101
M  END
>  <TORSDO>  (82) 
F 21

>  <SCORE>  (82) 
-10.587

>  <name>  (82) 
82

>  <ligand_id>  (82) 
82

>  <original_smiles>  (82) 
[H]c1c([H])c([H])c2c(c1[H])C([H])([H])C([H])([H])C([H])([H])C2([H])N([H])C(=O)C1([H])N(C(=O)C([H])(N([H])C(=O)C([H])(N([H])C([H])([H])[H])C([H])([H])[H])C(C([H])([H])[H])(C([H])([H])[H])C([H])([H])[H])C([H])([H])c2c([H])c(OC([H])([H])C([H])(c3c([H])c([H])c(C([H])([H])[H])c(C([H])([H])C([H])([H])N([H])C(=O)N4C([H])([H])C([H])([H])C([H])([H])C([H])(n5nc(-c6c([H])c([H])c(Oc7c([H])c([H])c(F)c([H])c7F)c([H])c6[H])c(C(=O)N([H])[H])c5N([H])[H])C4([H])[H])c3[H])[N+]([H])([H])[H])c([H])c([H])c2C1([H])[H]

>  <smiles>  (82) 
[H]c1c([H])c([H])c2c(c1[H])C([H])([H])C([H])([H])C([H])([H])C2([H])N([H])C(=O)C1([H])N(C(=O)C([H])(N([H])C(=O)C([H])(N([H])C([H])([H])[H])C([H])([H])[H])C(C([H])([H])[H])(C([H])([H])[H])C([H])([H])[H])C([H])([H])c2c([H])c(OC([H])([H])C([H])(c3c([H])c([H])c(C([H])([H])[H])c(C([H])([H])C([H])([H])N([H])C(=O)N4C([H])([H])C([H])([H])C([H])([H])C([H])(n5nc(-c6c([H])c([H])c(Oc7c([H])c([H])c(F)c([H])c7F)c([H])c6[H])c(C(=O)N([H])[H])c5N([H])[H])C4([H])[H])c3[H])[N+]([H])([H])[H])c([H])c([H])c2C1([H])[H]

$$$$
83:0:0
     RDKit          3D

 97107  0  0  1  0  0  0  0  0999 V2000
  -30.2880  -20.4780   18.9150 C   0  0  0  0  0  2  0  0  0  0  0  0
  -30.6560  -22.8840   19.3710 C   0  0  0  0  0  0  0  0  0  0  0  0
  -30.0360  -21.9010   18.7090 N   0  0  0  0  0  0  0  0  0  0  0  0
  -31.3070  -22.6900   20.3980 O   0  0  0  0  0  0  0  0  0  0  0  0
  -29.4740  -22.1470   17.9040 H   0  0  0  0  0  0  0  0  0  0  0  0
  -30.5910  -24.2850   18.7600 C   0  0  0  0  0  2  0  0  0  0  0  0
  -30.1120  -25.3730   19.7390 C   0  0  0  0  0  2  0  0  0  0  0  0
  -28.5890  -25.6020   19.7230 C   0  0  0  0  0  2  0  0  0  0  0  0
  -28.4080  -26.8670   20.3420 O   0  0  0  0  0  0  0  0  0  0  0  0
  -24.5250  -31.9510   23.3340 C   0  0  0  0  0  0  0  0  0  0  0  0
  -27.1940  -27.5120   20.2950 C   0  0  0  0  0  0  0  0  0  0  0  0
  -23.3210  -30.5440   21.6870 C   0  0  0  0  0  3  0  0  0  0  0  0
  -24.7800  -28.9880   20.2860 C   0  0  0  0  0  0  0  0  0  0  0  0
  -25.8490  -30.8970   21.5120 C   0  0  0  0  0  2  0  0  0  0  0  0
  -25.9320  -29.5280   20.8730 C   0  0  0  0  0  0  0  0  0  0  0  0
  -27.1320  -28.7950   20.8760 C   0  0  0  0  0  3  0  0  0  0  0  0
  -26.0270  -26.9700   19.7070 C   0  0  0  0  0  3  0  0  0  0  0  0
  -24.8220  -27.7050   19.7050 C   0  0  0  0  0  3  0  0  0  0  0  0
  -23.5370  -29.8480   20.3140 C   0  0  0  0  0  2  0  0  0  0  0  0
  -24.5790  -31.1490   22.2310 N   0  0  0  0  0  0  0  0  0  0  0  0
  -23.4420  -32.2260   23.8700 O   0  0  0  0  0  0  0  0  0  0  0  0
  -22.6610  -29.5340   22.6510 C   0  0  0  0  0  0  0  0  0  0  0  0
  -21.3410  -29.3420   22.5020 N   0  0  0  0  0  0  0  0  0  0  0  0
  -23.3370  -28.9230   23.4820 O   0  0  0  0  0  0  0  0  0  0  0  0
  -20.8550  -29.8850   21.8010 H   0  0  0  0  0  0  0  0  0  0  0  0
  -17.9660  -28.1410   22.9580 C   0  0  0  0  0  0  0  0  0  0  0  0
  -20.5160  -28.4110   23.2710 C   0  0  0  0  0  3  0  0  0  0  0  0
  -20.6340  -26.9720   22.7150 C   0  0  0  0  0  2  0  0  0  0  0  0
  -19.5520  -26.6370   21.6840 C   0  0  0  0  0  2  0  0  0  0  0  0
  -18.1590  -26.7840   22.3030 C   0  0  0  0  0  2  0  0  0  0  0  0
  -19.0740  -28.9130   23.4010 C   0  0  0  0  0  0  0  0  0  0  0  0
  -18.8400  -30.1830   23.9680 C   0  0  0  0  0  3  0  0  0  0  0  0
  -17.5320  -30.6810   24.1070 C   0  0  0  0  0  3  0  0  0  0  0  0
  -16.4380  -29.9050   23.6860 C   0  0  0  0  0  3  0  0  0  0  0  0
  -16.6560  -28.6390   23.1140 C   0  0  0  0  0  3  0  0  0  0  0  0
  -25.8120  -32.5780   23.9570 C   0  0  0  0  0  3  0  0  0  0  0  0
  -25.5150  -33.9850   24.2570 N   0  0  0  0  0  0  0  0  0  0  0  0
  -25.8790  -35.0210   23.4860 C   0  0  0  0  0  0  0  0  0  0  0  0
  -26.5720  -34.8900   22.4710 O   0  0  0  0  0  0  0  0  0  0  0  0
  -24.9070  -34.1590   25.0430 H   0  0  0  0  0  0  0  0  0  0  0  0
  -24.2030  -36.8400   23.0370 C   0  0  0  0  0  1  0  0  0  0  0  0
  -25.4000  -36.4240   23.9050 C   0  0  0  0  0  3  0  0  0  0  0  0
  -27.5120  -37.2860   24.8130 C   0  0  0  0  0  1  0  0  0  0  0  0
  -26.4550  -37.4580   23.8210 N   0  0  0  0  0  0  0  0  0  0  0  0
  -26.0590  -38.3860   23.9350 H   0  0  0  0  0  0  0  0  0  0  0  0
  -26.3090  -31.8250   25.2520 C   0  0  1  0  0  0  0  0  0  0  0  0
  -25.2080  -31.6090   26.3160 C   0  0  0  0  0  1  0  0  0  0  0  0
  -26.8820  -30.4370   24.8890 C   0  0  0  0  0  1  0  0  0  0  0  0
  -27.4590  -32.6200   25.9130 C   0  0  0  0  0  1  0  0  0  0  0  0
  -29.1410  -19.6420   18.3180 C   0  0  0  0  0  2  0  0  0  0  0  0
  -28.0180  -17.4650   18.4270 C   0  0  0  0  0  1  0  0  0  0  0  0
  -29.3260  -18.1650   18.3800 N   0  0  1  0  0  4  0  0  0  0  0  0
  -29.7680  -17.9670   19.2650 H   0  0  0  0  0  0  0  0  0  0  0  0
  -30.2160  -17.5950   17.3300 C   0  0  0  0  0  2  0  0  0  0  0  0
  -31.1340  -14.3510   19.9610 C   0  0  0  0  0  0  0  0  0  0  0  0
  -30.4310  -12.2750   18.9680 C   0  0  0  0  0  2  0  0  0  0  0  0
  -29.4160  -12.4920   17.8370 C   0  0  0  0  0  2  0  0  0  0  0  0
  -27.9960  -12.4470   18.4030 C   0  0  0  0  0  2  0  0  0  0  0  0
  -27.7880  -13.3170   19.6720 C   0  0  0  0  0  3  0  0  0  0  0  0
  -28.9620  -13.1860   20.6840 C   0  0  0  0  0  2  0  0  0  0  0  0
  -30.2150  -13.3540   19.9150 N   0  0  0  0  0  0  0  0  0  0  0  0
  -32.0370  -14.4070   20.7580 O   0  0  0  0  0  0  0  0  0  0  0  0
  -31.7550  -14.9100   17.6240 C   0  0  0  0  0  2  0  0  0  0  0  0
  -32.5260  -16.1880   17.4140 C   0  0  1  0  0  0  0  0  0  0  0  0
  -33.3400  -16.4830   18.6840 C   0  0  0  0  0  3  0  0  0  0  0  0
  -31.6340  -17.3680   17.8730 C   0  0  0  0  0  3  0  0  0  0  0  0
  -31.8510  -16.5480   19.1620 C   0  0  1  0  0  0  0  0  0  0  0  0
  -34.3590  -15.4760   19.2410 C   0  0  0  0  0  1  0  0  0  0  0  0
  -31.1760  -15.2420   18.9380 N   0  0  0  0  0  0  0  0  0  0  0  0
  -25.4180  -13.9320   20.4780 C   0  0  0  0  0  0  0  0  0  0  0  0
  -24.3470  -13.1600   20.8550 C   0  0  0  0  0  0  0  0  0  0  0  0
  -24.8000  -11.8070   20.8030 C   0  0  0  0  0  0  0  0  0  0  0  0
  -26.4580  -13.0510   20.2340 N   0  0  0  0  0  0  0  0  0  0  0  0
  -26.0900  -11.7680   20.4890 N   0  0  0  0  0  0  0  0  0  0  0  0
  -24.0660  -10.5460   20.9850 C   0  0  0  0  0  0  0  0  0  0  0  0
  -24.4990   -9.5710   21.9100 C   0  0  0  0  0  3  0  0  0  0  0  0
  -23.7680   -8.3760   22.0880 C   0  0  0  0  0  3  0  0  0  0  0  0
  -22.5910   -8.1460   21.3370 C   0  0  0  0  0  0  0  0  0  0  0  0
  -22.1780   -9.1090   20.3990 C   0  0  0  0  0  3  0  0  0  0  0  0
  -22.9090  -10.2950   20.2200 C   0  0  0  0  0  3  0  0  0  0  0  0
  -21.8320   -7.0020   21.4250 O   0  0  0  0  0  0  0  0  0  0  0  0
  -21.7670   -6.2720   22.5840 C   0  0  0  0  0  0  0  0  0  0  0  0
  -21.2950   -6.8270   23.7930 C   0  0  0  0  0  3  0  0  0  0  0  0
  -21.1780   -6.0200   24.9420 C   0  0  0  0  0  3  0  0  0  0  0  0
  -21.5250   -4.6580   24.8830 C   0  0  0  0  0  0  0  0  0  0  0  0
  -21.9900   -4.0990   23.6800 C   0  0  0  0  0  3  0  0  0  0  0  0
  -22.1100   -4.9040   22.5330 C   0  0  0  0  0  0  0  0  0  0  0  0
  -22.5390   -4.3580   21.3700 F   0  0  0  0  0  0  0  0  0  0  0  0
  -21.4070   -3.8790   25.9840 F   0  0  0  0  0  0  0  0  0  0  0  0
  -22.9590  -13.6410   21.1640 C   0  0  0  0  0  0  0  0  0  0  0  0
  -22.2420  -12.9280   22.0270 N   0  0  0  0  0  0  0  0  0  0  0  0
  -22.5180  -14.6780   20.6710 O   0  0  0  0  0  0  0  0  0  0  0  0
  -22.6140  -12.0860   22.4420 H   0  0  0  0  0  0  0  0  0  0  0  0
  -21.3150  -13.2330   22.2860 H   0  0  0  0  0  0  0  0  0  0  0  0
  -25.5940  -15.3020   20.3100 N   0  0  0  0  0  0  0  0  0  0  0  0
  -24.8480  -15.9770   20.4400 H   0  0  0  0  0  0  0  0  0  0  0  0
  -26.4870  -15.7270   20.0990 H   0  0  0  0  0  0  0  0  0  0  0  0
  2  4  2  0
  3  1  1  0
  3  2  1  0
  5  3  1  0
  6  2  1  0
  6  7  1  0
  8  7  1  0
  8  9  1  0
 10 21  2  0
 11  9  1  0
 11 16  1  0
 12 20  1  0
 12 22  1  0
 13 19  1  0
 13 15  1  0
 14 20  1  0
 15 16  2  0
 15 14  1  0
 17 11  2  0
 18 17  1  0
 18 13  2  0
 19 12  1  0
 20 10  1  0
 22 24  2  0
 23 22  1  0
 25 23  1  0
 26 35  2  0
 26 31  1  0
 27 23  1  0
 27 31  1  0
 28 27  1  0
 29 30  1  0
 29 28  1  0
 30 26  1  0
 31 32  2  0
 32 33  1  0
 34 33  2  0
 35 34  1  0
 36 10  1  0
 36 37  1  0
 36 46  1  0
 37 40  1  0
 38 42  1  0
 38 37  1  0
 39 38  2  0
 42 41  1  0
 44 42  1  0
 44 45  1  0
 44 43  1  0
 46 49  1  1
 46 47  1  0
 48 46  1  0
 50 52  1  0
 50  1  1  0
 52 51  1  0
 52 53  1  1
 54 52  1  0
 55 62  2  0
 56 61  1  0
 57 58  1  0
 57 56  1  0
 59 58  1  0
 59 73  1  0
 59 60  1  0
 61 55  1  0
 61 60  1  0
 63 69  1  0
 64 63  1  1
 64 66  1  0
 64 65  1  0
 64 67  1  0
 67 65  1  1
 65 68  1  0
 66 54  1  0
 66 67  1  0
 67 69  1  0
 69 55  1  0
 70 71  2  0
 71 90  1  0
 72 71  1  0
 72 75  1  0
 73 70  1  0
 73 74  1  0
 74 72  2  0
 75 76  1  0
 76 77  2  0
 78 81  1  0
 78 77  1  0
 79 78  2  0
 80 79  1  0
 80 75  2  0
 81 82  1  0
 82 83  1  0
 83 84  2  0
 85 84  1  0
 85 89  1  0
 86 85  2  0
 87 82  2  0
 87 86  1  0
 88 87  1  0
 90 91  1  0
 91 94  1  0
 91 93  1  0
 92 90  2  0
 95 96  1  0
 95 70  1  0
 97 95  1  0
M  ISO  4   8 101   9 101  55 100  69 100
M  END
>  <TORSDO>  (83) 
F 23

>  <SCORE>  (83) 
-12.385

>  <name>  (83) 
83

>  <ligand_id>  (83) 
83

>  <original_smiles>  (83) 
[H]c1c([H])c([H])c2c(c1[H])C([H])([H])C([H])([H])C([H])([H])C2([H])N([H])C(=O)C1([H])N(C(=O)C([H])(N([H])C(=O)C([H])(N([H])C([H])([H])[H])C([H])([H])[H])C(C([H])([H])[H])(C([H])([H])[H])C([H])([H])[H])C([H])([H])c2c([H])c(OC([H])([H])C([H])([H])C([H])([H])C(=O)N([H])C([H])([H])C([H])([H])[N+]([H])(C([H])([H])[H])C([H])([H])C3([H])C4([H])N(C(=O)N5C([H])([H])C([H])([H])C([H])([H])C([H])(n6nc(-c7c([H])c([H])c(Oc8c([H])c([H])c(F)c([H])c8F)c([H])c7[H])c(C(=O)N([H])[H])c6N([H])[H])C5([H])[H])C([H])([H])C3([H])C4([H])C([H])([H])[H])c([H])c([H])c2C1([H])[H]

>  <smiles>  (83) 
[H]c1c([H])c([H])c2c(c1[H])C([H])([H])C([H])([H])C([H])([H])C2([H])N([H])C(=O)C1([H])N(C(=O)C([H])(N([H])C(=O)C([H])(N([H])C([H])([H])[H])C([H])([H])[H])C(C([H])([H])[H])(C([H])([H])[H])C([H])([H])[H])C([H])([H])c2c([H])c(OC([H])([H])C([H])([H])C([H])([H])C(=O)N([H])C([H])([H])C([H])([H])[N+]([H])(C([H])([H])[H])C([H])([H])C3([H])C4([H])N(C(=O)N5C([H])([H])C([H])([H])C([H])([H])C([H])(n6nc(-c7c([H])c([H])c(Oc8c([H])c([H])c(F)c([H])c8F)c([H])c7[H])c(C(=O)N([H])[H])c6N([H])[H])C5([H])[H])C([H])([H])C3([H])C4([H])C([H])([H])[H])c([H])c([H])c2C1([H])[H]

$$$$
84:0:0
     RDKit          3D

 95104  0  0  1  0  0  0  0  0999 V2000
  -27.7240  -20.5970   19.0510 C   0  0  0  0  0  0  0  0  0  0  0  0
  -27.2340  -18.6020   20.5970 C   0  0  0  0  0  2  0  0  0  0  0  0
  -28.9740  -18.3490   18.7780 C   0  0  0  0  0  2  0  0  0  0  0  0
  -28.3480  -18.8120   21.6620 C   0  0  0  0  0  2  0  0  0  0  0  0
  -29.6760  -20.7170   20.7010 C   0  0  0  0  0  2  0  0  0  0  0  0
  -27.6450  -19.0550   19.1710 C   0  0  0  0  0  3  0  0  0  0  0  0
  -28.3070  -21.3480   20.2530 C   0  0  0  0  0  3  0  0  0  0  0  0
  -30.0280  -18.2760   19.9270 C   0  0  0  0  0  3  0  0  0  0  0  0
  -29.6340  -19.2290   21.0300 N   0  0  2  0  0  4  0  0  0  0  0  0
  -27.3210  -21.1850   18.0460 O   0  0  0  0  0  0  0  0  0  0  0  0
  -30.3470  -19.1200   21.7390 H   0  0  0  0  0  0  0  0  0  0  0  0
  -27.9640  -22.8870   20.3860 C   0  0  0  0  0  2  0  0  0  0  0  0
  -28.7330  -24.0460   19.7060 C   0  0  0  0  0  0  0  0  0  0  0  0
  -29.4740  -23.8590   18.7370 O   0  0  0  0  0  0  0  0  0  0  0  0
  -28.5190  -25.4560   20.3480 C   0  0  0  0  0  2  0  0  0  0  0  0
  -28.5790  -26.5960   19.4470 O   0  0  0  0  0  0  0  0  0  0  0  0
  -24.8770  -31.5710   23.0480 C   0  0  0  0  0  0  0  0  0  0  0  0
  -27.4620  -27.4090   19.5210 C   0  0  0  0  0  0  0  0  0  0  0  0
  -23.6520  -30.3480   21.2830 C   0  0  0  0  0  3  0  0  0  0  0  0
  -25.0870  -28.9510   19.6970 C   0  0  0  0  0  0  0  0  0  0  0  0
  -26.1820  -30.7020   21.1040 C   0  0  0  0  0  2  0  0  0  0  0  0
  -26.2560  -29.4000   20.3250 C   0  0  0  0  0  0  0  0  0  0  0  0
  -27.4510  -28.6380   20.2300 C   0  0  0  0  0  3  0  0  0  0  0  0
  -26.2790  -26.9870   18.8840 C   0  0  0  0  0  3  0  0  0  0  0  0
  -25.0950  -27.7480   18.9690 C   0  0  0  0  0  3  0  0  0  0  0  0
  -23.8490  -29.8090   19.8400 C   0  0  0  0  0  2  0  0  0  0  0  0
  -24.9230  -30.8840   21.8700 N   0  0  0  0  0  0  0  0  0  0  0  0
  -23.8010  -31.7940   23.6200 O   0  0  0  0  0  0  0  0  0  0  0  0
  -22.9980  -29.2410   22.1420 C   0  0  0  0  0  0  0  0  0  0  0  0
  -21.6630  -29.1150   22.0450 N   0  0  0  0  0  0  0  0  0  0  0  0
  -23.6860  -28.5040   22.8510 O   0  0  0  0  0  0  0  0  0  0  0  0
  -21.1690  -29.7630   21.4480 H   0  0  0  0  0  0  0  0  0  0  0  0
  -18.2670  -28.0000   22.5730 C   0  0  0  0  0  0  0  0  0  0  0  0
  -20.8440  -28.1150   22.7300 C   0  0  0  0  0  3  0  0  0  0  0  0
  -20.8490  -26.7730   21.9640 C   0  0  0  0  0  2  0  0  0  0  0  0
  -19.6820  -26.6360   20.9800 C   0  0  0  0  0  2  0  0  0  0  0  0
  -18.3430  -26.7490   21.7140 C   0  0  0  0  0  2  0  0  0  0  0  0
  -19.4410  -28.6510   23.0370 C   0  0  0  0  0  0  0  0  0  0  0  0
  -19.3140  -29.8310   23.8010 C   0  0  0  0  0  3  0  0  0  0  0  0
  -18.0440  -30.3590   24.1040 C   0  0  0  0  0  3  0  0  0  0  0  0
  -16.8850  -29.7020   23.6560 C   0  0  0  0  0  3  0  0  0  0  0  0
  -16.9980  -28.5240   22.8970 C   0  0  0  0  0  3  0  0  0  0  0  0
  -26.1710  -32.1290   23.7200 C   0  0  0  0  0  3  0  0  0  0  0  0
  -26.7360  -31.1920   24.8560 C   0  0  1  0  0  0  0  0  0  0  0  0
  -25.6800  -30.7870   25.9100 C   0  0  0  0  0  1  0  0  0  0  0  0
  -27.3230  -29.8950   24.2510 C   0  0  0  0  0  1  0  0  0  0  0  0
  -27.8990  -31.9010   25.5900 C   0  0  0  0  0  1  0  0  0  0  0  0
  -25.8520  -33.4590   24.2560 N   0  0  0  0  0  0  0  0  0  0  0  0
  -26.1580  -34.6160   23.6520 C   0  0  0  0  0  0  0  0  0  0  0  0
  -26.8090  -34.6720   22.6040 O   0  0  0  0  0  0  0  0  0  0  0  0
  -25.2730  -33.4870   25.0820 H   0  0  0  0  0  0  0  0  0  0  0  0
  -24.3990  -36.4120   23.5960 C   0  0  0  0  0  1  0  0  0  0  0  0
  -25.6640  -35.9160   24.3140 C   0  0  0  0  0  3  0  0  0  0  0  0
  -27.8020  -36.7090   25.2240 C   0  0  0  0  0  1  0  0  0  0  0  0
  -26.6810  -36.9900   24.3320 N   0  0  0  0  0  0  0  0  0  0  0  0
  -26.2660  -37.8750   24.6130 H   0  0  0  0  0  0  0  0  0  0  0  0
  -30.3080  -16.7910   20.4400 C   0  0  0  0  0  2  0  0  0  0  0  0
  -31.3660  -14.6600   19.5120 C   0  0  0  0  0  0  0  0  0  0  0  0
  -30.8790  -12.4550   18.5190 C   0  0  0  0  0  2  0  0  0  0  0  0
  -29.8250  -12.6470   17.4070 C   0  0  0  0  0  2  0  0  0  0  0  0
  -28.4020  -12.5750   17.9950 C   0  0  0  0  0  2  0  0  0  0  0  0
  -28.2250  -13.4620   19.2560 C   0  0  0  0  0  3  0  0  0  0  0  0
  -29.3910  -13.2800   20.2550 C   0  0  0  0  0  2  0  0  0  0  0  0
  -30.6400  -13.5070   19.5200 N   0  0  0  0  0  0  0  0  0  0  0  0
  -32.5230  -14.6960   19.0970 O   0  0  0  0  0  0  0  0  0  0  0  0
  -30.6450  -15.8020   19.3880 N   0  0  0  0  0  0  0  0  0  0  0  0
  -30.9640  -16.2860   18.5630 H   0  0  0  0  0  0  0  0  0  0  0  0
  -25.9900  -14.1820   20.2960 C   0  0  0  0  0  0  0  0  0  0  0  0
  -24.9170  -13.4670   20.7530 C   0  0  0  0  0  0  0  0  0  0  0  0
  -25.2630  -12.0910   20.5890 C   0  0  0  0  0  0  0  0  0  0  0  0
  -26.9270  -13.2470   19.8890 N   0  0  0  0  0  0  0  0  0  0  0  0
  -26.5020  -11.9790   20.1250 N   0  0  0  0  0  0  0  0  0  0  0  0
  -24.4640  -10.8770   20.7940 C   0  0  0  0  0  0  0  0  0  0  0  0
  -24.8450   -9.8930   21.7300 C   0  0  0  0  0  3  0  0  0  0  0  0
  -24.0520   -8.7410   21.9220 C   0  0  0  0  0  3  0  0  0  0  0  0
  -22.8620   -8.5680   21.1760 C   0  0  0  0  0  0  0  0  0  0  0  0
  -22.4970   -9.5400   20.2280 C   0  0  0  0  0  3  0  0  0  0  0  0
  -23.2910  -10.6830   20.0360 C   0  0  0  0  0  3  0  0  0  0  0  0
  -22.0430   -7.4700   21.2770 O   0  0  0  0  0  0  0  0  0  0  0  0
  -21.8580   -6.8170   22.4700 C   0  0  0  0  0  0  0  0  0  0  0  0
  -21.3480   -7.4790   23.6080 C   0  0  0  0  0  3  0  0  0  0  0  0
  -21.1070   -6.7550   24.7930 C   0  0  0  0  0  3  0  0  0  0  0  0
  -21.3640   -5.3720   24.8380 C   0  0  0  0  0  0  0  0  0  0  0  0
  -21.8670   -4.7100   23.7040 C   0  0  0  0  0  3  0  0  0  0  0  0
  -22.1100   -5.4310   22.5220 C   0  0  0  0  0  0  0  0  0  0  0  0
  -22.5740   -4.7860   21.4250 F   0  0  0  0  0  0  0  0  0  0  0  0
  -21.1250   -4.6740   25.9750 F   0  0  0  0  0  0  0  0  0  0  0  0
  -23.6040  -14.0290   21.2160 C   0  0  0  0  0  0  0  0  0  0  0  0
  -22.9510  -13.3600   22.1610 N   0  0  0  0  0  0  0  0  0  0  0  0
  -23.1710  -15.0920   20.7750 O   0  0  0  0  0  0  0  0  0  0  0  0
  -23.3130  -12.4960   22.5360 H   0  0  0  0  0  0  0  0  0  0  0  0
  -22.0750  -13.7200   22.5140 H   0  0  0  0  0  0  0  0  0  0  0  0
  -26.2390  -15.5420   20.1650 N   0  0  0  0  0  0  0  0  0  0  0  0
  -25.5230  -16.2340   20.3580 H   0  0  0  0  0  0  0  0  0  0  0  0
  -27.0410  -15.9170   19.6780 H   0  0  0  0  0  0  0  0  0  0  0  0
  1  6  1  0
  1  7  1  0
  2  4  1  0
  3  8  1  0
  5  9  1  0
  6  3  1  0
  6  2  1  0
  7 12  1  0
  7  5  1  0
  8 57  1  0
  8  9  1  0
  9  4  1  0
  9 11  1  1
 10  1  2  0
 13 15  1  0
 13 12  1  0
 14 13  2  0
 16 18  1  0
 16 15  1  0
 17 28  2  0
 18 23  1  0
 19 27  1  0
 19 29  1  0
 20 26  1  0
 20 22  1  0
 21 27  1  0
 22 21  1  0
 23 22  2  0
 24 25  1  0
 24 18  2  0
 25 20  2  0
 26 19  1  0
 27 17  1  0
 29 31  2  0
 30 29  1  0
 32 30  1  0
 33 42  2  0
 33 38  1  0
 34 30  1  0
 34 38  1  0
 35 34  1  0
 36 37  1  0
 36 35  1  0
 37 33  1  0
 38 39  2  0
 39 40  1  0
 41 40  2  0
 42 41  1  0
 43 17  1  0
 43 48  1  0
 43 44  1  0
 44 47  1  1
 44 45  1  0
 46 44  1  0
 48 51  1  0
 49 48  1  0
 49 53  1  0
 50 49  2  0
 53 52  1  0
 53 55  1  0
 55 56  1  0
 55 54  1  0
 58 64  1  0
 59 64  1  0
 60 61  1  0
 60 59  1  0
 62 61  1  0
 62 71  1  0
 62 63  1  0
 64 63  1  0
 65 58  2  0
 66 58  1  0
 66 57  1  0
 67 66  1  0
 68 69  2  0
 69 88  1  0
 70 69  1  0
 70 73  1  0
 71 72  1  0
 71 68  1  0
 72 70  2  0
 73 74  1  0
 74 75  2  0
 76 79  1  0
 76 75  1  0
 77 76  2  0
 78 77  1  0
 78 73  2  0
 79 80  1  0
 80 85  2  0
 80 81  1  0
 81 82  2  0
 82 83  1  0
 83 87  1  0
 84 83  2  0
 85 84  1  0
 86 85  1  0
 88 89  1  0
 89 92  1  0
 89 91  1  0
 90 88  2  0
 93 68  1  0
 93 94  1  0
 95 93  1  0
M  ISO  4  15 101  16 101  58 100  66 100
M  END
>  <TORSDO>  (84) 
F 20

>  <SCORE>  (84) 
-9.833

>  <name>  (84) 
84

>  <ligand_id>  (84) 
84

>  <original_smiles>  (84) 
[H]c1c([H])c([H])c2c(c1[H])C([H])([H])C([H])([H])C([H])([H])C2([H])N([H])C(=O)C1([H])N(C(=O)C([H])(N([H])C(=O)C([H])(N([H])C([H])([H])[H])C([H])([H])[H])C(C([H])([H])[H])(C([H])([H])[H])C([H])([H])[H])C([H])([H])c2c([H])c(OC([H])([H])C(=O)C([H])([H])C3([H])C(=O)C4([H])C([H])([H])C([H])([H])[N+]([H])(C3([H])[H])C([H])(C([H])([H])N([H])C(=O)N3C([H])([H])C([H])([H])C([H])([H])C([H])(n5nc(-c6c([H])c([H])c(Oc7c([H])c([H])c(F)c([H])c7F)c([H])c6[H])c(C(=O)N([H])[H])c5N([H])[H])C3([H])[H])C4([H])[H])c([H])c([H])c2C1([H])[H]

>  <smiles>  (84) 
[H]c1c([H])c([H])c2c(c1[H])C([H])([H])C([H])([H])C([H])([H])C2([H])N([H])C(=O)C1([H])N(C(=O)C([H])(N([H])C(=O)C([H])(N([H])C([H])([H])[H])C([H])([H])[H])C(C([H])([H])[H])(C([H])([H])[H])C([H])([H])[H])C([H])([H])c2c([H])c(OC([H])([H])C(=O)C([H])([H])C3([H])C(=O)C4([H])C([H])([H])C([H])([H])[N+]([H])(C3([H])[H])C([H])(C([H])([H])N([H])C(=O)N3C([H])([H])C([H])([H])C([H])([H])C([H])(n5nc(-c6c([H])c([H])c(Oc7c([H])c([H])c(F)c([H])c7F)c([H])c6[H])c(C(=O)N([H])[H])c5N([H])[H])C3([H])[H])C4([H])[H])c([H])c([H])c2C1([H])[H]

$$$$
85:0:0
     RDKit          3D

 98107  0  0  1  0  0  0  0  0999 V2000
  -30.3080  -21.9630   21.2260 C   0  0  0  0  0  2  0  0  0  0  0  0
  -29.4410  -20.6440   21.1320 C   0  0  0  0  0  2  0  0  0  0  0  0
  -29.8830  -18.0590   17.6990 C   0  0  0  0  0  2  0  0  0  0  0  0
  -30.0980  -16.8080   18.5570 C   0  0  0  0  0  2  0  0  0  0  0  0
  -30.8840  -19.2000   17.9750 C   0  0  0  0  0  2  0  0  0  0  0  0
  -31.6870  -18.5930   20.4670 C   0  0  0  0  0  2  0  0  0  0  0  0
  -29.6560  -16.9410   20.0430 C   0  0  0  0  0  3  0  0  0  0  0  0
  -31.0970  -19.5730   19.4510 C   0  0  0  0  0  3  0  0  0  0  0  0
  -30.2550  -18.1830   20.7850 C   0  0  0  0  0  3  0  0  0  0  0  0
  -29.8390  -19.5090   20.2060 N   0  0  1  0  0  4  0  0  0  0  0  0
  -29.0730  -19.3560   19.5640 H   0  0  0  0  0  0  0  0  0  0  0  0
  -30.6290  -14.5940   20.5140 C   0  0  0  0  0  0  0  0  0  0  0  0
  -30.4130  -12.3950   19.4300 C   0  0  0  0  0  2  0  0  0  0  0  0
  -29.4990  -12.5800   18.1970 C   0  0  0  0  0  2  0  0  0  0  0  0
  -28.0120  -12.4460   18.5830 C   0  0  0  0  0  2  0  0  0  0  0  0
  -27.6360  -13.2840   19.8330 C   0  0  0  0  0  3  0  0  0  0  0  0
  -28.6660  -13.0770   20.9700 C   0  0  0  0  0  2  0  0  0  0  0  0
  -30.0050  -13.3850   20.4390 N   0  0  0  0  0  0  0  0  0  0  0  0
  -31.7890  -14.7680   20.1340 O   0  0  0  0  0  0  0  0  0  0  0  0
  -29.7910  -15.6340   20.7560 N   0  0  0  0  0  0  0  0  0  0  0  0
  -28.9370  -15.3320   21.1980 H   0  0  0  0  0  0  0  0  0  0  0  0
  -25.2160  -13.8930   20.4600 C   0  0  0  0  0  0  0  0  0  0  0  0
  -24.1410  -13.1260   20.8150 C   0  0  0  0  0  0  0  0  0  0  0  0
  -24.6060  -11.7750   20.8220 C   0  0  0  0  0  0  0  0  0  0  0  0
  -26.2700  -13.0120   20.2760 N   0  0  0  0  0  0  0  0  0  0  0  0
  -25.9050  -11.7340   20.5490 N   0  0  0  0  0  0  0  0  0  0  0  0
  -23.8770  -10.5150   21.0150 C   0  0  0  0  0  0  0  0  0  0  0  0
  -24.2920   -9.5630   21.9720 C   0  0  0  0  0  3  0  0  0  0  0  0
  -23.5670   -8.3650   22.1520 C   0  0  0  0  0  3  0  0  0  0  0  0
  -22.4120   -8.1120   21.3740 C   0  0  0  0  0  0  0  0  0  0  0  0
  -22.0170   -9.0520   20.4070 C   0  0  0  0  0  3  0  0  0  0  0  0
  -22.7430  -10.2420   20.2250 C   0  0  0  0  0  3  0  0  0  0  0  0
  -21.6590   -6.9670   21.4630 O   0  0  0  0  0  0  0  0  0  0  0  0
  -21.5940   -6.2370   22.6220 C   0  0  0  0  0  0  0  0  0  0  0  0
  -21.1480   -6.8030   23.8370 C   0  0  0  0  0  3  0  0  0  0  0  0
  -21.0300   -5.9990   24.9870 C   0  0  0  0  0  3  0  0  0  0  0  0
  -21.3490   -4.6290   24.9250 C   0  0  0  0  0  0  0  0  0  0  0  0
  -21.7880   -4.0620   23.7160 C   0  0  0  0  0  3  0  0  0  0  0  0
  -21.9070   -4.8630   22.5680 C   0  0  0  0  0  0  0  0  0  0  0  0
  -22.3110   -4.3070   21.4000 F   0  0  0  0  0  0  0  0  0  0  0  0
  -21.2280   -3.8540   26.0290 F   0  0  0  0  0  0  0  0  0  0  0  0
  -22.7350  -13.6030   21.0420 C   0  0  0  0  0  0  0  0  0  0  0  0
  -21.9860  -12.9180   21.8990 N   0  0  0  0  0  0  0  0  0  0  0  0
  -22.3100  -14.6180   20.4930 O   0  0  0  0  0  0  0  0  0  0  0  0
  -22.3430  -12.0960   22.3670 H   0  0  0  0  0  0  0  0  0  0  0  0
  -21.0420  -13.2200   22.0930 H   0  0  0  0  0  0  0  0  0  0  0  0
  -25.3840  -15.2600   20.2600 N   0  0  0  0  0  0  0  0  0  0  0  0
  -24.6100  -15.9110   20.3290 H   0  0  0  0  0  0  0  0  0  0  0  0
  -26.2310  -15.6870   19.9120 H   0  0  0  0  0  0  0  0  0  0  0  0
  -30.0230  -23.2030   20.2740 C   0  0  0  0  0  3  0  0  0  0  0  0
  -32.1710  -23.1410   18.9270 C   0  0  0  0  0  1  0  0  0  0  0  0
  -31.2940  -23.8680   19.8670 N   0  0  0  0  0  4  0  0  0  0  0  0
  -31.0530  -24.7310   19.4040 H   0  0  0  0  0  0  0  0  0  0  0  0
  -31.8320  -24.1210   20.6810 H   0  0  0  0  0  0  0  0  0  0  0  0
  -29.6680  -25.0850   22.0560 C   0  0  0  0  0  1  0  0  0  0  0  0
  -29.0630  -24.3310   20.8460 C   0  0  0  0  0  3  0  0  0  0  0  0
  -28.5530  -25.3510   19.7570 C   0  0  0  0  0  2  0  0  0  0  0  0
  -28.4170  -26.7280   20.2060 O   0  0  0  0  0  0  0  0  0  0  0  0
  -24.5880  -31.9040   23.2760 C   0  0  0  0  0  0  0  0  0  0  0  0
  -27.2200  -27.4350   20.1730 C   0  0  0  0  0  0  0  0  0  0  0  0
  -23.3750  -30.5060   21.6380 C   0  0  0  0  0  3  0  0  0  0  0  0
  -24.8230  -28.9720   20.1990 C   0  0  0  0  0  0  0  0  0  0  0  0
  -25.9040  -30.8570   21.4320 C   0  0  0  0  0  2  0  0  0  0  0  0
  -25.9850  -29.4860   20.7830 C   0  0  0  0  0  0  0  0  0  0  0  0
  -27.1810  -28.7280   20.7640 C   0  0  0  0  0  3  0  0  0  0  0  0
  -26.0300  -26.9480   19.5820 C   0  0  0  0  0  3  0  0  0  0  0  0
  -24.8430  -27.7050   19.5950 C   0  0  0  0  0  3  0  0  0  0  0  0
  -23.5780  -29.8320   20.2550 C   0  0  0  0  0  2  0  0  0  0  0  0
  -24.6400  -31.1050   22.1720 N   0  0  0  0  0  0  0  0  0  0  0  0
  -23.5080  -32.1740   23.8220 O   0  0  0  0  0  0  0  0  0  0  0  0
  -22.7300  -29.4800   22.5990 C   0  0  0  0  0  0  0  0  0  0  0  0
  -21.4060  -29.2870   22.4700 N   0  0  0  0  0  0  0  0  0  0  0  0
  -23.4160  -28.8620   23.4170 O   0  0  0  0  0  0  0  0  0  0  0  0
  -20.9130  -29.8370   21.7800 H   0  0  0  0  0  0  0  0  0  0  0  0
  -18.0430  -28.0580   22.9530 C   0  0  0  0  0  0  0  0  0  0  0  0
  -20.5960  -28.3440   23.2400 C   0  0  0  0  0  3  0  0  0  0  0  0
  -20.7190  -26.9130   22.6710 C   0  0  0  0  0  2  0  0  0  0  0  0
  -19.6270  -26.5730   21.6520 C   0  0  0  0  0  2  0  0  0  0  0  0
  -18.2390  -26.7060   22.2860 C   0  0  0  0  0  2  0  0  0  0  0  0
  -19.1500  -28.8330   23.3870 C   0  0  0  0  0  0  0  0  0  0  0  0
  -18.9150  -30.0980   23.9690 C   0  0  0  0  0  3  0  0  0  0  0  0
  -17.6040  -30.5860   24.1240 C   0  0  0  0  0  3  0  0  0  0  0  0
  -16.5100  -29.8070   23.7080 C   0  0  0  0  0  3  0  0  0  0  0  0
  -16.7310  -28.5450   23.1270 C   0  0  0  0  0  3  0  0  0  0  0  0
  -25.8760  -32.5350   23.8900 C   0  0  0  0  0  3  0  0  0  0  0  0
  -25.5710  -33.9360   24.2130 N   0  0  0  0  0  0  0  0  0  0  0  0
  -25.9060  -34.9840   23.4480 C   0  0  0  0  0  0  0  0  0  0  0  0
  -26.5750  -34.8730   22.4170 O   0  0  0  0  0  0  0  0  0  0  0  0
  -24.9790  -34.0960   25.0150 H   0  0  0  0  0  0  0  0  0  0  0  0
  -24.1840  -36.7780   23.0830 C   0  0  0  0  0  1  0  0  0  0  0  0
  -25.4210  -36.3750   23.9000 C   0  0  0  0  0  3  0  0  0  0  0  0
  -27.5550  -37.2560   24.7340 C   0  0  0  0  0  1  0  0  0  0  0  0
  -26.4560  -37.4240   23.7860 N   0  0  0  0  0  0  0  0  0  0  0  0
  -26.0530  -38.3460   23.9280 H   0  0  0  0  0  0  0  0  0  0  0  0
  -26.3950  -31.7690   25.1680 C   0  0  1  0  0  0  0  0  0  0  0  0
  -25.3050  -31.5410   26.2410 C   0  0  0  0  0  1  0  0  0  0  0  0
  -26.9730  -30.3880   24.7820 C   0  0  0  0  0  1  0  0  0  0  0  0
  -27.5500  -32.5640   25.8220 C   0  0  0  0  0  1  0  0  0  0  0  0
  2  1  1  0
  3  5  1  0
  3  4  1  0
  4  7  1  0
  7 20  1  0
  7  9  1  0
  8  5  1  0
  8 10  1  0
  8  6  1  0
  9  6  1  0
 10  9  1  0
 10  2  1  0
 10 11  1  6
 12 20  1  0
 13 18  1  0
 14 15  1  0
 14 13  1  0
 16 15  1  0
 16 25  1  0
 16 17  1  0
 18 12  1  0
 18 17  1  0
 19 12  2  0
 20 21  1  0
 22 23  2  0
 23 24  1  0
 23 42  1  0
 24 27  1  0
 25 22  1  0
 25 26  1  0
 26 24  2  0
 27 28  1  0
 28 29  2  0
 30 33  1  0
 30 29  1  0
 31 30  2  0
 32 31  1  0
 32 27  2  0
 33 34  1  0
 34 35  1  0
 35 36  2  0
 37 36  1  0
 37 41  1  0
 38 37  2  0
 39 34  2  0
 39 38  1  0
 40 39  1  0
 42 43  1  0
 43 46  1  0
 43 45  1  0
 44 42  2  0
 47 48  1  0
 47 22  1  0
 49 47  1  0
 50 56  1  0
 50  1  1  0
 51 52  1  0
 52 50  1  0
 52 54  1  0
 53 52  1  0
 56 55  1  0
 57 58  1  0
 57 56  1  0
 59 70  2  0
 60 58  1  0
 60 65  1  0
 61 69  1  0
 61 71  1  0
 62 68  1  0
 62 64  1  0
 63 69  1  0
 64 63  1  0
 65 64  2  0
 66 67  1  0
 66 60  2  0
 67 62  2  0
 68 61  1  0
 69 59  1  0
 71 73  2  0
 72 71  1  0
 74 72  1  0
 75 84  2  0
 75 80  1  0
 76 72  1  0
 76 80  1  0
 77 76  1  0
 78 79  1  0
 78 77  1  0
 79 75  1  0
 80 81  2  0
 81 82  1  0
 83 82  2  0
 84 83  1  0
 85 59  1  0
 85 86  1  0
 85 95  1  0
 86 89  1  0
 87 91  1  0
 87 86  1  0
 88 87  2  0
 91 90  1  0
 93 91  1  0
 93 94  1  0
 93 92  1  0
 95 98  1  1
 95 96  1  0
 97 95  1  0
M  ISO  4  12 100  20 100  57 101  58 101
M  END
>  <TORSDO>  (85) 
F 22

>  <SCORE>  (85) 
-13.134

>  <name>  (85) 
85

>  <ligand_id>  (85) 
85

>  <original_smiles>  (85) 
[H]c1c([H])c([H])c2c(c1[H])C([H])([H])C([H])([H])C([H])([H])C2([H])N([H])C(=O)C1([H])N(C(=O)C([H])(N([H])C(=O)C([H])(N([H])C([H])([H])[H])C([H])([H])[H])C(C([H])([H])[H])(C([H])([H])[H])C([H])([H])[H])C([H])([H])c2c([H])c(OC([H])([H])C([H])(C([H])([H])[H])C([H])(C([H])([H])C([H])([H])[N+]3([H])C4([H])C([H])([H])C([H])([H])C([H])([H])C([H])(N([H])C(=O)N5C([H])([H])C([H])([H])C([H])([H])C([H])(n6nc(-c7c([H])c([H])c(Oc8c([H])c([H])c(F)c([H])c8F)c([H])c7[H])c(C(=O)N([H])[H])c6N([H])[H])C5([H])[H])C3([H])C4([H])[H])[N+]([H])([H])C([H])([H])[H])c([H])c([H])c2C1([H])[H]

>  <smiles>  (85) 
[H]c1c([H])c([H])c2c(c1[H])C([H])([H])C([H])([H])C([H])([H])C2([H])N([H])C(=O)C1([H])N(C(=O)C([H])(N([H])C(=O)C([H])(N([H])C([H])([H])[H])C([H])([H])[H])C(C([H])([H])[H])(C([H])([H])[H])C([H])([H])[H])C([H])([H])c2c([H])c(OC([H])([H])C([H])(C([H])([H])[H])C([H])(C([H])([H])C([H])([H])[N+]3([H])C4([H])C([H])([H])C([H])([H])C([H])([H])C([H])(N([H])C(=O)N5C([H])([H])C([H])([H])C([H])([H])C([H])(n6nc(-c7c([H])c([H])c(Oc8c([H])c([H])c(F)c([H])c8F)c([H])c7[H])c(C(=O)N([H])[H])c6N([H])[H])C5([H])[H])C3([H])C4([H])[H])[N+]([H])([H])C([H])([H])[H])c([H])c([H])c2C1([H])[H]

$$$$
86:0:0
     RDKit          3D

 94102  0  0  1  0  0  0  0  0999 V2000
  -28.7690  -22.5080   16.8510 C   0  0  0  0  0  2  0  0  0  0  0  0
  -28.3960  -21.3070   17.7520 C   0  0  0  0  0  2  0  0  0  0  0  0
  -29.5890  -23.4620   17.7520 C   0  0  0  0  0  2  0  0  0  0  0  0
  -29.3100  -21.5160   18.9860 C   0  0  0  0  0  3  0  0  0  0  0  0
  -29.4140  -23.0130   19.1620 N   0  0  2  0  0  4  0  0  0  0  0  0
  -30.2750  -23.1680   19.6690 H   0  0  0  0  0  0  0  0  0  0  0  0
  -29.2130  -20.5370   20.2280 C   0  0  0  0  0  0  0  0  0  0  0  0
  -29.8410  -18.1860   20.8470 C   0  0  0  0  0  0  0  0  0  0  0  0
  -29.8140  -19.3180   20.0830 N   0  0  0  0  0  0  0  0  0  0  0  0
  -28.6680  -20.9050   21.2750 O   0  0  0  0  0  0  0  0  0  0  0  0
  -29.2450  -18.0390   21.9230 O   0  0  0  0  0  0  0  0  0  0  0  0
  -30.3560  -19.2360   19.2360 H   0  0  0  0  0  0  0  0  0  0  0  0
  -30.6810  -16.9980   20.2710 C   0  0  0  0  0  2  0  0  0  0  0  0
  -30.9660  -14.5020   20.0780 C   0  0  0  0  0  0  0  0  0  0  0  0
  -30.6010  -12.3200   18.9460 C   0  0  0  0  0  2  0  0  0  0  0  0
  -29.6190  -12.5720   17.7870 C   0  0  0  0  0  2  0  0  0  0  0  0
  -28.1610  -12.4580   18.2700 C   0  0  0  0  0  2  0  0  0  0  0  0
  -27.9120  -13.2340   19.5920 C   0  0  0  0  0  3  0  0  0  0  0  0
  -29.0210  -12.9830   20.6410 C   0  0  0  0  0  2  0  0  0  0  0  0
  -30.3070  -13.3060   20.0110 N   0  0  0  0  0  0  0  0  0  0  0  0
  -32.0590  -14.6520   19.5130 O   0  0  0  0  0  0  0  0  0  0  0  0
  -30.3150  -15.5790   20.6050 N   0  0  0  0  0  0  0  0  0  0  0  0
  -29.4980  -15.4270   21.1830 H   0  0  0  0  0  0  0  0  0  0  0  0
  -25.5790  -13.8570   20.4600 C   0  0  0  0  0  0  0  0  0  0  0  0
  -24.5190  -13.0990   20.8570 C   0  0  0  0  0  0  0  0  0  0  0  0
  -24.9390  -11.7340   20.7480 C   0  0  0  0  0  0  0  0  0  0  0  0
  -26.5830  -12.9610   20.1280 N   0  0  0  0  0  0  0  0  0  0  0  0
  -26.2070  -11.6740   20.3610 N   0  0  0  0  0  0  0  0  0  0  0  0
  -24.1900  -10.4900   20.9390 C   0  0  0  0  0  0  0  0  0  0  0  0
  -24.5980   -9.5220   21.8850 C   0  0  0  0  0  3  0  0  0  0  0  0
  -23.8510   -8.3400   22.0730 C   0  0  0  0  0  3  0  0  0  0  0  0
  -22.6760   -8.1170   21.3140 C   0  0  0  0  0  0  0  0  0  0  0  0
  -22.2870   -9.0690   20.3530 C   0  0  0  0  0  3  0  0  0  0  0  0
  -23.0360  -10.2430   20.1660 C   0  0  0  0  0  3  0  0  0  0  0  0
  -21.9070   -6.9820   21.4030 O   0  0  0  0  0  0  0  0  0  0  0  0
  -21.7790   -6.2900   22.5810 C   0  0  0  0  0  0  0  0  0  0  0  0
  -21.2710   -6.8970   23.7500 C   0  0  0  0  0  3  0  0  0  0  0  0
  -21.0890   -6.1340   24.9220 C   0  0  0  0  0  3  0  0  0  0  0  0
  -21.4090   -4.7630   24.9240 C   0  0  0  0  0  0  0  0  0  0  0  0
  -21.9010   -4.1520   23.7580 C   0  0  0  0  0  3  0  0  0  0  0  0
  -22.0860   -4.9140   22.5900 C   0  0  0  0  0  0  0  0  0  0  0  0
  -22.5470   -4.3160   21.4640 F   0  0  0  0  0  0  0  0  0  0  0  0
  -21.2220   -4.0250   26.0440 F   0  0  0  0  0  0  0  0  0  0  0  0
  -23.1510  -13.5940   21.2340 C   0  0  0  0  0  0  0  0  0  0  0  0
  -22.4600  -12.8860   22.1150 N   0  0  0  0  0  0  0  0  0  0  0  0
  -22.7080  -14.6510   20.7770 O   0  0  0  0  0  0  0  0  0  0  0  0
  -22.8300  -12.0310   22.5060 H   0  0  0  0  0  0  0  0  0  0  0  0
  -21.5460  -13.2030   22.4100 H   0  0  0  0  0  0  0  0  0  0  0  0
  -25.7740  -15.2370   20.3450 N   0  0  0  0  0  0  0  0  0  0  0  0
  -25.0490  -15.8980   20.5930 H   0  0  0  0  0  0  0  0  0  0  0  0
  -26.6460  -15.6770   20.0810 H   0  0  0  0  0  0  0  0  0  0  0  0
  -28.3390  -23.7920   19.9100 C   0  0  0  0  0  2  0  0  0  0  0  0
  -28.7370  -25.2060   20.5420 C   0  0  0  0  0  2  0  0  0  0  0  0
  -28.6140  -26.5290   19.9180 O   0  0  0  0  0  0  0  0  0  0  0  0
  -24.5490  -31.6710   23.0890 C   0  0  0  0  0  0  0  0  0  0  0  0
  -27.4360  -27.2620   20.0420 C   0  0  0  0  0  0  0  0  0  0  0  0
  -23.4500  -30.2290   21.4090 C   0  0  0  0  0  3  0  0  0  0  0  0
  -25.0010  -28.7300   20.0340 C   0  0  0  0  0  0  0  0  0  0  0  0
  -25.9750  -30.6580   21.2840 C   0  0  0  0  0  2  0  0  0  0  0  0
  -26.1340  -29.2810   20.6440 C   0  0  0  0  0  0  0  0  0  0  0  0
  -27.3590  -28.5540   20.6490 C   0  0  0  0  0  3  0  0  0  0  0  0
  -26.2790  -26.7360   19.4450 C   0  0  0  0  0  3  0  0  0  0  0  0
  -25.0630  -27.4550   19.4430 C   0  0  0  0  0  3  0  0  0  0  0  0
  -23.7310  -29.5530   20.0420 C   0  0  0  0  0  2  0  0  0  0  0  0
  -24.6770  -30.8690   21.9910 N   0  0  0  0  0  0  0  0  0  0  0  0
  -23.4400  -31.9030   23.5930 O   0  0  0  0  0  0  0  0  0  0  0  0
  -22.7940  -29.1870   22.3460 C   0  0  0  0  0  0  0  0  0  0  0  0
  -21.4690  -29.0030   22.2080 N   0  0  0  0  0  0  0  0  0  0  0  0
  -23.4790  -28.5470   23.1520 O   0  0  0  0  0  0  0  0  0  0  0  0
  -20.9820  -29.5640   21.5210 H   0  0  0  0  0  0  0  0  0  0  0  0
  -18.0880  -27.8200   22.7550 C   0  0  0  0  0  0  0  0  0  0  0  0
  -20.6530  -28.0520   22.9630 C   0  0  0  0  0  3  0  0  0  0  0  0
  -20.7310  -26.6400   22.3400 C   0  0  0  0  0  2  0  0  0  0  0  0
  -19.5860  -26.3380   21.3640 C   0  0  0  0  0  2  0  0  0  0  0  0
  -18.2420  -26.4720   22.0750 C   0  0  0  0  0  2  0  0  0  0  0  0
  -19.2220  -28.5640   23.1670 C   0  0  0  0  0  0  0  0  0  0  0  0
  -19.0310  -29.8110   23.7970 C   0  0  0  0  0  3  0  0  0  0  0  0
  -17.7340  -30.3090   24.0230 C   0  0  0  0  0  3  0  0  0  0  0  0
  -16.6110  -29.5650   23.6140 C   0  0  0  0  0  3  0  0  0  0  0  0
  -16.7900  -28.3240   22.9790 C   0  0  0  0  0  3  0  0  0  0  0  0
  -25.7900  -32.3460   23.7620 C   0  0  0  0  0  3  0  0  0  0  0  0
  -26.3040  -31.5800   25.0410 C   0  0  1  0  0  0  0  0  0  0  0  0
  -25.1930  -31.2980   26.0760 C   0  0  0  0  0  1  0  0  0  0  0  0
  -26.9510  -30.2330   24.6450 C   0  0  0  0  0  1  0  0  0  0  0  0
  -27.4040  -32.4130   25.7380 C   0  0  0  0  0  1  0  0  0  0  0  0
  -25.4180  -33.7310   24.0970 N   0  0  0  0  0  0  0  0  0  0  0  0
  -25.7360  -34.8000   23.3520 C   0  0  0  0  0  0  0  0  0  0  0  0
  -26.4380  -34.7330   22.3390 O   0  0  0  0  0  0  0  0  0  0  0  0
  -24.7970  -33.8650   24.8820 H   0  0  0  0  0  0  0  0  0  0  0  0
  -23.9460  -36.5260   22.9770 C   0  0  0  0  0  1  0  0  0  0  0  0
  -25.1850  -36.1630   23.8120 C   0  0  0  0  0  3  0  0  0  0  0  0
  -27.2600  -37.1080   24.7200 C   0  0  0  0  0  1  0  0  0  0  0  0
  -26.1810  -37.2500   23.7450 N   0  0  0  0  0  0  0  0  0  0  0  0
  -25.7370  -38.1550   23.8940 H   0  0  0  0  0  0  0  0  0  0  0  0
  1  2  1  0
  1  3  1  0
  2  4  1  0
  3  5  1  0
  4  5  1  0
  4  7  1  0
  5  6  1  1
  5 52  1  0
  7 10  2  0
  8 11  2  0
  9  7  1  0
  9  8  1  0
 12  9  1  0
 13 22  1  0
 13  8  1  0
 14 22  1  0
 15 20  1  0
 16 17  1  0
 16 15  1  0
 18 17  1  0
 18 27  1  0
 18 19  1  0
 20 14  1  0
 20 19  1  0
 21 14  2  0
 22 23  1  0
 24 25  2  0
 25 44  1  0
 26 25  1  0
 26 29  1  0
 27 28  1  0
 27 24  1  0
 28 26  2  0
 29 30  1  0
 30 31  2  0
 32 35  1  0
 32 31  1  0
 33 32  2  0
 34 33  1  0
 34 29  2  0
 35 36  1  0
 36 41  2  0
 36 37  1  0
 37 38  2  0
 38 39  1  0
 39 43  1  0
 40 39  2  0
 41 40  1  0
 42 41  1  0
 44 45  1  0
 45 48  1  0
 45 47  1  0
 46 44  2  0
 49 24  1  0
 49 50  1  0
 51 49  1  0
 52 53  1  0
 54 56  1  0
 54 53  1  0
 55 66  2  0
 56 61  1  0
 57 65  1  0
 57 67  1  0
 58 64  1  0
 58 60  1  0
 59 65  1  0
 60 61  2  0
 60 59  1  0
 62 56  2  0
 63 62  1  0
 63 58  2  0
 64 57  1  0
 65 55  1  0
 67 69  2  0
 68 67  1  0
 70 68  1  0
 71 80  2  0
 71 76  1  0
 72 68  1  0
 72 76  1  0
 73 72  1  0
 74 75  1  0
 74 73  1  0
 75 71  1  0
 76 77  2  0
 77 78  1  0
 79 78  2  0
 80 79  1  0
 81 55  1  0
 81 86  1  0
 81 82  1  0
 82 85  1  1
 82 83  1  0
 84 82  1  0
 86 89  1  0
 87 91  1  0
 87 86  1  0
 88 87  2  0
 91 90  1  0
 93 91  1  0
 93 94  1  0
 93 92  1  0
M  ISO  4  14 100  22 100  53 101  54 101
M  END
>  <TORSDO>  (86) 
F 20

>  <SCORE>  (86) 
-12.681

>  <name>  (86) 
86

>  <ligand_id>  (86) 
86

>  <original_smiles>  (86) 
[H]c1c([H])c([H])c2c(c1[H])C([H])([H])C([H])([H])C([H])([H])C2([H])N([H])C(=O)C1([H])N(C(=O)C([H])(N([H])C(=O)C([H])(N([H])C([H])([H])[H])C([H])([H])[H])C(C([H])([H])[H])(C([H])([H])[H])C([H])([H])[H])C([H])([H])c2c([H])c(OC([H])([H])C([H])([H])[N+]3([H])C([H])([H])C([H])([H])C([H])([H])C3([H])C(=O)N([H])C(=O)C([H])([H])N([H])C(=O)N3C([H])([H])C([H])([H])C([H])([H])C([H])(n4nc(-c5c([H])c([H])c(Oc6c([H])c([H])c(F)c([H])c6F)c([H])c5[H])c(C(=O)N([H])[H])c4N([H])[H])C3([H])[H])c([H])c([H])c2C1([H])[H]

>  <smiles>  (86) 
[H]c1c([H])c([H])c2c(c1[H])C([H])([H])C([H])([H])C([H])([H])C2([H])N([H])C(=O)C1([H])N(C(=O)C([H])(N([H])C(=O)C([H])(N([H])C([H])([H])[H])C([H])([H])[H])C(C([H])([H])[H])(C([H])([H])[H])C([H])([H])[H])C([H])([H])c2c([H])c(OC([H])([H])C([H])([H])[N+]3([H])C([H])([H])C([H])([H])C([H])([H])C3([H])C(=O)N([H])C(=O)C([H])([H])N([H])C(=O)N3C([H])([H])C([H])([H])C([H])([H])C([H])(n4nc(-c5c([H])c([H])c(Oc6c([H])c([H])c(F)c([H])c6F)c([H])c5[H])c(C(=O)N([H])[H])c4N([H])[H])C3([H])[H])c([H])c([H])c2C1([H])[H]

$$$$
87:0:0
     RDKit          3D

 97105  0  0  1  0  0  0  0  0999 V2000
  -30.1370  -20.9530   21.8210 C   0  0  0  0  0  3  0  0  0  0  0  0
  -31.0350  -19.8750   21.8740 C   0  0  0  0  0  3  0  0  0  0  0  0
  -28.6060  -19.5870   20.5220 C   0  0  0  0  0  3  0  0  0  0  0  0
  -28.9130  -20.8350   21.1400 C   0  0  0  0  0  0  0  0  0  0  0  0
  -30.7490  -18.6370   21.2520 C   0  0  0  0  0  0  0  0  0  0  0  0
  -29.5050  -18.4740   20.5710 C   0  0  0  0  0  0  0  0  0  0  0  0
  -31.8180  -17.5420   21.2970 C   0  0  1  0  0  0  0  0  0  0  0  0
  -32.9740  -17.9940   21.7860 F   0  0  0  0  0  0  0  0  0  0  0  0
  -31.4390  -16.5320   22.0780 F   0  0  0  0  0  0  0  0  0  0  0  0
  -32.0640  -17.0950   20.0670 F   0  0  0  0  0  0  0  0  0  0  0  0
  -29.1660  -17.1950   19.7600 C   0  0  0  0  0  2  0  0  0  0  0  0
  -30.0200  -14.8490   19.9070 C   0  0  0  0  0  0  0  0  0  0  0  0
  -29.8050  -12.6500   18.8160 C   0  0  0  0  0  2  0  0  0  0  0  0
  -28.7370  -12.7960   17.7120 C   0  0  0  0  0  2  0  0  0  0  0  0
  -27.3310  -12.5300   18.2870 C   0  0  0  0  0  2  0  0  0  0  0  0
  -27.0590  -13.3200   19.5970 C   0  0  0  0  0  3  0  0  0  0  0  0
  -28.2410  -13.1930   20.5880 C   0  0  0  0  0  2  0  0  0  0  0  0
  -29.4660  -13.6040   19.8880 N   0  0  0  0  0  0  0  0  0  0  0  0
  -31.0700  -15.0990   19.3130 O   0  0  0  0  0  0  0  0  0  0  0  0
  -29.2350  -15.8460   20.3810 N   0  0  0  0  0  0  0  0  0  0  0  0
  -28.4310  -15.5500   20.9130 H   0  0  0  0  0  0  0  0  0  0  0  0
  -24.7080  -13.7030   20.5700 C   0  0  0  0  0  0  0  0  0  0  0  0
  -23.7540  -12.8350   21.0280 C   0  0  0  0  0  0  0  0  0  0  0  0
  -24.3180  -11.5280   20.9090 C   0  0  0  0  0  0  0  0  0  0  0  0
  -25.7920  -12.9190   20.2060 N   0  0  0  0  0  0  0  0  0  0  0  0
  -25.5680  -11.6060   20.4670 N   0  0  0  0  0  0  0  0  0  0  0  0
  -23.7240  -10.2040   21.1390 C   0  0  0  0  0  0  0  0  0  0  0  0
  -24.2510   -9.3140   22.1000 C   0  0  0  0  0  3  0  0  0  0  0  0
  -23.6500   -8.0560   22.3140 C   0  0  0  0  0  3  0  0  0  0  0  0
  -22.5060   -7.6780   21.5680 C   0  0  0  0  0  0  0  0  0  0  0  0
  -22.0030   -8.5590   20.5950 C   0  0  0  0  0  3  0  0  0  0  0  0
  -22.6070   -9.8100   20.3790 C   0  0  0  0  0  3  0  0  0  0  0  0
  -21.8720   -6.4670   21.6910 O   0  0  0  0  0  0  0  0  0  0  0  0
  -21.8160   -5.8020   22.8910 C   0  0  0  0  0  0  0  0  0  0  0  0
  -21.2150   -6.3760   24.0330 C   0  0  0  0  0  3  0  0  0  0  0  0
  -21.1160   -5.6300   25.2240 C   0  0  0  0  0  3  0  0  0  0  0  0
  -21.6080   -4.3130   25.2750 C   0  0  0  0  0  0  0  0  0  0  0  0
  -22.2000   -3.7370   24.1360 C   0  0  0  0  0  3  0  0  0  0  0  0
  -22.3010   -4.4800   22.9480 C   0  0  0  0  0  0  0  0  0  0  0  0
  -22.8540   -3.9140   21.8470 F   0  0  0  0  0  0  0  0  0  0  0  0
  -21.5050   -3.5930   26.4170 F   0  0  0  0  0  0  0  0  0  0  0  0
  -22.3590  -13.1860   21.4590 C   0  0  0  0  0  0  0  0  0  0  0  0
  -21.8000  -12.4320   22.3980 N   0  0  0  0  0  0  0  0  0  0  0  0
  -21.7750  -14.1660   20.9950 O   0  0  0  0  0  0  0  0  0  0  0  0
  -22.2880  -11.6410   22.7900 H   0  0  0  0  0  0  0  0  0  0  0  0
  -20.8720  -12.6520   22.7280 H   0  0  0  0  0  0  0  0  0  0  0  0
  -24.7360  -15.0860   20.4130 N   0  0  0  0  0  0  0  0  0  0  0  0
  -23.9280  -15.6610   20.6220 H   0  0  0  0  0  0  0  0  0  0  0  0
  -25.4900  -15.6040   19.9820 H   0  0  0  0  0  0  0  0  0  0  0  0
  -27.9300  -22.0230   21.2000 C   0  0  0  0  0  2  0  0  0  0  0  0
  -28.0750  -23.0650   20.1360 N   0  0  0  0  0  4  0  0  0  0  0  0
  -27.5470  -22.7480   19.3370 H   0  0  0  0  0  0  0  0  0  0  0  0
  -29.0430  -23.0730   19.8550 H   0  0  0  0  0  0  0  0  0  0  0  0
  -26.2790  -24.5410   21.1640 C   0  0  0  0  0  1  0  0  0  0  0  0
  -27.6760  -24.4800   20.4990 C   0  0  0  0  0  3  0  0  0  0  0  0
  -27.7810  -25.4730   19.2820 C   0  0  0  0  0  2  0  0  0  0  0  0
  -27.8380  -26.8900   19.6070 O   0  0  0  0  0  0  0  0  0  0  0  0
  -24.5860  -31.9810   23.3960 C   0  0  0  0  0  0  0  0  0  0  0  0
  -26.6970  -27.6690   19.7260 C   0  0  0  0  0  0  0  0  0  0  0  0
  -23.1640  -30.7680   21.7780 C   0  0  0  0  0  3  0  0  0  0  0  0
  -24.3980  -29.2990   20.0920 C   0  0  0  0  0  0  0  0  0  0  0  0
  -25.6760  -31.0330   21.3560 C   0  0  0  0  0  2  0  0  0  0  0  0
  -25.6320  -29.7120   20.6090 C   0  0  0  0  0  0  0  0  0  0  0  0
  -26.7800  -28.9020   20.4250 C   0  0  0  0  0  3  0  0  0  0  0  0
  -25.4440  -27.2970   19.1870 C   0  0  0  0  0  3  0  0  0  0  0  0
  -24.3020  -28.0940   19.3760 C   0  0  0  0  0  3  0  0  0  0  0  0
  -23.2070  -30.2010   20.3330 C   0  0  0  0  0  2  0  0  0  0  0  0
  -24.5010  -31.2710   22.2340 N   0  0  0  0  0  0  0  0  0  0  0  0
  -23.5770  -32.2500   24.0600 O   0  0  0  0  0  0  0  0  0  0  0  0
  -22.5630  -29.6940   22.7140 C   0  0  0  0  0  0  0  0  0  0  0  0
  -21.2480  -29.4530   22.5840 N   0  0  0  0  0  0  0  0  0  0  0  0
  -23.2770  -29.0810   23.5120 O   0  0  0  0  0  0  0  0  0  0  0  0
  -20.7310  -30.0060   21.9140 H   0  0  0  0  0  0  0  0  0  0  0  0
  -17.9700  -27.9740   22.9340 C   0  0  0  0  0  0  0  0  0  0  0  0
  -20.4760  -28.4620   23.3350 C   0  0  0  0  0  3  0  0  0  0  0  0
  -20.7340  -27.0340   22.8000 C   0  0  0  0  0  2  0  0  0  0  0  0
  -19.7220  -26.5940   21.7380 C   0  0  0  0  0  2  0  0  0  0  0  0
  -18.3000  -26.6310   22.3040 C   0  0  0  0  0  2  0  0  0  0  0  0
  -18.9920  -28.8390   23.4050 C   0  0  0  0  0  0  0  0  0  0  0  0
  -18.6320  -30.0910   23.9510 C   0  0  0  0  0  3  0  0  0  0  0  0
  -17.2810  -30.4780   24.0330 C   0  0  0  0  0  3  0  0  0  0  0  0
  -16.2720  -29.6110   23.5800 C   0  0  0  0  0  3  0  0  0  0  0  0
  -16.6170  -28.3600   23.0380 C   0  0  0  0  0  3  0  0  0  0  0  0
  -25.9520  -32.5110   23.9320 C   0  0  0  0  0  3  0  0  0  0  0  0
  -25.7720  -33.9260   24.2840 N   0  0  0  0  0  0  0  0  0  0  0  0
  -26.1480  -34.9530   23.5100 C   0  0  0  0  0  0  0  0  0  0  0  0
  -26.7520  -34.8030   22.4440 O   0  0  0  0  0  0  0  0  0  0  0  0
  -25.2300  -34.1210   25.1130 H   0  0  0  0  0  0  0  0  0  0  0  0
  -24.5520  -36.8800   23.2440 C   0  0  0  0  0  1  0  0  0  0  0  0
  -25.7950  -36.3720   23.9940 C   0  0  0  0  0  3  0  0  0  0  0  0
  -28.0290  -37.0820   24.7260 C   0  0  0  0  0  1  0  0  0  0  0  0
  -26.9020  -37.3400   23.8340 N   0  0  0  0  0  0  0  0  0  0  0  0
  -26.5780  -38.2890   23.9990 H   0  0  0  0  0  0  0  0  0  0  0  0
  -26.4930  -31.6950   25.1700 C   0  0  1  0  0  0  0  0  0  0  0  0
  -25.4450  -31.4940   26.2890 C   0  0  0  0  0  1  0  0  0  0  0  0
  -26.9860  -30.3010   24.7230 C   0  0  0  0  0  1  0  0  0  0  0  0
  -27.7150  -32.4210   25.7820 C   0  0  0  0  0  1  0  0  0  0  0  0
  1  2  1  0
  3  6  2  0
  3  4  1  0
  4 50  1  0
  4  1  2  0
  5  7  1  0
  5  2  2  0
  6  5  1  0
  7  8  1  1
  7  9  1  0
 10  7  1  0
 11 20  1  0
 11  6  1  0
 12 20  1  0
 13 18  1  0
 14 15  1  0
 14 13  1  0
 16 15  1  0
 16 25  1  0
 16 17  1  0
 18 12  1  0
 18 17  1  0
 19 12  2  0
 20 21  1  0
 22 23  2  0
 23 42  1  0
 24 23  1  0
 24 27  1  0
 25 26  1  0
 25 22  1  0
 26 24  2  0
 27 28  1  0
 28 29  2  0
 30 33  1  0
 30 29  1  0
 31 30  2  0
 32 31  1  0
 32 27  2  0
 33 34  1  0
 34 39  2  0
 34 35  1  0
 35 36  2  0
 36 37  1  0
 37 41  1  0
 38 37  2  0
 39 38  1  0
 40 39  1  0
 42 43  1  0
 43 46  1  0
 43 45  1  0
 44 42  2  0
 47 22  1  0
 47 48  1  0
 49 47  1  0
 51 55  1  0
 51 50  1  0
 52 51  1  0
 53 51  1  0
 55 54  1  0
 56 57  1  0
 56 55  1  0
 57 59  1  0
 58 69  2  0
 59 64  1  0
 60 68  1  0
 60 70  1  0
 61 67  1  0
 61 63  1  0
 62 68  1  0
 63 62  1  0
 64 63  2  0
 65 66  1  0
 65 59  2  0
 66 61  2  0
 67 60  1  0
 68 58  1  0
 70 72  2  0
 71 70  1  0
 73 71  1  0
 74 83  2  0
 74 79  1  0
 75 71  1  0
 75 79  1  0
 76 75  1  0
 77 78  1  0
 77 76  1  0
 78 74  1  0
 79 80  2  0
 80 81  1  0
 82 81  2  0
 83 82  1  0
 84 58  1  0
 84 85  1  0
 84 94  1  0
 85 88  1  0
 86 90  1  0
 86 85  1  0
 87 86  2  0
 90 89  1  0
 92 90  1  0
 92 93  1  0
 92 91  1  0
 94 97  1  1
 94 95  1  0
 96 94  1  0
M  ISO  4  12 100  20 100  56 101  57 101
M  END
>  <TORSDO>  (87) 
F 22

>  <SCORE>  (87) 
-11.961

>  <name>  (87) 
87

>  <ligand_id>  (87) 
87

>  <original_smiles>  (87) 
[H]c1c([H])c([H])c2c(c1[H])C([H])([H])C([H])([H])C([H])([H])C2([H])N([H])C(=O)C1([H])N(C(=O)C([H])(N([H])C(=O)C([H])(N([H])C([H])([H])[H])C([H])([H])[H])C(C([H])([H])[H])(C([H])([H])[H])C([H])([H])[H])C([H])([H])c2c([H])c(OC([H])([H])C([H])(C([H])([H])[H])[N+]([H])([H])C([H])([H])c3c([H])c([H])c(C(F)(F)F)c(C([H])([H])N([H])C(=O)N4C([H])([H])C([H])([H])C([H])([H])C([H])(n5nc(-c6c([H])c([H])c(Oc7c([H])c([H])c(F)c([H])c7F)c([H])c6[H])c(C(=O)N([H])[H])c5N([H])[H])C4([H])[H])c3[H])c([H])c([H])c2C1([H])[H]

>  <smiles>  (87) 
[H]c1c([H])c([H])c2c(c1[H])C([H])([H])C([H])([H])C([H])([H])C2([H])N([H])C(=O)C1([H])N(C(=O)C([H])(N([H])C(=O)C([H])(N([H])C([H])([H])[H])C([H])([H])[H])C(C([H])([H])[H])(C([H])([H])[H])C([H])([H])[H])C([H])([H])c2c([H])c(OC([H])([H])C([H])(C([H])([H])[H])[N+]([H])([H])C([H])([H])c3c([H])c([H])c(C(F)(F)F)c(C([H])([H])N([H])C(=O)N4C([H])([H])C([H])([H])C([H])([H])C([H])(n5nc(-c6c([H])c([H])c(Oc7c([H])c([H])c(F)c([H])c7F)c([H])c6[H])c(C(=O)N([H])[H])c5N([H])[H])C4([H])[H])c3[H])c([H])c([H])c2C1([H])[H]

$$$$
88:0:0
     RDKit          3D

 96 96  0  0  1  0  0  0  0  0999 V2000
  -26.5590  -27.5560   19.1860 C   0  0  0  0  0  2  0  0  0  0  0  0
  -27.4330  -28.1930   19.3120 C   0  0  0  0  0  2  0  0  0  0  0  0
  -26.4160  -26.1240   20.6380 C   0  0  0  0  0  1  0  0  0  0  0  0
  -26.2850  -25.7380   20.2430 C   0  0  0  0  0  3  0  0  0  0  0  0
  -27.2910  -27.4980   18.3390 C   0  0  0  0  0  3  0  0  0  0  0  0
  -27.4130  -24.0000   20.4500 C   0  0  0  0  0  1  0  0  0  0  0  0
  -29.3340  -17.7030   20.3470 C   0  0  0  0  0  2  0  0  0  0  0  0
  -30.1620  -14.7680   19.5300 C   0  0  0  0  0  2  0  0  0  0  0  0
  -29.6740  -13.5750   18.5270 C   0  0  0  0  0  2  0  0  0  0  0  0
  -28.4750  -12.7740   19.0250 C   0  0  0  0  0  2  0  0  0  0  0  0
  -27.6620  -13.7670   19.8520 C   0  0  0  0  0  3  0  0  0  0  0  0
  -28.4340  -14.7840   20.8350 C   0  0  0  0  0  2  0  0  0  0  0  0
  -29.1610  -15.9990   20.1080 N   0  0  0  0  0  0  0  0  0  0  0  0
  -30.6030  -17.4020   20.4500 O   0  0  0  0  0  1  0  0  0  0  0  0
  -28.0540  -21.4820   20.6700 C   0  0  0  0  0  2  0  0  0  0  0  0
  -28.4510  -19.5360   20.2750 N   0  0  0  0  0  1  0  0  0  0  0  0
  -28.4940  -21.5690   21.8200 O   0  0  0  0  0  0  0  0  0  0  0  0
  -27.7090  -19.3420   19.6180 H   0  0  0  0  0  0  0  0  0  0  0  0
  -25.2970  -14.0240   20.5770 C   0  0  0  0  0  0  0  0  0  0  0  0
  -24.2800  -13.1850   20.9090 C   0  0  0  0  0  0  0  0  0  0  0  0
  -24.8160  -11.8600   20.8580 C   0  0  0  0  0  0  0  0  0  0  0  0
  -26.4000  -13.2370   20.3610 N   0  0  0  0  0  0  0  0  0  0  0  0
  -26.1240  -11.9090   20.5620 N   0  0  0  0  0  0  0  0  0  0  0  0
  -24.1130  -10.5680   21.0180 C   0  0  0  0  0  0  0  0  0  0  0  0
  -24.5080   -9.6120   21.9800 C   0  0  0  0  0  3  0  0  0  0  0  0
  -23.7840   -8.4080   22.1420 C   0  0  0  0  0  3  0  0  0  0  0  0
  -22.6460   -8.1470   21.3400 C   0  0  0  0  0  0  0  0  0  0  0  0
  -22.2660   -9.0930   20.3710 C   0  0  0  0  0  3  0  0  0  0  0  0
  -22.9910  -10.2860   20.2090 C   0  0  0  0  0  3  0  0  0  0  0  0
  -21.9000   -6.9940   21.4070 O   0  0  0  0  0  0  0  0  0  0  0  0
  -21.7610   -6.2890   22.5760 C   0  0  0  0  0  0  0  0  0  0  0  0
  -21.1490   -6.8530   23.7170 C   0  0  0  0  0  3  0  0  0  0  0  0
  -20.9630   -6.0730   24.8750 C   0  0  0  0  0  3  0  0  0  0  0  0
  -21.3770   -4.7270   24.8950 C   0  0  0  0  0  0  0  0  0  0  0  0
  -21.9790   -4.1600   23.7570 C   0  0  0  0  0  3  0  0  0  0  0  0
  -22.1660   -4.9380   22.6010 C   0  0  0  0  0  0  0  0  0  0  0  0
  -22.7280   -4.3790   21.5010 F   0  0  0  0  0  0  0  0  0  0  0  0
  -21.1930   -3.9760   26.0040 F   0  0  0  0  0  0  0  0  0  0  0  0
  -22.8660  -13.6090   21.1550 C   0  0  0  0  0  0  0  0  0  0  0  0
  -22.1530  -12.8920   22.0150 N   0  0  0  0  0  0  0  0  0  0  0  0
  -22.4080  -14.6240   20.6300 O   0  0  0  0  0  0  0  0  0  0  0  0
  -22.5430  -12.0730   22.4560 H   0  0  0  0  0  0  0  0  0  0  0  0
  -21.2040  -13.1640   22.2300 H   0  0  0  0  0  0  0  0  0  0  0  0
  -25.3720  -15.4040   20.4000 N   0  0  0  0  0  0  0  0  0  0  0  0
  -24.5670  -16.0120   20.4890 H   0  0  0  0  0  0  0  0  0  0  0  0
  -26.2030  -15.8870   20.0840 H   0  0  0  0  0  0  0  0  0  0  0  0
  -28.1130  -24.0680   21.7560 N   0  0  0  0  0  4  0  0  0  0  0  0
  -28.4460  -23.1360   21.5160 H   0  0  0  0  0  0  0  0  0  0  0  0
  -28.0320  -23.4500   22.5530 H   0  0  0  0  0  0  0  0  0  0  0  0
  -27.2330  -24.3290   22.1600 H   0  0  0  0  0  0  0  0  0  0  0  0
  -29.7180  -26.8760   17.3320 C   0  0  0  0  0  0  0  0  0  0  0  0
  -28.5160  -27.4800   17.3960 N   0  0  0  0  0  0  0  0  0  0  0  0
  -30.5220  -27.2000   16.4590 O   0  0  0  0  0  0  0  0  0  0  0  0
  -28.3930  -28.1280   16.6290 H   0  0  0  0  0  0  0  0  0  0  0  0
  -30.0940  -25.7700   18.3220 C   0  0  0  0  0  2  0  0  0  0  0  0
  -29.8790  -26.2300   19.6410 O   0  0  0  0  0  0  0  0  0  0  0  0
  -24.7310  -31.7730   23.2990 C   0  0  0  0  0  0  0  0  0  0  0  0
  -28.6280  -26.1970   19.9500 C   0  0  0  0  0  1  0  0  0  0  0  0
  -23.6260  -30.1320   21.7370 C   0  0  0  0  0  3  0  0  0  0  0  0
  -24.7710  -27.6420   20.7860 C   0  0  0  0  0  2  0  0  0  0  0  0
  -26.1560  -30.0670   21.8830 C   0  0  0  0  0  2  0  0  0  0  0  0
  -26.3350  -28.4070   21.6880 C   0  0  0  0  0  2  0  0  0  0  0  0
  -28.2340  -27.6350   21.5630 C   0  0  0  0  0 15  0  0  0  0  0  0
  -26.8530  -25.3740   18.5930 C   0  0  0  0  0  1  0  0  0  0  0  0
  -24.9060  -26.2690   19.1740 C   0  0  0  0  0  1  0  0  0  0  0  0
  -23.7930  -28.9690   20.6230 C   0  0  0  0  0  2  0  0  0  0  0  0
  -24.8660  -30.7350   22.3510 N   0  0  0  0  0  0  0  0  0  0  0  0
  -23.6140  -32.1550   23.7000 O   0  0  0  0  0  0  0  0  0  0  0  0
  -22.8060  -29.4370   22.8000 C   0  0  0  0  0  0  0  0  0  0  0  0
  -21.4890  -29.3260   22.5920 N   0  0  0  0  0  0  0  0  0  0  0  0
  -23.3950  -28.8910   23.7310 O   0  0  0  0  0  0  0  0  0  0  0  0
  -21.0710  -29.8090   21.8080 H   0  0  0  0  0  0  0  0  0  0  0  0
  -18.1290  -28.0540   22.9470 C   0  0  0  0  0  0  0  0  0  0  0  0
  -20.6540  -28.3770   23.3160 C   0  0  0  0  0  3  0  0  0  0  0  0
  -20.8270  -26.9540   22.7310 C   0  0  0  0  0  2  0  0  0  0  0  0
  -19.7730  -26.6090   21.6770 C   0  0  0  0  0  2  0  0  0  0  0  0
  -18.3690  -26.7100   22.2780 C   0  0  0  0  0  2  0  0  0  0  0  0
  -19.2070  -28.8490   23.4120 C   0  0  0  0  0  0  0  0  0  0  0  0
  -18.9390  -30.1080   23.9900 C   0  0  0  0  0  3  0  0  0  0  0  0
  -17.6160  -30.5690   24.1170 C   0  0  0  0  0  3  0  0  0  0  0  0
  -16.5490  -29.7690   23.6740 C   0  0  0  0  0  3  0  0  0  0  0  0
  -16.8050  -28.5150   23.0920 C   0  0  0  0  0  3  0  0  0  0  0  0
  -25.9400  -32.5260   23.9810 C   0  0  0  0  0  3  0  0  0  0  0  0
  -26.3930  -31.8590   25.3450 C   0  0  1  0  0  0  0  0  0  0  0  0
  -25.2270  -31.6160   26.3350 C   0  0  0  0  0  1  0  0  0  0  0  0
  -27.0770  -30.5000   25.1060 C   0  0  0  0  0  1  0  0  0  0  0  0
  -27.4480  -32.7390   26.0610 C   0  0  0  0  0  1  0  0  0  0  0  0
  -25.5810  -33.9480   24.2630 N   0  0  0  0  0  0  0  0  0  0  0  0
  -25.9780  -35.0330   23.5740 C   0  0  0  0  0  0  0  0  0  0  0  0
  -26.7180  -34.9470   22.5940 O   0  0  0  0  0  0  0  0  0  0  0  0
  -24.9310  -34.0930   25.0220 H   0  0  0  0  0  0  0  0  0  0  0  0
  -24.2810  -36.8640   23.1670 C   0  0  0  0  0  1  0  0  0  0  0  0
  -25.4800  -36.4310   24.0270 C   0  0  0  0  0  3  0  0  0  0  0  0
  -27.5670  -37.3380   24.9710 C   0  0  0  0  0  1  0  0  0  0  0  0
  -26.5170  -37.4890   23.9680 N   0  0  0  0  0  0  0  0  0  0  0  0
  -26.1020  -38.4100   24.0790 H   0  0  0  0  0  0  0  0  0  0  0  0
  1  2  1  0
  4  3  1  0
  5  1  1  0
  5  2  1  0
  6 47  1  0
  7 14  1  0
  8 13  1  0
  9 10  1  0
  9  8  1  0
 11 10  1  0
 11 22  1  0
 11 12  1  0
 13  7  1  0
 13 12  1  0
 15 17  2  0
 18 16  1  0
 19 20  2  0
 20 39  1  0
 21 20  1  0
 21 24  1  0
 22 23  1  0
 22 19  1  0
 23 21  2  0
 24 25  1  0
 25 26  2  0
 27 30  1  0
 27 26  1  0
 28 27  2  0
 29 28  1  0
 29 24  2  0
 30 31  1  0
 31 36  2  0
 31 32  1  0
 32 33  2  0
 33 34  1  0
 34 38  1  0
 35 34  2  0
 36 35  1  0
 37 36  1  0
 39 40  1  0
 40 43  1  0
 40 42  1  0
 41 39  2  0
 44 45  1  0
 44 19  1  0
 46 44  1  0
 47 50  1  0
 47 49  1  0
 48 47  1  0
 51 52  1  0
 51 55  1  0
 52  5  1  0
 53 51  2  0
 54 52  1  0
 55 56  1  0
 56 58  1  0
 57 68  2  0
 59 67  1  0
 59 69  1  0
 60 62  1  0
 61 67  1  0
 62 61  1  0
 64  4  1  0
 65  4  1  0
 66 60  1  0
 66 59  1  0
 67 57  1  0
 69 71  2  0
 70 69  1  0
 72 70  1  0
 73 82  2  0
 73 78  1  0
 74 70  1  0
 74 78  1  0
 75 74  1  0
 76 77  1  0
 76 75  1  0
 77 73  1  0
 78 79  2  0
 79 80  1  0
 81 80  2  0
 82 81  1  0
 83 57  1  0
 83 88  1  0
 83 84  1  0
 84 87  1  1
 84 85  1  0
 86 84  1  0
 88 91  1  0
 89 93  1  0
 89 88  1  0
 90 89  2  0
 93 92  1  0
 95 93  1  0
 95 96  1  0
 95 94  1  0
M  ISO  4   7 100  16 100  55 101  56 101
M  END
>  <TORSDO>  (88) 
F 19

>  <SCORE>  (88) 
-14.570

>  <name>  (88) 
88

>  <ligand_id>  (88) 
88

>  <original_smiles>  (88) 
[H]c1c([H])c([H])c2c(c1[H])C([H])([H])C([H])([H])C([H])([H])C2([H])N([H])C(=O)C1([H])N(C(=O)C([H])(N([H])C(=O)C([H])(N([H])C([H])([H])[H])C([H])([H])[H])C(C([H])([H])[H])(C([H])([H])[H])C([H])([H])[H])C([H])([H])c2c([H])c(OC([H])([H])C(=O)N([H])C3([H])C([H])([H])C4([H])C([H])([H])C3([H])C4(C(=O)N([H])C(=O)N3C([H])([H])C([H])([H])C([H])([H])C([H])(n4nc(-c5c([H])c([H])c(Oc6c([H])c([H])c(F)c([H])c6F)c([H])c5[H])c(C(=O)N([H])[H])c4N([H])[H])C3([H])[H])[N+]([H])([H])[H])c([H])c([H])c2C1([H])[H]

>  <smiles>  (88) 
[H]c1c([H])c([H])c2c(c1[H])C([H])([H])C([H])([H])C([H])([H])C2([H])N([H])C(=O)C1([H])N(C(=O)C([H])(N([H])C(=O)C([H])(N([H])C([H])([H])[H])C([H])([H])[H])C(C([H])([H])[H])(C([H])([H])[H])C([H])([H])[H])C([H])([H])c2c([H])c(OC([H])([H])C(=O)N([H])C3([H])C([H])([H])C4([H])C([H])([H])C3([H])C4(C(=O)N([H])C(=O)N3C([H])([H])C([H])([H])C([H])([H])C([H])(n4nc(-c5c([H])c([H])c(Oc6c([H])c([H])c(F)c([H])c6F)c([H])c5[H])c(C(=O)N([H])[H])c4N([H])[H])C3([H])[H])[N+]([H])([H])[H])c([H])c([H])c2C1([H])[H]

$$$$
89:0:0
     RDKit          3D

 99107  0  0  1  0  0  0  0  0999 V2000
  -28.4440  -22.0910   18.3660 C   0  0  0  0  0  1  0  0  0  0  0  0
  -28.6940  -22.2740   19.8770 C   0  0  0  0  0  3  0  0  0  0  0  0
  -29.0880  -19.7000   20.4260 C   0  0  0  0  0  0  0  0  0  0  0  0
  -29.4910  -21.0390   20.3690 N   0  0  0  0  0  0  0  0  0  0  0  0
  -27.9190  -19.4230   20.1570 O   0  0  0  0  0  0  0  0  0  0  0  0
  -30.4600  -21.2060   20.6120 H   0  0  0  0  0  0  0  0  0  0  0  0
  -30.9200  -15.0980   20.6270 C   0  0  0  0  0  0  0  0  0  0  0  0
  -30.7690  -12.7930   19.6620 C   0  0  0  0  0  2  0  0  0  0  0  0
  -29.8930  -12.7950   18.3930 C   0  0  0  0  0  2  0  0  0  0  0  0
  -28.4120  -12.5940   18.7680 C   0  0  0  0  0  2  0  0  0  0  0  0
  -27.9590  -13.5080   19.9380 C   0  0  0  0  0  3  0  0  0  0  0  0
  -28.9700  -13.5170   21.1030 C   0  0  0  0  0  2  0  0  0  0  0  0
  -30.2710  -13.8840   20.5360 N   0  0  0  0  0  0  0  0  0  0  0  0
  -32.1320  -15.1300   20.3940 O   0  0  0  0  0  0  0  0  0  0  0  0
  -29.4260  -17.1380   21.4540 C   0  0  0  0  0  2  0  0  0  0  0  0
  -30.0460  -18.4770   20.8880 C   0  0  0  0  0  3  0  0  0  0  0  0
  -30.7230  -17.5330   19.8360 C   0  0  0  0  0  3  0  0  0  0  0  0
  -30.2030  -16.2930   20.4970 N   0  0  0  0  0  0  0  0  0  0  0  0
  -25.5390  -14.0460   20.5890 C   0  0  0  0  0  0  0  0  0  0  0  0
  -24.4750  -13.2500   20.9130 C   0  0  0  0  0  0  0  0  0  0  0  0
  -24.9640  -11.9070   20.8950 C   0  0  0  0  0  0  0  0  0  0  0  0
  -26.6070  -13.1880   20.3850 N   0  0  0  0  0  0  0  0  0  0  0  0
  -26.2660  -11.8960   20.6350 N   0  0  0  0  0  0  0  0  0  0  0  0
  -24.2520  -10.6310   21.0530 C   0  0  0  0  0  0  0  0  0  0  0  0
  -24.6440   -9.6830   22.0240 C   0  0  0  0  0  3  0  0  0  0  0  0
  -23.9310   -8.4720   22.1690 C   0  0  0  0  0  3  0  0  0  0  0  0
  -22.8140   -8.2010   21.3440 C   0  0  0  0  0  0  0  0  0  0  0  0
  -22.4450   -9.1380   20.3630 C   0  0  0  0  0  3  0  0  0  0  0  0
  -23.1570  -10.3400   20.2160 C   0  0  0  0  0  3  0  0  0  0  0  0
  -22.0790   -7.0410   21.3970 O   0  0  0  0  0  0  0  0  0  0  0  0
  -21.9200   -6.3410   22.5660 C   0  0  0  0  0  0  0  0  0  0  0  0
  -21.3190   -6.9190   23.7050 C   0  0  0  0  0  3  0  0  0  0  0  0
  -21.1120   -6.1440   24.8620 C   0  0  0  0  0  3  0  0  0  0  0  0
  -21.4960   -4.7900   24.8810 C   0  0  0  0  0  0  0  0  0  0  0  0
  -22.0910   -4.2110   23.7460 C   0  0  0  0  0  3  0  0  0  0  0  0
  -22.2990   -4.9840   22.5910 C   0  0  0  0  0  0  0  0  0  0  0  0
  -22.8520   -4.4150   21.4930 F   0  0  0  0  0  0  0  0  0  0  0  0
  -21.2910   -4.0410   25.9900 F   0  0  0  0  0  0  0  0  0  0  0  0
  -23.0600  -13.7000   21.1320 C   0  0  0  0  0  0  0  0  0  0  0  0
  -22.3120  -12.9900   21.9680 N   0  0  0  0  0  0  0  0  0  0  0  0
  -22.6240  -14.7170   20.5930 O   0  0  0  0  0  0  0  0  0  0  0  0
  -22.6770  -12.1680   22.4260 H   0  0  0  0  0  0  0  0  0  0  0  0
  -21.3600  -13.2740   22.1540 H   0  0  0  0  0  0  0  0  0  0  0  0
  -25.6860  -15.4200   20.4220 N   0  0  0  0  0  0  0  0  0  0  0  0
  -24.9060  -16.0630   20.5070 H   0  0  0  0  0  0  0  0  0  0  0  0
  -26.5410  -15.8690   20.1180 H   0  0  0  0  0  0  0  0  0  0  0  0
  -30.2580  -17.6600   18.3790 C   0  0  0  0  0  0  0  0  0  0  0  0
  -30.9960  -18.4130   17.5740 N   0  0  0  0  0  0  0  0  0  0  0  0
  -29.2720  -17.0540   17.9650 O   0  0  0  0  0  0  0  0  0  0  0  0
  -31.8180  -18.8860   17.9240 H   0  0  0  0  0  0  0  0  0  0  0  0
  -30.7530  -18.5100   16.5990 H   0  0  0  0  0  0  0  0  0  0  0  0
  -29.1960  -23.8250   20.1600 C   0  0  0  0  0  3  0  0  0  0  0  0
  -29.7900  -23.9820   21.5800 C   0  0  0  0  0  2  0  0  0  0  0  0
  -28.8290  -23.7420   22.6770 N   0  0  0  0  0  4  0  0  0  0  0  0
  -28.0680  -24.3970   22.6520 H   0  0  0  0  0  0  0  0  0  0  0  0
  -29.2990  -23.8590   23.5570 H   0  0  0  0  0  0  0  0  0  0  0  0
  -28.4640  -22.8080   22.6540 H   0  0  0  0  0  0  0  0  0  0  0  0
  -28.1830  -25.0780   19.8180 C   0  0  0  0  0  2  0  0  0  0  0  0
  -28.4440  -26.5570   20.0520 O   0  0  0  0  0  0  0  0  0  0  0  0
  -24.6700  -31.9190   23.2320 C   0  0  0  0  0  0  0  0  0  0  0  0
  -27.3520  -27.4710   20.0020 C   0  0  0  0  0  0  0  0  0  0  0  0
  -23.4970  -30.5720   21.5320 C   0  0  0  0  0  3  0  0  0  0  0  0
  -24.9770  -29.1080   20.0420 C   0  0  0  0  0  0  0  0  0  0  0  0
  -26.0380  -30.9220   21.3760 C   0  0  0  0  0  2  0  0  0  0  0  0
  -26.1430  -29.5680   20.6690 C   0  0  0  0  0  0  0  0  0  0  0  0
  -27.3310  -28.7630   20.6400 C   0  0  0  0  0  3  0  0  0  0  0  0
  -26.1650  -27.1000   19.3300 C   0  0  0  0  0  3  0  0  0  0  0  0
  -24.9970  -27.8840   19.3590 C   0  0  0  0  0  3  0  0  0  0  0  0
  -23.7290  -29.9640   20.1250 C   0  0  0  0  0  2  0  0  0  0  0  0
  -24.7540  -31.1540   22.1040 N   0  0  0  0  0  0  0  0  0  0  0  0
  -23.5800  -32.1560   23.7740 O   0  0  0  0  0  0  0  0  0  0  0  0
  -22.8460  -29.5050   22.4450 C   0  0  0  0  0  0  0  0  0  0  0  0
  -21.5250  -29.3040   22.3010 N   0  0  0  0  0  0  0  0  0  0  0  0
  -23.5300  -28.8630   23.2480 O   0  0  0  0  0  0  0  0  0  0  0  0
  -21.0290  -29.8750   21.6310 H   0  0  0  0  0  0  0  0  0  0  0  0
  -18.1730  -27.9990   22.7130 C   0  0  0  0  0  0  0  0  0  0  0  0
  -20.7200  -28.3200   23.0280 C   0  0  0  0  0  3  0  0  0  0  0  0
  -20.8690  -26.9120   22.4110 C   0  0  0  0  0  2  0  0  0  0  0  0
  -19.7920  -26.5920   21.3680 C   0  0  0  0  0  2  0  0  0  0  0  0
  -18.3970  -26.6780   21.9960 C   0  0  0  0  0  2  0  0  0  0  0  0
  -19.2640  -28.7770   23.1840 C   0  0  0  0  0  0  0  0  0  0  0  0
  -19.0000  -30.0130   23.8140 C   0  0  0  0  0  3  0  0  0  0  0  0
  -17.6800  -30.4710   23.9770 C   0  0  0  0  0  3  0  0  0  0  0  0
  -16.6020  -29.6890   23.5230 C   0  0  0  0  0  3  0  0  0  0  0  0
  -16.8510  -28.4550   22.8960 C   0  0  0  0  0  3  0  0  0  0  0  0
  -25.9390  -32.5500   23.8840 C   0  0  0  0  0  3  0  0  0  0  0  0
  -25.6120  -33.9390   24.2420 N   0  0  0  0  0  0  0  0  0  0  0  0
  -25.9250  -35.0100   23.5000 C   0  0  0  0  0  0  0  0  0  0  0  0
  -26.5890  -34.9350   22.4640 O   0  0  0  0  0  0  0  0  0  0  0  0
  -25.0240  -34.0710   25.0500 H   0  0  0  0  0  0  0  0  0  0  0  0
  -24.1680  -36.7840   23.1950 C   0  0  0  0  0  1  0  0  0  0  0  0
  -25.4230  -36.3840   23.9880 C   0  0  0  0  0  3  0  0  0  0  0  0
  -27.5520  -37.2870   24.8130 C   0  0  0  0  0  1  0  0  0  0  0  0
  -26.4380  -37.4560   23.8840 N   0  0  0  0  0  0  0  0  0  0  0  0
  -26.0170  -38.3650   24.0560 H   0  0  0  0  0  0  0  0  0  0  0  0
  -26.4410  -31.7570   25.1530 C   0  0  1  0  0  0  0  0  0  0  0  0
  -25.3340  -31.4910   26.2010 C   0  0  0  0  0  1  0  0  0  0  0  0
  -27.0380  -30.3890   24.7460 C   0  0  0  0  0  1  0  0  0  0  0  0
  -27.5770  -32.5440   25.8480 C   0  0  0  0  0  1  0  0  0  0  0  0
  2  1  1  0
  2 52  1  0
  2  4  1  0
  4  3  1  0
  4  6  1  0
  5  3  2  0
  8 13  1  0
  9 10  1  0
  9  8  1  0
 11 10  1  0
 11 22  1  0
 11 12  1  0
 13  7  1  0
 13 12  1  0
 14  7  2  0
 16  3  1  0
 16 15  1  0
 17 47  1  0
 17 18  1  0
 17 16  1  0
 18  7  1  0
 18 15  1  0
 19 20  2  0
 20 39  1  0
 21 20  1  0
 21 24  1  0
 22 19  1  0
 22 23  1  0
 23 21  2  0
 24 25  1  0
 25 26  2  0
 27 30  1  0
 27 26  1  0
 28 27  2  0
 29 28  1  0
 29 24  2  0
 30 31  1  0
 31 36  2  0
 31 32  1  0
 32 33  2  0
 33 34  1  0
 34 38  1  0
 35 34  2  0
 36 35  1  0
 37 36  1  0
 39 40  1  0
 40 43  1  0
 40 42  1  0
 41 39  2  0
 44 45  1  0
 44 19  1  0
 46 44  1  0
 48 50  1  0
 48 47  1  0
 49 47  2  0
 51 48  1  0
 52 58  1  0
 52 53  1  0
 53 54  1  0
 54 56  1  0
 55 54  1  0
 57 54  1  0
 58 59  1  0
 60 71  2  0
 61 59  1  0
 61 66  1  0
 62 70  1  0
 62 72  1  0
 63 69  1  0
 63 65  1  0
 64 70  1  0
 65 64  1  0
 66 65  2  0
 67 68  1  0
 67 61  2  0
 68 63  2  0
 69 62  1  0
 70 60  1  0
 72 74  2  0
 73 72  1  0
 75 73  1  0
 76 85  2  0
 76 81  1  0
 77 73  1  0
 77 81  1  0
 78 77  1  0
 79 80  1  0
 79 78  1  0
 80 76  1  0
 81 82  2  0
 82 83  1  0
 84 83  2  0
 85 84  1  0
 86 60  1  0
 86 87  1  0
 86 96  1  0
 87 90  1  0
 88 92  1  0
 88 87  1  0
 89 88  2  0
 92 91  1  0
 94 92  1  0
 94 95  1  0
 94 93  1  0
 96 99  1  1
 96 97  1  0
 98 96  1  0
M  ISO  4   7 100  18 100  58 101  59 101
M  END
>  <TORSDO>  (89) 
F 22

>  <SCORE>  (89) 
-13.045

>  <name>  (89) 
89

>  <ligand_id>  (89) 
89

>  <original_smiles>  (89) 
[H]c1c([H])c([H])c2c(c1[H])C([H])([H])C([H])([H])C([H])([H])C2([H])N([H])C(=O)C1([H])N(C(=O)C([H])(N([H])C(=O)C([H])(N([H])C([H])([H])[H])C([H])([H])[H])C(C([H])([H])[H])(C([H])([H])[H])C([H])([H])[H])C([H])([H])c2c([H])c(OC([H])([H])C([H])(C([H])(N([H])C(=O)C3([H])C([H])([H])N(C(=O)N4C([H])([H])C([H])([H])C([H])([H])C([H])(n5nc(-c6c([H])c([H])c(Oc7c([H])c([H])c(F)c([H])c7F)c([H])c6[H])c(C(=O)N([H])[H])c5N([H])[H])C4([H])[H])C3([H])C(=O)N([H])[H])C([H])([H])[H])C([H])([H])[N+]([H])([H])[H])c([H])c([H])c2C1([H])[H]

>  <smiles>  (89) 
[H]c1c([H])c([H])c2c(c1[H])C([H])([H])C([H])([H])C([H])([H])C2([H])N([H])C(=O)C1([H])N(C(=O)C([H])(N([H])C(=O)C([H])(N([H])C([H])([H])[H])C([H])([H])[H])C(C([H])([H])[H])(C([H])([H])[H])C([H])([H])[H])C([H])([H])c2c([H])c(OC([H])([H])C([H])(C([H])(N([H])C(=O)C3([H])C([H])([H])N(C(=O)N4C([H])([H])C([H])([H])C([H])([H])C([H])(n5nc(-c6c([H])c([H])c(Oc7c([H])c([H])c(F)c([H])c7F)c([H])c6[H])c(C(=O)N([H])[H])c5N([H])[H])C4([H])[H])C3([H])C(=O)N([H])[H])C([H])([H])[H])C([H])([H])[N+]([H])([H])[H])c([H])c([H])c2C1([H])[H]

$$$$
90:0:0
     RDKit          3D

 97105  0  0  1  0  0  0  0  0999 V2000
  -27.5950  -22.3690   19.4440 C   0  0  0  0  0  1  0  0  0  0  0  0
  -28.8960  -22.8070   20.1510 C   0  0  0  0  0  3  0  0  0  0  0  0
  -29.2350  -21.7720   21.2910 C   0  0  0  0  0  2  0  0  0  0  0  0
  -29.6220  -17.8930   21.5520 C   0  0  0  0  0  2  0  0  0  0  0  0
  -31.0570  -18.7140   19.7180 C   0  0  0  0  0  2  0  0  0  0  0  0
  -29.3050  -19.3660   21.9520 C   0  0  0  0  0  2  0  0  0  0  0  0
  -30.7860  -20.1780   20.1450 C   0  0  0  0  0  2  0  0  0  0  0  0
  -31.0300  -17.7810   20.9390 C   0  0  0  0  0  3  0  0  0  0  0  0
  -29.4770  -20.3550   20.8400 N   0  0  2  0  0  4  0  0  0  0  0  0
  -28.7550  -20.1440   20.1670 H   0  0  0  0  0  0  0  0  0  0  0  0
  -32.1950  -15.7440   21.9680 C   0  0  0  0  0  1  0  0  0  0  0  0
  -31.6050  -16.3470   20.6820 C   0  0  0  0  0  3  0  0  0  0  0  0
  -31.0490  -14.3760   19.2420 C   0  0  0  0  0  0  0  0  0  0  0  0
  -30.4140  -12.2350   18.1700 C   0  0  0  0  0  2  0  0  0  0  0  0
  -29.3140  -12.4470   17.1120 C   0  0  0  0  0  2  0  0  0  0  0  0
  -27.9180  -12.4090   17.7640 C   0  0  0  0  0  2  0  0  0  0  0  0
  -27.8220  -13.3080   19.0260 C   0  0  0  0  0  3  0  0  0  0  0  0
  -29.0150  -13.0630   19.9730 C   0  0  0  0  0  2  0  0  0  0  0  0
  -30.2510  -13.2730   19.2030 N   0  0  0  0  0  0  0  0  0  0  0  0
  -32.0550  -14.4880   18.5340 O   0  0  0  0  0  0  0  0  0  0  0  0
  -30.6850  -15.3540   20.0990 N   0  0  0  0  0  0  0  0  0  0  0  0
  -29.7950  -15.2280   20.5580 H   0  0  0  0  0  0  0  0  0  0  0  0
  -25.6520  -14.0920   20.1630 C   0  0  0  0  0  0  0  0  0  0  0  0
  -24.5780  -13.4030   20.6610 C   0  0  0  0  0  0  0  0  0  0  0  0
  -24.8740  -12.0190   20.4720 C   0  0  0  0  0  0  0  0  0  0  0  0
  -26.5410  -13.1320   19.7090 N   0  0  0  0  0  0  0  0  0  0  0  0
  -26.0870  -11.8740   19.9490 N   0  0  0  0  0  0  0  0  0  0  0  0
  -24.0520  -10.8240   20.7060 C   0  0  0  0  0  0  0  0  0  0  0  0
  -24.4950   -9.7740   21.5390 C   0  0  0  0  0  3  0  0  0  0  0  0
  -23.6790   -8.6450   21.7640 C   0  0  0  0  0  3  0  0  0  0  0  0
  -22.4040   -8.5590   21.1560 C   0  0  0  0  0  0  0  0  0  0  0  0
  -21.9770   -9.5960   20.3080 C   0  0  0  0  0  3  0  0  0  0  0  0
  -22.7930  -10.7170   20.0820 C   0  0  0  0  0  3  0  0  0  0  0  0
  -21.5540   -7.4890   21.2950 O   0  0  0  0  0  0  0  0  0  0  0  0
  -21.5330   -6.7290   22.4370 C   0  0  0  0  0  0  0  0  0  0  0  0
  -21.2840   -7.2970   23.7050 C   0  0  0  0  0  3  0  0  0  0  0  0
  -21.2050   -6.4710   24.8430 C   0  0  0  0  0  3  0  0  0  0  0  0
  -21.3630   -5.0780   24.7160 C   0  0  0  0  0  0  0  0  0  0  0  0
  -21.6090   -4.5090   23.4530 C   0  0  0  0  0  3  0  0  0  0  0  0
  -21.6890   -5.3330   22.3160 C   0  0  0  0  0  0  0  0  0  0  0  0
  -21.9030   -4.7790   21.0990 F   0  0  0  0  0  0  0  0  0  0  0  0
  -21.2800   -4.2810   25.8070 F   0  0  0  0  0  0  0  0  0  0  0  0
  -23.3050  -13.9960   21.1930 C   0  0  0  0  0  0  0  0  0  0  0  0
  -22.6610  -13.3180   22.1360 N   0  0  0  0  0  0  0  0  0  0  0  0
  -22.9000  -15.0920   20.8070 O   0  0  0  0  0  0  0  0  0  0  0  0
  -23.0050  -12.4280   22.4660 H   0  0  0  0  0  0  0  0  0  0  0  0
  -21.8130  -13.6950   22.5340 H   0  0  0  0  0  0  0  0  0  0  0  0
  -25.9380  -15.4480   20.0420 N   0  0  0  0  0  0  0  0  0  0  0  0
  -25.2700  -16.1660   20.3040 H   0  0  0  0  0  0  0  0  0  0  0  0
  -26.7670  -15.8210   19.5970 H   0  0  0  0  0  0  0  0  0  0  0  0
  -28.7880  -24.3160   20.6180 C   0  0  0  0  0  3  0  0  0  0  0  0
  -29.9570  -24.7490   21.4250 N   0  0  0  0  0  4  0  0  0  0  0  0
  -30.8320  -24.5770   20.9600 H   0  0  0  0  0  0  0  0  0  0  0  0
  -29.9830  -24.3400   22.3420 H   0  0  0  0  0  0  0  0  0  0  0  0
  -29.8860  -25.7460   21.5530 H   0  0  0  0  0  0  0  0  0  0  0  0
  -28.6400  -25.3520   19.4570 C   0  0  0  0  0  2  0  0  0  0  0  0
  -28.5080  -26.7030   19.9530 O   0  0  0  0  0  0  0  0  0  0  0  0
  -24.5540  -31.6990   23.1310 C   0  0  0  0  0  0  0  0  0  0  0  0
  -27.2900  -27.3660   19.9550 C   0  0  0  0  0  0  0  0  0  0  0  0
  -23.3800  -30.3170   21.4530 C   0  0  0  0  0  3  0  0  0  0  0  0
  -24.8610  -28.8380   20.0010 C   0  0  0  0  0  0  0  0  0  0  0  0
  -25.8990  -30.7240   21.2700 C   0  0  0  0  0  2  0  0  0  0  0  0
  -26.0130  -29.3700   20.5960 C   0  0  0  0  0  0  0  0  0  0  0  0
  -27.2260  -28.6460   20.5600 C   0  0  0  0  0  3  0  0  0  0  0  0
  -26.1060  -26.8400   19.3810 C   0  0  0  0  0  3  0  0  0  0  0  0
  -24.9040  -27.5730   19.3950 C   0  0  0  0  0  3  0  0  0  0  0  0
  -23.6040  -29.6740   20.0600 C   0  0  0  0  0  2  0  0  0  0  0  0
  -24.6300  -30.9270   22.0090 N   0  0  0  0  0  0  0  0  0  0  0  0
  -23.4650  -31.9380   23.6710 O   0  0  0  0  0  0  0  0  0  0  0  0
  -22.7490  -29.2570   22.3840 C   0  0  0  0  0  0  0  0  0  0  0  0
  -21.4290  -29.0480   22.2500 N   0  0  0  0  0  0  0  0  0  0  0  0
  -23.4440  -28.6230   23.1840 O   0  0  0  0  0  0  0  0  0  0  0  0
  -20.9270  -29.6190   21.5850 H   0  0  0  0  0  0  0  0  0  0  0  0
  -18.0910  -27.7430   22.6940 C   0  0  0  0  0  0  0  0  0  0  0  0
  -20.6370  -28.0700   22.9930 C   0  0  0  0  0  3  0  0  0  0  0  0
  -20.7870  -26.6540   22.3890 C   0  0  0  0  0  2  0  0  0  0  0  0
  -19.7040  -26.3170   21.3610 C   0  0  0  0  0  2  0  0  0  0  0  0
  -18.3110  -26.4140   21.9920 C   0  0  0  0  0  2  0  0  0  0  0  0
  -19.1820  -28.5280   23.1500 C   0  0  0  0  0  0  0  0  0  0  0  0
  -18.9220  -29.7740   23.7620 C   0  0  0  0  0  3  0  0  0  0  0  0
  -17.6020  -30.2330   23.9270 C   0  0  0  0  0  3  0  0  0  0  0  0
  -16.5240  -29.4450   23.4870 C   0  0  0  0  0  3  0  0  0  0  0  0
  -16.7700  -28.2030   22.8760 C   0  0  0  0  0  3  0  0  0  0  0  0
  -25.8240  -32.3410   23.7710 C   0  0  0  0  0  3  0  0  0  0  0  0
  -25.4840  -33.7250   24.1310 N   0  0  0  0  0  0  0  0  0  0  0  0
  -25.7850  -34.7990   23.3870 C   0  0  0  0  0  0  0  0  0  0  0  0
  -26.4480  -34.7290   22.3490 O   0  0  0  0  0  0  0  0  0  0  0  0
  -24.8980  -33.8540   24.9420 H   0  0  0  0  0  0  0  0  0  0  0  0
  -24.0150  -36.5650   23.0770 C   0  0  0  0  0  1  0  0  0  0  0  0
  -25.2690  -36.1680   23.8730 C   0  0  0  0  0  3  0  0  0  0  0  0
  -27.3900  -37.0890   24.7070 C   0  0  0  0  0  1  0  0  0  0  0  0
  -26.2790  -37.2450   23.7710 N   0  0  0  0  0  0  0  0  0  0  0  0
  -25.8540  -38.1540   23.9310 H   0  0  0  0  0  0  0  0  0  0  0  0
  -26.3500  -31.5550   25.0350 C   0  0  1  0  0  0  0  0  0  0  0  0
  -25.2550  -31.2790   26.0930 C   0  0  0  0  0  1  0  0  0  0  0  0
  -26.9640  -30.1960   24.6220 C   0  0  0  0  0  1  0  0  0  0  0  0
  -27.4800  -32.3600   25.7210 C   0  0  0  0  0  1  0  0  0  0  0  0
  2  1  1  0
  2 51  1  0
  2  3  1  0
  4  6  1  0
  5  7  1  0
  5  8  1  0
  7  9  1  0
  8 12  1  0
  8  4  1  0
  9  3  1  0
  9  6  1  0
  9 10  1  6
 12 11  1  0
 13 21  1  0
 14 19  1  0
 15 16  1  0
 15 14  1  0
 17 16  1  0
 17 26  1  0
 17 18  1  0
 19 13  1  0
 19 18  1  0
 20 13  2  0
 21 22  1  0
 21 12  1  0
 23 24  2  0
 24 43  1  0
 25 24  1  0
 25 28  1  0
 26 27  1  0
 26 23  1  0
 27 25  2  0
 28 29  1  0
 29 30  2  0
 31 34  1  0
 31 30  1  0
 32 31  2  0
 33 32  1  0
 33 28  2  0
 34 35  1  0
 35 36  1  0
 36 37  2  0
 38 37  1  0
 38 42  1  0
 39 38  2  0
 40 35  2  0
 40 39  1  0
 41 40  1  0
 43 44  1  0
 44 46  1  0
 44 47  1  0
 45 43  2  0
 48 23  1  0
 48 49  1  0
 50 48  1  0
 51 56  1  0
 51 52  1  0
 52 55  1  0
 52 54  1  0
 53 52  1  0
 56 57  1  0
 57 59  1  0
 58 69  2  0
 59 64  1  0
 60 68  1  0
 60 70  1  0
 61 67  1  0
 61 63  1  0
 62 68  1  0
 63 62  1  0
 64 63  2  0
 65 66  1  0
 65 59  2  0
 66 61  2  0
 67 60  1  0
 68 58  1  0
 70 72  2  0
 71 70  1  0
 73 71  1  0
 74 83  2  0
 74 79  1  0
 75 71  1  0
 75 79  1  0
 76 75  1  0
 77 78  1  0
 77 76  1  0
 78 74  1  0
 79 80  2  0
 80 81  1  0
 82 81  2  0
 83 82  1  0
 84 58  1  0
 84 85  1  0
 84 94  1  0
 85 88  1  0
 86 90  1  0
 86 85  1  0
 87 86  2  0
 90 89  1  0
 92 90  1  0
 92 93  1  0
 92 91  1  0
 94 97  1  1
 94 95  1  0
 96 94  1  0
M  ISO  4  13 100  21 100  56 101  57 101
M  END
>  <TORSDO>  (90) 
F 22

>  <SCORE>  (90) 
-8.946

>  <name>  (90) 
90

>  <ligand_id>  (90) 
90

>  <original_smiles>  (90) 
[H]c1c([H])c([H])c2c(c1[H])C([H])([H])C([H])([H])C([H])([H])C2([H])N([H])C(=O)C1([H])N(C(=O)C([H])(N([H])C(=O)C([H])(N([H])C([H])([H])[H])C([H])([H])[H])C(C([H])([H])[H])(C([H])([H])[H])C([H])([H])[H])C([H])([H])c2c([H])c(OC([H])([H])C([H])(C([H])(C([H])([H])[H])C([H])([H])[N+]3([H])C([H])([H])C([H])([H])C([H])(C([H])(N([H])C(=O)N4C([H])([H])C([H])([H])C([H])([H])C([H])(n5nc(-c6c([H])c([H])c(Oc7c([H])c([H])c(F)c([H])c7F)c([H])c6[H])c(C(=O)N([H])[H])c5N([H])[H])C4([H])[H])C([H])([H])[H])C([H])([H])C3([H])[H])[N+]([H])([H])[H])c([H])c([H])c2C1([H])[H]

>  <smiles>  (90) 
[H]c1c([H])c([H])c2c(c1[H])C([H])([H])C([H])([H])C([H])([H])C2([H])N([H])C(=O)C1([H])N(C(=O)C([H])(N([H])C(=O)C([H])(N([H])C([H])([H])[H])C([H])([H])[H])C(C([H])([H])[H])(C([H])([H])[H])C([H])([H])[H])C([H])([H])c2c([H])c(OC([H])([H])C([H])(C([H])(C([H])([H])[H])C([H])([H])[N+]3([H])C([H])([H])C([H])([H])C([H])(C([H])(N([H])C(=O)N4C([H])([H])C([H])([H])C([H])([H])C([H])(n5nc(-c6c([H])c([H])c(Oc7c([H])c([H])c(F)c([H])c7F)c([H])c6[H])c(C(=O)N([H])[H])c5N([H])[H])C4([H])[H])C([H])([H])[H])C([H])([H])C3([H])[H])[N+]([H])([H])[H])c([H])c([H])c2C1([H])[H]

$$$$
91:0:0
     RDKit          3D

 96104  0  0  1  0  0  0  0  0999 V2000
  -28.7850  -19.3490   20.4540 C   0  0  0  0  0  2  0  0  0  0  0  0
  -31.0480  -20.2090   20.0220 C   0  0  0  0  0  2  0  0  0  0  0  0
  -28.2420  -20.7820   20.6280 C   0  0  0  0  0  2  0  0  0  0  0  0
  -30.5380  -21.6650   20.1630 C   0  0  0  0  0  2  0  0  0  0  0  0
  -30.2470  -19.2730   20.9380 C   0  0  0  0  0  3  0  0  0  0  0  0
  -29.0650  -21.8320   19.9530 N   0  0  2  0  0  4  0  0  0  0  0  0
  -28.8980  -21.7310   18.9630 H   0  0  0  0  0  0  0  0  0  0  0  0
  -28.6110  -23.2010   20.3480 C   0  0  0  0  0  2  0  0  0  0  0  0
  -28.4390  -24.2050   19.1890 C   0  0  0  0  0  2  0  0  0  0  0  0
  -28.0540  -25.5880   19.7540 C   0  0  0  0  0  2  0  0  0  0  0  0
  -27.9000  -26.5880   18.7460 O   0  0  0  0  0  0  0  0  0  0  0  0
  -24.6380  -31.4150   22.8280 C   0  0  0  0  0  0  0  0  0  0  0  0
  -26.7860  -27.3650   18.9470 C   0  0  0  0  0  0  0  0  0  0  0  0
  -23.2170  -30.2670   21.1580 C   0  0  0  0  0  3  0  0  0  0  0  0
  -24.4600  -28.8900   19.4070 C   0  0  0  0  0  0  0  0  0  0  0  0
  -25.7190  -30.5900   20.7430 C   0  0  0  0  0  2  0  0  0  0  0  0
  -25.6900  -29.3140   19.9300 C   0  0  0  0  0  0  0  0  0  0  0  0
  -26.8580  -28.5560   19.6990 C   0  0  0  0  0  3  0  0  0  0  0  0
  -25.5450  -26.9460   18.4270 C   0  0  0  0  0  3  0  0  0  0  0  0
  -24.3800  -27.7030   18.6540 C   0  0  0  0  0  3  0  0  0  0  0  0
  -23.2590  -29.7630   19.6910 C   0  0  0  0  0  2  0  0  0  0  0  0
  -24.5480  -30.7630   21.6340 N   0  0  0  0  0  0  0  0  0  0  0  0
  -23.6280  -31.6450   23.5090 O   0  0  0  0  0  0  0  0  0  0  0  0
  -22.6260  -29.1510   22.0480 C   0  0  0  0  0  0  0  0  0  0  0  0
  -21.2920  -29.0030   22.0160 N   0  0  0  0  0  0  0  0  0  0  0  0
  -23.3610  -28.4230   22.7230 O   0  0  0  0  0  0  0  0  0  0  0  0
  -20.7600  -29.6470   21.4480 H   0  0  0  0  0  0  0  0  0  0  0  0
  -17.9490  -27.7610   22.6020 C   0  0  0  0  0  0  0  0  0  0  0  0
  -20.5210  -27.9910   22.7360 C   0  0  0  0  0  3  0  0  0  0  0  0
  -20.5810  -26.6270   22.0090 C   0  0  0  0  0  2  0  0  0  0  0  0
  -19.4090  -26.4050   21.0450 C   0  0  0  0  0  2  0  0  0  0  0  0
  -18.0770  -26.4800   21.7980 C   0  0  0  0  0  2  0  0  0  0  0  0
  -19.0970  -28.4770   23.0340 C   0  0  0  0  0  0  0  0  0  0  0  0
  -18.9240  -29.6780   23.7560 C   0  0  0  0  0  3  0  0  0  0  0  0
  -17.6350  -30.1620   24.0500 C   0  0  0  0  0  3  0  0  0  0  0  0
  -16.5020  -29.4400   23.6330 C   0  0  0  0  0  3  0  0  0  0  0  0
  -16.6600  -28.2420   22.9170 C   0  0  0  0  0  3  0  0  0  0  0  0
  -26.0050  -31.9250   23.3840 C   0  0  0  0  0  3  0  0  0  0  0  0
  -26.6480  -30.9480   24.4420 C   0  0  1  0  0  0  0  0  0  0  0  0
  -25.6870  -30.5520   25.5860 C   0  0  0  0  0  1  0  0  0  0  0  0
  -27.1370  -29.6480   23.7620 C   0  0  0  0  0  1  0  0  0  0  0  0
  -27.8980  -31.6090   25.0740 C   0  0  0  0  0  1  0  0  0  0  0  0
  -25.7790  -33.2520   23.9710 N   0  0  0  0  0  0  0  0  0  0  0  0
  -26.0850  -34.4090   23.3710 C   0  0  0  0  0  0  0  0  0  0  0  0
  -26.6640  -34.4680   22.2830 O   0  0  0  0  0  0  0  0  0  0  0  0
  -25.2600  -33.2810   24.8370 H   0  0  0  0  0  0  0  0  0  0  0  0
  -24.4050  -36.2760   23.4660 C   0  0  0  0  0  1  0  0  0  0  0  0
  -25.6880  -35.7100   24.0940 C   0  0  0  0  0  3  0  0  0  0  0  0
  -27.9100  -36.3880   24.8900 C   0  0  0  0  0  1  0  0  0  0  0  0
  -26.7490  -36.7410   24.0760 N   0  0  0  0  0  0  0  0  0  0  0  0
  -26.3900  -37.6330   24.4040 H   0  0  0  0  0  0  0  0  0  0  0  0
  -30.8390  -17.8380   21.1260 C   0  0  0  0  0  3  0  0  0  0  0  0
  -30.8460  -16.9860   19.8200 C   0  0  0  0  0  2  0  0  0  0  0  0
  -31.5220  -14.5720   19.4680 C   0  0  0  0  0  0  0  0  0  0  0  0
  -31.1500  -12.3050   18.5690 C   0  0  0  0  0  2  0  0  0  0  0  0
  -30.0380  -12.3730   17.5000 C   0  0  0  0  0  2  0  0  0  0  0  0
  -28.6350  -12.2920   18.1390 C   0  0  0  0  0  2  0  0  0  0  0  0
  -28.4650  -13.2600   19.3390 C   0  0  0  0  0  3  0  0  0  0  0  0
  -29.6580  -13.1060   20.3100 C   0  0  0  0  0  2  0  0  0  0  0  0
  -30.8990  -13.3680   19.5510 N   0  0  0  0  0  0  0  0  0  0  0  0
  -32.5200  -14.7890   18.7740 O   0  0  0  0  0  0  0  0  0  0  0  0
  -30.8480  -15.5450   20.0920 N   0  0  0  0  0  0  0  0  0  0  0  0
  -30.0690  -15.1880   20.6180 H   0  0  0  0  0  0  0  0  0  0  0  0
  -26.3220  -13.9890   20.5710 C   0  0  0  0  0  0  0  0  0  0  0  0
  -25.2360  -13.2810   21.0120 C   0  0  0  0  0  0  0  0  0  0  0  0
  -25.4960  -11.9160   20.6820 C   0  0  0  0  0  0  0  0  0  0  0  0
  -27.1840  -13.0570   20.0120 N   0  0  0  0  0  0  0  0  0  0  0  0
  -26.6970  -11.7970   20.1310 N   0  0  0  0  0  0  0  0  0  0  0  0
  -24.6520  -10.7220   20.8050 C   0  0  0  0  0  0  0  0  0  0  0  0
  -24.9890   -9.6670   21.6800 C   0  0  0  0  0  3  0  0  0  0  0  0
  -24.1510   -8.5360   21.7960 C   0  0  0  0  0  3  0  0  0  0  0  0
  -22.9610   -8.4560   21.0340 C   0  0  0  0  0  0  0  0  0  0  0  0
  -22.6400   -9.5000   20.1500 C   0  0  0  0  0  3  0  0  0  0  0  0
  -23.4780  -10.6220   20.0330 C   0  0  0  0  0  3  0  0  0  0  0  0
  -22.0990   -7.3850   21.0630 O   0  0  0  0  0  0  0  0  0  0  0  0
  -21.7910   -6.7380   22.2330 C   0  0  0  0  0  0  0  0  0  0  0  0
  -21.2080   -7.4160   23.3260 C   0  0  0  0  0  3  0  0  0  0  0  0
  -20.8440   -6.6980   24.4850 C   0  0  0  0  0  3  0  0  0  0  0  0
  -21.0540   -5.3080   24.5470 C   0  0  0  0  0  0  0  0  0  0  0  0
  -21.6310   -4.6320   23.4580 C   0  0  0  0  0  3  0  0  0  0  0  0
  -21.9960   -5.3460   22.3030 C   0  0  0  0  0  0  0  0  0  0  0  0
  -22.5310   -4.6860   21.2470 F   0  0  0  0  0  0  0  0  0  0  0  0
  -20.6980   -4.6190   25.6570 F   0  0  0  0  0  0  0  0  0  0  0  0
  -23.9830  -13.8460   21.6170 C   0  0  0  0  0  0  0  0  0  0  0  0
  -23.3440  -13.1010   22.5130 N   0  0  0  0  0  0  0  0  0  0  0  0
  -23.5850  -14.9740   21.3300 O   0  0  0  0  0  0  0  0  0  0  0  0
  -23.6760  -12.1820   22.7650 H   0  0  0  0  0  0  0  0  0  0  0  0
  -22.5120  -13.4600   22.9580 H   0  0  0  0  0  0  0  0  0  0  0  0
  -26.6360  -15.3450   20.5780 N   0  0  0  0  0  0  0  0  0  0  0  0
  -25.9320  -16.0280   20.8390 H   0  0  0  0  0  0  0  0  0  0  0  0
  -27.3710  -15.7400   20.0050 H   0  0  0  0  0  0  0  0  0  0  0  0
  -30.1880  -17.1290   22.3570 C   0  0  0  0  0  2  0  0  0  0  0  0
  -30.6700  -17.6540   23.6500 N   0  0  0  0  0  4  0  0  0  0  0  0
  -31.6620  -17.5170   23.7430 H   0  0  0  0  0  0  0  0  0  0  0  0
  -30.2200  -17.1660   24.4060 H   0  0  0  0  0  0  0  0  0  0  0  0
  -30.4690  -18.6320   23.7520 H   0  0  0  0  0  0  0  0  0  0  0  0
  1  3  1  0
  1  5  1  0
  2  4  1  0
  2  5  1  0
  5 52  1  0
  6  4  1  0
  6  8  1  0
  6  3  1  0
  6  7  1  6
  9 10  1  0
  9  8  1  0
 11 13  1  0
 11 10  1  0
 12 23  2  0
 13 18  1  0
 14 22  1  0
 14 24  1  0
 15 21  1  0
 15 17  1  0
 16 22  1  0
 17 16  1  0
 18 17  2  0
 19 20  1  0
 19 13  2  0
 20 15  2  0
 21 14  1  0
 22 12  1  0
 24 26  2  0
 25 24  1  0
 27 25  1  0
 28 37  2  0
 28 33  1  0
 29 25  1  0
 29 33  1  0
 30 29  1  0
 31 32  1  0
 31 30  1  0
 32 28  1  0
 33 34  2  0
 34 35  1  0
 36 35  2  0
 37 36  1  0
 38 12  1  0
 38 43  1  0
 38 39  1  0
 39 42  1  1
 39 40  1  0
 41 39  1  0
 43 46  1  0
 44 43  1  0
 44 48  1  0
 45 44  2  0
 48 47  1  0
 50 48  1  0
 50 51  1  0
 50 49  1  0
 52 53  1  0
 52 92  1  0
 53 62  1  0
 54 60  1  0
 54 62  1  0
 55 60  1  0
 56 57  1  0
 56 55  1  0
 58 57  1  0
 58 67  1  0
 58 59  1  0
 60 59  1  0
 61 54  2  0
 62 63  1  0
 64 89  1  0
 64 65  2  0
 65 84  1  0
 66 69  1  0
 66 65  1  0
 67 68  1  0
 67 64  1  0
 68 66  2  0
 69 70  1  0
 70 71  2  0
 72 75  1  0
 72 71  1  0
 73 72  2  0
 74 73  1  0
 74 69  2  0
 75 76  1  0
 76 81  2  0
 76 77  1  0
 77 78  2  0
 78 79  1  0
 79 83  1  0
 80 79  2  0
 81 80  1  0
 82 81  1  0
 84 85  1  0
 85 87  1  0
 85 88  1  0
 86 84  2  0
 89 90  1  0
 91 89  1  0
 92 93  1  0
 93 94  1  0
 93 96  1  0
 93 95  1  0
M  ISO  4  10 101  11 101  54 100  62 100
M  END
>  <TORSDO>  (91) 
F 23

>  <SCORE>  (91) 
-10.070

>  <name>  (91) 
91

>  <ligand_id>  (91) 
91

>  <original_smiles>  (91) 
[H]c1c([H])c([H])c2c(c1[H])C([H])([H])C([H])([H])C([H])([H])C2([H])N([H])C(=O)C1([H])N(C(=O)C([H])(N([H])C(=O)C([H])(N([H])C([H])([H])[H])C([H])([H])[H])C(C([H])([H])[H])(C([H])([H])[H])C([H])([H])[H])C([H])([H])c2c([H])c(OC([H])([H])C([H])([H])C([H])([H])[N+]3([H])C([H])([H])C([H])([H])C([H])(C([H])(C([H])([H])N([H])C(=O)N4C([H])([H])C([H])([H])C([H])([H])C([H])(n5nc(-c6c([H])c([H])c(Oc7c([H])c([H])c(F)c([H])c7F)c([H])c6[H])c(C(=O)N([H])[H])c5N([H])[H])C4([H])[H])C([H])([H])[N+]([H])([H])[H])C([H])([H])C3([H])[H])c([H])c([H])c2C1([H])[H]

>  <smiles>  (91) 
[H]c1c([H])c([H])c2c(c1[H])C([H])([H])C([H])([H])C([H])([H])C2([H])N([H])C(=O)C1([H])N(C(=O)C([H])(N([H])C(=O)C([H])(N([H])C([H])([H])[H])C([H])([H])[H])C(C([H])([H])[H])(C([H])([H])[H])C([H])([H])[H])C([H])([H])c2c([H])c(OC([H])([H])C([H])([H])C([H])([H])[N+]3([H])C([H])([H])C([H])([H])C([H])(C([H])(C([H])([H])N([H])C(=O)N4C([H])([H])C([H])([H])C([H])([H])C([H])(n5nc(-c6c([H])c([H])c(Oc7c([H])c([H])c(F)c([H])c7F)c([H])c6[H])c(C(=O)N([H])[H])c5N([H])[H])C4([H])[H])C([H])([H])[N+]([H])([H])[H])C([H])([H])C3([H])[H])c([H])c([H])c2C1([H])[H]

$$$$
92:0:0
     RDKit          3D

 96105  0  0  1  0  0  0  0  0999 V2000
  -28.4610  -22.2440   20.1310 C   0  0  0  0  0  0  0  0  0  0  0  0
  -31.0840  -20.7040   18.9060 C   0  0  0  0  0  2  0  0  0  0  0  0
  -29.8570  -19.9590   18.3390 C   0  0  0  0  0  2  0  0  0  0  0  0
  -30.7720  -19.5890   21.1760 C   0  0  0  0  0  2  0  0  0  0  0  0
  -30.6640  -20.9250   20.3730 C   0  0  0  0  0  3  0  0  0  0  0  0
  -29.0210  -19.7270   19.6170 C   0  0  0  0  0  3  0  0  0  0  0  0
  -29.6840  -18.6150   20.5880 C   0  0  1  0  0  0  0  0  0  0  0  0
  -29.2370  -21.0910   20.2160 N   0  0  0  0  0  0  0  0  0  0  0  0
  -27.2580  -22.1260   19.8870 O   0  0  0  0  0  0  0  0  0  0  0  0
  -30.6960  -14.7750   19.9440 C   0  0  0  0  0  0  0  0  0  0  0  0
  -30.3850  -12.5180   18.9390 C   0  0  0  0  0  2  0  0  0  0  0  0
  -29.3850  -12.6200   17.7670 C   0  0  0  0  0  2  0  0  0  0  0  0
  -27.9420  -12.4450   18.2790 C   0  0  0  0  0  2  0  0  0  0  0  0
  -27.6430  -13.3120   19.5310 C   0  0  0  0  0  3  0  0  0  0  0  0
  -28.7680  -13.2220   20.5880 C   0  0  0  0  0  2  0  0  0  0  0  0
  -30.0280  -13.5690   19.9220 N   0  0  0  0  0  0  0  0  0  0  0  0
  -31.8630  -14.7950   19.5450 O   0  0  0  0  0  0  0  0  0  0  0  0
  -30.3870  -17.2700   19.9930 C   0  0  0  0  0  0  0  0  0  0  0  0
  -29.9970  -15.9480   20.2450 N   0  0  0  0  0  0  0  0  0  0  0  0
  -31.3840  -17.4810   19.2950 O   0  0  0  0  0  0  0  0  0  0  0  0
  -29.0920  -15.7910   20.6490 H   0  0  0  0  0  0  0  0  0  0  0  0
  -25.3070  -13.8800   20.4200 C   0  0  0  0  0  0  0  0  0  0  0  0
  -24.2680  -13.0970   20.8390 C   0  0  0  0  0  0  0  0  0  0  0  0
  -24.7260  -11.7460   20.7470 C   0  0  0  0  0  0  0  0  0  0  0  0
  -26.3330  -13.0080   20.0960 N   0  0  0  0  0  0  0  0  0  0  0  0
  -25.9960  -11.7180   20.3580 N   0  0  0  0  0  0  0  0  0  0  0  0
  -24.0120  -10.4790   20.9480 C   0  0  0  0  0  0  0  0  0  0  0  0
  -24.4620   -9.5160   21.8780 C   0  0  0  0  0  3  0  0  0  0  0  0
  -23.7460   -8.3150   22.0680 C   0  0  0  0  0  3  0  0  0  0  0  0
  -22.5650   -8.0680   21.3280 C   0  0  0  0  0  0  0  0  0  0  0  0
  -22.1350   -9.0180   20.3870 C   0  0  0  0  0  3  0  0  0  0  0  0
  -22.8520  -10.2110   20.1960 C   0  0  0  0  0  3  0  0  0  0  0  0
  -21.8200   -6.9170   21.4280 O   0  0  0  0  0  0  0  0  0  0  0  0
  -21.7350   -6.2140   22.6030 C   0  0  0  0  0  0  0  0  0  0  0  0
  -21.2580   -6.8070   23.7920 C   0  0  0  0  0  3  0  0  0  0  0  0
  -21.1200   -6.0300   24.9600 C   0  0  0  0  0  3  0  0  0  0  0  0
  -21.4490   -4.6620   24.9400 C   0  0  0  0  0  0  0  0  0  0  0  0
  -21.9200   -4.0690   23.7540 C   0  0  0  0  0  3  0  0  0  0  0  0
  -22.0590   -4.8430   22.5890 C   0  0  0  0  0  0  0  0  0  0  0  0
  -22.4940   -4.2620   21.4440 F   0  0  0  0  0  0  0  0  0  0  0  0
  -21.3110   -3.9140   26.0590 F   0  0  0  0  0  0  0  0  0  0  0  0
  -22.8910  -13.5670   21.2040 C   0  0  0  0  0  0  0  0  0  0  0  0
  -22.2170  -12.8550   22.0980 N   0  0  0  0  0  0  0  0  0  0  0  0
  -22.4210  -14.6000   20.7260 O   0  0  0  0  0  0  0  0  0  0  0  0
  -22.6090  -12.0170   22.5030 H   0  0  0  0  0  0  0  0  0  0  0  0
  -21.2950  -13.1530   22.3890 H   0  0  0  0  0  0  0  0  0  0  0  0
  -25.4590  -15.2560   20.2550 N   0  0  0  0  0  0  0  0  0  0  0  0
  -24.6420  -15.8540   20.3310 H   0  0  0  0  0  0  0  0  0  0  0  0
  -26.1650  -15.6370   19.6410 H   0  0  0  0  0  0  0  0  0  0  0  0
  -28.7150  -18.2190   21.6360 N   0  0  0  0  0  4  0  0  0  0  0  0
  -29.1550  -17.6510   22.3390 H   0  0  0  0  0  0  0  0  0  0  0  0
  -27.9450  -17.7070   21.2440 H   0  0  0  0  0  0  0  0  0  0  0  0
  -28.3290  -19.0260   22.0920 H   0  0  0  0  0  0  0  0  0  0  0  0
  -29.0280  -23.7320   20.2880 C   0  0  0  0  0  3  0  0  0  0  0  0
  -28.0060  -24.9460   19.9920 C   0  0  0  0  0  3  0  0  0  0  0  0
  -28.3110  -26.4040   20.1750 O   0  0  0  0  0  0  0  0  0  0  0  0
  -24.6340  -31.8650   23.2210 C   0  0  0  0  0  0  0  0  0  0  0  0
  -27.2260  -27.3100   20.1070 C   0  0  0  0  0  0  0  0  0  0  0  0
  -23.4340  -30.5010   21.5540 C   0  0  0  0  0  3  0  0  0  0  0  0
  -24.8810  -28.9700   20.1050 C   0  0  0  0  0  0  0  0  0  0  0  0
  -25.9790  -30.7960   21.3920 C   0  0  0  0  0  2  0  0  0  0  0  0
  -26.0530  -29.4270   20.7230 C   0  0  0  0  0  0  0  0  0  0  0  0
  -27.2280  -28.6090   20.7160 C   0  0  0  0  0  3  0  0  0  0  0  0
  -26.0340  -26.9310   19.4450 C   0  0  0  0  0  3  0  0  0  0  0  0
  -24.8780  -27.7320   19.4520 C   0  0  0  0  0  3  0  0  0  0  0  0
  -23.6500  -29.8520   20.1640 C   0  0  0  0  0  2  0  0  0  0  0  0
  -24.7020  -31.0700   22.1120 N   0  0  0  0  0  0  0  0  0  0  0  0
  -23.5490  -32.1390   23.7550 O   0  0  0  0  0  0  0  0  0  0  0  0
  -22.7620  -29.4690   22.4920 C   0  0  0  0  0  0  0  0  0  0  0  0
  -21.4370  -29.2920   22.3490 N   0  0  0  0  0  0  0  0  0  0  0  0
  -23.4310  -28.8310   23.3100 O   0  0  0  0  0  0  0  0  0  0  0  0
  -20.9570  -29.8550   21.6600 H   0  0  0  0  0  0  0  0  0  0  0  0
  -18.0560  -28.0800   22.7900 C   0  0  0  0  0  0  0  0  0  0  0  0
  -20.6090  -28.3480   23.1000 C   0  0  0  0  0  3  0  0  0  0  0  0
  -20.7270  -26.9200   22.5150 C   0  0  0  0  0  2  0  0  0  0  0  0
  -19.6410  -26.6010   21.4830 C   0  0  0  0  0  2  0  0  0  0  0  0
  -18.2490  -26.7360   22.1070 C   0  0  0  0  0  2  0  0  0  0  0  0
  -19.1650  -28.8430   23.2420 C   0  0  0  0  0  0  0  0  0  0  0  0
  -18.9350  -30.0990   23.8410 C   0  0  0  0  0  3  0  0  0  0  0  0
  -17.6270  -30.5970   23.9900 C   0  0  0  0  0  3  0  0  0  0  0  0
  -16.5300  -29.8310   23.5580 C   0  0  0  0  0  3  0  0  0  0  0  0
  -16.7460  -28.5740   22.9640 C   0  0  0  0  0  3  0  0  0  0  0  0
  -25.9140  -32.4850   23.8570 C   0  0  0  0  0  3  0  0  0  0  0  0
  -26.4180  -31.6960   25.1280 C   0  0  1  0  0  0  0  0  0  0  0  0
  -25.3170  -31.4500   26.1870 C   0  0  0  0  0  1  0  0  0  0  0  0
  -26.9940  -30.3180   24.7260 C   0  0  0  0  0  1  0  0  0  0  0  0
  -27.5710  -32.4740   25.8040 C   0  0  0  0  0  1  0  0  0  0  0  0
  -25.6100  -33.8800   24.2010 N   0  0  0  0  0  0  0  0  0  0  0  0
  -25.9320  -34.9400   23.4450 C   0  0  0  0  0  0  0  0  0  0  0  0
  -26.5890  -34.8440   22.4040 O   0  0  0  0  0  0  0  0  0  0  0  0
  -25.0220  -34.0270   25.0070 H   0  0  0  0  0  0  0  0  0  0  0  0
  -24.1860  -36.7270   23.1510 C   0  0  0  0  0  1  0  0  0  0  0  0
  -25.4540  -36.3260   23.9210 C   0  0  0  0  0  3  0  0  0  0  0  0
  -27.6100  -37.2190   24.6850 C   0  0  0  0  0  1  0  0  0  0  0  0
  -26.4780  -37.3850   23.7780 N   0  0  0  0  0  0  0  0  0  0  0  0
  -26.0730  -38.3020   23.9430 H   0  0  0  0  0  0  0  0  0  0  0  0
  1  8  1  0
  1 54  1  0
  3  2  1  0
  5  2  1  0
  5  4  1  0
  6  3  1  0
  6  8  1  0
  6  7  1  0
  7 18  1  0
  7  4  1  0
  7 50  1  1
  8  5  1  0
  9  1  2  0
 10 19  1  0
 11 16  1  0
 12 13  1  0
 12 11  1  0
 14 13  1  0
 14 25  1  0
 14 15  1  0
 16 10  1  0
 16 15  1  0
 17 10  2  0
 18 19  1  0
 19 21  1  0
 20 18  2  0
 22 23  2  0
 23 42  1  0
 24 23  1  0
 24 27  1  0
 25 26  1  0
 25 22  1  0
 26 24  2  0
 27 28  1  0
 28 29  2  0
 30 33  1  0
 30 29  1  0
 31 30  2  0
 32 31  1  0
 32 27  2  0
 33 34  1  0
 34 35  1  0
 35 36  2  0
 37 36  1  0
 37 41  1  0
 38 37  2  0
 39 34  2  0
 39 38  1  0
 40 39  1  0
 42 43  1  0
 43 46  1  0
 43 45  1  0
 44 42  2  0
 47 48  1  0
 47 22  1  0
 49 47  1  0
 50 53  1  0
 50 51  1  0
 52 50  1  0
 55 56  1  0
 55 54  2  0
 57 68  2  0
 58 56  1  0
 58 63  1  0
 59 67  1  0
 59 69  1  0
 60 66  1  0
 60 62  1  0
 61 67  1  0
 62 61  1  0
 63 62  2  0
 64 65  1  0
 64 58  2  0
 65 60  2  0
 66 59  1  0
 67 57  1  0
 69 71  2  0
 70 69  1  0
 72 70  1  0
 73 82  2  0
 73 78  1  0
 74 70  1  0
 74 78  1  0
 75 74  1  0
 76 77  1  0
 76 75  1  0
 77 73  1  0
 78 79  2  0
 79 80  1  0
 81 80  2  0
 82 81  1  0
 83 57  1  0
 83 88  1  0
 83 84  1  0
 84 87  1  1
 84 85  1  0
 86 84  1  0
 88 91  1  0
 89 93  1  0
 89 88  1  0
 90 89  2  0
 93 92  1  0
 95 93  1  0
 95 96  1  0
 95 94  1  0
M  ISO  4  10 100  19 100  55 101  56 101
M  END
>  <TORSDO>  (92) 
F 19

>  <SCORE>  (92) 
-13.730

>  <name>  (92) 
92

>  <ligand_id>  (92) 
92

>  <original_smiles>  (92) 
[H]c1c([H])c([H])c2c(c1[H])C([H])([H])C([H])([H])C([H])([H])C2([H])N([H])C(=O)C1([H])N(C(=O)C([H])(N([H])C(=O)C([H])(N([H])C([H])([H])[H])C([H])([H])[H])C(C([H])([H])[H])(C([H])([H])[H])C([H])([H])[H])C([H])([H])c2c([H])c(OC([H])([H])C([H])([H])C(=O)N3C4([H])C([H])([H])C([H])([H])C3([H])C(C(=O)N([H])C(=O)N3C([H])([H])C([H])([H])C([H])([H])C([H])(n5nc(-c6c([H])c([H])c(Oc7c([H])c([H])c(F)c([H])c7F)c([H])c6[H])c(C(=O)N([H])[H])c5N([H])[H])C3([H])[H])([N+]([H])([H])[H])C4([H])[H])c([H])c([H])c2C1([H])[H]

>  <smiles>  (92) 
[H]c1c([H])c([H])c2c(c1[H])C([H])([H])C([H])([H])C([H])([H])C2([H])N([H])C(=O)C1([H])N(C(=O)C([H])(N([H])C(=O)C([H])(N([H])C([H])([H])[H])C([H])([H])[H])C(C([H])([H])[H])(C([H])([H])[H])C([H])([H])[H])C([H])([H])c2c([H])c(OC([H])([H])C([H])([H])C(=O)N3C4([H])C([H])([H])C([H])([H])C3([H])C(C(=O)N([H])C(=O)N3C([H])([H])C([H])([H])C([H])([H])C([H])(n5nc(-c6c([H])c([H])c(Oc7c([H])c([H])c(F)c([H])c7F)c([H])c6[H])c(C(=O)N([H])[H])c5N([H])[H])C3([H])[H])([N+]([H])([H])[H])C4([H])[H])c([H])c([H])c2C1([H])[H]

$$$$
93:0:0
     RDKit          3D

 99107  0  0  1  0  0  0  0  0999 V2000
  -32.1700  -23.0170   18.8380 C   0  0  0  0  0  2  0  0  0  0  0  0
  -31.7340  -23.6390   20.1710 C   0  0  0  0  0  2  0  0  0  0  0  0
  -30.6740  -24.7300   19.9680 C   0  0  0  0  0  2  0  0  0  0  0  0
  -29.9120  -25.0720   21.2630 C   0  0  0  0  0  3  0  0  0  0  0  0
  -30.6660  -26.0090   22.1250 N   0  0  0  0  0  4  0  0  0  0  0  0
  -30.7830  -26.8960   21.6670 H   0  0  0  0  0  0  0  0  0  0  0  0
  -31.5730  -25.6440   22.3590 H   0  0  0  0  0  0  0  0  0  0  0  0
  -30.1670  -26.1680   22.9830 H   0  0  0  0  0  0  0  0  0  0  0  0
  -28.5150  -25.6180   20.9520 C   0  0  0  0  0  2  0  0  0  0  0  0
  -28.6530  -26.8500   20.2480 O   0  0  0  0  0  0  0  0  0  0  0  0
  -24.6510  -31.8550   23.2300 C   0  0  0  0  0  0  0  0  0  0  0  0
  -27.4760  -27.5430   20.1850 C   0  0  0  0  0  0  0  0  0  0  0  0
  -23.5160  -30.4290   21.5550 C   0  0  0  0  0  3  0  0  0  0  0  0
  -25.0410  -28.9440   20.1510 C   0  0  0  0  0  0  0  0  0  0  0  0
  -26.0300  -30.8730   21.4040 C   0  0  0  0  0  2  0  0  0  0  0  0
  -26.1680  -29.5130   20.7590 C   0  0  0  0  0  0  0  0  0  0  0  0
  -27.3930  -28.8190   20.7710 C   0  0  0  0  0  3  0  0  0  0  0  0
  -26.3380  -26.9750   19.5730 C   0  0  0  0  0  3  0  0  0  0  0  0
  -25.1180  -27.6730   19.5550 C   0  0  0  0  0  3  0  0  0  0  0  0
  -23.7700  -29.7570   20.1770 C   0  0  0  0  0  2  0  0  0  0  0  0
  -24.7500  -31.0660   22.1230 N   0  0  0  0  0  0  0  0  0  0  0  0
  -23.5510  -32.0950   23.7490 O   0  0  0  0  0  0  0  0  0  0  0  0
  -22.8760  -29.3860   22.4980 C   0  0  0  0  0  0  0  0  0  0  0  0
  -21.5570  -29.1830   22.3540 N   0  0  0  0  0  0  0  0  0  0  0  0
  -23.5630  -28.7600   23.3110 O   0  0  0  0  0  0  0  0  0  0  0  0
  -21.0630  -29.7440   21.6740 H   0  0  0  0  0  0  0  0  0  0  0  0
  -18.1920  -27.9550   22.8210 C   0  0  0  0  0  0  0  0  0  0  0  0
  -20.7470  -28.2210   23.1000 C   0  0  0  0  0  3  0  0  0  0  0  0
  -20.8580  -26.8040   22.4900 C   0  0  0  0  0  2  0  0  0  0  0  0
  -19.7580  -26.4970   21.4680 C   0  0  0  0  0  2  0  0  0  0  0  0
  -18.3750  -26.6220   22.1130 C   0  0  0  0  0  2  0  0  0  0  0  0
  -19.3060  -28.7140   23.2660 C   0  0  0  0  0  0  0  0  0  0  0  0
  -19.0790  -29.9640   23.8840 C   0  0  0  0  0  3  0  0  0  0  0  0
  -17.7720  -30.4550   24.0560 C   0  0  0  0  0  3  0  0  0  0  0  0
  -16.6720  -29.6920   23.6260 C   0  0  0  0  0  3  0  0  0  0  0  0
  -16.8820  -28.4440   23.0150 C   0  0  0  0  0  3  0  0  0  0  0  0
  -25.9090  -32.5140   23.8800 C   0  0  0  0  0  3  0  0  0  0  0  0
  -26.4140  -31.7550   25.1680 C   0  0  1  0  0  0  0  0  0  0  0  0
  -25.3000  -31.4840   26.2070 C   0  0  0  0  0  1  0  0  0  0  0  0
  -27.0370  -30.3930   24.7850 C   0  0  0  0  0  1  0  0  0  0  0  0
  -27.5280  -32.5730   25.8580 C   0  0  0  0  0  1  0  0  0  0  0  0
  -25.5640  -33.9070   24.1970 N   0  0  0  0  0  0  0  0  0  0  0  0
  -25.8920  -34.9620   23.4390 C   0  0  0  0  0  0  0  0  0  0  0  0
  -26.5870  -34.8660   22.4230 O   0  0  0  0  0  0  0  0  0  0  0  0
  -24.9480  -34.0520   24.9830 H   0  0  0  0  0  0  0  0  0  0  0  0
  -24.1380  -36.7150   23.0240 C   0  0  0  0  0  1  0  0  0  0  0  0
  -25.3640  -36.3420   23.8740 C   0  0  0  0  0  3  0  0  0  0  0  0
  -27.4510  -37.2740   24.7690 C   0  0  0  0  0  1  0  0  0  0  0  0
  -26.3780  -37.4140   23.7880 N   0  0  0  0  0  0  0  0  0  0  0  0
  -25.9500  -38.3260   23.9130 H   0  0  0  0  0  0  0  0  0  0  0  0
  -32.9760  -21.7190   19.0000 C   0  0  0  0  0  2  0  0  0  0  0  0
  -31.0710  -20.1230   19.6040 C   0  0  0  0  0  0  0  0  0  0  0  0
  -32.3230  -20.6070   19.7020 N   0  0  0  0  0  0  0  0  0  0  0  0
  -30.1100  -20.7580   19.1720 O   0  0  0  0  0  0  0  0  0  0  0  0
  -32.9780  -19.9700   20.1390 H   0  0  0  0  0  0  0  0  0  0  0  0
  -31.0600  -14.5600   20.4110 C   0  0  0  0  0  0  0  0  0  0  0  0
  -30.6930  -12.3540   19.4170 C   0  0  0  0  0  2  0  0  0  0  0  0
  -29.7570  -12.4390   18.1970 C   0  0  0  0  0  2  0  0  0  0  0  0
  -28.2840  -12.3480   18.6310 C   0  0  0  0  0  2  0  0  0  0  0  0
  -27.9330  -13.2650   19.8370 C   0  0  0  0  0  3  0  0  0  0  0  0
  -28.9990  -13.1780   20.9510 C   0  0  0  0  0  2  0  0  0  0  0  0
  -30.3020  -13.4360   20.3270 N   0  0  0  0  0  0  0  0  0  0  0  0
  -32.2850  -14.4960   20.3380 O   0  0  0  0  0  0  0  0  0  0  0  0
  -30.8180  -17.8660   18.6170 C   0  0  0  0  0  2  0  0  0  0  0  0
  -29.8700  -16.5790   21.0420 C   0  0  0  0  0  2  0  0  0  0  0  0
  -30.9410  -18.6240   19.9300 C   0  0  0  0  0  3  0  0  0  0  0  0
  -29.7640  -18.1240   20.7910 C   0  0  0  0  0  3  0  0  0  0  0  0
  -31.2120  -16.4180   18.8620 C   0  0  0  0  0  3  0  0  0  0  0  0
  -29.6230  -18.8830   22.1240 C   0  0  0  0  0  1  0  0  0  0  0  0
  -31.2180  -15.6610   17.5240 C   0  0  0  0  0  1  0  0  0  0  0  0
  -30.4830  -15.7240   19.9820 N   0  0  0  0  0  0  0  0  0  0  0  0
  -25.5470  -13.8580   20.5810 C   0  0  0  0  0  0  0  0  0  0  0  0
  -24.4770  -13.0760   20.9310 C   0  0  0  0  0  0  0  0  0  0  0  0
  -24.9350  -11.7240   20.8720 C   0  0  0  0  0  0  0  0  0  0  0  0
  -26.5880  -12.9790   20.3320 N   0  0  0  0  0  0  0  0  0  0  0  0
  -26.2260  -11.6930   20.5720 N   0  0  0  0  0  0  0  0  0  0  0  0
  -24.2060  -10.4580   21.0280 C   0  0  0  0  0  0  0  0  0  0  0  0
  -24.5990   -9.4950   21.9840 C   0  0  0  0  0  3  0  0  0  0  0  0
  -23.8710   -8.2940   22.1330 C   0  0  0  0  0  3  0  0  0  0  0  0
  -22.7360   -8.0480   21.3240 C   0  0  0  0  0  0  0  0  0  0  0  0
  -22.3660   -8.9980   20.3550 C   0  0  0  0  0  3  0  0  0  0  0  0
  -23.0930  -10.1900   20.2060 C   0  0  0  0  0  3  0  0  0  0  0  0
  -21.9840   -6.8990   21.3800 O   0  0  0  0  0  0  0  0  0  0  0  0
  -21.8230   -6.2010   22.5510 C   0  0  0  0  0  0  0  0  0  0  0  0
  -21.2340   -6.7860   23.6950 C   0  0  0  0  0  3  0  0  0  0  0  0
  -21.0270   -6.0100   24.8530 C   0  0  0  0  0  3  0  0  0  0  0  0
  -21.3950   -4.6530   24.8680 C   0  0  0  0  0  0  0  0  0  0  0  0
  -21.9800   -4.0690   23.7290 C   0  0  0  0  0  3  0  0  0  0  0  0
  -22.1890   -4.8400   22.5720 C   0  0  0  0  0  0  0  0  0  0  0  0
  -22.7310   -4.2660   21.4700 F   0  0  0  0  0  0  0  0  0  0  0  0
  -21.1890   -3.9050   25.9760 F   0  0  0  0  0  0  0  0  0  0  0  0
  -23.0800  -13.5460   21.2100 C   0  0  0  0  0  0  0  0  0  0  0  0
  -22.3570  -12.8300   22.0650 N   0  0  0  0  0  0  0  0  0  0  0  0
  -22.6380  -14.5770   20.7050 O   0  0  0  0  0  0  0  0  0  0  0  0
  -22.7290  -11.9900   22.4840 H   0  0  0  0  0  0  0  0  0  0  0  0
  -21.4190  -13.1230   22.2980 H   0  0  0  0  0  0  0  0  0  0  0  0
  -25.7240  -15.2300   20.4280 N   0  0  0  0  0  0  0  0  0  0  0  0
  -24.9750  -15.9030   20.5440 H   0  0  0  0  0  0  0  0  0  0  0  0
  -26.5870  -15.6520   20.1080 H   0  0  0  0  0  0  0  0  0  0  0  0
  1 51  1  0
  1  2  1  0
  3  2  1  0
  4  3  1  0
  4  5  1  0
  5  7  1  0
  5  8  1  0
  6  5  1  0
  9  4  1  0
 10  9  1  0
 11 22  2  0
 12 10  1  0
 12 17  1  0
 13 21  1  0
 13 23  1  0
 14 20  1  0
 14 16  1  0
 15 21  1  0
 16 17  2  0
 16 15  1  0
 18 12  2  0
 19 18  1  0
 19 14  2  0
 20 13  1  0
 21 11  1  0
 23 25  2  0
 24 23  1  0
 26 24  1  0
 27 36  2  0
 27 32  1  0
 28 24  1  0
 28 32  1  0
 29 28  1  0
 30 31  1  0
 30 29  1  0
 31 27  1  0
 32 33  2  0
 33 34  1  0
 35 34  2  0
 36 35  1  0
 37 11  1  0
 37 42  1  0
 37 38  1  0
 38 41  1  1
 38 39  1  0
 40 38  1  0
 42 45  1  0
 43 47  1  0
 43 42  1  0
 44 43  2  0
 47 46  1  0
 49 47  1  0
 49 50  1  0
 49 48  1  0
 51 53  1  0
 52 53  1  0
 53 55  1  0
 54 52  2  0
 57 62  1  0
 58 59  1  0
 58 57  1  0
 60 59  1  0
 60 75  1  0
 60 61  1  0
 62 56  1  0
 62 61  1  0
 63 56  2  0
 64 68  1  0
 64 66  1  0
 66 52  1  0
 66 67  1  0
 67 65  1  0
 67 69  1  0
 68 70  1  0
 68 71  1  0
 71 56  1  0
 71 65  1  0
 72 73  2  0
 73 92  1  0
 74 73  1  0
 74 77  1  0
 75 76  1  0
 75 72  1  0
 76 74  2  0
 77 78  1  0
 78 79  2  0
 80 83  1  0
 80 79  1  0
 81 80  2  0
 82 81  1  0
 82 77  2  0
 83 84  1  0
 84 89  2  0
 84 85  1  0
 85 86  2  0
 86 87  1  0
 87 91  1  0
 88 87  2  0
 89 88  1  0
 90 89  1  0
 92 93  1  0
 93 96  1  0
 93 95  1  0
 94 92  2  0
 97 98  1  0
 97 72  1  0
 99 97  1  0
M  ISO  4   9 101  10 101  56 100  71 100
M  END
>  <TORSDO>  (93) 
F 23

>  <SCORE>  (93) 
-11.711

>  <name>  (93) 
93

>  <ligand_id>  (93) 
93

>  <original_smiles>  (93) 
[H]c1c([H])c([H])c2c(c1[H])C([H])([H])C([H])([H])C([H])([H])C2([H])N([H])C(=O)C1([H])N(C(=O)C([H])(N([H])C(=O)C([H])(N([H])C([H])([H])[H])C([H])([H])[H])C(C([H])([H])[H])(C([H])([H])[H])C([H])([H])[H])C([H])([H])c2c([H])c(OC([H])([H])C([H])(C([H])([H])C([H])([H])C([H])([H])C([H])([H])N([H])C(=O)C3([H])C([H])([H])C([H])(C([H])([H])[H])N(C(=O)N4C([H])([H])C([H])([H])C([H])([H])C([H])(n5nc(-c6c([H])c([H])c(Oc7c([H])c([H])c(F)c([H])c7F)c([H])c6[H])c(C(=O)N([H])[H])c5N([H])[H])C4([H])[H])C([H])([H])C3([H])C([H])([H])[H])[N+]([H])([H])[H])c([H])c([H])c2C1([H])[H]

>  <smiles>  (93) 
[H]c1c([H])c([H])c2c(c1[H])C([H])([H])C([H])([H])C([H])([H])C2([H])N([H])C(=O)C1([H])N(C(=O)C([H])(N([H])C(=O)C([H])(N([H])C([H])([H])[H])C([H])([H])[H])C(C([H])([H])[H])(C([H])([H])[H])C([H])([H])[H])C([H])([H])c2c([H])c(OC([H])([H])C([H])(C([H])([H])C([H])([H])C([H])([H])C([H])([H])N([H])C(=O)C3([H])C([H])([H])C([H])(C([H])([H])[H])N(C(=O)N4C([H])([H])C([H])([H])C([H])([H])C([H])(n5nc(-c6c([H])c([H])c(Oc7c([H])c([H])c(F)c([H])c7F)c([H])c6[H])c(C(=O)N([H])[H])c5N([H])[H])C4([H])[H])C([H])([H])C3([H])C([H])([H])[H])[N+]([H])([H])[H])c([H])c([H])c2C1([H])[H]

$$$$
94:0:0
     RDKit          3D

 98107  0  0  1  0  0  0  0  0999 V2000
  -30.5070  -19.5280   23.1220 C   0  0  0  0  0  3  0  0  0  0  0  0
  -30.0980  -20.7810   22.6170 C   0  0  0  0  0  3  0  0  0  0  0  0
  -29.7420  -19.7630   20.4460 C   0  0  0  0  0  3  0  0  0  0  0  0
  -30.5850  -18.3880   22.2880 C   0  0  0  0  0  0  0  0  0  0  0  0
  -29.7310  -20.9100   21.2620 C   0  0  0  0  0  0  0  0  0  0  0  0
  -30.1770  -18.5070   20.9290 C   0  0  0  0  0  0  0  0  0  0  0  0
  -30.6590  -22.8010   19.8790 C   0  0  0  0  0  2  0  0  0  0  0  0
  -28.8510  -23.3570   21.5400 C   0  0  0  0  0  2  0  0  0  0  0  0
  -30.3320  -24.0670   19.0750 C   0  0  0  0  0  2  0  0  0  0  0  0
  -28.5260  -24.6490   20.7540 C   0  0  0  0  0  2  0  0  0  0  0  0
  -29.4170  -22.2600   20.6090 C   0  0  0  0  0  3  0  0  0  0  0  0
  -29.7400  -25.1820   19.9570 C   0  0  0  0  0  3  0  0  0  0  0  0
  -29.4000  -26.4150   19.0910 C   0  0  0  0  0  2  0  0  0  0  0  0
  -29.0310  -27.5180   19.9140 O   0  0  0  0  0  0  0  0  0  0  0  0
  -24.6670  -31.8620   23.3840 C   0  0  0  0  0  0  0  0  0  0  0  0
  -27.7560  -28.0410   19.9200 C   0  0  0  0  0  0  0  0  0  0  0  0
  -23.6070  -30.5120   21.6020 C   0  0  0  0  0  3  0  0  0  0  0  0
  -25.2090  -29.2730   20.0530 C   0  0  0  0  0  0  0  0  0  0  0  0
  -26.0820  -31.1440   21.4640 C   0  0  0  0  0  2  0  0  0  0  0  0
  -26.3040  -29.8580   20.6980 C   0  0  0  0  0  0  0  0  0  0  0  0
  -27.5720  -29.2480   20.6290 C   0  0  0  0  0  3  0  0  0  0  0  0
  -26.6340  -27.4510   19.2870 C   0  0  0  0  0  3  0  0  0  0  0  0
  -25.3680  -28.0680   19.3470 C   0  0  0  0  0  3  0  0  0  0  0  0
  -23.8840  -29.9910   20.1670 C   0  0  0  0  0  2  0  0  0  0  0  0
  -24.8010  -31.1850   22.2100 N   0  0  0  0  0  0  0  0  0  0  0  0
  -23.5640  -31.9710   23.9390 O   0  0  0  0  0  0  0  0  0  0  0  0
  -23.0640  -29.3430   22.4520 C   0  0  0  0  0  0  0  0  0  0  0  0
  -21.7830  -28.9950   22.2410 N   0  0  0  0  0  0  0  0  0  0  0  0
  -23.7900  -28.7540   23.2580 O   0  0  0  0  0  0  0  0  0  0  0  0
  -21.2510  -29.5290   21.5690 H   0  0  0  0  0  0  0  0  0  0  0  0
  -18.5950  -27.3120   22.4460 C   0  0  0  0  0  0  0  0  0  0  0  0
  -21.0710  -27.9000   22.9000 C   0  0  0  0  0  3  0  0  0  0  0  0
  -21.4090  -26.5420   22.2440 C   0  0  0  0  0  2  0  0  0  0  0  0
  -20.4230  -26.1410   21.1420 C   0  0  0  0  0  2  0  0  0  0  0  0
  -19.0000  -26.0500   21.7030 C   0  0  0  0  0  2  0  0  0  0  0  0
  -19.5680  -28.1890   22.9940 C   0  0  0  0  0  0  0  0  0  0  0  0
  -19.1400  -29.3670   23.6440 C   0  0  0  0  0  3  0  0  0  0  0  0
  -17.7690  -29.6720   23.7530 C   0  0  0  0  0  3  0  0  0  0  0  0
  -16.8100  -28.7910   23.2240 C   0  0  0  0  0  3  0  0  0  0  0  0
  -17.2230  -27.6120   22.5750 C   0  0  0  0  0  3  0  0  0  0  0  0
  -25.8830  -32.5540   24.0750 C   0  0  0  0  0  3  0  0  0  0  0  0
  -26.3480  -31.8250   25.3960 C   0  0  1  0  0  0  0  0  0  0  0  0
  -25.1920  -31.5220   26.3760 C   0  0  0  0  0  1  0  0  0  0  0  0
  -27.0490  -30.4870   25.0620 C   0  0  0  0  0  1  0  0  0  0  0  0
  -27.3880  -32.6970   26.1370 C   0  0  0  0  0  1  0  0  0  0  0  0
  -25.5010  -33.9440   24.3560 N   0  0  0  0  0  0  0  0  0  0  0  0
  -25.8480  -34.9950   23.6020 C   0  0  0  0  0  0  0  0  0  0  0  0
  -26.5940  -34.8990   22.6230 O   0  0  0  0  0  0  0  0  0  0  0  0
  -24.8470  -34.0900   25.1120 H   0  0  0  0  0  0  0  0  0  0  0  0
  -24.0880  -36.7120   23.0810 C   0  0  0  0  0  1  0  0  0  0  0  0
  -25.2770  -36.3710   23.9940 C   0  0  0  0  0  3  0  0  0  0  0  0
  -27.3050  -37.3500   24.9710 C   0  0  0  0  0  1  0  0  0  0  0  0
  -26.2770  -37.4590   23.9390 N   0  0  0  0  0  0  0  0  0  0  0  0
  -25.8290  -38.3660   24.0310 H   0  0  0  0  0  0  0  0  0  0  0  0
  -31.1920  -17.1250   22.8390 C   0  0  0  0  0  0  0  0  0  0  0  0
  -31.1240  -16.9790   24.1540 N   0  0  0  0  0  0  0  0  0  0  0  0
  -31.7170  -16.2790   22.1180 O   0  0  0  0  0  0  0  0  0  0  0  0
  -30.6770  -17.6880   24.7160 H   0  0  0  0  0  0  0  0  0  0  0  0
  -31.5160  -16.1600   24.5940 H   0  0  0  0  0  0  0  0  0  0  0  0
  -30.3250  -17.3850   19.9050 C   0  0  0  0  0  2  0  0  0  0  0  0
  -30.5630  -14.9620   19.8050 C   0  0  0  0  0  0  0  0  0  0  0  0
  -30.2570  -12.7190   18.8570 C   0  0  0  0  0  2  0  0  0  0  0  0
  -29.2250  -12.7910   17.7140 C   0  0  0  0  0  2  0  0  0  0  0  0
  -27.8060  -12.5820   18.2720 C   0  0  0  0  0  2  0  0  0  0  0  0
  -27.5050  -13.4910   19.4950 C   0  0  0  0  0  3  0  0  0  0  0  0
  -28.6560  -13.4600   20.5290 C   0  0  0  0  0  2  0  0  0  0  0  0
  -29.9130  -13.7670   19.8310 N   0  0  0  0  0  0  0  0  0  0  0  0
  -31.6220  -15.1210   19.1950 O   0  0  0  0  0  0  0  0  0  0  0  0
  -29.9190  -16.0280   20.3050 N   0  0  0  0  0  0  0  0  0  0  0  0
  -29.0330  -15.8970   20.7680 H   0  0  0  0  0  0  0  0  0  0  0  0
  -25.1880  -13.9840   20.4960 C   0  0  0  0  0  0  0  0  0  0  0  0
  -24.1830  -13.1620   20.9300 C   0  0  0  0  0  0  0  0  0  0  0  0
  -24.6670  -11.8290   20.7670 C   0  0  0  0  0  0  0  0  0  0  0  0
  -26.2210  -13.1490   20.1020 N   0  0  0  0  0  0  0  0  0  0  0  0
  -25.9170  -11.8430   20.3230 N   0  0  0  0  0  0  0  0  0  0  0  0
  -23.9930  -10.5360   20.9560 C   0  0  0  0  0  0  0  0  0  0  0  0
  -24.4740   -9.5800   21.8770 C   0  0  0  0  0  3  0  0  0  0  0  0
  -23.7970   -8.3540   22.0540 C   0  0  0  0  0  3  0  0  0  0  0  0
  -22.6250   -8.0760   21.3110 C   0  0  0  0  0  0  0  0  0  0  0  0
  -22.1630   -9.0230   20.3800 C   0  0  0  0  0  3  0  0  0  0  0  0
  -22.8410  -10.2400   20.2010 C   0  0  0  0  0  3  0  0  0  0  0  0
  -21.9180   -6.9020   21.3990 O   0  0  0  0  0  0  0  0  0  0  0  0
  -21.8240   -6.2040   22.5770 C   0  0  0  0  0  0  0  0  0  0  0  0
  -21.2620   -6.7760   23.7400 C   0  0  0  0  0  3  0  0  0  0  0  0
  -21.1210   -6.0000   24.9080 C   0  0  0  0  0  3  0  0  0  0  0  0
  -21.5310   -4.6530   24.9140 C   0  0  0  0  0  0  0  0  0  0  0  0
  -22.0850   -4.0810   23.7550 C   0  0  0  0  0  3  0  0  0  0  0  0
  -22.2270   -4.8530   22.5890 C   0  0  0  0  0  0  0  0  0  0  0  0
  -22.7420   -4.2890   21.4690 F   0  0  0  0  0  0  0  0  0  0  0  0
  -21.3890   -3.9060   26.0330 F   0  0  0  0  0  0  0  0  0  0  0  0
  -22.8130  -13.5830   21.3830 C   0  0  0  0  0  0  0  0  0  0  0  0
  -22.2050  -12.8160   22.2810 N   0  0  0  0  0  0  0  0  0  0  0  0
  -22.2960  -14.6220   20.9770 O   0  0  0  0  0  0  0  0  0  0  0  0
  -22.6390  -11.9720   22.6240 H   0  0  0  0  0  0  0  0  0  0  0  0
  -21.2950  -13.0770   22.6320 H   0  0  0  0  0  0  0  0  0  0  0  0
  -25.3020  -15.3680   20.3830 N   0  0  0  0  0  0  0  0  0  0  0  0
  -24.5400  -15.9970   20.6120 H   0  0  0  0  0  0  0  0  0  0  0  0
  -26.1080  -15.8440   19.9960 H   0  0  0  0  0  0  0  0  0  0  0  0
  2  1  1  0
  3  6  2  0
  3  5  1  0
  4 55  1  0
  4  1  2  0
  5  2  2  0
  6  4  1  0
  7 11  1  0
  9  7  1  0
  9 12  1  0
 10  8  1  0
 11  5  1  0
 11  8  1  0
 12 13  1  0
 12 10  1  0
 13 14  1  0
 14 16  1  0
 15 26  2  0
 16 21  1  0
 17 25  1  0
 17 27  1  0
 18 24  1  0
 18 20  1  0
 19 25  1  0
 20 19  1  0
 21 20  2  0
 22 23  1  0
 22 16  2  0
 23 18  2  0
 24 17  1  0
 25 15  1  0
 27 29  2  0
 28 27  1  0
 30 28  1  0
 31 40  2  0
 31 36  1  0
 32 28  1  0
 32 36  1  0
 33 32  1  0
 34 35  1  0
 34 33  1  0
 35 31  1  0
 36 37  2  0
 37 38  1  0
 39 38  2  0
 40 39  1  0
 41 15  1  0
 41 46  1  0
 41 42  1  0
 42 45  1  1
 42 43  1  0
 44 42  1  0
 46 49  1  0
 47 51  1  0
 47 46  1  0
 48 47  2  0
 51 50  1  0
 53 51  1  0
 53 54  1  0
 53 52  1  0
 55 56  1  0
 56 59  1  0
 56 58  1  0
 57 55  2  0
 60 69  1  0
 60  6  1  0
 61 67  1  0
 61 69  1  0
 62 67  1  0
 63 64  1  0
 63 62  1  0
 65 64  1  0
 65 74  1  0
 65 66  1  0
 67 66  1  0
 68 61  2  0
 69 70  1  0
 71 72  2  0
 72 91  1  0
 73 72  1  0
 73 76  1  0
 74 75  1  0
 74 71  1  0
 75 73  2  0
 76 77  1  0
 77 78  2  0
 79 82  1  0
 79 78  1  0
 80 79  2  0
 81 80  1  0
 81 76  2  0
 82 83  1  0
 83 88  2  0
 83 84  1  0
 84 85  2  0
 85 86  1  0
 86 90  1  0
 87 86  2  0
 88 87  1  0
 89 88  1  0
 91 92  1  0
 92 94  1  0
 92 95  1  0
 93 91  2  0
 96 71  1  0
 96 97  1  0
 98 96  1  0
M  ISO  4  13 101  14 101  61 100  69 100
M  END
>  <TORSDO>  (94) 
F 20

>  <SCORE>  (94) 
-10.127

>  <name>  (94) 
94

>  <ligand_id>  (94) 
94

>  <original_smiles>  (94) 
[H]c1c([H])c([H])c2c(c1[H])C([H])([H])C([H])([H])C([H])([H])C2([H])N([H])C(=O)C1([H])N(C(=O)C([H])(N([H])C(=O)C([H])(N([H])C([H])([H])[H])C([H])([H])[H])C(C([H])([H])[H])(C([H])([H])[H])C([H])([H])[H])C([H])([H])c2c([H])c(OC([H])([H])C3([H])C([H])([H])C([H])([H])C([H])(c4c([H])c([H])c(C(=O)N([H])[H])c(C([H])([H])N([H])C(=O)N5C([H])([H])C([H])([H])C([H])([H])C([H])(n6nc(-c7c([H])c([H])c(Oc8c([H])c([H])c(F)c([H])c8F)c([H])c7[H])c(C(=O)N([H])[H])c6N([H])[H])C5([H])[H])c4[H])C([H])([H])C3([H])[H])c([H])c([H])c2C1([H])[H]

>  <smiles>  (94) 
[H]c1c([H])c([H])c2c(c1[H])C([H])([H])C([H])([H])C([H])([H])C2([H])N([H])C(=O)C1([H])N(C(=O)C([H])(N([H])C(=O)C([H])(N([H])C([H])([H])[H])C([H])([H])[H])C(C([H])([H])[H])(C([H])([H])[H])C([H])([H])[H])C([H])([H])c2c([H])c(OC([H])([H])C3([H])C([H])([H])C([H])([H])C([H])(c4c([H])c([H])c(C(=O)N([H])[H])c(C([H])([H])N([H])C(=O)N5C([H])([H])C([H])([H])C([H])([H])C([H])(n6nc(-c7c([H])c([H])c(Oc8c([H])c([H])c(F)c([H])c8F)c([H])c7[H])c(C(=O)N([H])[H])c6N([H])[H])C5([H])[H])c4[H])C([H])([H])C3([H])[H])c([H])c([H])c2C1([H])[H]

$$$$
95:0:0
     RDKit          3D

 97105  0  0  1  0  0  0  0  0999 V2000
  -27.2440  -19.9430   19.2440 C   0  0  0  0  0  3  0  0  0  0  0  0
  -28.7740  -21.1970   20.6630 C   0  0  0  0  0  3  0  0  0  0  0  0
  -27.8770  -18.7410   19.6270 C   0  0  0  0  0  3  0  0  0  0  0  0
  -29.4200  -20.0020   21.0300 C   0  0  0  0  0  3  0  0  0  0  0  0
  -27.6630  -21.1680   19.7970 C   0  0  0  0  0  0  0  0  0  0  0  0
  -28.9440  -18.7590   20.5520 C   0  0  0  0  0  0  0  0  0  0  0  0
  -26.8940  -22.4450   19.5100 C   0  0  0  0  0  2  0  0  0  0  0  0
  -28.2820  -24.5090   19.6160 C   0  0  0  0  0  0  0  0  0  0  0  0
  -27.7140  -23.5040   18.9380 N   0  0  0  0  0  0  0  0  0  0  0  0
  -28.3320  -24.5480   20.8480 O   0  0  0  0  0  0  0  0  0  0  0  0
  -27.7440  -23.5530   17.9280 H   0  0  0  0  0  0  0  0  0  0  0  0
  -28.8180  -25.6740   18.7690 C   0  0  0  0  0  2  0  0  0  0  0  0
  -28.6390  -26.9300   19.4300 O   0  0  0  0  0  0  0  0  0  0  0  0
  -24.5770  -31.5730   22.9290 C   0  0  0  0  0  0  0  0  0  0  0  0
  -27.3930  -27.5240   19.4840 C   0  0  0  0  0  0  0  0  0  0  0  0
  -23.4070  -30.2160   21.2260 C   0  0  0  0  0  3  0  0  0  0  0  0
  -24.9040  -28.8580   19.6700 C   0  0  0  0  0  0  0  0  0  0  0  0
  -25.9030  -30.7300   20.9950 C   0  0  0  0  0  2  0  0  0  0  0  0
  -26.0420  -29.4110   20.2670 C   0  0  0  0  0  0  0  0  0  0  0  0
  -27.2840  -28.7480   20.1780 C   0  0  0  0  0  3  0  0  0  0  0  0
  -26.2300  -26.9770   18.8860 C   0  0  0  0  0  3  0  0  0  0  0  0
  -24.9900  -27.6360   18.9830 C   0  0  0  0  0  3  0  0  0  0  0  0
  -23.6170  -29.6400   19.7990 C   0  0  0  0  0  2  0  0  0  0  0  0
  -24.6480  -30.8500   21.7750 N   0  0  0  0  0  0  0  0  0  0  0  0
  -23.4960  -31.7490   23.5090 O   0  0  0  0  0  0  0  0  0  0  0  0
  -22.8380  -29.0970   22.1270 C   0  0  0  0  0  0  0  0  0  0  0  0
  -21.5150  -28.8840   22.0470 N   0  0  0  0  0  0  0  0  0  0  0  0
  -23.5830  -28.4290   22.8530 O   0  0  0  0  0  0  0  0  0  0  0  0
  -20.9740  -29.4900   21.4470 H   0  0  0  0  0  0  0  0  0  0  0  0
  -18.2100  -27.5360   22.6100 C   0  0  0  0  0  0  0  0  0  0  0  0
  -20.7690  -27.8500   22.7650 C   0  0  0  0  0  3  0  0  0  0  0  0
  -20.8770  -26.4780   22.0540 C   0  0  0  0  0  2  0  0  0  0  0  0
  -19.7260  -26.2000   21.0840 C   0  0  0  0  0  2  0  0  0  0  0  0
  -18.3780  -26.2550   21.8120 C   0  0  0  0  0  2  0  0  0  0  0  0
  -19.3300  -28.2900   23.0460 C   0  0  0  0  0  0  0  0  0  0  0  0
  -19.1120  -29.4870   23.7610 C   0  0  0  0  0  3  0  0  0  0  0  0
  -17.8050  -29.9350   24.0360 C   0  0  0  0  0  3  0  0  0  0  0  0
  -16.7010  -29.1770   23.6110 C   0  0  0  0  0  3  0  0  0  0  0  0
  -16.9040  -27.9780   22.9030 C   0  0  0  0  0  3  0  0  0  0  0  0
  -25.8430  -32.2310   23.5610 C   0  0  0  0  0  3  0  0  0  0  0  0
  -25.4690  -33.5860   23.9860 N   0  0  0  0  0  0  0  0  0  0  0  0
  -25.7370  -34.7020   23.2950 C   0  0  0  0  0  0  0  0  0  0  0  0
  -26.3990  -34.7010   22.2520 O   0  0  0  0  0  0  0  0  0  0  0  0
  -24.8810  -33.6590   24.8030 H   0  0  0  0  0  0  0  0  0  0  0  0
  -23.9170  -36.4220   23.0720 C   0  0  0  0  0  1  0  0  0  0  0  0
  -25.1850  -36.0300   23.8480 C   0  0  0  0  0  3  0  0  0  0  0  0
  -27.2800  -36.9650   24.7200 C   0  0  0  0  0  1  0  0  0  0  0  0
  -26.1600  -37.1390   23.7980 N   0  0  0  0  0  0  0  0  0  0  0  0
  -25.7110  -38.0260   24.0100 H   0  0  0  0  0  0  0  0  0  0  0  0
  -26.4350  -31.4090   24.7710 C   0  0  1  0  0  0  0  0  0  0  0  0
  -25.3860  -31.0510   25.8500 C   0  0  0  0  0  1  0  0  0  0  0  0
  -27.0720  -30.0910   24.2740 C   0  0  0  0  0  1  0  0  0  0  0  0
  -27.5650  -32.2180   25.4520 C   0  0  0  0  0  1  0  0  0  0  0  0
  -29.5030  -17.4320   21.0650 C   0  0  0  0  0  3  0  0  0  0  0  0
  -30.0860  -17.5650   22.4120 N   0  0  0  0  0  4  0  0  0  0  0  0
  -29.3950  -17.9330   23.0420 H   0  0  0  0  0  0  0  0  0  0  0  0
  -30.8680  -18.1950   22.3950 H   0  0  0  0  0  0  0  0  0  0  0  0
  -30.4030  -16.6840   22.7690 H   0  0  0  0  0  0  0  0  0  0  0  0
  -30.4630  -16.7310   20.0810 C   0  0  0  0  0  2  0  0  0  0  0  0
  -31.2120  -14.3860   19.7390 C   0  0  0  0  0  0  0  0  0  0  0  0
  -30.8200  -12.1800   18.7130 C   0  0  0  0  0  2  0  0  0  0  0  0
  -29.7730  -12.3340   17.5880 C   0  0  0  0  0  2  0  0  0  0  0  0
  -28.3380  -12.2400   18.1450 C   0  0  0  0  0  2  0  0  0  0  0  0
  -28.1210  -13.1480   19.3830 C   0  0  0  0  0  3  0  0  0  0  0  0
  -29.2600  -12.9400   20.4090 C   0  0  0  0  0  2  0  0  0  0  0  0
  -30.5480  -13.2010   19.7320 N   0  0  0  0  0  0  0  0  0  0  0  0
  -32.2110  -14.6320   19.0560 O   0  0  0  0  0  0  0  0  0  0  0  0
  -30.5880  -15.3220   20.4560 N   0  0  0  0  0  0  0  0  0  0  0  0
  -29.8390  -14.9320   21.0060 H   0  0  0  0  0  0  0  0  0  0  0  0
  -25.8490  -13.8590   20.3740 C   0  0  0  0  0  0  0  0  0  0  0  0
  -24.7810  -13.1310   20.8210 C   0  0  0  0  0  0  0  0  0  0  0  0
  -25.1440  -11.7590   20.6630 C   0  0  0  0  0  0  0  0  0  0  0  0
  -26.8060  -12.9330   19.9840 N   0  0  0  0  0  0  0  0  0  0  0  0
  -26.3870  -11.6610   20.2100 N   0  0  0  0  0  0  0  0  0  0  0  0
  -24.3610  -10.5330   20.8600 C   0  0  0  0  0  0  0  0  0  0  0  0
  -24.7590   -9.5470   21.7890 C   0  0  0  0  0  3  0  0  0  0  0  0
  -23.9810   -8.3830   21.9730 C   0  0  0  0  0  3  0  0  0  0  0  0
  -22.7910   -8.2010   21.2290 C   0  0  0  0  0  0  0  0  0  0  0  0
  -22.4130   -9.1760   20.2890 C   0  0  0  0  0  3  0  0  0  0  0  0
  -23.1910  -10.3300   20.1020 C   0  0  0  0  0  3  0  0  0  0  0  0
  -21.9860   -7.0930   21.3240 O   0  0  0  0  0  0  0  0  0  0  0  0
  -21.8190   -6.4220   22.5090 C   0  0  0  0  0  0  0  0  0  0  0  0
  -21.3290   -7.0650   23.6660 C   0  0  0  0  0  3  0  0  0  0  0  0
  -21.1070   -6.3220   24.8430 C   0  0  0  0  0  3  0  0  0  0  0  0
  -21.3660   -4.9390   24.8640 C   0  0  0  0  0  0  0  0  0  0  0  0
  -21.8510   -4.2960   23.7110 C   0  0  0  0  0  3  0  0  0  0  0  0
  -22.0740   -5.0360   22.5370 C   0  0  0  0  0  0  0  0  0  0  0  0
  -22.5190   -4.4070   21.4220 F   0  0  0  0  0  0  0  0  0  0  0  0
  -21.1460   -4.2250   25.9930 F   0  0  0  0  0  0  0  0  0  0  0  0
  -23.4550  -13.6730   21.2760 C   0  0  0  0  0  0  0  0  0  0  0  0
  -22.7970  -12.9840   22.2030 N   0  0  0  0  0  0  0  0  0  0  0  0
  -23.0180  -14.7370   20.8430 O   0  0  0  0  0  0  0  0  0  0  0  0
  -23.1660  -12.1210   22.5750 H   0  0  0  0  0  0  0  0  0  0  0  0
  -21.9120  -13.3270   22.5460 H   0  0  0  0  0  0  0  0  0  0  0  0
  -26.0790  -15.2270   20.2450 N   0  0  0  0  0  0  0  0  0  0  0  0
  -25.3060  -15.8730   20.3670 H   0  0  0  0  0  0  0  0  0  0  0  0
  -26.7880  -15.5870   19.6210 H   0  0  0  0  0  0  0  0  0  0  0  0
  1  3  2  0
  1  5  1  0
  2  4  1  0
  3  6  1  0
  5  2  2  0
  6  4  2  0
  6 54  1  0
  7  5  1  0
  8 10  2  0
  9  7  1  0
  9  8  1  0
 11  9  1  0
 12 13  1  0
 12  8  1  0
 13 15  1  0
 14 25  2  0
 15 20  1  0
 16 24  1  0
 16 26  1  0
 17 23  1  0
 17 19  1  0
 18 24  1  0
 19 18  1  0
 20 19  2  0
 21 22  1  0
 21 15  2  0
 22 17  2  0
 23 16  1  0
 24 14  1  0
 26 28  2  0
 27 26  1  0
 29 27  1  0
 30 39  2  0
 30 35  1  0
 31 27  1  0
 31 35  1  0
 32 31  1  0
 33 34  1  0
 33 32  1  0
 34 30  1  0
 35 36  2  0
 36 37  1  0
 38 37  2  0
 39 38  1  0
 40 14  1  0
 40 41  1  0
 40 50  1  0
 41 44  1  0
 42 46  1  0
 42 41  1  0
 43 42  2  0
 46 45  1  0
 48 46  1  0
 48 49  1  0
 48 47  1  0
 50 53  1  1
 50 51  1  0
 52 50  1  0
 54 59  1  0
 54 55  1  0
 55 58  1  0
 55 56  1  0
 57 55  1  0
 59 68  1  0
 60 68  1  0
 61 66  1  0
 62 63  1  0
 62 61  1  0
 64 63  1  0
 64 73  1  0
 64 65  1  0
 66 60  1  0
 66 65  1  0
 67 60  2  0
 68 69  1  0
 70 71  2  0
 71 90  1  0
 72 71  1  0
 72 75  1  0
 73 74  1  0
 73 70  1  0
 74 72  2  0
 75 76  1  0
 76 77  2  0
 78 81  1  0
 78 77  1  0
 79 78  2  0
 80 79  1  0
 80 75  2  0
 81 82  1  0
 82 87  2  0
 82 83  1  0
 83 84  2  0
 84 85  1  0
 85 89  1  0
 86 85  2  0
 87 86  1  0
 88 87  1  0
 90 91  1  0
 91 94  1  0
 91 93  1  0
 92 90  2  0
 95 96  1  0
 95 70  1  0
 97 95  1  0
M  ISO  4  12 101  13 101  60 100  68 100
M  END
>  <TORSDO>  (95) 
F 22

>  <SCORE>  (95) 
-11.890

>  <name>  (95) 
95

>  <ligand_id>  (95) 
95

>  <original_smiles>  (95) 
[H]c1c([H])c([H])c2c(c1[H])C([H])([H])C([H])([H])C([H])([H])C2([H])N([H])C(=O)C1([H])N(C(=O)C([H])(N([H])C(=O)C([H])(N([H])C([H])([H])[H])C([H])([H])[H])C(C([H])([H])[H])(C([H])([H])[H])C([H])([H])[H])C([H])([H])c2c([H])c(OC([H])([H])C(=O)N([H])C([H])([H])c3c([H])c([H])c(C([H])(C([H])([H])N([H])C(=O)N4C([H])([H])C([H])([H])C([H])([H])C([H])(n5nc(-c6c([H])c([H])c(Oc7c([H])c([H])c(F)c([H])c7F)c([H])c6[H])c(C(=O)N([H])[H])c5N([H])[H])C4([H])[H])[N+]([H])([H])[H])c([H])c3[H])c([H])c([H])c2C1([H])[H]

>  <smiles>  (95) 
[H]c1c([H])c([H])c2c(c1[H])C([H])([H])C([H])([H])C([H])([H])C2([H])N([H])C(=O)C1([H])N(C(=O)C([H])(N([H])C(=O)C([H])(N([H])C([H])([H])[H])C([H])([H])[H])C(C([H])([H])[H])(C([H])([H])[H])C([H])([H])[H])C([H])([H])c2c([H])c(OC([H])([H])C(=O)N([H])C([H])([H])c3c([H])c([H])c(C([H])(C([H])([H])N([H])C(=O)N4C([H])([H])C([H])([H])C([H])([H])C([H])(n5nc(-c6c([H])c([H])c(Oc7c([H])c([H])c(F)c([H])c7F)c([H])c6[H])c(C(=O)N([H])[H])c5N([H])[H])C4([H])[H])[N+]([H])([H])[H])c([H])c3[H])c([H])c([H])c2C1([H])[H]

$$$$
96:0:0
     RDKit          3D

100108  0  0  1  0  0  0  0  0999 V2000
  -25.4760  -23.0940   20.5960 C   0  0  0  0  0  2  0  0  0  0  0  0
  -26.9380  -23.3190   21.0300 C   0  0  0  0  0  2  0  0  0  0  0  0
  -28.0500  -22.6820   20.1640 C   0  0  0  0  0  2  0  0  0  0  0  0
  -28.8580  -23.6510   19.2770 C   0  0  0  0  0  2  0  0  0  0  0  0
  -28.0890  -24.1220   18.1050 N   0  0  0  0  0  4  0  0  0  0  0  0
  -28.2170  -23.4700   17.3490 H   0  0  0  0  0  0  0  0  0  0  0  0
  -27.1110  -24.1060   18.3420 H   0  0  0  0  0  0  0  0  0  0  0  0
  -28.4070  -25.4850   17.6220 C   0  0  0  0  0  2  0  0  0  0  0  0
  -29.0550  -27.5280   12.5030 C   0  0  0  0  0  0  0  0  0  0  0  0
  -27.8770  -28.7450   10.7110 C   0  0  0  0  0  2  0  0  0  0  0  0
  -26.5430  -29.2710   11.2870 C   0  0  0  0  0  2  0  0  0  0  0  0
  -25.4290  -28.1990   11.2380 C   0  0  0  0  0  2  0  0  0  0  0  0
  -25.8990  -26.8170   11.7620 C   0  0  0  0  0  3  0  0  0  0  0  0
  -27.2400  -26.4580   11.0750 C   0  0  0  0  0  2  0  0  0  0  0  0
  -28.2020  -27.5060   11.4370 N   0  0  0  0  0  0  0  0  0  0  0  0
  -29.9090  -28.4150   12.6230 O   0  0  0  0  0  0  0  0  0  0  0  0
  -28.2780  -24.8720   15.1550 C   0  0  0  0  0  2  0  0  0  0  0  0
  -29.5970  -26.9170   15.8810 C   0  0  0  0  0  2  0  0  0  0  0  0
  -28.5850  -25.3840   13.7340 C   0  0  0  0  0  2  0  0  0  0  0  0
  -28.6120  -27.5720   14.9030 C   0  0  0  0  0  2  0  0  0  0  0  0
  -29.1520  -25.4880   16.2670 C   0  0  0  0  0  3  0  0  0  0  0  0
  -28.6180  -26.8620   13.6110 N   0  0  0  0  0  0  0  0  0  0  0  0
  -24.2590  -24.9630   12.4910 C   0  0  0  0  0  0  0  0  0  0  0  0
  -23.3360  -24.2380   11.7900 C   0  0  0  0  0  0  0  0  0  0  0  0
  -23.4330  -24.6820   10.4340 C   0  0  0  0  0  0  0  0  0  0  0  0
  -24.8800  -25.7890   11.5610 N   0  0  0  0  0  0  0  0  0  0  0  0
  -24.4000  -25.5780   10.3100 N   0  0  0  0  0  0  0  0  0  0  0  0
  -22.6220  -24.3470    9.2600 C   0  0  0  0  0  0  0  0  0  0  0  0
  -23.2120  -23.8830    8.0640 C   0  0  0  0  0  3  0  0  0  0  0  0
  -22.4120  -23.5510    6.9520 C   0  0  0  0  0  3  0  0  0  0  0  0
  -21.0050  -23.6820    7.0280 C   0  0  0  0  0  0  0  0  0  0  0  0
  -20.4230  -24.1660    8.2130 C   0  0  0  0  0  3  0  0  0  0  0  0
  -21.2220  -24.5010    9.3180 C   0  0  0  0  0  3  0  0  0  0  0  0
  -20.1500  -23.4090    5.9880 O   0  0  0  0  0  0  0  0  0  0  0  0
  -20.4590  -22.4840    5.0240 C   0  0  0  0  0  0  0  0  0  0  0  0
  -20.7660  -21.1430    5.3490 C   0  0  0  0  0  3  0  0  0  0  0  0
  -21.0080  -20.2100    4.3220 C   0  0  0  0  0  3  0  0  0  0  0  0
  -20.9410  -20.6090    2.9730 C   0  0  0  0  0  0  0  0  0  0  0  0
  -20.6350  -21.9420    2.6480 C   0  0  0  0  0  3  0  0  0  0  0  0
  -20.3920  -22.8760    3.6710 C   0  0  0  0  0  0  0  0  0  0  0  0
  -20.0730  -24.1540    3.3520 F   0  0  0  0  0  0  0  0  0  0  0  0
  -21.1680  -19.7100    1.9870 F   0  0  0  0  0  0  0  0  0  0  0  0
  -22.3510  -23.2540   12.3560 C   0  0  0  0  0  0  0  0  0  0  0  0
  -21.9820  -22.2420   11.5780 N   0  0  0  0  0  0  0  0  0  0  0  0
  -21.9410  -23.3490   13.5130 O   0  0  0  0  0  0  0  0  0  0  0  0
  -22.3400  -22.1480   10.6400 H   0  0  0  0  0  0  0  0  0  0  0  0
  -21.3330  -21.5520   11.9280 H   0  0  0  0  0  0  0  0  0  0  0  0
  -24.6100  -24.9990   13.8370 N   0  0  0  0  0  0  0  0  0  0  0  0
  -24.1090  -24.4510   14.5300 H   0  0  0  0  0  0  0  0  0  0  0  0
  -25.2730  -25.6470   14.2450 H   0  0  0  0  0  0  0  0  0  0  0  0
  -25.1520  -23.3250   19.1030 C   0  0  0  0  0  2  0  0  0  0  0  0
  -25.2600  -25.6170   18.5630 C   0  0  0  0  0  3  0  0  0  0  0  0
  -24.5320  -24.6130   18.8500 N   0  0  0  0  0  0  0  0  0  0  0  0
  -24.6350  -26.9770   18.3300 C   0  0  0  0  0  3  0  0  0  0  0  0
  -23.9390  -26.9370   17.0280 N   0  0  0  0  0  4  0  0  0  0  0  0
  -24.5830  -26.8650   16.2580 H   0  0  0  0  0  0  0  0  0  0  0  0
  -23.3540  -27.7430   16.8910 H   0  0  0  0  0  0  0  0  0  0  0  0
  -23.3510  -26.1210   17.0110 H   0  0  0  0  0  0  0  0  0  0  0  0
  -25.6140  -28.1750   18.4510 C   0  0  0  0  0  2  0  0  0  0  0  0
  -26.4980  -28.2210   19.5840 O   0  0  0  0  0  0  0  0  0  0  0  0
  -27.7910  -32.6480   24.9820 C   0  0  0  0  0  0  0  0  0  0  0  0
  -26.0390  -28.7070   20.7890 C   0  0  0  0  0  0  0  0  0  0  0  0
  -26.0300  -30.9560   25.3730 C   0  0  0  0  0  3  0  0  0  0  0  0
  -25.2330  -29.6910   23.3130 C   0  0  0  0  0  0  0  0  0  0  0  0
  -26.5140  -31.8170   23.0120 C   0  0  0  0  0  2  0  0  0  0  0  0
  -26.0710  -30.4620   22.4960 C   0  0  0  0  0  0  0  0  0  0  0  0
  -26.4820  -29.9740   21.2370 C   0  0  0  0  0  3  0  0  0  0  0  0
  -25.2080  -27.9410   21.6350 C   0  0  0  0  0  3  0  0  0  0  0  0
  -24.7960  -28.4290   22.8860 C   0  0  0  0  0  3  0  0  0  0  0  0
  -24.8370  -30.2820   24.6470 C   0  0  0  0  0  2  0  0  0  0  0  0
  -26.8360  -31.8270   24.4580 N   0  0  0  0  0  0  0  0  0  0  0  0
  -27.9710  -32.7150   26.2060 O   0  0  0  0  0  0  0  0  0  0  0  0
  -26.8680  -29.8670   26.0760 C   0  0  0  0  0  0  0  0  0  0  0  0
  -26.4860  -29.5250   27.3160 N   0  0  0  0  0  0  0  0  0  0  0  0
  -27.8240  -29.3350   25.5050 O   0  0  0  0  0  0  0  0  0  0  0  0
  -25.7110  -30.0240   27.7260 H   0  0  0  0  0  0  0  0  0  0  0  0
  -26.3980  -28.0000   30.5950 C   0  0  0  0  0  0  0  0  0  0  0  0
  -27.0980  -28.4950   28.1550 C   0  0  0  0  0  3  0  0  0  0  0  0
  -26.5330  -27.0940   27.8150 C   0  0  0  0  0  2  0  0  0  0  0  0
  -25.3540  -26.6880   28.7030 C   0  0  0  0  0  2  0  0  0  0  0  0
  -25.7710  -26.6810   30.1760 C   0  0  0  0  0  2  0  0  0  0  0  0
  -27.0080  -28.8580   29.6440 C   0  0  0  0  0  0  0  0  0  0  0  0
  -27.5510  -30.0890   30.0760 C   0  0  0  0  0  3  0  0  0  0  0  0
  -27.4960  -30.4620   31.4310 C   0  0  0  0  0  3  0  0  0  0  0  0
  -26.9040  -29.6020   32.3730 C   0  0  0  0  0  3  0  0  0  0  0  0
  -26.3570  -28.3760   31.9550 C   0  0  0  0  0  3  0  0  0  0  0  0
  -28.6750  -33.5560   24.0730 C   0  0  0  0  0  3  0  0  0  0  0  0
  -30.1430  -33.0060   23.8840 C   0  0  1  0  0  0  0  0  0  0  0  0
  -30.8750  -32.7180   25.2150 C   0  0  0  0  0  1  0  0  0  0  0  0
  -30.1320  -31.6960   23.0620 C   0  0  0  0  0  1  0  0  0  0  0  0
  -30.9860  -34.0240   23.0820 C   0  0  0  0  0  1  0  0  0  0  0  0
  -28.6920  -34.8960   24.6740 N   0  0  0  0  0  0  0  0  0  0  0  0
  -27.9420  -35.9260   24.2550 C   0  0  0  0  0  0  0  0  0  0  0  0
  -27.2060  -35.8590   23.2680 O   0  0  0  0  0  0  0  0  0  0  0  0
  -29.2280  -35.0050   25.5220 H   0  0  0  0  0  0  0  0  0  0  0  0
  -26.8070  -37.3340   26.0020 C   0  0  0  0  0  1  0  0  0  0  0  0
  -28.0200  -37.2350   25.0620 C   0  0  0  0  0  3  0  0  0  0  0  0
  -29.3510  -38.5570   23.4770 C   0  0  0  0  0  1  0  0  0  0  0  0
  -28.0940  -38.4450   24.2130 N   0  0  0  0  0  0  0  0  0  0  0  0
  -27.9740  -39.2850   24.7720 H   0  0  0  0  0  0  0  0  0  0  0  0
  1  2  1  0
  3  2  1  0
  4  3  1  0
  5  7  1  0
  5  4  1  0
  6  5  1  0
  8  5  1  0
  9 16  2  0
  9 22  1  0
 10 11  1  0
 10 15  1  0
 12 11  1  0
 12 13  1  0
 13 14  1  0
 14 15  1  0
 15  9  1  0
 17 21  1  0
 18 21  1  0
 19 17  1  0
 20 18  1  0
 21  8  1  0
 22 19  1  0
 22 20  1  0
 23 48  1  0
 24 43  1  0
 24 23  2  0
 25 24  1  0
 26 13  1  0
 26 23  1  0
 27 25  2  0
 27 26  1  0
 28 33  1  0
 28 25  1  0
 29 28  2  0
 30 31  2  0
 30 29  1  0
 31 32  1  0
 32 33  2  0
 34 31  1  0
 35 36  1  0
 35 34  1  0
 37 36  2  0
 38 37  1  0
 39 38  2  0
 39 40  1  0
 40 35  2  0
 41 40  1  0
 42 38  1  0
 43 45  2  0
 44 47  1  0
 44 43  1  0
 46 44  1  0
 48 50  1  0
 48 49  1  0
 51  1  1  0
 52 53  2  0
 53 51  1  0
 54 59  1  0
 54 52  1  0
 55 54  1  0
 56 55  1  0
 57 55  1  0
 58 55  1  0
 59 60  1  0
 60 62  1  0
 61 72  2  0
 62 67  2  0
 62 68  1  0
 63 73  1  0
 64 70  1  0
 65 71  1  0
 66 65  1  0
 66 64  2  0
 67 66  1  0
 68 69  2  0
 69 64  1  0
 70 63  1  0
 71 61  1  0
 71 63  1  0
 73 74  1  0
 74 76  1  0
 75 73  2  0
 77 86  1  0
 78 74  1  0
 78 82  1  0
 79 78  1  0
 79 80  1  0
 80 81  1  0
 81 77  1  0
 82 83  1  0
 82 77  2  0
 83 84  2  0
 84 85  1  0
 86 85  2  0
 87 92  1  0
 87 61  1  0
 88 87  1  0
 88 89  1  1
 90 88  1  0
 91 88  1  0
 92 95  1  0
 93 92  1  0
 93 97  1  0
 94 93  2  0
 97 96  1  0
 98 99  1  0
 99100  1  0
 99 97  1  0
M  ISO  4   9 100  22 100  59 101  60 101
M  END
>  <TORSDO>  (96) 
F 26

>  <SCORE>  (96) 
-5.017

>  <name>  (96) 
96

>  <ligand_id>  (96) 
96

>  <original_smiles>  (96) 
[H]C(=NC([H])([H])C([H])([H])C([H])([H])C([H])([H])C([H])([H])[N+]([H])([H])C([H])([H])C1([H])C([H])([H])C([H])([H])N(C(=O)N2C([H])([H])C([H])([H])C([H])([H])C([H])(n3nc(-c4c([H])c([H])c(Oc5c([H])c([H])c(F)c([H])c5F)c([H])c4[H])c(C(=O)N([H])[H])c3N([H])[H])C2([H])[H])C([H])([H])C1([H])[H])C([H])(C([H])([H])Oc1c([H])c([H])c2c(c1[H])C([H])([H])N(C(=O)C([H])(N([H])C(=O)C([H])(N([H])C([H])([H])[H])C([H])([H])[H])C(C([H])([H])[H])(C([H])([H])[H])C([H])([H])[H])C([H])(C(=O)N([H])C1([H])c3c([H])c([H])c([H])c([H])c3C([H])([H])C([H])([H])C1([H])[H])C2([H])[H])[N+]([H])([H])[H]

>  <smiles>  (96) 
[H]C(=NC([H])([H])C([H])([H])C([H])([H])C([H])([H])C([H])([H])[N+]([H])([H])C([H])([H])C1([H])C([H])([H])C([H])([H])N(C(=O)N2C([H])([H])C([H])([H])C([H])([H])C([H])(n3nc(-c4c([H])c([H])c(Oc5c([H])c([H])c(F)c([H])c5F)c([H])c4[H])c(C(=O)N([H])[H])c3N([H])[H])C2([H])[H])C([H])([H])C1([H])[H])C([H])(C([H])([H])Oc1c([H])c([H])c2c(c1[H])C([H])([H])N(C(=O)C([H])(N([H])C(=O)C([H])(N([H])C([H])([H])[H])C([H])([H])[H])C(C([H])([H])[H])(C([H])([H])[H])C([H])([H])[H])C([H])(C(=O)N([H])C1([H])c3c([H])c([H])c([H])c([H])c3C([H])([H])C([H])([H])C1([H])[H])C2([H])[H])[N+]([H])([H])[H]

$$$$
97:0:0
     RDKit          3D

 96105  0  0  1  0  0  0  0  0999 V2000
  -28.9270  -25.3790   23.0510 C   0  0  0  0  0  2  0  0  0  0  0  0
  -29.8140  -23.0150   23.0220 C   0  0  0  0  0  2  0  0  0  0  0  0
  -29.6440  -24.2660   20.8920 C   0  0  0  0  0  2  0  0  0  0  0  0
  -28.8190  -23.9880   23.6890 C   0  0  0  0  0  3  0  0  0  0  0  0
  -28.6840  -25.2950   21.5370 C   0  0  0  0  0  3  0  0  0  0  0  0
  -29.0320  -24.0630   25.2080 C   0  0  0  0  0  1  0  0  0  0  0  0
  -29.6290  -22.9230   21.5450 N   0  0  1  0  0  4  0  0  0  0  0  0
  -28.7130  -22.5310   21.3840 H   0  0  0  0  0  0  0  0  0  0  0  0
  -30.6180  -22.0240   20.8770 C   0  0  0  0  0  2  0  0  0  0  0  0
  -29.7180  -18.2120   21.5140 C   0  0  0  0  0  2  0  0  0  0  0  0
  -32.2250  -18.5250   21.5420 C   0  0  0  0  0  2  0  0  0  0  0  0
  -29.5570  -19.6510   20.9720 C   0  0  0  0  0  2  0  0  0  0  0  0
  -32.0520  -19.9380   20.9690 C   0  0  0  0  0  2  0  0  0  0  0  0
  -31.0770  -17.5850   21.1320 C   0  0  0  0  0  3  0  0  0  0  0  0
  -30.7190  -20.5690   21.4160 C   0  0  0  0  0  3  0  0  0  0  0  0
  -31.3050  -16.1950   21.7680 C   0  0  0  0  0  2  0  0  0  0  0  0
  -30.8600  -14.3550   20.1520 C   0  0  0  0  0  0  0  0  0  0  0  0
  -30.5210  -12.1790   19.0340 C   0  0  0  0  0  2  0  0  0  0  0  0
  -29.5520  -12.2760   17.8430 C   0  0  0  0  0  2  0  0  0  0  0  0
  -28.0950  -12.1190   18.3150 C   0  0  0  0  0  2  0  0  0  0  0  0
  -27.7580  -13.0490   19.5090 C   0  0  0  0  0  3  0  0  0  0  0  0
  -28.8280  -12.9300   20.6150 C   0  0  0  0  0  2  0  0  0  0  0  0
  -30.1500  -13.2050   20.0190 N   0  0  0  0  0  0  0  0  0  0  0  0
  -31.8360  -14.6350   19.4480 O   0  0  0  0  0  0  0  0  0  0  0  0
  -30.4990  -15.1230   21.1870 N   0  0  0  0  0  0  0  0  0  0  0  0
  -29.6990  -14.8100   21.7180 H   0  0  0  0  0  0  0  0  0  0  0  0
  -25.3820  -13.6690   20.2850 C   0  0  0  0  0  0  0  0  0  0  0  0
  -24.3240  -12.9000   20.6930 C   0  0  0  0  0  0  0  0  0  0  0  0
  -24.7820  -11.5480   20.6570 C   0  0  0  0  0  0  0  0  0  0  0  0
  -26.4180  -12.7830   20.0290 N   0  0  0  0  0  0  0  0  0  0  0  0
  -26.0610  -11.5030   20.3070 N   0  0  0  0  0  0  0  0  0  0  0  0
  -24.0600  -10.2880   20.8790 C   0  0  0  0  0  0  0  0  0  0  0  0
  -24.4650   -9.3710   21.8730 C   0  0  0  0  0  3  0  0  0  0  0  0
  -23.7450   -8.1750   22.0790 C   0  0  0  0  0  3  0  0  0  0  0  0
  -22.6060   -7.8880   21.2910 C   0  0  0  0  0  0  0  0  0  0  0  0
  -22.2200   -8.7940   20.2870 C   0  0  0  0  0  3  0  0  0  0  0  0
  -22.9400   -9.9820   20.0800 C   0  0  0  0  0  3  0  0  0  0  0  0
  -21.8600   -6.7390   21.4030 O   0  0  0  0  0  0  0  0  0  0  0  0
  -21.7170   -6.0870   22.6020 C   0  0  0  0  0  0  0  0  0  0  0  0
  -21.1660   -6.7250   23.7350 C   0  0  0  0  0  3  0  0  0  0  0  0
  -20.9730   -5.9980   24.9270 C   0  0  0  0  0  3  0  0  0  0  0  0
  -21.3200   -4.6340   24.9850 C   0  0  0  0  0  0  0  0  0  0  0  0
  -21.8640   -3.9970   23.8560 C   0  0  0  0  0  3  0  0  0  0  0  0
  -22.0590   -4.7210   22.6660 C   0  0  0  0  0  0  0  0  0  0  0  0
  -22.5630   -4.0980   21.5750 F   0  0  0  0  0  0  0  0  0  0  0  0
  -21.1280   -3.9340   26.1270 F   0  0  0  0  0  0  0  0  0  0  0  0
  -22.9370  -13.3820   21.0070 C   0  0  0  0  0  0  0  0  0  0  0  0
  -22.2490  -12.7130   21.9250 N   0  0  0  0  0  0  0  0  0  0  0  0
  -22.4710  -14.3880   20.4720 O   0  0  0  0  0  0  0  0  0  0  0  0
  -22.6380  -11.8990   22.3790 H   0  0  0  0  0  0  0  0  0  0  0  0
  -21.3200  -13.0180   22.1790 H   0  0  0  0  0  0  0  0  0  0  0  0
  -25.5440  -15.0380   20.0940 N   0  0  0  0  0  0  0  0  0  0  0  0
  -24.7860  -15.6980   20.2220 H   0  0  0  0  0  0  0  0  0  0  0  0
  -26.3950  -15.4700   19.7530 H   0  0  0  0  0  0  0  0  0  0  0  0
  -28.8190  -26.6870   20.8740 C   0  0  0  0  0  2  0  0  0  0  0  0
  -27.9550  -26.7760   19.7420 O   0  0  0  0  0  0  0  0  0  0  0  0
  -24.5690  -31.9400   23.3120 C   0  0  0  0  0  0  0  0  0  0  0  0
  -26.8380  -27.5640   19.8960 C   0  0  0  0  0  0  0  0  0  0  0  0
  -23.2020  -30.6610   21.6920 C   0  0  0  0  0  3  0  0  0  0  0  0
  -24.4990  -29.1280   20.1190 C   0  0  0  0  0  0  0  0  0  0  0  0
  -25.7170  -30.9390   21.3440 C   0  0  0  0  0  2  0  0  0  0  0  0
  -25.7060  -29.5940   20.6540 C   0  0  0  0  0  0  0  0  0  0  0  0
  -26.8790  -28.8200   20.5430 C   0  0  0  0  0  3  0  0  0  0  0  0
  -25.6210  -27.1110   19.3490 C   0  0  0  0  0  3  0  0  0  0  0  0
  -24.4480  -27.8840   19.4650 C   0  0  0  0  0  3  0  0  0  0  0  0
  -23.2940  -30.0280   20.2760 C   0  0  0  0  0  2  0  0  0  0  0  0
  -24.5180  -31.1920   22.1750 N   0  0  0  0  0  0  0  0  0  0  0  0
  -23.5380  -32.2310   23.9340 O   0  0  0  0  0  0  0  0  0  0  0  0
  -22.5700  -29.6270   22.6500 C   0  0  0  0  0  0  0  0  0  0  0  0
  -21.2510  -29.4180   22.5160 N   0  0  0  0  0  0  0  0  0  0  0  0
  -23.2630  -29.0160   23.4670 O   0  0  0  0  0  0  0  0  0  0  0  0
  -20.7530  -29.9640   21.8250 H   0  0  0  0  0  0  0  0  0  0  0  0
  -17.9290  -28.0540   22.8900 C   0  0  0  0  0  0  0  0  0  0  0  0
  -20.4490  -28.4650   23.2810 C   0  0  0  0  0  3  0  0  0  0  0  0
  -20.6620  -27.0230   22.7660 C   0  0  0  0  0  2  0  0  0  0  0  0
  -19.6330  -26.6010   21.7110 C   0  0  0  0  0  2  0  0  0  0  0  0
  -18.2140  -26.6920   22.2780 C   0  0  0  0  0  2  0  0  0  0  0  0
  -18.9800  -28.8930   23.3470 C   0  0  0  0  0  0  0  0  0  0  0  0
  -18.6620  -30.1630   23.8740 C   0  0  0  0  0  3  0  0  0  0  0  0
  -17.3250  -30.5980   23.9510 C   0  0  0  0  0  3  0  0  0  0  0  0
  -16.2870  -29.7560   23.5130 C   0  0  0  0  0  3  0  0  0  0  0  0
  -16.5900  -28.4870   22.9890 C   0  0  0  0  0  3  0  0  0  0  0  0
  -25.9210  -32.4870   23.8730 C   0  0  0  0  0  3  0  0  0  0  0  0
  -26.4700  -31.6540   25.0970 C   0  0  1  0  0  0  0  0  0  0  0  0
  -25.4240  -31.4290   26.2140 C   0  0  0  0  0  1  0  0  0  0  0  0
  -26.9690  -30.2660   24.6310 C   0  0  0  0  0  1  0  0  0  0  0  0
  -27.6890  -32.3760   25.7180 C   0  0  0  0  0  1  0  0  0  0  0  0
  -25.7060  -33.8890   24.2520 N   0  0  0  0  0  0  0  0  0  0  0  0
  -26.0930  -34.9410   23.5190 C   0  0  0  0  0  0  0  0  0  0  0  0
  -26.7440  -34.8280   22.4760 O   0  0  0  0  0  0  0  0  0  0  0  0
  -25.1320  -34.0560   25.0660 H   0  0  0  0  0  0  0  0  0  0  0  0
  -24.4900  -36.8560   23.2260 C   0  0  0  0  0  1  0  0  0  0  0  0
  -25.6990  -36.3420   24.0230 C   0  0  0  0  0  3  0  0  0  0  0  0
  -27.8870  -37.0510   24.8840 C   0  0  0  0  0  1  0  0  0  0  0  0
  -26.8020  -37.3260   23.9470 N   0  0  0  0  0  0  0  0  0  0  0  0
  -26.4590  -38.2660   24.1280 H   0  0  0  0  0  0  0  0  0  0  0  0
  1  4  1  0
  2  4  1  0
  3  5  1  0
  3  7  1  0
  4  6  1  0
  5 55  1  0
  5  1  1  0
  7  2  1  0
  7  8  1  1
  9  7  1  0
 12 15  1  0
 12 10  1  0
 13 15  1  0
 13 11  1  0
 14 10  1  0
 14 11  1  0
 14 16  1  0
 15  9  1  0
 17 25  1  0
 18 23  1  0
 19 20  1  0
 19 18  1  0
 21 20  1  0
 21 30  1  0
 21 22  1  0
 23 17  1  0
 23 22  1  0
 24 17  2  0
 25 26  1  0
 25 16  1  0
 27 28  2  0
 28 47  1  0
 29 28  1  0
 29 32  1  0
 30 27  1  0
 30 31  1  0
 31 29  2  0
 32 33  1  0
 33 34  2  0
 35 38  1  0
 35 34  1  0
 36 35  2  0
 37 36  1  0
 37 32  2  0
 38 39  1  0
 39 44  2  0
 39 40  1  0
 40 41  2  0
 41 42  1  0
 42 46  1  0
 43 42  2  0
 44 43  1  0
 45 44  1  0
 47 48  1  0
 48 51  1  0
 48 50  1  0
 49 47  2  0
 52 53  1  0
 52 27  1  0
 54 52  1  0
 56 58  1  0
 56 55  1  0
 57 68  2  0
 58 63  1  0
 59 67  1  0
 59 69  1  0
 60 66  1  0
 60 62  1  0
 61 67  1  0
 62 61  1  0
 63 62  2  0
 64 65  1  0
 64 58  2  0
 65 60  2  0
 66 59  1  0
 67 57  1  0
 69 71  2  0
 70 69  1  0
 72 70  1  0
 73 82  2  0
 73 78  1  0
 74 70  1  0
 74 78  1  0
 75 74  1  0
 76 77  1  0
 76 75  1  0
 77 73  1  0
 78 79  2  0
 79 80  1  0
 81 80  2  0
 82 81  1  0
 83 57  1  0
 83 88  1  0
 83 84  1  0
 84 87  1  1
 84 85  1  0
 86 84  1  0
 88 91  1  0
 89 93  1  0
 89 88  1  0
 90 89  2  0
 93 92  1  0
 95 93  1  0
 95 96  1  0
 95 94  1  0
M  ISO  4  17 100  25 100  55 101  56 101
M  END
>  <TORSDO>  (97) 
F 20

>  <SCORE>  (97) 
-10.885

>  <name>  (97) 
97

>  <ligand_id>  (97) 
97

>  <original_smiles>  (97) 
[H]c1c([H])c([H])c2c(c1[H])C([H])([H])C([H])([H])C([H])([H])C2([H])N([H])C(=O)C1([H])N(C(=O)C([H])(N([H])C(=O)C([H])(N([H])C([H])([H])[H])C([H])([H])[H])C(C([H])([H])[H])(C([H])([H])[H])C([H])([H])[H])C([H])([H])c2c([H])c(OC([H])([H])C3([H])C([H])([H])C([H])(C([H])([H])[H])C([H])([H])[N+]([H])(C([H])([H])C4([H])C([H])([H])C([H])([H])C([H])(C([H])([H])N([H])C(=O)N5C([H])([H])C([H])([H])C([H])([H])C([H])(n6nc(-c7c([H])c([H])c(Oc8c([H])c([H])c(F)c([H])c8F)c([H])c7[H])c(C(=O)N([H])[H])c6N([H])[H])C5([H])[H])C([H])([H])C4([H])[H])C3([H])[H])c([H])c([H])c2C1([H])[H]

>  <smiles>  (97) 
[H]c1c([H])c([H])c2c(c1[H])C([H])([H])C([H])([H])C([H])([H])C2([H])N([H])C(=O)C1([H])N(C(=O)C([H])(N([H])C(=O)C([H])(N([H])C([H])([H])[H])C([H])([H])[H])C(C([H])([H])[H])(C([H])([H])[H])C([H])([H])[H])C([H])([H])c2c([H])c(OC([H])([H])C3([H])C([H])([H])C([H])(C([H])([H])[H])C([H])([H])[N+]([H])(C([H])([H])C4([H])C([H])([H])C([H])([H])C([H])(C([H])([H])N([H])C(=O)N5C([H])([H])C([H])([H])C([H])([H])C([H])(n6nc(-c7c([H])c([H])c(Oc8c([H])c([H])c(F)c([H])c8F)c([H])c7[H])c(C(=O)N([H])[H])c6N([H])[H])C5([H])[H])C([H])([H])C4([H])[H])C3([H])[H])c([H])c([H])c2C1([H])[H]

$$$$
98:0:0
     RDKit          3D

 91 99  0  0  1  0  0  0  0  0999 V2000
  -28.3590  -21.8620   21.0470 C   0  0  0  0  0  2  0  0  0  0  0  0
  -28.1090  -24.2590   21.1520 C   0  0  0  0  0  0  0  0  0  0  0  0
  -26.6090  -24.1130   21.3810 C   0  0  0  0  0  1  0  0  0  0  0  0
  -28.8950  -23.2410   20.9680 N   0  0  0  0  0  0  0  0  0  0  0  0
  -28.6100  -25.7300   21.2660 C   0  0  0  0  0  2  0  0  0  0  0  0
  -28.3680  -26.6130   20.1380 O   0  0  0  0  0  0  0  0  0  0  0  0
  -24.6030  -31.8850   23.2400 C   0  0  0  0  0  0  0  0  0  0  0  0
  -27.2330  -27.3990   20.1850 C   0  0  0  0  0  0  0  0  0  0  0  0
  -23.4000  -30.4830   21.5970 C   0  0  0  0  0  3  0  0  0  0  0  0
  -24.8550  -28.9370   20.1770 C   0  0  0  0  0  0  0  0  0  0  0  0
  -25.9280  -30.8250   21.4090 C   0  0  0  0  0  2  0  0  0  0  0  0
  -26.0120  -29.4470   20.7770 C   0  0  0  0  0  0  0  0  0  0  0  0
  -27.2080  -28.6850   20.7850 C   0  0  0  0  0  3  0  0  0  0  0  0
  -26.0670  -26.9210   19.5570 C   0  0  0  0  0  3  0  0  0  0  0  0
  -24.8770  -27.6740   19.5620 C   0  0  0  0  0  3  0  0  0  0  0  0
  -23.6140  -29.8020   20.2170 C   0  0  0  0  0  2  0  0  0  0  0  0
  -24.6620  -31.0820   22.1400 N   0  0  0  0  0  0  0  0  0  0  0  0
  -23.5210  -32.1610   23.7770 O   0  0  0  0  0  0  0  0  0  0  0  0
  -22.7420  -29.4640   22.5570 C   0  0  0  0  0  0  0  0  0  0  0  0
  -21.4180  -29.2840   22.4280 N   0  0  0  0  0  0  0  0  0  0  0  0
  -23.4230  -28.8390   23.3760 O   0  0  0  0  0  0  0  0  0  0  0  0
  -20.9310  -29.8420   21.7400 H   0  0  0  0  0  0  0  0  0  0  0  0
  -18.0410  -28.0870   22.9130 C   0  0  0  0  0  0  0  0  0  0  0  0
  -20.5970  -28.3460   23.1970 C   0  0  0  0  0  3  0  0  0  0  0  0
  -20.7040  -26.9150   22.6240 C   0  0  0  0  0  2  0  0  0  0  0  0
  -19.6070  -26.5900   21.6050 C   0  0  0  0  0  2  0  0  0  0  0  0
  -18.2230  -26.7360   22.2420 C   0  0  0  0  0  2  0  0  0  0  0  0
  -19.1580  -28.8510   23.3470 C   0  0  0  0  0  0  0  0  0  0  0  0
  -18.9370  -30.1140   23.9340 C   0  0  0  0  0  3  0  0  0  0  0  0
  -17.6310  -30.6170   24.0920 C   0  0  0  0  0  3  0  0  0  0  0  0
  -16.5300  -29.8500   23.6760 C   0  0  0  0  0  3  0  0  0  0  0  0
  -16.7350  -28.5870   23.0930 C   0  0  0  0  0  3  0  0  0  0  0  0
  -25.8890  -32.5130   23.8630 C   0  0  0  0  0  3  0  0  0  0  0  0
  -25.5820  -33.9120   24.1940 N   0  0  0  0  0  0  0  0  0  0  0  0
  -25.9120  -34.9660   23.4330 C   0  0  0  0  0  0  0  0  0  0  0  0
  -26.5790  -34.8620   22.4010 O   0  0  0  0  0  0  0  0  0  0  0  0
  -24.9930  -34.0680   24.9990 H   0  0  0  0  0  0  0  0  0  0  0  0
  -24.1810  -36.7550   23.0860 C   0  0  0  0  0  1  0  0  0  0  0  0
  -25.4260  -36.3530   23.8930 C   0  0  0  0  0  3  0  0  0  0  0  0
  -27.5640  -37.2380   24.7120 C   0  0  0  0  0  1  0  0  0  0  0  0
  -26.4580  -37.4060   23.7750 N   0  0  0  0  0  0  0  0  0  0  0  0
  -26.0530  -38.3260   23.9250 H   0  0  0  0  0  0  0  0  0  0  0  0
  -26.4090  -31.7390   25.1350 C   0  0  1  0  0  0  0  0  0  0  0  0
  -25.3180  -31.5020   26.2040 C   0  0  0  0  0  1  0  0  0  0  0  0
  -26.9900  -30.3610   24.7380 C   0  0  0  0  0  1  0  0  0  0  0  0
  -27.5630  -32.5320   25.7960 C   0  0  0  0  0  1  0  0  0  0  0  0
  -29.3930  -20.7280   20.7090 C   0  0  0  0  0  2  0  0  0  0  0  0
  -28.8010  -19.2730   20.8310 C   0  0  0  0  0  2  0  0  0  0  0  0
  -29.8020  -18.3710   18.5540 C   0  0  0  0  0  2  0  0  0  0  0  0
  -28.6100  -17.5400   18.8670 C   0  0  0  0  0  2  0  0  0  0  0  0
  -29.4540  -18.1040   20.0160 C   0  0  2  0  0  0  0  0  0  0  0  0
  -30.7390  -17.4800   22.2140 C   0  0  0  0  0  1  0  0  0  0  0  0
  -30.3690  -17.0790   20.7750 C   0  0  0  0  0  3  0  0  0  0  0  0
  -30.6380  -14.5730   20.2530 C   0  0  0  0  0  0  0  0  0  0  0  0
  -30.3040  -12.3910   19.1270 C   0  0  0  0  0  2  0  0  0  0  0  0
  -29.3370  -12.5680   17.9390 C   0  0  0  0  0  2  0  0  0  0  0  0
  -27.8720  -12.4360   18.4010 C   0  0  0  0  0  2  0  0  0  0  0  0
  -27.5620  -13.2840   19.6640 C   0  0  0  0  0  3  0  0  0  0  0  0
  -28.6450  -13.0960   20.7510 C   0  0  0  0  0  2  0  0  0  0  0  0
  -29.9510  -13.3990   20.1450 N   0  0  0  0  0  0  0  0  0  0  0  0
  -31.7740  -14.7040   19.7870 O   0  0  0  0  0  0  0  0  0  0  0  0
  -29.9520  -15.6420   20.7380 N   0  0  0  0  0  0  0  0  0  0  0  0
  -29.0090  -15.4480   21.0360 H   0  0  0  0  0  0  0  0  0  0  0  0
  -25.1900  -13.9050   20.4310 C   0  0  0  0  0  0  0  0  0  0  0  0
  -24.1250  -13.1410   20.8230 C   0  0  0  0  0  0  0  0  0  0  0  0
  -24.5740  -11.7860   20.7820 C   0  0  0  0  0  0  0  0  0  0  0  0
  -26.2220  -13.0150   20.1760 N   0  0  0  0  0  0  0  0  0  0  0  0
  -25.8560  -11.7340   20.4430 N   0  0  0  0  0  0  0  0  0  0  0  0
  -23.8400  -10.5300   20.9860 C   0  0  0  0  0  0  0  0  0  0  0  0
  -24.2840   -9.5590   21.9120 C   0  0  0  0  0  3  0  0  0  0  0  0
  -23.5530   -8.3680   22.1070 C   0  0  0  0  0  3  0  0  0  0  0  0
  -22.3630   -8.1390   21.3760 C   0  0  0  0  0  0  0  0  0  0  0  0
  -21.9380   -9.0970   20.4390 C   0  0  0  0  0  3  0  0  0  0  0  0
  -22.6700  -10.2810   20.2430 C   0  0  0  0  0  3  0  0  0  0  0  0
  -21.6010   -7.0000   21.4800 O   0  0  0  0  0  0  0  0  0  0  0  0
  -21.5700   -6.2580   22.6330 C   0  0  0  0  0  0  0  0  0  0  0  0
  -21.1820   -6.8180   23.8700 C   0  0  0  0  0  3  0  0  0  0  0  0
  -21.0980   -6.0020   25.0150 C   0  0  0  0  0  3  0  0  0  0  0  0
  -21.3900   -4.6280   24.9280 C   0  0  0  0  0  0  0  0  0  0  0  0
  -21.7680   -4.0660   23.6950 C   0  0  0  0  0  3  0  0  0  0  0  0
  -21.8550   -4.8800   22.5510 C   0  0  0  0  0  0  0  0  0  0  0  0
  -22.2020   -4.3290   21.3620 F   0  0  0  0  0  0  0  0  0  0  0  0
  -21.2990   -3.8430   26.0270 F   0  0  0  0  0  0  0  0  0  0  0  0
  -22.7390  -13.6300   21.1270 C   0  0  0  0  0  0  0  0  0  0  0  0
  -22.0240  -12.9430   22.0100 N   0  0  0  0  0  0  0  0  0  0  0  0
  -22.3000  -14.6600   20.6170 O   0  0  0  0  0  0  0  0  0  0  0  0
  -22.3920  -12.1120   22.4490 H   0  0  0  0  0  0  0  0  0  0  0  0
  -21.0950  -13.2550   22.2510 H   0  0  0  0  0  0  0  0  0  0  0  0
  -25.3630  -15.2740   20.2520 N   0  0  0  0  0  0  0  0  0  0  0  0
  -24.6040  -15.9370   20.3760 H   0  0  0  0  0  0  0  0  0  0  0  0
  -26.2110  -15.7080   19.9120 H   0  0  0  0  0  0  0  0  0  0  0  0
  2  5  1  0
  2  3  1  0
  4  1  1  0
  4  2  2  0
  6  8  1  0
  6  5  1  0
  7 18  2  0
  8 13  1  0
  9 17  1  0
  9 19  1  0
 10 16  1  0
 10 12  1  0
 11 17  1  0
 12 13  2  0
 12 11  1  0
 14 15  1  0
 14  8  2  0
 15 10  2  0
 16  9  1  0
 17  7  1  0
 19 21  2  0
 20 19  1  0
 22 20  1  0
 23 32  2  0
 23 28  1  0
 24 20  1  0
 24 28  1  0
 25 24  1  0
 26 27  1  0
 26 25  1  0
 27 23  1  0
 28 29  2  0
 29 30  1  0
 31 30  2  0
 32 31  1  0
 33  7  1  0
 33 34  1  0
 33 43  1  0
 34 37  1  0
 35 39  1  0
 35 34  1  0
 36 35  2  0
 39 38  1  0
 41 39  1  0
 41 42  1  0
 41 40  1  0
 43 46  1  1
 43 44  1  0
 45 43  1  0
 47 48  1  0
 47  1  1  0
 49 50  1  0
 49 51  1  0
 50 51  1  0
 51 53  1  0
 51 48  1  1
 53 52  1  0
 54 62  1  0
 55 60  1  0
 56 57  1  0
 56 55  1  0
 58 57  1  0
 58 67  1  0
 58 59  1  0
 60 54  1  0
 60 59  1  0
 61 54  2  0
 62 53  1  0
 62 63  1  0
 64 65  2  0
 65 84  1  0
 66 65  1  0
 66 69  1  0
 67 64  1  0
 67 68  1  0
 68 66  2  0
 69 70  1  0
 70 71  2  0
 72 75  1  0
 72 71  1  0
 73 72  2  0
 74 73  1  0
 74 69  2  0
 75 76  1  0
 76 77  1  0
 77 78  2  0
 79 78  1  0
 79 83  1  0
 80 79  2  0
 81 76  2  0
 81 80  1  0
 82 81  1  0
 84 85  1  0
 85 88  1  0
 85 87  1  0
 86 84  2  0
 89 90  1  0
 89 64  1  0
 91 89  1  0
M  ISO  4   5 101   6 101  54 100  62 100
M  END
>  <TORSDO>  (98) 
F 22

>  <SCORE>  (98) 
-13.280

>  <name>  (98) 
98

>  <ligand_id>  (98) 
98

>  <original_smiles>  (98) 
[H]c1c([H])c([H])c2c(c1[H])C([H])([H])C([H])([H])C([H])([H])C2([H])N([H])C(=O)C1([H])N(C(=O)C([H])(N([H])C(=O)C([H])(N([H])C([H])([H])[H])C([H])([H])[H])C(C([H])([H])[H])(C([H])([H])[H])C([H])([H])[H])C([H])([H])c2c([H])c(OC([H])([H])C(=NC([H])([H])C([H])([H])C([H])([H])C3(C([H])(N([H])C(=O)N4C([H])([H])C([H])([H])C([H])([H])C([H])(n5nc(-c6c([H])c([H])c(Oc7c([H])c([H])c(F)c([H])c7F)c([H])c6[H])c(C(=O)N([H])[H])c5N([H])[H])C4([H])[H])C([H])([H])[H])C([H])([H])C3([H])[H])C([H])([H])[H])c([H])c([H])c2C1([H])[H]

>  <smiles>  (98) 
[H]c1c([H])c([H])c2c(c1[H])C([H])([H])C([H])([H])C([H])([H])C2([H])N([H])C(=O)C1([H])N(C(=O)C([H])(N([H])C(=O)C([H])(N([H])C([H])([H])[H])C([H])([H])[H])C(C([H])([H])[H])(C([H])([H])[H])C([H])([H])[H])C([H])([H])c2c([H])c(OC([H])([H])C(=NC([H])([H])C([H])([H])C([H])([H])C3(C([H])(N([H])C(=O)N4C([H])([H])C([H])([H])C([H])([H])C([H])(n5nc(-c6c([H])c([H])c(Oc7c([H])c([H])c(F)c([H])c7F)c([H])c6[H])c(C(=O)N([H])[H])c5N([H])[H])C4([H])[H])C([H])([H])[H])C([H])([H])C3([H])[H])C([H])([H])[H])c([H])c([H])c2C1([H])[H]

$$$$
99:0:0
     RDKit          3D

 99107  0  0  1  0  0  0  0  0999 V2000
  -29.4350  -19.0870   20.2000 C   0  0  0  0  0  3  0  0  0  0  0  0
  -27.0130  -18.6150   18.9050 C   0  0  0  0  0  3  0  0  0  0  0  0
  -28.7540  -20.2020   19.5990 C   0  0  0  0  0  0  0  0  0  0  0  0
  -28.8970  -17.7580   20.2080 C   0  0  0  0  0  0  0  0  0  0  0  0
  -27.5550  -19.9170   18.8820 C   0  0  0  0  0  0  0  0  0  0  0  0
  -27.6520  -17.5610   19.5730 C   0  0  0  0  0  0  0  0  0  0  0  0
  -26.8190  -20.9390   18.0280 C   0  0  0  0  0  1  0  0  0  0  0  0
  -27.0580  -16.3450   19.5720 F   0  0  0  0  0  0  0  0  0  0  0  0
  -29.3690  -21.6390   19.6680 C   0  0  0  0  0  2  0  0  0  0  0  0
  -28.6270  -22.6180   20.5370 N   0  0  0  0  0  4  0  0  0  0  0  0
  -28.6100  -22.2170   21.4660 H   0  0  0  0  0  0  0  0  0  0  0  0
  -27.6680  -22.6510   20.2320 H   0  0  0  0  0  0  0  0  0  0  0  0
  -29.1660  -24.0310   20.6680 C   0  0  0  0  0  2  0  0  0  0  0  0
  -28.1480  -25.1430   20.2610 C   0  0  0  0  0  2  0  0  0  0  0  0
  -28.5130  -26.5700   20.4170 O   0  0  0  0  0  0  0  0  0  0  0  0
  -24.6210  -31.8870   23.2830 C   0  0  0  0  0  0  0  0  0  0  0  0
  -27.4310  -27.4430   20.2860 C   0  0  0  0  0  0  0  0  0  0  0  0
  -23.5230  -30.4940   21.5700 C   0  0  0  0  0  3  0  0  0  0  0  0
  -25.0620  -29.0150   20.1850 C   0  0  0  0  0  0  0  0  0  0  0  0
  -26.0600  -30.8690   21.5110 C   0  0  0  0  0  2  0  0  0  0  0  0
  -26.1920  -29.5040   20.8540 C   0  0  0  0  0  0  0  0  0  0  0  0
  -27.3830  -28.7270   20.9050 C   0  0  0  0  0  3  0  0  0  0  0  0
  -26.2910  -27.0270   19.5580 C   0  0  0  0  0  3  0  0  0  0  0  0
  -25.1140  -27.7820   19.5230 C   0  0  0  0  0  3  0  0  0  0  0  0
  -23.8110  -29.8620   20.1880 C   0  0  0  0  0  2  0  0  0  0  0  0
  -24.7510  -31.1020   22.1780 N   0  0  0  0  0  0  0  0  0  0  0  0
  -23.5090  -32.1350   23.7710 O   0  0  0  0  0  0  0  0  0  0  0  0
  -22.8440  -29.4420   22.4760 C   0  0  0  0  0  0  0  0  0  0  0  0
  -21.5170  -29.2750   22.3220 N   0  0  0  0  0  0  0  0  0  0  0  0
  -23.5080  -28.7930   23.2870 O   0  0  0  0  0  0  0  0  0  0  0  0
  -21.0390  -29.8720   21.6640 H   0  0  0  0  0  0  0  0  0  0  0  0
  -18.1190  -28.1030   22.7810 C   0  0  0  0  0  0  0  0  0  0  0  0
  -20.6820  -28.3160   23.0520 C   0  0  0  0  0  3  0  0  0  0  0  0
  -20.7550  -26.9090   22.4220 C   0  0  0  0  0  2  0  0  0  0  0  0
  -19.6460  -26.6370   21.4050 C   0  0  0  0  0  2  0  0  0  0  0  0
  -18.2720  -26.7760   22.0500 C   0  0  0  0  0  2  0  0  0  0  0  0
  -19.2480  -28.8300   23.2430 C   0  0  0  0  0  0  0  0  0  0  0  0
  -19.0520  -30.0680   23.8890 C   0  0  0  0  0  3  0  0  0  0  0  0
  -17.7530  -30.5770   24.0910 C   0  0  0  0  0  3  0  0  0  0  0  0
  -16.6410  -29.8560   23.6310 C   0  0  0  0  0  3  0  0  0  0  0  0
  -16.8230  -28.6220   22.9790 C   0  0  0  0  0  3  0  0  0  0  0  0
  -25.8650  -32.5370   23.9630 C   0  0  0  0  0  3  0  0  0  0  0  0
  -25.5260  -33.9370   24.2530 N   0  0  0  0  0  0  0  0  0  0  0  0
  -25.8790  -34.9810   23.4920 C   0  0  0  0  0  0  0  0  0  0  0  0
  -26.5960  -34.8700   22.4940 O   0  0  0  0  0  0  0  0  0  0  0  0
  -24.8980  -34.0960   25.0280 H   0  0  0  0  0  0  0  0  0  0  0  0
  -24.1390  -36.7420   23.0340 C   0  0  0  0  0  1  0  0  0  0  0  0
  -25.3530  -36.3710   23.9000 C   0  0  0  0  0  3  0  0  0  0  0  0
  -27.4390  -37.3070   24.8010 C   0  0  0  0  0  1  0  0  0  0  0  0
  -26.3760  -37.4350   23.8100 N   0  0  0  0  0  0  0  0  0  0  0  0
  -25.9500  -38.3500   23.9230 H   0  0  0  0  0  0  0  0  0  0  0  0
  -26.3130  -31.7910   25.2780 C   0  0  1  0  0  0  0  0  0  0  0  0
  -25.1610  -31.5570   26.2830 C   0  0  0  0  0  1  0  0  0  0  0  0
  -26.9300  -30.4120   24.9400 C   0  0  0  0  0  1  0  0  0  0  0  0
  -27.4180  -32.6050   25.9920 C   0  0  0  0  0  1  0  0  0  0  0  0
  -29.6120  -16.5130   20.8250 C   0  0  0  0  0  0  0  0  0  0  0  0
  -30.6170  -14.2940   20.0820 C   0  0  0  0  0  0  0  0  0  0  0  0
  -30.4860  -11.8720   19.5960 C   0  0  0  0  0  2  0  0  0  0  0  0
  -29.5930  -11.6640   18.3590 C   0  0  0  0  0  2  0  0  0  0  0  0
  -28.1120  -11.5360   18.7690 C   0  0  0  0  0  2  0  0  0  0  0  0
  -27.6650  -12.6610   19.7420 C   0  0  0  0  0  3  0  0  0  0  0  0
  -28.6860  -12.8660   20.8820 C   0  0  0  0  0  2  0  0  0  0  0  0
  -30.0010  -13.0900   20.2670 N   0  0  0  0  0  0  0  0  0  0  0  0
  -31.7890  -14.3890   19.7190 O   0  0  0  0  0  0  0  0  0  0  0  0
  -29.8050  -15.3670   19.8990 N   0  0  0  0  0  4  0  0  0  0  0  0
  -29.8700  -15.6980   18.9490 H   0  0  0  0  0  0  0  0  0  0  0  0
  -25.3090  -13.3420   20.5230 C   0  0  0  0  0  0  0  0  0  0  0  0
  -24.2260  -12.6010   20.9150 C   0  0  0  0  0  0  0  0  0  0  0  0
  -24.6480  -11.2370   20.8690 C   0  0  0  0  0  0  0  0  0  0  0  0
  -26.3200  -12.4310   20.2600 N   0  0  0  0  0  0  0  0  0  0  0  0
  -25.9270  -11.1580   20.5300 N   0  0  0  0  0  0  0  0  0  0  0  0
  -23.8880   -9.9950   21.0680 C   0  0  0  0  0  0  0  0  0  0  0  0
  -24.3330   -8.9820   21.9470 C   0  0  0  0  0  3  0  0  0  0  0  0
  -23.5710   -7.8100   22.1360 C   0  0  0  0  0  3  0  0  0  0  0  0
  -22.3460   -7.6400   21.4480 C   0  0  0  0  0  0  0  0  0  0  0  0
  -21.9190   -8.6380   20.5540 C   0  0  0  0  0  3  0  0  0  0  0  0
  -22.6820   -9.8020   20.3620 C   0  0  0  0  0  3  0  0  0  0  0  0
  -21.5560   -6.5200   21.5490 O   0  0  0  0  0  0  0  0  0  0  0  0
  -21.5810   -5.7220   22.6620 C   0  0  0  0  0  0  0  0  0  0  0  0
  -21.2330   -6.2120   23.9400 C   0  0  0  0  0  3  0  0  0  0  0  0
  -21.2010   -5.3380   25.0450 C   0  0  0  0  0  3  0  0  0  0  0  0
  -21.5120   -3.9750   24.8730 C   0  0  0  0  0  0  0  0  0  0  0  0
  -21.8520   -3.4840   23.6010 C   0  0  0  0  0  3  0  0  0  0  0  0
  -21.8830   -4.3560   22.4980 C   0  0  0  0  0  0  0  0  0  0  0  0
  -22.1920   -3.8740   21.2700 F   0  0  0  0  0  0  0  0  0  0  0  0
  -21.4750   -3.1330   25.9330 F   0  0  0  0  0  0  0  0  0  0  0  0
  -22.8510  -13.1200   21.2180 C   0  0  0  0  0  0  0  0  0  0  0  0
  -22.1300  -12.4570   22.1150 N   0  0  0  0  0  0  0  0  0  0  0  0
  -22.4240  -14.1480   20.6940 O   0  0  0  0  0  0  0  0  0  0  0  0
  -22.4830  -11.6220   22.5600 H   0  0  0  0  0  0  0  0  0  0  0  0
  -21.2050  -12.7840   22.3570 H   0  0  0  0  0  0  0  0  0  0  0  0
  -25.5040  -14.7090   20.3460 N   0  0  0  0  0  0  0  0  0  0  0  0
  -24.7600  -15.3800   20.5030 H   0  0  0  0  0  0  0  0  0  0  0  0
  -26.3780  -15.1400   20.0780 H   0  0  0  0  0  0  0  0  0  0  0  0
  -30.7580  -16.7860   21.8570 C   0  0  0  0  0  2  0  0  0  0  0  0
  -31.5380  -18.0170   21.6230 N   0  0  0  0  0  4  0  0  0  0  0  0
  -32.0340  -17.9620   20.7530 H   0  0  0  0  0  0  0  0  0  0  0  0
  -32.2030  -18.1460   22.3650 H   0  0  0  0  0  0  0  0  0  0  0  0
  -30.9320  -18.8130   21.6220 H   0  0  0  0  0  0  0  0  0  0  0  0
  1  4  1  0
  2  6  1  0
  3  9  1  0
  3  1  2  0
  4 56  1  0
  5  2  2  0
  5  3  1  0
  6  4  2  0
  7  5  1  0
  8  6  1  0
  9 10  1  0
 10 13  1  0
 10 11  1  0
 12 10  1  0
 14 15  1  0
 14 13  1  0
 16 27  2  0
 17 15  1  0
 17 22  1  0
 18 26  1  0
 18 28  1  0
 19 25  1  0
 19 21  1  0
 20 26  1  0
 21 22  2  0
 21 20  1  0
 23 17  2  0
 24 23  1  0
 24 19  2  0
 25 18  1  0
 26 16  1  0
 28 30  2  0
 29 28  1  0
 31 29  1  0
 32 41  2  0
 32 37  1  0
 33 29  1  0
 33 37  1  0
 34 33  1  0
 35 36  1  0
 35 34  1  0
 36 32  1  0
 37 38  2  0
 38 39  1  0
 40 39  2  0
 41 40  1  0
 42 16  1  0
 42 43  1  0
 42 52  1  0
 43 46  1  0
 44 48  1  0
 44 43  1  0
 45 44  2  0
 48 47  1  0
 50 48  1  0
 50 51  1  0
 50 49  1  0
 52 55  1  1
 52 53  1  0
 54 52  1  0
 56 95  1  0
 57 63  1  0
 58 63  1  0
 59 60  1  0
 59 58  1  0
 61 60  1  0
 61 70  1  0
 61 62  1  0
 63 62  1  0
 64 57  2  0
 65 57  1  0
 65 56  2  0
 66 65  1  0
 67 68  2  0
 68 87  1  0
 69 68  1  0
 69 72  1  0
 70 67  1  0
 70 71  1  0
 71 69  2  0
 72 73  1  0
 73 74  2  0
 75 78  1  0
 75 74  1  0
 76 75  2  0
 77 76  1  0
 77 72  2  0
 78 79  1  0
 79 80  1  0
 80 81  2  0
 82 81  1  0
 82 86  1  0
 83 82  2  0
 84 79  2  0
 84 83  1  0
 85 84  1  0
 87 88  1  0
 88 91  1  0
 88 90  1  0
 89 87  2  0
 92 93  1  0
 92 67  1  0
 94 92  1  0
 96 95  1  0
 96 98  1  0
 97 96  1  0
 99 96  1  0
M  ISO  4  14 101  15 101  57 100  65 100
M  END
>  <TORSDO>  (99) 
F 23

>  <SCORE>  (99) 
-12.973

>  <name>  (99) 
99

>  <ligand_id>  (99) 
99

>  <original_smiles>  (99) 
[H]c1c([H])c([H])c2c(c1[H])C([H])([H])C([H])([H])C([H])([H])C2([H])N([H])C(=O)C1([H])N(C(=O)C([H])(N([H])C(=O)C([H])(N([H])C([H])([H])[H])C([H])([H])[H])C(C([H])([H])[H])(C([H])([H])[H])C([H])([H])[H])C([H])([H])c2c([H])c(OC([H])([H])C([H])([H])[N+]([H])([H])C([H])([H])c3c([H])c(C([H])(N([H])C(=O)N4C([H])([H])C([H])([H])C([H])([H])C([H])(n5nc(-c6c([H])c([H])c(Oc7c([H])c([H])c(F)c([H])c7F)c([H])c6[H])c(C(=O)N([H])[H])c5N([H])[H])C4([H])[H])C([H])([H])[N+]([H])([H])[H])c(F)c([H])c3C([H])([H])[H])c([H])c([H])c2C1([H])[H]

>  <smiles>  (99) 
[H]c1c([H])c([H])c2c(c1[H])C([H])([H])C([H])([H])C([H])([H])C2([H])N([H])C(=O)C1([H])N(C(=O)C([H])(N([H])C(=O)C([H])(N([H])C([H])([H])[H])C([H])([H])[H])C(C([H])([H])[H])(C([H])([H])[H])C([H])([H])[H])C([H])([H])c2c([H])c(OC([H])([H])C([H])([H])[N+]([H])([H])C([H])([H])c3c([H])c(C([H])(N([H])C(=O)N4C([H])([H])C([H])([H])C([H])([H])C([H])(n5nc(-c6c([H])c([H])c(Oc7c([H])c([H])c(F)c([H])c7F)c([H])c6[H])c(C(=O)N([H])[H])c5N([H])[H])C4([H])[H])C([H])([H])[N+]([H])([H])[H])c(F)c([H])c3C([H])([H])[H])c([H])c([H])c2C1([H])[H]

$$$$
