0:0:0
     RDKit          3D

 98107  0  0  1  0  0  0  0  0999 V2000
  -30.9510  -19.0920   23.3600 C   0  0  0  0  0  2  0  0  0  0  0  0
  -29.6510  -20.0320   21.4220 C   0  0  0  0  0  2  0  0  0  0  0  0
  -31.2200  -20.5390   23.8250 C   0  0  0  0  0  2  0  0  0  0  0  0
  -30.7270  -19.0000   21.8400 C   0  0  0  0  0  3  0  0  0  0  0  0
  -29.9290  -21.4620   21.9230 C   0  0  0  0  0  3  0  0  0  0  0  0
  -30.1440  -21.4600   23.3920 N   0  0  0  0  0  4  0  0  0  0  0  0
  -30.3780  -22.3990   23.6880 H   0  0  0  0  0  0  0  0  0  0  0  0
  -29.2920  -21.2030   23.8640 H   0  0  0  0  0  0  0  0  0  0  0  0
  -31.2630  -14.3370   19.9570 C   0  0  0  0  0  0  0  0  0  0  0  0
  -30.8620  -12.0810   19.0180 C   0  0  0  0  0  2  0  0  0  0  0  0
  -29.8850  -12.1560   17.8280 C   0  0  0  0  0  2  0  0  0  0  0  0
  -28.4250  -12.0710   18.3170 C   0  0  0  0  0  2  0  0  0  0  0  0
  -28.1300  -13.0760   19.4570 C   0  0  0  0  0  3  0  0  0  0  0  0
  -29.2120  -12.9840   20.5620 C   0  0  0  0  0  2  0  0  0  0  0  0
  -30.5330  -13.1840   19.9360 N   0  0  0  0  0  0  0  0  0  0  0  0
  -32.3970  -14.4200   19.4730 O   0  0  0  0  0  0  0  0  0  0  0  0
  -29.6420  -17.5450   20.0310 C   0  0  0  0  0  2  0  0  0  0  0  0
  -29.5490  -16.0580   19.7690 C   0  0  0  0  0  2  0  0  0  0  0  0
  -31.3150  -16.4590   21.2970 C   0  0  0  0  0  2  0  0  0  0  0  0
  -30.2720  -17.5870   21.4110 C   0  0  0  0  0  3  0  0  0  0  0  0
  -30.6490  -15.4180   20.4960 N   0  0  0  0  0  0  0  0  0  0  0  0
  -25.8230  -13.8890   20.2770 C   0  0  0  0  0  0  0  0  0  0  0  0
  -24.7150  -13.2050   20.6970 C   0  0  0  0  0  0  0  0  0  0  0  0
  -25.0700  -11.8220   20.6540 C   0  0  0  0  0  0  0  0  0  0  0  0
  -26.7840  -12.9240   20.0010 N   0  0  0  0  0  0  0  0  0  0  0  0
  -26.3370  -11.6790   20.2900 N   0  0  0  0  0  0  0  0  0  0  0  0
  -24.2600  -10.6210   20.8770 C   0  0  0  0  0  0  0  0  0  0  0  0
  -24.6540   -9.6280   21.8010 C   0  0  0  0  0  3  0  0  0  0  0  0
  -23.8510   -8.4870   22.0100 C   0  0  0  0  0  3  0  0  0  0  0  0
  -22.6380   -8.3320   21.2950 C   0  0  0  0  0  0  0  0  0  0  0  0
  -22.2630   -9.3110   20.3580 C   0  0  0  0  0  3  0  0  0  0  0  0
  -23.0670  -10.4440   20.1490 C   0  0  0  0  0  3  0  0  0  0  0  0
  -21.8090   -7.2430   21.4140 O   0  0  0  0  0  0  0  0  0  0  0  0
  -21.7090   -6.5410   22.5880 C   0  0  0  0  0  0  0  0  0  0  0  0
  -21.2570   -7.1460   23.7810 C   0  0  0  0  0  3  0  0  0  0  0  0
  -21.1030   -6.3710   24.9480 C   0  0  0  0  0  3  0  0  0  0  0  0
  -21.3900   -4.9930   24.9210 C   0  0  0  0  0  0  0  0  0  0  0  0
  -21.8370   -4.3890   23.7320 C   0  0  0  0  0  3  0  0  0  0  0  0
  -21.9920   -5.1620   22.5670 C   0  0  0  0  0  0  0  0  0  0  0  0
  -22.4010   -4.5710   21.4190 F   0  0  0  0  0  0  0  0  0  0  0  0
  -21.2350   -4.2460   26.0380 F   0  0  0  0  0  0  0  0  0  0  0  0
  -23.3710  -13.7890   21.0210 C   0  0  0  0  0  0  0  0  0  0  0  0
  -22.6520  -13.1900   21.9640 N   0  0  0  0  0  0  0  0  0  0  0  0
  -22.9690  -14.8140   20.4710 O   0  0  0  0  0  0  0  0  0  0  0  0
  -22.9850  -12.3600   22.4340 H   0  0  0  0  0  0  0  0  0  0  0  0
  -21.7530  -13.5690   22.2230 H   0  0  0  0  0  0  0  0  0  0  0  0
  -26.0770  -15.2410   20.0790 N   0  0  0  0  0  0  0  0  0  0  0  0
  -25.3670  -15.9500   20.2280 H   0  0  0  0  0  0  0  0  0  0  0  0
  -26.9290  -15.6180   19.6860 H   0  0  0  0  0  0  0  0  0  0  0  0
  -28.7890  -22.4280   21.5000 C   0  0  0  0  0  2  0  0  0  0  0  0
  -29.2040  -23.8980   21.5300 C   0  0  0  0  0  0  0  0  0  0  0  0
  -28.3270  -24.7840   21.0390 N   0  0  0  0  0  0  0  0  0  0  0  0
  -30.3100  -24.2180   21.9660 O   0  0  0  0  0  0  0  0  0  0  0  0
  -27.4260  -24.4320   20.7370 H   0  0  0  0  0  0  0  0  0  0  0  0
  -28.5800  -26.2080   20.8300 C   0  0  0  0  0  2  0  0  0  0  0  0
  -29.0720  -26.5050   19.3980 C   0  0  0  0  0  2  0  0  0  0  0  0
  -28.0930  -26.0850   18.2750 C   0  0  0  0  0  2  0  0  0  0  0  0
  -27.5190  -27.2080   17.6140 O   0  0  0  0  0  0  0  0  0  0  0  0
  -24.6210  -30.2810   23.3050 C   0  0  0  0  0  0  0  0  0  0  0  0
  -26.3750  -27.6900   18.1940 C   0  0  0  0  0  0  0  0  0  0  0  0
  -23.0220  -29.4450   21.6090 C   0  0  0  0  0  3  0  0  0  0  0  0
  -24.0410  -28.7310   19.3830 C   0  0  0  0  0  0  0  0  0  0  0  0
  -25.3760  -30.1750   20.9390 C   0  0  0  0  0  2  0  0  0  0  0  0
  -25.3020  -29.1610   19.8170 C   0  0  0  0  0  0  0  0  0  0  0  0
  -26.4690  -28.6520   19.2170 C   0  0  0  0  0  3  0  0  0  0  0  0
  -25.1050  -27.2550   17.7630 C   0  0  0  0  0  3  0  0  0  0  0  0
  -23.9360  -27.7730   18.3560 C   0  0  0  0  0  3  0  0  0  0  0  0
  -22.8440  -29.3450   20.0690 C   0  0  0  0  0  2  0  0  0  0  0  0
  -24.3730  -29.9600   22.0030 N   0  0  0  0  0  0  0  0  0  0  0  0
  -23.7330  -30.2010   24.1640 O   0  0  0  0  0  0  0  0  0  0  0  0
  -22.6830  -28.0730   22.2300 C   0  0  0  0  0  0  0  0  0  0  0  0
  -21.4800  -27.5620   21.9300 N   0  0  0  0  0  0  0  0  0  0  0  0
  -23.5030  -27.4800   22.9370 O   0  0  0  0  0  0  0  0  0  0  0  0
  -20.8600  -28.1160   21.3570 H   0  0  0  0  0  0  0  0  0  0  0  0
  -18.9870  -25.0440   21.2280 C   0  0  0  0  0  0  0  0  0  0  0  0
  -20.9600  -26.2670   22.3680 C   0  0  0  0  0  3  0  0  0  0  0  0
  -21.8450  -25.1090   21.8510 C   0  0  0  0  0  2  0  0  0  0  0  0
  -21.3620  -24.5320   20.5160 C   0  0  0  0  0  2  0  0  0  0  0  0
  -19.9300  -24.0040   20.6450 C   0  0  0  0  0  2  0  0  0  0  0  0
  -19.4740  -26.1160   22.0230 C   0  0  0  0  0  0  0  0  0  0  0  0
  -18.5600  -27.0770   22.5090 C   0  0  0  0  0  3  0  0  0  0  0  0
  -17.1860  -26.9750   22.2210 C   0  0  0  0  0  3  0  0  0  0  0  0
  -16.7100  -25.9030   21.4460 C   0  0  0  0  0  3  0  0  0  0  0  0
  -17.6090  -24.9400   20.9560 C   0  0  0  0  0  3  0  0  0  0  0  0
  -26.0230  -30.7880   23.7700 C   0  0  0  0  0  3  0  0  0  0  0  0
  -25.8680  -32.1810   24.2050 N   0  0  0  0  0  0  0  0  0  0  0  0
  -26.5100  -33.2230   23.6600 C   0  0  0  0  0  0  0  0  0  0  0  0
  -27.3570  -33.0990   22.7710 O   0  0  0  0  0  0  0  0  0  0  0  0
  -25.1550  -32.3630   24.8950 H   0  0  0  0  0  0  0  0  0  0  0  0
  -25.4040  -35.4040   23.0840 C   0  0  0  0  0  1  0  0  0  0  0  0
  -26.1510  -34.6270   24.1800 C   0  0  0  0  0  3  0  0  0  0  0  0
  -27.9450  -34.8620   25.8380 C   0  0  0  0  0  1  0  0  0  0  0  0
  -27.3240  -35.4060   24.6330 N   0  0  0  0  0  0  0  0  0  0  0  0
  -27.0690  -36.3730   24.8140 H   0  0  0  0  0  0  0  0  0  0  0  0
  -26.6550  -29.9090   24.9200 C   0  0  1  0  0  0  0  0  0  0  0  0
  -25.7190  -29.7100   26.1350 C   0  0  0  0  0  1  0  0  0  0  0  0
  -27.0420  -28.5100   24.3860 C   0  0  0  0  0  1  0  0  0  0  0  0
  -27.9620  -30.5660   25.4230 C   0  0  0  0  0  1  0  0  0  0  0  0
  1  3  1  0
  2  5  1  0
  4  2  1  0
  4  1  1  0
  5 50  1  0
  5  6  1  0
  6  7  1  0
  6  3  1  0
  6  8  1  0
  9 21  1  0
 10 15  1  0
 11 12  1  0
 11 10  1  0
 13 12  1  0
 13 25  1  0
 13 14  1  0
 15  9  1  0
 15 14  1  0
 16  9  2  0
 18 17  1  0
 18 21  1  0
 19 20  1  0
 20 17  1  0
 20  4  1  0
 21 19  1  0
 22 23  2  0
 23 42  1  0
 24 23  1  0
 24 27  1  0
 25 22  1  0
 25 26  1  0
 26 24  2  0
 27 28  1  0
 28 29  2  0
 30 33  1  0
 30 29  1  0
 31 30  2  0
 32 31  1  0
 32 27  2  0
 33 34  1  0
 34 35  1  0
 35 36  2  0
 37 36  1  0
 37 41  1  0
 38 37  2  0
 39 34  2  0
 39 38  1  0
 40 39  1  0
 42 43  1  0
 43 46  1  0
 43 45  1  0
 44 42  2  0
 47 48  1  0
 47 22  1  0
 49 47  1  0
 50 51  1  0
 51 53  2  0
 52 51  1  0
 54 52  1  0
 55 52  1  0
 56 55  1  0
 57 56  1  0
 58 60  1  0
 58 57  1  0
 59 70  2  0
 60 65  1  0
 61 69  1  0
 61 71  1  0
 62 64  1  0
 62 68  1  0
 63 69  1  0
 64 63  1  0
 65 64  2  0
 66 60  2  0
 66 67  1  0
 67 62  2  0
 68 61  1  0
 69 59  1  0
 71 73  2  0
 72 71  1  0
 74 72  1  0
 75 80  1  0
 76 72  1  0
 77 76  1  0
 78 79  1  0
 78 77  1  0
 79 75  1  0
 80 76  1  0
 80 81  2  0
 82 81  1  0
 83 82  2  0
 84 75  2  0
 84 83  1  0
 85 59  1  0
 85 86  1  0
 85 95  1  0
 86 89  1  0
 87 91  1  0
 87 86  1  0
 88 87  2  0
 91 90  1  0
 91 93  1  0
 93 94  1  0
 93 92  1  0
 95 98  1  1
 95 96  1  0
 97 95  1  0
M  ISO  4   9 100  21 100  57 101  58 101
M  END
>  <TORSDO>  (1) 
F 21

>  <SCORE>  (1) 
-11.246

>  <name>  (1) 
0

>  <ligand_id>  (1) 
0

>  <original_smiles>  (1) 
[H]c1c([H])c([H])c2c(c1[H])C([H])([H])C([H])([H])C([H])([H])C2([H])N([H])C(=O)C1([H])N(C(=O)C([H])(N([H])C(=O)C([H])(N([H])C([H])([H])[H])C([H])([H])[H])C(C([H])([H])[H])(C([H])([H])[H])C([H])([H])[H])C([H])([H])c2c([H])c(OC([H])([H])C([H])([H])C([H])([H])N([H])C(=O)C([H])([H])C3([H])C([H])([H])C([H])(C4([H])C([H])([H])N(C(=O)N5C([H])([H])C([H])([H])C([H])([H])C([H])(n6nc(-c7c([H])c([H])c(Oc8c([H])c([H])c(F)c([H])c8F)c([H])c7[H])c(C(=O)N([H])[H])c6N([H])[H])C5([H])[H])C([H])([H])C4([H])[H])C([H])([H])C([H])([H])[N+]3([H])[H])c([H])c([H])c2C1([H])[H]

>  <smiles>  (1) 
[H]c1c([H])c([H])c2c(c1[H])C([H])([H])C([H])([H])C([H])([H])C2([H])N([H])C(=O)C1([H])N(C(=O)C([H])(N([H])C(=O)C([H])(N([H])C([H])([H])[H])C([H])([H])[H])C(C([H])([H])[H])(C([H])([H])[H])C([H])([H])[H])C([H])([H])c2c([H])c(OC([H])([H])C([H])([H])C([H])([H])N([H])C(=O)C([H])([H])C3([H])C([H])([H])C([H])(C4([H])C([H])([H])N(C(=O)N5C([H])([H])C([H])([H])C([H])([H])C([H])(n6nc(-c7c([H])c([H])c(Oc8c([H])c([H])c(F)c([H])c8F)c([H])c7[H])c(C(=O)N([H])[H])c6N([H])[H])C5([H])[H])C([H])([H])C4([H])[H])C([H])([H])C([H])([H])[N+]3([H])[H])c([H])c([H])c2C1([H])[H]

$$$$
1:0:0
     RDKit          3D

 98102  0  0  1  0  0  0  0  0999 V2000
  -27.6500  -28.2030   22.0620 C   0  0  0  0  0  2  0  0  0  0  0  0
  -27.7590  -26.2670   22.1190 C   0  0  0  0  0  2  0  0  0  0  0  0
  -25.5430  -25.5500   21.3430 C   0  0  0  0  0  2  0  0  0  0  0  0
  -24.7370  -27.2200   21.0420 C   0  0  0  0  0  2  0  0  0  0  0  0
  -26.1170  -29.1580   21.2370 C   0  0  0  0  0  2  0  0  0  0  0  0
  -27.0870  -24.6120   21.5680 C   0  0  0  0  0  2  0  0  0  0  0  0
  -23.2570  -27.1820   20.2240 C   0  0  0  0  0  0  0  0  0  0  0  0
  -25.1660  -30.8380   20.4900 C   0  0  0  0  0  2  0  0  0  0  0  0
  -23.1690  -30.3220   19.4870 C   0  0  0  0  0 15  0  0  0  0  0  0
  -22.6720  -28.3900   19.4510 N   0  0  0  0  0  2  0  0  0  0  0  0
  -22.7490  -26.0500   20.2120 O   0  0  0  0  0  0  0  0  0  0  0  0
  -28.0460  -22.0810   21.2740 C   0  0  0  0  0 15  0  0  0  0  0  0
  -29.2910  -17.6380   20.5150 C   0  0  0  0  0  2  0  0  0  0  0  0
  -30.0450  -14.6500   19.4790 C   0  0  0  0  0  2  0  0  0  0  0  0
  -29.5500  -13.4680   18.4190 C   0  0  0  0  0  2  0  0  0  0  0  0
  -28.4090  -12.5820   18.9110 C   0  0  0  0  0  2  0  0  0  0  0  0
  -27.5980  -13.5340   19.7870 C   0  0  0  0  0  3  0  0  0  0  0  0
  -28.3720  -14.5620   20.8110 C   0  0  0  0  0  2  0  0  0  0  0  0
  -29.0940  -15.8860   20.2150 N   0  0  0  0  0  0  0  0  0  0  0  0
  -30.5460  -17.2920   20.3140 O   0  0  0  0  0  1  0  0  0  0  0  0
  -28.5090  -19.5720   20.8500 N   0  0  0  0  0  1  0  0  0  0  0  0
  -29.4900  -19.8260   20.8120 H   0  0  0  0  0  0  0  0  0  0  0  0
  -25.2460  -13.6950   20.5650 C   0  0  0  0  0  0  0  0  0  0  0  0
  -24.2610  -12.8330   20.9300 C   0  0  0  0  0  0  0  0  0  0  0  0
  -24.8090  -11.5160   20.8210 C   0  0  0  0  0  0  0  0  0  0  0  0
  -26.3560  -12.9390   20.2970 N   0  0  0  0  0  0  0  0  0  0  0  0
  -26.1050  -11.5950   20.4660 N   0  0  0  0  0  0  0  0  0  0  0  0
  -24.1220  -10.2140   20.9940 C   0  0  0  0  0  0  0  0  0  0  0  0
  -24.5080   -9.2840   21.9860 C   0  0  0  0  0  3  0  0  0  0  0  0
  -23.7950   -8.0740   22.1620 C   0  0  0  0  0  3  0  0  0  0  0  0
  -22.6760   -7.7800   21.3470 C   0  0  0  0  0  0  0  0  0  0  0  0
  -22.3020   -8.6980   20.3500 C   0  0  0  0  0  3  0  0  0  0  0  0
  -23.0170   -9.8980   20.1740 C   0  0  0  0  0  3  0  0  0  0  0  0
  -21.9440   -6.6170   21.4250 O   0  0  0  0  0  0  0  0  0  0  0  0
  -21.7110   -5.9840   22.6220 C   0  0  0  0  0  0  0  0  0  0  0  0
  -20.9830   -6.6040   23.6610 C   0  0  0  0  0  3  0  0  0  0  0  0
  -20.7070   -5.8950   24.8470 C   0  0  0  0  0  3  0  0  0  0  0  0
  -21.1480   -4.5660   24.9950 C   0  0  0  0  0  0  0  0  0  0  0  0
  -21.8670   -3.9450   23.9590 C   0  0  0  0  0  3  0  0  0  0  0  0
  -22.1440   -4.6510   22.7740 C   0  0  0  0  0  0  0  0  0  0  0  0
  -22.8180   -4.0380   21.7710 F   0  0  0  0  0  0  0  0  0  0  0  0
  -20.8780   -3.8830   26.1320 F   0  0  0  0  0  0  0  0  0  0  0  0
  -22.8590  -13.2390   21.2650 C   0  0  0  0  0  0  0  0  0  0  0  0
  -22.2040  -12.5070   22.1560 N   0  0  0  0  0  0  0  0  0  0  0  0
  -22.3640  -14.2580   20.7820 O   0  0  0  0  0  0  0  0  0  0  0  0
  -22.6250  -11.6890   22.5700 H   0  0  0  0  0  0  0  0  0  0  0  0
  -21.2670  -12.7680   22.4290 H   0  0  0  0  0  0  0  0  0  0  0  0
  -25.2900  -15.0780   20.4140 N   0  0  0  0  0  0  0  0  0  0  0  0
  -24.4720  -15.6630   20.5420 H   0  0  0  0  0  0  0  0  0  0  0  0
  -26.1000  -15.5890   20.0840 H   0  0  0  0  0  0  0  0  0  0  0  0
  -22.7770  -27.4640   18.1630 C   0  0  0  0  0  2  0  0  0  0  0  0
  -24.1410  -26.5030   17.5620 C   0  0  0  0  0  3  0  0  0  0  0  0
  -23.4600  -25.3790   16.8760 N   0  0  0  0  0  4  0  0  0  0  0  0
  -23.1440  -24.6890   17.5370 H   0  0  0  0  0  0  0  0  0  0  0  0
  -24.0680  -24.9170   16.2200 H   0  0  0  0  0  0  0  0  0  0  0  0
  -22.6590  -25.6970   16.3560 H   0  0  0  0  0  0  0  0  0  0  0  0
  -25.6770  -25.8050   18.1070 C   0  0  0  0  0  2  0  0  0  0  0  0
  -27.1280  -26.1900   18.7320 O   0  0  0  0  0  0  0  0  0  0  0  0
  -25.1350  -31.3850   23.6150 C   0  0  0  0  0  0  0  0  0  0  0  0
  -27.9360  -27.2420   18.3560 C   0  0  0  0  0  3  0  0  0  0  0  0
  -24.2410  -29.8450   21.8990 C   0  0  0  0  0  3  0  0  0  0  0  0
  -26.1290  -28.7470   19.0060 C   0  0  0  0  0  3  0  0  0  0  0  0
  -26.3850  -28.5150   22.8910 C   0  0  0  0  0  3  0  0  0  0  0  0
  -27.0980  -28.1000   19.9500 C   0  0  0  0  0  3  0  0  0  0  0  0
  -28.2830  -28.1890   19.2870 C   0  0  0  0  0  2  0  0  0  0  0  0
  -27.2370  -27.8030   17.3380 C   0  0  0  0  0  2  0  0  0  0  0  0
  -26.2410  -28.6610   17.6780 C   0  0  0  0  0  2  0  0  0  0  0  0
  -25.0620  -29.5200   19.4460 C   0  0  0  0  0  2  0  0  0  0  0  0
  -25.2600  -29.9940   23.1010 N   0  0  0  0  0  0  0  0  0  0  0  0
  -24.0160  -31.9120   23.8430 O   0  0  0  0  0  0  0  0  0  0  0  0
  -23.1030  -29.2410   22.7830 C   0  0  0  0  0  0  0  0  0  0  0  0
  -21.7960  -29.3950   22.5490 N   0  0  0  0  0  0  0  0  0  0  0  0
  -23.4770  -28.4600   23.6440 O   0  0  0  0  0  0  0  0  0  0  0  0
  -21.4380  -30.0120   21.8330 H   0  0  0  0  0  0  0  0  0  0  0  0
  -18.4050  -28.1890   22.8220 C   0  0  0  0  0  0  0  0  0  0  0  0
  -20.9030  -28.4280   23.1810 C   0  0  0  0  0  3  0  0  0  0  0  0
  -20.9770  -27.0180   22.5710 C   0  0  0  0  0  2  0  0  0  0  0  0
  -20.0220  -26.8440   21.3910 C   0  0  0  0  0  2  0  0  0  0  0  0
  -18.5980  -26.9500   21.9510 C   0  0  0  0  0  2  0  0  0  0  0  0
  -19.5010  -28.9250   23.3330 C   0  0  0  0  0  0  0  0  0  0  0  0
  -19.2960  -30.0970   24.0830 C   0  0  0  0  0  3  0  0  0  0  0  0
  -17.9910  -30.5330   24.3520 C   0  0  0  0  0  3  0  0  0  0  0  0
  -16.8960  -29.7870   23.8820 C   0  0  0  0  0  3  0  0  0  0  0  0
  -17.1020  -28.6180   23.1230 C   0  0  0  0  0  3  0  0  0  0  0  0
  -26.2480  -32.4520   23.9790 C   0  0  0  0  0  3  0  0  0  0  0  0
  -25.7950  -33.9130   24.0260 N   0  0  0  0  0  0  0  0  0  0  0  0
  -26.1780  -34.9960   23.2930 C   0  0  0  0  0  0  0  0  0  0  0  0
  -26.9530  -34.9040   22.3410 O   0  0  0  0  0  0  0  0  0  0  0  0
  -25.0940  -34.0940   24.7310 H   0  0  0  0  0  0  0  0  0  0  0  0
  -24.4080  -36.7760   22.8010 C   0  0  0  0  0  1  0  0  0  0  0  0
  -25.6330  -36.4190   23.6630 C   0  0  0  0  0  3  0  0  0  0  0  0
  -27.6740  -37.5100   24.5350 C   0  0  0  0  0  1  0  0  0  0  0  0
  -26.6200  -37.5240   23.5260 N   0  0  0  0  0  0  0  0  0  0  0  0
  -26.1590  -38.4280   23.5650 H   0  0  0  0  0  0  0  0  0  0  0  0
  -26.7340  -32.0500   25.3880 C   0  0  1  0  0  0  0  0  0  0  0  0
  -25.5510  -31.7370   26.3510 C   0  0  0  0  0  1  0  0  0  0  0  0
  -27.6280  -30.8130   25.2730 C   0  0  0  0  0  1  0  0  0  0  0  0
  -27.6040  -33.1430   26.0240 C   0  0  0  0  0  1  0  0  0  0  0  0
  1  2  1  0
  1 63  1  0
  3  6  1  0
  4  3  1  0
  6  2  1  0
  7  4  1  0
  8 61  1  0
 10  7  1  0
 11  7  2  0
 14 19  1  0
 15 16  1  0
 15 14  1  0
 17 16  1  0
 17 26  1  0
 17 18  1  0
 19 13  1  0
 19 18  1  0
 20 13  1  0
 22 21  1  0
 23 24  2  0
 24 43  1  0
 25 24  1  0
 25 28  1  0
 26 27  1  0
 26 23  1  0
 27 25  2  0
 28 29  1  0
 29 30  2  0
 31 34  1  0
 31 30  1  0
 32 31  2  0
 33 32  1  0
 33 28  2  0
 34 35  1  0
 35 40  2  0
 35 36  1  0
 36 37  2  0
 37 38  1  0
 38 42  1  0
 39 38  2  0
 40 39  1  0
 41 40  1  0
 43 44  1  0
 44 47  1  0
 44 46  1  0
 45 43  2  0
 48 49  1  0
 48 23  1  0
 50 48  1  0
 51 10  1  0
 52 53  1  0
 52 57  1  0
 52 51  1  0
 53 54  1  0
 55 53  1  0
 56 53  1  0
 57 58  1  0
 59 70  2  0
 60 66  1  0
 60 58  1  0
 60 65  1  0
 61 71  1  0
 61 69  1  0
 62 67  1  0
 62 68  1  0
 62 64  1  0
 63  5  1  0
 63 69  1  0
 64 65  1  0
 64  5  1  0
 66 67  1  0
 68  8  1  0
 69 59  1  0
 71 73  2  0
 72 71  1  0
 74 72  1  0
 75 84  2  0
 75 80  1  0
 76 72  1  0
 76 80  1  0
 77 76  1  0
 78 79  1  0
 78 77  1  0
 79 75  1  0
 80 81  2  0
 81 82  1  0
 83 82  2  0
 84 83  1  0
 85 59  1  0
 85 86  1  0
 85 95  1  0
 86 89  1  0
 87 91  1  0
 87 86  1  0
 88 87  2  0
 91 90  1  0
 93 94  1  0
 93 91  1  0
 93 92  1  0
 95 98  1  1
 95 96  1  0
 97 95  1  0
M  ISO  4  13 100  21 100  57 101  58 101
M  END
>  <TORSDO>  (2) 
F 21

>  <SCORE>  (2) 
-14.558

>  <name>  (2) 
1

>  <ligand_id>  (2) 
1

>  <original_smiles>  (2) 
[H]c1c([H])c([H])c2c(c1[H])C([H])([H])C([H])([H])C([H])([H])C2([H])N([H])C(=O)C1([H])N(C(=O)C([H])(N([H])C(=O)C([H])(N([H])C([H])([H])[H])C([H])([H])[H])C(C([H])([H])[H])(C([H])([H])[H])C([H])([H])[H])C([H])([H])c2c([H])c(OC([H])([H])C([H])(C([H])([H])N3C(=O)c4c([H])c(C([H])([H])N([H])C(=O)N5C([H])([H])C([H])([H])C([H])([H])C([H])(n6nc(-c7c([H])c([H])c(Oc8c([H])c([H])c(F)c([H])c8F)c([H])c7[H])c(C(=O)N([H])[H])c6N([H])[H])C5([H])[H])c([H])c([H])c4C([H])([H])C3([H])[H])[N+]([H])([H])[H])c([H])c([H])c2C1([H])[H]

>  <smiles>  (2) 
[H]c1c([H])c([H])c2c(c1[H])C([H])([H])C([H])([H])C([H])([H])C2([H])N([H])C(=O)C1([H])N(C(=O)C([H])(N([H])C(=O)C([H])(N([H])C([H])([H])[H])C([H])([H])[H])C(C([H])([H])[H])(C([H])([H])[H])C([H])([H])[H])C([H])([H])c2c([H])c(OC([H])([H])C([H])(C([H])([H])N3C(=O)c4c([H])c(C([H])([H])N([H])C(=O)N5C([H])([H])C([H])([H])C([H])([H])C([H])(n6nc(-c7c([H])c([H])c(Oc8c([H])c([H])c(F)c([H])c8F)c([H])c7[H])c(C(=O)N([H])[H])c6N([H])[H])C5([H])[H])c([H])c([H])c4C([H])([H])C3([H])[H])[N+]([H])([H])[H])c([H])c([H])c2C1([H])[H]

$$$$
2:0:0
     RDKit          3D

 93102  0  0  1  0  0  0  0  0999 V2000
  -28.3460  -20.5070   20.7020 C   0  0  0  0  0  3  0  0  0  0  0  0
  -29.9270  -20.7580   19.0490 C   0  0  0  0  0  3  0  0  0  0  0  0
  -28.0300  -21.9470   20.6470 C   0  0  0  0  0  3  0  0  0  0  0  0
  -29.5960  -22.2150   18.9840 C   0  0  0  0  0  3  0  0  0  0  0  0
  -29.3070  -19.7550   19.9100 C   0  0  0  0  0  0  0  0  0  0  0  0
  -28.6140  -22.9520   19.7820 C   0  0  0  0  0  0  0  0  0  0  0  0
  -30.9630  -15.4450   19.3970 C   0  0  0  0  0  0  0  0  0  0  0  0
  -30.6780  -13.0530   18.4930 C   0  0  0  0  0  2  0  0  0  0  0  0
  -29.5870  -12.8450   17.4210 C   0  0  0  0  0  2  0  0  0  0  0  0
  -28.2440  -12.5440   18.0980 C   0  0  0  0  0  2  0  0  0  0  0  0
  -27.9640  -13.4960   19.2890 C   0  0  0  0  0  3  0  0  0  0  0  0
  -29.1760  -13.6990   20.2220 C   0  0  0  0  0  2  0  0  0  0  0  0
  -30.2680  -14.2090   19.3800 N   0  0  0  0  0  0  0  0  0  0  0  0
  -32.1230  -15.3120   18.9840 O   0  0  0  0  0  0  0  0  0  0  0  0
  -31.5310  -17.6150   20.4580 C   0  0  0  0  0  2  0  0  0  0  0  0
  -29.5280  -18.0400   20.1530 C   0  0  0  0  0  3  0  0  0  0  0  0
  -30.3780  -17.9410   21.4280 C   0  0  0  0  0  3  0  0  0  0  0  0
  -30.5580  -16.8500   19.6730 N   0  0  0  0  0  0  0  0  0  0  0  0
  -25.8100  -13.9790   20.5560 C   0  0  0  0  0  0  0  0  0  0  0  0
  -24.8120  -13.1740   21.0280 C   0  0  0  0  0  0  0  0  0  0  0  0
  -25.2190  -11.8320   20.7480 C   0  0  0  0  0  0  0  0  0  0  0  0
  -26.7540  -13.1310   20.0120 N   0  0  0  0  0  0  0  0  0  0  0  0
  -26.4270  -11.8240   20.1930 N   0  0  0  0  0  0  0  0  0  0  0  0
  -24.4990  -10.5640   20.9230 C   0  0  0  0  0  0  0  0  0  0  0  0
  -24.9420   -9.5790   21.8320 C   0  0  0  0  0  3  0  0  0  0  0  0
  -24.2180   -8.3780   21.9990 C   0  0  0  0  0  3  0  0  0  0  0  0
  -23.0350   -8.1540   21.2530 C   0  0  0  0  0  0  0  0  0  0  0  0
  -22.6110   -9.1280   20.3320 C   0  0  0  0  0  3  0  0  0  0  0  0
  -23.3360  -10.3190   20.1640 C   0  0  0  0  0  3  0  0  0  0  0  0
  -22.2820   -7.0080   21.3310 O   0  0  0  0  0  0  0  0  0  0  0  0
  -22.0530   -6.3760   22.5260 C   0  0  0  0  0  0  0  0  0  0  0  0
  -21.4320   -7.0340   23.6100 C   0  0  0  0  0  3  0  0  0  0  0  0
  -21.1520   -6.3260   24.7960 C   0  0  0  0  0  3  0  0  0  0  0  0
  -21.4840   -4.9630   24.8980 C   0  0  0  0  0  0  0  0  0  0  0  0
  -22.0980   -4.3040   23.8180 C   0  0  0  0  0  3  0  0  0  0  0  0
  -22.3780   -5.0090   22.6340 C   0  0  0  0  0  0  0  0  0  0  0  0
  -22.9500   -4.3650   21.5890 F   0  0  0  0  0  0  0  0  0  0  0  0
  -21.2100   -4.2800   26.0340 F   0  0  0  0  0  0  0  0  0  0  0  0
  -23.5080  -13.6300   21.6090 C   0  0  0  0  0  0  0  0  0  0  0  0
  -22.9570  -12.8710   22.5500 N   0  0  0  0  0  0  0  0  0  0  0  0
  -22.9940  -14.6940   21.2660 O   0  0  0  0  0  0  0  0  0  0  0  0
  -23.3900  -12.0080   22.8440 H   0  0  0  0  0  0  0  0  0  0  0  0
  -22.0910  -13.1580   22.9820 H   0  0  0  0  0  0  0  0  0  0  0  0
  -25.9830  -15.3610   20.5120 N   0  0  0  0  0  0  0  0  0  0  0  0
  -25.2610  -16.0000   20.8290 H   0  0  0  0  0  0  0  0  0  0  0  0
  -26.7420  -15.8260   20.0310 H   0  0  0  0  0  0  0  0  0  0  0  0
  -29.9800  -16.9590   22.5450 C   0  0  0  0  0  2  0  0  0  0  0  0
  -30.6890  -17.2270   23.8100 N   0  0  0  0  0  4  0  0  0  0  0  0
  -31.6840  -17.1840   23.6900 H   0  0  0  0  0  0  0  0  0  0  0  0
  -30.4300  -16.5440   24.5000 H   0  0  0  0  0  0  0  0  0  0  0  0
  -30.4450  -18.1320   24.1730 H   0  0  0  0  0  0  0  0  0  0  0  0
  -27.9120  -24.5170   19.5290 C   0  0  0  0  0  2  0  0  0  0  0  0
  -28.2540  -26.0610   19.8950 O   0  0  0  0  0  0  0  0  0  0  0  0
  -24.6510  -31.8070   23.1090 C   0  0  0  0  0  0  0  0  0  0  0  0
  -27.2460  -27.1460   19.8550 C   0  0  0  0  0  0  0  0  0  0  0  0
  -23.4520  -30.4440   21.4490 C   0  0  0  0  0  3  0  0  0  0  0  0
  -24.9060  -28.9460   19.9270 C   0  0  0  0  0  0  0  0  0  0  0  0
  -26.0070  -30.7350   21.2510 C   0  0  0  0  0  2  0  0  0  0  0  0
  -26.0950  -29.3580   20.5410 C   0  0  0  0  0  0  0  0  0  0  0  0
  -27.2610  -28.4770   20.4870 C   0  0  0  0  0  3  0  0  0  0  0  0
  -26.0300  -26.8900   19.1810 C   0  0  0  0  0  3  0  0  0  0  0  0
  -24.8950  -27.7320   19.2260 C   0  0  0  0  0  3  0  0  0  0  0  0
  -23.6630  -29.8260   20.0400 C   0  0  0  0  0  2  0  0  0  0  0  0
  -24.7250  -31.0190   21.9890 N   0  0  0  0  0  0  0  0  0  0  0  0
  -23.5680  -32.0470   23.6660 O   0  0  0  0  0  0  0  0  0  0  0  0
  -22.8140  -29.3880   22.3890 C   0  0  0  0  0  0  0  0  0  0  0  0
  -21.4980  -29.1440   22.2440 N   0  0  0  0  0  0  0  0  0  0  0  0
  -23.5060  -28.7930   23.2170 O   0  0  0  0  0  0  0  0  0  0  0  0
  -20.9890  -29.6780   21.5540 H   0  0  0  0  0  0  0  0  0  0  0  0
  -18.1980  -27.6950   22.6570 C   0  0  0  0  0  0  0  0  0  0  0  0
  -20.7230  -28.1490   22.9930 C   0  0  0  0  0  3  0  0  0  0  0  0
  -20.9460  -26.7270   22.4250 C   0  0  0  0  0  2  0  0  0  0  0  0
  -19.9010  -26.3230   21.3810 C   0  0  0  0  0  2  0  0  0  0  0  0
  -18.4930  -26.3640   21.9850 C   0  0  0  0  0  2  0  0  0  0  0  0
  -19.2440  -28.5390   23.1150 C   0  0  0  0  0  0  0  0  0  0  0  0
  -18.9140  -29.7790   23.7050 C   0  0  0  0  0  3  0  0  0  0  0  0
  -17.5700  -30.1770   23.8390 C   0  0  0  0  0  3  0  0  0  0  0  0
  -16.5380  -29.3320   23.3950 C   0  0  0  0  0  3  0  0  0  0  0  0
  -16.8530  -28.0920   22.8090 C   0  0  0  0  0  3  0  0  0  0  0  0
  -25.9210  -32.4590   23.7330 C   0  0  0  0  0  3  0  0  0  0  0  0
  -26.4700  -31.6680   24.9850 C   0  0  1  0  0  0  0  0  0  0  0  0
  -25.3910  -31.3500   26.0450 C   0  0  0  0  0  1  0  0  0  0  0  0
  -27.1100  -30.3290   24.5540 C   0  0  0  0  0  1  0  0  0  0  0  0
  -27.5890  -32.4880   25.6710 C   0  0  0  0  0  1  0  0  0  0  0  0
  -25.5770  -33.8390   24.1170 N   0  0  0  0  0  0  0  0  0  0  0  0
  -25.8510  -34.9290   23.3870 C   0  0  0  0  0  0  0  0  0  0  0  0
  -26.4840  -34.8800   22.3300 O   0  0  0  0  0  0  0  0  0  0  0  0
  -25.0110  -33.9480   24.9450 H   0  0  0  0  0  0  0  0  0  0  0  0
  -24.0540  -36.6810   23.1840 C   0  0  0  0  0  1  0  0  0  0  0  0
  -25.3480  -36.2890   23.9150 C   0  0  0  0  0  3  0  0  0  0  0  0
  -27.4920  -37.2230   24.6660 C   0  0  0  0  0  1  0  0  0  0  0  0
  -26.3390  -37.3780   23.7820 N   0  0  0  0  0  0  0  0  0  0  0  0
  -25.9120  -38.2800   23.9750 H   0  0  0  0  0  0  0  0  0  0  0  0
  2  5  1  0
  3  1  1  0
  4  2  2  0
  4  6  1  0
  5  1  2  0
  6  3  2  0
  7 18  1  0
  8 13  1  0
  9 10  1  0
  9  8  1  0
 11 10  1  0
 11 22  1  0
 11 12  1  0
 13  7  1  0
 13 12  1  0
 14  7  2  0
 15 17  1  0
 16  5  1  0
 16 17  1  0
 17 47  1  0
 18 16  1  0
 18 15  1  0
 19 20  2  0
 20 39  1  0
 21 24  1  0
 21 20  1  0
 22 23  1  0
 22 19  1  0
 23 21  2  0
 24 25  1  0
 25 26  2  0
 27 30  1  0
 27 26  1  0
 28 27  2  0
 29 28  1  0
 29 24  2  0
 30 31  1  0
 31 36  2  0
 31 32  1  0
 32 33  2  0
 33 34  1  0
 34 38  1  0
 35 34  2  0
 36 35  1  0
 37 36  1  0
 39 40  1  0
 40 42  1  0
 40 43  1  0
 41 39  2  0
 44 19  1  0
 44 45  1  0
 46 44  1  0
 47 48  1  0
 48 51  1  0
 48 50  1  0
 49 48  1  0
 52  6  1  0
 52 53  1  0
 54 65  2  0
 55 53  1  0
 55 60  1  0
 56 64  1  0
 56 66  1  0
 57 63  1  0
 57 59  1  0
 58 64  1  0
 59 58  1  0
 60 59  2  0
 61 62  1  0
 61 55  2  0
 62 57  2  0
 63 56  1  0
 64 54  1  0
 66 68  2  0
 67 66  1  0
 69 67  1  0
 70 79  2  0
 70 75  1  0
 71 67  1  0
 71 75  1  0
 72 71  1  0
 73 74  1  0
 73 72  1  0
 74 70  1  0
 75 76  2  0
 76 77  1  0
 78 77  2  0
 79 78  1  0
 80 54  1  0
 80 85  1  0
 80 81  1  0
 81 84  1  1
 81 82  1  0
 83 81  1  0
 85 88  1  0
 86 90  1  0
 86 85  1  0
 87 86  2  0
 90 89  1  0
 92 90  1  0
 92 93  1  0
 92 91  1  0
M  ISO  4   7 100  18 100  52 101  53 101
M  END
>  <TORSDO>  (3) 
F 19

>  <SCORE>  (3) 
-12.787

>  <name>  (3) 
2

>  <ligand_id>  (3) 
2

>  <original_smiles>  (3) 
[H]c1c([H])c([H])c2c(c1[H])C([H])([H])C([H])([H])C([H])([H])C2([H])N([H])C(=O)C1([H])N(C(=O)C([H])(N([H])C(=O)C([H])(N([H])C([H])([H])[H])C([H])([H])[H])C(C([H])([H])[H])(C([H])([H])[H])C([H])([H])[H])C([H])([H])c2c([H])c(OC([H])([H])c3c([H])c([H])c(C4([H])N(C(=O)N5C([H])([H])C([H])([H])C([H])([H])C([H])(n6nc(-c7c([H])c([H])c(Oc8c([H])c([H])c(F)c([H])c8F)c([H])c7[H])c(C(=O)N([H])[H])c6N([H])[H])C5([H])[H])C([H])([H])C4([H])C([H])([H])[N+]([H])([H])[H])c([H])c3[H])c([H])c([H])c2C1([H])[H]

>  <smiles>  (3) 
[H]c1c([H])c([H])c2c(c1[H])C([H])([H])C([H])([H])C([H])([H])C2([H])N([H])C(=O)C1([H])N(C(=O)C([H])(N([H])C(=O)C([H])(N([H])C([H])([H])[H])C([H])([H])[H])C(C([H])([H])[H])(C([H])([H])[H])C([H])([H])[H])C([H])([H])c2c([H])c(OC([H])([H])c3c([H])c([H])c(C4([H])N(C(=O)N5C([H])([H])C([H])([H])C([H])([H])C([H])(n6nc(-c7c([H])c([H])c(Oc8c([H])c([H])c(F)c([H])c8F)c([H])c7[H])c(C(=O)N([H])[H])c6N([H])[H])C5([H])[H])C([H])([H])C4([H])C([H])([H])[N+]([H])([H])[H])c([H])c3[H])c([H])c([H])c2C1([H])[H]

$$$$
3:0:0
     RDKit          3D

102110  0  0  1  0  0  0  0  0999 V2000
  -29.4950  -20.3970   19.0550 C   0  0  0  0  0  3  0  0  0  0  0  0
  -30.6790  -19.7690   19.7520 N   0  0  0  0  0  4  0  0  0  0  0  0
  -31.3510  -19.5860   19.0240 H   0  0  0  0  0  0  0  0  0  0  0  0
  -31.0810  -20.4770   20.3460 H   0  0  0  0  0  0  0  0  0  0  0  0
  -30.5780  -18.4950   20.5660 C   0  0  0  0  0  3  0  0  0  0  0  0
  -31.0550  -19.6060   22.9430 C   0  0  0  0  0  2  0  0  0  0  0  0
  -31.0010  -18.1170   23.1720 C   0  0  0  0  0  2  0  0  0  0  0  0
  -31.4320  -18.6610   21.8210 C   0  0  0  0  0  3  0  0  0  0  0  0
  -31.0620  -17.2050   19.7820 C   0  0  0  0  0  2  0  0  0  0  0  0
  -31.3860  -14.7380   20.2160 C   0  0  0  0  0  0  0  0  0  0  0  0
  -31.1000  -12.4120   19.4400 C   0  0  0  0  0  2  0  0  0  0  0  0
  -30.2010  -12.4150   18.1850 C   0  0  0  0  0  2  0  0  0  0  0  0
  -28.7130  -12.3520   18.5780 C   0  0  0  0  0  2  0  0  0  0  0  0
  -28.3440  -13.3650   19.6970 C   0  0  0  0  0  3  0  0  0  0  0  0
  -29.3680  -13.3510   20.8590 C   0  0  0  0  0  2  0  0  0  0  0  0
  -30.7030  -13.5560   20.2780 N   0  0  0  0  0  0  0  0  0  0  0  0
  -32.5650  -14.7980   19.8610 O   0  0  0  0  0  0  0  0  0  0  0  0
  -30.6440  -15.8710   20.3180 N   0  0  0  0  0  0  0  0  0  0  0  0
  -29.6910  -15.7600   20.6260 H   0  0  0  0  0  0  0  0  0  0  0  0
  -25.9980  -14.1100   20.4190 C   0  0  0  0  0  0  0  0  0  0  0  0
  -24.8790  -13.4060   20.7590 C   0  0  0  0  0  0  0  0  0  0  0  0
  -25.2430  -12.0250   20.6900 C   0  0  0  0  0  0  0  0  0  0  0  0
  -26.9790  -13.1680   20.1670 N   0  0  0  0  0  0  0  0  0  0  0  0
  -26.5290  -11.9080   20.3880 N   0  0  0  0  0  0  0  0  0  0  0  0
  -24.4280  -10.8150   20.8350 C   0  0  0  0  0  0  0  0  0  0  0  0
  -24.7550   -9.8140   21.7780 C   0  0  0  0  0  3  0  0  0  0  0  0
  -23.9450   -8.6660   21.9120 C   0  0  0  0  0  3  0  0  0  0  0  0
  -22.7940   -8.5120   21.1010 C   0  0  0  0  0  0  0  0  0  0  0  0
  -22.4880   -9.5000   20.1490 C   0  0  0  0  0  3  0  0  0  0  0  0
  -23.3000  -10.6390   20.0130 C   0  0  0  0  0  3  0  0  0  0  0  0
  -21.9620   -7.4190   21.1470 O   0  0  0  0  0  0  0  0  0  0  0  0
  -21.7700   -6.7040   22.3030 C   0  0  0  0  0  0  0  0  0  0  0  0
  -21.2900   -7.3100   23.4840 C   0  0  0  0  0  3  0  0  0  0  0  0
  -21.0380   -6.5260   24.6270 C   0  0  0  0  0  3  0  0  0  0  0  0
  -21.2610   -5.1370   24.5920 C   0  0  0  0  0  0  0  0  0  0  0  0
  -21.7360   -4.5300   23.4160 C   0  0  0  0  0  3  0  0  0  0  0  0
  -21.9860   -5.3100   22.2740 C   0  0  0  0  0  0  0  0  0  0  0  0
  -22.4220   -4.7150   21.1380 F   0  0  0  0  0  0  0  0  0  0  0  0
  -21.0130   -4.3840   25.6880 F   0  0  0  0  0  0  0  0  0  0  0  0
  -23.5150  -13.9700   21.0380 C   0  0  0  0  0  0  0  0  0  0  0  0
  -22.7510  -13.3280   21.9120 N   0  0  0  0  0  0  0  0  0  0  0  0
  -23.1460  -15.0230   20.5170 O   0  0  0  0  0  0  0  0  0  0  0  0
  -23.0690  -12.4750   22.3480 H   0  0  0  0  0  0  0  0  0  0  0  0
  -21.8400  -13.6930   22.1490 H   0  0  0  0  0  0  0  0  0  0  0  0
  -26.2650  -15.4720   20.2750 N   0  0  0  0  0  0  0  0  0  0  0  0
  -25.5340  -16.1680   20.3620 H   0  0  0  0  0  0  0  0  0  0  0  0
  -27.1200  -15.8420   19.8820 H   0  0  0  0  0  0  0  0  0  0  0  0
  -29.2800  -21.9850   19.1530 C   0  0  0  0  0  2  0  0  0  0  0  0
  -28.9200  -22.6380   20.4320 N   0  0  0  0  0  0  0  0  0  0  0  0
  -29.7940  -22.9030   20.8850 H   0  0  0  0  0  0  0  0  0  0  0  0
  -28.0770  -23.8780   20.4140 C   0  0  0  0  0  2  0  0  0  0  0  0
  -28.5020  -25.1040   19.5070 C   0  0  0  0  0  2  0  0  0  0  0  0
  -28.3790  -26.4520   20.0480 O   0  0  0  0  0  0  0  0  0  0  0  0
  -24.5950  -31.7000   23.1020 C   0  0  0  0  0  0  0  0  0  0  0  0
  -27.2090  -27.2090   19.9880 C   0  0  0  0  0  0  0  0  0  0  0  0
  -23.3890  -30.3480   21.4260 C   0  0  0  0  0  3  0  0  0  0  0  0
  -24.8330  -28.7920   19.9940 C   0  0  0  0  0  0  0  0  0  0  0  0
  -25.9250  -30.6530   21.2610 C   0  0  0  0  0  2  0  0  0  0  0  0
  -25.9950  -29.2830   20.6010 C   0  0  0  0  0  0  0  0  0  0  0  0
  -27.1790  -28.5000   20.5890 C   0  0  0  0  0  3  0  0  0  0  0  0
  -26.0220  -26.7480   19.3720 C   0  0  0  0  0  3  0  0  0  0  0  0
  -24.8470  -27.5310   19.3750 C   0  0  0  0  0  3  0  0  0  0  0  0
  -23.5950  -29.6710   20.0430 C   0  0  0  0  0  2  0  0  0  0  0  0
  -24.6560  -30.9140   21.9900 N   0  0  0  0  0  0  0  0  0  0  0  0
  -23.5130  -31.9740   23.6380 O   0  0  0  0  0  0  0  0  0  0  0  0
  -22.7100  -29.3250   22.3640 C   0  0  0  0  0  0  0  0  0  0  0  0
  -21.3790  -29.2040   22.2470 N   0  0  0  0  0  0  0  0  0  0  0  0
  -23.3770  -28.6520   23.1550 O   0  0  0  0  0  0  0  0  0  0  0  0
  -20.9040  -29.8150   21.5980 H   0  0  0  0  0  0  0  0  0  0  0  0
  -17.9740  -28.1020   22.7340 C   0  0  0  0  0  0  0  0  0  0  0  0
  -20.5410  -28.2680   22.9930 C   0  0  0  0  0  3  0  0  0  0  0  0
  -20.5800  -26.8560   22.3670 C   0  0  0  0  0  2  0  0  0  0  0  0
  -19.4800  -26.6420   21.3300 C   0  0  0  0  0  2  0  0  0  0  0  0
  -18.1030  -26.7860   21.9840 C   0  0  0  0  0  2  0  0  0  0  0  0
  -19.1210  -28.8070   23.1870 C   0  0  0  0  0  0  0  0  0  0  0  0
  -18.9540  -30.0530   23.8280 C   0  0  0  0  0  3  0  0  0  0  0  0
  -17.6700  -30.5930   24.0250 C   0  0  0  0  0  3  0  0  0  0  0  0
  -16.5340  -29.8840   23.5980 C   0  0  0  0  0  3  0  0  0  0  0  0
  -16.6870  -28.6420   22.9550 C   0  0  0  0  0  3  0  0  0  0  0  0
  -25.8830  -32.2980   23.7500 C   0  0  0  0  0  3  0  0  0  0  0  0
  -25.5860  -33.6870   24.1280 N   0  0  0  0  0  0  0  0  0  0  0  0
  -25.9370  -34.7610   23.4080 C   0  0  0  0  0  0  0  0  0  0  0  0
  -26.6160  -34.6840   22.3800 O   0  0  0  0  0  0  0  0  0  0  0  0
  -24.9720  -33.8190   24.9200 H   0  0  0  0  0  0  0  0  0  0  0  0
  -24.2260  -36.5760   23.0970 C   0  0  0  0  0  1  0  0  0  0  0  0
  -25.4570  -36.1350   23.9040 C   0  0  0  0  0  3  0  0  0  0  0  0
  -27.5900  -36.9750   24.7820 C   0  0  0  0  0  1  0  0  0  0  0  0
  -26.4980  -37.1830   23.8330 N   0  0  0  0  0  0  0  0  0  0  0  0
  -26.1000  -38.1020   24.0110 H   0  0  0  0  0  0  0  0  0  0  0  0
  -26.3900  -31.4790   25.0020 C   0  0  1  0  0  0  0  0  0  0  0  0
  -25.2940  -31.2120   26.0610 C   0  0  0  0  0  1  0  0  0  0  0  0
  -26.9680  -30.1120   24.5650 C   0  0  0  0  0  1  0  0  0  0  0  0
  -27.5420  -32.2440   25.6970 C   0  0  0  0  0  1  0  0  0  0  0  0
  -28.2150  -19.5240   18.8450 C   0  0  0  0  0  3  0  0  0  0  0  0
  -27.5970  -19.9070   17.5740 N   0  0  0  0  0  0  0  0  0  0  0  0
  -26.9320  -20.6650   17.6880 H   0  0  0  0  0  0  0  0  0  0  0  0
  -27.1020  -19.1500   17.1080 H   0  0  0  0  0  0  0  0  0  0  0  0
  -27.1630  -19.6040   19.9790 C   0  0  0  0  0  2  0  0  0  0  0  0
  -26.0040  -18.7360   19.7030 N   0  0  0  0  0  4  0  0  0  0  0  0
  -26.2530  -17.7640   19.7040 H   0  0  0  0  0  0  0  0  0  0  0  0
  -25.6050  -18.9630   18.8110 H   0  0  0  0  0  0  0  0  0  0  0  0
  -25.3010  -18.8790   20.4080 H   0  0  0  0  0  0  0  0  0  0  0  0
  1 48  1  0
  1  2  1  0
  2  4  1  0
  2  5  1  0
  3  2  1  0
  5  9  1  0
  5  8  1  0
  6  7  1  0
  8  6  1  0
  8  7  1  0
  9 18  1  0
 10 16  1  0
 10 18  1  0
 11 16  1  0
 12 13  1  0
 12 11  1  0
 14 13  1  0
 14 23  1  0
 14 15  1  0
 16 15  1  0
 17 10  2  0
 18 19  1  0
 20 21  2  0
 21 40  1  0
 22 21  1  0
 22 25  1  0
 23 24  1  0
 23 20  1  0
 24 22  2  0
 25 26  1  0
 26 27  2  0
 28 31  1  0
 28 27  1  0
 29 28  2  0
 30 29  1  0
 30 25  2  0
 31 32  1  0
 32 33  1  0
 33 34  2  0
 35 34  1  0
 35 39  1  0
 36 35  2  0
 37 32  2  0
 37 36  1  0
 38 37  1  0
 40 41  1  0
 41 44  1  0
 41 43  1  0
 42 40  2  0
 45 46  1  0
 45 20  1  0
 47 45  1  0
 48 49  1  0
 49 50  1  0
 51 49  1  0
 52 53  1  0
 52 51  1  0
 54 65  2  0
 55 53  1  0
 55 60  1  0
 56 64  1  0
 56 66  1  0
 57 63  1  0
 57 59  1  0
 58 64  1  0
 59 58  1  0
 60 59  2  0
 61 62  1  0
 61 55  2  0
 62 57  2  0
 63 56  1  0
 64 54  1  0
 66 68  2  0
 67 66  1  0
 69 67  1  0
 70 79  2  0
 70 75  1  0
 71 67  1  0
 71 75  1  0
 72 71  1  0
 73 74  1  0
 73 72  1  0
 74 70  1  0
 75 76  2  0
 76 77  1  0
 78 77  2  0
 79 78  1  0
 80 54  1  0
 80 81  1  0
 80 90  1  0
 81 84  1  0
 82 86  1  0
 82 81  1  0
 83 82  2  0
 86 85  1  0
 88 86  1  0
 88 89  1  0
 88 87  1  0
 90 93  1  1
 90 91  1  0
 92 90  1  0
 94  1  1  0
 94 98  1  0
 95 96  1  0
 95 94  1  0
 97 95  1  0
 99100  1  0
 99 98  1  0
 99102  1  0
101 99  1  0
M  ISO  4  10 100  18 100  52 101  53 101
M  END
>  <TORSDO>  (4) 
F 28

>  <SCORE>  (4) 
-10.348

>  <name>  (4) 
3

>  <ligand_id>  (4) 
3

>  <original_smiles>  (4) 
[H]c1c([H])c([H])c2c(c1[H])C([H])([H])C([H])([H])C([H])([H])C2([H])N([H])C(=O)C1([H])N(C(=O)C([H])(N([H])C(=O)C([H])(N([H])C([H])([H])[H])C([H])([H])[H])C(C([H])([H])[H])(C([H])([H])[H])C([H])([H])[H])C([H])([H])c2c([H])c(OC([H])([H])C([H])([H])N([H])C([H])([H])C([H])(C([H])(N([H])[H])C([H])([H])[N+]([H])([H])[H])[N+]([H])([H])C([H])(C([H])([H])N([H])C(=O)N3C([H])([H])C([H])([H])C([H])([H])C([H])(n4nc(-c5c([H])c([H])c(Oc6c([H])c([H])c(F)c([H])c6F)c([H])c5[H])c(C(=O)N([H])[H])c4N([H])[H])C3([H])[H])C3([H])C([H])([H])C3([H])[H])c([H])c([H])c2C1([H])[H]

>  <smiles>  (4) 
[H]c1c([H])c([H])c2c(c1[H])C([H])([H])C([H])([H])C([H])([H])C2([H])N([H])C(=O)C1([H])N(C(=O)C([H])(N([H])C(=O)C([H])(N([H])C([H])([H])[H])C([H])([H])[H])C(C([H])([H])[H])(C([H])([H])[H])C([H])([H])[H])C([H])([H])c2c([H])c(OC([H])([H])C([H])([H])N([H])C([H])([H])C([H])(C([H])(N([H])[H])C([H])([H])[N+]([H])([H])[H])[N+]([H])([H])C([H])(C([H])([H])N([H])C(=O)N3C([H])([H])C([H])([H])C([H])([H])C([H])(n4nc(-c5c([H])c([H])c(Oc6c([H])c([H])c(F)c([H])c6F)c([H])c5[H])c(C(=O)N([H])[H])c4N([H])[H])C3([H])[H])C3([H])C([H])([H])C3([H])[H])c([H])c([H])c2C1([H])[H]

$$$$
4:0:0
     RDKit          3D

100109  0  0  1  0  0  0  0  0999 V2000
  -29.7590  -22.2820   19.3570 C   0  0  0  0  0  3  0  0  0  0  0  0
  -28.9850  -23.8440   21.5370 C   0  0  0  0  0  3  0  0  0  0  0  0
  -29.2580  -21.6050   20.5030 C   0  0  0  0  0  0  0  0  0  0  0  0
  -28.8830  -22.4310   21.6110 C   0  0  0  0  0  0  0  0  0  0  0  0
  -29.4620  -24.5220   20.3930 C   0  0  0  0  0  0  0  0  0  0  0  0
  -29.8680  -23.7050   19.2990 C   0  0  0  0  0  0  0  0  0  0  0  0
  -28.3630  -21.8650   22.9290 C   0  0  0  0  0  1  0  0  0  0  0  0
  -30.3930  -24.2860   18.1440 N   0  0  0  0  0  0  0  0  0  0  0  0
  -30.4100  -23.7450   17.2860 H   0  0  0  0  0  0  0  0  0  0  0  0
  -30.2130  -25.2730   17.9870 H   0  0  0  0  0  0  0  0  0  0  0  0
  -28.9800  -20.1000   20.5020 C   0  0  0  0  0  0  0  0  0  0  0  0
  -27.8560  -19.6830   20.7970 O   0  0  0  0  0  0  0  0  0  0  0  0
  -31.4790  -14.8120   19.8380 C   0  0  0  0  0  0  0  0  0  0  0  0
  -31.1610  -12.5240   18.9440 C   0  0  0  0  0  2  0  0  0  0  0  0
  -30.1790  -12.5730   17.7570 C   0  0  0  0  0  2  0  0  0  0  0  0
  -28.7260  -12.4530   18.2580 C   0  0  0  0  0  2  0  0  0  0  0  0
  -28.4170  -13.4100   19.4410 C   0  0  0  0  0  3  0  0  0  0  0  0
  -29.5180  -13.3620   20.5210 C   0  0  0  0  0  2  0  0  0  0  0  0
  -30.8020  -13.6240   19.8580 N   0  0  0  0  0  0  0  0  0  0  0  0
  -32.6300  -14.8840   19.3970 O   0  0  0  0  0  0  0  0  0  0  0  0
  -29.5100  -17.9850   19.1580 C   0  0  0  0  0  2  0  0  0  0  0  0
  -30.4390  -16.7680   18.8860 C   0  0  0  0  0  2  0  0  0  0  0  0
  -31.3600  -16.8950   21.0880 C   0  0  0  0  0  2  0  0  0  0  0  0
  -30.0650  -19.0060   20.1890 C   0  0  0  0  0  3  0  0  0  0  0  0
  -30.4940  -18.1560   21.4410 C   0  0  0  0  0  3  0  0  0  0  0  0
  -30.7800  -15.9700   20.0880 N   0  0  0  0  0  0  0  0  0  0  0  0
  -26.0990  -14.0640   20.3340 C   0  0  0  0  0  0  0  0  0  0  0  0
  -25.0290  -13.3160   20.7420 C   0  0  0  0  0  0  0  0  0  0  0  0
  -25.4360  -11.9500   20.6320 C   0  0  0  0  0  0  0  0  0  0  0  0
  -27.0920  -13.1580   20.0010 N   0  0  0  0  0  0  0  0  0  0  0  0
  -26.7020  -11.8810   20.2410 N   0  0  0  0  0  0  0  0  0  0  0  0
  -24.6760  -10.7080   20.8220 C   0  0  0  0  0  0  0  0  0  0  0  0
  -25.0620   -9.7450   21.7790 C   0  0  0  0  0  3  0  0  0  0  0  0
  -24.3020   -8.5670   21.9570 C   0  0  0  0  0  3  0  0  0  0  0  0
  -23.1450   -8.3460   21.1740 C   0  0  0  0  0  0  0  0  0  0  0  0
  -22.7770   -9.2990   20.2070 C   0  0  0  0  0  3  0  0  0  0  0  0
  -23.5370  -10.4660   20.0280 C   0  0  0  0  0  3  0  0  0  0  0  0
  -22.3610   -7.2200   21.2580 O   0  0  0  0  0  0  0  0  0  0  0  0
  -22.1410   -6.5820   22.4520 C   0  0  0  0  0  0  0  0  0  0  0  0
  -21.5410   -7.2390   23.5470 C   0  0  0  0  0  3  0  0  0  0  0  0
  -21.2710   -6.5280   24.7330 C   0  0  0  0  0  3  0  0  0  0  0  0
  -21.5930   -5.1600   24.8240 C   0  0  0  0  0  0  0  0  0  0  0  0
  -22.1870   -4.5030   23.7330 C   0  0  0  0  0  3  0  0  0  0  0  0
  -22.4580   -5.2120   22.5490 C   0  0  0  0  0  0  0  0  0  0  0  0
  -23.0120   -4.5690   21.4930 F   0  0  0  0  0  0  0  0  0  0  0  0
  -21.3270   -4.4770   25.9610 F   0  0  0  0  0  0  0  0  0  0  0  0
  -23.6710  -13.8310   21.1210 C   0  0  0  0  0  0  0  0  0  0  0  0
  -22.9870  -13.1450   22.0300 N   0  0  0  0  0  0  0  0  0  0  0  0
  -23.2300  -14.8780   20.6480 O   0  0  0  0  0  0  0  0  0  0  0  0
  -23.3600  -12.2960   22.4300 H   0  0  0  0  0  0  0  0  0  0  0  0
  -22.0770  -13.4710   22.3270 H   0  0  0  0  0  0  0  0  0  0  0  0
  -26.3060  -15.4330   20.1970 N   0  0  0  0  0  0  0  0  0  0  0  0
  -25.5780  -16.1160   20.3840 H   0  0  0  0  0  0  0  0  0  0  0  0
  -27.1520  -15.8480   19.8270 H   0  0  0  0  0  0  0  0  0  0  0  0
  -31.2110  -18.9570   22.4610 N   0  0  0  0  0  4  0  0  0  0  0  0
  -32.0650  -19.3460   22.0970 H   0  0  0  0  0  0  0  0  0  0  0  0
  -31.4540  -18.3740   23.2430 H   0  0  0  0  0  0  0  0  0  0  0  0
  -30.6490  -19.7050   22.8270 H   0  0  0  0  0  0  0  0  0  0  0  0
  -29.6580  -26.0710   20.4950 C   0  0  0  0  0  2  0  0  0  0  0  0
  -29.2160  -26.9170   19.4070 O   0  0  0  0  0  0  0  0  0  0  0  0
  -24.8670  -31.3620   23.0550 C   0  0  0  0  0  0  0  0  0  0  0  0
  -28.0010  -27.5690   19.5510 C   0  0  0  0  0  0  0  0  0  0  0  0
  -23.8360  -30.0400   21.2400 C   0  0  0  0  0  3  0  0  0  0  0  0
  -25.4620  -28.8330   19.6810 C   0  0  0  0  0  0  0  0  0  0  0  0
  -26.3130  -30.6750   21.1370 C   0  0  0  0  0  2  0  0  0  0  0  0
  -26.5560  -29.3960   20.3530 C   0  0  0  0  0  0  0  0  0  0  0  0
  -27.8310  -28.7720   20.2860 C   0  0  0  0  0  3  0  0  0  0  0  0
  -26.8910  -27.0340   18.8710 C   0  0  0  0  0  3  0  0  0  0  0  0
  -25.6260  -27.6510   18.9370 C   0  0  0  0  0  3  0  0  0  0  0  0
  -24.1310  -29.5460   19.7970 C   0  0  0  0  0  2  0  0  0  0  0  0
  -25.0220  -30.7030   21.8710 N   0  0  0  0  0  0  0  0  0  0  0  0
  -23.7580  -31.4530   23.6000 O   0  0  0  0  0  0  0  0  0  0  0  0
  -23.2840  -28.8550   22.0640 C   0  0  0  0  0  0  0  0  0  0  0  0
  -22.0020  -28.5170   21.8490 N   0  0  0  0  0  0  0  0  0  0  0  0
  -24.0100  -28.2440   22.8530 O   0  0  0  0  0  0  0  0  0  0  0  0
  -21.4720  -29.0700   21.1900 H   0  0  0  0  0  0  0  0  0  0  0  0
  -18.8250  -26.7930   21.9940 C   0  0  0  0  0  0  0  0  0  0  0  0
  -21.2890  -27.4070   22.4820 C   0  0  0  0  0  3  0  0  0  0  0  0
  -21.6500  -26.0620   21.8120 C   0  0  0  0  0  2  0  0  0  0  0  0
  -20.6800  -25.6640   20.6940 C   0  0  0  0  0  2  0  0  0  0  0  0
  -19.2520  -25.5470   21.2360 C   0  0  0  0  0  2  0  0  0  0  0  0
  -19.7830  -27.6740   22.5650 C   0  0  0  0  0  0  0  0  0  0  0  0
  -19.3350  -28.8350   23.2310 C   0  0  0  0  0  3  0  0  0  0  0  0
  -17.9600  -29.1230   23.3300 C   0  0  0  0  0  3  0  0  0  0  0  0
  -17.0160  -28.2430   22.7760 C   0  0  0  0  0  3  0  0  0  0  0  0
  -17.4480  -27.0770   22.1170 C   0  0  0  0  0  3  0  0  0  0  0  0
  -26.0690  -32.0510   23.7710 C   0  0  0  0  0  3  0  0  0  0  0  0
  -26.5910  -31.2480   25.0270 C   0  0  1  0  0  0  0  0  0  0  0  0
  -25.4770  -30.8700   26.0300 C   0  0  0  0  0  1  0  0  0  0  0  0
  -27.2920  -29.9420   24.5870 C   0  0  0  0  0  1  0  0  0  0  0  0
  -27.6490  -32.0870   25.7800 C   0  0  0  0  0  1  0  0  0  0  0  0
  -25.6380  -33.4010   24.1610 N   0  0  0  0  0  0  0  0  0  0  0  0
  -25.9240  -34.5170   23.4800 C   0  0  0  0  0  0  0  0  0  0  0  0
  -26.6470  -34.5270   22.4800 O   0  0  0  0  0  0  0  0  0  0  0  0
  -24.9990  -33.4630   24.9390 H   0  0  0  0  0  0  0  0  0  0  0  0
  -24.0760  -36.1920   23.1430 C   0  0  0  0  0  1  0  0  0  0  0  0
  -25.3100  -35.8360   23.9880 C   0  0  0  0  0  3  0  0  0  0  0  0
  -27.3260  -36.8350   24.9720 C   0  0  0  0  0  1  0  0  0  0  0  0
  -26.2600  -36.9700   23.9810 N   0  0  0  0  0  0  0  0  0  0  0  0
  -25.7770  -37.8470   24.1570 H   0  0  0  0  0  0  0  0  0  0  0  0
  1  3  1  0
  2  4  1  0
  3  4  2  0
  4  7  1  0
  5 59  1  0
  5  2  2  0
  6  1  2  0
  6  5  1  0
  8  6  1  0
  9  8  1  0
 10  8  1  0
 11  3  1  0
 11 12  2  0
 13 19  1  0
 13 26  1  0
 14 19  1  0
 15 16  1  0
 15 14  1  0
 17 16  1  0
 17 30  1  0
 17 18  1  0
 19 18  1  0
 20 13  2  0
 21 24  1  0
 22 21  1  0
 22 26  1  0
 23 25  1  0
 24 11  1  0
 24 25  1  0
 25 55  1  0
 26 23  1  0
 27 28  2  0
 28 47  1  0
 29 28  1  0
 29 32  1  0
 30 31  1  0
 30 27  1  0
 31 29  2  0
 32 33  1  0
 33 34  2  0
 35 38  1  0
 35 34  1  0
 36 35  2  0
 37 36  1  0
 37 32  2  0
 38 39  1  0
 39 44  2  0
 39 40  1  0
 40 41  2  0
 41 42  1  0
 42 46  1  0
 43 42  2  0
 44 43  1  0
 45 44  1  0
 47 48  1  0
 48 51  1  0
 48 50  1  0
 49 47  2  0
 52 27  1  0
 52 53  1  0
 54 52  1  0
 55 58  1  0
 55 57  1  0
 56 55  1  0
 60 62  1  0
 60 59  1  0
 61 72  2  0
 62 67  1  0
 63 71  1  0
 63 73  1  0
 64 70  1  0
 64 66  1  0
 65 71  1  0
 66 65  1  0
 67 66  2  0
 68 69  1  0
 68 62  2  0
 69 64  2  0
 70 63  1  0
 71 61  1  0
 73 75  2  0
 74 73  1  0
 76 74  1  0
 77 86  2  0
 77 82  1  0
 78 74  1  0
 78 82  1  0
 79 78  1  0
 80 81  1  0
 80 79  1  0
 81 77  1  0
 82 83  2  0
 83 84  1  0
 85 84  2  0
 86 85  1  0
 87 61  1  0
 87 92  1  0
 87 88  1  0
 88 91  1  1
 88 89  1  0
 90 88  1  0
 92 95  1  0
 93 97  1  0
 93 92  1  0
 94 93  2  0
 97 96  1  0
 99 97  1  0
 99100  1  0
 99 98  1  0
M  ISO  4  13 100  26 100  59 101  60 101
M  END
>  <TORSDO>  (5) 
F 20

>  <SCORE>  (5) 
-10.306

>  <name>  (5) 
4

>  <ligand_id>  (5) 
4

>  <original_smiles>  (5) 
[H]c1c([H])c([H])c2c(c1[H])C([H])([H])C([H])([H])C([H])([H])C2([H])N([H])C(=O)C1([H])N(C(=O)C([H])(N([H])C(=O)C([H])(N([H])C([H])([H])[H])C([H])([H])[H])C(C([H])([H])[H])(C([H])([H])[H])C([H])([H])[H])C([H])([H])c2c([H])c(OC([H])([H])c3c([H])c(C([H])([H])[H])c(C(=O)C4([H])C([H])([H])C([H])([H])N(C(=O)N5C([H])([H])C([H])([H])C([H])([H])C([H])(n6nc(-c7c([H])c([H])c(Oc8c([H])c([H])c(F)c([H])c8F)c([H])c7[H])c(C(=O)N([H])[H])c6N([H])[H])C5([H])[H])C([H])([H])C4([H])[N+]([H])([H])[H])c([H])c3N([H])[H])c([H])c([H])c2C1([H])[H]

>  <smiles>  (5) 
[H]c1c([H])c([H])c2c(c1[H])C([H])([H])C([H])([H])C([H])([H])C2([H])N([H])C(=O)C1([H])N(C(=O)C([H])(N([H])C(=O)C([H])(N([H])C([H])([H])[H])C([H])([H])[H])C(C([H])([H])[H])(C([H])([H])[H])C([H])([H])[H])C([H])([H])c2c([H])c(OC([H])([H])c3c([H])c(C([H])([H])[H])c(C(=O)C4([H])C([H])([H])C([H])([H])N(C(=O)N5C([H])([H])C([H])([H])C([H])([H])C([H])(n6nc(-c7c([H])c([H])c(Oc8c([H])c([H])c(F)c([H])c8F)c([H])c7[H])c(C(=O)N([H])[H])c6N([H])[H])C5([H])[H])C([H])([H])C4([H])[N+]([H])([H])[H])c([H])c3N([H])[H])c([H])c([H])c2C1([H])[H]

$$$$
5:0:0
     RDKit          3D

 90 98  0  0  1  0  0  0  0  0999 V2000
  -29.4970  -20.8810   20.3280 C   0  0  0  0  0  0  0  0  0  0  0  0
  -28.7220  -22.0510   20.1980 N   0  0  0  0  0  0  0  0  0  0  0  0
  -30.6850  -20.9930   20.6310 O   0  0  0  0  0  0  0  0  0  0  0  0
  -27.7630  -21.8910   19.9150 H   0  0  0  0  0  0  0  0  0  0  0  0
  -30.6610  -14.9060   19.9860 C   0  0  0  0  0  0  0  0  0  0  0  0
  -30.3880  -12.6210   18.9640 C   0  0  0  0  0  2  0  0  0  0  0  0
  -29.3890  -12.6580   17.7890 C   0  0  0  0  0  2  0  0  0  0  0  0
  -27.9540  -12.4510   18.3040 C   0  0  0  0  0  2  0  0  0  0  0  0
  -27.6300  -13.3290   19.5430 C   0  0  0  0  0  3  0  0  0  0  0  0
  -28.7540  -13.3020   20.5990 C   0  0  0  0  0  2  0  0  0  0  0  0
  -29.9880  -13.6950   19.9140 N   0  0  0  0  0  0  0  0  0  0  0  0
  -31.8510  -14.9040   19.6510 O   0  0  0  0  0  0  0  0  0  0  0  0
  -29.5230  -18.5210   18.8730 C   0  0  0  0  0  2  0  0  0  0  0  0
  -28.9460  -18.3040   21.2960 C   0  0  0  0  0  2  0  0  0  0  0  0
  -30.4440  -17.2420   19.1050 C   0  0  0  0  0  2  0  0  0  0  0  0
  -29.7920  -16.9270   21.3010 C   0  0  0  0  0  2  0  0  0  0  0  0
  -28.9680  -19.3490   20.0950 C   0  0  0  0  0  3  0  0  0  0  0  0
  -29.9770  -16.1530   20.0300 N   0  0  0  0  0  0  0  0  0  0  0  0
  -25.2950  -13.8640   20.4380 C   0  0  0  0  0  0  0  0  0  0  0  0
  -24.2590  -13.0690   20.8430 C   0  0  0  0  0  0  0  0  0  0  0  0
  -24.7320  -11.7240   20.7470 C   0  0  0  0  0  0  0  0  0  0  0  0
  -26.3290  -13.0040   20.1130 N   0  0  0  0  0  0  0  0  0  0  0  0
  -26.0030  -11.7080   20.3650 N   0  0  0  0  0  0  0  0  0  0  0  0
  -24.0260  -10.4500   20.9410 C   0  0  0  0  0  0  0  0  0  0  0  0
  -24.4670   -9.4950   21.8830 C   0  0  0  0  0  3  0  0  0  0  0  0
  -23.7580   -8.2880   22.0650 C   0  0  0  0  0  3  0  0  0  0  0  0
  -22.5940   -8.0270   21.3040 C   0  0  0  0  0  0  0  0  0  0  0  0
  -22.1730   -8.9690   20.3490 C   0  0  0  0  0  3  0  0  0  0  0  0
  -22.8820  -10.1680   20.1660 C   0  0  0  0  0  3  0  0  0  0  0  0
  -21.8560   -6.8710   21.3940 O   0  0  0  0  0  0  0  0  0  0  0  0
  -21.7390   -6.1830   22.5760 C   0  0  0  0  0  0  0  0  0  0  0  0
  -21.1960   -6.7790   23.7340 C   0  0  0  0  0  3  0  0  0  0  0  0
  -21.0280   -6.0150   24.9070 C   0  0  0  0  0  3  0  0  0  0  0  0
  -21.3930   -4.6560   24.9210 C   0  0  0  0  0  0  0  0  0  0  0  0
  -21.9300   -4.0590   23.7660 C   0  0  0  0  0  3  0  0  0  0  0  0
  -22.0980   -4.8200   22.5960 C   0  0  0  0  0  0  0  0  0  0  0  0
  -22.5960   -4.2340   21.4800 F   0  0  0  0  0  0  0  0  0  0  0  0
  -21.2260   -3.9200   26.0440 F   0  0  0  0  0  0  0  0  0  0  0  0
  -22.8780  -13.5250   21.2060 C   0  0  0  0  0  0  0  0  0  0  0  0
  -22.2090  -12.8040   22.1000 N   0  0  0  0  0  0  0  0  0  0  0  0
  -22.4010  -14.5560   20.7330 O   0  0  0  0  0  0  0  0  0  0  0  0
  -22.6100  -11.9700   22.5010 H   0  0  0  0  0  0  0  0  0  0  0  0
  -21.2850  -13.0920   22.3880 H   0  0  0  0  0  0  0  0  0  0  0  0
  -25.4390  -15.2410   20.2940 N   0  0  0  0  0  0  0  0  0  0  0  0
  -24.6790  -15.8870   20.4770 H   0  0  0  0  0  0  0  0  0  0  0  0
  -26.2760  -15.6990   19.9560 H   0  0  0  0  0  0  0  0  0  0  0  0
  -29.4530  -23.7480   21.9130 C   0  0  0  0  0  1  0  0  0  0  0  0
  -29.0860  -23.5580   20.4320 C   0  0  0  0  0  3  0  0  0  0  0  0
  -28.0600  -24.7930   20.0150 C   0  0  0  0  0  2  0  0  0  0  0  0
  -28.3240  -26.2900   20.2610 O   0  0  0  0  0  0  0  0  0  0  0  0
  -24.6880  -31.8780   23.3060 C   0  0  0  0  0  0  0  0  0  0  0  0
  -27.2590  -27.2430   20.2030 C   0  0  0  0  0  0  0  0  0  0  0  0
  -23.4850  -30.5050   21.6480 C   0  0  0  0  0  3  0  0  0  0  0  0
  -24.9290  -28.9570   20.1990 C   0  0  0  0  0  0  0  0  0  0  0  0
  -26.0350  -30.7820   21.4850 C   0  0  0  0  0  2  0  0  0  0  0  0
  -26.1080  -29.4040   20.8100 C   0  0  0  0  0  0  0  0  0  0  0  0
  -27.2760  -28.5630   20.7970 C   0  0  0  0  0  3  0  0  0  0  0  0
  -26.0570  -26.8880   19.5540 C   0  0  0  0  0  3  0  0  0  0  0  0
  -24.9130  -27.7110   19.5570 C   0  0  0  0  0  3  0  0  0  0  0  0
  -23.7020  -29.8490   20.2590 C   0  0  0  0  0  2  0  0  0  0  0  0
  -24.7550  -31.0740   22.2020 N   0  0  0  0  0  0  0  0  0  0  0  0
  -23.6030  -32.1570   23.8380 O   0  0  0  0  0  0  0  0  0  0  0  0
  -22.8090  -29.4830   22.5950 C   0  0  0  0  0  0  0  0  0  0  0  0
  -21.4830  -29.3070   22.4570 N   0  0  0  0  0  0  0  0  0  0  0  0
  -23.4790  -28.8500   23.4140 O   0  0  0  0  0  0  0  0  0  0  0  0
  -21.0000  -29.8720   21.7710 H   0  0  0  0  0  0  0  0  0  0  0  0
  -18.0990  -28.1120   22.9350 C   0  0  0  0  0  0  0  0  0  0  0  0
  -20.6570  -28.3630   23.2130 C   0  0  0  0  0  3  0  0  0  0  0  0
  -20.7560  -26.9380   22.6200 C   0  0  0  0  0  2  0  0  0  0  0  0
  -19.6560  -26.6320   21.5980 C   0  0  0  0  0  2  0  0  0  0  0  0
  -18.2730  -26.7720   22.2410 C   0  0  0  0  0  2  0  0  0  0  0  0
  -19.2180  -28.8670   23.3770 C   0  0  0  0  0  0  0  0  0  0  0  0
  -19.0000  -30.1210   23.9850 C   0  0  0  0  0  3  0  0  0  0  0  0
  -17.6950  -30.6200   24.1590 C   0  0  0  0  0  3  0  0  0  0  0  0
  -16.5910  -29.8620   23.7330 C   0  0  0  0  0  3  0  0  0  0  0  0
  -16.7940  -28.6110   23.1260 C   0  0  0  0  0  3  0  0  0  0  0  0
  -25.9700  -32.5000   23.9390 C   0  0  0  0  0  3  0  0  0  0  0  0
  -25.6720  -33.9030   24.2660 N   0  0  0  0  0  0  0  0  0  0  0  0
  -25.9910  -34.9510   23.4950 C   0  0  0  0  0  0  0  0  0  0  0  0
  -26.6380  -34.8370   22.4500 O   0  0  0  0  0  0  0  0  0  0  0  0
  -25.0950  -34.0640   25.0780 H   0  0  0  0  0  0  0  0  0  0  0  0
  -24.2460  -36.7370   23.1960 C   0  0  0  0  0  1  0  0  0  0  0  0
  -25.5220  -36.3450   23.9560 C   0  0  0  0  0  3  0  0  0  0  0  0
  -27.6860  -37.2500   24.6860 C   0  0  0  0  0  1  0  0  0  0  0  0
  -26.5470  -37.3990   23.7830 N   0  0  0  0  0  0  0  0  0  0  0  0
  -26.1450  -38.3200   23.9320 H   0  0  0  0  0  0  0  0  0  0  0  0
  -26.4620  -31.7270   25.2250 C   0  0  1  0  0  0  0  0  0  0  0  0
  -25.3530  -31.5040   26.2800 C   0  0  0  0  0  1  0  0  0  0  0  0
  -27.0370  -30.3420   24.8500 C   0  0  0  0  0  1  0  0  0  0  0  0
  -27.6130  -32.5140   25.8980 C   0  0  0  0  0  1  0  0  0  0  0  0
  1  3  2  0
  2  1  1  0
  2 48  1  0
  4  2  1  0
  5 18  1  0
  6 11  1  0
  7  8  1  0
  7  6  1  0
  9  8  1  0
  9 22  1  0
  9 10  1  0
 11  5  1  0
 11 10  1  0
 12  5  2  0
 13 15  1  0
 13 17  1  0
 14 16  1  0
 15 18  1  0
 17  1  1  0
 17 14  1  0
 18 16  1  0
 19 20  2  0
 20 39  1  0
 21 20  1  0
 21 24  1  0
 22 23  1  0
 22 19  1  0
 23 21  2  0
 24 25  1  0
 25 26  2  0
 27 30  1  0
 27 26  1  0
 28 27  2  0
 29 28  1  0
 29 24  2  0
 30 31  1  0
 31 36  2  0
 31 32  1  0
 32 33  2  0
 33 34  1  0
 34 38  1  0
 35 34  2  0
 36 35  1  0
 37 36  1  0
 39 40  1  0
 40 43  1  0
 40 42  1  0
 41 39  2  0
 44 19  1  0
 44 45  1  0
 46 44  1  0
 48 47  1  0
 49 50  1  0
 49 48  1  0
 51 62  2  0
 52 50  1  0
 52 57  1  0
 53 61  1  0
 53 63  1  0
 54 60  1  0
 54 56  1  0
 55 61  1  0
 56 55  1  0
 57 56  2  0
 58 59  1  0
 58 52  2  0
 59 54  2  0
 60 53  1  0
 61 51  1  0
 63 65  2  0
 64 63  1  0
 66 64  1  0
 67 76  2  0
 67 72  1  0
 68 64  1  0
 68 72  1  0
 69 68  1  0
 70 71  1  0
 70 69  1  0
 71 67  1  0
 72 73  2  0
 73 74  1  0
 75 74  2  0
 76 75  1  0
 77 51  1  0
 77 78  1  0
 77 87  1  0
 78 81  1  0
 79 83  1  0
 79 78  1  0
 80 79  2  0
 83 82  1  0
 85 86  1  0
 85 83  1  0
 85 84  1  0
 87 90  1  1
 87 88  1  0
 89 87  1  0
M  ISO  4   5 100  18 100  49 101  50 101
M  END
>  <TORSDO>  (6) 
F 18

>  <SCORE>  (6) 
-14.060

>  <name>  (6) 
5

>  <ligand_id>  (6) 
5

>  <original_smiles>  (6) 
[H]c1c([H])c([H])c2c(c1[H])C([H])([H])C([H])([H])C([H])([H])C2([H])N([H])C(=O)C1([H])N(C(=O)C([H])(N([H])C(=O)C([H])(N([H])C([H])([H])[H])C([H])([H])[H])C(C([H])([H])[H])(C([H])([H])[H])C([H])([H])[H])C([H])([H])c2c([H])c(OC([H])([H])C([H])(N([H])C(=O)C3([H])C([H])([H])C([H])([H])N(C(=O)N4C([H])([H])C([H])([H])C([H])([H])C([H])(n5nc(-c6c([H])c([H])c(Oc7c([H])c([H])c(F)c([H])c7F)c([H])c6[H])c(C(=O)N([H])[H])c5N([H])[H])C4([H])[H])C([H])([H])C3([H])[H])C([H])([H])[H])c([H])c([H])c2C1([H])[H]

>  <smiles>  (6) 
[H]c1c([H])c([H])c2c(c1[H])C([H])([H])C([H])([H])C([H])([H])C2([H])N([H])C(=O)C1([H])N(C(=O)C([H])(N([H])C(=O)C([H])(N([H])C([H])([H])[H])C([H])([H])[H])C(C([H])([H])[H])(C([H])([H])[H])C([H])([H])[H])C([H])([H])c2c([H])c(OC([H])([H])C([H])(N([H])C(=O)C3([H])C([H])([H])C([H])([H])N(C(=O)N4C([H])([H])C([H])([H])C([H])([H])C([H])(n5nc(-c6c([H])c([H])c(Oc7c([H])c([H])c(F)c([H])c7F)c([H])c6[H])c(C(=O)N([H])[H])c5N([H])[H])C4([H])[H])C([H])([H])C3([H])[H])C([H])([H])[H])c([H])c([H])c2C1([H])[H]

$$$$
6:0:0
     RDKit          3D

 91100  0  0  1  0  0  0  0  0999 V2000
  -30.1760  -19.6470   18.7270 C   0  0  0  0  0  3  0  0  0  0  0  0
  -29.8890  -19.8460   21.0580 C   0  0  0  0  0  3  0  0  0  0  0  0
  -29.8900  -20.5410   19.8110 C   0  0  0  0  0  0  0  0  0  0  0  0
  -30.3880  -18.2180   18.8410 C   0  0  0  0  0  0  0  0  0  0  0  0
  -30.1080  -18.4190   21.1990 C   0  0  0  0  0  0  0  0  0  0  0  0
  -30.3650  -17.5270   20.0970 C   0  0  0  0  0  0  0  0  0  0  0  0
  -30.5440  -17.4240   17.5560 C   0  0  0  0  0  1  0  0  0  0  0  0
  -30.0100  -17.8330   22.5970 C   0  0  0  0  0  1  0  0  0  0  0  0
  -31.1880  -14.9360   19.9420 C   0  0  0  0  0  0  0  0  0  0  0  0
  -31.0160  -12.6060   19.0080 C   0  0  0  0  0  2  0  0  0  0  0  0
  -30.0030  -12.6160   17.8380 C   0  0  0  0  0  2  0  0  0  0  0  0
  -28.5660  -12.4220   18.3580 C   0  0  0  0  0  2  0  0  0  0  0  0
  -28.2460  -13.3320   19.5720 C   0  0  0  0  0  3  0  0  0  0  0  0
  -29.3700  -13.2860   20.6320 C   0  0  0  0  0  2  0  0  0  0  0  0
  -30.6200  -13.6730   19.9620 N   0  0  0  0  0  0  0  0  0  0  0  0
  -32.3380  -15.0640   19.5070 O   0  0  0  0  0  0  0  0  0  0  0  0
  -30.3830  -16.0260   20.3020 N   0  0  0  0  0  0  0  0  0  0  0  0
  -29.5670  -15.6990   20.7960 H   0  0  0  0  0  0  0  0  0  0  0  0
  -25.9350  -13.9230   20.5120 C   0  0  0  0  0  0  0  0  0  0  0  0
  -24.8810  -13.1490   20.9150 C   0  0  0  0  0  0  0  0  0  0  0  0
  -25.3080  -11.7940   20.7720 C   0  0  0  0  0  0  0  0  0  0  0  0
  -26.9370  -13.0380   20.1450 N   0  0  0  0  0  0  0  0  0  0  0  0
  -26.5710  -11.7490   20.3650 N   0  0  0  0  0  0  0  0  0  0  0  0
  -24.5660  -10.5380   20.9450 C   0  0  0  0  0  0  0  0  0  0  0  0
  -24.9350   -9.5890   21.9240 C   0  0  0  0  0  3  0  0  0  0  0  0
  -24.1940   -8.3980   22.0820 C   0  0  0  0  0  3  0  0  0  0  0  0
  -23.0700   -8.1470   21.2600 C   0  0  0  0  0  0  0  0  0  0  0  0
  -22.7200   -9.0840   20.2710 C   0  0  0  0  0  3  0  0  0  0  0  0
  -23.4630  -10.2650   20.1110 C   0  0  0  0  0  3  0  0  0  0  0  0
  -22.3060   -7.0060   21.3260 O   0  0  0  0  0  0  0  0  0  0  0  0
  -22.0130   -6.4030   22.5220 C   0  0  0  0  0  0  0  0  0  0  0  0
  -21.3180   -7.0820   23.5470 C   0  0  0  0  0  3  0  0  0  0  0  0
  -20.9750   -6.4030   24.7340 C   0  0  0  0  0  3  0  0  0  0  0  0
  -21.3170   -5.0480   24.8950 C   0  0  0  0  0  0  0  0  0  0  0  0
  -22.0060   -4.3690   23.8730 C   0  0  0  0  0  3  0  0  0  0  0  0
  -22.3490   -5.0450   22.6890 C   0  0  0  0  0  0  0  0  0  0  0  0
  -22.9940   -4.3800   21.7000 F   0  0  0  0  0  0  0  0  0  0  0  0
  -20.9800   -4.3930   26.0310 F   0  0  0  0  0  0  0  0  0  0  0  0
  -23.5200  -13.6390   21.3190 C   0  0  0  0  0  0  0  0  0  0  0  0
  -22.8450  -12.9140   22.2040 N   0  0  0  0  0  0  0  0  0  0  0  0
  -23.0670  -14.6970   20.8840 O   0  0  0  0  0  0  0  0  0  0  0  0
  -23.2270  -12.0570   22.5760 H   0  0  0  0  0  0  0  0  0  0  0  0
  -21.9350  -13.2220   22.5170 H   0  0  0  0  0  0  0  0  0  0  0  0
  -26.1180  -15.2980   20.4020 N   0  0  0  0  0  0  0  0  0  0  0  0
  -25.3730  -15.9560   20.6060 H   0  0  0  0  0  0  0  0  0  0  0  0
  -26.9370  -15.7420   20.0060 H   0  0  0  0  0  0  0  0  0  0  0  0
  -30.4960  -23.0980   19.2010 C   0  0  0  0  0  2  0  0  0  0  0  0
  -29.4310  -22.0780   19.5390 C   0  0  0  0  0  3  0  0  0  0  0  0
  -29.5200  -23.5440   20.2660 C   0  0  0  0  0  3  0  0  0  0  0  0
  -28.5600  -24.8420   19.9890 C   0  0  0  0  0  2  0  0  0  0  0  0
  -28.8010  -26.3160   20.3410 O   0  0  0  0  0  0  0  0  0  0  0  0
  -25.0390  -31.8030   23.3940 C   0  0  0  0  0  0  0  0  0  0  0  0
  -27.7250  -27.2580   20.2680 C   0  0  0  0  0  0  0  0  0  0  0  0
  -23.8820  -30.4540   21.6860 C   0  0  0  0  0  3  0  0  0  0  0  0
  -25.3730  -28.9470   20.2420 C   0  0  0  0  0  0  0  0  0  0  0  0
  -26.4330  -30.7580   21.5790 C   0  0  0  0  0  2  0  0  0  0  0  0
  -26.5330  -29.3930   20.8880 C   0  0  0  0  0  0  0  0  0  0  0  0
  -27.7100  -28.5630   20.8880 C   0  0  0  0  0  3  0  0  0  0  0  0
  -26.5400  -26.9040   19.5820 C   0  0  0  0  0  3  0  0  0  0  0  0
  -25.3860  -27.7130   19.5760 C   0  0  0  0  0  3  0  0  0  0  0  0
  -24.1360  -29.8250   20.2890 C   0  0  0  0  0  2  0  0  0  0  0  0
  -25.1380  -31.0230   22.2770 N   0  0  0  0  0  0  0  0  0  0  0  0
  -23.9420  -32.0630   23.9080 O   0  0  0  0  0  0  0  0  0  0  0  0
  -23.1950  -29.4090   22.5990 C   0  0  0  0  0  0  0  0  0  0  0  0
  -21.8740  -29.2230   22.4270 N   0  0  0  0  0  0  0  0  0  0  0  0
  -23.8520  -28.7700   23.4250 O   0  0  0  0  0  0  0  0  0  0  0  0
  -21.4010  -29.7910   21.7390 H   0  0  0  0  0  0  0  0  0  0  0  0
  -18.4950  -27.9770   22.7990 C   0  0  0  0  0  0  0  0  0  0  0  0
  -21.0420  -28.2570   23.1480 C   0  0  0  0  0  3  0  0  0  0  0  0
  -21.1760  -26.8420   22.5380 C   0  0  0  0  0  2  0  0  0  0  0  0
  -20.1070  -26.5360   21.4840 C   0  0  0  0  0  2  0  0  0  0  0  0
  -18.7060  -26.6490   22.0920 C   0  0  0  0  0  2  0  0  0  0  0  0
  -19.5920  -28.7400   23.2810 C   0  0  0  0  0  0  0  0  0  0  0  0
  -19.3410  -29.9810   23.9030 C   0  0  0  0  0  3  0  0  0  0  0  0
  -18.0260  -30.4630   24.0460 C   0  0  0  0  0  3  0  0  0  0  0  0
  -16.9430  -29.6980   23.5780 C   0  0  0  0  0  3  0  0  0  0  0  0
  -17.1780  -28.4570   22.9610 C   0  0  0  0  0  3  0  0  0  0  0  0
  -26.3010  -32.4240   24.0690 C   0  0  0  0  0  3  0  0  0  0  0  0
  -25.9870  -33.8220   24.4000 N   0  0  0  0  0  0  0  0  0  0  0  0
  -26.3140  -34.8780   23.6430 C   0  0  0  0  0  0  0  0  0  0  0  0
  -26.9790  -34.7780   22.6080 O   0  0  0  0  0  0  0  0  0  0  0  0
  -25.3950  -33.9740   25.2030 H   0  0  0  0  0  0  0  0  0  0  0  0
  -24.5640  -36.6580   23.3240 C   0  0  0  0  0  1  0  0  0  0  0  0
  -25.8280  -36.2650   24.1050 C   0  0  0  0  0  3  0  0  0  0  0  0
  -27.9710  -37.1790   24.8840 C   0  0  0  0  0  1  0  0  0  0  0  0
  -26.8490  -37.3260   23.9610 N   0  0  0  0  0  0  0  0  0  0  0  0
  -26.4380  -38.2450   24.1040 H   0  0  0  0  0  0  0  0  0  0  0  0
  -26.7620  -31.6420   25.3590 C   0  0  1  0  0  0  0  0  0  0  0  0
  -25.6260  -31.3960   26.3790 C   0  0  0  0  0  1  0  0  0  0  0  0
  -27.3590  -30.2660   24.9820 C   0  0  0  0  0  1  0  0  0  0  0  0
  -27.8860  -32.4280   26.0730 C   0  0  0  0  0  1  0  0  0  0  0  0
  1  4  2  0
  1  3  1  0
  2  5  1  0
  3  2  2  0
  4  6  1  0
  5  8  1  0
  6 17  1  0
  6  5  2  0
  7  4  1  0
  9 15  1  0
  9 17  1  0
 10 15  1  0
 11 12  1  0
 11 10  1  0
 13 12  1  0
 13 22  1  0
 13 14  1  0
 15 14  1  0
 16  9  2  0
 17 18  1  0
 19 20  2  0
 20 39  1  0
 21 20  1  0
 21 24  1  0
 22 23  1  0
 22 19  1  0
 23 21  2  0
 24 25  1  0
 25 26  2  0
 27 30  1  0
 27 26  1  0
 28 27  2  0
 29 28  1  0
 29 24  2  0
 30 31  1  0
 31 36  2  0
 31 32  1  0
 32 33  2  0
 33 34  1  0
 34 38  1  0
 35 34  2  0
 36 35  1  0
 37 36  1  0
 39 40  1  0
 40 43  1  0
 40 42  1  0
 41 39  2  0
 44 19  1  0
 44 45  1  0
 46 44  1  0
 47 48  1  0
 47 49  1  0
 48  3  1  0
 48 49  1  0
 49 50  1  0
 50 51  1  0
 52 63  2  0
 53 51  1  0
 53 58  1  0
 54 62  1  0
 54 64  1  0
 55 61  1  0
 55 57  1  0
 56 62  1  0
 57 58  2  0
 57 56  1  0
 59 53  2  0
 60 59  1  0
 60 55  2  0
 61 54  1  0
 62 52  1  0
 64 66  2  0
 65 64  1  0
 67 65  1  0
 68 77  2  0
 68 73  1  0
 69 65  1  0
 69 73  1  0
 70 69  1  0
 71 72  1  0
 71 70  1  0
 72 68  1  0
 73 74  2  0
 74 75  1  0
 76 75  2  0
 77 76  1  0
 78 52  1  0
 78 79  1  0
 78 88  1  0
 79 82  1  0
 80 84  1  0
 80 79  1  0
 81 80  2  0
 84 83  1  0
 86 87  1  0
 86 84  1  0
 86 85  1  0
 88 91  1  1
 88 89  1  0
 90 88  1  0
M  ISO  4   9 100  17 100  50 101  51 101
M  END
>  <TORSDO>  (7) 
F 18

>  <SCORE>  (7) 
-12.186

>  <name>  (7) 
6

>  <ligand_id>  (7) 
6

>  <original_smiles>  (7) 
[H]c1c([H])c([H])c2c(c1[H])C([H])([H])C([H])([H])C([H])([H])C2([H])N([H])C(=O)C1([H])N(C(=O)C([H])(N([H])C(=O)C([H])(N([H])C([H])([H])[H])C([H])([H])[H])C(C([H])([H])[H])(C([H])([H])[H])C([H])([H])[H])C([H])([H])c2c([H])c(OC([H])([H])C3([H])C([H])([H])C3([H])c3c([H])c(C([H])([H])[H])c(N([H])C(=O)N4C([H])([H])C([H])([H])C([H])([H])C([H])(n5nc(-c6c([H])c([H])c(Oc7c([H])c([H])c(F)c([H])c7F)c([H])c6[H])c(C(=O)N([H])[H])c5N([H])[H])C4([H])[H])c(C([H])([H])[H])c3[H])c([H])c([H])c2C1([H])[H]

>  <smiles>  (7) 
[H]c1c([H])c([H])c2c(c1[H])C([H])([H])C([H])([H])C([H])([H])C2([H])N([H])C(=O)C1([H])N(C(=O)C([H])(N([H])C(=O)C([H])(N([H])C([H])([H])[H])C([H])([H])[H])C(C([H])([H])[H])(C([H])([H])[H])C([H])([H])[H])C([H])([H])c2c([H])c(OC([H])([H])C3([H])C([H])([H])C3([H])c3c([H])c(C([H])([H])[H])c(N([H])C(=O)N4C([H])([H])C([H])([H])C([H])([H])C([H])(n5nc(-c6c([H])c([H])c(Oc7c([H])c([H])c(F)c([H])c7F)c([H])c6[H])c(C(=O)N([H])[H])c5N([H])[H])C4([H])[H])c(C([H])([H])[H])c3[H])c([H])c([H])c2C1([H])[H]

$$$$
7:0:0
     RDKit          3D

101111  0  0  1  0  0  0  0  0999 V2000
  -29.5910  -22.2970   17.6640 C   0  0  0  0  0  2  0  0  0  0  0  0
  -29.9280  -21.2020   19.9060 C   0  0  0  0  0  2  0  0  0  0  0  0
  -30.2050  -23.5750   18.2630 C   0  0  0  0  0  2  0  0  0  0  0  0
  -30.4710  -22.5440   20.4290 C   0  0  0  0  0  2  0  0  0  0  0  0
  -30.1290  -21.0460   18.3900 C   0  0  0  0  0  3  0  0  0  0  0  0
  -29.9140  -23.6890   19.6980 N   0  0  0  0  0  0  0  0  0  0  0  0
  -29.4370  -19.7500   17.9170 C   0  0  0  0  0  0  0  0  0  0  0  0
  -31.7580  -16.4030   17.0180 C   0  0  0  0  0  2  0  0  0  0  0  0
  -31.4930  -18.4710   18.4750 C   0  0  0  0  0  2  0  0  0  0  0  0
  -29.4270  -17.3290   17.5330 C   0  0  0  0  0  2  0  0  0  0  0  0
  -32.0270  -17.0420   18.4080 C   0  0  0  0  0  3  0  0  0  0  0  0
  -30.3620  -16.1110   17.6170 C   0  0  0  0  0  3  0  0  0  0  0  0
  -31.2050  -15.8240   18.8870 C   0  0  0  0  0  3  0  0  0  0  0  0
  -30.0970  -18.5700   17.9890 N   0  0  0  0  0  0  0  0  0  0  0  0
  -28.2760  -19.8220   17.5020 O   0  0  0  0  0  0  0  0  0  0  0  0
  -31.1090  -14.7990   21.0700 C   0  0  0  0  0  0  0  0  0  0  0  0
  -30.9130  -12.5220   20.2300 C   0  0  0  0  0  2  0  0  0  0  0  0
  -30.1080  -12.5340   18.9120 C   0  0  0  0  0  2  0  0  0  0  0  0
  -28.5920  -12.4950   19.1690 C   0  0  0  0  0  2  0  0  0  0  0  0
  -28.1180  -13.4780   20.2730 C   0  0  0  0  0  3  0  0  0  0  0  0
  -29.0410  -13.4340   21.5110 C   0  0  0  0  0  2  0  0  0  0  0  0
  -30.4230  -13.6310   21.0540 N   0  0  0  0  0  0  0  0  0  0  0  0
  -32.3320  -14.8550   21.2060 O   0  0  0  0  0  0  0  0  0  0  0  0
  -29.9260  -16.9110   20.8160 C   0  0  0  0  0  1  0  0  0  0  0  0
  -30.5620  -15.7220   20.2380 N   0  0  0  0  0  0  0  0  0  0  0  0
  -25.6650  -14.1290   20.7000 C   0  0  0  0  0  0  0  0  0  0  0  0
  -24.5490  -13.3750   20.9540 C   0  0  0  0  0  0  0  0  0  0  0  0
  -24.9970  -12.0200   21.0190 C   0  0  0  0  0  0  0  0  0  0  0  0
  -26.7180  -13.2330   20.6180 N   0  0  0  0  0  0  0  0  0  0  0  0
  -26.3140  -11.9630   20.8780 N   0  0  0  0  0  0  0  0  0  0  0  0
  -24.2420  -10.7660   21.1420 C   0  0  0  0  0  0  0  0  0  0  0  0
  -24.5820   -9.7910   22.1040 C   0  0  0  0  0  3  0  0  0  0  0  0
  -23.8290   -8.6030   22.2200 C   0  0  0  0  0  3  0  0  0  0  0  0
  -22.7210   -8.3810   21.3700 C   0  0  0  0  0  0  0  0  0  0  0  0
  -22.4010   -9.3430   20.3950 C   0  0  0  0  0  3  0  0  0  0  0  0
  -23.1560  -10.5210   20.2780 C   0  0  0  0  0  3  0  0  0  0  0  0
  -21.9470   -7.2460   21.3970 O   0  0  0  0  0  0  0  0  0  0  0  0
  -21.8140   -6.4900   22.5350 C   0  0  0  0  0  0  0  0  0  0  0  0
  -21.3370   -7.0390   23.7450 C   0  0  0  0  0  3  0  0  0  0  0  0
  -21.1470   -6.2080   24.8670 C   0  0  0  0  0  3  0  0  0  0  0  0
  -21.4290   -4.8320   24.7820 C   0  0  0  0  0  0  0  0  0  0  0  0
  -21.9010   -4.2830   23.5760 C   0  0  0  0  0  3  0  0  0  0  0  0
  -22.0890   -5.1100   22.4560 C   0  0  0  0  0  0  0  0  0  0  0  0
  -22.5210   -4.5710   21.2900 F   0  0  0  0  0  0  0  0  0  0  0  0
  -21.2440   -4.0340   25.8580 F   0  0  0  0  0  0  0  0  0  0  0  0
  -23.1320  -13.8660   21.0370 C   0  0  0  0  0  0  0  0  0  0  0  0
  -22.3020  -13.2070   21.8380 N   0  0  0  0  0  0  0  0  0  0  0  0
  -22.7670  -14.8700   20.4240 O   0  0  0  0  0  0  0  0  0  0  0  0
  -22.6090  -12.3980   22.3550 H   0  0  0  0  0  0  0  0  0  0  0  0
  -21.3430  -13.5120   21.9380 H   0  0  0  0  0  0  0  0  0  0  0  0
  -25.8750  -15.4890   20.5100 N   0  0  0  0  0  0  0  0  0  0  0  0
  -25.1230  -16.1700   20.5170 H   0  0  0  0  0  0  0  0  0  0  0  0
  -26.7790  -15.8950   20.3070 H   0  0  0  0  0  0  0  0  0  0  0  0
  -28.4850  -23.9220   19.9330 C   0  0  0  0  0  2  0  0  0  0  0  0
  -28.2060  -24.5860   21.3020 C   0  0  0  0  0  3  0  0  0  0  0  0
  -26.7970  -24.3810   21.7080 N   0  0  0  0  0  4  0  0  0  0  0  0
  -26.1570  -24.8000   21.0560 H   0  0  0  0  0  0  0  0  0  0  0  0
  -26.6270  -24.7740   22.6170 H   0  0  0  0  0  0  0  0  0  0  0  0
  -26.5890  -23.3980   21.7630 H   0  0  0  0  0  0  0  0  0  0  0  0
  -28.6170  -26.0740   21.3250 C   0  0  0  0  0  2  0  0  0  0  0  0
  -28.1980  -26.7190   20.1270 O   0  0  0  0  0  0  0  0  0  0  0  0
  -24.5260  -31.9090   23.3040 C   0  0  0  0  0  0  0  0  0  0  0  0
  -27.0390  -27.4330   20.2180 C   0  0  0  0  0  0  0  0  0  0  0  0
  -23.2620  -30.5160   21.6970 C   0  0  0  0  0  3  0  0  0  0  0  0
  -24.6600  -28.9310   20.2690 C   0  0  0  0  0  0  0  0  0  0  0  0
  -25.7830  -30.8320   21.4490 C   0  0  0  0  0  2  0  0  0  0  0  0
  -25.8310  -29.4530   20.8370 C   0  0  0  0  0  0  0  0  0  0  0  0
  -27.0220  -28.7050   20.8230 C   0  0  0  0  0  3  0  0  0  0  0  0
  -25.8640  -26.9170   19.6370 C   0  0  0  0  0  3  0  0  0  0  0  0
  -24.6660  -27.6560   19.6770 C   0  0  0  0  0  3  0  0  0  0  0  0
  -23.4330  -29.8130   20.3220 C   0  0  0  0  0  2  0  0  0  0  0  0
  -24.5430  -31.1010   22.2090 N   0  0  0  0  0  0  0  0  0  0  0  0
  -23.4620  -32.2060   23.8650 O   0  0  0  0  0  0  0  0  0  0  0  0
  -22.6110  -29.5150   22.6760 C   0  0  0  0  0  0  0  0  0  0  0  0
  -21.2930  -29.3090   22.5310 N   0  0  0  0  0  0  0  0  0  0  0  0
  -23.2910  -28.9220   23.5190 O   0  0  0  0  0  0  0  0  0  0  0  0
  -20.8070  -29.8400   21.8210 H   0  0  0  0  0  0  0  0  0  0  0  0
  -17.9380  -28.0410   22.9540 C   0  0  0  0  0  0  0  0  0  0  0  0
  -20.4740  -28.3860   23.3140 C   0  0  0  0  0  3  0  0  0  0  0  0
  -20.6390  -26.9310   22.8130 C   0  0  0  0  0  2  0  0  0  0  0  0
  -19.5890  -26.5280   21.7740 C   0  0  0  0  0  2  0  0  0  0  0  0
  -18.1780  -26.6660   22.3550 C   0  0  0  0  0  2  0  0  0  0  0  0
  -19.0170  -28.8550   23.3880 C   0  0  0  0  0  0  0  0  0  0  0  0
  -18.7400  -30.1410   23.9020 C   0  0  0  0  0  3  0  0  0  0  0  0
  -17.4190  -30.6130   23.9870 C   0  0  0  0  0  3  0  0  0  0  0  0
  -16.3530  -29.7970   23.5720 C   0  0  0  0  0  3  0  0  0  0  0  0
  -16.6140  -28.5130   23.0600 C   0  0  0  0  0  3  0  0  0  0  0  0
  -25.8380  -32.5160   23.8940 C   0  0  0  0  0  3  0  0  0  0  0  0
  -25.5650  -33.9190   24.2280 N   0  0  0  0  0  0  0  0  0  0  0  0
  -25.9100  -34.9620   23.4590 C   0  0  0  0  0  0  0  0  0  0  0  0
  -26.5630  -34.8430   22.4200 O   0  0  0  0  0  0  0  0  0  0  0  0
  -24.9860  -34.0870   25.0360 H   0  0  0  0  0  0  0  0  0  0  0  0
  -24.2090  -36.7820   23.1210 C   0  0  0  0  0  1  0  0  0  0  0  0
  -25.4540  -36.3600   23.9180 C   0  0  0  0  0  3  0  0  0  0  0  0
  -27.6190  -37.2020   24.7110 C   0  0  0  0  0  1  0  0  0  0  0  0
  -26.5040  -37.3930   23.7870 N   0  0  0  0  0  0  0  0  0  0  0  0
  -26.1200  -38.3200   23.9400 H   0  0  0  0  0  0  0  0  0  0  0  0
  -26.3730  -31.7340   25.1570 C   0  0  1  0  0  0  0  0  0  0  0  0
  -25.3030  -31.5090   26.2490 C   0  0  0  0  0  1  0  0  0  0  0  0
  -26.9260  -30.3500   24.7460 C   0  0  0  0  0  1  0  0  0  0  0  0
  -27.5510  -32.5080   25.7930 C   0  0  0  0  0  1  0  0  0  0  0  0
  1  3  1  0
  1  5  1  0
  2  4  1  0
  3  6  1  0
  5  7  1  0
  5  2  1  0
  6 54  1  0
  6  4  1  0
  7 14  1  0
 10 12  1  0
 10 14  1  0
 11  8  1  0
 11  9  1  0
 11 13  1  0
 12  8  1  0
 12 13  1  0
 13 25  1  0
 14  9  1  0
 15  7  2  0
 16 23  2  0
 17 22  1  0
 18 19  1  0
 18 17  1  0
 20 19  1  0
 20 29  1  0
 20 21  1  0
 22 16  1  0
 22 21  1  0
 25 24  1  0
 25 16  1  0
 26 27  2  0
 27 28  1  0
 27 46  1  0
 28 31  1  0
 29 26  1  0
 29 30  1  0
 30 28  2  0
 31 32  1  0
 32 33  2  0
 34 37  1  0
 34 33  1  0
 35 34  2  0
 36 35  1  0
 36 31  2  0
 37 38  1  0
 38 39  1  0
 39 40  2  0
 41 40  1  0
 41 45  1  0
 42 41  2  0
 43 38  2  0
 43 42  1  0
 44 43  1  0
 46 47  1  0
 47 50  1  0
 47 49  1  0
 48 46  2  0
 51 52  1  0
 51 26  1  0
 53 51  1  0
 55 54  1  0
 55 60  1  0
 55 56  1  0
 56 59  1  0
 56 58  1  0
 57 56  1  0
 61 63  1  0
 61 60  1  0
 62 73  2  0
 63 68  1  0
 64 72  1  0
 64 74  1  0
 65 71  1  0
 65 67  1  0
 66 72  1  0
 67 66  1  0
 68 67  2  0
 69 70  1  0
 69 63  2  0
 70 65  2  0
 71 64  1  0
 72 62  1  0
 74 76  2  0
 75 74  1  0
 77 75  1  0
 78 87  2  0
 78 83  1  0
 79 75  1  0
 79 83  1  0
 80 79  1  0
 81 82  1  0
 81 80  1  0
 82 78  1  0
 83 84  2  0
 84 85  1  0
 86 85  2  0
 87 86  1  0
 88 62  1  0
 88 89  1  0
 88 98  1  0
 89 92  1  0
 90 94  1  0
 90 89  1  0
 91 90  2  0
 94 93  1  0
 96 94  1  0
 96 97  1  0
 96 95  1  0
 98101  1  1
 98 99  1  0
100 98  1  0
M  ISO  4  16 100  25 100  60 101  61 101
M  END
>  <TORSDO>  (8) 
F 21

>  <SCORE>  (8) 
-11.577

>  <name>  (8) 
7

>  <ligand_id>  (8) 
7

>  <original_smiles>  (8) 
[H]c1c([H])c([H])c2c(c1[H])C([H])([H])C([H])([H])C([H])([H])C2([H])N([H])C(=O)C1([H])N(C(=O)C([H])(N([H])C(=O)C([H])(N([H])C([H])([H])[H])C([H])([H])[H])C(C([H])([H])[H])(C([H])([H])[H])C([H])([H])[H])C([H])([H])c2c([H])c(OC([H])([H])C([H])(C([H])([H])N3C([H])([H])C([H])([H])C([H])(C(=O)N4C([H])([H])C5([H])C([H])([H])C([H])(C4([H])[H])C5([H])N(C(=O)N4C([H])([H])C([H])([H])C([H])([H])C([H])(n5nc(-c6c([H])c([H])c(Oc7c([H])c([H])c(F)c([H])c7F)c([H])c6[H])c(C(=O)N([H])[H])c5N([H])[H])C4([H])[H])C([H])([H])[H])C([H])([H])C3([H])[H])[N+]([H])([H])[H])c([H])c([H])c2C1([H])[H]

>  <smiles>  (8) 
[H]c1c([H])c([H])c2c(c1[H])C([H])([H])C([H])([H])C([H])([H])C2([H])N([H])C(=O)C1([H])N(C(=O)C([H])(N([H])C(=O)C([H])(N([H])C([H])([H])[H])C([H])([H])[H])C(C([H])([H])[H])(C([H])([H])[H])C([H])([H])[H])C([H])([H])c2c([H])c(OC([H])([H])C([H])(C([H])([H])N3C([H])([H])C([H])([H])C([H])(C(=O)N4C([H])([H])C5([H])C([H])([H])C([H])(C4([H])[H])C5([H])N(C(=O)N4C([H])([H])C([H])([H])C([H])([H])C([H])(n5nc(-c6c([H])c([H])c(Oc7c([H])c([H])c(F)c([H])c7F)c([H])c6[H])c(C(=O)N([H])[H])c5N([H])[H])C4([H])[H])C([H])([H])[H])C([H])([H])C3([H])[H])[N+]([H])([H])[H])c([H])c([H])c2C1([H])[H]

$$$$
8:0:0
     RDKit          3D

103112  0  0  1  0  0  0  0  0999 V2000
  -31.0980  -22.7070   19.1410 C   0  0  0  0  0  0  0  0  0  0  0  0
  -30.9100  -21.5270   19.7420 N   0  0  0  0  0  0  0  0  0  0  0  0
  -32.0530  -23.4440   19.3990 O   0  0  0  0  0  0  0  0  0  0  0  0
  -30.0950  -20.9870   19.4820 H   0  0  0  0  0  0  0  0  0  0  0  0
  -30.5220  -23.1430   16.6780 C   0  0  0  0  0  2  0  0  0  0  0  0
  -30.0440  -24.5870   16.5880 C   0  0  0  0  0  2  0  0  0  0  0  0
  -30.0370  -23.1650   18.1290 C   0  0  0  0  0  3  0  0  0  0  0  0
  -30.0470  -24.6270   18.0520 N   0  0  2  0  0  4  0  0  0  0  0  0
  -30.9500  -24.9180   18.4040 H   0  0  0  0  0  0  0  0  0  0  0  0
  -28.9160  -25.3630   18.6760 C   0  0  0  0  0  2  0  0  0  0  0  0
  -29.0710  -25.5060   20.2030 C   0  0  0  0  0  2  0  0  0  0  0  0
  -28.9020  -26.8610   20.6000 O   0  0  0  0  0  0  0  0  0  0  0  0
  -24.7820  -31.8750   23.3930 C   0  0  0  0  0  0  0  0  0  0  0  0
  -27.6690  -27.4680   20.5150 C   0  0  0  0  0  0  0  0  0  0  0  0
  -23.6700  -30.3960   21.7460 C   0  0  0  0  0  3  0  0  0  0  0  0
  -25.2160  -28.8670   20.4130 C   0  0  0  0  0  0  0  0  0  0  0  0
  -26.1850  -30.8350   21.6190 C   0  0  0  0  0  2  0  0  0  0  0  0
  -26.3310  -29.4520   21.0220 C   0  0  0  0  0  0  0  0  0  0  0  0
  -27.5550  -28.7570   21.0720 C   0  0  0  0  0  3  0  0  0  0  0  0
  -26.5350  -26.8840   19.9000 C   0  0  0  0  0  3  0  0  0  0  0  0
  -25.3110  -27.5800   19.8530 C   0  0  0  0  0  3  0  0  0  0  0  0
  -23.9440  -29.6850   20.3940 C   0  0  0  0  0  2  0  0  0  0  0  0
  -24.8940  -31.0520   22.3110 N   0  0  0  0  0  0  0  0  0  0  0  0
  -23.6760  -32.1270   23.8910 O   0  0  0  0  0  0  0  0  0  0  0  0
  -23.0210  -29.3800   22.7120 C   0  0  0  0  0  0  0  0  0  0  0  0
  -21.7250  -29.1020   22.5000 N   0  0  0  0  0  0  0  0  0  0  0  0
  -23.6840  -28.8420   23.6030 O   0  0  0  0  0  0  0  0  0  0  0  0
  -21.2530  -29.5910   21.7540 H   0  0  0  0  0  0  0  0  0  0  0  0
  -18.4210  -27.6730   22.7810 C   0  0  0  0  0  0  0  0  0  0  0  0
  -20.9150  -28.1500   23.2590 C   0  0  0  0  0  3  0  0  0  0  0  0
  -21.1760  -26.7010   22.7890 C   0  0  0  0  0  2  0  0  0  0  0  0
  -20.2010  -26.2300   21.7060 C   0  0  0  0  0  2  0  0  0  0  0  0
  -18.7590  -26.3040   22.2150 C   0  0  0  0  0  2  0  0  0  0  0  0
  -19.4340  -28.5460   23.2560 C   0  0  0  0  0  0  0  0  0  0  0  0
  -19.0700  -29.8210   23.7380 C   0  0  0  0  0  3  0  0  0  0  0  0
  -17.7220  -30.2280   23.7510 C   0  0  0  0  0  3  0  0  0  0  0  0
  -16.7210  -29.3540   23.2960 C   0  0  0  0  0  3  0  0  0  0  0  0
  -17.0700  -28.0780   22.8170 C   0  0  0  0  0  3  0  0  0  0  0  0
  -26.0300  -32.5570   24.0370 C   0  0  0  0  0  3  0  0  0  0  0  0
  -25.6760  -33.9540   24.3150 N   0  0  0  0  0  0  0  0  0  0  0  0
  -25.9890  -34.9890   23.5230 C   0  0  0  0  0  0  0  0  0  0  0  0
  -26.6790  -34.8700   22.5060 O   0  0  0  0  0  0  0  0  0  0  0  0
  -25.0700  -34.1190   25.1040 H   0  0  0  0  0  0  0  0  0  0  0  0
  -24.2090  -36.7070   23.0770 C   0  0  0  0  0  1  0  0  0  0  0  0
  -25.4500  -36.3760   23.9210 C   0  0  0  0  0  3  0  0  0  0  0  0
  -27.5390  -37.3630   24.7500 C   0  0  0  0  0  1  0  0  0  0  0  0
  -26.4480  -37.4580   23.7850 N   0  0  0  0  0  0  0  0  0  0  0  0
  -26.0080  -38.3690   23.8890 H   0  0  0  0  0  0  0  0  0  0  0  0
  -26.5250  -31.8350   25.3490 C   0  0  1  0  0  0  0  0  0  0  0  0
  -25.4020  -31.5880   26.3840 C   0  0  0  0  0  1  0  0  0  0  0  0
  -27.1640  -30.4670   25.0100 C   0  0  0  0  0  1  0  0  0  0  0  0
  -27.6250  -32.6820   26.0330 C   0  0  0  0  0  1  0  0  0  0  0  0
  -31.8130  -20.9110   20.7080 C   0  0  0  0  0  2  0  0  0  0  0  0
  -31.8650  -17.2650   19.4700 C   0  0  0  0  0  3  0  0  0  0  0  0
  -31.0760  -18.7200   21.7260 C   0  0  0  0  0  3  0  0  0  0  0  0
  -32.1270  -18.6460   19.5230 C   0  0  0  0  0  0  0  0  0  0  0  0
  -31.7000  -19.3930   20.6530 C   0  0  0  0  0  0  0  0  0  0  0  0
  -30.8440  -17.3300   21.6790 C   0  0  0  0  0  0  0  0  0  0  0  0
  -31.2310  -16.5870   20.5400 C   0  0  0  0  0  0  0  0  0  0  0  0
  -30.1570  -16.6570   22.8570 C   0  0  0  0  0  1  0  0  0  0  0  0
  -31.3940  -14.2340   19.6990 C   0  0  0  0  0  0  0  0  0  0  0  0
  -30.8290  -12.1460   18.5320 C   0  0  0  0  0  2  0  0  0  0  0  0
  -29.8060  -12.4500   17.4190 C   0  0  0  0  0  2  0  0  0  0  0  0
  -28.3710  -12.3900   17.9750 C   0  0  0  0  0  2  0  0  0  0  0  0
  -28.1970  -13.2160   19.2780 C   0  0  0  0  0  3  0  0  0  0  0  0
  -29.3270  -12.9030   20.2840 C   0  0  0  0  0  2  0  0  0  0  0  0
  -30.6210  -13.1220   19.6110 N   0  0  0  0  0  0  0  0  0  0  0  0
  -32.4380  -14.3630   19.0550 O   0  0  0  0  0  0  0  0  0  0  0  0
  -30.9180  -15.1950   20.5060 N   0  0  0  0  0  0  0  0  0  0  0  0
  -30.1320  -14.9120   21.0690 H   0  0  0  0  0  0  0  0  0  0  0  0
  -25.9080  -13.9380   20.2110 C   0  0  0  0  0  0  0  0  0  0  0  0
  -24.8330  -13.2160   20.6580 C   0  0  0  0  0  0  0  0  0  0  0  0
  -25.2100  -11.8430   20.5540 C   0  0  0  0  0  0  0  0  0  0  0  0
  -26.8760  -13.0070   19.8670 N   0  0  0  0  0  0  0  0  0  0  0  0
  -26.4630  -11.7400   20.1280 N   0  0  0  0  0  0  0  0  0  0  0  0
  -24.4320  -10.6180   20.7810 C   0  0  0  0  0  0  0  0  0  0  0  0
  -24.7950   -9.6860   21.7790 C   0  0  0  0  0  3  0  0  0  0  0  0
  -24.0230   -8.5250   21.9900 C   0  0  0  0  0  3  0  0  0  0  0  0
  -22.8700   -8.2870   21.2060 C   0  0  0  0  0  0  0  0  0  0  0  0
  -22.5250   -9.2060   20.1990 C   0  0  0  0  0  3  0  0  0  0  0  0
  -23.2990  -10.3580   19.9840 C   0  0  0  0  0  3  0  0  0  0  0  0
  -22.0730   -7.1740   21.3220 O   0  0  0  0  0  0  0  0  0  0  0  0
  -21.8080   -6.6040   22.5420 C   0  0  0  0  0  0  0  0  0  0  0  0
  -21.1980   -7.3310   23.5870 C   0  0  0  0  0  3  0  0  0  0  0  0
  -20.8780   -6.6880   24.8000 C   0  0  0  0  0  3  0  0  0  0  0  0
  -21.1580   -5.3180   24.9650 C   0  0  0  0  0  0  0  0  0  0  0  0
  -21.7600   -4.5910   23.9230 C   0  0  0  0  0  3  0  0  0  0  0  0
  -22.0800   -5.2320   22.7140 C   0  0  0  0  0  0  0  0  0  0  0  0
  -22.6400   -4.5220   21.7050 F   0  0  0  0  0  0  0  0  0  0  0  0
  -20.8450   -4.6980   26.1270 F   0  0  0  0  0  0  0  0  0  0  0  0
  -23.4970  -13.7630   21.0700 C   0  0  0  0  0  0  0  0  0  0  0  0
  -22.8210  -13.0960   22.0000 N   0  0  0  0  0  0  0  0  0  0  0  0
  -23.0650  -14.8150   20.6010 O   0  0  0  0  0  0  0  0  0  0  0  0
  -23.1840  -12.2440   22.3990 H   0  0  0  0  0  0  0  0  0  0  0  0
  -21.9260  -13.4440   22.3160 H   0  0  0  0  0  0  0  0  0  0  0  0
  -26.1360  -15.3010   20.0540 N   0  0  0  0  0  0  0  0  0  0  0  0
  -25.4220  -15.9950   20.2490 H   0  0  0  0  0  0  0  0  0  0  0  0
  -26.9830  -15.7010   19.6690 H   0  0  0  0  0  0  0  0  0  0  0  0
  -32.8310  -19.2720   18.3570 C   0  0  0  0  0  0  0  0  0  0  0  0
  -34.0520  -19.7270   18.5980 N   0  0  0  0  0  0  0  0  0  0  0  0
  -32.3160  -19.3150   17.2420 O   0  0  0  0  0  0  0  0  0  0  0  0
  -34.4600  -19.6130   19.5140 H   0  0  0  0  0  0  0  0  0  0  0  0
  -34.6000  -20.1360   17.8560 H   0  0  0  0  0  0  0  0  0  0  0  0
  1  3  2  0
  1  2  1  0
  2 53  1  0
  4  2  1  0
  5  7  1  0
  6  5  1  0
  6  8  1  0
  7  1  1  0
  8  7  1  0
  8  9  1  6
  8 10  1  0
 10 11  1  0
 11 12  1  0
 13 24  2  0
 14 12  1  0
 14 19  1  0
 15 23  1  0
 15 25  1  0
 16 18  1  0
 17 23  1  0
 18 19  2  0
 18 17  1  0
 20 14  2  0
 21 20  1  0
 21 16  2  0
 22 16  1  0
 22 15  1  0
 23 13  1  0
 25 27  2  0
 26 25  1  0
 28 26  1  0
 29 38  2  0
 29 34  1  0
 30 26  1  0
 31 30  1  0
 32 33  1  0
 32 31  1  0
 33 29  1  0
 34 30  1  0
 34 35  2  0
 35 36  1  0
 37 36  2  0
 38 37  1  0
 39 13  1  0
 39 40  1  0
 39 49  1  0
 40 43  1  0
 41 45  1  0
 41 40  1  0
 42 41  2  0
 45 44  1  0
 47 48  1  0
 47 45  1  0
 47 46  1  0
 49 52  1  1
 49 50  1  0
 51 49  1  0
 54 56  2  0
 54 59  1  0
 56 57  1  0
 57 53  1  0
 57 55  2  0
 58 55  1  0
 58 60  1  0
 59 58  2  0
 61 69  1  0
 62 67  1  0
 63 64  1  0
 63 62  1  0
 65 64  1  0
 65 74  1  0
 65 66  1  0
 67 61  1  0
 67 66  1  0
 68 61  2  0
 69 59  1  0
 69 70  1  0
 71 72  2  0
 72 91  1  0
 73 72  1  0
 73 76  1  0
 74 75  1  0
 74 71  1  0
 75 73  2  0
 76 77  1  0
 77 78  2  0
 79 82  1  0
 79 78  1  0
 80 79  2  0
 81 80  1  0
 81 76  2  0
 82 83  1  0
 83 88  2  0
 83 84  1  0
 84 85  2  0
 85 86  1  0
 86 90  1  0
 87 86  2  0
 88 87  1  0
 89 88  1  0
 91 92  1  0
 92 95  1  0
 92 94  1  0
 93 91  2  0
 96 71  1  0
 96 97  1  0
 98 96  1  0
 99100  1  0
 99 56  1  0
100102  1  0
101 99  2  0
103100  1  0
M  ISO  4  11 101  12 101  61 100  69 100
M  END
>  <TORSDO>  (9) 
F 22

>  <SCORE>  (9) 
-11.354

>  <name>  (9) 
8

>  <ligand_id>  (9) 
8

>  <original_smiles>  (9) 
[H]c1c([H])c([H])c2c(c1[H])C([H])([H])C([H])([H])C([H])([H])C2([H])N([H])C(=O)C1([H])N(C(=O)C([H])(N([H])C(=O)C([H])(N([H])C([H])([H])[H])C([H])([H])[H])C(C([H])([H])[H])(C([H])([H])[H])C([H])([H])[H])C([H])([H])c2c([H])c(OC([H])([H])C([H])([H])[N+]3([H])C([H])([H])C([H])([H])C3([H])C(=O)N([H])C([H])([H])c3c([H])c(C([H])([H])[H])c(N([H])C(=O)N4C([H])([H])C([H])([H])C([H])([H])C([H])(n5nc(-c6c([H])c([H])c(Oc7c([H])c([H])c(F)c([H])c7F)c([H])c6[H])c(C(=O)N([H])[H])c5N([H])[H])C4([H])[H])c([H])c3C(=O)N([H])[H])c([H])c([H])c2C1([H])[H]

>  <smiles>  (9) 
[H]c1c([H])c([H])c2c(c1[H])C([H])([H])C([H])([H])C([H])([H])C2([H])N([H])C(=O)C1([H])N(C(=O)C([H])(N([H])C(=O)C([H])(N([H])C([H])([H])[H])C([H])([H])[H])C(C([H])([H])[H])(C([H])([H])[H])C([H])([H])[H])C([H])([H])c2c([H])c(OC([H])([H])C([H])([H])[N+]3([H])C([H])([H])C([H])([H])C3([H])C(=O)N([H])C([H])([H])c3c([H])c(C([H])([H])[H])c(N([H])C(=O)N4C([H])([H])C([H])([H])C([H])([H])C([H])(n5nc(-c6c([H])c([H])c(Oc7c([H])c([H])c(F)c([H])c7F)c([H])c6[H])c(C(=O)N([H])[H])c5N([H])[H])C4([H])[H])c([H])c3C(=O)N([H])[H])c([H])c([H])c2C1([H])[H]

$$$$
9:0:0
     RDKit          3D

 97105  0  0  1  0  0  0  0  0999 V2000
  -28.6340  -21.9320   20.4410 C   0  0  0  0  0  3  0  0  0  0  0  0
  -29.4000  -20.9900   19.4360 C   0  0  0  0  0  0  0  0  0  0  0  0
  -30.2050  -19.5170   21.3220 C   0  0  0  0  0  2  0  0  0  0  0  0
  -30.3190  -18.6130   19.1100 C   0  0  0  0  0  2  0  0  0  0  0  0
  -30.4480  -18.0090   21.4300 C   0  0  0  0  0  3  0  0  0  0  0  0
  -30.9770  -17.5560   20.0670 C   0  0  0  0  0  3  0  0  0  0  0  0
  -31.3140  -17.5940   22.6250 C   0  0  0  0  0  1  0  0  0  0  0  0
  -29.9360  -19.8110   19.9110 N   0  0  0  0  0  0  0  0  0  0  0  0
  -29.4270  -21.2740   18.2340 O   0  0  0  0  0  0  0  0  0  0  0  0
  -31.3990  -15.0350   19.6020 C   0  0  0  0  0  0  0  0  0  0  0  0
  -31.1140  -12.7050   18.8060 C   0  0  0  0  0  2  0  0  0  0  0  0
  -30.0970  -12.7010   17.6460 C   0  0  0  0  0  2  0  0  0  0  0  0
  -28.6530  -12.6000   18.1790 C   0  0  0  0  0  2  0  0  0  0  0  0
  -28.3690  -13.6130   19.3210 C   0  0  0  0  0  3  0  0  0  0  0  0
  -29.4900  -13.5800   20.3840 C   0  0  0  0  0  2  0  0  0  0  0  0
  -30.7640  -13.8310   19.6880 N   0  0  0  0  0  0  0  0  0  0  0  0
  -32.5420  -15.1510   19.1490 O   0  0  0  0  0  0  0  0  0  0  0  0
  -30.6280  -16.1170   19.8840 N   0  0  0  0  0  0  0  0  0  0  0  0
  -29.6840  -15.8750   20.1470 H   0  0  0  0  0  0  0  0  0  0  0  0
  -26.0940  -14.3490   20.2690 C   0  0  0  0  0  0  0  0  0  0  0  0
  -25.0070  -13.6370   20.7030 C   0  0  0  0  0  0  0  0  0  0  0  0
  -25.3630  -12.2600   20.5740 C   0  0  0  0  0  0  0  0  0  0  0  0
  -27.0470  -13.4090   19.9100 N   0  0  0  0  0  0  0  0  0  0  0  0
  -26.6160  -12.1450   20.1500 N   0  0  0  0  0  0  0  0  0  0  0  0
  -24.5640  -11.0440   20.7730 C   0  0  0  0  0  0  0  0  0  0  0  0
  -24.9480  -10.0560   21.7080 C   0  0  0  0  0  3  0  0  0  0  0  0
  -24.1550   -8.9060   21.8970 C   0  0  0  0  0  3  0  0  0  0  0  0
  -22.9640   -8.7360   21.1520 C   0  0  0  0  0  0  0  0  0  0  0  0
  -22.5990   -9.7100   20.2040 C   0  0  0  0  0  3  0  0  0  0  0  0
  -23.3930  -10.8510   20.0150 C   0  0  0  0  0  3  0  0  0  0  0  0
  -22.1490   -7.6340   21.2480 O   0  0  0  0  0  0  0  0  0  0  0  0
  -21.9550   -6.9800   22.4400 C   0  0  0  0  0  0  0  0  0  0  0  0
  -21.4420   -7.6410   23.5770 C   0  0  0  0  0  3  0  0  0  0  0  0
  -21.1970   -6.9180   24.7620 C   0  0  0  0  0  3  0  0  0  0  0  0
  -21.4530   -5.5360   24.8080 C   0  0  0  0  0  0  0  0  0  0  0  0
  -21.9550   -4.8720   23.6750 C   0  0  0  0  0  3  0  0  0  0  0  0
  -22.2020   -5.5940   22.4930 C   0  0  0  0  0  0  0  0  0  0  0  0
  -22.6700   -4.9460   21.3980 F   0  0  0  0  0  0  0  0  0  0  0  0
  -21.2070   -4.8390   25.9430 F   0  0  0  0  0  0  0  0  0  0  0  0
  -23.6780  -14.2000   21.1190 C   0  0  0  0  0  0  0  0  0  0  0  0
  -22.9830  -13.5250   22.0280 N   0  0  0  0  0  0  0  0  0  0  0  0
  -23.2690  -15.2720   20.6720 O   0  0  0  0  0  0  0  0  0  0  0  0
  -23.3350  -12.6600   22.4130 H   0  0  0  0  0  0  0  0  0  0  0  0
  -22.0920  -13.8810   22.3500 H   0  0  0  0  0  0  0  0  0  0  0  0
  -26.3380  -15.7120   20.1350 N   0  0  0  0  0  0  0  0  0  0  0  0
  -25.6310  -16.4040   20.3570 H   0  0  0  0  0  0  0  0  0  0  0  0
  -27.1610  -16.1090   19.7000 H   0  0  0  0  0  0  0  0  0  0  0  0
  -29.4810  -24.4250   20.3380 C   0  0  0  0  0  0  0  0  0  0  0  0
  -28.5780  -23.4220   20.3250 N   0  0  0  0  0  0  0  0  0  0  0  0
  -30.6680  -24.2580   20.0520 O   0  0  0  0  0  0  0  0  0  0  0  0
  -27.6290  -23.7440   20.4420 H   0  0  0  0  0  0  0  0  0  0  0  0
  -28.9680  -25.7890   20.9220 C   0  0  0  0  0  2  0  0  0  0  0  0
  -29.0660  -26.9720   20.0760 O   0  0  0  0  0  0  0  0  0  0  0  0
  -24.8100  -31.8190   23.2370 C   0  0  0  0  0  0  0  0  0  0  0  0
  -27.8890  -27.7070   20.0490 C   0  0  0  0  0  0  0  0  0  0  0  0
  -23.7670  -30.3850   21.5180 C   0  0  0  0  0  3  0  0  0  0  0  0
  -25.3780  -29.0370   20.0590 C   0  0  0  0  0  0  0  0  0  0  0  0
  -26.2600  -30.9550   21.3950 C   0  0  0  0  0  2  0  0  0  0  0  0
  -26.4810  -29.6230   20.6970 C   0  0  0  0  0  0  0  0  0  0  0  0
  -27.7430  -28.9680   20.6840 C   0  0  0  0  0  3  0  0  0  0  0  0
  -26.7670  -27.1520   19.3960 C   0  0  0  0  0  3  0  0  0  0  0  0
  -25.5200  -27.8040   19.4010 C   0  0  0  0  0  3  0  0  0  0  0  0
  -24.0610  -29.7860   20.1160 C   0  0  0  0  0  2  0  0  0  0  0  0
  -24.9620  -31.0660   22.1110 N   0  0  0  0  0  0  0  0  0  0  0  0
  -23.6990  -31.9750   23.7600 O   0  0  0  0  0  0  0  0  0  0  0  0
  -23.1860  -29.2730   22.4230 C   0  0  0  0  0  0  0  0  0  0  0  0
  -21.8890  -28.9670   22.2420 N   0  0  0  0  0  0  0  0  0  0  0  0
  -23.8990  -28.6910   23.2440 O   0  0  0  0  0  0  0  0  0  0  0  0
  -21.3730  -29.4970   21.5560 H   0  0  0  0  0  0  0  0  0  0  0  0
  -18.6400  -27.4180   22.5670 C   0  0  0  0  0  0  0  0  0  0  0  0
  -21.1440  -27.9270   22.9530 C   0  0  0  0  0  3  0  0  0  0  0  0
  -21.4130  -26.5310   22.3460 C   0  0  0  0  0  2  0  0  0  0  0  0
  -20.3930  -26.1300   21.2760 C   0  0  0  0  0  2  0  0  0  0  0  0
  -18.9790  -26.1180   21.8620 C   0  0  0  0  0  2  0  0  0  0  0  0
  -19.6550  -28.2770   23.0660 C   0  0  0  0  0  0  0  0  0  0  0  0
  -19.2840  -29.4940   23.6760 C   0  0  0  0  0  3  0  0  0  0  0  0
  -17.9270  -29.8550   23.7980 C   0  0  0  0  0  3  0  0  0  0  0  0
  -16.9270  -28.9930   23.3180 C   0  0  0  0  0  3  0  0  0  0  0  0
  -17.2810  -27.7760   22.7080 C   0  0  0  0  0  3  0  0  0  0  0  0
  -26.0200  -32.5350   23.9080 C   0  0  0  0  0  3  0  0  0  0  0  0
  -25.6040  -33.9080   24.2270 N   0  0  0  0  0  0  0  0  0  0  0  0
  -25.8840  -34.9810   23.4770 C   0  0  0  0  0  0  0  0  0  0  0  0
  -26.5930  -34.9280   22.4680 O   0  0  0  0  0  0  0  0  0  0  0  0
  -24.9780  -34.0190   25.0130 H   0  0  0  0  0  0  0  0  0  0  0  0
  -24.0430  -36.6430   23.0640 C   0  0  0  0  0  1  0  0  0  0  0  0
  -25.2840  -36.3310   23.9150 C   0  0  0  0  0  3  0  0  0  0  0  0
  -27.3240  -37.3670   24.8070 C   0  0  0  0  0  1  0  0  0  0  0  0
  -26.2410  -37.4550   23.8300 N   0  0  0  0  0  0  0  0  0  0  0  0
  -25.7670  -38.3440   23.9600 H   0  0  0  0  0  0  0  0  0  0  0  0
  -26.5350  -31.7970   25.2040 C   0  0  1  0  0  0  0  0  0  0  0  0
  -25.4150  -31.4700   26.2200 C   0  0  0  0  0  1  0  0  0  0  0  0
  -27.2410  -30.4720   24.8330 C   0  0  0  0  0  1  0  0  0  0  0  0
  -27.5900  -32.6740   25.9230 C   0  0  0  0  0  1  0  0  0  0  0  0
  -26.2820  -22.3330   21.5010 C   0  0  0  0  0  1  0  0  0  0  0  0
  -27.1390  -21.4830   20.5460 C   0  0  0  0  0  3  0  0  0  0  0  0
  -26.5150  -21.4970   19.2690 O   0  0  0  0  0  0  0  0  0  0  0  0
  -25.6860  -21.0310   19.3330 H   0  0  0  0  0  0  0  0  0  0  0  0
  1  2  1  0
  1 95  1  0
  2  8  1  0
  3  5  1  0
  4  8  1  0
  4  6  1  0
  5  7  1  0
  6 18  1  0
  6  5  1  0
  8  3  1  0
  9  2  2  0
 10 16  1  0
 10 18  1  0
 11 16  1  0
 12 13  1  0
 12 11  1  0
 14 13  1  0
 14 23  1  0
 14 15  1  0
 16 15  1  0
 17 10  2  0
 18 19  1  0
 20 21  2  0
 21 40  1  0
 22 21  1  0
 22 25  1  0
 23 24  1  0
 23 20  1  0
 24 22  2  0
 25 26  1  0
 26 27  2  0
 28 31  1  0
 28 27  1  0
 29 28  2  0
 30 29  1  0
 30 25  2  0
 31 32  1  0
 32 37  2  0
 32 33  1  0
 33 34  2  0
 34 35  1  0
 35 39  1  0
 36 35  2  0
 37 36  1  0
 38 37  1  0
 40 41  1  0
 41 44  1  0
 41 43  1  0
 42 40  2  0
 45 20  1  0
 45 46  1  0
 47 45  1  0
 48 52  1  0
 49 48  1  0
 49  1  1  0
 49 51  1  0
 50 48  2  0
 53 52  1  0
 54 65  2  0
 55 53  1  0
 55 60  1  0
 56 64  1  0
 56 66  1  0
 57 63  1  0
 57 59  1  0
 58 64  1  0
 59 58  1  0
 60 59  2  0
 61 62  1  0
 61 55  2  0
 62 57  2  0
 63 56  1  0
 64 54  1  0
 66 68  2  0
 67 66  1  0
 69 67  1  0
 70 79  2  0
 70 75  1  0
 71 67  1  0
 71 75  1  0
 72 71  1  0
 73 74  1  0
 73 72  1  0
 74 70  1  0
 75 76  2  0
 76 77  1  0
 78 77  2  0
 79 78  1  0
 80 54  1  0
 80 81  1  0
 80 90  1  0
 81 84  1  0
 82 86  1  0
 82 81  1  0
 83 82  2  0
 86 85  1  0
 88 86  1  0
 88 89  1  0
 88 87  1  0
 90 93  1  1
 90 91  1  0
 92 90  1  0
 95 94  1  0
 96 97  1  0
 96 95  1  0
M  ISO  4  10 100  18 100  52 101  53 101
M  END
>  <TORSDO>  (10) 
F 21

>  <SCORE>  (10) 
-10.405

>  <name>  (10) 
9

>  <ligand_id>  (10) 
9

>  <original_smiles>  (10) 
[H]OC([H])(C([H])([H])[H])C([H])(C(=O)N1C([H])([H])C([H])(N([H])C(=O)N2C([H])([H])C([H])([H])C([H])([H])C([H])(n3nc(-c4c([H])c([H])c(Oc5c([H])c([H])c(F)c([H])c5F)c([H])c4[H])c(C(=O)N([H])[H])c3N([H])[H])C2([H])[H])C([H])(C([H])([H])[H])C1([H])[H])N([H])C(=O)C([H])([H])Oc1c([H])c([H])c2c(c1[H])C([H])([H])N(C(=O)C([H])(N([H])C(=O)C([H])(N([H])C([H])([H])[H])C([H])([H])[H])C(C([H])([H])[H])(C([H])([H])[H])C([H])([H])[H])C([H])(C(=O)N([H])C1([H])c3c([H])c([H])c([H])c([H])c3C([H])([H])C([H])([H])C1([H])[H])C2([H])[H]

>  <smiles>  (10) 
[H]OC([H])(C([H])([H])[H])C([H])(C(=O)N1C([H])([H])C([H])(N([H])C(=O)N2C([H])([H])C([H])([H])C([H])([H])C([H])(n3nc(-c4c([H])c([H])c(Oc5c([H])c([H])c(F)c([H])c5F)c([H])c4[H])c(C(=O)N([H])[H])c3N([H])[H])C2([H])[H])C([H])(C([H])([H])[H])C1([H])[H])N([H])C(=O)C([H])([H])Oc1c([H])c([H])c2c(c1[H])C([H])([H])N(C(=O)C([H])(N([H])C(=O)C([H])(N([H])C([H])([H])[H])C([H])([H])[H])C(C([H])([H])[H])(C([H])([H])[H])C([H])([H])[H])C([H])(C(=O)N([H])C1([H])c3c([H])c([H])c([H])c([H])c3C([H])([H])C([H])([H])C1([H])[H])C2([H])[H]

$$$$
10:0:0
     RDKit          3D

 94102  0  0  1  0  0  0  0  0999 V2000
  -29.1610  -22.7510   20.1460 C   0  0  0  0  0  3  0  0  0  0  0  0
  -27.6700  -19.3490   20.1580 C   0  0  0  0  0  2  0  0  0  0  0  0
  -27.4130  -20.8580   20.2070 C   0  0  0  0  0  2  0  0  0  0  0  0
  -29.1290  -19.6030   20.5260 C   0  0  0  0  0  3  0  0  0  0  0  0
  -28.8010  -21.1290   19.8370 N   0  0  2  0  0  4  0  0  0  0  0  0
  -28.8720  -20.9810   18.8450 H   0  0  0  0  0  0  0  0  0  0  0  0
  -30.5410  -15.4290   20.2330 C   0  0  0  0  0  0  0  0  0  0  0  0
  -30.5800  -12.9400   19.4850 C   0  0  0  0  0  2  0  0  0  0  0  0
  -29.7010  -12.6950   18.2320 C   0  0  0  0  0  2  0  0  0  0  0  0
  -28.2530  -12.3840   18.6490 C   0  0  0  0  0  2  0  0  0  0  0  0
  -27.7500  -13.3710   19.7340 C   0  0  0  0  0  3  0  0  0  0  0  0
  -28.7700  -13.5830   20.8780 C   0  0  0  0  0  2  0  0  0  0  0  0
  -30.0050  -14.1010   20.2660 N   0  0  0  0  0  0  0  0  0  0  0  0
  -31.7450  -15.4230   19.9430 O   0  0  0  0  0  0  0  0  0  0  0  0
  -29.9820  -18.1390   20.0320 C   0  0  0  0  0  0  0  0  0  0  0  0
  -29.7750  -16.7000   20.3870 N   0  0  0  0  0  0  0  0  0  0  0  0
  -30.9290  -18.3740   19.2760 O   0  0  0  0  0  0  0  0  0  0  0  0
  -28.8920  -16.5500   20.8490 H   0  0  0  0  0  0  0  0  0  0  0  0
  -25.3640  -13.8970   20.4610 C   0  0  0  0  0  0  0  0  0  0  0  0
  -24.3090  -13.1070   20.8210 C   0  0  0  0  0  0  0  0  0  0  0  0
  -24.7880  -11.7610   20.7860 C   0  0  0  0  0  0  0  0  0  0  0  0
  -26.4190  -13.0340   20.2240 N   0  0  0  0  0  0  0  0  0  0  0  0
  -26.0830  -11.7420   20.4870 N   0  0  0  0  0  0  0  0  0  0  0  0
  -24.0730  -10.4900   20.9640 C   0  0  0  0  0  0  0  0  0  0  0  0
  -24.4700   -9.5470   21.9380 C   0  0  0  0  0  3  0  0  0  0  0  0
  -23.7510   -8.3440   22.1070 C   0  0  0  0  0  3  0  0  0  0  0  0
  -22.6190   -8.0730   21.3020 C   0  0  0  0  0  0  0  0  0  0  0  0
  -22.2430   -9.0050   20.3190 C   0  0  0  0  0  3  0  0  0  0  0  0
  -22.9610  -10.1990   20.1480 C   0  0  0  0  0  3  0  0  0  0  0  0
  -21.8770   -6.9190   21.3770 O   0  0  0  0  0  0  0  0  0  0  0  0
  -21.7320   -6.2300   22.5550 C   0  0  0  0  0  0  0  0  0  0  0  0
  -21.1350   -6.8160   23.6930 C   0  0  0  0  0  3  0  0  0  0  0  0
  -20.9430   -6.0480   24.8610 C   0  0  0  0  0  3  0  0  0  0  0  0
  -21.3390   -4.6980   24.8890 C   0  0  0  0  0  0  0  0  0  0  0  0
  -21.9260   -4.1110   23.7540 C   0  0  0  0  0  3  0  0  0  0  0  0
  -22.1210   -4.8760   22.5920 C   0  0  0  0  0  0  0  0  0  0  0  0
  -22.6680   -4.2990   21.4940 F   0  0  0  0  0  0  0  0  0  0  0  0
  -21.1470   -3.9600   26.0070 F   0  0  0  0  0  0  0  0  0  0  0  0
  -22.9040  -13.5690   21.0750 C   0  0  0  0  0  0  0  0  0  0  0  0
  -22.1740  -12.8760   21.9430 N   0  0  0  0  0  0  0  0  0  0  0  0
  -22.4590  -14.5820   20.5400 O   0  0  0  0  0  0  0  0  0  0  0  0
  -22.5410  -12.0610   22.4090 H   0  0  0  0  0  0  0  0  0  0  0  0
  -21.2310  -13.1730   22.1450 H   0  0  0  0  0  0  0  0  0  0  0  0
  -25.5180  -15.2680   20.2790 N   0  0  0  0  0  0  0  0  0  0  0  0
  -24.7400  -15.9160   20.3440 H   0  0  0  0  0  0  0  0  0  0  0  0
  -26.3590  -15.6960   19.9150 H   0  0  0  0  0  0  0  0  0  0  0  0
  -30.4030  -23.0060   19.2440 C   0  0  0  0  0  2  0  0  0  0  0  0
  -31.1500  -24.3450   19.4360 C   0  0  0  0  0  2  0  0  0  0  0  0
  -32.2570  -24.5130   18.4760 N   0  0  0  0  0  4  0  0  0  0  0  0
  -32.9530  -23.7970   18.5760 H   0  0  0  0  0  0  0  0  0  0  0  0
  -32.7020  -25.4000   18.6320 H   0  0  0  0  0  0  0  0  0  0  0  0
  -31.9220  -24.5090   17.5280 H   0  0  0  0  0  0  0  0  0  0  0  0
  -28.0880  -24.2380   20.0130 C   0  0  0  0  0  2  0  0  0  0  0  0
  -28.2880  -25.8910   20.2240 O   0  0  0  0  0  0  0  0  0  0  0  0
  -24.7200  -31.8540   23.3020 C   0  0  0  0  0  0  0  0  0  0  0  0
  -27.2800  -27.0070   20.1830 C   0  0  0  0  0  0  0  0  0  0  0  0
  -23.5390  -30.5050   21.6170 C   0  0  0  0  0  3  0  0  0  0  0  0
  -24.9950  -28.9240   20.1650 C   0  0  0  0  0  0  0  0  0  0  0  0
  -26.1110  -30.6940   21.5060 C   0  0  0  0  0  2  0  0  0  0  0  0
  -26.1800  -29.3000   20.8070 C   0  0  0  0  0  0  0  0  0  0  0  0
  -27.3160  -28.3660   20.7880 C   0  0  0  0  0  3  0  0  0  0  0  0
  -26.0640  -26.7930   19.4940 C   0  0  0  0  0  3  0  0  0  0  0  0
  -24.9650  -27.6950   19.4860 C   0  0  0  0  0  3  0  0  0  0  0  0
  -23.7770  -29.8500   20.2270 C   0  0  0  0  0  2  0  0  0  0  0  0
  -24.8120  -31.0460   22.1940 N   0  0  0  0  0  0  0  0  0  0  0  0
  -23.6250  -32.1360   23.8150 O   0  0  0  0  0  0  0  0  0  0  0  0
  -22.8270  -29.4910   22.5520 C   0  0  0  0  0  0  0  0  0  0  0  0
  -21.5010  -29.3210   22.3930 N   0  0  0  0  0  0  0  0  0  0  0  0
  -23.4770  -28.8560   23.3860 O   0  0  0  0  0  0  0  0  0  0  0  0
  -21.0320  -29.8800   21.6950 H   0  0  0  0  0  0  0  0  0  0  0  0
  -18.1130  -28.0900   22.8170 C   0  0  0  0  0  0  0  0  0  0  0  0
  -20.6670  -28.3650   23.1290 C   0  0  0  0  0  3  0  0  0  0  0  0
  -20.7870  -26.9460   22.5260 C   0  0  0  0  0  2  0  0  0  0  0  0
  -19.7040  -26.6410   21.4860 C   0  0  0  0  0  2  0  0  0  0  0  0
  -18.3110  -26.7600   22.1090 C   0  0  0  0  0  2  0  0  0  0  0  0
  -19.2200  -28.8510   23.2800 C   0  0  0  0  0  0  0  0  0  0  0  0
  -18.9790  -30.0940   23.9050 C   0  0  0  0  0  3  0  0  0  0  0  0
  -17.6670  -30.5770   24.0700 C   0  0  0  0  0  3  0  0  0  0  0  0
  -16.5760  -29.8120   23.6250 C   0  0  0  0  0  3  0  0  0  0  0  0
  -16.7990  -28.5710   23.0020 C   0  0  0  0  0  3  0  0  0  0  0  0
  -25.9830  -32.4780   23.9660 C   0  0  0  0  0  3  0  0  0  0  0  0
  -25.6800  -33.8850   24.2880 N   0  0  0  0  0  0  0  0  0  0  0  0
  -25.9950  -34.9360   23.5170 C   0  0  0  0  0  0  0  0  0  0  0  0
  -26.6300  -34.8220   22.4660 O   0  0  0  0  0  0  0  0  0  0  0  0
  -25.1110  -34.0470   25.1060 H   0  0  0  0  0  0  0  0  0  0  0  0
  -24.2390  -36.7240   23.2510 C   0  0  0  0  0  1  0  0  0  0  0  0
  -25.5340  -36.3330   23.9840 C   0  0  0  0  0  3  0  0  0  0  0  0
  -27.7060  -37.2530   24.6710 C   0  0  0  0  0  1  0  0  0  0  0  0
  -26.5520  -37.3890   23.7850 N   0  0  0  0  0  0  0  0  0  0  0  0
  -26.1490  -38.3110   23.9310 H   0  0  0  0  0  0  0  0  0  0  0  0
  -26.4400  -31.7130   25.2710 C   0  0  1  0  0  0  0  0  0  0  0  0
  -25.3060  -31.5010   26.3020 C   0  0  0  0  0  1  0  0  0  0  0  0
  -27.0160  -30.3210   24.9260 C   0  0  0  0  0  1  0  0  0  0  0  0
  -27.5780  -32.4980   25.9660 C   0  0  0  0  0  1  0  0  0  0  0  0
  1 47  1  0
  2  3  1  0
  2  4  1  0
  4 15  1  0
  5  1  1  0
  5  3  1  0
  5  4  1  0
  5  6  1  6
  7 13  1  0
  7 16  1  0
  8 13  1  0
  9 10  1  0
  9  8  1  0
 11 10  1  0
 11 22  1  0
 11 12  1  0
 13 12  1  0
 14  7  2  0
 15 16  1  0
 16 18  1  0
 17 15  2  0
 19 20  2  0
 20 39  1  0
 21 20  1  0
 21 24  1  0
 22 19  1  0
 22 23  1  0
 23 21  2  0
 24 25  1  0
 25 26  2  0
 27 30  1  0
 27 26  1  0
 28 27  2  0
 29 28  1  0
 29 24  2  0
 30 31  1  0
 31 36  2  0
 31 32  1  0
 32 33  2  0
 33 34  1  0
 34 38  1  0
 35 34  2  0
 36 35  1  0
 37 36  1  0
 39 40  1  0
 40 43  1  0
 40 42  1  0
 41 39  2  0
 44 45  1  0
 44 19  1  0
 46 44  1  0
 47 48  1  0
 49 50  1  0
 49 51  1  0
 49 48  1  0
 52 49  1  0
 53  1  1  0
 53 54  1  0
 55 66  2  0
 56 54  1  0
 56 61  1  0
 57 65  1  0
 57 67  1  0
 58 64  1  0
 58 60  1  0
 59 65  1  0
 60 59  1  0
 61 60  2  0
 62 56  2  0
 63 62  1  0
 63 58  2  0
 64 57  1  0
 65 55  1  0
 67 69  2  0
 68 67  1  0
 70 68  1  0
 71 80  2  0
 71 76  1  0
 72 68  1  0
 72 76  1  0
 73 72  1  0
 74 75  1  0
 74 73  1  0
 75 71  1  0
 76 77  2  0
 77 78  1  0
 79 78  2  0
 80 79  1  0
 81 55  1  0
 81 82  1  0
 81 91  1  0
 82 85  1  0
 83 87  1  0
 83 82  1  0
 84 83  2  0
 87 86  1  0
 89 90  1  0
 89 87  1  0
 89 88  1  0
 91 94  1  1
 91 92  1  0
 93 91  1  0
M  ISO  4   7 100  16 100  53 101  54 101
M  END
>  <TORSDO>  (11) 
F 21

>  <SCORE>  (11) 
-15.057

>  <name>  (11) 
10

>  <ligand_id>  (11) 
10

>  <original_smiles>  (11) 
[H]c1c([H])c([H])c2c(c1[H])C([H])([H])C([H])([H])C([H])([H])C2([H])N([H])C(=O)C1([H])N(C(=O)C([H])(N([H])C(=O)C([H])(N([H])C([H])([H])[H])C([H])([H])[H])C(C([H])([H])[H])(C([H])([H])[H])C([H])([H])[H])C([H])([H])c2c([H])c(OC([H])([H])C([H])(C([H])([H])C([H])([H])[N+]([H])([H])[H])[N+]3([H])C([H])([H])C([H])([H])C3([H])C(=O)N([H])C(=O)N3C([H])([H])C([H])([H])C([H])([H])C([H])(n4nc(-c5c([H])c([H])c(Oc6c([H])c([H])c(F)c([H])c6F)c([H])c5[H])c(C(=O)N([H])[H])c4N([H])[H])C3([H])[H])c([H])c([H])c2C1([H])[H]

>  <smiles>  (11) 
[H]c1c([H])c([H])c2c(c1[H])C([H])([H])C([H])([H])C([H])([H])C2([H])N([H])C(=O)C1([H])N(C(=O)C([H])(N([H])C(=O)C([H])(N([H])C([H])([H])[H])C([H])([H])[H])C(C([H])([H])[H])(C([H])([H])[H])C([H])([H])[H])C([H])([H])c2c([H])c(OC([H])([H])C([H])(C([H])([H])C([H])([H])[N+]([H])([H])[H])[N+]3([H])C([H])([H])C([H])([H])C3([H])C(=O)N([H])C(=O)N3C([H])([H])C([H])([H])C([H])([H])C([H])(n4nc(-c5c([H])c([H])c(Oc6c([H])c([H])c(F)c([H])c6F)c([H])c5[H])c(C(=O)N([H])[H])c4N([H])[H])C3([H])[H])c([H])c([H])c2C1([H])[H]

$$$$
11:0:0
     RDKit          3D

 96104  0  0  1  0  0  0  0  0999 V2000
  -29.9190  -22.5420   20.6510 C   0  0  0  0  0  0  0  0  0  0  0  0
  -29.5030  -23.8000   20.4360 N   0  0  0  0  0  0  0  0  0  0  0  0
  -30.7400  -22.2680   21.5320 O   0  0  0  0  0  0  0  0  0  0  0  0
  -28.8200  -23.9580   19.7060 H   0  0  0  0  0  0  0  0  0  0  0  0
  -31.1520  -25.6310   20.4640 C   0  0  0  0  0  1  0  0  0  0  0  0
  -29.9590  -24.9750   21.1830 C   0  0  0  0  0  3  0  0  0  0  0  0
  -29.1750  -26.9180   22.6120 C   0  0  0  0  0  1  0  0  0  0  0  0
  -28.7950  -25.9560   21.4680 C   0  0  0  0  0  3  0  0  0  0  0  0
  -28.4550  -26.6410   20.2540 O   0  0  0  0  0  0  0  0  0  0  0  0
  -24.6610  -31.8220   23.3160 C   0  0  0  0  0  0  0  0  0  0  0  0
  -27.2960  -27.3800   20.2770 C   0  0  0  0  0  0  0  0  0  0  0  0
  -23.4500  -30.4300   21.6630 C   0  0  0  0  0  3  0  0  0  0  0  0
  -24.9020  -28.8760   20.2550 C   0  0  0  0  0  0  0  0  0  0  0  0
  -25.9740  -30.7810   21.4750 C   0  0  0  0  0  2  0  0  0  0  0  0
  -26.0550  -29.4090   20.8410 C   0  0  0  0  0  0  0  0  0  0  0  0
  -27.2570  -28.6760   20.8360 C   0  0  0  0  0  3  0  0  0  0  0  0
  -26.1330  -26.8550   19.6800 C   0  0  0  0  0  3  0  0  0  0  0  0
  -24.9340  -27.5970   19.6670 C   0  0  0  0  0  3  0  0  0  0  0  0
  -23.6620  -29.7400   20.2880 C   0  0  0  0  0  2  0  0  0  0  0  0
  -24.7140  -31.0240   22.2120 N   0  0  0  0  0  0  0  0  0  0  0  0
  -23.5790  -32.1040   23.8510 O   0  0  0  0  0  0  0  0  0  0  0  0
  -22.7840  -29.4190   22.6220 C   0  0  0  0  0  0  0  0  0  0  0  0
  -21.4570  -29.2610   22.4920 N   0  0  0  0  0  0  0  0  0  0  0  0
  -23.4570  -28.7790   23.4350 O   0  0  0  0  0  0  0  0  0  0  0  0
  -20.9780  -29.8270   21.8060 H   0  0  0  0  0  0  0  0  0  0  0  0
  -18.0600  -28.1450   22.9920 C   0  0  0  0  0  0  0  0  0  0  0  0
  -20.6230  -28.3340   23.2570 C   0  0  0  0  0  3  0  0  0  0  0  0
  -20.6890  -26.9080   22.6640 C   0  0  0  0  0  2  0  0  0  0  0  0
  -19.5750  -26.6250   21.6510 C   0  0  0  0  0  2  0  0  0  0  0  0
  -18.2000  -26.7990   22.3030 C   0  0  0  0  0  2  0  0  0  0  0  0
  -19.1990  -28.8730   23.4260 C   0  0  0  0  0  0  0  0  0  0  0  0
  -19.0150  -30.1370   24.0290 C   0  0  0  0  0  3  0  0  0  0  0  0
  -17.7250  -30.6710   24.2040 C   0  0  0  0  0  3  0  0  0  0  0  0
  -16.6000  -29.9380   23.7880 C   0  0  0  0  0  3  0  0  0  0  0  0
  -16.7680  -28.6780   23.1870 C   0  0  0  0  0  3  0  0  0  0  0  0
  -25.9510  -32.4360   23.9450 C   0  0  0  0  0  3  0  0  0  0  0  0
  -25.6510  -33.8310   24.2940 N   0  0  0  0  0  0  0  0  0  0  0  0
  -25.9950  -34.8910   23.5500 C   0  0  0  0  0  0  0  0  0  0  0  0
  -26.6710  -34.7970   22.5210 O   0  0  0  0  0  0  0  0  0  0  0  0
  -25.0520  -33.9790   25.0930 H   0  0  0  0  0  0  0  0  0  0  0  0
  -24.2810  -36.6960   23.2070 C   0  0  0  0  0  1  0  0  0  0  0  0
  -25.5140  -36.2760   24.0230 C   0  0  0  0  0  3  0  0  0  0  0  0
  -27.6510  -37.1330   24.8770 C   0  0  0  0  0  1  0  0  0  0  0  0
  -26.5540  -37.3230   23.9310 N   0  0  0  0  0  0  0  0  0  0  0  0
  -26.1540  -38.2440   24.0900 H   0  0  0  0  0  0  0  0  0  0  0  0
  -26.4670  -31.6430   25.2070 C   0  0  1  0  0  0  0  0  0  0  0  0
  -25.3740  -31.3820   26.2680 C   0  0  0  0  0  1  0  0  0  0  0  0
  -27.0560  -30.2750   24.7870 C   0  0  0  0  0  1  0  0  0  0  0  0
  -27.6130  -32.4280   25.8880 C   0  0  0  0  0  1  0  0  0  0  0  0
  -29.3400  -21.4410   19.7440 C   0  0  0  0  0  2  0  0  0  0  0  0
  -31.0390  -19.6980   18.9830 C   0  0  0  0  0  3  0  0  0  0  0  0
  -31.7410  -18.4920   19.1730 C   0  0  0  0  0  3  0  0  0  0  0  0
  -29.7580  -19.2620   21.0070 C   0  0  0  0  0  3  0  0  0  0  0  0
  -30.0570  -20.1020   19.9120 C   0  0  0  0  0  0  0  0  0  0  0  0
  -31.4760  -17.6750   20.2920 C   0  0  0  0  0  0  0  0  0  0  0  0
  -30.4590  -18.0530   21.2030 C   0  0  0  0  0  0  0  0  0  0  0  0
  -30.1200  -17.1950   22.4110 C   0  0  0  0  0  1  0  0  0  0  0  0
  -32.3180  -16.4200   20.4990 C   0  0  0  0  0  2  0  0  0  0  0  0
  -31.8650  -14.2320   19.3980 C   0  0  0  0  0  0  0  0  0  0  0  0
  -31.2840  -11.9810   18.5690 C   0  0  0  0  0  2  0  0  0  0  0  0
  -30.2380  -12.0470   17.4420 C   0  0  0  0  0  2  0  0  0  0  0  0
  -28.8110  -12.0780   18.0220 C   0  0  0  0  0  2  0  0  0  0  0  0
  -28.6460  -13.1440   19.1350 C   0  0  0  0  0  3  0  0  0  0  0  0
  -29.7850  -13.0320   20.1730 C   0  0  0  0  0  2  0  0  0  0  0  0
  -31.0740  -13.1300   19.4610 N   0  0  0  0  0  0  0  0  0  0  0  0
  -32.8210  -14.3390   18.6220 O   0  0  0  0  0  0  0  0  0  0  0  0
  -31.5720  -15.1860   20.2880 N   0  0  0  0  0  0  0  0  0  0  0  0
  -30.7900  -15.0100   20.8990 H   0  0  0  0  0  0  0  0  0  0  0  0
  -26.4820  -14.0680   20.1830 C   0  0  0  0  0  0  0  0  0  0  0  0
  -25.3520  -13.4460   20.6430 C   0  0  0  0  0  0  0  0  0  0  0  0
  -25.5730  -12.0460   20.4720 C   0  0  0  0  0  0  0  0  0  0  0  0
  -27.3300  -13.0530   19.7670 N   0  0  0  0  0  0  0  0  0  0  0  0
  -26.7910  -11.8270   19.9940 N   0  0  0  0  0  0  0  0  0  0  0  0
  -24.6760  -10.9030   20.6800 C   0  0  0  0  0  0  0  0  0  0  0  0
  -25.0070   -9.8560   21.5700 C   0  0  0  0  0  3  0  0  0  0  0  0
  -24.1200   -8.7770   21.7670 C   0  0  0  0  0  3  0  0  0  0  0  0
  -22.8860   -8.7360   21.0760 C   0  0  0  0  0  0  0  0  0  0  0  0
  -22.5710   -9.7680   20.1750 C   0  0  0  0  0  3  0  0  0  0  0  0
  -23.4580  -10.8390   19.9750 C   0  0  0  0  0  3  0  0  0  0  0  0
  -21.9740   -7.7150   21.1850 O   0  0  0  0  0  0  0  0  0  0  0  0
  -21.8060   -7.0220   22.3570 C   0  0  0  0  0  0  0  0  0  0  0  0
  -21.4600   -7.6680   23.5630 C   0  0  0  0  0  3  0  0  0  0  0  0
  -21.2300   -6.9100   24.7280 C   0  0  0  0  0  3  0  0  0  0  0  0
  -21.3350   -5.5070   24.6880 C   0  0  0  0  0  0  0  0  0  0  0  0
  -21.6750   -4.8600   23.4860 C   0  0  0  0  0  3  0  0  0  0  0  0
  -21.9070   -5.6150   22.3230 C   0  0  0  0  0  0  0  0  0  0  0  0
  -22.2130   -4.9860   21.1630 F   0  0  0  0  0  0  0  0  0  0  0  0
  -21.1070   -4.7770   25.8040 F   0  0  0  0  0  0  0  0  0  0  0  0
  -24.0960  -14.1130   21.1270 C   0  0  0  0  0  0  0  0  0  0  0  0
  -23.3890  -13.4880   22.0620 N   0  0  0  0  0  0  0  0  0  0  0  0
  -23.7600  -15.2220   20.7110 O   0  0  0  0  0  0  0  0  0  0  0  0
  -23.6760  -12.5880   22.4170 H   0  0  0  0  0  0  0  0  0  0  0  0
  -22.5500  -13.9150   22.4270 H   0  0  0  0  0  0  0  0  0  0  0  0
  -26.8510  -15.4050   20.0690 N   0  0  0  0  0  0  0  0  0  0  0  0
  -26.2290  -16.1630   20.3240 H   0  0  0  0  0  0  0  0  0  0  0  0
  -27.7290  -15.7260   19.6800 H   0  0  0  0  0  0  0  0  0  0  0  0
  1  3  2  0
  2  1  1  0
  2  6  1  0
  4  2  1  0
  6  5  1  0
  6  8  1  0
  8  7  1  0
  9 11  1  0
  9  8  1  0
 10 21  2  0
 11 16  1  0
 12 20  1  0
 12 22  1  0
 13 19  1  0
 13 15  1  0
 14 20  1  0
 15 14  1  0
 16 15  2  0
 17 11  2  0
 18 17  1  0
 18 13  2  0
 19 12  1  0
 20 10  1  0
 22 24  2  0
 23 22  1  0
 25 23  1  0
 26 35  2  0
 26 31  1  0
 27 23  1  0
 27 31  1  0
 28 27  1  0
 29 30  1  0
 29 28  1  0
 30 26  1  0
 31 32  2  0
 32 33  1  0
 34 33  2  0
 35 34  1  0
 36 10  1  0
 36 37  1  0
 36 46  1  0
 37 40  1  0
 38 42  1  0
 38 37  1  0
 39 38  2  0
 42 41  1  0
 44 42  1  0
 44 45  1  0
 44 43  1  0
 46 49  1  1
 46 47  1  0
 48 46  1  0
 50 54  1  0
 50  1  1  0
 51 52  2  0
 51 54  1  0
 52 55  1  0
 53 56  1  0
 54 53  2  0
 55 58  1  0
 55 56  2  0
 56 57  1  0
 59 65  1  0
 59 67  1  0
 60 65  1  0
 61 62  1  0
 61 60  1  0
 63 62  1  0
 63 72  1  0
 63 64  1  0
 65 64  1  0
 66 59  2  0
 67 58  1  0
 67 68  1  0
 69 70  2  0
 70 89  1  0
 71 70  1  0
 71 74  1  0
 72 73  1  0
 72 69  1  0
 73 71  2  0
 74 75  1  0
 75 76  2  0
 77 80  1  0
 77 76  1  0
 78 77  2  0
 79 78  1  0
 79 74  2  0
 80 81  1  0
 81 82  1  0
 82 83  2  0
 84 83  1  0
 84 88  1  0
 85 84  2  0
 86 81  2  0
 86 85  1  0
 87 86  1  0
 89 90  1  0
 90 92  1  0
 90 93  1  0
 91 89  2  0
 94 69  1  0
 94 95  1  0
 96 94  1  0
M  ISO  4   8 101   9 101  59 100  67 100
M  END
>  <TORSDO>  (12) 
F 21

>  <SCORE>  (12) 
-11.912

>  <name>  (12) 
11

>  <ligand_id>  (12) 
11

>  <original_smiles>  (12) 
[H]c1c([H])c([H])c2c(c1[H])C([H])([H])C([H])([H])C([H])([H])C2([H])N([H])C(=O)C1([H])N(C(=O)C([H])(N([H])C(=O)C([H])(N([H])C([H])([H])[H])C([H])([H])[H])C(C([H])([H])[H])(C([H])([H])[H])C([H])([H])[H])C([H])([H])c2c([H])c(OC([H])(C([H])([H])[H])C([H])(N([H])C(=O)C([H])([H])c3c([H])c([H])c(C([H])([H])N([H])C(=O)N4C([H])([H])C([H])([H])C([H])([H])C([H])(n5nc(-c6c([H])c([H])c(Oc7c([H])c([H])c(F)c([H])c7F)c([H])c6[H])c(C(=O)N([H])[H])c5N([H])[H])C4([H])[H])c(C([H])([H])[H])c3[H])C([H])([H])[H])c([H])c([H])c2C1([H])[H]

>  <smiles>  (12) 
[H]c1c([H])c([H])c2c(c1[H])C([H])([H])C([H])([H])C([H])([H])C2([H])N([H])C(=O)C1([H])N(C(=O)C([H])(N([H])C(=O)C([H])(N([H])C([H])([H])[H])C([H])([H])[H])C(C([H])([H])[H])(C([H])([H])[H])C([H])([H])[H])C([H])([H])c2c([H])c(OC([H])(C([H])([H])[H])C([H])(N([H])C(=O)C([H])([H])c3c([H])c([H])c(C([H])([H])N([H])C(=O)N4C([H])([H])C([H])([H])C([H])([H])C([H])(n5nc(-c6c([H])c([H])c(Oc7c([H])c([H])c(F)c([H])c7F)c([H])c6[H])c(C(=O)N([H])[H])c5N([H])[H])C4([H])[H])c(C([H])([H])[H])c3[H])C([H])([H])[H])c([H])c([H])c2C1([H])[H]

$$$$
12:0:0
     RDKit          3D

 96104  0  0  1  0  0  0  0  0999 V2000
  -28.5610  -22.2100   20.1420 C   0  0  0  0  0  0  0  0  0  0  0  0
  -29.4530  -21.1450   20.2440 N   0  0  0  0  0  0  0  0  0  0  0  0
  -27.3720  -21.9650   19.9470 O   0  0  0  0  0  0  0  0  0  0  0  0
  -30.4240  -21.4050   20.3550 H   0  0  0  0  0  0  0  0  0  0  0  0
  -29.2560  -19.6090   20.1230 C   0  0  0  0  0  2  0  0  0  0  0  0
  -31.0420  -18.8300   23.4280 C   0  0  0  0  0  3  0  0  0  0  0  0
  -31.2760  -17.4590   23.4590 C   0  0  0  0  0  3  0  0  0  0  0  0
  -30.3890  -19.3950   22.3250 C   0  0  0  0  0  3  0  0  0  0  0  0
  -30.8360  -16.6600   22.3970 C   0  0  0  0  0  3  0  0  0  0  0  0
  -29.9390  -18.6480   21.2020 C   0  0  0  0  0  0  0  0  0  0  0  0
  -30.1600  -17.1700   21.2490 C   0  0  0  0  0  0  0  0  0  0  0  0
  -30.3970  -14.8910   20.0450 C   0  0  0  0  0  0  0  0  0  0  0  0
  -30.1310  -12.6490   18.9520 C   0  0  0  0  0  2  0  0  0  0  0  0
  -29.1140  -12.6870   17.7930 C   0  0  0  0  0  2  0  0  0  0  0  0
  -27.6860  -12.4650   18.3250 C   0  0  0  0  0  2  0  0  0  0  0  0
  -27.3650  -13.3480   19.5600 C   0  0  0  0  0  3  0  0  0  0  0  0
  -28.4920  -13.3020   20.6110 C   0  0  0  0  0  2  0  0  0  0  0  0
  -29.7310  -13.6910   19.9270 N   0  0  0  0  0  0  0  0  0  0  0  0
  -31.5680  -14.9630   19.6620 O   0  0  0  0  0  0  0  0  0  0  0  0
  -29.7020  -16.0620   20.3700 N   0  0  0  0  0  0  0  0  0  0  0  0
  -28.7010  -16.0040   20.2610 H   0  0  0  0  0  0  0  0  0  0  0  0
  -25.0320  -13.8870   20.4740 C   0  0  0  0  0  0  0  0  0  0  0  0
  -24.0010  -13.0920   20.8870 C   0  0  0  0  0  0  0  0  0  0  0  0
  -24.4710  -11.7460   20.7780 C   0  0  0  0  0  0  0  0  0  0  0  0
  -26.0640  -13.0280   20.1370 N   0  0  0  0  0  0  0  0  0  0  0  0
  -25.7390  -11.7320   20.3830 N   0  0  0  0  0  0  0  0  0  0  0  0
  -23.7680  -10.4710   20.9680 C   0  0  0  0  0  0  0  0  0  0  0  0
  -24.2220   -9.5090   21.8960 C   0  0  0  0  0  3  0  0  0  0  0  0
  -23.5180   -8.2990   22.0740 C   0  0  0  0  0  3  0  0  0  0  0  0
  -22.3460   -8.0420   21.3240 C   0  0  0  0  0  0  0  0  0  0  0  0
  -21.9100   -8.9950   20.3840 C   0  0  0  0  0  3  0  0  0  0  0  0
  -22.6160  -10.1960   20.2050 C   0  0  0  0  0  3  0  0  0  0  0  0
  -21.6090   -6.8860   21.4140 O   0  0  0  0  0  0  0  0  0  0  0  0
  -21.5360   -6.1670   22.5800 C   0  0  0  0  0  0  0  0  0  0  0  0
  -21.0330   -6.7330   23.7720 C   0  0  0  0  0  3  0  0  0  0  0  0
  -20.9090   -5.9390   24.9310 C   0  0  0  0  0  3  0  0  0  0  0  0
  -21.2770   -4.5810   24.8970 C   0  0  0  0  0  0  0  0  0  0  0  0
  -21.7730   -4.0150   23.7090 C   0  0  0  0  0  3  0  0  0  0  0  0
  -21.8980   -4.8060   22.5530 C   0  0  0  0  0  0  0  0  0  0  0  0
  -22.3560   -4.2490   21.4060 F   0  0  0  0  0  0  0  0  0  0  0  0
  -21.1520   -3.8170   26.0070 F   0  0  0  0  0  0  0  0  0  0  0  0
  -22.6200  -13.5440   21.2640 C   0  0  0  0  0  0  0  0  0  0  0  0
  -21.9480  -12.8040   22.1380 N   0  0  0  0  0  0  0  0  0  0  0  0
  -22.1470  -14.5910   20.8200 O   0  0  0  0  0  0  0  0  0  0  0  0
  -22.3460  -11.9560   22.5190 H   0  0  0  0  0  0  0  0  0  0  0  0
  -21.0250  -13.0880   22.4320 H   0  0  0  0  0  0  0  0  0  0  0  0
  -25.1740  -15.2660   20.3340 N   0  0  0  0  0  0  0  0  0  0  0  0
  -24.4100  -15.9090   20.5070 H   0  0  0  0  0  0  0  0  0  0  0  0
  -25.9880  -15.7200   19.9400 H   0  0  0  0  0  0  0  0  0  0  0  0
  -28.9880  -23.7640   20.3120 C   0  0  0  0  0  3  0  0  0  0  0  0
  -29.5770  -23.9560   21.6500 N   0  0  0  0  0  4  0  0  0  0  0  0
  -30.4020  -23.3980   21.7690 H   0  0  0  0  0  0  0  0  0  0  0  0
  -28.9160  -23.7030   22.3640 H   0  0  0  0  0  0  0  0  0  0  0  0
  -29.8290  -24.9220   21.7750 H   0  0  0  0  0  0  0  0  0  0  0  0
  -27.8900  -24.9480   20.0380 C   0  0  0  0  0  2  0  0  0  0  0  0
  -28.1760  -26.4370   20.1710 O   0  0  0  0  0  0  0  0  0  0  0  0
  -24.5530  -31.9650   23.2510 C   0  0  0  0  0  0  0  0  0  0  0  0
  -27.0910  -27.3570   20.1280 C   0  0  0  0  0  0  0  0  0  0  0  0
  -23.3220  -30.5770   21.6270 C   0  0  0  0  0  3  0  0  0  0  0  0
  -24.7440  -29.0300   20.1630 C   0  0  0  0  0  0  0  0  0  0  0  0
  -25.8640  -30.8760   21.4050 C   0  0  0  0  0  2  0  0  0  0  0  0
  -25.9310  -29.4950   20.7450 C   0  0  0  0  0  0  0  0  0  0  0  0
  -27.1060  -28.6720   20.7150 C   0  0  0  0  0  3  0  0  0  0  0  0
  -25.8790  -26.9700   19.5110 C   0  0  0  0  0  3  0  0  0  0  0  0
  -24.7250  -27.7770   19.5340 C   0  0  0  0  0  3  0  0  0  0  0  0
  -23.5130  -29.9120   20.2390 C   0  0  0  0  0  2  0  0  0  0  0  0
  -24.6000  -31.1570   22.1500 N   0  0  0  0  0  0  0  0  0  0  0  0
  -23.4780  -32.2430   23.8030 O   0  0  0  0  0  0  0  0  0  0  0  0
  -22.6700  -29.5580   22.5930 C   0  0  0  0  0  0  0  0  0  0  0  0
  -21.3460  -29.3600   22.4670 N   0  0  0  0  0  0  0  0  0  0  0  0
  -23.3560  -28.9480   23.4170 O   0  0  0  0  0  0  0  0  0  0  0  0
  -20.8510  -29.9030   21.7750 H   0  0  0  0  0  0  0  0  0  0  0  0
  -17.9890  -28.1010   22.9690 C   0  0  0  0  0  0  0  0  0  0  0  0
  -20.5420  -28.4140   23.2430 C   0  0  0  0  0  3  0  0  0  0  0  0
  -20.6740  -26.9800   22.6810 C   0  0  0  0  0  2  0  0  0  0  0  0
  -19.5810  -26.6270   21.6670 C   0  0  0  0  0  2  0  0  0  0  0  0
  -18.1940  -26.7500   22.3050 C   0  0  0  0  0  2  0  0  0  0  0  0
  -19.0920  -28.8890   23.3940 C   0  0  0  0  0  0  0  0  0  0  0  0
  -18.8460  -30.1520   23.9750 C   0  0  0  0  0  3  0  0  0  0  0  0
  -17.5320  -30.6270   24.1350 C   0  0  0  0  0  3  0  0  0  0  0  0
  -16.4430  -29.8380   23.7250 C   0  0  0  0  0  3  0  0  0  0  0  0
  -16.6730  -28.5770   23.1460 C   0  0  0  0  0  3  0  0  0  0  0  0
  -25.8430  -32.5950   23.8550 C   0  0  0  0  0  3  0  0  0  0  0  0
  -25.5400  -33.9950   24.1940 N   0  0  0  0  0  0  0  0  0  0  0  0
  -25.8510  -35.0490   23.4300 C   0  0  0  0  0  0  0  0  0  0  0  0
  -26.4900  -34.9460   22.3800 O   0  0  0  0  0  0  0  0  0  0  0  0
  -24.9660  -34.1470   25.0100 H   0  0  0  0  0  0  0  0  0  0  0  0
  -24.1100  -36.8400   23.1330 C   0  0  0  0  0  1  0  0  0  0  0  0
  -25.3770  -36.4380   23.9030 C   0  0  0  0  0  3  0  0  0  0  0  0
  -27.5350  -37.3270   24.6670 C   0  0  0  0  0  1  0  0  0  0  0  0
  -26.4060  -37.4920   23.7550 N   0  0  0  0  0  0  0  0  0  0  0  0
  -26.0040  -38.4130   23.9090 H   0  0  0  0  0  0  0  0  0  0  0  0
  -26.3750  -31.8220   25.1240 C   0  0  1  0  0  0  0  0  0  0  0  0
  -25.2930  -31.5760   26.2010 C   0  0  0  0  0  1  0  0  0  0  0  0
  -26.9610  -30.4490   24.7220 C   0  0  0  0  0  1  0  0  0  0  0  0
  -27.5310  -32.6180   25.7740 C   0  0  0  0  0  1  0  0  0  0  0  0
  1  2  1  0
  1 50  1  0
  2  4  1  0
  3  1  2  0
  5  2  1  0
  5 10  1  0
  6  7  1  0
  8  6  2  0
  9  7  2  0
 10 11  2  0
 10  8  1  0
 11  9  1  0
 12 20  1  0
 13 18  1  0
 14 15  1  0
 14 13  1  0
 16 15  1  0
 16 25  1  0
 16 17  1  0
 18 12  1  0
 18 17  1  0
 19 12  2  0
 20 11  1  0
 21 20  1  0
 22 23  2  0
 23 42  1  0
 24 23  1  0
 24 27  1  0
 25 26  1  0
 25 22  1  0
 26 24  2  0
 27 28  1  0
 28 29  2  0
 30 33  1  0
 30 29  1  0
 31 30  2  0
 32 31  1  0
 32 27  2  0
 33 34  1  0
 34 35  1  0
 35 36  2  0
 37 36  1  0
 37 41  1  0
 38 37  2  0
 39 34  2  0
 39 38  1  0
 40 39  1  0
 42 43  1  0
 43 46  1  0
 43 45  1  0
 44 42  2  0
 47 22  1  0
 47 48  1  0
 49 47  1  0
 50 55  1  0
 50 51  1  0
 51 52  1  0
 51 54  1  0
 51 53  1  0
 55 56  1  0
 57 68  2  0
 58 56  1  0
 58 63  1  0
 59 67  1  0
 59 69  1  0
 60 66  1  0
 60 62  1  0
 61 67  1  0
 62 61  1  0
 63 62  2  0
 64 65  1  0
 64 58  2  0
 65 60  2  0
 66 59  1  0
 67 57  1  0
 69 71  2  0
 70 69  1  0
 72 70  1  0
 73 82  2  0
 73 78  1  0
 74 70  1  0
 74 78  1  0
 75 74  1  0
 76 77  1  0
 76 75  1  0
 77 73  1  0
 78 79  2  0
 79 80  1  0
 81 80  2  0
 82 81  1  0
 83 57  1  0
 83 84  1  0
 83 93  1  0
 84 87  1  0
 85 89  1  0
 85 84  1  0
 86 85  2  0
 89 88  1  0
 91 89  1  0
 91 92  1  0
 91 90  1  0
 93 96  1  1
 93 94  1  0
 95 93  1  0
M  ISO  4  12 100  20 100  55 101  56 101
M  END
>  <TORSDO>  (13) 
F 21

>  <SCORE>  (13) 
-12.109

>  <name>  (13) 
12

>  <ligand_id>  (13) 
12

>  <original_smiles>  (13) 
[H]c1c([H])c([H])c(C([H])([H])N([H])C(=O)C([H])(C([H])([H])Oc2c([H])c([H])c3c(c2[H])C([H])([H])N(C(=O)C([H])(N([H])C(=O)C([H])(N([H])C([H])([H])[H])C([H])([H])[H])C(C([H])([H])[H])(C([H])([H])[H])C([H])([H])[H])C([H])(C(=O)N([H])C2([H])c4c([H])c([H])c([H])c([H])c4C([H])([H])C([H])([H])C2([H])[H])C3([H])[H])[N+]([H])([H])[H])c(N([H])C(=O)N2C([H])([H])C([H])([H])C([H])([H])C([H])(n3nc(-c4c([H])c([H])c(Oc5c([H])c([H])c(F)c([H])c5F)c([H])c4[H])c(C(=O)N([H])[H])c3N([H])[H])C2([H])[H])c1[H]

>  <smiles>  (13) 
[H]c1c([H])c([H])c(C([H])([H])N([H])C(=O)C([H])(C([H])([H])Oc2c([H])c([H])c3c(c2[H])C([H])([H])N(C(=O)C([H])(N([H])C(=O)C([H])(N([H])C([H])([H])[H])C([H])([H])[H])C(C([H])([H])[H])(C([H])([H])[H])C([H])([H])[H])C([H])(C(=O)N([H])C2([H])c4c([H])c([H])c([H])c([H])c4C([H])([H])C([H])([H])C2([H])[H])C3([H])[H])[N+]([H])([H])[H])c(N([H])C(=O)N2C([H])([H])C([H])([H])C([H])([H])C([H])(n3nc(-c4c([H])c([H])c(Oc5c([H])c([H])c(F)c([H])c5F)c([H])c4[H])c(C(=O)N([H])[H])c3N([H])[H])C2([H])[H])c1[H]

$$$$
13:0:0
     RDKit          3D

 97106  0  0  1  0  0  0  0  0999 V2000
  -28.4130  -24.1570   20.0480 C   0  0  0  0  0  0  0  0  0  0  0  0
  -29.5520  -21.9510   22.8040 C   0  0  0  0  0  2  0  0  0  0  0  0
  -28.6130  -21.0600   22.0180 C   0  0  0  0  0  2  0  0  0  0  0  0
  -29.2380  -23.3160   22.2160 C   0  0  0  0  0  2  0  0  0  0  0  0
  -28.7160  -21.5920   20.5650 C   0  0  0  0  0  3  0  0  0  0  0  0
  -28.7730  -23.0850   20.8330 N   0  0  0  0  0  0  0  0  0  0  0  0
  -27.9950  -24.0220   18.8900 O   0  0  0  0  0  0  0  0  0  0  0  0
  -29.9550  -21.0760   19.7220 C   0  0  0  0  0  0  0  0  0  0  0  0
  -32.8140  -18.8690   21.4170 C   0  0  0  0  0  2  0  0  0  0  0  0
  -33.0090  -19.9590   20.3390 C   0  0  0  0  0  2  0  0  0  0  0  0
  -31.3220  -18.6360   21.7990 C   0  0  0  0  0  2  0  0  0  0  0  0
  -31.9860  -19.8000   19.2040 C   0  0  0  0  0  2  0  0  0  0  0  0
  -30.3510  -18.5730   20.5740 C   0  0  0  0  0  3  0  0  0  0  0  0
  -30.6130  -19.8470   19.7890 N   0  0  0  0  0  0  0  0  0  0  0  0
  -30.3590  -21.9110   18.9050 O   0  0  0  0  0  0  0  0  0  0  0  0
  -31.0600  -14.8450   19.9370 C   0  0  0  0  0  0  0  0  0  0  0  0
  -30.7100  -12.6000   18.9650 C   0  0  0  0  0  2  0  0  0  0  0  0
  -29.7290  -12.7250   17.7800 C   0  0  0  0  0  2  0  0  0  0  0  0
  -28.2780  -12.5980   18.2790 C   0  0  0  0  0  2  0  0  0  0  0  0
  -27.9810  -13.5160   19.4920 C   0  0  0  0  0  3  0  0  0  0  0  0
  -29.0740  -13.3960   20.5780 C   0  0  0  0  0  2  0  0  0  0  0  0
  -30.3790  -13.6540   19.9500 N   0  0  0  0  0  0  0  0  0  0  0  0
  -32.1860  -14.9130   19.4430 O   0  0  0  0  0  0  0  0  0  0  0  0
  -30.4850  -17.2070   19.7670 C   0  0  0  0  0  0  0  0  0  0  0  0
  -30.3990  -15.9710   20.3610 N   0  0  0  0  0  0  0  0  0  0  0  0
  -30.6070  -17.2770   18.5380 O   0  0  0  0  0  0  0  0  0  0  0  0
  -29.7770  -15.8860   21.1490 H   0  0  0  0  0  0  0  0  0  0  0  0
  -25.6660  -14.1840   20.3820 C   0  0  0  0  0  0  0  0  0  0  0  0
  -24.5900  -13.4380   20.7850 C   0  0  0  0  0  0  0  0  0  0  0  0
  -24.9950  -12.0720   20.6750 C   0  0  0  0  0  0  0  0  0  0  0  0
  -26.6510  -13.2730   20.0430 N   0  0  0  0  0  0  0  0  0  0  0  0
  -26.2580  -11.9960   20.2860 N   0  0  0  0  0  0  0  0  0  0  0  0
  -24.2290  -10.8360   20.8630 C   0  0  0  0  0  0  0  0  0  0  0  0
  -24.6450   -9.8340   21.7700 C   0  0  0  0  0  3  0  0  0  0  0  0
  -23.8770   -8.6610   21.9400 C   0  0  0  0  0  3  0  0  0  0  0  0
  -22.6790   -8.4860   21.2060 C   0  0  0  0  0  0  0  0  0  0  0  0
  -22.2870   -9.4720   20.2840 C   0  0  0  0  0  3  0  0  0  0  0  0
  -23.0540  -10.6340   20.1090 C   0  0  0  0  0  3  0  0  0  0  0  0
  -21.8840   -7.3670   21.2930 O   0  0  0  0  0  0  0  0  0  0  0  0
  -21.7840   -6.6430   22.4510 C   0  0  0  0  0  0  0  0  0  0  0  0
  -21.3470   -7.2260   23.6620 C   0  0  0  0  0  3  0  0  0  0  0  0
  -21.1870   -6.4270   24.8110 C   0  0  0  0  0  3  0  0  0  0  0  0
  -21.4600   -5.0470   24.7530 C   0  0  0  0  0  0  0  0  0  0  0  0
  -21.8970   -4.4630   23.5500 C   0  0  0  0  0  3  0  0  0  0  0  0
  -22.0520   -5.2580   22.4020 C   0  0  0  0  0  0  0  0  0  0  0  0
  -22.4520   -4.6870   21.2400 F   0  0  0  0  0  0  0  0  0  0  0  0
  -21.2990   -4.2780   25.8550 F   0  0  0  0  0  0  0  0  0  0  0  0
  -23.2360  -13.9640   21.1580 C   0  0  0  0  0  0  0  0  0  0  0  0
  -22.5350  -13.2720   22.0480 N   0  0  0  0  0  0  0  0  0  0  0  0
  -22.8180  -15.0290   20.7010 O   0  0  0  0  0  0  0  0  0  0  0  0
  -22.8870  -12.4130   22.4460 H   0  0  0  0  0  0  0  0  0  0  0  0
  -21.6290  -13.6110   22.3400 H   0  0  0  0  0  0  0  0  0  0  0  0
  -25.8880  -15.5520   20.2630 N   0  0  0  0  0  0  0  0  0  0  0  0
  -25.1800  -16.2420   20.4870 H   0  0  0  0  0  0  0  0  0  0  0  0
  -26.7560  -15.9580   19.9340 H   0  0  0  0  0  0  0  0  0  0  0  0
  -28.5280  -25.5900   20.6870 C   0  0  0  0  0  2  0  0  0  0  0  0
  -28.4580  -26.7350   19.7980 O   0  0  0  0  0  0  0  0  0  0  0  0
  -24.5570  -31.8010   23.1360 C   0  0  0  0  0  0  0  0  0  0  0  0
  -27.3020  -27.4890   19.8980 C   0  0  0  0  0  0  0  0  0  0  0  0
  -23.3880  -30.4050   21.4670 C   0  0  0  0  0  3  0  0  0  0  0  0
  -24.8740  -28.9470   19.9950 C   0  0  0  0  0  0  0  0  0  0  0  0
  -25.9060  -30.8310   21.2730 C   0  0  0  0  0  2  0  0  0  0  0  0
  -26.0300  -29.4820   20.5840 C   0  0  0  0  0  0  0  0  0  0  0  0
  -27.2530  -28.7630   20.5240 C   0  0  0  0  0  3  0  0  0  0  0  0
  -26.1300  -26.9750   19.3130 C   0  0  0  0  0  3  0  0  0  0  0  0
  -24.9210  -27.6940   19.3580 C   0  0  0  0  0  3  0  0  0  0  0  0
  -23.6090  -29.7750   20.0680 C   0  0  0  0  0  2  0  0  0  0  0  0
  -24.6340  -31.0240   22.0170 N   0  0  0  0  0  0  0  0  0  0  0  0
  -23.4690  -32.0300   23.6840 O   0  0  0  0  0  0  0  0  0  0  0  0
  -22.7670  -29.3400   22.4010 C   0  0  0  0  0  0  0  0  0  0  0  0
  -21.4490  -29.1190   22.2660 N   0  0  0  0  0  0  0  0  0  0  0  0
  -23.4690  -28.7200   23.2030 O   0  0  0  0  0  0  0  0  0  0  0  0
  -20.9400  -29.6760   21.5940 H   0  0  0  0  0  0  0  0  0  0  0  0
  -18.1180  -27.7880   22.7160 C   0  0  0  0  0  0  0  0  0  0  0  0
  -20.6630  -28.1370   23.0150 C   0  0  0  0  0  3  0  0  0  0  0  0
  -20.8260  -26.7210   22.4150 C   0  0  0  0  0  2  0  0  0  0  0  0
  -19.7470  -26.3740   21.3870 C   0  0  0  0  0  2  0  0  0  0  0  0
  -18.3540  -26.4580   22.0180 C   0  0  0  0  0  2  0  0  0  0  0  0
  -19.2050  -28.5840   23.1690 C   0  0  0  0  0  0  0  0  0  0  0  0
  -18.9340  -29.8280   23.7760 C   0  0  0  0  0  3  0  0  0  0  0  0
  -17.6100  -30.2790   23.9360 C   0  0  0  0  0  3  0  0  0  0  0  0
  -16.5380  -29.4790   23.5020 C   0  0  0  0  0  3  0  0  0  0  0  0
  -16.7940  -28.2360   22.8960 C   0  0  0  0  0  3  0  0  0  0  0  0
  -25.8280  -32.4530   23.7650 C   0  0  0  0  0  3  0  0  0  0  0  0
  -25.4870  -33.8360   24.1230 N   0  0  0  0  0  0  0  0  0  0  0  0
  -25.7920  -34.9100   23.3830 C   0  0  0  0  0  0  0  0  0  0  0  0
  -26.4630  -34.8440   22.3500 O   0  0  0  0  0  0  0  0  0  0  0  0
  -24.8930  -33.9630   24.9290 H   0  0  0  0  0  0  0  0  0  0  0  0
  -24.0190  -36.6620   23.0570 C   0  0  0  0  0  1  0  0  0  0  0  0
  -25.2680  -36.2770   23.8660 C   0  0  0  0  0  3  0  0  0  0  0  0
  -27.3770  -37.1930   24.7240 C   0  0  0  0  0  1  0  0  0  0  0  0
  -26.2720  -37.3580   23.7820 N   0  0  0  0  0  0  0  0  0  0  0  0
  -25.8420  -38.2630   23.9540 H   0  0  0  0  0  0  0  0  0  0  0  0
  -26.3710  -31.6710   25.0220 C   0  0  1  0  0  0  0  0  0  0  0  0
  -25.2910  -31.3910   26.0910 C   0  0  0  0  0  1  0  0  0  0  0  0
  -26.9820  -30.3150   24.5990 C   0  0  0  0  0  1  0  0  0  0  0  0
  -27.5090  -32.4790   25.6880 C   0  0  0  0  0  1  0  0  0  0  0  0
  1 56  1  0
  1  6  1  0
  3  2  1  0
  4  2  1  0
  5  8  1  0
  5  6  1  0
  5  3  1  0
  6  4  1  0
  7  1  2  0
  8 14  1  0
  9 11  1  0
 10  9  1  0
 12 14  1  0
 12 10  1  0
 13 24  1  0
 13 11  1  0
 14 13  1  0
 15  8  2  0
 16 22  1  0
 16 25  1  0
 17 22  1  0
 18 19  1  0
 18 17  1  0
 20 19  1  0
 20 31  1  0
 20 21  1  0
 22 21  1  0
 23 16  2  0
 24 25  1  0
 25 27  1  0
 26 24  2  0
 28 29  2  0
 29 48  1  0
 30 29  1  0
 30 33  1  0
 31 32  1  0
 31 28  1  0
 32 30  2  0
 33 34  1  0
 34 35  2  0
 36 39  1  0
 36 35  1  0
 37 36  2  0
 38 37  1  0
 38 33  2  0
 39 40  1  0
 40 41  1  0
 41 42  2  0
 43 42  1  0
 43 47  1  0
 44 43  2  0
 45 40  2  0
 45 44  1  0
 46 45  1  0
 48 49  1  0
 49 52  1  0
 49 51  1  0
 50 48  2  0
 53 28  1  0
 53 54  1  0
 55 53  1  0
 57 59  1  0
 57 56  1  0
 58 69  2  0
 59 64  1  0
 60 68  1  0
 60 70  1  0
 61 67  1  0
 61 63  1  0
 62 68  1  0
 63 62  1  0
 64 63  2  0
 65 66  1  0
 65 59  2  0
 66 61  2  0
 67 60  1  0
 68 58  1  0
 70 72  2  0
 71 70  1  0
 73 71  1  0
 74 83  2  0
 74 79  1  0
 75 71  1  0
 75 79  1  0
 76 75  1  0
 77 78  1  0
 77 76  1  0
 78 74  1  0
 79 80  2  0
 80 81  1  0
 82 81  2  0
 83 82  1  0
 84 58  1  0
 84 85  1  0
 84 94  1  0
 85 88  1  0
 86 90  1  0
 86 85  1  0
 87 86  2  0
 90 89  1  0
 92 90  1  0
 92 93  1  0
 92 91  1  0
 94 97  1  1
 94 95  1  0
 96 94  1  0
M  ISO  4  16 100  25 100  56 101  57 101
M  END
>  <TORSDO>  (14) 
F 18

>  <SCORE>  (14) 
-14.081

>  <name>  (14) 
13

>  <ligand_id>  (14) 
13

>  <original_smiles>  (14) 
[H]c1c([H])c([H])c2c(c1[H])C([H])([H])C([H])([H])C([H])([H])C2([H])N([H])C(=O)C1([H])N(C(=O)C([H])(N([H])C(=O)C([H])(N([H])C([H])([H])[H])C([H])([H])[H])C(C([H])([H])[H])(C([H])([H])[H])C([H])([H])[H])C([H])([H])c2c([H])c(OC([H])([H])C(=O)N3C([H])([H])C([H])([H])C([H])([H])C3([H])C(=O)N3C([H])([H])C([H])([H])C([H])([H])C([H])([H])C3([H])C(=O)N([H])C(=O)N3C([H])([H])C([H])([H])C([H])([H])C([H])(n4nc(-c5c([H])c([H])c(Oc6c([H])c([H])c(F)c([H])c6F)c([H])c5[H])c(C(=O)N([H])[H])c4N([H])[H])C3([H])[H])c([H])c([H])c2C1([H])[H]

>  <smiles>  (14) 
[H]c1c([H])c([H])c2c(c1[H])C([H])([H])C([H])([H])C([H])([H])C2([H])N([H])C(=O)C1([H])N(C(=O)C([H])(N([H])C(=O)C([H])(N([H])C([H])([H])[H])C([H])([H])[H])C(C([H])([H])[H])(C([H])([H])[H])C([H])([H])[H])C([H])([H])c2c([H])c(OC([H])([H])C(=O)N3C([H])([H])C([H])([H])C([H])([H])C3([H])C(=O)N3C([H])([H])C([H])([H])C([H])([H])C([H])([H])C3([H])C(=O)N([H])C(=O)N3C([H])([H])C([H])([H])C([H])([H])C([H])(n4nc(-c5c([H])c([H])c(Oc6c([H])c([H])c(F)c([H])c6F)c([H])c5[H])c(C(=O)N([H])[H])c4N([H])[H])C3([H])[H])c([H])c([H])c2C1([H])[H]

$$$$
14:0:0
     RDKit          3D

 92100  0  0  1  0  0  0  0  0999 V2000
  -28.5070  -22.5980   19.8190 C   0  0  0  0  0  3  0  0  0  0  0  0
  -31.2980  -20.0340   21.2170 C   0  0  0  0  0  3  0  0  0  0  0  0
  -30.4530  -21.1400   20.9320 C   0  0  0  0  0  3  0  0  0  0  0  0
  -30.9870  -18.6740   20.9510 C   0  0  0  0  0  3  0  0  0  0  0  0
  -29.1850  -21.0270   20.3250 C   0  0  0  0  0  0  0  0  0  0  0  0
  -28.8720  -19.5080   20.1010 C   0  0  0  0  0  0  0  0  0  0  0  0
  -29.7600  -18.2550   20.3970 C   0  0  0  0  0  0  0  0  0  0  0  0
  -27.5130  -19.1770   19.5140 C   0  0  0  0  0  1  0  0  0  0  0  0
  -30.3620  -15.3650   20.2440 C   0  0  0  0  0  0  0  0  0  0  0  0
  -30.3870  -12.9080   19.3550 C   0  0  0  0  0  2  0  0  0  0  0  0
  -29.4570  -12.6380   18.1430 C   0  0  0  0  0  2  0  0  0  0  0  0
  -28.0200  -12.3440   18.6090 C   0  0  0  0  0  2  0  0  0  0  0  0
  -27.5610  -13.3190   19.7200 C   0  0  0  0  0  3  0  0  0  0  0  0
  -28.6150  -13.5040   20.8300 C   0  0  0  0  0  2  0  0  0  0  0  0
  -29.8160  -14.0460   20.1710 N   0  0  0  0  0  0  0  0  0  0  0  0
  -31.5920  -15.3620   20.0720 O   0  0  0  0  0  0  0  0  0  0  0  0
  -29.5620  -16.6360   20.2590 N   0  0  0  0  0  0  0  0  0  0  0  0
  -28.5850  -16.3950   20.1860 H   0  0  0  0  0  0  0  0  0  0  0  0
  -25.1960  -13.8610   20.5000 C   0  0  0  0  0  0  0  0  0  0  0  0
  -24.1440  -13.0770   20.8770 C   0  0  0  0  0  0  0  0  0  0  0  0
  -24.6200  -11.7310   20.8410 C   0  0  0  0  0  0  0  0  0  0  0  0
  -26.2430  -12.9930   20.2450 N   0  0  0  0  0  0  0  0  0  0  0  0
  -25.9090  -11.7050   20.5200 N   0  0  0  0  0  0  0  0  0  0  0  0
  -23.9020  -10.4640   21.0330 C   0  0  0  0  0  0  0  0  0  0  0  0
  -24.3460   -9.4970   21.9630 C   0  0  0  0  0  3  0  0  0  0  0  0
  -23.6260   -8.2950   22.1440 C   0  0  0  0  0  3  0  0  0  0  0  0
  -22.4500   -8.0530   21.3970 C   0  0  0  0  0  0  0  0  0  0  0  0
  -22.0260   -9.0090   20.4560 C   0  0  0  0  0  3  0  0  0  0  0  0
  -22.7450  -10.2000   20.2730 C   0  0  0  0  0  3  0  0  0  0  0  0
  -21.7000   -6.9050   21.4900 O   0  0  0  0  0  0  0  0  0  0  0  0
  -21.6600   -6.1610   22.6420 C   0  0  0  0  0  0  0  0  0  0  0  0
  -21.2340   -6.7120   23.8710 C   0  0  0  0  0  3  0  0  0  0  0  0
  -21.1440   -5.8930   25.0140 C   0  0  0  0  0  3  0  0  0  0  0  0
  -21.4680   -4.5260   24.9320 C   0  0  0  0  0  0  0  0  0  0  0  0
  -21.8880   -3.9760   23.7090 C   0  0  0  0  0  3  0  0  0  0  0  0
  -21.9820   -4.7910   22.5660 C   0  0  0  0  0  0  0  0  0  0  0  0
  -22.3660   -4.2500   21.3840 F   0  0  0  0  0  0  0  0  0  0  0  0
  -21.3740   -3.7400   26.0290 F   0  0  0  0  0  0  0  0  0  0  0  0
  -22.7440  -13.5450   21.1500 C   0  0  0  0  0  0  0  0  0  0  0  0
  -22.0230  -12.8450   22.0160 N   0  0  0  0  0  0  0  0  0  0  0  0
  -22.3000  -14.5680   20.6300 O   0  0  0  0  0  0  0  0  0  0  0  0
  -22.3970  -12.0190   22.4610 H   0  0  0  0  0  0  0  0  0  0  0  0
  -21.0830  -13.1380   22.2400 H   0  0  0  0  0  0  0  0  0  0  0  0
  -25.3410  -15.2340   20.3190 N   0  0  0  0  0  0  0  0  0  0  0  0
  -24.5560  -15.8670   20.4300 H   0  0  0  0  0  0  0  0  0  0  0  0
  -26.1500  -15.6760   19.9070 H   0  0  0  0  0  0  0  0  0  0  0  0
  -27.3830  -22.3410   18.9030 N   0  0  0  0  0  4  0  0  0  0  0  0
  -26.5590  -22.0660   19.4070 H   0  0  0  0  0  0  0  0  0  0  0  0
  -27.6230  -21.6310   18.2350 H   0  0  0  0  0  0  0  0  0  0  0  0
  -27.1690  -23.1790   18.3930 H   0  0  0  0  0  0  0  0  0  0  0  0
  -28.1690  -24.2180   20.5960 C   0  0  0  0  0  2  0  0  0  0  0  0
  -28.2350  -25.8430   20.2030 O   0  0  0  0  0  0  0  0  0  0  0  0
  -24.6310  -31.8520   23.1800 C   0  0  0  0  0  0  0  0  0  0  0  0
  -27.1970  -26.9240   20.2230 C   0  0  0  0  0  0  0  0  0  0  0  0
  -23.4470  -30.4380   21.5530 C   0  0  0  0  0  3  0  0  0  0  0  0
  -24.9000  -28.8160   20.1540 C   0  0  0  0  0  0  0  0  0  0  0  0
  -26.0130  -30.6480   21.4090 C   0  0  0  0  0  2  0  0  0  0  0  0
  -26.0890  -29.2260   20.7710 C   0  0  0  0  0  0  0  0  0  0  0  0
  -27.2340  -28.3050   20.7710 C   0  0  0  0  0  3  0  0  0  0  0  0
  -25.9740  -26.6690   19.5640 C   0  0  0  0  0  3  0  0  0  0  0  0
  -24.8670  -27.5590   19.5290 C   0  0  0  0  0  3  0  0  0  0  0  0
  -23.6860  -29.7440   20.1830 C   0  0  0  0  0  2  0  0  0  0  0  0
  -24.7190  -31.0070   22.1010 N   0  0  0  0  0  0  0  0  0  0  0  0
  -23.5390  -32.1440   23.6930 O   0  0  0  0  0  0  0  0  0  0  0  0
  -22.7500  -29.4500   22.5250 C   0  0  0  0  0  0  0  0  0  0  0  0
  -21.4180  -29.2930   22.4050 N   0  0  0  0  0  0  0  0  0  0  0  0
  -23.4150  -28.8250   23.3530 O   0  0  0  0  0  0  0  0  0  0  0  0
  -20.9350  -29.8550   21.7190 H   0  0  0  0  0  0  0  0  0  0  0  0
  -18.0310  -28.0980   22.9360 C   0  0  0  0  0  0  0  0  0  0  0  0
  -20.5940  -28.3580   23.1810 C   0  0  0  0  0  3  0  0  0  0  0  0
  -20.6870  -26.9240   22.6080 C   0  0  0  0  0  2  0  0  0  0  0  0
  -19.5770  -26.6030   21.6020 C   0  0  0  0  0  2  0  0  0  0  0  0
  -18.1990  -26.7500   22.2560 C   0  0  0  0  0  2  0  0  0  0  0  0
  -19.1560  -28.8590   23.3560 C   0  0  0  0  0  0  0  0  0  0  0  0
  -18.9430  -30.1180   23.9560 C   0  0  0  0  0  3  0  0  0  0  0  0
  -17.6390  -30.6200   24.1370 C   0  0  0  0  0  3  0  0  0  0  0  0
  -16.5300  -29.8570   23.7300 C   0  0  0  0  0  3  0  0  0  0  0  0
  -16.7270  -28.5980   23.1360 C   0  0  0  0  0  3  0  0  0  0  0  0
  -25.8960  -32.5060   23.8120 C   0  0  0  0  0  3  0  0  0  0  0  0
  -26.4010  -31.7500   25.1050 C   0  0  1  0  0  0  0  0  0  0  0  0
  -25.2990  -31.5220   26.1670 C   0  0  0  0  0  1  0  0  0  0  0  0
  -26.9930  -30.3690   24.7420 C   0  0  0  0  0  1  0  0  0  0  0  0
  -27.5450  -32.5540   25.7680 C   0  0  0  0  0  1  0  0  0  0  0  0
  -25.5700  -33.9050   24.1420 N   0  0  0  0  0  0  0  0  0  0  0  0
  -25.8980  -34.9660   23.3920 C   0  0  0  0  0  0  0  0  0  0  0  0
  -26.5690  -34.8710   22.3610 O   0  0  0  0  0  0  0  0  0  0  0  0
  -24.9770  -34.0510   24.9460 H   0  0  0  0  0  0  0  0  0  0  0  0
  -24.1630  -36.7610   23.0520 C   0  0  0  0  0  1  0  0  0  0  0  0
  -25.4060  -36.3530   23.8580 C   0  0  0  0  0  3  0  0  0  0  0  0
  -27.5390  -37.2460   24.6890 C   0  0  0  0  0  1  0  0  0  0  0  0
  -26.4360  -37.4110   23.7480 N   0  0  0  0  0  0  0  0  0  0  0  0
  -26.0260  -38.3290   23.9010 H   0  0  0  0  0  0  0  0  0  0  0  0
  1  5  1  0
  1 51  1  0
  3  2  2  0
  4  2  1  0
  5  3  1  0
  6  5  2  0
  6  7  1  0
  7  4  2  0
  8  6  1  0
  9 17  1  0
 10 15  1  0
 11 12  1  0
 11 10  1  0
 13 12  1  0
 13 22  1  0
 13 14  1  0
 15  9  1  0
 15 14  1  0
 16  9  2  0
 17  7  1  0
 18 17  1  0
 19 20  2  0
 20 39  1  0
 21 20  1  0
 21 24  1  0
 22 19  1  0
 22 23  1  0
 23 21  2  0
 24 25  1  0
 25 26  2  0
 27 30  1  0
 27 26  1  0
 28 27  2  0
 29 28  1  0
 29 24  2  0
 30 31  1  0
 31 32  1  0
 32 33  2  0
 34 33  1  0
 34 38  1  0
 35 34  2  0
 36 31  2  0
 36 35  1  0
 37 36  1  0
 39 40  1  0
 40 43  1  0
 40 42  1  0
 41 39  2  0
 44 45  1  0
 44 19  1  0
 46 44  1  0
 47 48  1  0
 47  1  1  0
 49 47  1  0
 50 47  1  0
 52 54  1  0
 52 51  1  0
 53 64  2  0
 54 59  1  0
 55 63  1  0
 55 65  1  0
 56 62  1  0
 56 58  1  0
 57 63  1  0
 58 57  1  0
 59 58  2  0
 60 54  2  0
 61 60  1  0
 61 56  2  0
 62 55  1  0
 63 53  1  0
 65 67  2  0
 66 65  1  0
 68 66  1  0
 69 78  2  0
 69 74  1  0
 70 66  1  0
 70 74  1  0
 71 70  1  0
 72 73  1  0
 72 71  1  0
 73 69  1  0
 74 75  2  0
 75 76  1  0
 77 76  2  0
 78 77  1  0
 79 53  1  0
 79 84  1  0
 79 80  1  0
 80 83  1  1
 80 81  1  0
 82 80  1  0
 84 87  1  0
 85 89  1  0
 85 84  1  0
 86 85  2  0
 89 88  1  0
 91 89  1  0
 91 92  1  0
 91 90  1  0
M  ISO  4   9 100  17 100  51 101  52 101
M  END
>  <TORSDO>  (15) 
F 19

>  <SCORE>  (15) 
-16.380

>  <name>  (15) 
14

>  <ligand_id>  (15) 
14

>  <original_smiles>  (15) 
[H]c1c([H])c([H])c2c(c1[H])C([H])([H])C([H])([H])C([H])([H])C2([H])N([H])C(=O)C1([H])N(C(=O)C([H])(N([H])C(=O)C([H])(N([H])C([H])([H])[H])C([H])([H])[H])C(C([H])([H])[H])(C([H])([H])[H])C([H])([H])[H])C([H])([H])c2c([H])c(OC([H])([H])C([H])(c3c([H])c([H])c([H])c(N([H])C(=O)N4C([H])([H])C([H])([H])C([H])([H])C([H])(n5nc(-c6c([H])c([H])c(Oc7c([H])c([H])c(F)c([H])c7F)c([H])c6[H])c(C(=O)N([H])[H])c5N([H])[H])C4([H])[H])c3C([H])([H])[H])[N+]([H])([H])[H])c([H])c([H])c2C1([H])[H]

>  <smiles>  (15) 
[H]c1c([H])c([H])c2c(c1[H])C([H])([H])C([H])([H])C([H])([H])C2([H])N([H])C(=O)C1([H])N(C(=O)C([H])(N([H])C(=O)C([H])(N([H])C([H])([H])[H])C([H])([H])[H])C(C([H])([H])[H])(C([H])([H])[H])C([H])([H])[H])C([H])([H])c2c([H])c(OC([H])([H])C([H])(c3c([H])c([H])c([H])c(N([H])C(=O)N4C([H])([H])C([H])([H])C([H])([H])C([H])(n5nc(-c6c([H])c([H])c(Oc7c([H])c([H])c(F)c([H])c7F)c([H])c6[H])c(C(=O)N([H])[H])c5N([H])[H])C4([H])[H])c3C([H])([H])[H])[N+]([H])([H])[H])c([H])c([H])c2C1([H])[H]

$$$$
15:0:0
     RDKit          3D

 96104  0  0  1  0  0  0  0  0999 V2000
  -30.3020  -20.1030   19.0530 C   0  0  0  0  0  3  0  0  0  0  0  0
  -30.7960  -18.9450   18.4340 C   0  0  0  0  0  3  0  0  0  0  0  0
  -29.5330  -18.7060   20.8880 C   0  0  0  0  0  3  0  0  0  0  0  0
  -29.6100  -20.0300   20.2730 C   0  0  0  0  0  0  0  0  0  0  0  0
  -30.6490  -17.6540   18.9950 C   0  0  0  0  0  0  0  0  0  0  0  0
  -30.0700  -17.4780   20.2980 C   0  0  0  0  0  0  0  0  0  0  0  0
  -30.7650  -15.0130   20.9640 C   0  0  0  0  0  0  0  0  0  0  0  0
  -30.7840  -12.6330   20.2080 C   0  0  0  0  0  2  0  0  0  0  0  0
  -29.9980  -12.5080   18.8840 C   0  0  0  0  0  2  0  0  0  0  0  0
  -28.4860  -12.3570   19.1380 C   0  0  0  0  0  2  0  0  0  0  0  0
  -27.9420  -13.3250   20.2230 C   0  0  0  0  0  3  0  0  0  0  0  0
  -28.8650  -13.3910   21.4590 C   0  0  0  0  0  2  0  0  0  0  0  0
  -30.2040  -13.7540   20.9840 N   0  0  0  0  0  0  0  0  0  0  0  0
  -31.9820  -15.1310   20.7990 O   0  0  0  0  0  0  0  0  0  0  0  0
  -29.9250  -16.1280   20.9430 N   0  0  0  0  0  0  0  0  0  0  0  0
  -29.0040  -15.9380   21.3080 H   0  0  0  0  0  0  0  0  0  0  0  0
  -25.4770  -13.8600   20.6930 C   0  0  0  0  0  0  0  0  0  0  0  0
  -24.4020  -13.0620   20.9720 C   0  0  0  0  0  0  0  0  0  0  0  0
  -24.9020  -11.7250   21.0210 C   0  0  0  0  0  0  0  0  0  0  0  0
  -26.5640  -13.0070   20.5860 N   0  0  0  0  0  0  0  0  0  0  0  0
  -26.2180  -11.7200   20.8500 N   0  0  0  0  0  0  0  0  0  0  0  0
  -24.1940  -10.4450   21.1650 C   0  0  0  0  0  0  0  0  0  0  0  0
  -24.5440   -9.5170   22.1690 C   0  0  0  0  0  3  0  0  0  0  0  0
  -23.8360   -8.3020   22.3000 C   0  0  0  0  0  3  0  0  0  0  0  0
  -22.7620   -8.0090   21.4240 C   0  0  0  0  0  0  0  0  0  0  0  0
  -22.4340   -8.9270   20.4100 C   0  0  0  0  0  3  0  0  0  0  0  0
  -23.1440  -10.1310   20.2790 C   0  0  0  0  0  3  0  0  0  0  0  0
  -22.0350   -6.8440   21.4580 O   0  0  0  0  0  0  0  0  0  0  0  0
  -21.8520   -6.1440   22.6240 C   0  0  0  0  0  0  0  0  0  0  0  0
  -21.2340   -6.7240   23.7530 C   0  0  0  0  0  3  0  0  0  0  0  0
  -21.0030   -5.9490   24.9070 C   0  0  0  0  0  3  0  0  0  0  0  0
  -21.3790   -4.5930   24.9310 C   0  0  0  0  0  0  0  0  0  0  0  0
  -21.9900   -4.0110   23.8070 C   0  0  0  0  0  3  0  0  0  0  0  0
  -22.2230   -4.7840   22.6550 C   0  0  0  0  0  0  0  0  0  0  0  0
  -22.7920   -4.2130   21.5670 F   0  0  0  0  0  0  0  0  0  0  0  0
  -21.1520   -3.8450   26.0370 F   0  0  0  0  0  0  0  0  0  0  0  0
  -22.9710  -13.5020   21.0870 C   0  0  0  0  0  0  0  0  0  0  0  0
  -22.1780  -12.8090   21.8960 N   0  0  0  0  0  0  0  0  0  0  0  0
  -22.5610  -14.4980   20.4930 O   0  0  0  0  0  0  0  0  0  0  0  0
  -22.5200  -12.0050   22.4000 H   0  0  0  0  0  0  0  0  0  0  0  0
  -21.2140  -13.0890   22.0130 H   0  0  0  0  0  0  0  0  0  0  0  0
  -25.6210  -15.2310   20.4980 N   0  0  0  0  0  0  0  0  0  0  0  0
  -24.8250  -15.8590   20.4960 H   0  0  0  0  0  0  0  0  0  0  0  0
  -26.4820  -15.6820   20.2130 H   0  0  0  0  0  0  0  0  0  0  0  0
  -30.9880  -16.5210   18.0680 C   0  0  0  0  0  0  0  0  0  0  0  0
  -32.1960  -16.5480   17.5190 N   0  0  0  0  0  0  0  0  0  0  0  0
  -30.1610  -15.6620   17.7860 O   0  0  0  0  0  0  0  0  0  0  0  0
  -32.8460  -17.2790   17.7660 H   0  0  0  0  0  0  0  0  0  0  0  0
  -32.4720  -15.8330   16.8620 H   0  0  0  0  0  0  0  0  0  0  0  0
  -29.0470  -21.3520   20.8830 C   0  0  0  0  0  0  0  0  0  0  0  0
  -28.9660  -22.5180   20.1360 N   0  0  0  0  0  0  0  0  0  0  0  0
  -28.6700  -21.3440   22.0560 O   0  0  0  0  0  0  0  0  0  0  0  0
  -29.2580  -22.4360   19.1730 H   0  0  0  0  0  0  0  0  0  0  0  0
  -28.5530  -23.9240   20.5820 C   0  0  0  0  0  3  0  0  0  0  0  0
  -28.4110  -25.1040   19.4820 C   0  0  0  0  0  3  0  0  0  0  0  0
  -28.3810  -26.5620   19.8550 O   0  0  0  0  0  0  0  0  0  0  0  0
  -24.6270  -31.8150   23.1280 C   0  0  0  0  0  0  0  0  0  0  0  0
  -27.2370  -27.3950   19.8280 C   0  0  0  0  0  0  0  0  0  0  0  0
  -23.4170  -30.4870   21.4370 C   0  0  0  0  0  3  0  0  0  0  0  0
  -24.8610  -29.0170   19.9170 C   0  0  0  0  0  0  0  0  0  0  0  0
  -25.9530  -30.8270   21.2390 C   0  0  0  0  0  2  0  0  0  0  0  0
  -26.0330  -29.4790   20.5250 C   0  0  0  0  0  0  0  0  0  0  0  0
  -27.2180  -28.6800   20.4690 C   0  0  0  0  0  3  0  0  0  0  0  0
  -26.0340  -26.9950   19.2030 C   0  0  0  0  0  3  0  0  0  0  0  0
  -24.8660  -27.7850   19.2450 C   0  0  0  0  0  3  0  0  0  0  0  0
  -23.6190  -29.8810   20.0220 C   0  0  0  0  0  2  0  0  0  0  0  0
  -24.6860  -31.0600   21.9910 N   0  0  0  0  0  0  0  0  0  0  0  0
  -23.5470  -32.0560   23.6880 O   0  0  0  0  0  0  0  0  0  0  0  0
  -22.7730  -29.4190   22.3560 C   0  0  0  0  0  0  0  0  0  0  0  0
  -21.4440  -29.2510   22.2530 N   0  0  0  0  0  0  0  0  0  0  0  0
  -23.4690  -28.7490   23.1230 O   0  0  0  0  0  0  0  0  0  0  0  0
  -20.9400  -29.8480   21.6120 H   0  0  0  0  0  0  0  0  0  0  0  0
  -18.0740  -28.0440   22.7880 C   0  0  0  0  0  0  0  0  0  0  0  0
  -20.6410  -28.2720   22.9900 C   0  0  0  0  0  3  0  0  0  0  0  0
  -20.7120  -26.8780   22.3230 C   0  0  0  0  0  2  0  0  0  0  0  0
  -19.5750  -26.6250   21.3280 C   0  0  0  0  0  2  0  0  0  0  0  0
  -18.2160  -26.7380   22.0250 C   0  0  0  0  0  2  0  0  0  0  0  0
  -19.2110  -28.7720   23.2280 C   0  0  0  0  0  0  0  0  0  0  0  0
  -19.0210  -29.9960   23.9060 C   0  0  0  0  0  3  0  0  0  0  0  0
  -17.7250  -30.4920   24.1460 C   0  0  0  0  0  3  0  0  0  0  0  0
  -16.6030  -29.7610   23.7200 C   0  0  0  0  0  3  0  0  0  0  0  0
  -16.7790  -28.5380   23.0480 C   0  0  0  0  0  3  0  0  0  0  0  0
  -25.9100  -32.4300   23.7670 C   0  0  0  0  0  3  0  0  0  0  0  0
  -26.4630  -31.5890   24.9830 C   0  0  1  0  0  0  0  0  0  0  0  0
  -25.3950  -31.2710   26.0570 C   0  0  0  0  0  1  0  0  0  0  0  0
  -27.0570  -30.2470   24.4980 C   0  0  0  0  0  1  0  0  0  0  0  0
  -27.6160  -32.3580   25.6710 C   0  0  0  0  0  1  0  0  0  0  0  0
  -25.5830  -33.7990   24.1940 N   0  0  0  0  0  0  0  0  0  0  0  0
  -25.9150  -34.9080   23.5200 C   0  0  0  0  0  0  0  0  0  0  0  0
  -26.5980  -34.8860   22.4940 O   0  0  0  0  0  0  0  0  0  0  0  0
  -24.9740  -33.8870   24.9950 H   0  0  0  0  0  0  0  0  0  0  0  0
  -24.1940  -36.7260   23.2590 C   0  0  0  0  0  1  0  0  0  0  0  0
  -25.4100  -36.2560   24.0740 C   0  0  0  0  0  3  0  0  0  0  0  0
  -27.5170  -37.0710   25.0380 C   0  0  0  0  0  1  0  0  0  0  0  0
  -26.4440  -37.3140   24.0760 N   0  0  0  0  0  0  0  0  0  0  0  0
  -26.0320  -38.2210   24.2820 H   0  0  0  0  0  0  0  0  0  0  0  0
  1  4  1  0
  2  5  1  0
  2  1  2  0
  4 50  1  0
  4  3  2  0
  5  6  2  0
  6  3  1  0
  6 15  1  0
  7 13  1  0
  8 13  1  0
  9 10  1  0
  9  8  1  0
 11 10  1  0
 11 20  1  0
 11 12  1  0
 13 12  1  0
 14  7  2  0
 15  7  1  0
 15 16  1  0
 17 18  2  0
 18 19  1  0
 18 37  1  0
 19 22  1  0
 20 17  1  0
 20 21  1  0
 21 19  2  0
 22 23  1  0
 23 24  2  0
 25 28  1  0
 25 24  1  0
 26 25  2  0
 27 26  1  0
 27 22  2  0
 28 29  1  0
 29 34  2  0
 29 30  1  0
 30 31  2  0
 31 32  1  0
 32 36  1  0
 33 32  2  0
 34 33  1  0
 35 34  1  0
 37 38  1  0
 38 41  1  0
 38 40  1  0
 39 37  2  0
 42 17  1  0
 43 42  1  0
 44 42  1  0
 45  5  1  0
 46 48  1  0
 46 45  1  0
 47 45  2  0
 49 46  1  0
 50 52  2  0
 51 54  1  0
 51 50  1  0
 53 51  1  0
 55 56  1  0
 55 54  2  0
 57 68  2  0
 58 56  1  0
 58 63  1  0
 59 67  1  0
 59 69  1  0
 60 66  1  0
 60 62  1  0
 61 67  1  0
 62 61  1  0
 63 62  2  0
 64 65  1  0
 64 58  2  0
 65 60  2  0
 66 59  1  0
 67 57  1  0
 69 71  2  0
 70 69  1  0
 72 70  1  0
 73 82  2  0
 73 78  1  0
 74 70  1  0
 74 78  1  0
 75 74  1  0
 76 77  1  0
 76 75  1  0
 77 73  1  0
 78 79  2  0
 79 80  1  0
 81 80  2  0
 82 81  1  0
 83 57  1  0
 83 88  1  0
 83 84  1  0
 84 87  1  1
 84 85  1  0
 86 84  1  0
 88 91  1  0
 89 93  1  0
 89 88  1  0
 90 89  2  0
 93 92  1  0
 93 95  1  0
 95 96  1  0
 95 94  1  0
M  ISO  4   7 100  15 100  55 101  56 101
M  END
>  <TORSDO>  (16) 
F 20

>  <SCORE>  (16) 
-12.265

>  <name>  (16) 
15

>  <ligand_id>  (16) 
15

>  <original_smiles>  (16) 
[H]c1c([H])c([H])c2c(c1[H])C([H])([H])C([H])([H])C([H])([H])C2([H])N([H])C(=O)C1([H])N(C(=O)C([H])(N([H])C(=O)C([H])(N([H])C([H])([H])[H])C([H])([H])[H])C(C([H])([H])[H])(C([H])([H])[H])C([H])([H])[H])C([H])([H])c2c([H])c(OC([H])([H])C([H])([H])N([H])C(=O)c3c([H])c([H])c(C(=O)N([H])[H])c(N([H])C(=O)N4C([H])([H])C([H])([H])C([H])([H])C([H])(n5nc(-c6c([H])c([H])c(Oc7c([H])c([H])c(F)c([H])c7F)c([H])c6[H])c(C(=O)N([H])[H])c5N([H])[H])C4([H])[H])c3[H])c([H])c([H])c2C1([H])[H]

>  <smiles>  (16) 
[H]c1c([H])c([H])c2c(c1[H])C([H])([H])C([H])([H])C([H])([H])C2([H])N([H])C(=O)C1([H])N(C(=O)C([H])(N([H])C(=O)C([H])(N([H])C([H])([H])[H])C([H])([H])[H])C(C([H])([H])[H])(C([H])([H])[H])C([H])([H])[H])C([H])([H])c2c([H])c(OC([H])([H])C([H])([H])N([H])C(=O)c3c([H])c([H])c(C(=O)N([H])[H])c(N([H])C(=O)N4C([H])([H])C([H])([H])C([H])([H])C([H])(n5nc(-c6c([H])c([H])c(Oc7c([H])c([H])c(F)c([H])c7F)c([H])c6[H])c(C(=O)N([H])[H])c5N([H])[H])C4([H])[H])c3[H])c([H])c([H])c2C1([H])[H]

$$$$
16:0:0
     RDKit          3D

 99107  0  0  1  0  0  0  0  0999 V2000
  -29.3950  -18.6270   20.9410 C   0  0  0  0  0  3  0  0  0  0  0  0
  -31.7920  -18.8940   21.1050 C   0  0  0  0  0  3  0  0  0  0  0  0
  -29.2610  -19.9710   20.4940 C   0  0  0  0  0  0  0  0  0  0  0  0
  -30.6540  -18.0810   21.2650 C   0  0  0  0  0  0  0  0  0  0  0  0
  -31.6890  -20.2340   20.6650 C   0  0  0  0  0  0  0  0  0  0  0  0
  -30.4190  -20.8020   20.3570 C   0  0  0  0  0  0  0  0  0  0  0  0
  -32.9740  -21.0410   20.5560 C   0  0  0  0  0  1  0  0  0  0  0  0
  -27.8740  -20.5070   20.2480 C   0  0  0  0  0  0  0  0  0  0  0  0
  -27.0940  -19.7750   19.4670 N   0  0  0  0  0  0  0  0  0  0  0  0
  -27.5050  -21.5840   20.7190 O   0  0  0  0  0  0  0  0  0  0  0  0
  -27.4410  -18.9130   19.0780 H   0  0  0  0  0  0  0  0  0  0  0  0
  -26.1560  -20.0790   19.2550 H   0  0  0  0  0  0  0  0  0  0  0  0
  -30.7970  -16.6970   21.9180 C   0  0  0  0  0  2  0  0  0  0  0  0
  -30.6900  -14.6820   20.4330 C   0  0  0  0  0  0  0  0  0  0  0  0
  -30.3090  -12.6890   19.0190 C   0  0  0  0  0  2  0  0  0  0  0  0
  -29.3210  -13.0160   17.8830 C   0  0  0  0  0  2  0  0  0  0  0  0
  -27.8670  -12.8260   18.3550 C   0  0  0  0  0  2  0  0  0  0  0  0
  -27.5820  -13.5270   19.7100 C   0  0  0  0  0  3  0  0  0  0  0  0
  -28.6760  -13.1860   20.7460 C   0  0  0  0  0  2  0  0  0  0  0  0
  -29.9790  -13.5520   20.1650 N   0  0  0  0  0  0  0  0  0  0  0  0
  -31.7760  -14.9230   19.9020 O   0  0  0  0  0  0  0  0  0  0  0  0
  -30.1180  -15.5590   21.2800 N   0  0  0  0  0  0  0  0  0  0  0  0
  -29.2070  -15.3130   21.6370 H   0  0  0  0  0  0  0  0  0  0  0  0
  -25.1950  -14.0620   20.5040 C   0  0  0  0  0  0  0  0  0  0  0  0
  -24.1470  -13.2560   20.8610 C   0  0  0  0  0  0  0  0  0  0  0  0
  -24.6280  -11.9150   20.7550 C   0  0  0  0  0  0  0  0  0  0  0  0
  -26.2470  -13.2100   20.2080 N   0  0  0  0  0  0  0  0  0  0  0  0
  -25.9100  -11.9110   20.4150 N   0  0  0  0  0  0  0  0  0  0  0  0
  -23.9250  -10.6340   20.9010 C   0  0  0  0  0  0  0  0  0  0  0  0
  -24.3890   -9.6330   21.7830 C   0  0  0  0  0  3  0  0  0  0  0  0
  -23.6870   -8.4170   21.9180 C   0  0  0  0  0  3  0  0  0  0  0  0
  -22.5060   -8.1920   21.1720 C   0  0  0  0  0  0  0  0  0  0  0  0
  -22.0610   -9.1820   20.2780 C   0  0  0  0  0  3  0  0  0  0  0  0
  -22.7640  -10.3900   20.1410 C   0  0  0  0  0  3  0  0  0  0  0  0
  -21.7720   -7.0320   21.2200 O   0  0  0  0  0  0  0  0  0  0  0  0
  -21.7520   -6.2390   22.3400 C   0  0  0  0  0  0  0  0  0  0  0  0
  -21.3210   -6.7280   23.5920 C   0  0  0  0  0  3  0  0  0  0  0  0
  -21.2510   -5.8600   24.7010 C   0  0  0  0  0  3  0  0  0  0  0  0
  -21.6000   -4.5050   24.5580 C   0  0  0  0  0  0  0  0  0  0  0  0
  -22.0250   -4.0150   23.3100 C   0  0  0  0  0  3  0  0  0  0  0  0
  -22.0970   -4.8780   22.2030 C   0  0  0  0  0  0  0  0  0  0  0  0
  -22.4860   -4.3960   20.9990 F   0  0  0  0  0  0  0  0  0  0  0  0
  -21.5260   -3.6690   25.6200 F   0  0  0  0  0  0  0  0  0  0  0  0
  -22.7500  -13.6980   21.1870 C   0  0  0  0  0  0  0  0  0  0  0  0
  -22.0560  -12.9540   22.0440 N   0  0  0  0  0  0  0  0  0  0  0  0
  -22.2810  -14.7360   20.7210 O   0  0  0  0  0  0  0  0  0  0  0  0
  -22.4470  -12.1140   22.4420 H   0  0  0  0  0  0  0  0  0  0  0  0
  -21.1200  -13.2310   22.3040 H   0  0  0  0  0  0  0  0  0  0  0  0
  -25.3370  -15.4410   20.3860 N   0  0  0  0  0  0  0  0  0  0  0  0
  -24.5620  -16.0790   20.5240 H   0  0  0  0  0  0  0  0  0  0  0  0
  -26.1690  -15.8960   20.0300 H   0  0  0  0  0  0  0  0  0  0  0  0
  -30.3160  -22.2760   19.8790 C   0  0  0  0  0  2  0  0  0  0  0  0
  -29.9490  -23.1970   20.9840 N   0  0  0  0  0  4  0  0  0  0  0  0
  -30.5750  -22.9660   21.7390 H   0  0  0  0  0  0  0  0  0  0  0  0
  -29.0170  -22.9390   21.2850 H   0  0  0  0  0  0  0  0  0  0  0  0
  -30.4940  -25.3630   22.0510 C   0  0  0  0  0  1  0  0  0  0  0  0
  -30.0580  -24.6730   20.7420 C   0  0  0  0  0  3  0  0  0  0  0  0
  -28.7520  -25.3150   20.1920 C   0  0  0  0  0  2  0  0  0  0  0  0
  -28.8400  -26.7570   20.1310 O   0  0  0  0  0  0  0  0  0  0  0  0
  -24.6760  -31.6540   23.2160 C   0  0  0  0  0  0  0  0  0  0  0  0
  -27.6410  -27.4480   20.0840 C   0  0  0  0  0  0  0  0  0  0  0  0
  -23.6020  -30.2640   21.4750 C   0  0  0  0  0  3  0  0  0  0  0  0
  -25.1800  -28.8540   20.0530 C   0  0  0  0  0  0  0  0  0  0  0  0
  -26.1140  -30.7460   21.3900 C   0  0  0  0  0  2  0  0  0  0  0  0
  -26.2910  -29.4050   20.7020 C   0  0  0  0  0  0  0  0  0  0  0  0
  -27.5260  -28.7140   20.7080 C   0  0  0  0  0  3  0  0  0  0  0  0
  -26.5090  -26.9170   19.4220 C   0  0  0  0  0  3  0  0  0  0  0  0
  -25.2870  -27.6110   19.4060 C   0  0  0  0  0  3  0  0  0  0  0  0
  -23.8960  -29.6520   20.0810 C   0  0  0  0  0  2  0  0  0  0  0  0
  -24.8130  -30.9000   22.0870 N   0  0  0  0  0  0  0  0  0  0  0  0
  -23.5630  -31.8540   23.7210 O   0  0  0  0  0  0  0  0  0  0  0  0
  -22.9650  -29.1760   22.3700 C   0  0  0  0  0  0  0  0  0  0  0  0
  -21.6470  -28.9690   22.2140 N   0  0  0  0  0  0  0  0  0  0  0  0
  -23.6530  -28.5240   23.1600 O   0  0  0  0  0  0  0  0  0  0  0  0
  -21.1530  -29.5520   21.5520 H   0  0  0  0  0  0  0  0  0  0  0  0
  -18.2920  -27.6850   22.6120 C   0  0  0  0  0  0  0  0  0  0  0  0
  -20.8430  -27.9700   22.9180 C   0  0  0  0  0  3  0  0  0  0  0  0
  -20.9770  -26.5800   22.2570 C   0  0  0  0  0  2  0  0  0  0  0  0
  -19.8860  -26.3010   21.2160 C   0  0  0  0  0  2  0  0  0  0  0  0
  -18.4980  -26.3810   21.8570 C   0  0  0  0  0  2  0  0  0  0  0  0
  -19.3940  -28.4380   23.0960 C   0  0  0  0  0  0  0  0  0  0  0  0
  -19.1490  -29.6590   23.7590 C   0  0  0  0  0  3  0  0  0  0  0  0
  -17.8350  -30.1270   23.9460 C   0  0  0  0  0  3  0  0  0  0  0  0
  -16.7470  -29.3690   23.4780 C   0  0  0  0  0  3  0  0  0  0  0  0
  -16.9760  -28.1500   22.8150 C   0  0  0  0  0  3  0  0  0  0  0  0
  -25.9060  -32.3180   23.9090 C   0  0  0  0  0  3  0  0  0  0  0  0
  -25.5460  -33.7110   24.2070 N   0  0  0  0  0  0  0  0  0  0  0  0
  -25.9310  -34.7670   23.4770 C   0  0  0  0  0  0  0  0  0  0  0  0
  -26.6940  -34.6730   22.5130 O   0  0  0  0  0  0  0  0  0  0  0  0
  -24.8780  -33.8580   24.9490 H   0  0  0  0  0  0  0  0  0  0  0  0
  -24.2160  -36.5330   22.9560 C   0  0  0  0  0  1  0  0  0  0  0  0
  -25.3810  -36.1470   23.8830 C   0  0  0  0  0  3  0  0  0  0  0  0
  -27.4100  -37.0650   24.9170 C   0  0  0  0  0  1  0  0  0  0  0  0
  -26.4020  -37.2170   23.8690 N   0  0  0  0  0  0  0  0  0  0  0  0
  -25.9690  -38.1290   23.9780 H   0  0  0  0  0  0  0  0  0  0  0  0
  -26.3620  -31.5670   25.2220 C   0  0  1  0  0  0  0  0  0  0  0  0
  -25.2130  -31.3220   26.2270 C   0  0  0  0  0  1  0  0  0  0  0  0
  -26.9870  -30.1960   24.8750 C   0  0  0  0  0  1  0  0  0  0  0  0
  -27.4600  -32.3850   25.9390 C   0  0  0  0  0  1  0  0  0  0  0  0
  1  4  1  0
  2  4  2  0
  3  1  2  0
  4 13  1  0
  5  2  1  0
  6  3  1  0
  6  5  2  0
  7  5  1  0
  8  3  1  0
  8 10  2  0
  9  8  1  0
 11  9  1  0
 12  9  1  0
 14 22  1  0
 15 20  1  0
 16 17  1  0
 16 15  1  0
 18 17  1  0
 18 27  1  0
 18 19  1  0
 20 14  1  0
 20 19  1  0
 21 14  2  0
 22 23  1  0
 22 13  1  0
 24 25  2  0
 25 44  1  0
 26 25  1  0
 26 29  1  0
 27 28  1  0
 27 24  1  0
 28 26  2  0
 29 30  1  0
 30 31  2  0
 32 35  1  0
 32 31  1  0
 33 32  2  0
 34 33  1  0
 34 29  2  0
 35 36  1  0
 36 37  1  0
 37 38  2  0
 39 38  1  0
 39 43  1  0
 40 39  2  0
 41 36  2  0
 41 40  1  0
 42 41  1  0
 44 45  1  0
 45 48  1  0
 45 47  1  0
 46 44  2  0
 49 24  1  0
 49 50  1  0
 51 49  1  0
 52  6  1  0
 52 53  1  0
 53 55  1  0
 53 54  1  0
 57 53  1  0
 57 56  1  0
 58 57  1  0
 59 58  1  0
 60 71  2  0
 61 59  1  0
 61 66  1  0
 62 70  1  0
 62 72  1  0
 63 69  1  0
 63 65  1  0
 64 70  1  0
 65 66  2  0
 65 64  1  0
 67 61  2  0
 68 67  1  0
 68 63  2  0
 69 62  1  0
 70 60  1  0
 72 74  2  0
 73 72  1  0
 75 73  1  0
 76 85  2  0
 76 81  1  0
 77 73  1  0
 77 81  1  0
 78 77  1  0
 79 80  1  0
 79 78  1  0
 80 76  1  0
 81 82  2  0
 82 83  1  0
 84 83  2  0
 85 84  1  0
 86 60  1  0
 86 87  1  0
 86 96  1  0
 87 90  1  0
 88 92  1  0
 88 87  1  0
 89 88  2  0
 92 91  1  0
 94 92  1  0
 94 95  1  0
 94 93  1  0
 96 99  1  1
 96 97  1  0
 98 96  1  0
M  ISO  4  14 100  22 100  58 101  59 101
M  END
>  <TORSDO>  (17) 
F 22

>  <SCORE>  (17) 
-12.856

>  <name>  (17) 
16

>  <ligand_id>  (17) 
16

>  <original_smiles>  (17) 
[H]c1c([H])c([H])c2c(c1[H])C([H])([H])C([H])([H])C([H])([H])C2([H])N([H])C(=O)C1([H])N(C(=O)C([H])(N([H])C(=O)C([H])(N([H])C([H])([H])[H])C([H])([H])[H])C(C([H])([H])[H])(C([H])([H])[H])C([H])([H])[H])C([H])([H])c2c([H])c(OC([H])([H])C([H])(C([H])([H])[H])[N+]([H])([H])C([H])([H])c3c(C(=O)N([H])[H])c([H])c(C([H])([H])N([H])C(=O)N4C([H])([H])C([H])([H])C([H])([H])C([H])(n5nc(-c6c([H])c([H])c(Oc7c([H])c([H])c(F)c([H])c7F)c([H])c6[H])c(C(=O)N([H])[H])c5N([H])[H])C4([H])[H])c([H])c3C([H])([H])[H])c([H])c([H])c2C1([H])[H]

>  <smiles>  (17) 
[H]c1c([H])c([H])c2c(c1[H])C([H])([H])C([H])([H])C([H])([H])C2([H])N([H])C(=O)C1([H])N(C(=O)C([H])(N([H])C(=O)C([H])(N([H])C([H])([H])[H])C([H])([H])[H])C(C([H])([H])[H])(C([H])([H])[H])C([H])([H])[H])C([H])([H])c2c([H])c(OC([H])([H])C([H])(C([H])([H])[H])[N+]([H])([H])C([H])([H])c3c(C(=O)N([H])[H])c([H])c(C([H])([H])N([H])C(=O)N4C([H])([H])C([H])([H])C([H])([H])C([H])(n5nc(-c6c([H])c([H])c(Oc7c([H])c([H])c(F)c([H])c7F)c([H])c6[H])c(C(=O)N([H])[H])c5N([H])[H])C4([H])[H])c([H])c3C([H])([H])[H])c([H])c([H])c2C1([H])[H]

$$$$
17:0:0
     RDKit          3D

101109  0  0  1  0  0  0  0  0999 V2000
  -31.6470  -20.1350   19.4960 N   0  0  0  0  0  4  0  0  0  0  0  0
  -32.2860  -20.5690   18.8410 H   0  0  0  0  0  0  0  0  0  0  0  0
  -31.7760  -19.1380   19.4350 H   0  0  0  0  0  0  0  0  0  0  0  0
  -33.4110  -20.1170   21.2280 C   0  0  0  0  0  1  0  0  0  0  0  0
  -31.9480  -22.1390   20.9760 C   0  0  0  0  0  1  0  0  0  0  0  0
  -31.9780  -20.5900   20.8810 C   0  0  1  0  0  0  0  0  0  0  0  0
  -30.9980  -20.0190   21.9480 C   0  0  0  0  0  2  0  0  0  0  0  0
  -30.0560  -17.7280   21.4960 C   0  0  0  0  0  0  0  0  0  0  0  0
  -31.2940  -16.3920   23.0380 C   0  0  0  0  0  2  0  0  0  0  0  0
  -31.6330  -17.8870   23.1870 C   0  0  0  0  0  2  0  0  0  0  0  0
  -29.9630  -16.4260   22.2790 C   0  0  0  0  0  3  0  0  0  0  0  0
  -30.9390  -18.5540   22.0820 N   0  0  0  0  0  0  0  0  0  0  0  0
  -29.3580  -17.9820   20.5130 O   0  0  0  0  0  0  0  0  0  0  0  0
  -30.0090  -14.6710   20.4020 C   0  0  0  0  0  0  0  0  0  0  0  0
  -29.7430  -12.6730   18.9460 C   0  0  0  0  0  2  0  0  0  0  0  0
  -28.6870  -12.8840   17.8430 C   0  0  0  0  0  2  0  0  0  0  0  0
  -27.2700  -12.5710   18.3620 C   0  0  0  0  0  2  0  0  0  0  0  0
  -26.9650  -13.2860   19.7030 C   0  0  0  0  0  3  0  0  0  0  0  0
  -28.1100  -13.0340   20.7090 C   0  0  0  0  0  2  0  0  0  0  0  0
  -29.3790  -13.5000   20.1070 N   0  0  0  0  0  0  0  0  0  0  0  0
  -30.9160  -15.1570   19.7190 O   0  0  0  0  0  0  0  0  0  0  0  0
  -29.5860  -15.2110   21.5500 N   0  0  0  0  0  0  0  0  0  0  0  0
  -28.8430  -14.6870   21.9900 H   0  0  0  0  0  0  0  0  0  0  0  0
  -24.5920  -13.6630   20.6410 C   0  0  0  0  0  0  0  0  0  0  0  0
  -23.6080  -12.7890   21.0120 C   0  0  0  0  0  0  0  0  0  0  0  0
  -24.1500  -11.4800   20.8210 C   0  0  0  0  0  0  0  0  0  0  0  0
  -25.6700  -12.8820   20.2490 N   0  0  0  0  0  0  0  0  0  0  0  0
  -25.4090  -11.5590   20.4120 N   0  0  0  0  0  0  0  0  0  0  0  0
  -23.5250  -10.1590   20.9510 C   0  0  0  0  0  0  0  0  0  0  0  0
  -24.0710   -9.1600   21.7900 C   0  0  0  0  0  3  0  0  0  0  0  0
  -23.4400   -7.9030   21.9080 C   0  0  0  0  0  3  0  0  0  0  0  0
  -22.2510   -7.6360   21.1880 C   0  0  0  0  0  0  0  0  0  0  0  0
  -21.7240   -8.6240   20.3380 C   0  0  0  0  0  3  0  0  0  0  0  0
  -22.3560   -9.8730   20.2170 C   0  0  0  0  0  3  0  0  0  0  0  0
  -21.5840   -6.4330   21.2210 O   0  0  0  0  0  0  0  0  0  0  0  0
  -21.6280   -5.6160   22.3230 C   0  0  0  0  0  0  0  0  0  0  0  0
  -21.2130   -6.0620   23.5960 C   0  0  0  0  0  3  0  0  0  0  0  0
  -21.2060   -5.1690   24.6870 C   0  0  0  0  0  3  0  0  0  0  0  0
  -21.6040   -3.8310   24.5060 C   0  0  0  0  0  0  0  0  0  0  0  0
  -22.0110   -3.3840   23.2360 C   0  0  0  0  0  3  0  0  0  0  0  0
  -22.0210   -4.2740   22.1480 C   0  0  0  0  0  0  0  0  0  0  0  0
  -22.3940   -3.8320   20.9220 F   0  0  0  0  0  0  0  0  0  0  0  0
  -21.5890   -2.9710   25.5500 F   0  0  0  0  0  0  0  0  0  0  0  0
  -22.2090  -13.1410   21.4340 C   0  0  0  0  0  0  0  0  0  0  0  0
  -21.6070  -12.3400   22.3040 N   0  0  0  0  0  0  0  0  0  0  0  0
  -21.6540  -14.1610   21.0240 O   0  0  0  0  0  0  0  0  0  0  0  0
  -22.0690  -11.5180   22.6610 H   0  0  0  0  0  0  0  0  0  0  0  0
  -20.6720  -12.5570   22.6250 H   0  0  0  0  0  0  0  0  0  0  0  0
  -24.6520  -15.0540   20.5830 N   0  0  0  0  0  0  0  0  0  0  0  0
  -23.8480  -15.6310   20.8020 H   0  0  0  0  0  0  0  0  0  0  0  0
  -25.4440  -15.5880   20.2450 H   0  0  0  0  0  0  0  0  0  0  0  0
  -30.3120  -20.4610   18.9380 C   0  0  0  0  0  2  0  0  0  0  0  0
  -30.3370  -21.8150   18.2400 C   0  0  0  0  0  0  0  0  0  0  0  0
  -29.1890  -22.5040   18.2100 N   0  0  0  0  0  0  0  0  0  0  0  0
  -31.3980  -22.2350   17.7720 O   0  0  0  0  0  0  0  0  0  0  0  0
  -28.3810  -22.0470   18.6100 H   0  0  0  0  0  0  0  0  0  0  0  0
  -27.8280  -24.0180   16.8340 C   0  0  0  0  0  1  0  0  0  0  0  0
  -29.0230  -23.8970   17.7980 C   0  0  0  0  0  3  0  0  0  0  0  0
  -28.8240  -24.7530   19.0640 C   0  0  0  0  0  2  0  0  0  0  0  0
  -28.8400  -26.2640   18.8000 C   0  0  0  0  0  2  0  0  0  0  0  0
  -28.4780  -26.9280   20.0050 O   0  0  0  0  0  0  0  0  0  0  0  0
  -24.5590  -31.8740   23.2170 C   0  0  0  0  0  0  0  0  0  0  0  0
  -27.2540  -27.5540   20.0430 C   0  0  0  0  0  0  0  0  0  0  0  0
  -23.3610  -30.4930   21.5460 C   0  0  0  0  0  3  0  0  0  0  0  0
  -24.8280  -28.9890   20.0980 C   0  0  0  0  0  0  0  0  0  0  0  0
  -25.8750  -30.8820   21.3510 C   0  0  0  0  0  2  0  0  0  0  0  0
  -25.9730  -29.5200   20.7080 C   0  0  0  0  0  0  0  0  0  0  0  0
  -27.1770  -28.7960   20.7020 C   0  0  0  0  0  3  0  0  0  0  0  0
  -26.0880  -27.0160   19.4470 C   0  0  0  0  0  3  0  0  0  0  0  0
  -24.8740  -27.7290   19.4760 C   0  0  0  0  0  3  0  0  0  0  0  0
  -23.5770  -29.8340   20.1530 C   0  0  0  0  0  2  0  0  0  0  0  0
  -24.6170  -31.0960   22.0990 N   0  0  0  0  0  0  0  0  0  0  0  0
  -23.4790  -32.1300   23.7620 O   0  0  0  0  0  0  0  0  0  0  0  0
  -22.7210  -29.4480   22.4880 C   0  0  0  0  0  0  0  0  0  0  0  0
  -21.3940  -29.2760   22.3740 N   0  0  0  0  0  0  0  0  0  0  0  0
  -23.4120  -28.7950   23.2750 O   0  0  0  0  0  0  0  0  0  0  0  0
  -20.8980  -29.8620   21.7160 H   0  0  0  0  0  0  0  0  0  0  0  0
  -18.0170  -28.1060   22.8810 C   0  0  0  0  0  0  0  0  0  0  0  0
  -20.5790  -28.3230   23.1280 C   0  0  0  0  0  3  0  0  0  0  0  0
  -20.6570  -26.9100   22.5060 C   0  0  0  0  0  2  0  0  0  0  0  0
  -19.5390  -26.6310   21.4960 C   0  0  0  0  0  2  0  0  0  0  0  0
  -18.1680  -26.7740   22.1640 C   0  0  0  0  0  2  0  0  0  0  0  0
  -19.1510  -28.8400   23.3200 C   0  0  0  0  0  0  0  0  0  0  0  0
  -18.9570  -30.0880   23.9500 C   0  0  0  0  0  3  0  0  0  0  0  0
  -17.6620  -30.6010   24.1500 C   0  0  0  0  0  3  0  0  0  0  0  0
  -16.5420  -29.8620   23.7310 C   0  0  0  0  0  3  0  0  0  0  0  0
  -16.7200  -28.6170   23.1010 C   0  0  0  0  0  3  0  0  0  0  0  0
  -25.8410  -32.5020   23.8470 C   0  0  0  0  0  3  0  0  0  0  0  0
  -25.5310  -33.9000   24.1820 N   0  0  0  0  0  0  0  0  0  0  0  0
  -25.8610  -34.9540   23.4250 C   0  0  0  0  0  0  0  0  0  0  0  0
  -26.5330  -34.8550   22.3930 O   0  0  0  0  0  0  0  0  0  0  0  0
  -24.9400  -34.0490   24.9880 H   0  0  0  0  0  0  0  0  0  0  0  0
  -24.1230  -36.7340   23.0800 C   0  0  0  0  0  1  0  0  0  0  0  0
  -25.3690  -36.3380   23.8880 C   0  0  0  0  0  3  0  0  0  0  0  0
  -27.5000  -37.2280   24.7140 C   0  0  0  0  0  1  0  0  0  0  0  0
  -26.3940  -37.3970   23.7770 N   0  0  0  0  0  0  0  0  0  0  0  0
  -25.9820  -38.3130   23.9340 H   0  0  0  0  0  0  0  0  0  0  0  0
  -26.3550  -31.7250   25.1200 C   0  0  1  0  0  0  0  0  0  0  0  0
  -25.2580  -31.4790   26.1820 C   0  0  0  0  0  1  0  0  0  0  0  0
  -26.9370  -30.3530   24.7130 C   0  0  0  0  0  1  0  0  0  0  0  0
  -27.5040  -32.5130   25.7920 C   0  0  0  0  0  1  0  0  0  0  0  0
  1  6  1  0
  2  1  1  0
  3  1  1  0
  6  5  1  6
  6  4  1  0
  6  7  1  0
  7 12  1  0
  8 12  1  0
  8 11  1  0
  9 10  1  0
 11 22  1  0
 11  9  1  0
 12 10  1  0
 13  8  2  0
 14 22  1  0
 15 20  1  0
 16 17  1  0
 16 15  1  0
 18 17  1  0
 18 27  1  0
 18 19  1  0
 20 14  1  0
 20 19  1  0
 21 14  2  0
 22 23  1  0
 24 25  2  0
 25 44  1  0
 26 29  1  0
 26 25  1  0
 27 28  1  0
 27 24  1  0
 28 26  2  0
 29 30  1  0
 30 31  2  0
 32 35  1  0
 32 31  1  0
 33 32  2  0
 34 33  1  0
 34 29  2  0
 35 36  1  0
 36 37  1  0
 37 38  2  0
 39 38  1  0
 39 43  1  0
 40 39  2  0
 41 36  2  0
 41 40  1  0
 42 41  1  0
 44 45  1  0
 45 48  1  0
 45 47  1  0
 46 44  2  0
 49 24  1  0
 49 50  1  0
 51 49  1  0
 52  1  1  0
 53 52  1  0
 54 53  1  0
 54 56  1  0
 55 53  2  0
 58 57  1  0
 58 54  1  0
 58 59  1  0
 60 59  1  0
 60 61  1  0
 61 63  1  0
 62 73  2  0
 63 68  1  0
 64 72  1  0
 64 74  1  0
 65 71  1  0
 65 67  1  0
 66 72  1  0
 67 66  1  0
 68 67  2  0
 69 70  1  0
 69 63  2  0
 70 65  2  0
 71 64  1  0
 72 62  1  0
 74 76  2  0
 75 74  1  0
 77 75  1  0
 78 87  2  0
 78 83  1  0
 79 75  1  0
 79 83  1  0
 80 79  1  0
 81 82  1  0
 81 80  1  0
 82 78  1  0
 83 84  2  0
 84 85  1  0
 86 85  2  0
 87 86  1  0
 88 62  1  0
 88 89  1  0
 88 98  1  0
 89 92  1  0
 90 94  1  0
 90 89  1  0
 91 90  2  0
 94 93  1  0
 96 94  1  0
 96 97  1  0
 96 95  1  0
 98101  1  1
 98 99  1  0
100 98  1  0
M  ISO  4  14 100  22 100  60 101  61 101
M  END
>  <TORSDO>  (18) 
F 24

>  <SCORE>  (18) 
-9.371

>  <name>  (18) 
17

>  <ligand_id>  (18) 
17

>  <original_smiles>  (18) 
[H]c1c([H])c([H])c2c(c1[H])C([H])([H])C([H])([H])C([H])([H])C2([H])N([H])C(=O)C1([H])N(C(=O)C([H])(N([H])C(=O)C([H])(N([H])C([H])([H])[H])C([H])([H])[H])C(C([H])([H])[H])(C([H])([H])[H])C([H])([H])[H])C([H])([H])c2c([H])c(OC([H])([H])C([H])([H])C([H])(N([H])C(=O)C([H])([H])[N+]([H])([H])C(C([H])([H])[H])(C([H])([H])[H])C([H])([H])N3C(=O)C([H])(N([H])C(=O)N4C([H])([H])C([H])([H])C([H])([H])C([H])(n5nc(-c6c([H])c([H])c(Oc7c([H])c([H])c(F)c([H])c7F)c([H])c6[H])c(C(=O)N([H])[H])c5N([H])[H])C4([H])[H])C([H])([H])C3([H])[H])C([H])([H])[H])c([H])c([H])c2C1([H])[H]

>  <smiles>  (18) 
[H]c1c([H])c([H])c2c(c1[H])C([H])([H])C([H])([H])C([H])([H])C2([H])N([H])C(=O)C1([H])N(C(=O)C([H])(N([H])C(=O)C([H])(N([H])C([H])([H])[H])C([H])([H])[H])C(C([H])([H])[H])(C([H])([H])[H])C([H])([H])[H])C([H])([H])c2c([H])c(OC([H])([H])C([H])([H])C([H])(N([H])C(=O)C([H])([H])[N+]([H])([H])C(C([H])([H])[H])(C([H])([H])[H])C([H])([H])N3C(=O)C([H])(N([H])C(=O)N4C([H])([H])C([H])([H])C([H])([H])C([H])(n5nc(-c6c([H])c([H])c(Oc7c([H])c([H])c(F)c([H])c7F)c([H])c6[H])c(C(=O)N([H])[H])c5N([H])[H])C4([H])[H])C([H])([H])C3([H])[H])C([H])([H])[H])c([H])c([H])c2C1([H])[H]

$$$$
18:0:0
     RDKit          3D

102110  0  0  1  0  0  0  0  0999 V2000
  -29.6190  -20.4760   21.1940 C   0  0  0  0  0  0  0  0  0  0  0  0
  -30.1330  -19.6130   20.3010 N   0  0  0  0  0  0  0  0  0  0  0  0
  -29.8300  -20.3630   22.4070 O   0  0  0  0  0  0  0  0  0  0  0  0
  -30.3420  -20.0930   19.4380 H   0  0  0  0  0  0  0  0  0  0  0  0
  -27.2790  -18.5020   19.2700 C   0  0  0  0  0  3  0  0  0  0  0  0
  -28.1840  -18.2050   20.3100 C   0  0  0  0  0  3  0  0  0  0  0  0
  -29.0970  -18.2430   17.6760 C   0  0  0  0  0  3  0  0  0  0  0  0
  -27.7670  -18.6700   17.9530 C   0  0  0  0  0  0  0  0  0  0  0  0
  -29.9580  -17.8790   18.7410 C   0  0  0  0  0  3  0  0  0  0  0  0
  -29.5600  -18.3320   20.0140 C   0  0  0  0  0  3  0  0  0  0  0  0
  -26.8510  -19.2270   16.8690 C   0  0  1  0  0  0  0  0  0  0  0  0
  -25.5770  -19.0260   17.2020 F   0  0  0  0  0  0  0  0  0  0  0  0
  -27.0620  -20.5400   16.7630 F   0  0  0  0  0  0  0  0  0  0  0  0
  -27.0630  -18.6730   15.6790 F   0  0  0  0  0  0  0  0  0  0  0  0
  -32.5330  -17.8680   18.5010 C   0  0  0  0  0  1  0  0  0  0  0  0
  -31.2380  -17.0340   18.5300 C   0  0  0  0  0  3  0  0  0  0  0  0
  -32.0630  -14.7900   19.4590 C   0  0  0  0  0  0  0  0  0  0  0  0
  -31.7320  -12.3680   19.2230 C   0  0  0  0  0  2  0  0  0  0  0  0
  -30.8240  -12.1800   17.9860 C   0  0  0  0  0  2  0  0  0  0  0  0
  -29.3290  -12.3060   18.3680 C   0  0  0  0  0  2  0  0  0  0  0  0
  -29.0370  -13.5520   19.2490 C   0  0  0  0  0  3  0  0  0  0  0  0
  -30.0550  -13.6440   20.4180 C   0  0  0  0  0  2  0  0  0  0  0  0
  -31.3960  -13.6690   19.8280 N   0  0  0  0  0  0  0  0  0  0  0  0
  -33.1980  -14.7580   18.9690 O   0  0  0  0  0  0  0  0  0  0  0  0
  -31.3000  -15.9080   19.4870 N   0  0  0  0  0  0  0  0  0  0  0  0
  -30.4540  -15.8130   20.0310 H   0  0  0  0  0  0  0  0  0  0  0  0
  -26.8100  -14.6510   19.9210 C   0  0  0  0  0  0  0  0  0  0  0  0
  -25.6130  -14.1360   20.3170 C   0  0  0  0  0  0  0  0  0  0  0  0
  -25.7860  -12.7230   20.3210 C   0  0  0  0  0  0  0  0  0  0  0  0
  -27.6560  -13.5750   19.7230 N   0  0  0  0  0  0  0  0  0  0  0  0
  -27.0390  -12.4060   20.0210 N   0  0  0  0  0  0  0  0  0  0  0  0
  -24.8200  -11.6490   20.5300 C   0  0  0  0  0  0  0  0  0  0  0  0
  -25.1950  -10.4440   21.1560 C   0  0  0  0  0  3  0  0  0  0  0  0
  -24.2430   -9.4240   21.3610 C   0  0  0  0  0  3  0  0  0  0  0  0
  -22.9050   -9.6080   20.9370 C   0  0  0  0  0  0  0  0  0  0  0  0
  -22.5470  -10.8050   20.2910 C   0  0  0  0  0  3  0  0  0  0  0  0
  -23.4960  -11.8170   20.0850 C   0  0  0  0  0  3  0  0  0  0  0  0
  -21.9190   -8.6650   21.0660 O   0  0  0  0  0  0  0  0  0  0  0  0
  -21.9240   -7.7630   22.1010 C   0  0  0  0  0  0  0  0  0  0  0  0
  -22.0870   -8.1670   23.4440 C   0  0  0  0  0  3  0  0  0  0  0  0
  -22.0150   -7.2160   24.4800 C   0  0  0  0  0  3  0  0  0  0  0  0
  -21.7700   -5.8610   24.1780 C   0  0  0  0  0  0  0  0  0  0  0  0
  -21.6010   -5.4580   22.8400 C   0  0  0  0  0  3  0  0  0  0  0  0
  -21.6760   -6.4070   21.8070 C   0  0  0  0  0  0  0  0  0  0  0  0
  -21.4900   -6.0160   20.5230 F   0  0  0  0  0  0  0  0  0  0  0  0
  -21.6910   -4.9480   25.1730 F   0  0  0  0  0  0  0  0  0  0  0  0
  -24.3500  -14.9050   20.5770 C   0  0  0  0  0  0  0  0  0  0  0  0
  -23.4290  -14.3250   21.3330 N   0  0  0  0  0  0  0  0  0  0  0  0
  -24.1920  -16.0460   20.1450 O   0  0  0  0  0  0  0  0  0  0  0  0
  -23.5630  -13.3930   21.6970 H   0  0  0  0  0  0  0  0  0  0  0  0
  -22.5650  -14.8110   21.5290 H   0  0  0  0  0  0  0  0  0  0  0  0
  -27.2310  -15.9410   19.6560 N   0  0  0  0  0  0  0  0  0  0  0  0
  -26.5460  -16.6790   19.5580 H   0  0  0  0  0  0  0  0  0  0  0  0
  -28.0420  -16.0740   19.0660 H   0  0  0  0  0  0  0  0  0  0  0  0
  -28.6000  -21.5090   20.6750 C   0  0  0  0  0  2  0  0  0  0  0  0
  -28.9260  -22.9850   20.9930 C   0  0  0  0  0  2  0  0  0  0  0  0
  -29.5620  -25.0620   19.7930 C   0  0  0  0  0  0  0  0  0  0  0  0
  -29.1700  -23.7830   19.7880 N   0  0  0  0  0  0  0  0  0  0  0  0
  -29.8450  -25.6550   20.8390 O   0  0  0  0  0  0  0  0  0  0  0  0
  -28.9430  -23.3680   18.8910 H   0  0  0  0  0  0  0  0  0  0  0  0
  -29.6400  -25.7810   18.4280 C   0  0  0  0  0  2  0  0  0  0  0  0
  -29.4770  -27.2020   18.5830 O   0  0  0  0  0  0  0  0  0  0  0  0
  -25.1570  -30.4130   23.2120 C   0  0  0  0  0  0  0  0  0  0  0  0
  -28.2160  -27.7270   18.7850 C   0  0  0  0  0  0  0  0  0  0  0  0
  -24.1020  -29.6630   21.1030 C   0  0  0  0  0  3  0  0  0  0  0  0
  -25.6960  -28.8980   19.2710 C   0  0  0  0  0  0  0  0  0  0  0  0
  -26.5890  -30.2670   21.1740 C   0  0  0  0  0  2  0  0  0  0  0  0
  -26.7930  -29.2580   20.0630 C   0  0  0  0  0  0  0  0  0  0  0  0
  -28.0530  -28.6710   19.8210 C   0  0  0  0  0  3  0  0  0  0  0  0
  -27.0980  -27.3770   17.9930 C   0  0  0  0  0  3  0  0  0  0  0  0
  -25.8400  -27.9550   18.2390 C   0  0  0  0  0  3  0  0  0  0  0  0
  -24.3790  -29.5670   19.5790 C   0  0  0  0  0  2  0  0  0  0  0  0
  -25.2980  -30.1130   21.8880 N   0  0  0  0  0  0  0  0  0  0  0  0
  -24.0490  -30.3740   23.7610 O   0  0  0  0  0  0  0  0  0  0  0  0
  -23.5330  -28.3000   21.5780 C   0  0  0  0  0  0  0  0  0  0  0  0
  -22.2180  -28.1000   21.3670 N   0  0  0  0  0  0  0  0  0  0  0  0
  -24.2660  -27.4490   22.0910 O   0  0  0  0  0  0  0  0  0  0  0  0
  -21.7010  -28.7990   20.8520 H   0  0  0  0  0  0  0  0  0  0  0  0
  -18.9200  -26.6680   21.5050 C   0  0  0  0  0  0  0  0  0  0  0  0
  -21.4820  -26.8900   21.7260 C   0  0  0  0  0  3  0  0  0  0  0  0
  -21.5740  -25.8520   20.5850 C   0  0  0  0  0  2  0  0  0  0  0  0
  -20.4040  -25.9280   19.6000 C   0  0  0  0  0  2  0  0  0  0  0  0
  -19.0740  -25.7300   20.3230 C   0  0  0  0  0  2  0  0  0  0  0  0
  -20.0460  -27.2200   22.1630 C   0  0  0  0  0  0  0  0  0  0  0  0
  -19.8390  -28.1010   23.2570 C   0  0  0  0  0  3  0  0  0  0  0  0
  -18.5360  -28.4330   23.6700 C   0  0  0  0  0  3  0  0  0  0  0  0
  -17.4220  -27.8610   23.0200 C   0  0  0  0  0  3  0  0  0  0  0  0
  -17.6120  -26.9710   21.9510 C   0  0  0  0  0  3  0  0  0  0  0  0
  -26.3760  -30.8530   24.0820 C   0  0  0  0  0  3  0  0  0  0  0  0
  -26.7950  -29.7800   25.1600 C   0  0  1  0  0  0  0  0  0  0  0  0
  -25.6020  -29.2060   25.9600 C   0  0  0  0  0  1  0  0  0  0  0  0
  -27.5410  -28.5980   24.4970 C   0  0  0  0  0  1  0  0  0  0  0  0
  -27.7830  -30.4110   26.1680 C   0  0  0  0  0  1  0  0  0  0  0  0
  -26.0200  -32.1280   24.7230 N   0  0  0  0  0  0  0  0  0  0  0  0
  -26.4210  -33.3310   24.2940 C   0  0  0  0  0  0  0  0  0  0  0  0
  -27.2000  -33.4810   23.3480 O   0  0  0  0  0  0  0  0  0  0  0  0
  -25.3410  -32.0850   25.4680 H   0  0  0  0  0  0  0  0  0  0  0  0
  -24.7580  -35.2100   24.2090 C   0  0  0  0  0  1  0  0  0  0  0  0
  -25.8770  -34.5640   25.0390 C   0  0  0  0  0  3  0  0  0  0  0  0
  -27.9110  -35.0940   26.3060 C   0  0  0  0  0  1  0  0  0  0  0  0
  -26.9160  -35.5710   25.3490 N   0  0  0  0  0  0  0  0  0  0  0  0
  -26.4950  -36.4160   25.7250 H   0  0  0  0  0  0  0  0  0  0  0  0
  1  3  2  0
  2  1  1  0
  4  2  1  0
  5  6  2  0
  7  8  2  0
  7  9  1  0
  8  5  1  0
  9 16  1  0
  9 10  1  0
 10  2  1  0
 10  6  1  0
 11 12  1  1
 11  8  1  0
 13 11  1  0
 14 11  1  0
 16 15  1  0
 16 25  1  0
 17 25  1  0
 17 23  1  0
 18 23  1  0
 19 20  1  0
 19 18  1  0
 21 20  1  0
 21 30  1  0
 21 22  1  0
 23 22  1  0
 24 17  2  0
 25 26  1  0
 27 28  2  0
 28 29  1  0
 28 47  1  0
 29 32  1  0
 30 27  1  0
 30 31  1  0
 31 29  2  0
 32 33  1  0
 33 34  2  0
 35 38  1  0
 35 34  1  0
 36 35  2  0
 37 36  1  0
 37 32  2  0
 38 39  1  0
 39 40  1  0
 40 41  2  0
 42 41  1  0
 42 46  1  0
 43 42  2  0
 44 39  2  0
 44 43  1  0
 45 44  1  0
 47 48  1  0
 48 51  1  0
 48 50  1  0
 49 47  2  0
 52 27  1  0
 53 52  1  0
 54 52  1  0
 55 56  1  0
 55  1  1  0
 57 59  2  0
 58 57  1  0
 58 56  1  0
 60 58  1  0
 61 62  1  0
 61 57  1  0
 62 64  1  0
 63 74  2  0
 64 69  1  0
 65 75  1  0
 65 73  1  0
 66 72  1  0
 66 68  1  0
 67 73  1  0
 68 67  1  0
 69 68  2  0
 70 71  1  0
 70 64  2  0
 71 66  2  0
 72 65  1  0
 73 63  1  0
 75 77  2  0
 76 75  1  0
 78 76  1  0
 79 88  2  0
 79 84  1  0
 80 76  1  0
 80 84  1  0
 81 80  1  0
 82 83  1  0
 82 81  1  0
 83 79  1  0
 84 85  2  0
 85 86  1  0
 87 86  2  0
 88 87  1  0
 89 63  1  0
 89 94  1  0
 89 90  1  0
 90 91  1  1
 90 93  1  0
 92 90  1  0
 94 97  1  0
 95 94  1  0
 95 99  1  0
 96 95  2  0
 99 98  1  0
 99101  1  0
101102  1  0
101100  1  0
M  ISO  4  17 100  25 100  61 101  62 101
M  END
>  <TORSDO>  (19) 
F 23

>  <SCORE>  (19) 
-6.611

>  <name>  (19) 
18

>  <ligand_id>  (19) 
18

>  <original_smiles>  (19) 
[H]c1c([H])c([H])c2c(c1[H])C([H])([H])C([H])([H])C([H])([H])C2([H])N([H])C(=O)C1([H])N(C(=O)C([H])(N([H])C(=O)C([H])(N([H])C([H])([H])[H])C([H])([H])[H])C(C([H])([H])[H])(C([H])([H])[H])C([H])([H])[H])C([H])([H])c2c([H])c(OC([H])([H])C(=O)N([H])C([H])([H])C([H])([H])C(=O)N([H])c3c([H])c([H])c(C(F)(F)F)c([H])c3C([H])(N([H])C(=O)N3C([H])([H])C([H])([H])C([H])([H])C([H])(n4nc(-c5c([H])c([H])c(Oc6c([H])c([H])c(F)c([H])c6F)c([H])c5[H])c(C(=O)N([H])[H])c4N([H])[H])C3([H])[H])C([H])([H])[H])c([H])c([H])c2C1([H])[H]

>  <smiles>  (19) 
[H]c1c([H])c([H])c2c(c1[H])C([H])([H])C([H])([H])C([H])([H])C2([H])N([H])C(=O)C1([H])N(C(=O)C([H])(N([H])C(=O)C([H])(N([H])C([H])([H])[H])C([H])([H])[H])C(C([H])([H])[H])(C([H])([H])[H])C([H])([H])[H])C([H])([H])c2c([H])c(OC([H])([H])C(=O)N([H])C([H])([H])C([H])([H])C(=O)N([H])c3c([H])c([H])c(C(F)(F)F)c([H])c3C([H])(N([H])C(=O)N3C([H])([H])C([H])([H])C([H])([H])C([H])(n4nc(-c5c([H])c([H])c(Oc6c([H])c([H])c(F)c([H])c6F)c([H])c5[H])c(C(=O)N([H])[H])c4N([H])[H])C3([H])[H])C([H])([H])[H])c([H])c([H])c2C1([H])[H]

$$$$
19:0:0
     RDKit          3D

 95104  0  0  1  0  0  0  0  0999 V2000
  -29.0890  -22.5400   20.2520 C   0  0  0  0  0  2  0  0  0  0  0  0
  -30.2990  -21.5570   20.4460 C   0  0  0  0  0  0  0  0  0  0  0  0
  -29.2240  -18.4970   21.8470 C   0  0  0  0  0  2  0  0  0  0  0  0
  -29.2270  -18.0840   19.5350 C   0  0  0  0  0  2  0  0  0  0  0  0
  -31.2820  -19.3520   21.0970 C   0  0  0  0  0  2  0  0  0  0  0  0
  -30.6120  -17.9930   21.4500 C   0  0  0  0  0  3  0  0  0  0  0  0
  -29.0270  -19.2690   20.5470 C   0  0  0  0  0  3  0  0  0  0  0  0
  -30.3550  -17.1880   20.1500 C   0  0  0  0  0  3  0  0  0  0  0  0
  -30.1890  -20.1880   20.5560 N   0  0  0  0  0  0  0  0  0  0  0  0
  -31.4120  -22.0840   20.5530 O   0  0  0  0  0  0  0  0  0  0  0  0
  -30.7650  -14.6490   20.0050 C   0  0  0  0  0  0  0  0  0  0  0  0
  -30.4700  -12.4400   18.9260 C   0  0  0  0  0  2  0  0  0  0  0  0
  -29.4580  -12.6010   17.7730 C   0  0  0  0  0  2  0  0  0  0  0  0
  -28.0150  -12.4250   18.2870 C   0  0  0  0  0  2  0  0  0  0  0  0
  -27.7310  -13.2590   19.5660 C   0  0  0  0  0  3  0  0  0  0  0  0
  -28.8570  -13.0980   20.6110 C   0  0  0  0  0  2  0  0  0  0  0  0
  -30.1260  -13.4410   19.9550 N   0  0  0  0  0  0  0  0  0  0  0  0
  -31.9030  -14.7920   19.5510 O   0  0  0  0  0  0  0  0  0  0  0  0
  -30.0170  -15.7360   20.3630 N   0  0  0  0  0  0  0  0  0  0  0  0
  -29.0930  -15.5340   20.7110 H   0  0  0  0  0  0  0  0  0  0  0  0
  -25.3870  -13.8200   20.4580 C   0  0  0  0  0  0  0  0  0  0  0  0
  -24.3500  -13.0290   20.8740 C   0  0  0  0  0  0  0  0  0  0  0  0
  -24.8140  -11.6810   20.7710 C   0  0  0  0  0  0  0  0  0  0  0  0
  -26.4180  -12.9530   20.1290 N   0  0  0  0  0  0  0  0  0  0  0  0
  -26.0820  -11.6610   20.3760 N   0  0  0  0  0  0  0  0  0  0  0  0
  -24.1070  -10.4090   20.9690 C   0  0  0  0  0  0  0  0  0  0  0  0
  -24.5610   -9.4480   21.9000 C   0  0  0  0  0  3  0  0  0  0  0  0
  -23.8540   -8.2420   22.0870 C   0  0  0  0  0  3  0  0  0  0  0  0
  -22.6780   -7.9860   21.3430 C   0  0  0  0  0  0  0  0  0  0  0  0
  -22.2430   -8.9350   20.4010 C   0  0  0  0  0  3  0  0  0  0  0  0
  -22.9520  -10.1340   20.2120 C   0  0  0  0  0  3  0  0  0  0  0  0
  -21.9420   -6.8290   21.4380 O   0  0  0  0  0  0  0  0  0  0  0  0
  -21.8470   -6.1310   22.6150 C   0  0  0  0  0  0  0  0  0  0  0  0
  -21.3490   -6.7230   23.7950 C   0  0  0  0  0  3  0  0  0  0  0  0
  -21.2020   -5.9500   24.9640 C   0  0  0  0  0  3  0  0  0  0  0  0
  -21.5450   -4.5850   24.9540 C   0  0  0  0  0  0  0  0  0  0  0  0
  -22.0360   -3.9920   23.7770 C   0  0  0  0  0  3  0  0  0  0  0  0
  -22.1850   -4.7620   22.6110 C   0  0  0  0  0  0  0  0  0  0  0  0
  -22.6380   -4.1800   21.4740 F   0  0  0  0  0  0  0  0  0  0  0  0
  -21.3970   -3.8400   26.0740 F   0  0  0  0  0  0  0  0  0  0  0  0
  -22.9710  -13.4880   21.2500 C   0  0  0  0  0  0  0  0  0  0  0  0
  -22.3090  -12.7730   22.1520 N   0  0  0  0  0  0  0  0  0  0  0  0
  -22.4890  -14.5180   20.7770 O   0  0  0  0  0  0  0  0  0  0  0  0
  -22.7090  -11.9410   22.5590 H   0  0  0  0  0  0  0  0  0  0  0  0
  -21.3860  -13.0640   22.4430 H   0  0  0  0  0  0  0  0  0  0  0  0
  -25.5310  -15.1960   20.3090 N   0  0  0  0  0  0  0  0  0  0  0  0
  -24.7640  -15.8380   20.4780 H   0  0  0  0  0  0  0  0  0  0  0  0
  -26.3420  -15.6480   19.9090 H   0  0  0  0  0  0  0  0  0  0  0  0
  -29.3870  -24.1150   20.3990 C   0  0  0  0  0  3  0  0  0  0  0  0
  -29.8960  -24.4630   21.7470 N   0  0  0  0  0  4  0  0  0  0  0  0
  -29.2390  -24.2410   22.4760 H   0  0  0  0  0  0  0  0  0  0  0  0
  -30.0810  -25.4540   21.7940 H   0  0  0  0  0  0  0  0  0  0  0  0
  -30.7610  -23.9820   21.9330 H   0  0  0  0  0  0  0  0  0  0  0  0
  -28.1950  -25.0880   20.0380 C   0  0  0  0  0  2  0  0  0  0  0  0
  -28.4030  -26.5360   20.2340 O   0  0  0  0  0  0  0  0  0  0  0  0
  -24.6670  -31.8650   23.3030 C   0  0  0  0  0  0  0  0  0  0  0  0
  -27.2740  -27.3660   20.1860 C   0  0  0  0  0  0  0  0  0  0  0  0
  -23.4590  -30.4920   21.6440 C   0  0  0  0  0  3  0  0  0  0  0  0
  -24.9060  -28.9640   20.1980 C   0  0  0  0  0  0  0  0  0  0  0  0
  -25.9960  -30.8170   21.4620 C   0  0  0  0  0  2  0  0  0  0  0  0
  -26.0730  -29.4480   20.8000 C   0  0  0  0  0  0  0  0  0  0  0  0
  -27.2610  -28.6610   20.7840 C   0  0  0  0  0  3  0  0  0  0  0  0
  -26.0810  -26.9310   19.5600 C   0  0  0  0  0  3  0  0  0  0  0  0
  -24.9100  -27.7100   19.5700 C   0  0  0  0  0  3  0  0  0  0  0  0
  -23.6690  -29.8350   20.2560 C   0  0  0  0  0  2  0  0  0  0  0  0
  -24.7260  -31.0750   22.1930 N   0  0  0  0  0  0  0  0  0  0  0  0
  -23.5850  -32.1380   23.8420 O   0  0  0  0  0  0  0  0  0  0  0  0
  -22.7950  -29.4640   22.5900 C   0  0  0  0  0  0  0  0  0  0  0  0
  -21.4700  -29.2860   22.4550 N   0  0  0  0  0  0  0  0  0  0  0  0
  -23.4700  -28.8290   23.4040 O   0  0  0  0  0  0  0  0  0  0  0  0
  -20.9850  -29.8500   21.7720 H   0  0  0  0  0  0  0  0  0  0  0  0
  -18.0890  -28.0900   22.9270 C   0  0  0  0  0  0  0  0  0  0  0  0
  -20.6470  -28.3420   23.2120 C   0  0  0  0  0  3  0  0  0  0  0  0
  -20.7480  -26.9170   22.6220 C   0  0  0  0  0  2  0  0  0  0  0  0
  -19.6510  -26.6060   21.6000 C   0  0  0  0  0  2  0  0  0  0  0  0
  -18.2650  -26.7480   22.2390 C   0  0  0  0  0  2  0  0  0  0  0  0
  -19.2070  -28.8460   23.3700 C   0  0  0  0  0  0  0  0  0  0  0  0
  -18.9870  -30.1030   23.9720 C   0  0  0  0  0  3  0  0  0  0  0  0
  -17.6820  -30.6050   24.1380 C   0  0  0  0  0  3  0  0  0  0  0  0
  -16.5790  -29.8470   23.7120 C   0  0  0  0  0  3  0  0  0  0  0  0
  -16.7830  -28.5910   23.1120 C   0  0  0  0  0  3  0  0  0  0  0  0
  -25.9530  -32.4840   23.9340 C   0  0  0  0  0  3  0  0  0  0  0  0
  -26.4500  -31.7110   25.2170 C   0  0  1  0  0  0  0  0  0  0  0  0
  -25.3460  -31.4890   26.2770 C   0  0  0  0  0  1  0  0  0  0  0  0
  -27.0190  -30.3250   24.8330 C   0  0  0  0  0  1  0  0  0  0  0  0
  -27.6050  -32.4940   25.8850 C   0  0  0  0  0  1  0  0  0  0  0  0
  -25.6560  -33.8870   24.2580 N   0  0  0  0  0  0  0  0  0  0  0  0
  -25.9800  -34.9320   23.4850 C   0  0  0  0  0  0  0  0  0  0  0  0
  -26.6310  -34.8170   22.4430 O   0  0  0  0  0  0  0  0  0  0  0  0
  -25.0780  -34.0510   25.0690 H   0  0  0  0  0  0  0  0  0  0  0  0
  -24.2410  -36.7200   23.1650 C   0  0  0  0  0  1  0  0  0  0  0  0
  -25.5070  -36.3260   23.9410 C   0  0  0  0  0  3  0  0  0  0  0  0
  -27.6690  -37.2210   24.6870 C   0  0  0  0  0  1  0  0  0  0  0  0
  -26.5340  -37.3780   23.7810 N   0  0  0  0  0  0  0  0  0  0  0  0
  -26.1320  -38.2990   23.9330 H   0  0  0  0  0  0  0  0  0  0  0  0
  1 49  1  0
  1  2  1  0
  2 10  2  0
  2  9  1  0
  4  8  1  0
  6  5  1  0
  6  3  1  0
  7  4  1  0
  7  9  1  0
  7  3  1  0
  8 19  1  0
  8  6  1  0
  9  5  1  0
 11 19  1  0
 12 17  1  0
 13 14  1  0
 13 12  1  0
 15 14  1  0
 15 24  1  0
 15 16  1  0
 17 11  1  0
 17 16  1  0
 18 11  2  0
 19 20  1  0
 21 22  2  0
 22 41  1  0
 23 22  1  0
 23 26  1  0
 24 25  1  0
 24 21  1  0
 25 23  2  0
 26 27  1  0
 27 28  2  0
 29 32  1  0
 29 28  1  0
 30 29  2  0
 31 30  1  0
 31 26  2  0
 32 33  1  0
 33 34  1  0
 34 35  2  0
 36 35  1  0
 36 40  1  0
 37 36  2  0
 38 33  2  0
 38 37  1  0
 39 38  1  0
 41 42  1  0
 42 45  1  0
 42 44  1  0
 43 41  2  0
 46 21  1  0
 46 47  1  0
 48 46  1  0
 49 54  1  0
 49 50  1  0
 50 52  1  0
 50 53  1  0
 50 51  1  0
 54 55  1  0
 56 67  2  0
 57 55  1  0
 57 62  1  0
 58 66  1  0
 58 68  1  0
 59 65  1  0
 59 61  1  0
 60 66  1  0
 61 60  1  0
 62 61  2  0
 63 64  1  0
 63 57  2  0
 64 59  2  0
 65 58  1  0
 66 56  1  0
 68 70  2  0
 69 68  1  0
 71 69  1  0
 72 81  2  0
 72 77  1  0
 73 69  1  0
 73 77  1  0
 74 73  1  0
 75 76  1  0
 75 74  1  0
 76 72  1  0
 77 78  2  0
 78 79  1  0
 80 79  2  0
 81 80  1  0
 82 56  1  0
 82 87  1  0
 82 83  1  0
 83 86  1  1
 83 84  1  0
 85 83  1  0
 87 90  1  0
 88 92  1  0
 88 87  1  0
 89 88  2  0
 92 91  1  0
 94 95  1  0
 94 92  1  0
 94 93  1  0
M  ISO  4  11 100  19 100  54 101  55 101
M  END
>  <TORSDO>  (20) 
F 20

>  <SCORE>  (20) 
-12.883

>  <name>  (20) 
19

>  <ligand_id>  (20) 
19

>  <original_smiles>  (20) 
[H]c1c([H])c([H])c2c(c1[H])C([H])([H])C([H])([H])C([H])([H])C2([H])N([H])C(=O)C1([H])N(C(=O)C([H])(N([H])C(=O)C([H])(N([H])C([H])([H])[H])C([H])([H])[H])C(C([H])([H])[H])(C([H])([H])[H])C([H])([H])[H])C([H])([H])c2c([H])c(OC([H])([H])C([H])(C([H])([H])C(=O)N3C([H])([H])C4([H])C([H])([H])C3([H])C([H])([H])C4([H])N([H])C(=O)N3C([H])([H])C([H])([H])C([H])([H])C([H])(n4nc(-c5c([H])c([H])c(Oc6c([H])c([H])c(F)c([H])c6F)c([H])c5[H])c(C(=O)N([H])[H])c4N([H])[H])C3([H])[H])[N+]([H])([H])[H])c([H])c([H])c2C1([H])[H]

>  <smiles>  (20) 
[H]c1c([H])c([H])c2c(c1[H])C([H])([H])C([H])([H])C([H])([H])C2([H])N([H])C(=O)C1([H])N(C(=O)C([H])(N([H])C(=O)C([H])(N([H])C([H])([H])[H])C([H])([H])[H])C(C([H])([H])[H])(C([H])([H])[H])C([H])([H])[H])C([H])([H])c2c([H])c(OC([H])([H])C([H])(C([H])([H])C(=O)N3C([H])([H])C4([H])C([H])([H])C3([H])C([H])([H])C4([H])N([H])C(=O)N3C([H])([H])C([H])([H])C([H])([H])C([H])(n4nc(-c5c([H])c([H])c(Oc6c([H])c([H])c(F)c([H])c6F)c([H])c5[H])c(C(=O)N([H])[H])c4N([H])[H])C3([H])[H])[N+]([H])([H])[H])c([H])c([H])c2C1([H])[H]

$$$$
20:0:0
     RDKit          3D

 92100  0  0  1  0  0  0  0  0999 V2000
  -28.5690  -22.5820   19.8620 C   0  0  0  0  0  3  0  0  0  0  0  0
  -30.3800  -21.1210   21.2470 C   0  0  0  0  0  3  0  0  0  0  0  0
  -30.9050  -18.6500   21.2620 C   0  0  0  0  0  3  0  0  0  0  0  0
  -29.0090  -19.5320   20.0610 C   0  0  0  0  0  3  0  0  0  0  0  0
  -31.1700  -19.9990   21.6410 C   0  0  0  0  0  0  0  0  0  0  0  0
  -29.2450  -21.0320   20.4100 C   0  0  0  0  0  0  0  0  0  0  0  0
  -29.8080  -18.2580   20.4640 C   0  0  0  0  0  0  0  0  0  0  0  0
  -32.3800  -20.2510   22.5230 C   0  0  0  0  0  1  0  0  0  0  0  0
  -30.4040  -15.3710   20.2560 C   0  0  0  0  0  0  0  0  0  0  0  0
  -30.4130  -12.9140   19.3660 C   0  0  0  0  0  2  0  0  0  0  0  0
  -29.4890  -12.6590   18.1490 C   0  0  0  0  0  2  0  0  0  0  0  0
  -28.0490  -12.3650   18.6030 C   0  0  0  0  0  2  0  0  0  0  0  0
  -27.5860  -13.3330   19.7200 C   0  0  0  0  0  3  0  0  0  0  0  0
  -28.6390  -13.5210   20.8310 C   0  0  0  0  0  2  0  0  0  0  0  0
  -29.8460  -14.0580   20.1740 N   0  0  0  0  0  0  0  0  0  0  0  0
  -31.6350  -15.3600   20.0960 O   0  0  0  0  0  0  0  0  0  0  0  0
  -29.6180  -16.6490   20.2410 N   0  0  0  0  0  0  0  0  0  0  0  0
  -28.6470  -16.4190   20.0920 H   0  0  0  0  0  0  0  0  0  0  0  0
  -25.2150  -13.8630   20.4900 C   0  0  0  0  0  0  0  0  0  0  0  0
  -24.1640  -13.0760   20.8650 C   0  0  0  0  0  0  0  0  0  0  0  0
  -24.6460  -11.7310   20.8360 C   0  0  0  0  0  0  0  0  0  0  0  0
  -26.2670  -13.0000   20.2420 N   0  0  0  0  0  0  0  0  0  0  0  0
  -25.9380  -11.7110   20.5190 N   0  0  0  0  0  0  0  0  0  0  0  0
  -23.9320  -10.4610   21.0280 C   0  0  0  0  0  0  0  0  0  0  0  0
  -24.3740   -9.4980   21.9620 C   0  0  0  0  0  3  0  0  0  0  0  0
  -23.6560   -8.2960   22.1430 C   0  0  0  0  0  3  0  0  0  0  0  0
  -22.4820   -8.0490   21.3920 C   0  0  0  0  0  0  0  0  0  0  0  0
  -22.0590   -9.0010   20.4490 C   0  0  0  0  0  3  0  0  0  0  0  0
  -22.7780  -10.1940   20.2640 C   0  0  0  0  0  3  0  0  0  0  0  0
  -21.7360   -6.8980   21.4840 O   0  0  0  0  0  0  0  0  0  0  0  0
  -21.6950   -6.1580   22.6380 C   0  0  0  0  0  0  0  0  0  0  0  0
  -21.2580   -6.7090   23.8630 C   0  0  0  0  0  3  0  0  0  0  0  0
  -21.1640   -5.8940   25.0080 C   0  0  0  0  0  3  0  0  0  0  0  0
  -21.4970   -4.5280   24.9310 C   0  0  0  0  0  0  0  0  0  0  0  0
  -21.9270   -3.9760   23.7110 C   0  0  0  0  0  3  0  0  0  0  0  0
  -22.0220   -4.7880   22.5680 C   0  0  0  0  0  0  0  0  0  0  0  0
  -22.4160   -4.2460   21.3900 F   0  0  0  0  0  0  0  0  0  0  0  0
  -21.3990   -3.7430   26.0290 F   0  0  0  0  0  0  0  0  0  0  0  0
  -22.7620  -13.5380   21.1310 C   0  0  0  0  0  0  0  0  0  0  0  0
  -22.0410  -12.8390   21.9990 N   0  0  0  0  0  0  0  0  0  0  0  0
  -22.3160  -14.5580   20.6070 O   0  0  0  0  0  0  0  0  0  0  0  0
  -22.4140  -12.0140   22.4440 H   0  0  0  0  0  0  0  0  0  0  0  0
  -21.1010  -13.1330   22.2230 H   0  0  0  0  0  0  0  0  0  0  0  0
  -25.3580  -15.2360   20.3030 N   0  0  0  0  0  0  0  0  0  0  0  0
  -24.5740  -15.8730   20.3990 H   0  0  0  0  0  0  0  0  0  0  0  0
  -26.1800  -15.6780   19.9150 H   0  0  0  0  0  0  0  0  0  0  0  0
  -27.3730  -22.2240   19.0820 N   0  0  0  0  0  4  0  0  0  0  0  0
  -26.6370  -21.9130   19.6890 H   0  0  0  0  0  0  0  0  0  0  0  0
  -27.5860  -21.4910   18.4290 H   0  0  0  0  0  0  0  0  0  0  0  0
  -27.0420  -23.0160   18.5590 H   0  0  0  0  0  0  0  0  0  0  0  0
  -28.2220  -24.2180   20.6170 C   0  0  0  0  0  2  0  0  0  0  0  0
  -28.2530  -25.8450   20.2120 O   0  0  0  0  0  0  0  0  0  0  0  0
  -24.6190  -31.8450   23.2030 C   0  0  0  0  0  0  0  0  0  0  0  0
  -27.2060  -26.9240   20.2410 C   0  0  0  0  0  0  0  0  0  0  0  0
  -23.4410  -30.4390   21.5620 C   0  0  0  0  0  3  0  0  0  0  0  0
  -24.9020  -28.8190   20.1680 C   0  0  0  0  0  0  0  0  0  0  0  0
  -26.0110  -30.6450   21.4360 C   0  0  0  0  0  2  0  0  0  0  0  0
  -26.0890  -29.2270   20.7910 C   0  0  0  0  0  0  0  0  0  0  0  0
  -27.2360  -28.3050   20.7920 C   0  0  0  0  0  3  0  0  0  0  0  0
  -25.9840  -26.6720   19.5780 C   0  0  0  0  0  3  0  0  0  0  0  0
  -24.8760  -27.5620   19.5420 C   0  0  0  0  0  3  0  0  0  0  0  0
  -23.6840  -29.7460   20.1940 C   0  0  0  0  0  2  0  0  0  0  0  0
  -24.7130  -31.0040   22.1220 N   0  0  0  0  0  0  0  0  0  0  0  0
  -23.5250  -32.1360   23.7120 O   0  0  0  0  0  0  0  0  0  0  0  0
  -22.7380  -29.4500   22.5290 C   0  0  0  0  0  0  0  0  0  0  0  0
  -21.4070  -29.2960   22.4060 N   0  0  0  0  0  0  0  0  0  0  0  0
  -23.4000  -28.8190   23.3580 O   0  0  0  0  0  0  0  0  0  0  0  0
  -20.9240  -29.8550   21.7160 H   0  0  0  0  0  0  0  0  0  0  0  0
  -18.0150  -28.1170   22.9300 C   0  0  0  0  0  0  0  0  0  0  0  0
  -20.5780  -28.3630   23.1790 C   0  0  0  0  0  3  0  0  0  0  0  0
  -20.6640  -26.9330   22.5960 C   0  0  0  0  0  2  0  0  0  0  0  0
  -19.5540  -26.6230   21.5870 C   0  0  0  0  0  2  0  0  0  0  0  0
  -18.1770  -26.7740   22.2420 C   0  0  0  0  0  2  0  0  0  0  0  0
  -19.1420  -28.8710   23.3560 C   0  0  0  0  0  0  0  0  0  0  0  0
  -18.9330  -30.1280   23.9640 C   0  0  0  0  0  3  0  0  0  0  0  0
  -17.6310  -30.6310   24.1490 C   0  0  0  0  0  3  0  0  0  0  0  0
  -16.5200  -29.8760   23.7360 C   0  0  0  0  0  3  0  0  0  0  0  0
  -16.7120  -28.6210   23.1330 C   0  0  0  0  0  3  0  0  0  0  0  0
  -25.8820  -32.4950   23.8440 C   0  0  0  0  0  3  0  0  0  0  0  0
  -26.3770  -31.7400   25.1400 C   0  0  1  0  0  0  0  0  0  0  0  0
  -25.2660  -31.5160   26.1940 C   0  0  0  0  0  1  0  0  0  0  0  0
  -26.9650  -30.3570   24.7830 C   0  0  0  0  0  1  0  0  0  0  0  0
  -27.5170  -32.5410   25.8100 C   0  0  0  0  0  1  0  0  0  0  0  0
  -25.5560  -33.8950   24.1710 N   0  0  0  0  0  0  0  0  0  0  0  0
  -25.9000  -34.9570   23.4300 C   0  0  0  0  0  0  0  0  0  0  0  0
  -26.5830  -34.8600   22.4070 O   0  0  0  0  0  0  0  0  0  0  0  0
  -24.9470  -34.0420   24.9620 H   0  0  0  0  0  0  0  0  0  0  0  0
  -24.1830  -36.7660   23.0710 C   0  0  0  0  0  1  0  0  0  0  0  0
  -25.4130  -36.3460   23.8930 C   0  0  0  0  0  3  0  0  0  0  0  0
  -27.5300  -37.2300   24.7680 C   0  0  0  0  0  1  0  0  0  0  0  0
  -26.4520  -37.3940   23.7960 N   0  0  0  0  0  0  0  0  0  0  0  0
  -26.0490  -38.3190   23.9190 H   0  0  0  0  0  0  0  0  0  0  0  0
  1  6  1  0
  1 51  1  0
  2  5  1  0
  3  5  2  0
  4  6  1  0
  4  7  2  0
  5  8  1  0
  6  2  2  0
  7  3  1  0
 10 15  1  0
 11 12  1  0
 11 10  1  0
 13 12  1  0
 13 22  1  0
 13 14  1  0
 15  9  1  0
 15 14  1  0
 16  9  2  0
 17  9  1  0
 17  7  1  0
 18 17  1  0
 19 20  2  0
 20 39  1  0
 21 20  1  0
 21 24  1  0
 22 19  1  0
 22 23  1  0
 23 21  2  0
 24 25  1  0
 25 26  2  0
 27 30  1  0
 27 26  1  0
 28 27  2  0
 29 28  1  0
 29 24  2  0
 30 31  1  0
 31 32  1  0
 32 33  2  0
 34 33  1  0
 34 38  1  0
 35 34  2  0
 36 31  2  0
 36 35  1  0
 37 36  1  0
 39 40  1  0
 40 43  1  0
 40 42  1  0
 41 39  2  0
 44 45  1  0
 44 19  1  0
 46 44  1  0
 47 48  1  0
 47  1  1  0
 49 47  1  0
 50 47  1  0
 52 54  1  0
 52 51  1  0
 53 64  2  0
 54 59  1  0
 55 63  1  0
 55 65  1  0
 56 62  1  0
 56 58  1  0
 57 63  1  0
 58 59  2  0
 58 57  1  0
 60 54  2  0
 61 60  1  0
 61 56  2  0
 62 55  1  0
 63 53  1  0
 65 67  2  0
 66 65  1  0
 68 66  1  0
 69 78  2  0
 69 74  1  0
 70 66  1  0
 70 74  1  0
 71 70  1  0
 72 73  1  0
 72 71  1  0
 73 69  1  0
 74 75  2  0
 75 76  1  0
 77 76  2  0
 78 77  1  0
 79 53  1  0
 79 84  1  0
 79 80  1  0
 80 83  1  1
 80 81  1  0
 82 80  1  0
 84 87  1  0
 85 89  1  0
 85 84  1  0
 86 85  2  0
 89 88  1  0
 91 89  1  0
 91 92  1  0
 91 90  1  0
M  ISO  4   9 100  17 100  51 101  52 101
M  END
>  <TORSDO>  (21) 
F 19

>  <SCORE>  (21) 
-16.546

>  <name>  (21) 
20

>  <ligand_id>  (21) 
20

>  <original_smiles>  (21) 
[H]c1c([H])c([H])c2c(c1[H])C([H])([H])C([H])([H])C([H])([H])C2([H])N([H])C(=O)C1([H])N(C(=O)C([H])(N([H])C(=O)C([H])(N([H])C([H])([H])[H])C([H])([H])[H])C(C([H])([H])[H])(C([H])([H])[H])C([H])([H])[H])C([H])([H])c2c([H])c(OC([H])([H])C([H])(c3c([H])c(N([H])C(=O)N4C([H])([H])C([H])([H])C([H])([H])C([H])(n5nc(-c6c([H])c([H])c(Oc7c([H])c([H])c(F)c([H])c7F)c([H])c6[H])c(C(=O)N([H])[H])c5N([H])[H])C4([H])[H])c([H])c(C([H])([H])[H])c3[H])[N+]([H])([H])[H])c([H])c([H])c2C1([H])[H]

>  <smiles>  (21) 
[H]c1c([H])c([H])c2c(c1[H])C([H])([H])C([H])([H])C([H])([H])C2([H])N([H])C(=O)C1([H])N(C(=O)C([H])(N([H])C(=O)C([H])(N([H])C([H])([H])[H])C([H])([H])[H])C(C([H])([H])[H])(C([H])([H])[H])C([H])([H])[H])C([H])([H])c2c([H])c(OC([H])([H])C([H])(c3c([H])c(N([H])C(=O)N4C([H])([H])C([H])([H])C([H])([H])C([H])(n5nc(-c6c([H])c([H])c(Oc7c([H])c([H])c(F)c([H])c7F)c([H])c6[H])c(C(=O)N([H])[H])c5N([H])[H])C4([H])[H])c([H])c(C([H])([H])[H])c3[H])[N+]([H])([H])[H])c([H])c([H])c2C1([H])[H]

$$$$
21:0:0
     RDKit          3D

104113  0  0  1  0  0  0  0  0999 V2000
  -30.0110  -20.8150   20.2200 C   0  0  0  0  0  0  0  0  0  0  0  0
  -29.5120  -19.8690   19.3950 N   0  0  0  0  0  0  0  0  0  0  0  0
  -30.6700  -20.5130   21.2190 O   0  0  0  0  0  0  0  0  0  0  0  0
  -28.7610  -20.2560   18.8380 H   0  0  0  0  0  0  0  0  0  0  0  0
  -31.9860  -17.3910   16.9420 C   0  0  0  0  0  3  0  0  0  0  0  0
  -31.6290  -16.9460   18.2210 C   0  0  0  0  0  3  0  0  0  0  0  0
  -30.6580  -19.4060   17.2770 C   0  0  0  0  0  0  0  0  0  0  0  0
  -31.5120  -18.6190   16.4610 C   0  0  0  0  0  0  0  0  0  0  0  0
  -30.8140  -17.7120   19.0880 C   0  0  0  0  0  0  0  0  0  0  0  0
  -30.3440  -18.9890   18.6160 C   0  0  0  0  0  0  0  0  0  0  0  0
  -31.9350  -19.0550   15.0610 C   0  0  0  0  0  1  0  0  0  0  0  0
  -30.0910  -20.6770   16.6990 C   0  0  0  0  0  0  0  0  0  0  0  0
  -28.7970  -20.6430   16.4160 N   0  0  0  0  0  0  0  0  0  0  0  0
  -30.7810  -21.6820   16.5360 O   0  0  0  0  0  0  0  0  0  0  0  0
  -28.2870  -19.7780   16.5180 H   0  0  0  0  0  0  0  0  0  0  0  0
  -28.3440  -21.4320   15.9760 H   0  0  0  0  0  0  0  0  0  0  0  0
  -30.5190  -17.1450   20.5000 C   0  0  0  0  0  2  0  0  0  0  0  0
  -30.9890  -14.6120   20.6080 C   0  0  0  0  0  0  0  0  0  0  0  0
  -30.7380  -12.4200   19.5300 C   0  0  0  0  0  2  0  0  0  0  0  0
  -29.8430  -12.6040   18.2860 C   0  0  0  0  0  2  0  0  0  0  0  0
  -28.3500  -12.4880   18.6630 C   0  0  0  0  0  2  0  0  0  0  0  0
  -27.9690  -13.3510   19.8970 C   0  0  0  0  0  3  0  0  0  0  0  0
  -28.9840  -13.1540   21.0450 C   0  0  0  0  0  2  0  0  0  0  0  0
  -30.3260  -13.4300   20.5120 N   0  0  0  0  0  0  0  0  0  0  0  0
  -32.2010  -14.7160   20.4120 O   0  0  0  0  0  0  0  0  0  0  0  0
  -30.1870  -15.7000   20.6250 N   0  0  0  0  0  0  0  0  0  0  0  0
  -29.2060  -15.4910   20.7210 H   0  0  0  0  0  0  0  0  0  0  0  0
  -25.5560  -13.9940   20.4980 C   0  0  0  0  0  0  0  0  0  0  0  0
  -24.4620  -13.2380   20.8350 C   0  0  0  0  0  0  0  0  0  0  0  0
  -24.9110  -11.8830   20.8530 C   0  0  0  0  0  0  0  0  0  0  0  0
  -26.5980  -13.0960   20.3300 N   0  0  0  0  0  0  0  0  0  0  0  0
  -26.2130  -11.8240   20.6050 N   0  0  0  0  0  0  0  0  0  0  0  0
  -24.1650  -10.6300   21.0340 C   0  0  0  0  0  0  0  0  0  0  0  0
  -24.5450   -9.6780   22.0040 C   0  0  0  0  0  3  0  0  0  0  0  0
  -23.8030   -8.4880   22.1710 C   0  0  0  0  0  3  0  0  0  0  0  0
  -22.6650   -8.2430   21.3660 C   0  0  0  0  0  0  0  0  0  0  0  0
  -22.3030   -9.1830   20.3850 C   0  0  0  0  0  3  0  0  0  0  0  0
  -23.0480  -10.3640   20.2170 C   0  0  0  0  0  3  0  0  0  0  0  0
  -21.8980   -7.1060   21.4430 O   0  0  0  0  0  0  0  0  0  0  0  0
  -21.7880   -6.3900   22.6080 C   0  0  0  0  0  0  0  0  0  0  0  0
  -21.2980   -6.9710   23.7980 C   0  0  0  0  0  3  0  0  0  0  0  0
  -21.1360   -6.1820   24.9550 C   0  0  0  0  0  3  0  0  0  0  0  0
  -21.4520   -4.8090   24.9210 C   0  0  0  0  0  0  0  0  0  0  0  0
  -21.9320   -4.2270   23.7350 C   0  0  0  0  0  3  0  0  0  0  0  0
  -22.0970   -5.0150   22.5830 C   0  0  0  0  0  0  0  0  0  0  0  0
  -22.5420   -4.4440   21.4370 F   0  0  0  0  0  0  0  0  0  0  0  0
  -21.2880   -4.0480   26.0280 F   0  0  0  0  0  0  0  0  0  0  0  0
  -23.0590  -13.7310   21.0300 C   0  0  0  0  0  0  0  0  0  0  0  0
  -22.2860  -13.0590   21.8770 N   0  0  0  0  0  0  0  0  0  0  0  0
  -22.6530  -14.7460   20.4660 O   0  0  0  0  0  0  0  0  0  0  0  0
  -22.6250  -12.2390   22.3580 H   0  0  0  0  0  0  0  0  0  0  0  0
  -21.3400  -13.3680   22.0470 H   0  0  0  0  0  0  0  0  0  0  0  0
  -25.7450  -15.3570   20.2950 N   0  0  0  0  0  0  0  0  0  0  0  0
  -24.9780  -16.0210   20.3320 H   0  0  0  0  0  0  0  0  0  0  0  0
  -26.5960  -15.7630   19.9250 H   0  0  0  0  0  0  0  0  0  0  0  0
  -31.0740  -23.1100   19.8360 C   0  0  0  0  0  2  0  0  0  0  0  0
  -30.6560  -23.7530   21.1540 C   0  0  0  0  0  2  0  0  0  0  0  0
  -29.7580  -22.3190   19.8620 C   0  0  0  0  0  3  0  0  0  0  0  0
  -29.3140  -23.1840   20.9800 N   0  0  2  0  0  4  0  0  0  0  0  0
  -29.1130  -22.5900   21.7730 H   0  0  0  0  0  0  0  0  0  0  0  0
  -26.8270  -23.5040   20.7140 C   0  0  0  0  0  1  0  0  0  0  0  0
  -28.2020  -24.1950   20.7870 C   0  0  0  0  0  3  0  0  0  0  0  0
  -28.3750  -25.2550   19.6400 C   0  0  0  0  0  2  0  0  0  0  0  0
  -28.2680  -26.6260   20.0930 O   0  0  0  0  0  0  0  0  0  0  0  0
  -24.5130  -31.8160   23.2160 C   0  0  0  0  0  0  0  0  0  0  0  0
  -27.0730  -27.3310   20.0890 C   0  0  0  0  0  0  0  0  0  0  0  0
  -23.2720  -30.4350   21.5810 C   0  0  0  0  0  3  0  0  0  0  0  0
  -24.6920  -28.8820   20.1340 C   0  0  0  0  0  0  0  0  0  0  0  0
  -25.8010  -30.7610   21.3550 C   0  0  0  0  0  2  0  0  0  0  0  0
  -25.8620  -29.3860   20.7130 C   0  0  0  0  0  0  0  0  0  0  0  0
  -27.0490  -28.6160   20.6880 C   0  0  0  0  0  3  0  0  0  0  0  0
  -25.8810  -26.8510   19.5000 C   0  0  0  0  0  3  0  0  0  0  0  0
  -24.6980  -27.6160   19.5260 C   0  0  0  0  0  3  0  0  0  0  0  0
  -23.4560  -29.7520   20.1990 C   0  0  0  0  0  2  0  0  0  0  0  0
  -24.5490  -31.0190   22.1080 N   0  0  0  0  0  0  0  0  0  0  0  0
  -23.4410  -32.1000   23.7680 O   0  0  0  0  0  0  0  0  0  0  0  0
  -22.6180  -29.4200   22.5460 C   0  0  0  0  0  0  0  0  0  0  0  0
  -21.2900  -29.2530   22.4310 N   0  0  0  0  0  0  0  0  0  0  0  0
  -23.3010  -28.7840   23.3530 O   0  0  0  0  0  0  0  0  0  0  0  0
  -20.8000  -29.8240   21.7570 H   0  0  0  0  0  0  0  0  0  0  0  0
  -17.9080  -28.0910   22.9470 C   0  0  0  0  0  0  0  0  0  0  0  0
  -20.4700  -28.3190   23.2020 C   0  0  0  0  0  3  0  0  0  0  0  0
  -20.5510  -26.8900   22.6170 C   0  0  0  0  0  2  0  0  0  0  0  0
  -19.4370  -26.5850   21.6090 C   0  0  0  0  0  2  0  0  0  0  0  0
  -18.0630  -26.7430   22.2650 C   0  0  0  0  0  2  0  0  0  0  0  0
  -19.0370  -28.8380   23.3730 C   0  0  0  0  0  0  0  0  0  0  0  0
  -18.8370  -30.1030   23.9680 C   0  0  0  0  0  3  0  0  0  0  0  0
  -17.5390  -30.6170   24.1460 C   0  0  0  0  0  3  0  0  0  0  0  0
  -16.4230  -29.8650   23.7380 C   0  0  0  0  0  3  0  0  0  0  0  0
  -16.6090  -28.6040   23.1440 C   0  0  0  0  0  3  0  0  0  0  0  0
  -25.8120  -32.4280   23.8270 C   0  0  0  0  0  3  0  0  0  0  0  0
  -25.5280  -33.8310   24.1630 N   0  0  0  0  0  0  0  0  0  0  0  0
  -25.8820  -34.8800   23.4120 C   0  0  0  0  0  0  0  0  0  0  0  0
  -26.5550  -34.7710   22.3820 O   0  0  0  0  0  0  0  0  0  0  0  0
  -24.9350  -33.9910   24.9630 H   0  0  0  0  0  0  0  0  0  0  0  0
  -24.1980  -36.7130   23.0440 C   0  0  0  0  0  1  0  0  0  0  0  0
  -25.4160  -36.2750   23.8730 C   0  0  0  0  0  3  0  0  0  0  0  0
  -27.5520  -37.1070   24.7520 C   0  0  0  0  0  1  0  0  0  0  0  0
  -26.4730  -37.3060   23.7890 N   0  0  0  0  0  0  0  0  0  0  0  0
  -26.0840  -38.2340   23.9350 H   0  0  0  0  0  0  0  0  0  0  0  0
  -26.3320  -31.6500   25.0980 C   0  0  1  0  0  0  0  0  0  0  0  0
  -25.2460  -31.4250   26.1770 C   0  0  0  0  0  1  0  0  0  0  0  0
  -26.8920  -30.2660   24.6930 C   0  0  0  0  0  1  0  0  0  0  0  0
  -27.4990  -32.4300   25.7500 C   0  0  0  0  0  1  0  0  0  0  0  0
  1  3  2  0
  2  1  1  0
  4  2  1  0
  5  6  1  0
  6  9  2  0
  7 10  2  0
  8  5  2  0
  8  7  1  0
  9 17  1  0
 10  9  1  0
 10  2  1  0
 11  8  1  0
 12  7  1  0
 13 15  1  0
 13 12  1  0
 14 12  2  0
 16 13  1  0
 17 26  1  0
 18 26  1  0
 19 24  1  0
 20 21  1  0
 20 19  1  0
 22 21  1  0
 22 31  1  0
 22 23  1  0
 24 18  1  0
 24 23  1  0
 25 18  2  0
 26 27  1  0
 28 29  2  0
 29 30  1  0
 29 48  1  0
 30 33  1  0
 31 28  1  0
 31 32  1  0
 32 30  2  0
 33 34  1  0
 34 35  2  0
 36 39  1  0
 36 35  1  0
 37 36  2  0
 38 37  1  0
 38 33  2  0
 39 40  1  0
 40 41  1  0
 41 42  2  0
 43 42  1  0
 43 47  1  0
 44 43  2  0
 45 40  2  0
 45 44  1  0
 46 45  1  0
 48 49  1  0
 49 52  1  0
 49 51  1  0
 50 48  2  0
 53 54  1  0
 53 28  1  0
 55 53  1  0
 56 58  1  0
 56 57  1  0
 58  1  1  0
 58 59  1  0
 59 57  1  0
 59 60  1  1
 62 61  1  0
 62 59  1  0
 63 64  1  0
 63 62  1  0
 65 76  2  0
 66 64  1  0
 66 71  1  0
 67 75  1  0
 67 77  1  0
 68 74  1  0
 68 70  1  0
 69 75  1  0
 70 69  1  0
 71 70  2  0
 72 73  1  0
 72 66  2  0
 73 68  2  0
 74 67  1  0
 75 65  1  0
 77 79  2  0
 78 77  1  0
 80 78  1  0
 81 90  2  0
 81 86  1  0
 82 78  1  0
 82 86  1  0
 83 82  1  0
 84 85  1  0
 84 83  1  0
 85 81  1  0
 86 87  2  0
 87 88  1  0
 89 88  2  0
 90 89  1  0
 91 65  1  0
 91 92  1  0
 91101  1  0
 92 95  1  0
 93 97  1  0
 93 92  1  0
 94 93  2  0
 97 96  1  0
 99 97  1  0
 99100  1  0
 99 98  1  0
101104  1  1
101102  1  0
103101  1  0
M  ISO  4  18 100  26 100  63 101  64 101
M  END
>  <TORSDO>  (22) 
F 22

>  <SCORE>  (22) 
-13.294

>  <name>  (22) 
21

>  <ligand_id>  (22) 
21

>  <original_smiles>  (22) 
[H]c1c([H])c([H])c2c(c1[H])C([H])([H])C([H])([H])C([H])([H])C2([H])N([H])C(=O)C1([H])N(C(=O)C([H])(N([H])C(=O)C([H])(N([H])C([H])([H])[H])C([H])([H])[H])C(C([H])([H])[H])(C([H])([H])[H])C([H])([H])[H])C([H])([H])c2c([H])c(OC([H])([H])C([H])(C([H])([H])[H])[N+]3([H])C([H])([H])C([H])([H])C3([H])C(=O)N([H])c3c(C(=O)N([H])[H])c(C([H])([H])[H])c([H])c([H])c3C([H])([H])N([H])C(=O)N3C([H])([H])C([H])([H])C([H])([H])C([H])(n4nc(-c5c([H])c([H])c(Oc6c([H])c([H])c(F)c([H])c6F)c([H])c5[H])c(C(=O)N([H])[H])c4N([H])[H])C3([H])[H])c([H])c([H])c2C1([H])[H]

>  <smiles>  (22) 
[H]c1c([H])c([H])c2c(c1[H])C([H])([H])C([H])([H])C([H])([H])C2([H])N([H])C(=O)C1([H])N(C(=O)C([H])(N([H])C(=O)C([H])(N([H])C([H])([H])[H])C([H])([H])[H])C(C([H])([H])[H])(C([H])([H])[H])C([H])([H])[H])C([H])([H])c2c([H])c(OC([H])([H])C([H])(C([H])([H])[H])[N+]3([H])C([H])([H])C([H])([H])C3([H])C(=O)N([H])c3c(C(=O)N([H])[H])c(C([H])([H])[H])c([H])c([H])c3C([H])([H])N([H])C(=O)N3C([H])([H])C([H])([H])C([H])([H])C([H])(n4nc(-c5c([H])c([H])c(Oc6c([H])c([H])c(F)c([H])c6F)c([H])c5[H])c(C(=O)N([H])[H])c4N([H])[H])C3([H])[H])c([H])c([H])c2C1([H])[H]

$$$$
22:0:0
     RDKit          3D

 88 97  0  0  1  0  0  0  0  0999 V2000
  -28.6650  -22.9590   20.6460 C   0  0  0  0  0  0  0  0  0  0  0  0
  -28.5800  -18.8290   19.3170 C   0  0  0  0  0  2  0  0  0  0  0  0
  -30.3640  -20.9280   20.5440 C   0  0  0  0  0  2  0  0  0  0  0  0
  -29.7600  -19.4880   20.8940 C   0  0  0  0  0  3  0  0  0  0  0  0
  -28.4940  -20.1430   20.2520 C   0  0  0  0  0  3  0  0  0  0  0  0
  -29.8420  -18.0940   19.9660 C   0  0  0  0  0  3  0  0  0  0  0  0
  -29.0930  -21.5790   20.0720 N   0  0  0  0  0  0  0  0  0  0  0  0
  -28.8280  -23.0880   21.8630 O   0  0  0  0  0  0  0  0  0  0  0  0
  -30.4530  -15.2470   20.1870 C   0  0  0  0  0  0  0  0  0  0  0  0
  -30.3870  -12.8260   19.2970 C   0  0  0  0  0  2  0  0  0  0  0  0
  -29.4460  -12.6820   18.0750 C   0  0  0  0  0  2  0  0  0  0  0  0
  -28.0010  -12.4210   18.5350 C   0  0  0  0  0  2  0  0  0  0  0  0
  -27.5810  -13.3620   19.6930 C   0  0  0  0  0  3  0  0  0  0  0  0
  -28.6490  -13.4670   20.8040 C   0  0  0  0  0  2  0  0  0  0  0  0
  -29.8830  -13.9490   20.1670 N   0  0  0  0  0  0  0  0  0  0  0  0
  -31.6470  -15.2700   19.8570 O   0  0  0  0  0  0  0  0  0  0  0  0
  -29.6940  -16.4940   20.3760 N   0  0  0  0  0  0  0  0  0  0  0  0
  -28.7650  -16.2810   20.7100 H   0  0  0  0  0  0  0  0  0  0  0  0
  -25.2180  -13.9120   20.4820 C   0  0  0  0  0  0  0  0  0  0  0  0
  -24.1650  -13.1300   20.8690 C   0  0  0  0  0  0  0  0  0  0  0  0
  -24.6360  -11.7810   20.8250 C   0  0  0  0  0  0  0  0  0  0  0  0
  -26.2600  -13.0410   20.2180 N   0  0  0  0  0  0  0  0  0  0  0  0
  -25.9230  -11.7530   20.4920 N   0  0  0  0  0  0  0  0  0  0  0  0
  -23.9170  -10.5160   21.0230 C   0  0  0  0  0  0  0  0  0  0  0  0
  -24.3650   -9.5450   21.9470 C   0  0  0  0  0  3  0  0  0  0  0  0
  -23.6430   -8.3470   22.1340 C   0  0  0  0  0  3  0  0  0  0  0  0
  -22.4580   -8.1090   21.3970 C   0  0  0  0  0  0  0  0  0  0  0  0
  -22.0280   -9.0680   20.4630 C   0  0  0  0  0  3  0  0  0  0  0  0
  -22.7520  -10.2580   20.2740 C   0  0  0  0  0  3  0  0  0  0  0  0
  -21.7050   -6.9640   21.4940 O   0  0  0  0  0  0  0  0  0  0  0  0
  -21.6740   -6.2200   22.6470 C   0  0  0  0  0  0  0  0  0  0  0  0
  -21.2580   -6.7700   23.8780 C   0  0  0  0  0  3  0  0  0  0  0  0
  -21.1730   -5.9510   25.0220 C   0  0  0  0  0  3  0  0  0  0  0  0
  -21.4940   -4.5830   24.9360 C   0  0  0  0  0  0  0  0  0  0  0  0
  -21.9040   -4.0330   23.7090 C   0  0  0  0  0  3  0  0  0  0  0  0
  -21.9900   -4.8480   22.5670 C   0  0  0  0  0  0  0  0  0  0  0  0
  -22.3650   -4.3070   21.3830 F   0  0  0  0  0  0  0  0  0  0  0  0
  -21.4070   -3.7960   26.0330 F   0  0  0  0  0  0  0  0  0  0  0  0
  -22.7710  -13.6020   21.1610 C   0  0  0  0  0  0  0  0  0  0  0  0
  -22.0570  -12.9040   22.0360 N   0  0  0  0  0  0  0  0  0  0  0  0
  -22.3250  -14.6260   20.6470 O   0  0  0  0  0  0  0  0  0  0  0  0
  -22.4320  -12.0750   22.4740 H   0  0  0  0  0  0  0  0  0  0  0  0
  -21.1220  -13.2040   22.2740 H   0  0  0  0  0  0  0  0  0  0  0  0
  -25.3710  -15.2830   20.3030 N   0  0  0  0  0  0  0  0  0  0  0  0
  -24.5950  -15.9290   20.4110 H   0  0  0  0  0  0  0  0  0  0  0  0
  -26.1960  -15.7200   19.9130 H   0  0  0  0  0  0  0  0  0  0  0  0
  -28.0730  -24.3850   19.8610 C   0  0  0  0  0  2  0  0  0  0  0  0
  -28.1950  -25.9400   20.3460 O   0  0  0  0  0  0  0  0  0  0  0  0
  -24.6370  -31.8790   23.2350 C   0  0  0  0  0  0  0  0  0  0  0  0
  -27.1880  -27.0220   20.2280 C   0  0  0  0  0  0  0  0  0  0  0  0
  -23.4400  -30.4820   21.6000 C   0  0  0  0  0  3  0  0  0  0  0  0
  -24.8860  -28.8800   20.1760 C   0  0  0  0  0  0  0  0  0  0  0  0
  -26.0030  -30.6980   21.4520 C   0  0  0  0  0  2  0  0  0  0  0  0
  -26.0700  -29.2910   20.7990 C   0  0  0  0  0  0  0  0  0  0  0  0
  -27.2130  -28.3790   20.8080 C   0  0  0  0  0  3  0  0  0  0  0  0
  -25.9800  -26.7630   19.5400 C   0  0  0  0  0  3  0  0  0  0  0  0
  -24.8640  -27.6350   19.5260 C   0  0  0  0  0  3  0  0  0  0  0  0
  -23.6660  -29.7960   20.2240 C   0  0  0  0  0  2  0  0  0  0  0  0
  -24.7140  -31.0460   22.1480 N   0  0  0  0  0  0  0  0  0  0  0  0
  -23.5490  -32.1720   23.7570 O   0  0  0  0  0  0  0  0  0  0  0  0
  -22.7480  -29.4870   22.5680 C   0  0  0  0  0  0  0  0  0  0  0  0
  -21.4170  -29.3240   22.4450 N   0  0  0  0  0  0  0  0  0  0  0  0
  -23.4150  -28.8630   23.3970 O   0  0  0  0  0  0  0  0  0  0  0  0
  -20.9330  -29.8780   21.7510 H   0  0  0  0  0  0  0  0  0  0  0  0
  -18.0340  -28.1240   22.9600 C   0  0  0  0  0  0  0  0  0  0  0  0
  -20.5940  -28.3910   23.2200 C   0  0  0  0  0  3  0  0  0  0  0  0
  -20.6950  -26.9570   22.6520 C   0  0  0  0  0  2  0  0  0  0  0  0
  -19.5930  -26.6290   21.6400 C   0  0  0  0  0  2  0  0  0  0  0  0
  -18.2120  -26.7740   22.2850 C   0  0  0  0  0  2  0  0  0  0  0  0
  -19.1520  -28.8900   23.3850 C   0  0  0  0  0  0  0  0  0  0  0  0
  -18.9300  -30.1510   23.9780 C   0  0  0  0  0  3  0  0  0  0  0  0
  -17.6250  -30.6480   24.1490 C   0  0  0  0  0  3  0  0  0  0  0  0
  -16.5220  -29.8800   23.7380 C   0  0  0  0  0  3  0  0  0  0  0  0
  -16.7270  -28.6200   23.1490 C   0  0  0  0  0  3  0  0  0  0  0  0
  -25.9120  -32.5210   23.8640 C   0  0  0  0  0  3  0  0  0  0  0  0
  -25.5970  -33.9230   24.1900 N   0  0  0  0  0  0  0  0  0  0  0  0
  -25.9260  -34.9800   23.4360 C   0  0  0  0  0  0  0  0  0  0  0  0
  -26.5880  -34.8770   22.4010 O   0  0  0  0  0  0  0  0  0  0  0  0
  -25.0080  -34.0750   24.9950 H   0  0  0  0  0  0  0  0  0  0  0  0
  -24.1940  -36.7790   23.1100 C   0  0  0  0  0  1  0  0  0  0  0  0
  -25.4470  -36.3700   23.9020 C   0  0  0  0  0  3  0  0  0  0  0  0
  -27.5910  -37.2590   24.7040 C   0  0  0  0  0  1  0  0  0  0  0  0
  -26.4780  -37.4240   23.7730 N   0  0  0  0  0  0  0  0  0  0  0  0
  -26.0740  -38.3450   23.9210 H   0  0  0  0  0  0  0  0  0  0  0  0
  -26.4150  -31.7620   25.1530 C   0  0  1  0  0  0  0  0  0  0  0  0
  -25.3140  -31.5400   26.2170 C   0  0  0  0  0  1  0  0  0  0  0  0
  -26.9960  -30.3760   24.7900 C   0  0  0  0  0  1  0  0  0  0  0  0
  -27.5640  -32.5590   25.8150 C   0  0  0  0  0  1  0  0  0  0  0  0
  1  8  2  0
  2  6  1  0
  4  3  1  0
  5  2  1  0
  5  4  1  0
  6 17  1  0
  6  4  1  0
  7  5  1  0
  7  3  1  0
  7  1  1  0
  9 17  1  0
 10 15  1  0
 11 12  1  0
 11 10  1  0
 13 12  1  0
 13 22  1  0
 13 14  1  0
 15  9  1  0
 15 14  1  0
 16  9  2  0
 17 18  1  0
 19 20  2  0
 20 39  1  0
 21 20  1  0
 21 24  1  0
 22 19  1  0
 22 23  1  0
 23 21  2  0
 24 25  1  0
 25 26  2  0
 27 30  1  0
 27 26  1  0
 28 27  2  0
 29 28  1  0
 29 24  2  0
 30 31  1  0
 31 32  1  0
 32 33  2  0
 34 33  1  0
 34 38  1  0
 35 34  2  0
 36 31  2  0
 36 35  1  0
 37 36  1  0
 39 40  1  0
 40 43  1  0
 40 42  1  0
 41 39  2  0
 44 45  1  0
 44 19  1  0
 46 44  1  0
 47 48  1  0
 47  1  1  0
 49 60  2  0
 50 48  1  0
 50 55  1  0
 51 59  1  0
 51 61  1  0
 52 58  1  0
 52 54  1  0
 53 59  1  0
 54 55  2  0
 54 53  1  0
 56 50  2  0
 57 56  1  0
 57 52  2  0
 58 51  1  0
 59 49  1  0
 61 63  2  0
 62 61  1  0
 64 62  1  0
 65 74  2  0
 65 70  1  0
 66 62  1  0
 66 70  1  0
 67 66  1  0
 68 69  1  0
 68 67  1  0
 69 65  1  0
 70 71  2  0
 71 72  1  0
 73 72  2  0
 74 73  1  0
 75 49  1  0
 75 76  1  0
 75 85  1  0
 76 79  1  0
 77 81  1  0
 77 76  1  0
 78 77  2  0
 81 80  1  0
 83 81  1  0
 83 84  1  0
 83 82  1  0
 85 88  1  1
 85 86  1  0
 87 85  1  0
M  ISO  4   9 100  17 100  47 101  48 101
M  END
>  <TORSDO>  (23) 
F 17

>  <SCORE>  (23) 
-15.752

>  <name>  (23) 
22

>  <ligand_id>  (23) 
22

>  <original_smiles>  (23) 
[H]c1c([H])c([H])c2c(c1[H])C([H])([H])C([H])([H])C([H])([H])C2([H])N([H])C(=O)C1([H])N(C(=O)C([H])(N([H])C(=O)C([H])(N([H])C([H])([H])[H])C([H])([H])[H])C(C([H])([H])[H])(C([H])([H])[H])C([H])([H])[H])C([H])([H])c2c([H])c(OC([H])([H])C(=O)N3C([H])([H])C4([H])C([H])(N([H])C(=O)N5C([H])([H])C([H])([H])C([H])([H])C([H])(n6nc(-c7c([H])c([H])c(Oc8c([H])c([H])c(F)c([H])c8F)c([H])c7[H])c(C(=O)N([H])[H])c6N([H])[H])C5([H])[H])C([H])([H])C34[H])c([H])c([H])c2C1([H])[H]

>  <smiles>  (23) 
[H]c1c([H])c([H])c2c(c1[H])C([H])([H])C([H])([H])C([H])([H])C2([H])N([H])C(=O)C1([H])N(C(=O)C([H])(N([H])C(=O)C([H])(N([H])C([H])([H])[H])C([H])([H])[H])C(C([H])([H])[H])(C([H])([H])[H])C([H])([H])[H])C([H])([H])c2c([H])c(OC([H])([H])C(=O)N3C([H])([H])C4([H])C([H])(N([H])C(=O)N5C([H])([H])C([H])([H])C([H])([H])C([H])(n6nc(-c7c([H])c([H])c(Oc8c([H])c([H])c(F)c([H])c8F)c([H])c7[H])c(C(=O)N([H])[H])c6N([H])[H])C5([H])[H])C([H])([H])C34[H])c([H])c([H])c2C1([H])[H]

$$$$
23:0:0
     RDKit          3D

 94102  0  0  1  0  0  0  0  0999 V2000
  -29.6900  -21.5340   19.5110 C   0  0  0  0  0  0  0  0  0  0  0  0
  -29.2120  -22.5560   20.2960 N   0  0  0  0  0  0  0  0  0  0  0  0
  -30.1360  -21.7940   18.3900 O   0  0  0  0  0  0  0  0  0  0  0  0
  -28.8230  -22.2970   21.1940 H   0  0  0  0  0  0  0  0  0  0  0  0
  -29.3610  -19.0420   18.9570 C   0  0  0  0  0  3  0  0  0  0  0  0
  -30.2320  -18.1380   21.4380 C   0  0  0  0  0  3  0  0  0  0  0  0
  -29.6800  -20.0410   19.9240 C   0  0  0  0  0  0  0  0  0  0  0  0
  -29.9240  -17.1500   20.4600 C   0  0  0  0  0  0  0  0  0  0  0  0
  -29.4690  -17.6420   19.2100 C   0  0  0  0  0  0  0  0  0  0  0  0
  -30.1300  -19.5440   21.1810 C   0  0  0  0  0  0  0  0  0  0  0  0
  -29.0940  -16.7660   18.2460 F   0  0  0  0  0  0  0  0  0  0  0  0
  -30.4850  -20.4090   22.1620 F   0  0  0  0  0  0  0  0  0  0  0  0
  -30.6630  -14.6860   20.3150 C   0  0  0  0  0  0  0  0  0  0  0  0
  -30.4600  -12.4550   19.2400 C   0  0  0  0  0  2  0  0  0  0  0  0
  -29.5030  -12.6090   18.0370 C   0  0  0  0  0  2  0  0  0  0  0  0
  -28.0330  -12.4390   18.4740 C   0  0  0  0  0  2  0  0  0  0  0  0
  -27.6890  -13.2720   19.7390 C   0  0  0  0  0  3  0  0  0  0  0  0
  -28.7600  -13.1000   20.8410 C   0  0  0  0  0  2  0  0  0  0  0  0
  -30.0620  -13.4550   20.2520 N   0  0  0  0  0  0  0  0  0  0  0  0
  -31.8070  -14.8630   19.8840 O   0  0  0  0  0  0  0  0  0  0  0  0
  -29.8950  -15.7190   20.7790 N   0  0  0  0  0  0  0  0  0  0  0  0
  -29.0310  -15.4110   21.1970 H   0  0  0  0  0  0  0  0  0  0  0  0
  -25.3040  -13.8590   20.4810 C   0  0  0  0  0  0  0  0  0  0  0  0
  -24.2410  -13.0850   20.8610 C   0  0  0  0  0  0  0  0  0  0  0  0
  -24.7050  -11.7330   20.8220 C   0  0  0  0  0  0  0  0  0  0  0  0
  -26.3460  -12.9810   20.2330 N   0  0  0  0  0  0  0  0  0  0  0  0
  -25.9930  -11.6960   20.4970 N   0  0  0  0  0  0  0  0  0  0  0  0
  -23.9830  -10.4690   21.0180 C   0  0  0  0  0  0  0  0  0  0  0  0
  -24.4110   -9.5150   21.9660 C   0  0  0  0  0  3  0  0  0  0  0  0
  -23.6950   -8.3120   22.1480 C   0  0  0  0  0  3  0  0  0  0  0  0
  -22.5320   -8.0560   21.3820 C   0  0  0  0  0  0  0  0  0  0  0  0
  -22.1210   -9.0010   20.4250 C   0  0  0  0  0  3  0  0  0  0  0  0
  -22.8390  -10.1940   20.2420 C   0  0  0  0  0  3  0  0  0  0  0  0
  -21.7840   -6.9080   21.4750 O   0  0  0  0  0  0  0  0  0  0  0  0
  -21.7100   -6.1880   22.6410 C   0  0  0  0  0  0  0  0  0  0  0  0
  -21.2160   -6.7560   23.8350 C   0  0  0  0  0  3  0  0  0  0  0  0
  -21.0920   -5.9620   24.9930 C   0  0  0  0  0  3  0  0  0  0  0  0
  -21.4510   -4.6010   24.9580 C   0  0  0  0  0  0  0  0  0  0  0  0
  -21.9370   -4.0330   23.7670 C   0  0  0  0  0  3  0  0  0  0  0  0
  -22.0630   -4.8240   22.6110 C   0  0  0  0  0  0  0  0  0  0  0  0
  -22.5100   -4.2670   21.4600 F   0  0  0  0  0  0  0  0  0  0  0  0
  -21.3240   -3.8360   26.0660 F   0  0  0  0  0  0  0  0  0  0  0  0
  -22.8460  -13.5560   21.1510 C   0  0  0  0  0  0  0  0  0  0  0  0
  -22.1280  -12.8500   22.0160 N   0  0  0  0  0  0  0  0  0  0  0  0
  -22.3990  -14.5830   20.6420 O   0  0  0  0  0  0  0  0  0  0  0  0
  -22.5000  -12.0140   22.4440 H   0  0  0  0  0  0  0  0  0  0  0  0
  -21.1910  -13.1450   22.2510 H   0  0  0  0  0  0  0  0  0  0  0  0
  -25.4750  -15.2300   20.3000 N   0  0  0  0  0  0  0  0  0  0  0  0
  -24.7280  -15.9050   20.4120 H   0  0  0  0  0  0  0  0  0  0  0  0
  -26.3270  -15.6410   19.9420 H   0  0  0  0  0  0  0  0  0  0  0  0
  -30.7530  -24.4860   20.4910 C   0  0  0  0  0  1  0  0  0  0  0  0
  -29.3670  -24.0410   19.9970 C   0  0  0  0  0  3  0  0  0  0  0  0
  -28.2490  -25.0550   20.5270 C   0  0  0  0  0  2  0  0  0  0  0  0
  -28.4130  -26.5090   20.2300 O   0  0  0  0  0  0  0  0  0  0  0  0
  -24.6080  -31.8830   23.2370 C   0  0  0  0  0  0  0  0  0  0  0  0
  -27.2770  -27.3350   20.2070 C   0  0  0  0  0  0  0  0  0  0  0  0
  -23.4270  -30.4750   21.5860 C   0  0  0  0  0  3  0  0  0  0  0  0
  -24.9010  -28.9320   20.1700 C   0  0  0  0  0  0  0  0  0  0  0  0
  -25.9650  -30.8050   21.4300 C   0  0  0  0  0  2  0  0  0  0  0  0
  -26.0590  -29.4280   20.7830 C   0  0  0  0  0  0  0  0  0  0  0  0
  -27.2490  -28.6410   20.7900 C   0  0  0  0  0  3  0  0  0  0  0  0
  -26.0990  -26.9000   19.5620 C   0  0  0  0  0  3  0  0  0  0  0  0
  -24.9230  -27.6750   19.5490 C   0  0  0  0  0  3  0  0  0  0  0  0
  -23.6550  -29.7970   20.2090 C   0  0  0  0  0  2  0  0  0  0  0  0
  -24.6840  -31.0730   22.1400 N   0  0  0  0  0  0  0  0  0  0  0  0
  -23.5190  -32.1580   23.7620 O   0  0  0  0  0  0  0  0  0  0  0  0
  -22.7600  -29.4590   22.5440 C   0  0  0  0  0  0  0  0  0  0  0  0
  -21.4360  -29.2780   22.4040 N   0  0  0  0  0  0  0  0  0  0  0  0
  -23.4330  -28.8340   23.3670 O   0  0  0  0  0  0  0  0  0  0  0  0
  -20.9560  -29.8290   21.7060 H   0  0  0  0  0  0  0  0  0  0  0  0
  -18.0550  -28.0920   22.8930 C   0  0  0  0  0  0  0  0  0  0  0  0
  -20.6130  -28.3400   23.1680 C   0  0  0  0  0  3  0  0  0  0  0  0
  -20.7120  -26.9130   22.5810 C   0  0  0  0  0  2  0  0  0  0  0  0
  -19.6110  -26.6020   21.5630 C   0  0  0  0  0  2  0  0  0  0  0  0
  -18.2290  -26.7470   22.2070 C   0  0  0  0  0  2  0  0  0  0  0  0
  -19.1760  -28.8480   23.3280 C   0  0  0  0  0  0  0  0  0  0  0  0
  -18.9610  -30.1080   23.9270 C   0  0  0  0  0  3  0  0  0  0  0  0
  -17.6570  -30.6130   24.0960 C   0  0  0  0  0  3  0  0  0  0  0  0
  -16.5510  -29.8530   23.6760 C   0  0  0  0  0  3  0  0  0  0  0  0
  -16.7510  -28.5940   23.0820 C   0  0  0  0  0  3  0  0  0  0  0  0
  -25.8850  -32.5200   23.8690 C   0  0  0  0  0  3  0  0  0  0  0  0
  -26.3930  -31.7500   25.1510 C   0  0  1  0  0  0  0  0  0  0  0  0
  -25.2910  -31.5040   26.2070 C   0  0  0  0  0  1  0  0  0  0  0  0
  -26.9910  -30.3750   24.7720 C   0  0  0  0  0  1  0  0  0  0  0  0
  -27.5310  -32.5530   25.8250 C   0  0  0  0  0  1  0  0  0  0  0  0
  -25.5660  -33.9170   24.1930 N   0  0  0  0  0  0  0  0  0  0  0  0
  -25.9040  -34.9710   23.4390 C   0  0  0  0  0  0  0  0  0  0  0  0
  -26.5880  -34.8690   22.4170 O   0  0  0  0  0  0  0  0  0  0  0  0
  -24.9530  -34.0680   24.9810 H   0  0  0  0  0  0  0  0  0  0  0  0
  -24.1800  -36.7650   23.0530 C   0  0  0  0  0  1  0  0  0  0  0  0
  -25.4060  -36.3590   23.8870 C   0  0  0  0  0  3  0  0  0  0  0  0
  -27.5210  -37.2470   24.7650 C   0  0  0  0  0  1  0  0  0  0  0  0
  -26.4390  -37.4130   23.7980 N   0  0  0  0  0  0  0  0  0  0  0  0
  -26.0290  -38.3330   23.9390 H   0  0  0  0  0  0  0  0  0  0  0  0
  1  7  1  0
  1  2  1  0
  2  4  1  0
  3  1  2  0
  5  9  2  0
  5  7  1  0
  7 10  2  0
  8 21  1  0
  8  6  2  0
  9  8  1  0
 10  6  1  0
 10 12  1  0
 11  9  1  0
 13 21  1  0
 14 19  1  0
 15 16  1  0
 15 14  1  0
 17 16  1  0
 17 26  1  0
 17 18  1  0
 19 13  1  0
 19 18  1  0
 20 13  2  0
 21 22  1  0
 23 24  2  0
 24 43  1  0
 25 24  1  0
 25 28  1  0
 26 23  1  0
 26 27  1  0
 27 25  2  0
 28 29  1  0
 29 30  2  0
 31 34  1  0
 31 30  1  0
 32 31  2  0
 33 32  1  0
 33 28  2  0
 34 35  1  0
 35 36  1  0
 36 37  2  0
 38 37  1  0
 38 42  1  0
 39 38  2  0
 40 35  2  0
 40 39  1  0
 41 40  1  0
 43 44  1  0
 44 47  1  0
 44 46  1  0
 45 43  2  0
 48 49  1  0
 48 23  1  0
 50 48  1  0
 52  2  1  0
 52 51  1  0
 52 53  1  0
 54 53  1  0
 55 66  2  0
 56 54  1  0
 56 61  1  0
 57 65  1  0
 57 67  1  0
 58 64  1  0
 58 60  1  0
 59 65  1  0
 60 61  2  0
 60 59  1  0
 62 56  2  0
 63 62  1  0
 63 58  2  0
 64 57  1  0
 65 55  1  0
 67 69  2  0
 68 67  1  0
 70 68  1  0
 71 80  2  0
 71 76  1  0
 72 68  1  0
 72 76  1  0
 73 72  1  0
 74 75  1  0
 74 73  1  0
 75 71  1  0
 76 77  2  0
 77 78  1  0
 79 78  2  0
 80 79  1  0
 81 55  1  0
 81 86  1  0
 81 82  1  0
 82 85  1  1
 82 83  1  0
 84 82  1  0
 86 89  1  0
 87 91  1  0
 87 86  1  0
 88 87  2  0
 91 90  1  0
 93 91  1  0
 93 94  1  0
 93 92  1  0
M  ISO  4  13 100  21 100  53 101  54 101
M  END
>  <TORSDO>  (24) 
F 19

>  <SCORE>  (24) 
-14.266

>  <name>  (24) 
23

>  <ligand_id>  (24) 
23

>  <original_smiles>  (24) 
[H]c1c([H])c([H])c2c(c1[H])C([H])([H])C([H])([H])C([H])([H])C2([H])N([H])C(=O)C1([H])N(C(=O)C([H])(N([H])C(=O)C([H])(N([H])C([H])([H])[H])C([H])([H])[H])C(C([H])([H])[H])(C([H])([H])[H])C([H])([H])[H])C([H])([H])c2c([H])c(OC([H])([H])C([H])(N([H])C(=O)c3c([H])c(F)c(N([H])C(=O)N4C([H])([H])C([H])([H])C([H])([H])C([H])(n5nc(-c6c([H])c([H])c(Oc7c([H])c([H])c(F)c([H])c7F)c([H])c6[H])c(C(=O)N([H])[H])c5N([H])[H])C4([H])[H])c([H])c3F)C([H])([H])[H])c([H])c([H])c2C1([H])[H]

>  <smiles>  (24) 
[H]c1c([H])c([H])c2c(c1[H])C([H])([H])C([H])([H])C([H])([H])C2([H])N([H])C(=O)C1([H])N(C(=O)C([H])(N([H])C(=O)C([H])(N([H])C([H])([H])[H])C([H])([H])[H])C(C([H])([H])[H])(C([H])([H])[H])C([H])([H])[H])C([H])([H])c2c([H])c(OC([H])([H])C([H])(N([H])C(=O)c3c([H])c(F)c(N([H])C(=O)N4C([H])([H])C([H])([H])C([H])([H])C([H])(n5nc(-c6c([H])c([H])c(Oc7c([H])c([H])c(F)c([H])c7F)c([H])c6[H])c(C(=O)N([H])[H])c5N([H])[H])C4([H])[H])c([H])c3F)C([H])([H])[H])c([H])c([H])c2C1([H])[H]

$$$$
24:0:0
     RDKit          3D

 92100  0  0  1  0  0  0  0  0999 V2000
  -29.0010  -21.8120   19.8150 C   0  0  0  0  0  0  0  0  0  0  0  0
  -28.4190  -22.9930   20.0690 N   0  0  0  0  0  0  0  0  0  0  0  0
  -30.1220  -21.7130   19.3100 O   0  0  0  0  0  0  0  0  0  0  0  0
  -27.5100  -22.9540   20.5130 H   0  0  0  0  0  0  0  0  0  0  0  0
  -28.1390  -20.5780   20.1400 C   0  0  0  0  0  2  0  0  0  0  0  0
  -28.9650  -18.3560   19.1780 C   0  0  0  0  0  3  0  0  0  0  0  0
  -29.3310  -18.8150   21.5390 C   0  0  0  0  0  3  0  0  0  0  0  0
  -29.4730  -17.0510   19.3510 C   0  0  0  0  0  3  0  0  0  0  0  0
  -29.8290  -17.5080   21.7160 C   0  0  0  0  0  3  0  0  0  0  0  0
  -28.8700  -19.2420   20.2740 C   0  0  0  0  0  0  0  0  0  0  0  0
  -29.8910  -16.6080   20.6300 C   0  0  0  0  0  0  0  0  0  0  0  0
  -30.7920  -14.3880   20.0230 C   0  0  0  0  0  0  0  0  0  0  0  0
  -30.4150  -12.2820   18.8010 C   0  0  0  0  0  2  0  0  0  0  0  0
  -29.3870  -12.5390   17.6790 C   0  0  0  0  0  2  0  0  0  0  0  0
  -27.9480  -12.3910   18.2080 C   0  0  0  0  0  2  0  0  0  0  0  0
  -27.7110  -13.1880   19.5180 C   0  0  0  0  0  3  0  0  0  0  0  0
  -28.8340  -12.8930   20.5390 C   0  0  0  0  0  2  0  0  0  0  0  0
  -30.1290  -13.2070   19.9080 N   0  0  0  0  0  0  0  0  0  0  0  0
  -31.8080  -14.6650   19.3770 O   0  0  0  0  0  0  0  0  0  0  0  0
  -30.2470  -15.2560   20.8910 N   0  0  0  0  0  0  0  0  0  0  0  0
  -29.7020  -14.8180   21.6200 H   0  0  0  0  0  0  0  0  0  0  0  0
  -25.3650  -13.8010   20.3930 C   0  0  0  0  0  0  0  0  0  0  0  0
  -24.3180  -13.0270   20.8220 C   0  0  0  0  0  0  0  0  0  0  0  0
  -24.7690  -11.6740   20.7350 C   0  0  0  0  0  0  0  0  0  0  0  0
  -26.3870  -12.9180   20.0780 N   0  0  0  0  0  0  0  0  0  0  0  0
  -26.0340  -11.6330   20.3370 N   0  0  0  0  0  0  0  0  0  0  0  0
  -24.0510  -10.4100   20.9540 C   0  0  0  0  0  0  0  0  0  0  0  0
  -24.4910   -9.4690   21.9110 C   0  0  0  0  0  3  0  0  0  0  0  0
  -23.7750   -8.2710   22.1160 C   0  0  0  0  0  3  0  0  0  0  0  0
  -22.6050   -8.0040   21.3660 C   0  0  0  0  0  0  0  0  0  0  0  0
  -22.1850   -8.9350   20.3990 C   0  0  0  0  0  3  0  0  0  0  0  0
  -22.9010  -10.1250   20.1920 C   0  0  0  0  0  3  0  0  0  0  0  0
  -21.8610   -6.8550   21.4790 O   0  0  0  0  0  0  0  0  0  0  0  0
  -21.7480   -6.1840   22.6700 C   0  0  0  0  0  0  0  0  0  0  0  0
  -21.2360   -6.8070   23.8300 C   0  0  0  0  0  3  0  0  0  0  0  0
  -21.0740   -6.0630   25.0150 C   0  0  0  0  0  3  0  0  0  0  0  0
  -21.4100   -4.6960   25.0410 C   0  0  0  0  0  0  0  0  0  0  0  0
  -21.9140   -4.0720   23.8860 C   0  0  0  0  0  3  0  0  0  0  0  0
  -22.0800   -4.8150   22.7030 C   0  0  0  0  0  0  0  0  0  0  0  0
  -22.5460   -4.2050   21.5870 F   0  0  0  0  0  0  0  0  0  0  0  0
  -21.2460   -3.9780   26.1770 F   0  0  0  0  0  0  0  0  0  0  0  0
  -22.9470  -13.5040   21.2020 C   0  0  0  0  0  0  0  0  0  0  0  0
  -22.2890  -12.8070   22.1240 N   0  0  0  0  0  0  0  0  0  0  0  0
  -22.4670  -14.5270   20.7170 O   0  0  0  0  0  0  0  0  0  0  0  0
  -22.6900  -11.9790   22.5360 H   0  0  0  0  0  0  0  0  0  0  0  0
  -21.3710  -13.1060   22.4210 H   0  0  0  0  0  0  0  0  0  0  0  0
  -25.5260  -15.1710   20.2260 N   0  0  0  0  0  0  0  0  0  0  0  0
  -24.7800  -15.8340   20.4080 H   0  0  0  0  0  0  0  0  0  0  0  0
  -26.3730  -15.6090   19.8830 H   0  0  0  0  0  0  0  0  0  0  0  0
  -28.8770  -24.3250   19.6660 C   0  0  0  0  0  2  0  0  0  0  0  0
  -28.4170  -25.3920   20.6800 C   0  0  0  0  0  2  0  0  0  0  0  0
  -28.5040  -26.7230   20.1490 O   0  0  0  0  0  0  0  0  0  0  0  0
  -24.6020  -31.8000   23.2440 C   0  0  0  0  0  0  0  0  0  0  0  0
  -27.3230  -27.4310   20.1420 C   0  0  0  0  0  0  0  0  0  0  0  0
  -23.4220  -30.4050   21.5770 C   0  0  0  0  0  3  0  0  0  0  0  0
  -24.9060  -28.8950   20.1480 C   0  0  0  0  0  0  0  0  0  0  0  0
  -25.9440  -30.7950   21.3980 C   0  0  0  0  0  2  0  0  0  0  0  0
  -26.0520  -29.4330   20.7450 C   0  0  0  0  0  0  0  0  0  0  0  0
  -27.2670  -28.7120   20.7350 C   0  0  0  0  0  3  0  0  0  0  0  0
  -26.1610  -26.8990   19.5420 C   0  0  0  0  0  3  0  0  0  0  0  0
  -24.9540  -27.6260   19.5420 C   0  0  0  0  0  3  0  0  0  0  0  0
  -23.6510  -29.7400   20.1900 C   0  0  0  0  0  2  0  0  0  0  0  0
  -24.6740  -31.0120   22.1320 N   0  0  0  0  0  0  0  0  0  0  0  0
  -23.5150  -32.0560   23.7770 O   0  0  0  0  0  0  0  0  0  0  0  0
  -22.7730  -29.3690   22.5190 C   0  0  0  0  0  0  0  0  0  0  0  0
  -21.4540  -29.1640   22.3650 N   0  0  0  0  0  0  0  0  0  0  0  0
  -23.4530  -28.7500   23.3420 O   0  0  0  0  0  0  0  0  0  0  0  0
  -20.9640  -29.7220   21.6780 H   0  0  0  0  0  0  0  0  0  0  0  0
  -18.1020  -27.8880   22.7800 C   0  0  0  0  0  0  0  0  0  0  0  0
  -20.6440  -28.2050   23.1140 C   0  0  0  0  0  3  0  0  0  0  0  0
  -20.7940  -26.7760   22.5360 C   0  0  0  0  0  2  0  0  0  0  0  0
  -19.7220  -26.4270   21.5000 C   0  0  0  0  0  2  0  0  0  0  0  0
  -18.3250  -26.5410   22.1140 C   0  0  0  0  0  2  0  0  0  0  0  0
  -19.1910  -28.6750   23.2370 C   0  0  0  0  0  0  0  0  0  0  0  0
  -18.9310  -29.9330   23.8220 C   0  0  0  0  0  3  0  0  0  0  0  0
  -17.6120  -30.4070   23.9550 C   0  0  0  0  0  3  0  0  0  0  0  0
  -16.5360  -29.6180   23.5130 C   0  0  0  0  0  3  0  0  0  0  0  0
  -16.7820  -28.3620   22.9320 C   0  0  0  0  0  3  0  0  0  0  0  0
  -25.8770  -32.4360   23.8820 C   0  0  0  0  0  3  0  0  0  0  0  0
  -26.3880  -31.6590   25.1570 C   0  0  1  0  0  0  0  0  0  0  0  0
  -25.2870  -31.4040   26.2130 C   0  0  0  0  0  1  0  0  0  0  0  0
  -26.9870  -30.2900   24.7590 C   0  0  0  0  0  1  0  0  0  0  0  0
  -27.5230  -32.4590   25.8380 C   0  0  0  0  0  1  0  0  0  0  0  0
  -25.5540  -33.8280   24.2160 N   0  0  0  0  0  0  0  0  0  0  0  0
  -25.8930  -34.8870   23.4690 C   0  0  0  0  0  0  0  0  0  0  0  0
  -26.5800  -34.7930   22.4480 O   0  0  0  0  0  0  0  0  0  0  0  0
  -24.9440  -33.9770   25.0060 H   0  0  0  0  0  0  0  0  0  0  0  0
  -24.1630  -36.6750   23.0890 C   0  0  0  0  0  1  0  0  0  0  0  0
  -25.3890  -36.2700   23.9250 C   0  0  0  0  0  3  0  0  0  0  0  0
  -27.5020  -37.1570   24.8080 C   0  0  0  0  0  1  0  0  0  0  0  0
  -26.4190  -37.3280   23.8420 N   0  0  0  0  0  0  0  0  0  0  0  0
  -26.0060  -38.2460   23.9860 H   0  0  0  0  0  0  0  0  0  0  0  0
  1  2  1  0
  1  5  1  0
  2  4  1  0
  3  1  2  0
  5 10  1  0
  6  8  2  0
  6 10  1  0
  7  9  1  0
  8 11  1  0
 10  7  2  0
 11 20  1  0
 11  9  2  0
 12 20  1  0
 13 18  1  0
 14 15  1  0
 14 13  1  0
 16 15  1  0
 16 25  1  0
 16 17  1  0
 18 12  1  0
 18 17  1  0
 19 12  2  0
 20 21  1  0
 22 23  2  0
 23 42  1  0
 24 23  1  0
 24 27  1  0
 25 26  1  0
 25 22  1  0
 26 24  2  0
 27 28  1  0
 28 29  2  0
 30 33  1  0
 30 29  1  0
 31 30  2  0
 32 31  1  0
 32 27  2  0
 33 34  1  0
 34 39  2  0
 34 35  1  0
 35 36  2  0
 36 37  1  0
 37 41  1  0
 38 37  2  0
 39 38  1  0
 40 39  1  0
 42 43  1  0
 43 46  1  0
 43 45  1  0
 44 42  2  0
 47 22  1  0
 47 48  1  0
 49 47  1  0
 50  2  1  0
 50 51  1  0
 52 51  1  0
 53 64  2  0
 54 52  1  0
 54 59  1  0
 55 63  1  0
 55 65  1  0
 56 62  1  0
 56 58  1  0
 57 63  1  0
 58 57  1  0
 59 58  2  0
 60 54  2  0
 61 60  1  0
 61 56  2  0
 62 55  1  0
 63 53  1  0
 65 67  2  0
 66 65  1  0
 68 66  1  0
 69 78  2  0
 69 74  1  0
 70 66  1  0
 70 74  1  0
 71 70  1  0
 72 73  1  0
 72 71  1  0
 73 69  1  0
 74 75  2  0
 75 76  1  0
 77 76  2  0
 78 77  1  0
 79 53  1  0
 79 84  1  0
 79 80  1  0
 80 83  1  1
 80 81  1  0
 82 80  1  0
 84 87  1  0
 85 89  1  0
 85 84  1  0
 86 85  2  0
 89 88  1  0
 91 89  1  0
 91 92  1  0
 91 90  1  0
M  ISO  4  12 100  20 100  51 101  52 101
M  END
>  <TORSDO>  (25) 
F 20

>  <SCORE>  (25) 
-12.890

>  <name>  (25) 
24

>  <ligand_id>  (25) 
24

>  <original_smiles>  (25) 
[H]c1c([H])c([H])c2c(c1[H])C([H])([H])C([H])([H])C([H])([H])C2([H])N([H])C(=O)C1([H])N(C(=O)C([H])(N([H])C(=O)C([H])(N([H])C([H])([H])[H])C([H])([H])[H])C(C([H])([H])[H])(C([H])([H])[H])C([H])([H])[H])C([H])([H])c2c([H])c(OC([H])([H])C([H])([H])N([H])C(=O)C([H])([H])c3c([H])c([H])c(N([H])C(=O)N4C([H])([H])C([H])([H])C([H])([H])C([H])(n5nc(-c6c([H])c([H])c(Oc7c([H])c([H])c(F)c([H])c7F)c([H])c6[H])c(C(=O)N([H])[H])c5N([H])[H])C4([H])[H])c([H])c3[H])c([H])c([H])c2C1([H])[H]

>  <smiles>  (25) 
[H]c1c([H])c([H])c2c(c1[H])C([H])([H])C([H])([H])C([H])([H])C2([H])N([H])C(=O)C1([H])N(C(=O)C([H])(N([H])C(=O)C([H])(N([H])C([H])([H])[H])C([H])([H])[H])C(C([H])([H])[H])(C([H])([H])[H])C([H])([H])[H])C([H])([H])c2c([H])c(OC([H])([H])C([H])([H])N([H])C(=O)C([H])([H])c3c([H])c([H])c(N([H])C(=O)N4C([H])([H])C([H])([H])C([H])([H])C([H])(n5nc(-c6c([H])c([H])c(Oc7c([H])c([H])c(F)c([H])c7F)c([H])c6[H])c(C(=O)N([H])[H])c5N([H])[H])C4([H])[H])c([H])c3[H])c([H])c([H])c2C1([H])[H]

$$$$
25:0:0
     RDKit          3D

 98106  0  0  1  0  0  0  0  0999 V2000
  -28.4320  -20.4310   21.0380 C   0  0  0  0  0  2  0  0  0  0  0  0
  -30.3760  -20.1170   19.8050 C   0  0  0  0  0  2  0  0  0  0  0  0
  -28.3300  -19.0110   20.3800 C   0  0  0  0  0  3  0  0  0  0  0  0
  -29.7340  -18.6480   19.8710 C   0  0  0  0  0  3  0  0  0  0  0  0
  -29.5400  -21.1960   20.4520 N   0  0  0  0  0  0  0  0  0  0  0  0
  -30.7900  -14.8980   20.3490 C   0  0  0  0  0  0  0  0  0  0  0  0
  -30.5520  -12.6200   19.3340 C   0  0  0  0  0  2  0  0  0  0  0  0
  -29.5950  -12.6500   18.1240 C   0  0  0  0  0  2  0  0  0  0  0  0
  -28.1420  -12.4450   18.5860 C   0  0  0  0  0  2  0  0  0  0  0  0
  -27.7620  -13.3680   19.7770 C   0  0  0  0  0  3  0  0  0  0  0  0
  -28.8380  -13.3490   20.8840 C   0  0  0  0  0  2  0  0  0  0  0  0
  -30.1170  -13.7000   20.2510 N   0  0  0  0  0  0  0  0  0  0  0  0
  -32.0060  -14.9160   20.1470 O   0  0  0  0  0  0  0  0  0  0  0  0
  -30.4630  -17.3930   20.5560 C   0  0  0  0  0  0  0  0  0  0  0  0
  -30.0530  -16.0800   20.3350 N   0  0  0  0  0  0  0  0  0  0  0  0
  -31.4370  -17.6420   21.2740 O   0  0  0  0  0  0  0  0  0  0  0  0
  -29.1070  -15.9670   20.0150 H   0  0  0  0  0  0  0  0  0  0  0  0
  -25.3920  -13.9490   20.5550 C   0  0  0  0  0  0  0  0  0  0  0  0
  -24.3290  -13.1760   20.9250 C   0  0  0  0  0  0  0  0  0  0  0  0
  -24.7920  -11.8240   20.8730 C   0  0  0  0  0  0  0  0  0  0  0  0
  -26.4310  -13.0720   20.2910 N   0  0  0  0  0  0  0  0  0  0  0  0
  -26.0790  -11.7870   20.5500 N   0  0  0  0  0  0  0  0  0  0  0  0
  -24.0690  -10.5610   21.0540 C   0  0  0  0  0  0  0  0  0  0  0  0
  -24.4960   -9.5930   21.9900 C   0  0  0  0  0  3  0  0  0  0  0  0
  -23.7690   -8.3960   22.1590 C   0  0  0  0  0  3  0  0  0  0  0  0
  -22.6000   -8.1620   21.3990 C   0  0  0  0  0  0  0  0  0  0  0  0
  -22.1920   -9.1200   20.4540 C   0  0  0  0  0  3  0  0  0  0  0  0
  -22.9180  -10.3070   20.2820 C   0  0  0  0  0  3  0  0  0  0  0  0
  -21.8460   -7.0160   21.4820 O   0  0  0  0  0  0  0  0  0  0  0  0
  -21.7780   -6.2790   22.6360 C   0  0  0  0  0  0  0  0  0  0  0  0
  -21.2820   -6.8260   23.8400 C   0  0  0  0  0  3  0  0  0  0  0  0
  -21.1660   -6.0130   24.9860 C   0  0  0  0  0  3  0  0  0  0  0  0
  -21.5340   -4.6560   24.9270 C   0  0  0  0  0  0  0  0  0  0  0  0
  -22.0240   -4.1110   23.7290 C   0  0  0  0  0  3  0  0  0  0  0  0
  -22.1420   -4.9180   22.5860 C   0  0  0  0  0  0  0  0  0  0  0  0
  -22.5950   -4.3840   21.4260 F   0  0  0  0  0  0  0  0  0  0  0  0
  -21.4140   -3.8730   26.0260 F   0  0  0  0  0  0  0  0  0  0  0  0
  -22.9360  -13.6530   21.2080 C   0  0  0  0  0  0  0  0  0  0  0  0
  -22.2110  -12.9480   22.0670 N   0  0  0  0  0  0  0  0  0  0  0  0
  -22.4990  -14.6890   20.7040 O   0  0  0  0  0  0  0  0  0  0  0  0
  -22.5780  -12.1120   22.4990 H   0  0  0  0  0  0  0  0  0  0  0  0
  -21.2760  -13.2490   22.3010 H   0  0  0  0  0  0  0  0  0  0  0  0
  -25.5670  -15.3160   20.3930 N   0  0  0  0  0  0  0  0  0  0  0  0
  -24.7830  -15.9540   20.4770 H   0  0  0  0  0  0  0  0  0  0  0  0
  -26.3970  -15.7060   19.9730 H   0  0  0  0  0  0  0  0  0  0  0  0
  -27.3740  -18.9800   19.1780 C   0  0  0  0  0  0  0  0  0  0  0  0
  -26.3110  -18.1900   19.2670 N   0  0  0  0  0  0  0  0  0  0  0  0
  -27.6070  -19.6020   18.1420 O   0  0  0  0  0  0  0  0  0  0  0  0
  -26.1120  -17.6890   20.1210 H   0  0  0  0  0  0  0  0  0  0  0  0
  -25.6780  -18.1050   18.4850 H   0  0  0  0  0  0  0  0  0  0  0  0
  -29.1710  -22.4600   19.6770 C   0  0  0  0  0  2  0  0  0  0  0  0
  -28.8860  -23.8610   20.4560 C   0  0  0  0  0  3  0  0  0  0  0  0
  -30.0440  -24.1380   21.3220 N   0  0  0  0  0  4  0  0  0  0  0  0
  -29.9280  -25.0200   21.7920 H   0  0  0  0  0  0  0  0  0  0  0  0
  -30.8950  -24.1710   20.7860 H   0  0  0  0  0  0  0  0  0  0  0  0
  -30.1370  -23.4040   22.0050 H   0  0  0  0  0  0  0  0  0  0  0  0
  -28.5550  -25.1940   19.5890 C   0  0  0  0  0  2  0  0  0  0  0  0
  -28.4360  -26.5510   20.2320 O   0  0  0  0  0  0  0  0  0  0  0  0
  -24.6150  -31.9330   23.2390 C   0  0  0  0  0  0  0  0  0  0  0  0
  -27.2890  -27.3800   20.1670 C   0  0  0  0  0  0  0  0  0  0  0  0
  -23.4310  -30.5220   21.6000 C   0  0  0  0  0  3  0  0  0  0  0  0
  -24.8990  -28.9900   20.1750 C   0  0  0  0  0  0  0  0  0  0  0  0
  -25.9660  -30.8700   21.4090 C   0  0  0  0  0  2  0  0  0  0  0  0
  -26.0660  -29.4880   20.7650 C   0  0  0  0  0  0  0  0  0  0  0  0
  -27.2560  -28.6910   20.7580 C   0  0  0  0  0  3  0  0  0  0  0  0
  -26.0860  -26.9470   19.5590 C   0  0  0  0  0  3  0  0  0  0  0  0
  -24.9140  -27.7280   19.5660 C   0  0  0  0  0  3  0  0  0  0  0  0
  -23.6510  -29.8500   20.2210 C   0  0  0  0  0  2  0  0  0  0  0  0
  -24.6930  -31.1230   22.1440 N   0  0  0  0  0  0  0  0  0  0  0  0
  -23.5290  -32.1970   23.7730 O   0  0  0  0  0  0  0  0  0  0  0  0
  -22.7800  -29.4960   22.5610 C   0  0  0  0  0  0  0  0  0  0  0  0
  -21.4560  -29.3040   22.4350 N   0  0  0  0  0  0  0  0  0  0  0  0
  -23.4660  -28.8770   23.3780 O   0  0  0  0  0  0  0  0  0  0  0  0
  -20.9600  -29.8550   21.7470 H   0  0  0  0  0  0  0  0  0  0  0  0
  -18.0900  -28.0900   22.9590 C   0  0  0  0  0  0  0  0  0  0  0  0
  -20.6490  -28.3540   23.2050 C   0  0  0  0  0  3  0  0  0  0  0  0
  -20.7480  -26.9300   22.6140 C   0  0  0  0  0  2  0  0  0  0  0  0
  -19.6380  -26.6150   21.6070 C   0  0  0  0  0  2  0  0  0  0  0  0
  -18.2630  -26.7480   22.2680 C   0  0  0  0  0  2  0  0  0  0  0  0
  -19.2110  -28.8520   23.3850 C   0  0  0  0  0  0  0  0  0  0  0  0
  -18.9940  -30.1060   23.9960 C   0  0  0  0  0  3  0  0  0  0  0  0
  -17.6910  -30.6020   24.1790 C   0  0  0  0  0  3  0  0  0  0  0  0
  -16.5840  -29.8400   23.7670 C   0  0  0  0  0  3  0  0  0  0  0  0
  -16.7840  -28.5850   23.1640 C   0  0  0  0  0  3  0  0  0  0  0  0
  -25.8880  -32.5830   23.8630 C   0  0  0  0  0  3  0  0  0  0  0  0
  -25.5630  -33.9810   24.1830 N   0  0  0  0  0  0  0  0  0  0  0  0
  -25.9020  -35.0300   23.4240 C   0  0  0  0  0  0  0  0  0  0  0  0
  -26.5890  -34.9280   22.4050 O   0  0  0  0  0  0  0  0  0  0  0  0
  -24.9500  -34.1360   24.9690 H   0  0  0  0  0  0  0  0  0  0  0  0
  -24.1860  -36.8250   23.0180 C   0  0  0  0  0  1  0  0  0  0  0  0
  -25.4020  -36.4200   23.8670 C   0  0  0  0  0  3  0  0  0  0  0  0
  -27.5030  -37.3130   24.7690 C   0  0  0  0  0  1  0  0  0  0  0  0
  -26.4370  -37.4720   23.7840 N   0  0  0  0  0  0  0  0  0  0  0  0
  -26.0250  -38.3940   23.9100 H   0  0  0  0  0  0  0  0  0  0  0  0
  -26.4030  -31.8240   25.1470 C   0  0  1  0  0  0  0  0  0  0  0  0
  -25.3030  -31.5830   26.2070 C   0  0  0  0  0  1  0  0  0  0  0  0
  -27.0030  -30.4500   24.7640 C   0  0  0  0  0  1  0  0  0  0  0  0
  -27.5420  -32.6320   25.8140 C   0  0  0  0  0  1  0  0  0  0  0  0
  2  4  1  0
  2  5  1  0
  3 46  1  0
  3  1  1  0
  4  3  1  0
  4 14  1  0
  5  1  1  0
  7 12  1  0
  8  9  1  0
  8  7  1  0
 10  9  1  0
 10 21  1  0
 10 11  1  0
 12  6  1  0
 12 11  1  0
 13  6  2  0
 14 16  2  0
 15  6  1  0
 15 14  1  0
 17 15  1  0
 18 19  2  0
 19 38  1  0
 20 19  1  0
 20 23  1  0
 21 22  1  0
 21 18  1  0
 22 20  2  0
 23 24  1  0
 24 25  2  0
 26 29  1  0
 26 25  1  0
 27 26  2  0
 28 27  1  0
 28 23  2  0
 29 30  1  0
 30 31  1  0
 31 32  2  0
 33 32  1  0
 33 37  1  0
 34 33  2  0
 35 30  2  0
 35 34  1  0
 36 35  1  0
 38 39  1  0
 39 42  1  0
 39 41  1  0
 40 38  2  0
 43 44  1  0
 43 18  1  0
 45 43  1  0
 46 47  1  0
 47 49  1  0
 48 46  2  0
 50 47  1  0
 51  5  1  0
 51 52  1  0
 52 57  1  0
 52 53  1  0
 53 54  1  0
 53 56  1  0
 55 53  1  0
 57 58  1  0
 59 70  2  0
 60 58  1  0
 60 65  1  0
 61 69  1  0
 61 71  1  0
 62 68  1  0
 62 64  1  0
 63 69  1  0
 64 63  1  0
 65 64  2  0
 66 67  1  0
 66 60  2  0
 67 62  2  0
 68 61  1  0
 69 59  1  0
 71 73  2  0
 72 71  1  0
 74 72  1  0
 75 84  2  0
 75 80  1  0
 76 72  1  0
 76 80  1  0
 77 76  1  0
 78 79  1  0
 78 77  1  0
 79 75  1  0
 80 81  2  0
 81 82  1  0
 83 82  2  0
 84 83  1  0
 85 59  1  0
 85 86  1  0
 85 95  1  0
 86 89  1  0
 87 91  1  0
 87 86  1  0
 88 87  2  0
 91 90  1  0
 93 91  1  0
 93 94  1  0
 93 92  1  0
 95 98  1  1
 95 96  1  0
 97 95  1  0
M  ISO  4   6 100  15 100  57 101  58 101
M  END
>  <TORSDO>  (26) 
F 21

>  <SCORE>  (26) 
-13.699

>  <name>  (26) 
25

>  <ligand_id>  (26) 
25

>  <original_smiles>  (26) 
[H]c1c([H])c([H])c2c(c1[H])C([H])([H])C([H])([H])C([H])([H])C2([H])N([H])C(=O)C1([H])N(C(=O)C([H])(N([H])C(=O)C([H])(N([H])C([H])([H])[H])C([H])([H])[H])C(C([H])([H])[H])(C([H])([H])[H])C([H])([H])[H])C([H])([H])c2c([H])c(OC([H])([H])C([H])(C([H])([H])N3C([H])([H])C([H])(C(=O)N([H])[H])C([H])(C(=O)N([H])C(=O)N4C([H])([H])C([H])([H])C([H])([H])C([H])(n5nc(-c6c([H])c([H])c(Oc7c([H])c([H])c(F)c([H])c7F)c([H])c6[H])c(C(=O)N([H])[H])c5N([H])[H])C4([H])[H])C3([H])[H])[N+]([H])([H])[H])c([H])c([H])c2C1([H])[H]

>  <smiles>  (26) 
[H]c1c([H])c([H])c2c(c1[H])C([H])([H])C([H])([H])C([H])([H])C2([H])N([H])C(=O)C1([H])N(C(=O)C([H])(N([H])C(=O)C([H])(N([H])C([H])([H])[H])C([H])([H])[H])C(C([H])([H])[H])(C([H])([H])[H])C([H])([H])[H])C([H])([H])c2c([H])c(OC([H])([H])C([H])(C([H])([H])N3C([H])([H])C([H])(C(=O)N([H])[H])C([H])(C(=O)N([H])C(=O)N4C([H])([H])C([H])([H])C([H])([H])C([H])(n5nc(-c6c([H])c([H])c(Oc7c([H])c([H])c(F)c([H])c7F)c([H])c6[H])c(C(=O)N([H])[H])c5N([H])[H])C4([H])[H])C3([H])[H])[N+]([H])([H])[H])c([H])c([H])c2C1([H])[H]

$$$$
26:0:0
     RDKit          3D

 91 99  0  0  1  0  0  0  0  0999 V2000
  -28.6550  -22.6160   19.8190 C   0  0  0  0  0  3  0  0  0  0  0  0
  -30.9720  -19.9540   21.8360 C   0  0  0  0  0  3  0  0  0  0  0  0
  -30.2510  -21.0950   21.3830 C   0  0  0  0  0  3  0  0  0  0  0  0
  -30.7770  -18.6210   21.3790 C   0  0  0  0  0  3  0  0  0  0  0  0
  -29.0600  -19.5530   19.9630 C   0  0  0  0  0  3  0  0  0  0  0  0
  -29.2430  -21.0420   20.3950 C   0  0  0  0  0  0  0  0  0  0  0  0
  -29.8040  -18.2620   20.4210 C   0  0  0  0  0  0  0  0  0  0  0  0
  -30.4280  -15.3810   20.1890 C   0  0  0  0  0  0  0  0  0  0  0  0
  -30.4260  -12.9220   19.3040 C   0  0  0  0  0  2  0  0  0  0  0  0
  -29.4930  -12.6610   18.0940 C   0  0  0  0  0  2  0  0  0  0  0  0
  -28.0530  -12.3770   18.5590 C   0  0  0  0  0  2  0  0  0  0  0  0
  -27.6020  -13.3550   19.6730 C   0  0  0  0  0  3  0  0  0  0  0  0
  -28.6640  -13.5410   20.7760 C   0  0  0  0  0  2  0  0  0  0  0  0
  -29.8650  -14.0710   20.1080 N   0  0  0  0  0  0  0  0  0  0  0  0
  -31.6600  -15.3640   20.0460 O   0  0  0  0  0  0  0  0  0  0  0  0
  -29.6460  -16.6600   20.1350 N   0  0  0  0  0  0  0  0  0  0  0  0
  -28.6900  -16.4310   19.9080 H   0  0  0  0  0  0  0  0  0  0  0  0
  -25.2430  -13.9100   20.4600 C   0  0  0  0  0  0  0  0  0  0  0  0
  -24.1860  -13.1330   20.8400 C   0  0  0  0  0  0  0  0  0  0  0  0
  -24.6550  -11.7830   20.8020 C   0  0  0  0  0  0  0  0  0  0  0  0
  -26.2830  -13.0360   20.2030 N   0  0  0  0  0  0  0  0  0  0  0  0
  -25.9430  -11.7500   20.4790 N   0  0  0  0  0  0  0  0  0  0  0  0
  -23.9300  -10.5200   20.9970 C   0  0  0  0  0  0  0  0  0  0  0  0
  -24.3600   -9.5560   21.9360 C   0  0  0  0  0  3  0  0  0  0  0  0
  -23.6310   -8.3610   22.1190 C   0  0  0  0  0  3  0  0  0  0  0  0
  -22.4580   -8.1210   21.3640 C   0  0  0  0  0  0  0  0  0  0  0  0
  -22.0480   -9.0730   20.4150 C   0  0  0  0  0  3  0  0  0  0  0  0
  -22.7770  -10.2590   20.2300 C   0  0  0  0  0  3  0  0  0  0  0  0
  -21.7020   -6.9770   21.4560 O   0  0  0  0  0  0  0  0  0  0  0  0
  -21.6430   -6.2460   22.6150 C   0  0  0  0  0  0  0  0  0  0  0  0
  -21.1950   -6.8080   23.8300 C   0  0  0  0  0  3  0  0  0  0  0  0
  -21.0840   -6.0020   24.9800 C   0  0  0  0  0  3  0  0  0  0  0  0
  -21.4110   -4.6350   24.9180 C   0  0  0  0  0  0  0  0  0  0  0  0
  -21.8520   -4.0720   23.7080 C   0  0  0  0  0  3  0  0  0  0  0  0
  -21.9650   -4.8750   22.5590 C   0  0  0  0  0  0  0  0  0  0  0  0
  -22.3710   -4.3210   21.3910 F   0  0  0  0  0  0  0  0  0  0  0  0
  -21.2970   -3.8590   26.0210 F   0  0  0  0  0  0  0  0  0  0  0  0
  -22.7910  -13.6090   21.1170 C   0  0  0  0  0  0  0  0  0  0  0  0
  -22.0690  -12.9140   21.9870 N   0  0  0  0  0  0  0  0  0  0  0  0
  -22.3520  -14.6340   20.5970 O   0  0  0  0  0  0  0  0  0  0  0  0
  -22.4380  -12.0850   22.4290 H   0  0  0  0  0  0  0  0  0  0  0  0
  -21.1320  -13.2160   22.2170 H   0  0  0  0  0  0  0  0  0  0  0  0
  -25.4000  -15.2820   20.2820 N   0  0  0  0  0  0  0  0  0  0  0  0
  -24.6290  -15.9300   20.4040 H   0  0  0  0  0  0  0  0  0  0  0  0
  -26.2370  -15.7260   19.9280 H   0  0  0  0  0  0  0  0  0  0  0  0
  -27.6130  -22.3080   18.8250 N   0  0  0  0  0  4  0  0  0  0  0  0
  -26.7780  -21.9800   19.2760 H   0  0  0  0  0  0  0  0  0  0  0  0
  -27.9350  -21.6040   18.1870 H   0  0  0  0  0  0  0  0  0  0  0  0
  -27.3860  -23.1290   18.2910 H   0  0  0  0  0  0  0  0  0  0  0  0
  -28.1910  -24.2160   20.5840 C   0  0  0  0  0  2  0  0  0  0  0  0
  -28.2740  -25.8530   20.2310 O   0  0  0  0  0  0  0  0  0  0  0  0
  -24.6360  -31.8540   23.1960 C   0  0  0  0  0  0  0  0  0  0  0  0
  -27.2320  -26.9330   20.2480 C   0  0  0  0  0  0  0  0  0  0  0  0
  -23.4610  -30.4380   21.5630 C   0  0  0  0  0  3  0  0  0  0  0  0
  -24.9250  -28.8200   20.1700 C   0  0  0  0  0  0  0  0  0  0  0  0
  -26.0290  -30.6550   21.4300 C   0  0  0  0  0  2  0  0  0  0  0  0
  -26.1100  -29.2340   20.7900 C   0  0  0  0  0  0  0  0  0  0  0  0
  -27.2590  -28.3160   20.7940 C   0  0  0  0  0  3  0  0  0  0  0  0
  -26.0100  -26.6740   19.5870 C   0  0  0  0  0  3  0  0  0  0  0  0
  -24.9010  -27.5610   19.5480 C   0  0  0  0  0  3  0  0  0  0  0  0
  -23.7030  -29.7410   20.1960 C   0  0  0  0  0  2  0  0  0  0  0  0
  -24.7300  -31.0110   22.1160 N   0  0  0  0  0  0  0  0  0  0  0  0
  -23.5420  -32.1420   23.7070 O   0  0  0  0  0  0  0  0  0  0  0  0
  -22.7630  -29.4490   22.5340 C   0  0  0  0  0  0  0  0  0  0  0  0
  -21.4320  -29.2910   22.4140 N   0  0  0  0  0  0  0  0  0  0  0  0
  -23.4280  -28.8230   23.3620 O   0  0  0  0  0  0  0  0  0  0  0  0
  -20.9470  -29.8460   21.7230 H   0  0  0  0  0  0  0  0  0  0  0  0
  -18.0450  -28.0970   22.9430 C   0  0  0  0  0  0  0  0  0  0  0  0
  -20.6080  -28.3570   23.1900 C   0  0  0  0  0  3  0  0  0  0  0  0
  -20.7010  -26.9240   22.6150 C   0  0  0  0  0  2  0  0  0  0  0  0
  -19.5920  -26.6040   21.6080 C   0  0  0  0  0  2  0  0  0  0  0  0
  -18.2160  -26.7490   22.2610 C   0  0  0  0  0  2  0  0  0  0  0  0
  -19.1690  -28.8590   23.3640 C   0  0  0  0  0  0  0  0  0  0  0  0
  -18.9530  -30.1160   23.9670 C   0  0  0  0  0  3  0  0  0  0  0  0
  -17.6490  -30.6150   24.1480 C   0  0  0  0  0  3  0  0  0  0  0  0
  -16.5410  -29.8520   23.7380 C   0  0  0  0  0  3  0  0  0  0  0  0
  -16.7410  -28.5950   23.1420 C   0  0  0  0  0  3  0  0  0  0  0  0
  -25.8990  -32.5110   23.8330 C   0  0  0  0  0  3  0  0  0  0  0  0
  -26.3960  -31.7620   25.1300 C   0  0  1  0  0  0  0  0  0  0  0  0
  -25.2890  -31.5380   26.1870 C   0  0  0  0  0  1  0  0  0  0  0  0
  -26.9910  -30.3790   24.7780 C   0  0  0  0  0  1  0  0  0  0  0  0
  -27.5340  -32.5710   25.7970 C   0  0  0  0  0  1  0  0  0  0  0  0
  -25.5700  -33.9120   24.1530 N   0  0  0  0  0  0  0  0  0  0  0  0
  -25.9020  -34.9710   23.4030 C   0  0  0  0  0  0  0  0  0  0  0  0
  -26.5800  -34.8710   22.3770 O   0  0  0  0  0  0  0  0  0  0  0  0
  -24.9650  -34.0600   24.9480 H   0  0  0  0  0  0  0  0  0  0  0  0
  -24.1720  -36.7660   23.0460 C   0  0  0  0  0  1  0  0  0  0  0  0
  -25.4100  -36.3600   23.8620 C   0  0  0  0  0  3  0  0  0  0  0  0
  -27.5340  -37.2570   24.7070 C   0  0  0  0  0  1  0  0  0  0  0  0
  -26.4410  -37.4160   23.7530 N   0  0  0  0  0  0  0  0  0  0  0  0
  -26.0310  -38.3360   23.8900 H   0  0  0  0  0  0  0  0  0  0  0  0
  1  6  1  0
  1 50  1  0
  3  2  1  0
  4  2  2  0
  5  6  1  0
  5  7  2  0
  6  3  2  0
  7  4  1  0
  9 14  1  0
 10 11  1  0
 10  9  1  0
 12 11  1  0
 12 21  1  0
 12 13  1  0
 14  8  1  0
 14 13  1  0
 15  8  2  0
 16  8  1  0
 16  7  1  0
 17 16  1  0
 18 19  2  0
 19 38  1  0
 20 19  1  0
 20 23  1  0
 21 18  1  0
 21 22  1  0
 22 20  2  0
 23 24  1  0
 24 25  2  0
 26 29  1  0
 26 25  1  0
 27 26  2  0
 28 27  1  0
 28 23  2  0
 29 30  1  0
 30 31  1  0
 31 32  2  0
 33 32  1  0
 33 37  1  0
 34 33  2  0
 35 30  2  0
 35 34  1  0
 36 35  1  0
 38 39  1  0
 39 42  1  0
 39 41  1  0
 40 38  2  0
 43 44  1  0
 43 18  1  0
 45 43  1  0
 46 47  1  0
 46  1  1  0
 48 46  1  0
 49 46  1  0
 51 53  1  0
 51 50  1  0
 52 63  2  0
 53 58  1  0
 54 62  1  0
 54 64  1  0
 55 61  1  0
 55 57  1  0
 56 62  1  0
 57 58  2  0
 57 56  1  0
 59 53  2  0
 60 59  1  0
 60 55  2  0
 61 54  1  0
 62 52  1  0
 64 66  2  0
 65 64  1  0
 67 65  1  0
 68 77  2  0
 68 73  1  0
 69 65  1  0
 69 73  1  0
 70 69  1  0
 71 72  1  0
 71 70  1  0
 72 68  1  0
 73 74  2  0
 74 75  1  0
 76 75  2  0
 77 76  1  0
 78 52  1  0
 78 83  1  0
 78 79  1  0
 79 82  1  1
 79 80  1  0
 81 79  1  0
 83 86  1  0
 84 88  1  0
 84 83  1  0
 85 84  2  0
 88 87  1  0
 90 88  1  0
 90 91  1  0
 90 89  1  0
M  ISO  4   8 100  16 100  50 101  51 101
M  END
>  <TORSDO>  (27) 
F 19

>  <SCORE>  (27) 
-16.339

>  <name>  (27) 
26

>  <ligand_id>  (27) 
26

>  <original_smiles>  (27) 
[H]c1c([H])c([H])c2c(c1[H])C([H])([H])C([H])([H])C([H])([H])C2([H])N([H])C(=O)C1([H])N(C(=O)C([H])(N([H])C(=O)C([H])(N([H])C([H])([H])[H])C([H])([H])[H])C(C([H])([H])[H])(C([H])([H])[H])C([H])([H])[H])C([H])([H])c2c([H])c(OC([H])([H])C([H])(c3c([H])c([H])c([H])c(N([H])C(=O)N4C([H])([H])C([H])([H])C([H])([H])C([H])(n5nc(-c6c([H])c([H])c(Oc7c([H])c([H])c(F)c([H])c7F)c([H])c6[H])c(C(=O)N([H])[H])c5N([H])[H])C4([H])[H])c3[H])[N+]([H])([H])[H])c([H])c([H])c2C1([H])[H]

>  <smiles>  (27) 
[H]c1c([H])c([H])c2c(c1[H])C([H])([H])C([H])([H])C([H])([H])C2([H])N([H])C(=O)C1([H])N(C(=O)C([H])(N([H])C(=O)C([H])(N([H])C([H])([H])[H])C([H])([H])[H])C(C([H])([H])[H])(C([H])([H])[H])C([H])([H])[H])C([H])([H])c2c([H])c(OC([H])([H])C([H])(c3c([H])c([H])c([H])c(N([H])C(=O)N4C([H])([H])C([H])([H])C([H])([H])C([H])(n5nc(-c6c([H])c([H])c(Oc7c([H])c([H])c(F)c([H])c7F)c([H])c6[H])c(C(=O)N([H])[H])c5N([H])[H])C4([H])[H])c3[H])[N+]([H])([H])[H])c([H])c([H])c2C1([H])[H]

$$$$
27:0:0
     RDKit          3D

 94102  0  0  1  0  0  0  0  0999 V2000
  -29.1890  -23.7750   20.4180 C   0  0  0  0  0  3  0  0  0  0  0  0
  -30.2390  -20.1530   19.0750 C   0  0  0  0  0  2  0  0  0  0  0  0
  -29.0570  -19.8060   21.1620 C   0  0  0  0  0  2  0  0  0  0  0  0
  -29.5060  -21.5620   18.9090 C   0  0  0  0  0  2  0  0  0  0  0  0
  -28.3870  -21.2550   20.9780 C   0  0  0  0  0  2  0  0  0  0  0  0
  -29.5270  -18.9940   19.8820 C   0  0  0  0  0  3  0  0  0  0  0  0
  -29.1800  -22.2350   20.1890 N   0  0  0  0  0  0  0  0  0  0  0  0
  -31.4980  -17.8590   21.1970 C   0  0  0  0  0  1  0  0  0  0  0  0
  -30.4740  -17.6300   20.0690 C   0  0  0  0  0  3  0  0  0  0  0  0
  -30.6690  -14.9710   19.9140 C   0  0  0  0  0  0  0  0  0  0  0  0
  -30.4160  -12.6650   18.9500 C   0  0  0  0  0  2  0  0  0  0  0  0
  -29.4140  -12.6880   17.7760 C   0  0  0  0  0  2  0  0  0  0  0  0
  -27.9750  -12.4990   18.2940 C   0  0  0  0  0  2  0  0  0  0  0  0
  -27.6570  -13.4050   19.5130 C   0  0  0  0  0  3  0  0  0  0  0  0
  -28.7800  -13.3750   20.5730 C   0  0  0  0  0  2  0  0  0  0  0  0
  -30.0260  -13.7460   19.8930 N   0  0  0  0  0  0  0  0  0  0  0  0
  -31.8410  -15.0170   19.5330 O   0  0  0  0  0  0  0  0  0  0  0  0
  -29.9610  -16.1630   20.1570 N   0  0  0  0  0  0  0  0  0  0  0  0
  -28.9880  -16.0480   20.3970 H   0  0  0  0  0  0  0  0  0  0  0  0
  -25.3350  -13.9850   20.4230 C   0  0  0  0  0  0  0  0  0  0  0  0
  -24.2890  -13.2070   20.8380 C   0  0  0  0  0  0  0  0  0  0  0  0
  -24.7360  -11.8550   20.7350 C   0  0  0  0  0  0  0  0  0  0  0  0
  -26.3510  -13.1060   20.0890 N   0  0  0  0  0  0  0  0  0  0  0  0
  -26.0030  -11.8180   20.3410 N   0  0  0  0  0  0  0  0  0  0  0  0
  -24.0110  -10.5930   20.9330 C   0  0  0  0  0  0  0  0  0  0  0  0
  -24.4510   -9.6240   21.8620 C   0  0  0  0  0  3  0  0  0  0  0  0
  -23.7230   -8.4280   22.0490 C   0  0  0  0  0  3  0  0  0  0  0  0
  -22.5410   -8.1930   21.3060 C   0  0  0  0  0  0  0  0  0  0  0  0
  -22.1210   -9.1510   20.3660 C   0  0  0  0  0  3  0  0  0  0  0  0
  -22.8490  -10.3370   20.1780 C   0  0  0  0  0  3  0  0  0  0  0  0
  -21.7860   -7.0490   21.4010 O   0  0  0  0  0  0  0  0  0  0  0  0
  -21.6970   -6.3400   22.5720 C   0  0  0  0  0  0  0  0  0  0  0  0
  -21.1990   -6.9200   23.7580 C   0  0  0  0  0  3  0  0  0  0  0  0
  -21.0590   -6.1370   24.9210 C   0  0  0  0  0  3  0  0  0  0  0  0
  -21.4090   -4.7730   24.8980 C   0  0  0  0  0  0  0  0  0  0  0  0
  -21.9020   -4.1920   23.7160 C   0  0  0  0  0  3  0  0  0  0  0  0
  -22.0430   -4.9740   22.5560 C   0  0  0  0  0  0  0  0  0  0  0  0
  -22.4960   -4.4040   21.4140 F   0  0  0  0  0  0  0  0  0  0  0  0
  -21.2690   -4.0180   26.0130 F   0  0  0  0  0  0  0  0  0  0  0  0
  -22.9170  -13.6870   21.2120 C   0  0  0  0  0  0  0  0  0  0  0  0
  -22.2380  -12.9720   22.1020 N   0  0  0  0  0  0  0  0  0  0  0  0
  -22.4590  -14.7330   20.7530 O   0  0  0  0  0  0  0  0  0  0  0  0
  -22.6230  -12.1280   22.4970 H   0  0  0  0  0  0  0  0  0  0  0  0
  -21.3210  -13.2760   22.3940 H   0  0  0  0  0  0  0  0  0  0  0  0
  -25.4990  -15.3600   20.2790 N   0  0  0  0  0  0  0  0  0  0  0  0
  -24.7440  -16.0120   20.4590 H   0  0  0  0  0  0  0  0  0  0  0  0
  -26.3190  -15.8040   19.8870 H   0  0  0  0  0  0  0  0  0  0  0  0
  -30.6000  -24.2740   20.0180 C   0  0  0  0  0  2  0  0  0  0  0  0
  -32.3780  -25.9300   20.4950 C   0  0  0  0  0  1  0  0  0  0  0  0
  -31.0720  -25.3680   20.8910 N   0  0  0  0  0  4  0  0  0  0  0  0
  -30.3860  -26.1080   20.8780 H   0  0  0  0  0  0  0  0  0  0  0  0
  -31.1430  -25.0260   21.8350 H   0  0  0  0  0  0  0  0  0  0  0  0
  -28.0940  -24.9050   19.9320 C   0  0  0  0  0  2  0  0  0  0  0  0
  -28.2810  -26.3910   20.2600 O   0  0  0  0  0  0  0  0  0  0  0  0
  -24.6050  -31.9220   23.3130 C   0  0  0  0  0  0  0  0  0  0  0  0
  -27.1970  -27.3190   20.2000 C   0  0  0  0  0  0  0  0  0  0  0  0
  -23.4020  -30.5470   21.6560 C   0  0  0  0  0  3  0  0  0  0  0  0
  -24.8510  -29.0060   20.2030 C   0  0  0  0  0  0  0  0  0  0  0  0
  -25.9500  -30.8410   21.4830 C   0  0  0  0  0  2  0  0  0  0  0  0
  -26.0260  -29.4640   20.8110 C   0  0  0  0  0  0  0  0  0  0  0  0
  -27.2010  -28.6340   20.7970 C   0  0  0  0  0  3  0  0  0  0  0  0
  -25.9980  -26.9470   19.5530 C   0  0  0  0  0  3  0  0  0  0  0  0
  -24.8460  -27.7590   19.5600 C   0  0  0  0  0  3  0  0  0  0  0  0
  -23.6190  -29.8910   20.2670 C   0  0  0  0  0  2  0  0  0  0  0  0
  -24.6710  -31.1220   22.2060 N   0  0  0  0  0  0  0  0  0  0  0  0
  -23.5200  -32.1940   23.8500 O   0  0  0  0  0  0  0  0  0  0  0  0
  -22.7340  -29.5210   22.6040 C   0  0  0  0  0  0  0  0  0  0  0  0
  -21.4090  -29.3360   22.4680 N   0  0  0  0  0  0  0  0  0  0  0  0
  -23.4090  -28.8930   23.4240 O   0  0  0  0  0  0  0  0  0  0  0  0
  -20.9220  -29.8950   21.7810 H   0  0  0  0  0  0  0  0  0  0  0  0
  -18.0370  -28.1030   22.9360 C   0  0  0  0  0  0  0  0  0  0  0  0
  -20.5920  -28.3860   23.2250 C   0  0  0  0  0  3  0  0  0  0  0  0
  -20.7110  -26.9590   22.6410 C   0  0  0  0  0  2  0  0  0  0  0  0
  -19.6200  -26.6330   21.6170 C   0  0  0  0  0  2  0  0  0  0  0  0
  -18.2320  -26.7600   22.2510 C   0  0  0  0  0  2  0  0  0  0  0  0
  -19.1450  -28.8730   23.3790 C   0  0  0  0  0  0  0  0  0  0  0  0
  -18.9080  -30.1280   23.9810 C   0  0  0  0  0  3  0  0  0  0  0  0
  -17.5970  -30.6140   24.1410 C   0  0  0  0  0  3  0  0  0  0  0  0
  -16.5040  -29.8410   23.7120 C   0  0  0  0  0  3  0  0  0  0  0  0
  -16.7250  -28.5870   23.1150 C   0  0  0  0  0  3  0  0  0  0  0  0
  -25.8850  -32.5490   23.9440 C   0  0  0  0  0  3  0  0  0  0  0  0
  -25.5840  -33.9540   24.2610 N   0  0  0  0  0  0  0  0  0  0  0  0
  -25.9060  -34.9970   23.4840 C   0  0  0  0  0  0  0  0  0  0  0  0
  -26.5550  -34.8780   22.4410 O   0  0  0  0  0  0  0  0  0  0  0  0
  -25.0050  -34.1200   25.0700 H   0  0  0  0  0  0  0  0  0  0  0  0
  -24.1650  -36.7850   23.1600 C   0  0  0  0  0  1  0  0  0  0  0  0
  -25.4340  -36.3940   23.9340 C   0  0  0  0  0  3  0  0  0  0  0  0
  -27.5910  -37.3000   24.6800 C   0  0  0  0  0  1  0  0  0  0  0  0
  -26.4610  -37.4450   23.7660 N   0  0  0  0  0  0  0  0  0  0  0  0
  -26.0580  -38.3680   23.9020 H   0  0  0  0  0  0  0  0  0  0  0  0
  -26.3760  -31.7870   25.2360 C   0  0  1  0  0  0  0  0  0  0  0  0
  -25.2660  -31.5690   26.2920 C   0  0  0  0  0  1  0  0  0  0  0  0
  -26.9530  -30.3990   24.8690 C   0  0  0  0  0  1  0  0  0  0  0  0
  -27.5240  -32.5780   25.9060 C   0  0  0  0  0  1  0  0  0  0  0  0
  1 53  1  0
  2  6  1  0
  4  2  1  0
  4  7  1  0
  5  3  1  0
  6  9  1  0
  6  3  1  0
  7  1  1  0
  7  5  1  0
  9 18  1  0
  9  8  1  0
 10 18  1  0
 11 16  1  0
 12 13  1  0
 12 11  1  0
 14 13  1  0
 14 23  1  0
 14 15  1  0
 16 10  1  0
 16 15  1  0
 17 10  2  0
 18 19  1  0
 20 21  2  0
 21 40  1  0
 22 21  1  0
 22 25  1  0
 23 24  1  0
 23 20  1  0
 24 22  2  0
 25 26  1  0
 26 27  2  0
 28 31  1  0
 28 27  1  0
 29 28  2  0
 30 29  1  0
 30 25  2  0
 31 32  1  0
 32 33  1  0
 33 34  2  0
 35 34  1  0
 35 39  1  0
 36 35  2  0
 37 32  2  0
 37 36  1  0
 38 37  1  0
 40 41  1  0
 41 44  1  0
 41 43  1  0
 42 40  2  0
 45 20  1  0
 45 46  1  0
 47 45  1  0
 48  1  1  0
 48 50  1  0
 49 50  1  0
 50 52  1  0
 51 50  1  0
 53 54  1  0
 55 66  2  0
 56 54  1  0
 56 61  1  0
 57 65  1  0
 57 67  1  0
 58 64  1  0
 58 60  1  0
 59 65  1  0
 60 59  1  0
 61 60  2  0
 62 63  1  0
 62 56  2  0
 63 58  2  0
 64 57  1  0
 65 55  1  0
 67 69  2  0
 68 67  1  0
 70 68  1  0
 71 80  2  0
 71 76  1  0
 72 68  1  0
 72 76  1  0
 73 72  1  0
 74 75  1  0
 74 73  1  0
 75 71  1  0
 76 77  2  0
 77 78  1  0
 79 78  2  0
 80 79  1  0
 81 55  1  0
 81 82  1  0
 81 91  1  0
 82 85  1  0
 83 87  1  0
 83 82  1  0
 84 83  2  0
 87 86  1  0
 89 90  1  0
 89 87  1  0
 89 88  1  0
 91 94  1  1
 91 92  1  0
 93 91  1  0
M  ISO  4  10 100  18 100  53 101  54 101
M  END
>  <TORSDO>  (28) 
F 21

>  <SCORE>  (28) 
-13.321

>  <name>  (28) 
27

>  <ligand_id>  (28) 
27

>  <original_smiles>  (28) 
[H]c1c([H])c([H])c2c(c1[H])C([H])([H])C([H])([H])C([H])([H])C2([H])N([H])C(=O)C1([H])N(C(=O)C([H])(N([H])C(=O)C([H])(N([H])C([H])([H])[H])C([H])([H])[H])C(C([H])([H])[H])(C([H])([H])[H])C([H])([H])[H])C([H])([H])c2c([H])c(OC([H])([H])C([H])(N3C([H])([H])C([H])([H])C([H])(C([H])(N([H])C(=O)N4C([H])([H])C([H])([H])C([H])([H])C([H])(n5nc(-c6c([H])c([H])c(Oc7c([H])c([H])c(F)c([H])c7F)c([H])c6[H])c(C(=O)N([H])[H])c5N([H])[H])C4([H])[H])C([H])([H])[H])C([H])([H])C3([H])[H])C([H])([H])[N+]([H])([H])C([H])([H])[H])c([H])c([H])c2C1([H])[H]

>  <smiles>  (28) 
[H]c1c([H])c([H])c2c(c1[H])C([H])([H])C([H])([H])C([H])([H])C2([H])N([H])C(=O)C1([H])N(C(=O)C([H])(N([H])C(=O)C([H])(N([H])C([H])([H])[H])C([H])([H])[H])C(C([H])([H])[H])(C([H])([H])[H])C([H])([H])[H])C([H])([H])c2c([H])c(OC([H])([H])C([H])(N3C([H])([H])C([H])([H])C([H])(C([H])(N([H])C(=O)N4C([H])([H])C([H])([H])C([H])([H])C([H])(n5nc(-c6c([H])c([H])c(Oc7c([H])c([H])c(F)c([H])c7F)c([H])c6[H])c(C(=O)N([H])[H])c5N([H])[H])C4([H])[H])C([H])([H])[H])C([H])([H])C3([H])[H])C([H])([H])[N+]([H])([H])C([H])([H])[H])c([H])c([H])c2C1([H])[H]

$$$$
28:0:0
     RDKit          3D

 96104  0  0  1  0  0  0  0  0999 V2000
  -29.6510  -22.2730   19.1210 C   0  0  0  0  0  3  0  0  0  0  0  0
  -27.8590  -21.6520   20.4120 C   0  0  0  0  0  3  0  0  0  0  0  0
  -28.4910  -22.8170   19.7980 C   0  0  0  0  0  0  0  0  0  0  0  0
  -30.1130  -20.8590   19.0930 C   0  0  0  0  0  0  0  0  0  0  0  0
  -29.4780  -19.6930   19.7240 C   0  0  0  0  0  0  0  0  0  0  0  0
  -28.3000  -20.2310   20.3950 C   0  0  0  0  0  0  0  0  0  0  0  0
  -31.4040  -20.6200   18.3260 C   0  0  0  0  0  1  0  0  0  0  0  0
  -27.5160  -19.3300   21.1080 N   0  0  0  0  0  0  0  0  0  0  0  0
  -26.5690  -19.6090   21.3460 H   0  0  0  0  0  0  0  0  0  0  0  0
  -27.5660  -18.3490   20.8580 H   0  0  0  0  0  0  0  0  0  0  0  0
  -27.7520  -24.3790   19.6150 C   0  0  0  0  0  2  0  0  0  0  0  0
  -28.1070  -25.9240   19.9720 O   0  0  0  0  0  0  0  0  0  0  0  0
  -24.5360  -31.7650   23.0890 C   0  0  0  0  0  0  0  0  0  0  0  0
  -27.1050  -27.0180   19.9310 C   0  0  0  0  0  0  0  0  0  0  0  0
  -23.3370  -30.3980   21.4310 C   0  0  0  0  0  3  0  0  0  0  0  0
  -24.7850  -28.8540   19.9530 C   0  0  0  0  0  0  0  0  0  0  0  0
  -25.8970  -30.6490   21.2590 C   0  0  0  0  0  2  0  0  0  0  0  0
  -25.9750  -29.2590   20.5710 C   0  0  0  0  0  0  0  0  0  0  0  0
  -27.1310  -28.3630   20.5390 C   0  0  0  0  0  3  0  0  0  0  0  0
  -25.8840  -26.7620   19.2630 C   0  0  0  0  0  3  0  0  0  0  0  0
  -24.7620  -27.6250   19.2800 C   0  0  0  0  0  3  0  0  0  0  0  0
  -23.5560  -29.7540   20.0360 C   0  0  0  0  0  2  0  0  0  0  0  0
  -24.6120  -30.9610   21.9800 N   0  0  0  0  0  0  0  0  0  0  0  0
  -23.4490  -32.0290   23.6290 O   0  0  0  0  0  0  0  0  0  0  0  0
  -22.6670  -29.3670   22.3780 C   0  0  0  0  0  0  0  0  0  0  0  0
  -21.3370  -29.1950   22.2670 N   0  0  0  0  0  0  0  0  0  0  0  0
  -23.3500  -28.7260   23.1800 O   0  0  0  0  0  0  0  0  0  0  0  0
  -20.8380  -29.7650   21.5970 H   0  0  0  0  0  0  0  0  0  0  0  0
  -17.9670  -27.9680   22.8090 C   0  0  0  0  0  0  0  0  0  0  0  0
  -20.5310  -28.2330   23.0260 C   0  0  0  0  0  3  0  0  0  0  0  0
  -20.6230  -26.8190   22.4050 C   0  0  0  0  0  2  0  0  0  0  0  0
  -19.5010  -26.5240   21.4060 C   0  0  0  0  0  2  0  0  0  0  0  0
  -18.1320  -26.6440   22.0830 C   0  0  0  0  0  2  0  0  0  0  0  0
  -19.0920  -28.7200   23.2380 C   0  0  0  0  0  0  0  0  0  0  0  0
  -18.8810  -29.9600   23.8810 C   0  0  0  0  0  3  0  0  0  0  0  0
  -17.5770  -30.4460   24.0970 C   0  0  0  0  0  3  0  0  0  0  0  0
  -16.4670  -29.6910   23.6810 C   0  0  0  0  0  3  0  0  0  0  0  0
  -16.6630  -28.4530   23.0440 C   0  0  0  0  0  3  0  0  0  0  0  0
  -25.8080  -32.4050   23.7210 C   0  0  0  0  0  3  0  0  0  0  0  0
  -25.4880  -33.7980   24.0740 N   0  0  0  0  0  0  0  0  0  0  0  0
  -25.7930  -34.8700   23.3290 C   0  0  0  0  0  0  0  0  0  0  0  0
  -26.4410  -34.7890   22.2830 O   0  0  0  0  0  0  0  0  0  0  0  0
  -24.9150  -33.9340   24.8930 H   0  0  0  0  0  0  0  0  0  0  0  0
  -24.0380  -36.6540   23.0560 C   0  0  0  0  0  1  0  0  0  0  0  0
  -25.3060  -36.2470   23.8240 C   0  0  0  0  0  3  0  0  0  0  0  0
  -27.4530  -37.1460   24.6090 C   0  0  0  0  0  1  0  0  0  0  0  0
  -26.3220  -37.3150   23.6990 N   0  0  0  0  0  0  0  0  0  0  0  0
  -25.9090  -38.2270   23.8770 H   0  0  0  0  0  0  0  0  0  0  0  0
  -26.3240  -31.6280   24.9960 C   0  0  1  0  0  0  0  0  0  0  0  0
  -25.2270  -31.3770   26.0580 C   0  0  0  0  0  1  0  0  0  0  0  0
  -26.9170  -30.2550   24.6030 C   0  0  0  0  0  1  0  0  0  0  0  0
  -27.4670  -32.4240   25.6670 C   0  0  0  0  0  1  0  0  0  0  0  0
  -30.2380  -18.1270   19.8780 C   0  0  0  0  0  0  0  0  0  0  0  0
  -30.4530  -15.2530   19.7210 C   0  0  0  0  0  0  0  0  0  0  0  0
  -30.3100  -12.8320   18.8560 C   0  0  0  0  0  2  0  0  0  0  0  0
  -29.2890  -12.6480   17.7060 C   0  0  0  0  0  2  0  0  0  0  0  0
  -27.8790  -12.4000   18.2680 C   0  0  0  0  0  2  0  0  0  0  0  0
  -27.5320  -13.3720   19.4240 C   0  0  0  0  0  3  0  0  0  0  0  0
  -28.6690  -13.5070   20.4580 C   0  0  0  0  0  2  0  0  0  0  0  0
  -29.8530  -13.9740   19.7210 N   0  0  0  0  0  0  0  0  0  0  0  0
  -31.6510  -15.2490   19.4070 O   0  0  0  0  0  0  0  0  0  0  0  0
  -29.7660  -16.5390   19.9190 N   0  0  0  0  0  4  0  0  0  0  0  0
  -28.7800  -16.4220   20.1000 H   0  0  0  0  0  0  0  0  0  0  0  0
  -25.2560  -13.9460   20.4230 C   0  0  0  0  0  0  0  0  0  0  0  0
  -24.2160  -13.1730   20.8570 C   0  0  0  0  0  0  0  0  0  0  0  0
  -24.6470  -11.8180   20.7270 C   0  0  0  0  0  0  0  0  0  0  0  0
  -26.2510  -13.0630   20.0450 N   0  0  0  0  0  0  0  0  0  0  0  0
  -25.9040  -11.7740   20.2960 N   0  0  0  0  0  0  0  0  0  0  0  0
  -23.9130  -10.5620   20.9280 C   0  0  0  0  0  0  0  0  0  0  0  0
  -24.3580   -9.5830   21.8440 C   0  0  0  0  0  3  0  0  0  0  0  0
  -23.6200   -8.3950   22.0350 C   0  0  0  0  0  3  0  0  0  0  0  0
  -22.4240   -8.1780   21.3120 C   0  0  0  0  0  0  0  0  0  0  0  0
  -21.9990   -9.1440   20.3840 C   0  0  0  0  0  3  0  0  0  0  0  0
  -22.7370  -10.3230   20.1900 C   0  0  0  0  0  3  0  0  0  0  0  0
  -21.6580   -7.0420   21.4140 O   0  0  0  0  0  0  0  0  0  0  0  0
  -21.5760   -6.3310   22.5830 C   0  0  0  0  0  0  0  0  0  0  0  0
  -21.1100   -6.9180   23.7810 C   0  0  0  0  0  3  0  0  0  0  0  0
  -20.9780   -6.1330   24.9440 C   0  0  0  0  0  3  0  0  0  0  0  0
  -21.2990   -4.7620   24.9110 C   0  0  0  0  0  0  0  0  0  0  0  0
  -21.7580   -4.1750   23.7180 C   0  0  0  0  0  3  0  0  0  0  0  0
  -21.8920   -4.9580   22.5570 C   0  0  0  0  0  0  0  0  0  0  0  0
  -22.3140   -4.3820   21.4050 F   0  0  0  0  0  0  0  0  0  0  0  0
  -21.1640   -4.0070   26.0250 F   0  0  0  0  0  0  0  0  0  0  0  0
  -22.8600  -13.6650   21.2710 C   0  0  0  0  0  0  0  0  0  0  0  0
  -22.1970  -12.9460   22.1690 N   0  0  0  0  0  0  0  0  0  0  0  0
  -22.4020  -14.7210   20.8340 O   0  0  0  0  0  0  0  0  0  0  0  0
  -22.5820  -12.0910   22.5420 H   0  0  0  0  0  0  0  0  0  0  0  0
  -21.2920  -13.2560   22.4920 H   0  0  0  0  0  0  0  0  0  0  0  0
  -25.4310  -15.3200   20.2880 N   0  0  0  0  0  0  0  0  0  0  0  0
  -24.6890  -15.9790   20.4990 H   0  0  0  0  0  0  0  0  0  0  0  0
  -26.2390  -15.7580   19.8640 H   0  0  0  0  0  0  0  0  0  0  0  0
  -31.2970  -18.3820   20.9880 C   0  0  0  0  0  2  0  0  0  0  0  0
  -32.1620  -17.2420   21.3350 N   0  0  0  0  0  4  0  0  0  0  0  0
  -31.7870  -16.7590   22.1310 H   0  0  0  0  0  0  0  0  0  0  0  0
  -33.0860  -17.5590   21.5630 H   0  0  0  0  0  0  0  0  0  0  0  0
  -32.2130  -16.5870   20.5600 H   0  0  0  0  0  0  0  0  0  0  0  0
  1  3  1  0
  3  2  2  0
  4  1  2  0
  4  5  1  0
  5 53  1  0
  5  6  2  0
  6  2  1  0
  6  8  1  0
  7  4  1  0
  8  9  1  0
 10  8  1  0
 11  3  1  0
 11 12  1  0
 13 24  2  0
 14 12  1  0
 14 19  1  0
 15 23  1  0
 15 25  1  0
 16 22  1  0
 16 18  1  0
 17 23  1  0
 18 17  1  0
 19 18  2  0
 20 21  1  0
 20 14  2  0
 21 16  2  0
 22 15  1  0
 23 13  1  0
 25 27  2  0
 26 25  1  0
 28 26  1  0
 29 38  2  0
 29 34  1  0
 30 26  1  0
 30 34  1  0
 31 30  1  0
 32 33  1  0
 32 31  1  0
 33 29  1  0
 34 35  2  0
 35 36  1  0
 37 36  2  0
 38 37  1  0
 39 13  1  0
 39 40  1  0
 39 49  1  0
 40 43  1  0
 41 45  1  0
 41 40  1  0
 42 41  2  0
 45 44  1  0
 47 45  1  0
 47 48  1  0
 47 46  1  0
 49 52  1  1
 49 50  1  0
 51 49  1  0
 53 62  2  0
 53 92  1  0
 54 62  1  0
 55 60  1  0
 56 57  1  0
 56 55  1  0
 58 57  1  0
 58 67  1  0
 58 59  1  0
 60 54  1  0
 60 59  1  0
 61 54  2  0
 62 63  1  0
 64 65  2  0
 65 84  1  0
 66 65  1  0
 66 69  1  0
 67 68  1  0
 67 64  1  0
 68 66  2  0
 69 70  1  0
 70 71  2  0
 72 75  1  0
 72 71  1  0
 73 72  2  0
 74 73  1  0
 74 69  2  0
 75 76  1  0
 76 77  1  0
 77 78  2  0
 79 78  1  0
 79 83  1  0
 80 79  2  0
 81 76  2  0
 81 80  1  0
 82 81  1  0
 84 85  1  0
 85 88  1  0
 85 87  1  0
 86 84  2  0
 89 64  1  0
 89 90  1  0
 91 89  1  0
 92 93  1  0
 93 95  1  0
 93 94  1  0
 96 93  1  0
M  ISO  4  11 101  12 101  54 100  62 100
M  END
>  <TORSDO>  (29) 
F 21

>  <SCORE>  (29) 
-13.678

>  <name>  (29) 
28

>  <ligand_id>  (29) 
28

>  <original_smiles>  (29) 
[H]c1c([H])c([H])c2c(c1[H])C([H])([H])C([H])([H])C([H])([H])C2([H])N([H])C(=O)C1([H])N(C(=O)C([H])(N([H])C(=O)C([H])(N([H])C([H])([H])[H])C([H])([H])[H])C(C([H])([H])[H])(C([H])([H])[H])C([H])([H])[H])C([H])([H])c2c([H])c(OC([H])([H])c3c([H])c(N([H])[H])c(C([H])(N([H])C(=O)N4C([H])([H])C([H])([H])C([H])([H])C([H])(n5nc(-c6c([H])c([H])c(Oc7c([H])c([H])c(F)c([H])c7F)c([H])c6[H])c(C(=O)N([H])[H])c5N([H])[H])C4([H])[H])C([H])([H])[N+]([H])([H])[H])c(C([H])([H])[H])c3[H])c([H])c([H])c2C1([H])[H]

>  <smiles>  (29) 
[H]c1c([H])c([H])c2c(c1[H])C([H])([H])C([H])([H])C([H])([H])C2([H])N([H])C(=O)C1([H])N(C(=O)C([H])(N([H])C(=O)C([H])(N([H])C([H])([H])[H])C([H])([H])[H])C(C([H])([H])[H])(C([H])([H])[H])C([H])([H])[H])C([H])([H])c2c([H])c(OC([H])([H])c3c([H])c(N([H])[H])c(C([H])(N([H])C(=O)N4C([H])([H])C([H])([H])C([H])([H])C([H])(n5nc(-c6c([H])c([H])c(Oc7c([H])c([H])c(F)c([H])c7F)c([H])c6[H])c(C(=O)N([H])[H])c5N([H])[H])C4([H])[H])C([H])([H])[N+]([H])([H])[H])c(C([H])([H])[H])c3[H])c([H])c([H])c2C1([H])[H]

$$$$
29:0:0
     RDKit          3D

 97106  0  0  1  0  0  0  0  0999 V2000
  -29.0370  -21.6090   21.2490 C   0  0  0  0  0  0  0  0  0  0  0  0
  -29.7950  -20.5250   21.5060 N   0  0  0  0  0  0  0  0  0  0  0  0
  -28.2080  -21.6440   20.3350 O   0  0  0  0  0  0  0  0  0  0  0  0
  -30.2840  -20.5130   22.3910 H   0  0  0  0  0  0  0  0  0  0  0  0
  -30.7510  -18.7240   18.3740 C   0  0  0  0  0  3  0  0  0  0  0  0
  -30.4190  -19.7450   19.2720 C   0  0  0  0  0  3  0  0  0  0  0  0
  -30.7540  -17.3890   18.8020 C   0  0  0  0  0  3  0  0  0  0  0  0
  -30.0790  -18.0910   21.0500 C   0  0  0  0  0  0  0  0  0  0  0  0
  -30.0690  -19.4470   20.6090 C   0  0  0  0  0  0  0  0  0  0  0  0
  -30.4350  -17.0480   20.1410 C   0  0  0  0  0  0  0  0  0  0  0  0
  -29.7210  -17.7580   22.4950 C   0  0  0  0  0  1  0  0  0  0  0  0
  -31.0880  -14.6530   19.9810 C   0  0  0  0  0  0  0  0  0  0  0  0
  -30.7460  -12.4730   18.8950 C   0  0  0  0  0  2  0  0  0  0  0  0
  -29.7360  -12.6620   17.7450 C   0  0  0  0  0  2  0  0  0  0  0  0
  -28.2890  -12.5220   18.2590 C   0  0  0  0  0  2  0  0  0  0  0  0
  -28.0200  -13.3700   19.5310 C   0  0  0  0  0  3  0  0  0  0  0  0
  -29.1390  -13.1680   20.5780 C   0  0  0  0  0  2  0  0  0  0  0  0
  -30.4300  -13.4640   19.9350 N   0  0  0  0  0  0  0  0  0  0  0  0
  -32.1850  -14.8270   19.4410 O   0  0  0  0  0  0  0  0  0  0  0  0
  -30.4100  -15.6730   20.5470 N   0  0  0  0  0  0  0  0  0  0  0  0
  -29.6430  -15.4020   21.1420 H   0  0  0  0  0  0  0  0  0  0  0  0
  -25.6870  -13.9700   20.4410 C   0  0  0  0  0  0  0  0  0  0  0  0
  -24.6370  -13.1920   20.8500 C   0  0  0  0  0  0  0  0  0  0  0  0
  -25.0750  -11.8380   20.7220 C   0  0  0  0  0  0  0  0  0  0  0  0
  -26.7000  -13.0890   20.0920 N   0  0  0  0  0  0  0  0  0  0  0  0
  -26.3390  -11.8000   20.3170 N   0  0  0  0  0  0  0  0  0  0  0  0
  -24.3460  -10.5760   20.9090 C   0  0  0  0  0  0  0  0  0  0  0  0
  -24.7600   -9.6190   21.8610 C   0  0  0  0  0  3  0  0  0  0  0  0
  -24.0330   -8.4200   22.0340 C   0  0  0  0  0  3  0  0  0  0  0  0
  -22.8790   -8.1720   21.2540 C   0  0  0  0  0  0  0  0  0  0  0  0
  -22.4850   -9.1180   20.2910 C   0  0  0  0  0  3  0  0  0  0  0  0
  -23.2120  -10.3070   20.1160 C   0  0  0  0  0  3  0  0  0  0  0  0
  -22.1260   -7.0250   21.3350 O   0  0  0  0  0  0  0  0  0  0  0  0
  -21.9320   -6.3740   22.5260 C   0  0  0  0  0  0  0  0  0  0  0  0
  -21.3330   -7.0100   23.6350 C   0  0  0  0  0  3  0  0  0  0  0  0
  -21.0900   -6.2840   24.8170 C   0  0  0  0  0  3  0  0  0  0  0  0
  -21.4350   -4.9210   24.8900 C   0  0  0  0  0  0  0  0  0  0  0  0
  -22.0260   -4.2840   23.7850 C   0  0  0  0  0  3  0  0  0  0  0  0
  -22.2710   -5.0080   22.6060 C   0  0  0  0  0  0  0  0  0  0  0  0
  -22.8210   -4.3840   21.5370 F   0  0  0  0  0  0  0  0  0  0  0  0
  -21.1940   -4.2200   26.0240 F   0  0  0  0  0  0  0  0  0  0  0  0
  -23.2700  -13.6700   21.2480 C   0  0  0  0  0  0  0  0  0  0  0  0
  -22.6040  -12.9510   22.1440 N   0  0  0  0  0  0  0  0  0  0  0  0
  -22.8020  -14.7150   20.7970 O   0  0  0  0  0  0  0  0  0  0  0  0
  -22.9940  -12.1030   22.5290 H   0  0  0  0  0  0  0  0  0  0  0  0
  -21.6900  -13.2530   22.4520 H   0  0  0  0  0  0  0  0  0  0  0  0
  -25.8610  -15.3460   20.3190 N   0  0  0  0  0  0  0  0  0  0  0  0
  -25.1210  -16.0080   20.5320 H   0  0  0  0  0  0  0  0  0  0  0  0
  -26.7000  -15.7890   19.9660 H   0  0  0  0  0  0  0  0  0  0  0  0
  -27.8850  -23.4390   22.6680 C   0  0  0  0  0  2  0  0  0  0  0  0
  -29.8930  -23.9980   21.3880 C   0  0  0  0  0  2  0  0  0  0  0  0
  -29.2200  -22.8390   22.1610 C   0  0  0  0  0  3  0  0  0  0  0  0
  -27.8820  -24.9270   22.2670 C   0  0  0  0  0  3  0  0  0  0  0  0
  -28.7680  -24.9770   21.0150 C   0  0  0  0  0  3  0  0  0  0  0  0
  -26.4710  -25.5000   22.0810 C   0  0  0  0  0  1  0  0  0  0  0  0
  -29.2710  -26.3810   20.5930 C   0  0  0  0  0  2  0  0  0  0  0  0
  -28.6410  -26.8010   19.3790 O   0  0  0  0  0  0  0  0  0  0  0  0
  -24.7500  -31.5580   22.9880 C   0  0  0  0  0  0  0  0  0  0  0  0
  -27.4580  -27.4820   19.5190 C   0  0  0  0  0  0  0  0  0  0  0  0
  -23.5380  -30.2250   21.2900 C   0  0  0  0  0  3  0  0  0  0  0  0
  -25.0010  -28.8530   19.7120 C   0  0  0  0  0  0  0  0  0  0  0  0
  -26.0330  -30.7120   21.0300 C   0  0  0  0  0  2  0  0  0  0  0  0
  -26.1520  -29.3910   20.3020 C   0  0  0  0  0  0  0  0  0  0  0  0
  -27.3840  -28.7090   20.2130 C   0  0  0  0  0  3  0  0  0  0  0  0
  -26.3010  -26.9580   18.9110 C   0  0  0  0  0  3  0  0  0  0  0  0
  -25.0690  -27.6310   19.0170 C   0  0  0  0  0  3  0  0  0  0  0  0
  -23.7240  -29.6480   19.8590 C   0  0  0  0  0  2  0  0  0  0  0  0
  -24.7920  -30.8420   21.8290 N   0  0  0  0  0  0  0  0  0  0  0  0
  -23.6820  -31.7450   23.5870 O   0  0  0  0  0  0  0  0  0  0  0  0
  -22.9660  -29.1130   22.1980 C   0  0  0  0  0  0  0  0  0  0  0  0
  -21.6470  -28.8820   22.1000 N   0  0  0  0  0  0  0  0  0  0  0  0
  -23.7030  -28.4640   22.9450 O   0  0  0  0  0  0  0  0  0  0  0  0
  -21.1100  -29.4610   21.4690 H   0  0  0  0  0  0  0  0  0  0  0  0
  -18.3450  -27.5060   22.6110 C   0  0  0  0  0  0  0  0  0  0  0  0
  -20.8960  -27.8610   22.8290 C   0  0  0  0  0  3  0  0  0  0  0  0
  -21.0450  -26.4770   22.1560 C   0  0  0  0  0  2  0  0  0  0  0  0
  -19.9280  -26.1720   21.1540 C   0  0  0  0  0  2  0  0  0  0  0  0
  -18.5610  -26.2130   21.8430 C   0  0  0  0  0  2  0  0  0  0  0  0
  -19.4430  -28.2880   23.0610 C   0  0  0  0  0  0  0  0  0  0  0  0
  -19.1890  -29.4990   23.7400 C   0  0  0  0  0  3  0  0  0  0  0  0
  -17.8700  -29.9310   23.9740 C   0  0  0  0  0  3  0  0  0  0  0  0
  -16.7870  -29.1450   23.5430 C   0  0  0  0  0  3  0  0  0  0  0  0
  -17.0250  -27.9350   22.8660 C   0  0  0  0  0  3  0  0  0  0  0  0
  -26.0350  -32.1970   23.6030 C   0  0  0  0  0  3  0  0  0  0  0  0
  -26.6280  -31.3640   24.8070 C   0  0  1  0  0  0  0  0  0  0  0  0
  -25.5860  -31.0220   25.8980 C   0  0  0  0  0  1  0  0  0  0  0  0
  -27.2370  -30.0340   24.3040 C   0  0  0  0  0  1  0  0  0  0  0  0
  -27.7780  -32.1550   25.4760 C   0  0  0  0  0  1  0  0  0  0  0  0
  -25.6930  -33.5600   24.0300 N   0  0  0  0  0  0  0  0  0  0  0  0
  -25.9730  -34.6680   23.3320 C   0  0  0  0  0  0  0  0  0  0  0  0
  -26.6220  -34.6520   22.2820 O   0  0  0  0  0  0  0  0  0  0  0  0
  -25.1190  -33.6430   24.8560 H   0  0  0  0  0  0  0  0  0  0  0  0
  -24.1790  -36.4170   23.1250 C   0  0  0  0  0  1  0  0  0  0  0  0
  -25.4500  -36.0070   23.8850 C   0  0  0  0  0  3  0  0  0  0  0  0
  -27.5700  -36.9140   24.7290 C   0  0  0  0  0  1  0  0  0  0  0  0
  -26.4450  -37.1010   23.8170 N   0  0  0  0  0  0  0  0  0  0  0  0
  -26.0110  -37.9950   24.0320 H   0  0  0  0  0  0  0  0  0  0  0  0
  1  2  1  0
  2  4  1  0
  3  1  2  0
  5  7  2  0
  5  6  1  0
  6  9  2  0
  7 10  1  0
  8 11  1  0
  9  8  1  0
  9  2  1  0
 10 20  1  0
 10  8  2  0
 12 20  1  0
 13 18  1  0
 14 15  1  0
 14 13  1  0
 16 15  1  0
 16 25  1  0
 16 17  1  0
 18 12  1  0
 18 17  1  0
 19 12  2  0
 20 21  1  0
 22 23  2  0
 23 42  1  0
 24 23  1  0
 24 27  1  0
 25 26  1  0
 25 22  1  0
 26 24  2  0
 27 28  1  0
 28 29  2  0
 30 33  1  0
 30 29  1  0
 31 30  2  0
 32 31  1  0
 32 27  2  0
 33 34  1  0
 34 39  2  0
 34 35  1  0
 35 36  2  0
 36 37  1  0
 37 41  1  0
 38 37  2  0
 39 38  1  0
 40 39  1  0
 42 43  1  0
 43 46  1  0
 43 45  1  0
 44 42  2  0
 47 22  1  0
 47 48  1  0
 49 47  1  0
 51 52  1  0
 52  1  1  0
 52 50  1  0
 53 55  1  0
 53 50  1  0
 54 56  1  0
 54 51  1  0
 54 53  1  0
 57 59  1  0
 57 56  1  0
 58 69  2  0
 59 64  1  0
 60 68  1  0
 60 70  1  0
 61 67  1  0
 61 63  1  0
 62 68  1  0
 63 62  1  0
 64 63  2  0
 65 66  1  0
 65 59  2  0
 66 61  2  0
 67 60  1  0
 68 58  1  0
 70 72  2  0
 71 70  1  0
 73 71  1  0
 74 83  2  0
 74 79  1  0
 75 71  1  0
 75 79  1  0
 76 75  1  0
 77 78  1  0
 77 76  1  0
 78 74  1  0
 79 80  2  0
 80 81  1  0
 82 81  2  0
 83 82  1  0
 84 58  1  0
 84 89  1  0
 84 85  1  0
 85 88  1  1
 85 86  1  0
 87 85  1  0
 89 92  1  0
 90 94  1  0
 90 89  1  0
 91 90  2  0
 94 93  1  0
 96 94  1  0
 96 97  1  0
 96 95  1  0
M  ISO  4  12 100  20 100  56 101  57 101
M  END
>  <TORSDO>  (30) 
F 19

>  <SCORE>  (30) 
-11.647

>  <name>  (30) 
29

>  <ligand_id>  (30) 
29

>  <original_smiles>  (30) 
[H]c1c([H])c(N([H])C(=O)N2C([H])([H])C([H])([H])C([H])([H])C([H])(n3nc(-c4c([H])c([H])c(Oc5c([H])c([H])c(F)c([H])c5F)c([H])c4[H])c(C(=O)N([H])[H])c3N([H])[H])C2([H])[H])c(C([H])([H])[H])c(N([H])C(=O)C2([H])C([H])([H])C([H])(C([H])([H])[H])C([H])(C([H])([H])Oc3c([H])c([H])c4c(c3[H])C([H])([H])N(C(=O)C([H])(N([H])C(=O)C([H])(N([H])C([H])([H])[H])C([H])([H])[H])C(C([H])([H])[H])(C([H])([H])[H])C([H])([H])[H])C([H])(C(=O)N([H])C3([H])c5c([H])c([H])c([H])c([H])c5C([H])([H])C([H])([H])C3([H])[H])C4([H])[H])C2([H])[H])c1[H]

>  <smiles>  (30) 
[H]c1c([H])c(N([H])C(=O)N2C([H])([H])C([H])([H])C([H])([H])C([H])(n3nc(-c4c([H])c([H])c(Oc5c([H])c([H])c(F)c([H])c5F)c([H])c4[H])c(C(=O)N([H])[H])c3N([H])[H])C2([H])[H])c(C([H])([H])[H])c(N([H])C(=O)C2([H])C([H])([H])C([H])(C([H])([H])[H])C([H])(C([H])([H])Oc3c([H])c([H])c4c(c3[H])C([H])([H])N(C(=O)C([H])(N([H])C(=O)C([H])(N([H])C([H])([H])[H])C([H])([H])[H])C(C([H])([H])[H])(C([H])([H])[H])C([H])([H])[H])C([H])(C(=O)N([H])C3([H])c5c([H])c([H])c([H])c([H])c5C([H])([H])C([H])([H])C3([H])[H])C4([H])[H])C2([H])[H])c1[H]

$$$$
30:0:0
     RDKit          3D

 96104  0  0  1  0  0  0  0  0999 V2000
  -30.5780  -18.0680   21.2700 C   0  0  0  0  0  3  0  0  0  0  0  0
  -28.8510  -19.1440   19.3550 C   0  0  0  0  0  3  0  0  0  0  0  0
  -30.4840  -19.4890   21.0960 C   0  0  0  0  0  0  0  0  0  0  0  0
  -29.6180  -20.0660   20.1160 C   0  0  0  0  0  0  0  0  0  0  0  0
  -28.9400  -17.7340   19.5360 C   0  0  0  0  0  0  0  0  0  0  0  0
  -29.8190  -17.1580   20.4880 C   0  0  0  0  0  0  0  0  0  0  0  0
  -31.3380  -20.3840   21.9790 C   0  0  0  0  0  1  0  0  0  0  0  0
  -30.5790  -14.6910   20.4290 C   0  0  0  0  0  0  0  0  0  0  0  0
  -30.3860  -12.4550   19.3530 C   0  0  0  0  0  2  0  0  0  0  0  0
  -29.4470  -12.5990   18.1340 C   0  0  0  0  0  2  0  0  0  0  0  0
  -27.9690  -12.4450   18.5480 C   0  0  0  0  0  2  0  0  0  0  0  0
  -27.6090  -13.3000   19.7920 C   0  0  0  0  0  3  0  0  0  0  0  0
  -28.6580  -13.1210   20.9120 C   0  0  0  0  0  2  0  0  0  0  0  0
  -29.9740  -13.4640   20.3480 N   0  0  0  0  0  0  0  0  0  0  0  0
  -31.7510  -14.8590   20.0760 O   0  0  0  0  0  0  0  0  0  0  0  0
  -29.7490  -15.7250   20.7560 N   0  0  0  0  0  0  0  0  0  0  0  0
  -28.8060  -15.4050   20.9180 H   0  0  0  0  0  0  0  0  0  0  0  0
  -25.2150  -13.9340   20.4700 C   0  0  0  0  0  0  0  0  0  0  0  0
  -24.1360  -13.1750   20.8380 C   0  0  0  0  0  0  0  0  0  0  0  0
  -24.5860  -11.8190   20.8290 C   0  0  0  0  0  0  0  0  0  0  0  0
  -26.2530  -13.0400   20.2620 N   0  0  0  0  0  0  0  0  0  0  0  0
  -25.8800  -11.7650   20.5380 N   0  0  0  0  0  0  0  0  0  0  0  0
  -23.8490  -10.5640   21.0260 C   0  0  0  0  0  0  0  0  0  0  0  0
  -24.2730   -9.5990   21.9650 C   0  0  0  0  0  3  0  0  0  0  0  0
  -23.5380   -8.4070   22.1480 C   0  0  0  0  0  3  0  0  0  0  0  0
  -22.3660   -8.1740   21.3920 C   0  0  0  0  0  0  0  0  0  0  0  0
  -21.9620   -9.1280   20.4420 C   0  0  0  0  0  3  0  0  0  0  0  0
  -22.6960  -10.3100   20.2570 C   0  0  0  0  0  3  0  0  0  0  0  0
  -21.6020   -7.0350   21.4840 O   0  0  0  0  0  0  0  0  0  0  0  0
  -21.5580   -6.2910   22.6360 C   0  0  0  0  0  0  0  0  0  0  0  0
  -21.1580   -6.8490   23.8690 C   0  0  0  0  0  3  0  0  0  0  0  0
  -21.0590   -6.0320   25.0140 C   0  0  0  0  0  3  0  0  0  0  0  0
  -21.3490   -4.6580   24.9250 C   0  0  0  0  0  0  0  0  0  0  0  0
  -21.7410   -4.0980   23.6960 C   0  0  0  0  0  3  0  0  0  0  0  0
  -21.8420   -4.9120   22.5540 C   0  0  0  0  0  0  0  0  0  0  0  0
  -22.2010   -4.3640   21.3670 F   0  0  0  0  0  0  0  0  0  0  0  0
  -21.2450   -3.8700   26.0210 F   0  0  0  0  0  0  0  0  0  0  0  0
  -22.7390  -13.6640   21.0850 C   0  0  0  0  0  0  0  0  0  0  0  0
  -21.9960  -12.9820   21.9510 N   0  0  0  0  0  0  0  0  0  0  0  0
  -22.3130  -14.6850   20.5480 O   0  0  0  0  0  0  0  0  0  0  0  0
  -22.3560  -12.1550   22.4050 H   0  0  0  0  0  0  0  0  0  0  0  0
  -21.0570  -13.2890   22.1600 H   0  0  0  0  0  0  0  0  0  0  0  0
  -25.3970  -15.3000   20.2730 N   0  0  0  0  0  0  0  0  0  0  0  0
  -24.6300  -15.9600   20.3450 H   0  0  0  0  0  0  0  0  0  0  0  0
  -26.2350  -15.7220   19.8820 H   0  0  0  0  0  0  0  0  0  0  0  0
  -28.1500  -16.8990   18.7460 N   0  0  0  0  0  0  0  0  0  0  0  0
  -27.7560  -17.3290   17.9170 H   0  0  0  0  0  0  0  0  0  0  0  0
  -28.5690  -16.0080   18.5170 H   0  0  0  0  0  0  0  0  0  0  0  0
  -29.5910  -21.6070   19.7520 C   0  0  0  0  0  2  0  0  0  0  0  0
  -27.3860  -21.9640   20.8150 C   0  0  0  0  0  1  0  0  0  0  0  0
  -28.6980  -22.5840   20.5030 N   0  0  2  0  0  4  0  0  0  0  0  0
  -29.1630  -22.7270   21.3870 H   0  0  0  0  0  0  0  0  0  0  0  0
  -28.5380  -23.9710   19.8600 C   0  0  0  0  0  2  0  0  0  0  0  0
  -27.5330  -25.1360   21.9990 C   0  0  0  0  0  1  0  0  0  0  0  0
  -28.5130  -25.2520   20.8150 C   0  0  0  0  0  3  0  0  0  0  0  0
  -28.4790  -26.6050   20.2020 O   0  0  0  0  0  0  0  0  0  0  0  0
  -24.6420  -31.8990   23.2380 C   0  0  0  0  0  0  0  0  0  0  0  0
  -27.3200  -27.3890   20.1990 C   0  0  0  0  0  0  0  0  0  0  0  0
  -23.4560  -30.4830   21.5970 C   0  0  0  0  0  3  0  0  0  0  0  0
  -24.9270  -28.9400   20.1810 C   0  0  0  0  0  0  0  0  0  0  0  0
  -25.9870  -30.8390   21.4120 C   0  0  0  0  0  2  0  0  0  0  0  0
  -26.0850  -29.4600   20.7730 C   0  0  0  0  0  0  0  0  0  0  0  0
  -27.2860  -28.6970   20.7690 C   0  0  0  0  0  3  0  0  0  0  0  0
  -26.1430  -26.9070   19.5920 C   0  0  0  0  0  3  0  0  0  0  0  0
  -24.9550  -27.6670   19.5850 C   0  0  0  0  0  3  0  0  0  0  0  0
  -23.6780  -29.7980   20.2210 C   0  0  0  0  0  2  0  0  0  0  0  0
  -24.7130  -31.0910   22.1390 N   0  0  0  0  0  0  0  0  0  0  0  0
  -23.5550  -32.1660   23.7700 O   0  0  0  0  0  0  0  0  0  0  0  0
  -22.8030  -29.4640   22.5580 C   0  0  0  0  0  0  0  0  0  0  0  0
  -21.4780  -29.2830   22.4350 N   0  0  0  0  0  0  0  0  0  0  0  0
  -23.4870  -28.8370   23.3730 O   0  0  0  0  0  0  0  0  0  0  0  0
  -20.9870  -29.8400   21.7500 H   0  0  0  0  0  0  0  0  0  0  0  0
  -18.1040  -28.0850   22.9420 C   0  0  0  0  0  0  0  0  0  0  0  0
  -20.6630  -28.3420   23.2030 C   0  0  0  0  0  3  0  0  0  0  0  0
  -20.7630  -26.9140   22.6170 C   0  0  0  0  0  2  0  0  0  0  0  0
  -19.6550  -26.5960   21.6070 C   0  0  0  0  0  2  0  0  0  0  0  0
  -18.2770  -26.7390   22.2580 C   0  0  0  0  0  2  0  0  0  0  0  0
  -19.2250  -28.8440   23.3710 C   0  0  0  0  0  0  0  0  0  0  0  0
  -19.0090  -30.1030   23.9720 C   0  0  0  0  0  3  0  0  0  0  0  0
  -17.7050  -30.6040   24.1470 C   0  0  0  0  0  3  0  0  0  0  0  0
  -16.5990  -29.8420   23.7340 C   0  0  0  0  0  3  0  0  0  0  0  0
  -16.8000  -28.5840   23.1380 C   0  0  0  0  0  3  0  0  0  0  0  0
  -25.9170  -32.5420   23.8640 C   0  0  0  0  0  3  0  0  0  0  0  0
  -25.5960  -33.9380   24.1910 N   0  0  0  0  0  0  0  0  0  0  0  0
  -25.9240  -34.9930   23.4330 C   0  0  0  0  0  0  0  0  0  0  0  0
  -26.5990  -34.8940   22.4050 O   0  0  0  0  0  0  0  0  0  0  0  0
  -24.9960  -34.0890   24.9880 H   0  0  0  0  0  0  0  0  0  0  0  0
  -24.1800  -36.7700   23.0730 C   0  0  0  0  0  1  0  0  0  0  0  0
  -25.4230  -36.3780   23.8870 C   0  0  0  0  0  3  0  0  0  0  0  0
  -27.5490  -37.2810   24.7200 C   0  0  0  0  0  1  0  0  0  0  0  0
  -26.4470  -37.4390   23.7750 N   0  0  0  0  0  0  0  0  0  0  0  0
  -26.0330  -38.3550   23.9210 H   0  0  0  0  0  0  0  0  0  0  0  0
  -26.4350  -31.7760   25.1440 C   0  0  1  0  0  0  0  0  0  0  0  0
  -25.3390  -31.5350   26.2080 C   0  0  0  0  0  1  0  0  0  0  0  0
  -27.0270  -30.4010   24.7560 C   0  0  0  0  0  1  0  0  0  0  0  0
  -27.5770  -32.5800   25.8110 C   0  0  0  0  0  1  0  0  0  0  0  0
  2  5  2  0
  2  4  1  0
  3  1  1  0
  3  7  1  0
  4  3  2  0
  5  6  1  0
  6 16  1  0
  6  1  2  0
  8 16  1  0
  9 14  1  0
 10 11  1  0
 10  9  1  0
 12 11  1  0
 12 21  1  0
 12 13  1  0
 14  8  1  0
 14 13  1  0
 15  8  2  0
 16 17  1  0
 18 19  2  0
 19 38  1  0
 20 19  1  0
 20 23  1  0
 21 18  1  0
 21 22  1  0
 22 20  2  0
 23 24  1  0
 24 25  2  0
 26 29  1  0
 26 25  1  0
 27 26  2  0
 28 27  1  0
 28 23  2  0
 29 30  1  0
 30 31  1  0
 31 32  2  0
 33 32  1  0
 33 37  1  0
 34 33  2  0
 35 30  2  0
 35 34  1  0
 36 35  1  0
 38 39  1  0
 39 42  1  0
 39 41  1  0
 40 38  2  0
 43 44  1  0
 43 18  1  0
 45 43  1  0
 46  5  1  0
 47 46  1  0
 48 46  1  0
 49  4  1  0
 49 51  1  0
 51 50  1  0
 51 52  1  1
 53 51  1  0
 53 55  1  0
 55 54  1  0
 56 55  1  0
 57 68  2  0
 58 56  1  0
 58 63  1  0
 59 67  1  0
 59 69  1  0
 60 66  1  0
 60 62  1  0
 61 67  1  0
 62 61  1  0
 63 62  2  0
 64 58  2  0
 65 64  1  0
 65 60  2  0
 66 59  1  0
 67 57  1  0
 69 71  2  0
 70 69  1  0
 72 70  1  0
 73 82  2  0
 73 78  1  0
 74 70  1  0
 74 78  1  0
 75 74  1  0
 76 77  1  0
 76 75  1  0
 77 73  1  0
 78 79  2  0
 79 80  1  0
 81 80  2  0
 82 81  1  0
 83 57  1  0
 83 84  1  0
 83 93  1  0
 84 87  1  0
 85 89  1  0
 85 84  1  0
 86 85  2  0
 89 88  1  0
 91 89  1  0
 91 92  1  0
 91 90  1  0
 93 96  1  1
 93 94  1  0
 95 93  1  0
M  ISO  4   8 100  16 100  55 101  56 101
M  END
>  <TORSDO>  (31) 
F 21

>  <SCORE>  (31) 
-14.071

>  <name>  (31) 
30

>  <ligand_id>  (31) 
30

>  <original_smiles>  (31) 
[H]c1c([H])c([H])c2c(c1[H])C([H])([H])C([H])([H])C([H])([H])C2([H])N([H])C(=O)C1([H])N(C(=O)C([H])(N([H])C(=O)C([H])(N([H])C([H])([H])[H])C([H])([H])[H])C(C([H])([H])[H])(C([H])([H])[H])C([H])([H])[H])C([H])([H])c2c([H])c(OC([H])(C([H])([H])[H])C([H])([H])[N+]([H])(C([H])([H])[H])C([H])([H])c3c([H])c(N([H])[H])c(N([H])C(=O)N4C([H])([H])C([H])([H])C([H])([H])C([H])(n5nc(-c6c([H])c([H])c(Oc7c([H])c([H])c(F)c([H])c7F)c([H])c6[H])c(C(=O)N([H])[H])c5N([H])[H])C4([H])[H])c([H])c3C([H])([H])[H])c([H])c([H])c2C1([H])[H]

>  <smiles>  (31) 
[H]c1c([H])c([H])c2c(c1[H])C([H])([H])C([H])([H])C([H])([H])C2([H])N([H])C(=O)C1([H])N(C(=O)C([H])(N([H])C(=O)C([H])(N([H])C([H])([H])[H])C([H])([H])[H])C(C([H])([H])[H])(C([H])([H])[H])C([H])([H])[H])C([H])([H])c2c([H])c(OC([H])(C([H])([H])[H])C([H])([H])[N+]([H])(C([H])([H])[H])C([H])([H])c3c([H])c(N([H])[H])c(N([H])C(=O)N4C([H])([H])C([H])([H])C([H])([H])C([H])(n5nc(-c6c([H])c([H])c(Oc7c([H])c([H])c(F)c([H])c7F)c([H])c6[H])c(C(=O)N([H])[H])c5N([H])[H])C4([H])[H])c([H])c3C([H])([H])[H])c([H])c([H])c2C1([H])[H]

$$$$
31:0:0
     RDKit          3D

 90 98  0  0  1  0  0  0  0  0999 V2000
  -30.2650  -23.5930   20.5390 C   0  0  0  0  0  3  0  0  0  0  0  0
  -31.2120  -22.5580   20.6900 C   0  0  0  0  0  3  0  0  0  0  0  0
  -28.6050  -21.8500   20.2810 C   0  0  0  0  0  3  0  0  0  0  0  0
  -29.5610  -20.7020   20.4340 C   0  0  0  0  0  0  0  0  0  0  0  0
  -28.9070  -23.3180   20.3240 C   0  0  0  0  0  0  0  0  0  0  0  0
  -30.9000  -21.1700   20.6430 C   0  0  0  0  0  0  0  0  0  0  0  0
  -32.0880  -20.2380   20.8380 C   0  0  0  0  0  1  0  0  0  0  0  0
  -29.1890  -19.0900   20.4000 C   0  0  0  0  0  0  0  0  0  0  0  0
  -27.9960  -18.7860   20.3250 O   0  0  0  0  0  0  0  0  0  0  0  0
  -30.2130  -17.7670   20.4430 C   0  0  0  0  0  2  0  0  0  0  0  0
  -30.5190  -15.0320   20.3210 C   0  0  0  0  0  0  0  0  0  0  0  0
  -30.3970  -12.6810   19.3650 C   0  0  0  0  0  2  0  0  0  0  0  0
  -29.4530  -12.6260   18.1410 C   0  0  0  0  0  2  0  0  0  0  0  0
  -27.9970  -12.3980   18.5880 C   0  0  0  0  0  2  0  0  0  0  0  0
  -27.5920  -13.3150   19.7720 C   0  0  0  0  0  3  0  0  0  0  0  0
  -28.6590  -13.3440   20.8860 C   0  0  0  0  0  2  0  0  0  0  0  0
  -29.9160  -13.7750   20.2610 N   0  0  0  0  0  0  0  0  0  0  0  0
  -31.7240  -15.0820   20.0500 O   0  0  0  0  0  0  0  0  0  0  0  0
  -29.7700  -16.2380   20.4750 N   0  0  0  0  0  0  0  0  0  0  0  0
  -28.7800  -16.1060   20.6250 H   0  0  0  0  0  0  0  0  0  0  0  0
  -25.2150  -13.8650   20.5370 C   0  0  0  0  0  0  0  0  0  0  0  0
  -24.1610  -13.0790   20.9100 C   0  0  0  0  0  0  0  0  0  0  0  0
  -24.6380  -11.7330   20.8700 C   0  0  0  0  0  0  0  0  0  0  0  0
  -26.2640  -12.9990   20.2830 N   0  0  0  0  0  0  0  0  0  0  0  0
  -25.9280  -11.7100   20.5500 N   0  0  0  0  0  0  0  0  0  0  0  0
  -23.9240  -10.4620   21.0580 C   0  0  0  0  0  0  0  0  0  0  0  0
  -24.3690   -9.4940   21.9840 C   0  0  0  0  0  3  0  0  0  0  0  0
  -23.6520   -8.2900   22.1610 C   0  0  0  0  0  3  0  0  0  0  0  0
  -22.4760   -8.0470   21.4110 C   0  0  0  0  0  0  0  0  0  0  0  0
  -22.0510   -9.0050   20.4750 C   0  0  0  0  0  3  0  0  0  0  0  0
  -22.7680  -10.1990   20.2960 C   0  0  0  0  0  3  0  0  0  0  0  0
  -21.7300   -6.8970   21.4990 O   0  0  0  0  0  0  0  0  0  0  0  0
  -21.6930   -6.1490   22.6480 C   0  0  0  0  0  0  0  0  0  0  0  0
  -21.2580   -6.6920   23.8770 C   0  0  0  0  0  3  0  0  0  0  0  0
  -21.1690   -5.8690   25.0170 C   0  0  0  0  0  3  0  0  0  0  0  0
  -21.5030   -4.5050   24.9310 C   0  0  0  0  0  0  0  0  0  0  0  0
  -21.9300   -3.9610   23.7070 C   0  0  0  0  0  3  0  0  0  0  0  0
  -22.0210   -4.7800   22.5680 C   0  0  0  0  0  0  0  0  0  0  0  0
  -22.4140   -4.2460   21.3860 F   0  0  0  0  0  0  0  0  0  0  0  0
  -21.4100   -3.7130   26.0250 F   0  0  0  0  0  0  0  0  0  0  0  0
  -22.7620  -13.5420   21.1910 C   0  0  0  0  0  0  0  0  0  0  0  0
  -22.0460  -12.8390   22.0620 N   0  0  0  0  0  0  0  0  0  0  0  0
  -22.3120  -14.5630   20.6730 O   0  0  0  0  0  0  0  0  0  0  0  0
  -22.4240  -12.0140   22.5020 H   0  0  0  0  0  0  0  0  0  0  0  0
  -21.1080  -13.1320   22.2930 H   0  0  0  0  0  0  0  0  0  0  0  0
  -25.3620  -15.2390   20.3640 N   0  0  0  0  0  0  0  0  0  0  0  0
  -24.5860  -15.8810   20.4830 H   0  0  0  0  0  0  0  0  0  0  0  0
  -26.1930  -15.6910   20.0060 H   0  0  0  0  0  0  0  0  0  0  0  0
  -27.8860  -24.6110   20.1230 C   0  0  0  0  0  2  0  0  0  0  0  0
  -28.2220  -26.1390   20.2770 O   0  0  0  0  0  0  0  0  0  0  0  0
  -24.6340  -31.9030   23.2330 C   0  0  0  0  0  0  0  0  0  0  0  0
  -27.1870  -27.1550   20.2050 C   0  0  0  0  0  0  0  0  0  0  0  0
  -23.4320  -30.5180   21.5890 C   0  0  0  0  0  3  0  0  0  0  0  0
  -24.8740  -28.9360   20.1660 C   0  0  0  0  0  0  0  0  0  0  0  0
  -25.9900  -30.7600   21.4340 C   0  0  0  0  0  2  0  0  0  0  0  0
  -26.0570  -29.3670   20.7800 C   0  0  0  0  0  0  0  0  0  0  0  0
  -27.2150  -28.4950   20.7800 C   0  0  0  0  0  3  0  0  0  0  0  0
  -25.9760  -26.8360   19.5500 C   0  0  0  0  0  3  0  0  0  0  0  0
  -24.8490  -27.6850   19.5340 C   0  0  0  0  0  3  0  0  0  0  0  0
  -23.6530  -29.8420   20.2100 C   0  0  0  0  0  2  0  0  0  0  0  0
  -24.7060  -31.0830   22.1400 N   0  0  0  0  0  0  0  0  0  0  0  0
  -23.5480  -32.1940   23.7570 O   0  0  0  0  0  0  0  0  0  0  0  0
  -22.7430  -29.5140   22.5480 C   0  0  0  0  0  0  0  0  0  0  0  0
  -21.4150  -29.3430   22.4100 N   0  0  0  0  0  0  0  0  0  0  0  0
  -23.4050  -28.8910   23.3810 O   0  0  0  0  0  0  0  0  0  0  0  0
  -20.9360  -29.8970   21.7130 H   0  0  0  0  0  0  0  0  0  0  0  0
  -18.0290  -28.1420   22.8830 C   0  0  0  0  0  0  0  0  0  0  0  0
  -20.5850  -28.4100   23.1770 C   0  0  0  0  0  3  0  0  0  0  0  0
  -20.6940  -26.9750   22.6110 C   0  0  0  0  0  2  0  0  0  0  0  0
  -19.6040  -26.6440   21.5860 C   0  0  0  0  0  2  0  0  0  0  0  0
  -18.2160  -26.7900   22.2140 C   0  0  0  0  0  2  0  0  0  0  0  0
  -19.1420  -28.9090   23.3200 C   0  0  0  0  0  0  0  0  0  0  0  0
  -18.9130  -30.1730   23.9060 C   0  0  0  0  0  3  0  0  0  0  0  0
  -17.6050  -30.6700   24.0590 C   0  0  0  0  0  3  0  0  0  0  0  0
  -16.5070  -29.9000   23.6360 C   0  0  0  0  0  3  0  0  0  0  0  0
  -16.7200  -28.6380   23.0540 C   0  0  0  0  0  3  0  0  0  0  0  0
  -25.9130  -32.5320   23.8650 C   0  0  0  0  0  3  0  0  0  0  0  0
  -26.4190  -31.7540   25.1420 C   0  0  1  0  0  0  0  0  0  0  0  0
  -25.3210  -31.5180   26.2040 C   0  0  0  0  0  1  0  0  0  0  0  0
  -26.9980  -30.3740   24.7530 C   0  0  0  0  0  1  0  0  0  0  0  0
  -27.5710  -32.5400   25.8110 C   0  0  0  0  0  1  0  0  0  0  0  0
  -25.6030  -33.9300   24.2070 N   0  0  0  0  0  0  0  0  0  0  0  0
  -25.9130  -34.9900   23.4490 C   0  0  0  0  0  0  0  0  0  0  0  0
  -26.5550  -34.8950   22.4000 O   0  0  0  0  0  0  0  0  0  0  0  0
  -25.0290  -34.0770   25.0240 H   0  0  0  0  0  0  0  0  0  0  0  0
  -24.1570  -36.7730   23.1760 C   0  0  0  0  0  1  0  0  0  0  0  0
  -25.4370  -36.3750   23.9300 C   0  0  0  0  0  3  0  0  0  0  0  0
  -27.5980  -37.2800   24.6660 C   0  0  0  0  0  1  0  0  0  0  0  0
  -26.4550  -37.4370   23.7710 N   0  0  0  0  0  0  0  0  0  0  0  0
  -26.0480  -38.3550   23.9340 H   0  0  0  0  0  0  0  0  0  0  0  0
  1  2  1  0
  3  5  1  0
  3  4  2  0
  4  6  1  0
  5  1  2  0
  6  2  2  0
  6  7  1  0
  8  4  1  0
  8 10  1  0
  9  8  2  0
 10 19  1  0
 11 19  1  0
 12 17  1  0
 13 14  1  0
 13 12  1  0
 15 14  1  0
 15 24  1  0
 15 16  1  0
 17 11  1  0
 17 16  1  0
 18 11  2  0
 19 20  1  0
 21 22  2  0
 22 41  1  0
 23 22  1  0
 23 26  1  0
 24 21  1  0
 24 25  1  0
 25 23  2  0
 26 27  1  0
 27 28  2  0
 29 32  1  0
 29 28  1  0
 30 29  2  0
 31 30  1  0
 31 26  2  0
 32 33  1  0
 33 34  1  0
 34 35  2  0
 36 35  1  0
 36 40  1  0
 37 36  2  0
 38 33  2  0
 38 37  1  0
 39 38  1  0
 41 42  1  0
 42 45  1  0
 42 44  1  0
 43 41  2  0
 46 47  1  0
 46 21  1  0
 48 46  1  0
 49 50  1  0
 49  5  1  0
 51 62  2  0
 52 50  1  0
 52 57  1  0
 53 61  1  0
 53 63  1  0
 54 60  1  0
 54 56  1  0
 55 61  1  0
 56 55  1  0
 57 56  2  0
 58 52  2  0
 59 58  1  0
 59 54  2  0
 60 53  1  0
 61 51  1  0
 63 65  2  0
 64 63  1  0
 66 64  1  0
 67 76  2  0
 67 72  1  0
 68 64  1  0
 68 72  1  0
 69 68  1  0
 70 71  1  0
 70 69  1  0
 71 67  1  0
 72 73  2  0
 73 74  1  0
 75 74  2  0
 76 75  1  0
 77 51  1  0
 77 82  1  0
 77 78  1  0
 78 81  1  1
 78 79  1  0
 80 78  1  0
 82 85  1  0
 83 87  1  0
 83 82  1  0
 84 83  2  0
 87 86  1  0
 89 87  1  0
 89 90  1  0
 89 88  1  0
M  ISO  4  11 100  19 100  49 101  50 101
M  END
>  <TORSDO>  (32) 
F 19

>  <SCORE>  (32) 
-14.424

>  <name>  (32) 
31

>  <ligand_id>  (32) 
31

>  <original_smiles>  (32) 
[H]c1c([H])c([H])c2c(c1[H])C([H])([H])C([H])([H])C([H])([H])C2([H])N([H])C(=O)C1([H])N(C(=O)C([H])(N([H])C(=O)C([H])(N([H])C([H])([H])[H])C([H])([H])[H])C(C([H])([H])[H])(C([H])([H])[H])C([H])([H])[H])C([H])([H])c2c([H])c(OC([H])([H])c3c([H])c([H])c(C([H])([H])[H])c(C(=O)C([H])([H])N([H])C(=O)N4C([H])([H])C([H])([H])C([H])([H])C([H])(n5nc(-c6c([H])c([H])c(Oc7c([H])c([H])c(F)c([H])c7F)c([H])c6[H])c(C(=O)N([H])[H])c5N([H])[H])C4([H])[H])c3[H])c([H])c([H])c2C1([H])[H]

>  <smiles>  (32) 
[H]c1c([H])c([H])c2c(c1[H])C([H])([H])C([H])([H])C([H])([H])C2([H])N([H])C(=O)C1([H])N(C(=O)C([H])(N([H])C(=O)C([H])(N([H])C([H])([H])[H])C([H])([H])[H])C(C([H])([H])[H])(C([H])([H])[H])C([H])([H])[H])C([H])([H])c2c([H])c(OC([H])([H])c3c([H])c([H])c(C([H])([H])[H])c(C(=O)C([H])([H])N([H])C(=O)N4C([H])([H])C([H])([H])C([H])([H])C([H])(n5nc(-c6c([H])c([H])c(Oc7c([H])c([H])c(F)c([H])c7F)c([H])c6[H])c(C(=O)N([H])[H])c5N([H])[H])C4([H])[H])c3[H])c([H])c([H])c2C1([H])[H]

$$$$
32:0:0
     RDKit          3D

100106  0  0  1  0  0  0  0  0999 V2000
  -23.4860  -23.3450   20.6940 C   0  0  0  0  0  0  0  0  0  0  0  0
  -24.6550  -22.7800   21.2910 N   0  0  0  0  0  0  0  0  0  0  0  0
  -23.5700  -23.7500   19.5330 O   0  0  0  0  0  0  0  0  0  0  0  0
  -24.5230  -22.4300   22.2330 H   0  0  0  0  0  0  0  0  0  0  0  0
  -21.2030  -22.2930   21.1090 C   0  0  0  0  0  2  0  0  0  0  0  0
  -19.9510  -23.1280   21.3320 C   0  0  0  0  0  2  0  0  0  0  0  0
  -22.0150  -23.5390   21.4460 C   0  0  0  0  0  3  0  0  0  0  0  0
  -20.6870  -24.3520   20.9460 N   0  0  2  0  0  4  0  0  0  0  0  0
  -20.7930  -24.3240   19.9410 H   0  0  0  0  0  0  0  0  0  0  0  0
  -18.4420  -25.3920   21.2910 C   0  0  0  0  0  1  0  0  0  0  0  0
  -19.9780  -25.8920   21.2460 C   0  0  0  0  0  2  0  0  0  0  0  0
  -21.6190  -28.2820   20.0700 C   0  0  0  0  0  1  0  0  0  0  0  0
  -23.5230  -28.0620   19.3640 O   0  0  0  0  0  1  0  0  0  0  0  0
  -24.6410  -31.7000   23.3790 C   0  0  0  0  0  0  0  0  0  0  0  0
  -25.0740  -28.2450   19.3250 C   0  0  0  0  0  3  0  0  0  0  0  0
  -23.3330  -31.1090   21.4060 C   0  0  0  0  0  3  0  0  0  0  0  0
  -24.5940  -30.6340   19.1570 C   0  0  0  0  0  3  0  0  0  0  0  0
  -25.8330  -31.3650   21.2080 C   0  0  0  0  0  2  0  0  0  0  0  0
  -25.6380  -30.4110   20.0560 C   0  0  0  0  0  3  0  0  0  0  0  0
  -25.9900  -29.0560   20.1080 C   0  0  0  0  0  2  0  0  0  0  0  0
  -25.3250  -28.6350   18.0100 C   0  0  0  0  0  2  0  0  0  0  0  0
  -24.5420  -29.8100   17.9770 C   0  0  0  0  0  2  0  0  0  0  0  0
  -23.3840  -31.2430   19.8180 C   0  0  0  0  0  2  0  0  0  0  0  0
  -24.6220  -31.4580   22.0400 N   0  0  0  0  0  0  0  0  0  0  0  0
  -23.5930  -31.7550   24.0430 O   0  0  0  0  0  0  0  0  0  0  0  0
  -22.9630  -29.7350   22.0200 C   0  0  0  0  0  0  0  0  0  0  0  0
  -21.7210  -29.5000   22.3250 N   0  0  0  0  0  0  0  0  0  0  0  0
  -23.7710  -28.8420   22.2380 O   0  0  0  0  0  0  0  0  0  0  0  0
  -21.0420  -30.2460   22.2960 H   0  0  0  0  0  0  0  0  0  0  0  0
  -18.5100  -28.6040   21.5440 C   0  0  0  0  0  0  0  0  0  0  0  0
  -21.2110  -28.1310   22.3620 C   0  0  0  0  0  2  0  0  0  0  0  0
  -21.9140  -26.6750   21.0340 C   0  0  0  0  0  1  0  0  0  0  0  0
  -20.1910  -26.6680   19.4110 C   0  0  0  0  0  1  0  0  0  0  0  0
  -18.7380  -27.8220   20.0040 C   0  0  0  0  0  2  0  0  0  0  0  0
  -19.6150  -28.7410   22.5240 C   0  0  0  0  0  0  0  0  0  0  0  0
  -19.3050  -29.4740   23.7430 C   0  0  0  0  0  3  0  0  0  0  0  0
  -18.0230  -29.9380   24.1420 C   0  0  0  0  0  3  0  0  0  0  0  0
  -16.9270  -29.6050   23.3410 C   0  0  0  0  0  3  0  0  0  0  0  0
  -17.1760  -28.9570   22.0870 C   0  0  0  0  0  3  0  0  0  0  0  0
  -25.9760  -31.9450   24.1170 C   0  0  0  0  0  3  0  0  0  0  0  0
  -25.8130  -33.2190   24.8210 N   0  0  0  0  0  0  0  0  0  0  0  0
  -26.2330  -34.3960   24.3460 C   0  0  0  0  0  0  0  0  0  0  0  0
  -26.8910  -34.5010   23.3070 O   0  0  0  0  0  0  0  0  0  0  0  0
  -25.2390  -33.2090   25.6520 H   0  0  0  0  0  0  0  0  0  0  0  0
  -24.7120  -36.3950   24.4780 C   0  0  0  0  0  1  0  0  0  0  0  0
  -25.8730  -35.6530   25.1580 C   0  0  0  0  0  3  0  0  0  0  0  0
  -28.0680  -36.0170   26.1940 C   0  0  0  0  0  1  0  0  0  0  0  0
  -27.0160  -36.5710   25.3450 N   0  0  0  0  0  0  0  0  0  0  0  0
  -26.7080  -37.4490   25.7540 H   0  0  0  0  0  0  0  0  0  0  0  0
  -26.3620  -30.7910   25.1200 C   0  0  1  0  0  0  0  0  0  0  0  0
  -25.2170  -30.3700   26.0710 C   0  0  0  0  0  1  0  0  0  0  0  0
  -26.8220  -29.5290   24.3580 C   0  0  0  0  0  1  0  0  0  0  0  0
  -27.5610  -31.2510   25.9810 C   0  0  0  0  0  1  0  0  0  0  0  0
  -26.8720  -23.9530   21.2230 C   0  0  0  0  0  1  0  0  0  0  0  0
  -26.1620  -22.6530   20.7970 C   0  0  0  0  0  3  0  0  0  0  0  0
  -27.2190  -21.4120   21.1340 C   0  0  0  0  0  0  0  0  0  0  0  0
  -28.2220  -20.9100   20.2530 N   0  0  0  0  0  0  0  0  0  0  0  0
  -27.1570  -20.9440   22.2720 O   0  0  0  0  0  0  0  0  0  0  0  0
  -28.1650  -21.3190   19.3270 H   0  0  0  0  0  0  0  0  0  0  0  0
  -31.9420  -17.0010   18.9290 C   0  0  0  0  0  0  0  0  0  0  0  0
  -31.9940  -14.5760   18.1470 C   0  0  0  0  0  2  0  0  0  0  0  0
  -30.8620  -14.3040   17.1260 C   0  0  0  0  0  2  0  0  0  0  0  0
  -29.5180  -14.0560   17.8430 C   0  0  0  0  0  2  0  0  0  0  0  0
  -29.2610  -15.0970   18.9660 C   0  0  0  0  0  3  0  0  0  0  0  0
  -30.4770  -15.2070   19.8960 C   0  0  0  0  0  2  0  0  0  0  0  0
  -31.5530  -15.6810   19.0540 N   0  0  0  0  0  0  0  0  0  0  0  0
  -33.0080  -17.1780   18.3040 O   0  0  0  0  0  0  0  0  0  0  0  0
  -30.8050  -20.5420   19.9960 C   0  0  0  0  0  2  0  0  0  0  0  0
  -31.8510  -19.3820   19.8200 C   0  0  0  0  0  2  0  0  0  0  0  0
  -29.7090  -18.4880   19.7160 C   0  0  0  0  0  2  0  0  0  0  0  0
  -29.4670  -19.9440   20.4480 C   0  0  0  0  0  3  0  0  0  0  0  0
  -31.1950  -18.0950   19.5110 N   0  0  0  0  0  0  0  0  0  0  0  0
  -27.2800  -15.6860   20.4690 C   0  0  0  0  0  0  0  0  0  0  0  0
  -26.2620  -14.9270   20.9670 C   0  0  0  0  0  0  0  0  0  0  0  0
  -26.4760  -13.6050   20.4730 C   0  0  0  0  0  0  0  0  0  0  0  0
  -28.0660  -14.8180   19.7300 N   0  0  0  0  0  0  0  0  0  0  0  0
  -27.6050  -13.5440   19.7830 N   0  0  0  0  0  0  0  0  0  0  0  0
  -25.6340  -12.4100   20.5580 C   0  0  0  0  0  0  0  0  0  0  0  0
  -26.0130  -11.2890   21.3270 C   0  0  0  0  0  3  0  0  0  0  0  0
  -25.1720  -10.1580   21.4020 C   0  0  0  0  0  3  0  0  0  0  0  0
  -23.9370  -10.1450   20.7100 C   0  0  0  0  0  0  0  0  0  0  0  0
  -23.5770  -11.2550   19.9260 C   0  0  0  0  0  3  0  0  0  0  0  0
  -24.4170  -12.3770   19.8470 C   0  0  0  0  0  3  0  0  0  0  0  0
  -23.0660   -9.0850   20.7110 O   0  0  0  0  0  0  0  0  0  0  0  0
  -22.7390   -8.4250   21.8680 C   0  0  0  0  0  0  0  0  0  0  0  0
  -22.1790   -9.0970   22.9770 C   0  0  0  0  0  3  0  0  0  0  0  0
  -21.7960   -8.3670   24.1210 C   0  0  0  0  0  3  0  0  0  0  0  0
  -21.9610   -6.9700   24.1540 C   0  0  0  0  0  0  0  0  0  0  0  0
  -22.5130   -6.3000   23.0480 C   0  0  0  0  0  3  0  0  0  0  0  0
  -22.8990   -7.0250   21.9080 C   0  0  0  0  0  0  0  0  0  0  0  0
  -23.4140   -6.3720   20.8380 F   0  0  0  0  0  0  0  0  0  0  0  0
  -21.5840   -6.2680   25.2470 F   0  0  0  0  0  0  0  0  0  0  0  0
  -25.0930  -15.4300   21.7600 C   0  0  0  0  0  0  0  0  0  0  0  0
  -24.5490  -14.6010   22.6420 N   0  0  0  0  0  0  0  0  0  0  0  0
  -24.6880  -16.5850   21.6340 O   0  0  0  0  0  0  0  0  0  0  0  0
  -24.8960  -13.6610   22.7630 H   0  0  0  0  0  0  0  0  0  0  0  0
  -23.7720  -14.9100   23.2080 H   0  0  0  0  0  0  0  0  0  0  0  0
  -27.5690  -17.0410   20.5640 N   0  0  0  0  0  0  0  0  0  0  0  0
  -26.9580  -17.6780   21.0610 H   0  0  0  0  0  0  0  0  0  0  0  0
  -28.3100  -17.5110   20.0650 H   0  0  0  0  0  0  0  0  0  0  0  0
  1  2  1  0
  2  4  1  0
  3  1  2  0
  5  6  1  0
  5  7  1  0
  7  1  1  0
  8 11  1  0
  8  6  1  0
  8  7  1  0
  8  9  1  6
 11 10  1  0
 12 32  1  0
 14 25  2  0
 15 13  1  0
 15 20  1  0
 16 26  1  0
 16 24  1  0
 17 22  1  0
 17 23  1  0
 17 19  1  0
 18 24  1  0
 19 20  1  0
 19 18  1  0
 21 15  1  0
 22 21  1  0
 23 16  1  0
 24 14  1  0
 26 28  2  0
 26 27  1  0
 27 31  1  0
 29 27  1  0
 30 39  2  0
 30 35  1  0
 31 35  1  0
 33 34  1  0
 34 30  1  0
 35 36  2  0
 36 37  1  0
 38 37  2  0
 39 38  1  0
 40 14  1  0
 40 41  1  0
 40 50  1  0
 41 44  1  0
 42 41  1  0
 42 46  1  0
 43 42  2  0
 46 45  1  0
 46 48  1  0
 48 49  1  0
 48 47  1  0
 50 53  1  1
 50 51  1  0
 52 50  1  0
 55 56  1  0
 55 54  1  0
 55  2  1  0
 56 58  2  0
 57 56  1  0
 59 57  1  0
 60 66  1  0
 60 72  1  0
 61 66  1  0
 62 63  1  0
 62 61  1  0
 64 63  1  0
 64 76  1  0
 64 65  1  0
 66 65  1  0
 67 60  2  0
 68 71  1  0
 69 68  1  0
 70 71  1  0
 71 57  1  0
 72 70  1  0
 72 69  1  0
 73 98  1  0
 73 74  2  0
 74 93  1  0
 75 78  1  0
 75 74  1  0
 76 77  1  0
 76 73  1  0
 77 75  2  0
 78 79  1  0
 79 80  2  0
 81 84  1  0
 81 80  1  0
 82 81  2  0
 83 82  1  0
 83 78  2  0
 84 85  1  0
 85 90  2  0
 85 86  1  0
 86 87  2  0
 87 88  1  0
 88 92  1  0
 89 88  2  0
 90 89  1  0
 91 90  1  0
 93 94  1  0
 94 96  1  0
 94 97  1  0
 95 93  2  0
 98 99  1  0
100 98  1  0
M  ISO  4  12 101  13 101  60 100  72 100
M  END
>  <TORSDO>  (33) 
F 21

>  <SCORE>  (33) 
5.158

>  <name>  (33) 
32

>  <ligand_id>  (33) 
32

>  <original_smiles>  (33) 
[H]c1c([H])c([H])c2c(c1[H])C([H])([H])C([H])([H])C([H])([H])C2([H])N([H])C(=O)C1([H])N(C(=O)C([H])(N([H])C(=O)C([H])(N([H])C([H])([H])[H])C([H])([H])[H])C(C([H])([H])[H])(C([H])([H])[H])C([H])([H])[H])C([H])([H])c2c([H])c(OC([H])([H])C([H])(C([H])([H])[H])[N+]3([H])C([H])([H])C([H])([H])C3([H])C(=O)N([H])C([H])(C(=O)N([H])C3([H])C([H])([H])N(C(=O)N4C([H])([H])C([H])([H])C([H])([H])C([H])(n5nc(-c6c([H])c([H])c(Oc7c([H])c([H])c(F)c([H])c7F)c([H])c6[H])c(C(=O)N([H])[H])c5N([H])[H])C4([H])[H])C([H])([H])C3([H])[H])C([H])([H])[H])c([H])c([H])c2C1([H])[H]

>  <smiles>  (33) 
[H]c1c([H])c([H])c2c(c1[H])C([H])([H])C([H])([H])C([H])([H])C2([H])N([H])C(=O)C1([H])N(C(=O)C([H])(N([H])C(=O)C([H])(N([H])C([H])([H])[H])C([H])([H])[H])C(C([H])([H])[H])(C([H])([H])[H])C([H])([H])[H])C([H])([H])c2c([H])c(OC([H])([H])C([H])(C([H])([H])[H])[N+]3([H])C([H])([H])C([H])([H])C3([H])C(=O)N([H])C([H])(C(=O)N([H])C3([H])C([H])([H])N(C(=O)N4C([H])([H])C([H])([H])C([H])([H])C([H])(n5nc(-c6c([H])c([H])c(Oc7c([H])c([H])c(F)c([H])c7F)c([H])c6[H])c(C(=O)N([H])[H])c5N([H])[H])C4([H])[H])C([H])([H])C3([H])[H])C([H])([H])[H])c([H])c([H])c2C1([H])[H]

$$$$
33:0:0
     RDKit          3D

 95103  0  0  1  0  0  0  0  0999 V2000
  -31.0930  -21.5290   19.4120 C   0  0  0  0  0  0  0  0  0  0  0  0
  -30.8360  -20.8020   18.4440 O   0  0  0  0  0  0  0  0  0  0  0  0
  -31.4010  -23.0110   19.2220 C   0  0  0  0  0  2  0  0  0  0  0  0
  -29.8840  -24.9100   19.7460 C   0  0  0  0  0  0  0  0  0  0  0  0
  -30.1490  -23.7570   19.1220 N   0  0  0  0  0  0  0  0  0  0  0  0
  -30.7170  -25.4810   20.4570 O   0  0  0  0  0  0  0  0  0  0  0  0
  -29.4200  -23.3530   18.5480 H   0  0  0  0  0  0  0  0  0  0  0  0
  -28.4800  -25.4870   19.5500 C   0  0  0  0  0  2  0  0  0  0  0  0
  -28.4150  -26.7830   20.1390 O   0  0  0  0  0  0  0  0  0  0  0  0
  -24.5890  -31.8760   23.2440 C   0  0  0  0  0  0  0  0  0  0  0  0
  -27.2090  -27.4450   20.1420 C   0  0  0  0  0  0  0  0  0  0  0  0
  -23.3680  -30.4750   21.6100 C   0  0  0  0  0  3  0  0  0  0  0  0
  -24.8070  -28.9310   20.1820 C   0  0  0  0  0  0  0  0  0  0  0  0
  -25.8900  -30.8310   21.3950 C   0  0  0  0  0  2  0  0  0  0  0  0
  -25.9650  -29.4590   20.7630 C   0  0  0  0  0  0  0  0  0  0  0  0
  -27.1650  -28.7190   20.7470 C   0  0  0  0  0  3  0  0  0  0  0  0
  -26.0280  -26.9210   19.5640 C   0  0  0  0  0  3  0  0  0  0  0  0
  -24.8300  -27.6590   19.5850 C   0  0  0  0  0  3  0  0  0  0  0  0
  -23.5660  -29.7910   20.2310 C   0  0  0  0  0  2  0  0  0  0  0  0
  -24.6350  -31.0750   22.1420 N   0  0  0  0  0  0  0  0  0  0  0  0
  -23.5120  -32.1510   23.7900 O   0  0  0  0  0  0  0  0  0  0  0  0
  -22.7230  -29.4560   22.5750 C   0  0  0  0  0  0  0  0  0  0  0  0
  -21.3970  -29.2750   22.4520 N   0  0  0  0  0  0  0  0  0  0  0  0
  -23.4090  -28.8300   23.3880 O   0  0  0  0  0  0  0  0  0  0  0  0
  -20.9070  -29.8310   21.7660 H   0  0  0  0  0  0  0  0  0  0  0  0
  -18.0240  -28.0890   22.9570 C   0  0  0  0  0  0  0  0  0  0  0  0
  -20.5810  -28.3420   23.2270 C   0  0  0  0  0  3  0  0  0  0  0  0
  -20.6800  -26.9090   22.6560 C   0  0  0  0  0  2  0  0  0  0  0  0
  -19.5780  -26.5840   21.6420 C   0  0  0  0  0  2  0  0  0  0  0  0
  -18.1970  -26.7360   22.2870 C   0  0  0  0  0  2  0  0  0  0  0  0
  -19.1440  -28.8490   23.3830 C   0  0  0  0  0  0  0  0  0  0  0  0
  -18.9290  -30.1170   23.9670 C   0  0  0  0  0  3  0  0  0  0  0  0
  -17.6250  -30.6240   24.1290 C   0  0  0  0  0  3  0  0  0  0  0  0
  -16.5190  -29.8580   23.7190 C   0  0  0  0  0  3  0  0  0  0  0  0
  -16.7190  -28.5930   23.1390 C   0  0  0  0  0  3  0  0  0  0  0  0
  -25.8820  -32.5020   23.8550 C   0  0  0  0  0  3  0  0  0  0  0  0
  -25.5780  -33.8990   24.1940 N   0  0  0  0  0  0  0  0  0  0  0  0
  -25.9020  -34.9530   23.4330 C   0  0  0  0  0  0  0  0  0  0  0  0
  -26.5610  -34.8520   22.3940 O   0  0  0  0  0  0  0  0  0  0  0  0
  -24.9930  -34.0510   25.0020 H   0  0  0  0  0  0  0  0  0  0  0  0
  -24.1670  -36.7420   23.1030 C   0  0  0  0  0  1  0  0  0  0  0  0
  -25.4190  -36.3400   23.8990 C   0  0  0  0  0  3  0  0  0  0  0  0
  -27.5650  -37.2220   24.7000 C   0  0  0  0  0  1  0  0  0  0  0  0
  -26.4500  -37.3940   23.7740 N   0  0  0  0  0  0  0  0  0  0  0  0
  -26.0450  -38.3130   23.9290 H   0  0  0  0  0  0  0  0  0  0  0  0
  -26.4120  -31.7240   25.1200 C   0  0  1  0  0  0  0  0  0  0  0  0
  -25.3320  -31.4820   26.1990 C   0  0  0  0  0  1  0  0  0  0  0  0
  -26.9880  -30.3490   24.7100 C   0  0  0  0  0  1  0  0  0  0  0  0
  -27.5720  -32.5120   25.7740 C   0  0  0  0  0  1  0  0  0  0  0  0
  -31.0470  -20.9880   20.8420 C   0  0  0  0  0  2  0  0  0  0  0  0
  -31.7660  -17.2370   20.7590 C   0  0  0  0  0  2  0  0  0  0  0  0
  -29.3030  -17.5820   21.1430 C   0  0  0  0  0  2  0  0  0  0  0  0
  -32.0030  -18.7200   21.0870 C   0  0  0  0  0  2  0  0  0  0  0  0
  -29.5930  -19.0660   21.4480 C   0  0  0  0  0  2  0  0  0  0  0  0
  -30.5070  -16.6730   21.4640 C   0  0  0  0  0  3  0  0  0  0  0  0
  -30.8120  -19.5310   20.7400 N   0  0  1  0  0  4  0  0  0  0  0  0
  -30.6490  -19.4260   19.7430 H   0  0  0  0  0  0  0  0  0  0  0  0
  -30.7000  -14.3840   20.3110 C   0  0  0  0  0  0  0  0  0  0  0  0
  -30.2830  -12.3240   19.0280 C   0  0  0  0  0  2  0  0  0  0  0  0
  -29.2980  -12.6130   17.8780 C   0  0  0  0  0  2  0  0  0  0  0  0
  -27.8410  -12.4760   18.3620 C   0  0  0  0  0  2  0  0  0  0  0  0
  -27.5710  -13.2570   19.6770 C   0  0  0  0  0  3  0  0  0  0  0  0
  -28.6620  -12.9510   20.7290 C   0  0  0  0  0  2  0  0  0  0  0  0
  -29.9770  -13.2480   20.1290 N   0  0  0  0  0  0  0  0  0  0  0  0
  -31.7460  -14.6080   19.6970 O   0  0  0  0  0  0  0  0  0  0  0  0
  -30.1530  -15.2750   21.1540 N   0  0  0  0  0  0  0  0  0  0  0  0
  -29.3150  -14.9360   21.6030 H   0  0  0  0  0  0  0  0  0  0  0  0
  -25.1920  -13.8600   20.4610 C   0  0  0  0  0  0  0  0  0  0  0  0
  -24.1360  -13.0830   20.8580 C   0  0  0  0  0  0  0  0  0  0  0  0
  -24.5960  -11.7320   20.8010 C   0  0  0  0  0  0  0  0  0  0  0  0
  -26.2310  -12.9810   20.1920 N   0  0  0  0  0  0  0  0  0  0  0  0
  -25.8760  -11.6960   20.4510 N   0  0  0  0  0  0  0  0  0  0  0  0
  -23.8780  -10.4670   21.0030 C   0  0  0  0  0  0  0  0  0  0  0  0
  -24.3450   -9.4900   21.9090 C   0  0  0  0  0  3  0  0  0  0  0  0
  -23.6270   -8.2890   22.1000 C   0  0  0  0  0  3  0  0  0  0  0  0
  -22.4280   -8.0580   21.3850 C   0  0  0  0  0  0  0  0  0  0  0  0
  -21.9790   -9.0240   20.4680 C   0  0  0  0  0  3  0  0  0  0  0  0
  -22.6980  -10.2160   20.2740 C   0  0  0  0  0  3  0  0  0  0  0  0
  -21.6800   -6.9100   21.4860 O   0  0  0  0  0  0  0  0  0  0  0  0
  -21.6780   -6.1500   22.6270 C   0  0  0  0  0  0  0  0  0  0  0  0
  -21.3150   -6.6890   23.8820 C   0  0  0  0  0  3  0  0  0  0  0  0
  -21.2600   -5.8570   25.0170 C   0  0  0  0  0  3  0  0  0  0  0  0
  -21.5560   -4.4860   24.9010 C   0  0  0  0  0  0  0  0  0  0  0  0
  -21.9130   -3.9460   23.6520 C   0  0  0  0  0  3  0  0  0  0  0  0
  -21.9700   -4.7760   22.5190 C   0  0  0  0  0  0  0  0  0  0  0  0
  -22.2930   -4.2460   21.3140 F   0  0  0  0  0  0  0  0  0  0  0  0
  -21.4960   -3.6830   25.9890 F   0  0  0  0  0  0  0  0  0  0  0  0
  -22.7470  -13.5560   21.1790 C   0  0  0  0  0  0  0  0  0  0  0  0
  -22.0500  -12.8540   22.0660 N   0  0  0  0  0  0  0  0  0  0  0  0
  -22.2900  -14.5830   20.6800 O   0  0  0  0  0  0  0  0  0  0  0  0
  -22.4320  -12.0240   22.4930 H   0  0  0  0  0  0  0  0  0  0  0  0
  -21.1190  -13.1520   22.3220 H   0  0  0  0  0  0  0  0  0  0  0  0
  -25.3500  -15.2310   20.2910 N   0  0  0  0  0  0  0  0  0  0  0  0
  -24.5880  -15.8860   20.4290 H   0  0  0  0  0  0  0  0  0  0  0  0
  -26.1920  -15.6710   19.9380 H   0  0  0  0  0  0  0  0  0  0  0  0
  1 50  1  0
  2  1  2  0
  3  1  1  0
  4  6  2  0
  5  3  1  0
  5  4  1  0
  7  5  1  0
  8  4  1  0
  8  9  1  0
  9 11  1  0
 10 21  2  0
 11 16  1  0
 12 20  1  0
 12 22  1  0
 13 19  1  0
 13 15  1  0
 14 20  1  0
 15 14  1  0
 16 15  2  0
 17 18  1  0
 17 11  2  0
 18 13  2  0
 19 12  1  0
 20 10  1  0
 22 24  2  0
 23 22  1  0
 25 23  1  0
 26 35  2  0
 26 31  1  0
 27 23  1  0
 27 31  1  0
 28 27  1  0
 29 30  1  0
 29 28  1  0
 30 26  1  0
 31 32  2  0
 32 33  1  0
 34 33  2  0
 35 34  1  0
 36 10  1  0
 36 37  1  0
 36 46  1  0
 37 40  1  0
 38 42  1  0
 38 37  1  0
 39 38  2  0
 42 41  1  0
 44 42  1  0
 44 45  1  0
 44 43  1  0
 46 49  1  1
 46 47  1  0
 48 46  1  0
 51 53  1  0
 51 55  1  0
 52 54  1  0
 52 55  1  0
 55 66  1  0
 56 50  1  0
 56 53  1  0
 56 54  1  0
 56 57  1  6
 58 66  1  0
 59 64  1  0
 60 61  1  0
 60 59  1  0
 62 61  1  0
 62 71  1  0
 62 63  1  0
 64 58  1  0
 64 63  1  0
 65 58  2  0
 66 67  1  0
 68 69  2  0
 69 88  1  0
 70 69  1  0
 70 73  1  0
 71 72  1  0
 71 68  1  0
 72 70  2  0
 73 74  1  0
 74 75  2  0
 76 79  1  0
 76 75  1  0
 77 76  2  0
 78 77  1  0
 78 73  2  0
 79 80  1  0
 80 81  1  0
 81 82  2  0
 83 82  1  0
 83 87  1  0
 84 83  2  0
 85 80  2  0
 85 84  1  0
 86 85  1  0
 88 89  1  0
 89 92  1  0
 89 91  1  0
 90 88  2  0
 93 94  1  0
 93 68  1  0
 95 93  1  0
M  ISO  4   8 101   9 101  58 100  66 100
M  END
>  <TORSDO>  (34) 
F 21

>  <SCORE>  (34) 
-13.199

>  <name>  (34) 
33

>  <ligand_id>  (34) 
33

>  <original_smiles>  (34) 
[H]c1c([H])c([H])c2c(c1[H])C([H])([H])C([H])([H])C([H])([H])C2([H])N([H])C(=O)C1([H])N(C(=O)C([H])(N([H])C(=O)C([H])(N([H])C([H])([H])[H])C([H])([H])[H])C(C([H])([H])[H])(C([H])([H])[H])C([H])([H])[H])C([H])([H])c2c([H])c(OC([H])([H])C(=O)N([H])C([H])([H])C(=O)C([H])([H])[N+]3([H])C([H])([H])C([H])([H])C([H])(N([H])C(=O)N4C([H])([H])C([H])([H])C([H])([H])C([H])(n5nc(-c6c([H])c([H])c(Oc7c([H])c([H])c(F)c([H])c7F)c([H])c6[H])c(C(=O)N([H])[H])c5N([H])[H])C4([H])[H])C([H])([H])C3([H])[H])c([H])c([H])c2C1([H])[H]

>  <smiles>  (34) 
[H]c1c([H])c([H])c2c(c1[H])C([H])([H])C([H])([H])C([H])([H])C2([H])N([H])C(=O)C1([H])N(C(=O)C([H])(N([H])C(=O)C([H])(N([H])C([H])([H])[H])C([H])([H])[H])C(C([H])([H])[H])(C([H])([H])[H])C([H])([H])[H])C([H])([H])c2c([H])c(OC([H])([H])C(=O)N([H])C([H])([H])C(=O)C([H])([H])[N+]3([H])C([H])([H])C([H])([H])C([H])(N([H])C(=O)N4C([H])([H])C([H])([H])C([H])([H])C([H])(n5nc(-c6c([H])c([H])c(Oc7c([H])c([H])c(F)c([H])c7F)c([H])c6[H])c(C(=O)N([H])[H])c5N([H])[H])C4([H])[H])C([H])([H])C3([H])[H])c([H])c([H])c2C1([H])[H]

$$$$
34:0:0
     RDKit          3D

 98107  0  0  1  0  0  0  0  0999 V2000
  -28.1890  -21.5450   21.8740 C   0  0  0  0  0  2  0  0  0  0  0  0
  -27.8450  -23.0050   21.5930 C   0  0  0  0  0  2  0  0  0  0  0  0
  -28.6200  -21.0360   20.4910 C   0  0  0  0  0  3  0  0  0  0  0  0
  -28.8520  -23.4460   20.5100 C   0  0  0  0  0  3  0  0  0  0  0  0
  -29.3460  -22.1800   19.8910 N   0  0  0  0  0  4  0  0  0  0  0  0
  -29.1030  -22.2850   18.9130 H   0  0  0  0  0  0  0  0  0  0  0  0
  -30.3410  -22.0880   20.0020 H   0  0  0  0  0  0  0  0  0  0  0  0
  -30.1090  -19.1970   21.5360 C   0  0  0  0  0  3  0  0  0  0  0  0
  -30.5220  -17.8520   21.6590 C   0  0  0  0  0  3  0  0  0  0  0  0
  -29.4380  -17.3380   19.5560 C   0  0  0  0  0  3  0  0  0  0  0  0
  -29.2970  -19.6340   20.4590 C   0  0  0  0  0  0  0  0  0  0  0  0
  -29.0080  -18.6850   19.4350 C   0  0  0  0  0  0  0  0  0  0  0  0
  -30.1680  -16.8990   20.6830 C   0  0  0  0  0  0  0  0  0  0  0  0
  -28.1800  -19.0550   18.2140 C   0  0  0  0  0  1  0  0  0  0  0  0
  -30.9520  -14.6190   20.0800 C   0  0  0  0  0  0  0  0  0  0  0  0
  -30.6260  -12.4530   18.9310 C   0  0  0  0  0  2  0  0  0  0  0  0
  -29.6160  -12.6340   17.7790 C   0  0  0  0  0  2  0  0  0  0  0  0
  -28.1640  -12.4990   18.2790 C   0  0  0  0  0  2  0  0  0  0  0  0
  -27.8910  -13.3450   19.5500 C   0  0  0  0  0  3  0  0  0  0  0  0
  -28.9970  -13.1120   20.6050 C   0  0  0  0  0  2  0  0  0  0  0  0
  -30.3000  -13.4250   19.9890 N   0  0  0  0  0  0  0  0  0  0  0  0
  -31.9740  -14.8780   19.4380 O   0  0  0  0  0  0  0  0  0  0  0  0
  -30.4050  -15.5110   20.9290 N   0  0  0  0  0  0  0  0  0  0  0  0
  -29.7860  -15.1010   21.6120 H   0  0  0  0  0  0  0  0  0  0  0  0
  -25.5430  -13.9740   20.4040 C   0  0  0  0  0  0  0  0  0  0  0  0
  -24.4820  -13.2090   20.8090 C   0  0  0  0  0  0  0  0  0  0  0  0
  -24.9140  -11.8520   20.7110 C   0  0  0  0  0  0  0  0  0  0  0  0
  -26.5580  -13.0810   20.0920 N   0  0  0  0  0  0  0  0  0  0  0  0
  -26.1830  -11.7980   20.3280 N   0  0  0  0  0  0  0  0  0  0  0  0
  -24.1740  -10.5970   20.9070 C   0  0  0  0  0  0  0  0  0  0  0  0
  -24.5760   -9.6470   21.8710 C   0  0  0  0  0  3  0  0  0  0  0  0
  -23.8420   -8.4550   22.0530 C   0  0  0  0  0  3  0  0  0  0  0  0
  -22.6910   -8.2050   21.2690 C   0  0  0  0  0  0  0  0  0  0  0  0
  -22.3080   -9.1440   20.2930 C   0  0  0  0  0  3  0  0  0  0  0  0
  -23.0430  -10.3270   20.1110 C   0  0  0  0  0  3  0  0  0  0  0  0
  -21.9290   -7.0660   21.3570 O   0  0  0  0  0  0  0  0  0  0  0  0
  -21.7450   -6.4130   22.5500 C   0  0  0  0  0  0  0  0  0  0  0  0
  -21.1540   -7.0480   23.6640 C   0  0  0  0  0  3  0  0  0  0  0  0
  -20.9220   -6.3190   24.8460 C   0  0  0  0  0  3  0  0  0  0  0  0
  -21.2700   -4.9570   24.9160 C   0  0  0  0  0  0  0  0  0  0  0  0
  -21.8560   -4.3230   23.8060 C   0  0  0  0  0  3  0  0  0  0  0  0
  -22.0900   -5.0480   22.6260 C   0  0  0  0  0  0  0  0  0  0  0  0
  -22.6340   -4.4260   21.5510 F   0  0  0  0  0  0  0  0  0  0  0  0
  -21.0410   -4.2550   26.0500 F   0  0  0  0  0  0  0  0  0  0  0  0
  -23.1120  -13.7010   21.1770 C   0  0  0  0  0  0  0  0  0  0  0  0
  -22.4230  -12.9930   22.0660 N   0  0  0  0  0  0  0  0  0  0  0  0
  -22.6610  -14.7470   20.7120 O   0  0  0  0  0  0  0  0  0  0  0  0
  -22.8000  -12.1470   22.4680 H   0  0  0  0  0  0  0  0  0  0  0  0
  -21.5050  -13.3040   22.3490 H   0  0  0  0  0  0  0  0  0  0  0  0
  -25.7270  -15.3450   20.2600 N   0  0  0  0  0  0  0  0  0  0  0  0
  -24.9890  -16.0180   20.4380 H   0  0  0  0  0  0  0  0  0  0  0  0
  -26.5840  -15.7760   19.9340 H   0  0  0  0  0  0  0  0  0  0  0  0
  -28.1840  -24.4030   19.4650 C   0  0  0  0  0  3  0  0  0  0  0  0
  -27.9340  -23.6380   18.2410 N   0  0  0  0  0  0  0  0  0  0  0  0
  -27.0170  -23.2080   18.3200 H   0  0  0  0  0  0  0  0  0  0  0  0
  -27.8120  -24.2930   17.4730 H   0  0  0  0  0  0  0  0  0  0  0  0
  -28.9160  -25.7430   19.0990 C   0  0  0  0  0  2  0  0  0  0  0  0
  -28.7000  -26.8800   19.9640 O   0  0  0  0  0  0  0  0  0  0  0  0
  -24.6670  -31.8030   23.2120 C   0  0  0  0  0  0  0  0  0  0  0  0
  -27.4970  -27.5710   19.9480 C   0  0  0  0  0  0  0  0  0  0  0  0
  -23.5280  -30.4230   21.5080 C   0  0  0  0  0  3  0  0  0  0  0  0
  -25.0480  -29.0060   20.0260 C   0  0  0  0  0  0  0  0  0  0  0  0
  -26.0440  -30.8760   21.3500 C   0  0  0  0  0  2  0  0  0  0  0  0
  -26.1820  -29.5340   20.6520 C   0  0  0  0  0  0  0  0  0  0  0  0
  -27.4010  -28.8140   20.6270 C   0  0  0  0  0  3  0  0  0  0  0  0
  -26.3400  -27.0780   19.2990 C   0  0  0  0  0  3  0  0  0  0  0  0
  -25.1220  -27.7790   19.3510 C   0  0  0  0  0  3  0  0  0  0  0  0
  -23.7730  -29.8150   20.1040 C   0  0  0  0  0  2  0  0  0  0  0  0
  -24.7640  -31.0460   22.0820 N   0  0  0  0  0  0  0  0  0  0  0  0
  -23.5720  -32.0110   23.7550 O   0  0  0  0  0  0  0  0  0  0  0  0
  -22.9110  -29.3380   22.4190 C   0  0  0  0  0  0  0  0  0  0  0  0
  -21.6000  -29.0890   22.2570 N   0  0  0  0  0  0  0  0  0  0  0  0
  -23.6080  -28.7210   23.2280 O   0  0  0  0  0  0  0  0  0  0  0  0
  -21.0920  -29.6440   21.5820 H   0  0  0  0  0  0  0  0  0  0  0  0
  -18.2910  -27.6880   22.6290 C   0  0  0  0  0  0  0  0  0  0  0  0
  -20.8200  -28.0870   22.9830 C   0  0  0  0  0  3  0  0  0  0  0  0
  -21.0220  -26.6790   22.3750 C   0  0  0  0  0  2  0  0  0  0  0  0
  -19.9700  -26.3220   21.3190 C   0  0  0  0  0  2  0  0  0  0  0  0
  -18.5640  -26.3690   21.9260 C   0  0  0  0  0  2  0  0  0  0  0  0
  -19.3500  -28.5010   23.1140 C   0  0  0  0  0  0  0  0  0  0  0  0
  -19.0410  -29.7320   23.7310 C   0  0  0  0  0  3  0  0  0  0  0  0
  -17.7050  -30.1520   23.8710 C   0  0  0  0  0  3  0  0  0  0  0  0
  -16.6600  -29.3370   23.4050 C   0  0  0  0  0  3  0  0  0  0  0  0
  -16.9540  -28.1070   22.7880 C   0  0  0  0  0  3  0  0  0  0  0  0
  -25.9240  -32.4600   23.8640 C   0  0  0  0  0  3  0  0  0  0  0  0
  -26.4320  -31.6920   25.1450 C   0  0  1  0  0  0  0  0  0  0  0  0
  -25.3180  -31.4120   26.1820 C   0  0  0  0  0  1  0  0  0  0  0  0
  -27.0650  -30.3350   24.7570 C   0  0  0  0  0  1  0  0  0  0  0  0
  -27.5430  -32.5120   25.8420 C   0  0  0  0  0  1  0  0  0  0  0  0
  -25.5820  -33.8500   24.1930 N   0  0  0  0  0  0  0  0  0  0  0  0
  -25.9100  -34.9100   23.4440 C   0  0  0  0  0  0  0  0  0  0  0  0
  -26.6040  -34.8210   22.4270 O   0  0  0  0  0  0  0  0  0  0  0  0
  -24.9680  -33.9950   24.9830 H   0  0  0  0  0  0  0  0  0  0  0  0
  -24.1560  -36.6660   23.0490 C   0  0  0  0  0  1  0  0  0  0  0  0
  -25.3840  -36.2860   23.8920 C   0  0  0  0  0  3  0  0  0  0  0  0
  -27.4730  -37.2120   24.7890 C   0  0  0  0  0  1  0  0  0  0  0  0
  -26.3980  -37.3590   23.8100 N   0  0  0  0  0  0  0  0  0  0  0  0
  -25.9690  -38.2700   23.9480 H   0  0  0  0  0  0  0  0  0  0  0  0
  2  1  1  0
  3 11  1  0
  3  1  1  0
  4 53  1  0
  4  2  1  0
  5  7  1  0
  5  3  1  0
  5  4  1  0
  6  5  1  0
  8  9  1  0
 10 13  1  0
 11  8  2  0
 12 10  2  0
 12 11  1  0
 13 23  1  0
 13  9  2  0
 14 12  1  0
 15 23  1  0
 16 21  1  0
 17 18  1  0
 17 16  1  0
 19 18  1  0
 19 28  1  0
 19 20  1  0
 21 15  1  0
 21 20  1  0
 22 15  2  0
 23 24  1  0
 25 26  2  0
 26 45  1  0
 27 26  1  0
 27 30  1  0
 28 29  1  0
 28 25  1  0
 29 27  2  0
 30 31  1  0
 31 32  2  0
 33 36  1  0
 33 32  1  0
 34 33  2  0
 35 34  1  0
 35 30  2  0
 36 37  1  0
 37 42  2  0
 37 38  1  0
 38 39  2  0
 39 40  1  0
 40 44  1  0
 41 40  2  0
 42 41  1  0
 43 42  1  0
 45 46  1  0
 46 49  1  0
 46 48  1  0
 47 45  2  0
 50 25  1  0
 50 51  1  0
 52 50  1  0
 53 57  1  0
 54 55  1  0
 54 53  1  0
 56 54  1  0
 57 58  1  0
 59 70  2  0
 60 58  1  0
 60 65  1  0
 61 69  1  0
 61 71  1  0
 62 68  1  0
 62 64  1  0
 63 69  1  0
 64 63  1  0
 65 64  2  0
 66 67  1  0
 66 60  2  0
 67 62  2  0
 68 61  1  0
 69 59  1  0
 71 73  2  0
 72 71  1  0
 74 72  1  0
 75 84  2  0
 75 80  1  0
 76 72  1  0
 76 80  1  0
 77 76  1  0
 78 79  1  0
 78 77  1  0
 79 75  1  0
 80 81  2  0
 81 82  1  0
 83 82  2  0
 84 83  1  0
 85 59  1  0
 85 90  1  0
 85 86  1  0
 86 89  1  1
 86 87  1  0
 88 86  1  0
 90 93  1  0
 91 95  1  0
 91 90  1  0
 92 91  2  0
 95 94  1  0
 97 95  1  0
 97 98  1  0
 97 96  1  0
M  ISO  4  15 100  23 100  57 101  58 101
M  END
>  <TORSDO>  (35) 
F 20

>  <SCORE>  (35) 
-13.546

>  <name>  (35) 
34

>  <ligand_id>  (35) 
34

>  <original_smiles>  (35) 
[H]c1c([H])c([H])c2c(c1[H])C([H])([H])C([H])([H])C([H])([H])C2([H])N([H])C(=O)C1([H])N(C(=O)C([H])(N([H])C(=O)C([H])(N([H])C([H])([H])[H])C([H])([H])[H])C(C([H])([H])[H])(C([H])([H])[H])C([H])([H])[H])C([H])([H])c2c([H])c(OC([H])([H])C([H])(N([H])[H])C3([H])C([H])([H])C([H])([H])C([H])(c4c([H])c([H])c(N([H])C(=O)N5C([H])([H])C([H])([H])C([H])([H])C([H])(n6nc(-c7c([H])c([H])c(Oc8c([H])c([H])c(F)c([H])c8F)c([H])c7[H])c(C(=O)N([H])[H])c6N([H])[H])C5([H])[H])c([H])c4C([H])([H])[H])[N+]3([H])[H])c([H])c([H])c2C1([H])[H]

>  <smiles>  (35) 
[H]c1c([H])c([H])c2c(c1[H])C([H])([H])C([H])([H])C([H])([H])C2([H])N([H])C(=O)C1([H])N(C(=O)C([H])(N([H])C(=O)C([H])(N([H])C([H])([H])[H])C([H])([H])[H])C(C([H])([H])[H])(C([H])([H])[H])C([H])([H])[H])C([H])([H])c2c([H])c(OC([H])([H])C([H])(N([H])[H])C3([H])C([H])([H])C([H])([H])C([H])(c4c([H])c([H])c(N([H])C(=O)N5C([H])([H])C([H])([H])C([H])([H])C([H])(n6nc(-c7c([H])c([H])c(Oc8c([H])c([H])c(F)c([H])c8F)c([H])c7[H])c(C(=O)N([H])[H])c6N([H])[H])C5([H])[H])c([H])c4C([H])([H])[H])[N+]3([H])[H])c([H])c([H])c2C1([H])[H]

$$$$
35:0:0
     RDKit          3D

 98107  0  0  1  0  0  0  0  0999 V2000
  -29.7570  -20.3560   22.7980 C   0  0  0  0  0  2  0  0  0  0  0  0
  -28.9450  -21.6330   23.0030 C   0  0  0  0  0  2  0  0  0  0  0  0
  -30.8140  -20.7850   21.7780 C   0  0  0  0  0  3  0  0  0  0  0  0
  -29.1220  -22.4580   21.7070 C   0  0  0  0  0  3  0  0  0  0  0  0
  -31.0110  -22.5830   20.0750 C   0  0  0  0  0  1  0  0  0  0  0  0
  -30.1070  -21.7170   20.8690 N   0  0  1  0  0  4  0  0  0  0  0  0
  -29.5840  -21.1460   20.2240 H   0  0  0  0  0  0  0  0  0  0  0  0
  -33.6660  -18.8770   20.0630 C   0  0  0  0  0  3  0  0  0  0  0  0
  -32.9050  -19.8950   20.6650 C   0  0  0  0  0  3  0  0  0  0  0  0
  -33.1110  -17.6010   19.8760 C   0  0  0  0  0  3  0  0  0  0  0  0
  -31.0200  -18.3620   20.8790 C   0  0  0  0  0  3  0  0  0  0  0  0
  -31.5770  -19.6500   21.0830 C   0  0  0  0  0  0  0  0  0  0  0  0
  -31.7780  -17.3340   20.2720 C   0  0  0  0  0  0  0  0  0  0  0  0
  -31.6990  -14.9990   19.4410 C   0  0  0  0  0  0  0  0  0  0  0  0
  -31.3870  -12.6410   18.7840 C   0  0  0  0  0  2  0  0  0  0  0  0
  -30.3490  -12.5160   17.6540 C   0  0  0  0  0  2  0  0  0  0  0  0
  -28.9270  -12.4140   18.2340 C   0  0  0  0  0  2  0  0  0  0  0  0
  -28.6320  -13.5180   19.2840 C   0  0  0  0  0  3  0  0  0  0  0  0
  -29.7740  -13.6140   20.3200 C   0  0  0  0  0  2  0  0  0  0  0  0
  -31.0400  -13.8200   19.5940 N   0  0  0  0  0  0  0  0  0  0  0  0
  -32.6710  -15.1220   18.6900 O   0  0  0  0  0  0  0  0  0  0  0  0
  -31.2000  -16.0400   20.1290 N   0  0  0  0  0  0  0  0  0  0  0  0
  -30.3140  -15.8800   20.5830 H   0  0  0  0  0  0  0  0  0  0  0  0
  -26.4000  -14.2350   20.3480 C   0  0  0  0  0  0  0  0  0  0  0  0
  -25.3340  -13.5120   20.8140 C   0  0  0  0  0  0  0  0  0  0  0  0
  -25.6830  -12.1390   20.6380 C   0  0  0  0  0  0  0  0  0  0  0  0
  -27.3360  -13.3040   19.9270 N   0  0  0  0  0  0  0  0  0  0  0  0
  -26.9140  -12.0340   20.1550 N   0  0  0  0  0  0  0  0  0  0  0  0
  -24.8950  -10.9170   20.8520 C   0  0  0  0  0  0  0  0  0  0  0  0
  -25.2140  -10.0020   21.8790 C   0  0  0  0  0  3  0  0  0  0  0  0
  -24.4300   -8.8440   22.0760 C   0  0  0  0  0  3  0  0  0  0  0  0
  -23.3150   -8.5930   21.2430 C   0  0  0  0  0  0  0  0  0  0  0  0
  -23.0150   -9.4950   20.2070 C   0  0  0  0  0  3  0  0  0  0  0  0
  -23.7990  -10.6450   20.0100 C   0  0  0  0  0  3  0  0  0  0  0  0
  -22.5120   -7.4820   21.3430 O   0  0  0  0  0  0  0  0  0  0  0  0
  -22.1210   -6.9830   22.5600 C   0  0  0  0  0  0  0  0  0  0  0  0
  -21.3710   -7.7550   23.4740 C   0  0  0  0  0  3  0  0  0  0  0  0
  -20.9310   -7.1810   24.6830 C   0  0  0  0  0  3  0  0  0  0  0  0
  -21.2310   -5.8360   24.9760 C   0  0  0  0  0  0  0  0  0  0  0  0
  -21.9720   -5.0650   24.0640 C   0  0  0  0  0  3  0  0  0  0  0  0
  -22.4140   -5.6370   22.8570 C   0  0  0  0  0  0  0  0  0  0  0  0
  -23.1100   -4.8840   21.9730 F   0  0  0  0  0  0  0  0  0  0  0  0
  -20.8010   -5.2820   26.1340 F   0  0  0  0  0  0  0  0  0  0  0  0
  -24.0270  -14.0620   21.3050 C   0  0  0  0  0  0  0  0  0  0  0  0
  -23.3930  -13.3800   22.2550 N   0  0  0  0  0  0  0  0  0  0  0  0
  -23.5810  -15.1290   20.8840 O   0  0  0  0  0  0  0  0  0  0  0  0
  -23.7690  -12.5160   22.6150 H   0  0  0  0  0  0  0  0  0  0  0  0
  -22.5200  -13.7280   22.6260 H   0  0  0  0  0  0  0  0  0  0  0  0
  -26.6440  -15.6010   20.2310 N   0  0  0  0  0  0  0  0  0  0  0  0
  -25.9500  -16.2980   20.4780 H   0  0  0  0  0  0  0  0  0  0  0  0
  -27.4750  -16.0000   19.8140 H   0  0  0  0  0  0  0  0  0  0  0  0
  -27.7740  -22.7210   20.9910 C   0  0  0  0  0  2  0  0  0  0  0  0
  -28.0730  -24.8420   19.7270 C   0  0  0  0  0  0  0  0  0  0  0  0
  -27.8880  -23.5130   19.7610 N   0  0  0  0  0  0  0  0  0  0  0  0
  -28.3080  -25.4900   20.7510 O   0  0  0  0  0  0  0  0  0  0  0  0
  -27.7010  -23.0460   18.8830 H   0  0  0  0  0  0  0  0  0  0  0  0
  -27.9810  -25.5350   18.3530 C   0  0  0  0  0  2  0  0  0  0  0  0
  -27.9210  -26.9630   18.4820 O   0  0  0  0  0  0  0  0  0  0  0  0
  -24.6460  -31.2520   23.0850 C   0  0  0  0  0  0  0  0  0  0  0  0
  -26.7330  -27.5970   18.7890 C   0  0  0  0  0  0  0  0  0  0  0  0
  -23.1840  -30.2130   21.3790 C   0  0  0  0  0  3  0  0  0  0  0  0
  -24.3830  -29.0220   19.4710 C   0  0  0  0  0  0  0  0  0  0  0  0
  -25.6570  -30.6410   20.8890 C   0  0  0  0  0  2  0  0  0  0  0  0
  -25.6210  -29.4330   19.9760 C   0  0  0  0  0  0  0  0  0  0  0  0
  -26.7940  -28.7260   19.6350 C   0  0  0  0  0  3  0  0  0  0  0  0
  -25.4710  -27.1890   18.2950 C   0  0  0  0  0  3  0  0  0  0  0  0
  -24.3020  -27.8970   18.6320 C   0  0  0  0  0  3  0  0  0  0  0  0
  -23.1740  -29.8360   19.8740 C   0  0  0  0  0  2  0  0  0  0  0  0
  -24.5230  -30.7040   21.8430 N   0  0  0  0  0  0  0  0  0  0  0  0
  -23.6620  -31.3920   23.8220 O   0  0  0  0  0  0  0  0  0  0  0  0
  -22.6610  -29.0070   22.1920 C   0  0  0  0  0  0  0  0  0  0  0  0
  -21.3810  -28.6560   21.9830 N   0  0  0  0  0  0  0  0  0  0  0  0
  -23.4020  -28.3930   22.9630 O   0  0  0  0  0  0  0  0  0  0  0  0
  -20.8350  -29.2130   21.3410 H   0  0  0  0  0  0  0  0  0  0  0  0
  -18.3200  -26.7390   21.9310 C   0  0  0  0  0  0  0  0  0  0  0  0
  -20.6870  -27.5290   22.6050 C   0  0  0  0  0  3  0  0  0  0  0  0
  -21.1880  -26.1820   22.0360 C   0  0  0  0  0  2  0  0  0  0  0  0
  -20.3510  -25.6770   20.8580 C   0  0  0  0  0  2  0  0  0  0  0  0
  -18.8900  -25.4920   21.2760 C   0  0  0  0  0  2  0  0  0  0  0  0
  -19.1660  -27.7040   22.5420 C   0  0  0  0  0  0  0  0  0  0  0  0
  -18.5900  -28.8630   23.1040 C   0  0  0  0  0  3  0  0  0  0  0  0
  -17.1980  -29.0660   23.0670 C   0  0  0  0  0  3  0  0  0  0  0  0
  -16.3640  -28.1000   22.4770 C   0  0  0  0  0  3  0  0  0  0  0  0
  -16.9250  -26.9390   21.9150 C   0  0  0  0  0  3  0  0  0  0  0  0
  -26.0220  -31.7520   23.6270 C   0  0  0  0  0  3  0  0  0  0  0  0
  -26.6300  -30.8160   24.7410 C   0  0  1  0  0  0  0  0  0  0  0  0
  -25.6330  -30.4670   25.8710 C   0  0  0  0  0  1  0  0  0  0  0  0
  -27.1310  -29.4890   24.1240 C   0  0  0  0  0  1  0  0  0  0  0  0
  -27.8620  -31.4970   25.3850 C   0  0  0  0  0  1  0  0  0  0  0  0
  -25.8280  -33.1150   24.1390 N   0  0  0  0  0  0  0  0  0  0  0  0
  -26.1720  -34.2310   23.4830 C   0  0  0  0  0  0  0  0  0  0  0  0
  -26.7640  -34.2150   22.3990 O   0  0  0  0  0  0  0  0  0  0  0  0
  -25.3000  -33.2070   24.9960 H   0  0  0  0  0  0  0  0  0  0  0  0
  -24.5550  -36.1560   23.4470 C   0  0  0  0  0  1  0  0  0  0  0  0
  -25.8040  -35.5790   24.1320 C   0  0  0  0  0  3  0  0  0  0  0  0
  -28.0300  -36.2230   24.9440 C   0  0  0  0  0  1  0  0  0  0  0  0
  -26.8990  -36.5720   24.0880 N   0  0  0  0  0  0  0  0  0  0  0  0
  -26.5640  -37.4910   24.3630 H   0  0  0  0  0  0  0  0  0  0  0  0
  1  2  1  0
  3 12  1  0
  3  1  1  0
  4 52  1  0
  4  2  1  0
  5  6  1  0
  6  4  1  0
  6  3  1  0
  6  7  1  6
  8  9  1  0
  9 12  2  0
 10  8  2  0
 10 13  1  0
 11 12  1  0
 13 11  2  0
 14 20  1  0
 14 22  1  0
 15 20  1  0
 16 17  1  0
 16 15  1  0
 18 17  1  0
 18 27  1  0
 18 19  1  0
 20 19  1  0
 21 14  2  0
 22 13  1  0
 22 23  1  0
 24 25  2  0
 25 44  1  0
 26 25  1  0
 26 29  1  0
 27 28  1  0
 27 24  1  0
 28 26  2  0
 29 30  1  0
 30 31  2  0
 32 35  1  0
 32 31  1  0
 33 32  2  0
 34 33  1  0
 34 29  2  0
 35 36  1  0
 36 41  2  0
 36 37  1  0
 37 38  2  0
 38 39  1  0
 39 43  1  0
 40 39  2  0
 41 40  1  0
 42 41  1  0
 44 45  1  0
 45 47  1  0
 45 48  1  0
 46 44  2  0
 49 24  1  0
 49 50  1  0
 51 49  1  0
 53 54  1  0
 53 55  2  0
 54 52  1  0
 56 54  1  0
 57 58  1  0
 57 53  1  0
 58 60  1  0
 59 70  2  0
 60 65  1  0
 61 69  1  0
 61 71  1  0
 62 68  1  0
 62 64  1  0
 63 69  1  0
 64 63  1  0
 65 64  2  0
 66 67  1  0
 66 60  2  0
 67 62  2  0
 68 61  1  0
 69 59  1  0
 71 73  2  0
 72 71  1  0
 74 72  1  0
 75 80  1  0
 76 72  1  0
 77 76  1  0
 78 79  1  0
 78 77  1  0
 79 75  1  0
 80 76  1  0
 80 81  2  0
 82 81  1  0
 83 82  2  0
 84 75  2  0
 84 83  1  0
 85 59  1  0
 85 90  1  0
 85 86  1  0
 86 89  1  1
 86 87  1  0
 88 86  1  0
 90 93  1  0
 91 95  1  0
 91 90  1  0
 92 91  2  0
 95 94  1  0
 97 95  1  0
 97 98  1  0
 97 96  1  0
M  ISO  4  14 100  22 100  57 101  58 101
M  END
>  <TORSDO>  (36) 
F 20

>  <SCORE>  (36) 
-9.156

>  <name>  (36) 
35

>  <ligand_id>  (36) 
35

>  <original_smiles>  (36) 
[H]c1c([H])c([H])c2c(c1[H])C([H])([H])C([H])([H])C([H])([H])C2([H])N([H])C(=O)C1([H])N(C(=O)C([H])(N([H])C(=O)C([H])(N([H])C([H])([H])[H])C([H])([H])[H])C(C([H])([H])[H])(C([H])([H])[H])C([H])([H])[H])C([H])([H])c2c([H])c(OC([H])([H])C(=O)N([H])C([H])([H])C3([H])C([H])([H])C([H])([H])C([H])(c4c([H])c([H])c([H])c(N([H])C(=O)N5C([H])([H])C([H])([H])C([H])([H])C([H])(n6nc(-c7c([H])c([H])c(Oc8c([H])c([H])c(F)c([H])c8F)c([H])c7[H])c(C(=O)N([H])[H])c6N([H])[H])C5([H])[H])c4[H])[N+]3([H])C([H])([H])[H])c([H])c([H])c2C1([H])[H]

>  <smiles>  (36) 
[H]c1c([H])c([H])c2c(c1[H])C([H])([H])C([H])([H])C([H])([H])C2([H])N([H])C(=O)C1([H])N(C(=O)C([H])(N([H])C(=O)C([H])(N([H])C([H])([H])[H])C([H])([H])[H])C(C([H])([H])[H])(C([H])([H])[H])C([H])([H])[H])C([H])([H])c2c([H])c(OC([H])([H])C(=O)N([H])C([H])([H])C3([H])C([H])([H])C([H])([H])C([H])(c4c([H])c([H])c([H])c(N([H])C(=O)N5C([H])([H])C([H])([H])C([H])([H])C([H])(n6nc(-c7c([H])c([H])c(Oc8c([H])c([H])c(F)c([H])c8F)c([H])c7[H])c(C(=O)N([H])[H])c6N([H])[H])C5([H])[H])c4[H])[N+]3([H])C([H])([H])[H])c([H])c([H])c2C1([H])[H]

$$$$
36:0:0
     RDKit          3D

100109  0  0  1  0  0  0  0  0999 V2000
  -30.3500  -21.7010   23.4220 C   0  0  0  0  0  0  0  0  0  0  0  0
  -30.3040  -20.3760   23.2470 N   0  0  0  0  0  0  0  0  0  0  0  0
  -31.3340  -22.2650   23.9040 O   0  0  0  0  0  0  0  0  0  0  0  0
  -29.4500  -19.9820   22.8760 H   0  0  0  0  0  0  0  0  0  0  0  0
  -29.0390  -25.0910   19.7520 C   0  0  0  0  0  0  0  0  0  0  0  0
  -28.7080  -22.1280   21.5260 C   0  0  0  0  0  2  0  0  0  0  0  0
  -29.2670  -24.0370   23.1090 C   0  0  0  0  0  2  0  0  0  0  0  0
  -29.6240  -22.7990   20.4840 C   0  0  0  0  0  2  0  0  0  0  0  0
  -30.1220  -24.6550   21.9790 C   0  0  0  0  0  2  0  0  0  0  0  0
  -29.1070  -22.4980   22.9750 C   0  0  0  0  0  3  0  0  0  0  0  0
  -29.5740  -24.2550   20.6740 N   0  0  0  0  0  0  0  0  0  0  0  0
  -28.6110  -24.6800   18.6660 O   0  0  0  0  0  0  0  0  0  0  0  0
  -28.9540  -26.5970   20.0570 C   0  0  0  0  0  2  0  0  0  0  0  0
  -28.3670  -27.2760   18.9470 O   0  0  0  0  0  0  0  0  0  0  0  0
  -24.4770  -31.5100   23.1240 C   0  0  0  0  0  0  0  0  0  0  0  0
  -27.1480  -27.8320   19.2160 C   0  0  0  0  0  0  0  0  0  0  0  0
  -23.2170  -30.1830   21.4550 C   0  0  0  0  0  3  0  0  0  0  0  0
  -24.6300  -28.9940   19.6960 C   0  0  0  0  0  0  0  0  0  0  0  0
  -25.6410  -30.8580   21.0230 C   0  0  0  0  0  2  0  0  0  0  0  0
  -25.7880  -29.5870   20.2190 C   0  0  0  0  0  0  0  0  0  0  0  0
  -27.0510  -29.0070   19.9880 C   0  0  0  0  0  3  0  0  0  0  0  0
  -25.9830  -27.2380   18.6950 C   0  0  0  0  0  3  0  0  0  0  0  0
  -24.7200  -27.8120   18.9370 C   0  0  0  0  0  3  0  0  0  0  0  0
  -23.3220  -29.6930   19.9850 C   0  0  0  0  0  2  0  0  0  0  0  0
  -24.4690  -30.8590   21.9270 N   0  0  0  0  0  0  0  0  0  0  0  0
  -23.4500  -31.5920   23.8130 O   0  0  0  0  0  0  0  0  0  0  0  0
  -22.7960  -28.9890   22.3410 C   0  0  0  0  0  0  0  0  0  0  0  0
  -21.5440  -28.5340   22.1710 N   0  0  0  0  0  0  0  0  0  0  0  0
  -23.5910  -28.4770   23.1320 O   0  0  0  0  0  0  0  0  0  0  0  0
  -20.9510  -29.0140   21.5090 H   0  0  0  0  0  0  0  0  0  0  0  0
  -18.5920  -26.4620   22.3340 C   0  0  0  0  0  0  0  0  0  0  0  0
  -20.9420  -27.3960   22.8650 C   0  0  0  0  0  3  0  0  0  0  0  0
  -21.4880  -26.0570   22.3170 C   0  0  0  0  0  2  0  0  0  0  0  0
  -20.6240  -25.4670   21.1980 C   0  0  0  0  0  2  0  0  0  0  0  0
  -19.1960  -25.2220   21.6950 C   0  0  0  0  0  2  0  0  0  0  0  0
  -19.4130  -27.4900   22.8690 C   0  0  0  0  0  0  0  0  0  0  0  0
  -18.8010  -28.6360   23.4200 C   0  0  0  0  0  3  0  0  0  0  0  0
  -17.4000  -28.7650   23.4440 C   0  0  0  0  0  3  0  0  0  0  0  0
  -16.5920  -27.7370   22.9250 C   0  0  0  0  0  3  0  0  0  0  0  0
  -17.1880  -26.5880   22.3770 C   0  0  0  0  0  3  0  0  0  0  0  0
  -25.7650  -32.2000   23.6730 C   0  0  0  0  0  3  0  0  0  0  0  0
  -26.4400  -31.4040   24.8560 C   0  0  1  0  0  0  0  0  0  0  0  0
  -25.4600  -31.0310   25.9930 C   0  0  0  0  0  1  0  0  0  0  0  0
  -27.0780  -30.0950   24.3320 C   0  0  0  0  0  1  0  0  0  0  0  0
  -27.5850  -32.2430   25.4710 C   0  0  0  0  0  1  0  0  0  0  0  0
  -25.3930  -33.5560   24.1000 N   0  0  0  0  0  0  0  0  0  0  0  0
  -25.6320  -34.6660   23.3910 C   0  0  0  0  0  0  0  0  0  0  0  0
  -26.2650  -34.6630   22.3310 O   0  0  0  0  0  0  0  0  0  0  0  0
  -24.8290  -33.6290   24.9340 H   0  0  0  0  0  0  0  0  0  0  0  0
  -23.8010  -36.3760   23.1860 C   0  0  0  0  0  1  0  0  0  0  0  0
  -25.0820  -35.9940   23.9450 C   0  0  0  0  0  3  0  0  0  0  0  0
  -27.1880  -36.9420   24.7840 C   0  0  0  0  0  1  0  0  0  0  0  0
  -26.0510  -37.1100   23.8810 N   0  0  0  0  0  0  0  0  0  0  0  0
  -25.5980  -37.9900   24.1060 H   0  0  0  0  0  0  0  0  0  0  0  0
  -31.4270  -19.4640   23.4260 C   0  0  0  0  0  2  0  0  0  0  0  0
  -33.2020  -19.0740   20.0610 C   0  0  0  0  0  3  0  0  0  0  0  0
  -32.7630  -19.5840   21.2940 C   0  0  0  0  0  3  0  0  0  0  0  0
  -32.7630  -17.8110   19.6240 C   0  0  0  0  0  3  0  0  0  0  0  0
  -31.8680  -18.8510   22.0980 C   0  0  0  0  0  0  0  0  0  0  0  0
  -31.3950  -17.5880   21.6500 C   0  0  0  0  0  0  0  0  0  0  0  0
  -31.8660  -17.0570   20.4160 C   0  0  0  0  0  0  0  0  0  0  0  0
  -30.3990  -16.7930   22.4980 C   0  0  0  0  0  1  0  0  0  0  0  0
  -31.9270  -14.7950   19.2610 C   0  0  0  0  0  0  0  0  0  0  0  0
  -31.5430  -12.4630   18.5170 C   0  0  0  0  0  2  0  0  0  0  0  0
  -30.4540  -12.3930   17.4290 C   0  0  0  0  0  2  0  0  0  0  0  0
  -29.0450  -12.3420   18.0510 C   0  0  0  0  0  2  0  0  0  0  0  0
  -28.8320  -13.4320   19.1320 C   0  0  0  0  0  3  0  0  0  0  0  0
  -30.0040  -13.4130   20.1340 C   0  0  0  0  0  2  0  0  0  0  0  0
  -31.2560  -13.6190   19.3780 N   0  0  0  0  0  0  0  0  0  0  0  0
  -32.8740  -14.9570   18.4860 O   0  0  0  0  0  0  0  0  0  0  0  0
  -31.4270  -15.7520   20.0610 N   0  0  0  0  0  0  0  0  0  0  0  0
  -30.6050  -15.4430   20.5550 H   0  0  0  0  0  0  0  0  0  0  0  0
  -26.6890  -14.2490   20.3060 C   0  0  0  0  0  0  0  0  0  0  0  0
  -25.5940  -13.5760   20.7760 C   0  0  0  0  0  0  0  0  0  0  0  0
  -25.8430  -12.1920   20.5260 C   0  0  0  0  0  0  0  0  0  0  0  0
  -27.5440  -13.2780   19.8060 N   0  0  0  0  0  0  0  0  0  0  0  0
  -27.0460  -12.0300   19.9910 N   0  0  0  0  0  0  0  0  0  0  0  0
  -24.9840  -11.0150   20.7130 C   0  0  0  0  0  0  0  0  0  0  0  0
  -25.3550   -9.9600   21.5740 C   0  0  0  0  0  3  0  0  0  0  0  0
  -24.5040   -8.8470   21.7500 C   0  0  0  0  0  3  0  0  0  0  0  0
  -23.2680   -8.7850   21.0640 C   0  0  0  0  0  0  0  0  0  0  0  0
  -22.9130   -9.8280   20.1900 C   0  0  0  0  0  3  0  0  0  0  0  0
  -23.7640  -10.9310   20.0120 C   0  0  0  0  0  3  0  0  0  0  0  0
  -22.3900   -7.7320   21.1540 O   0  0  0  0  0  0  0  0  0  0  0  0
  -22.1690   -7.0770   22.3400 C   0  0  0  0  0  0  0  0  0  0  0  0
  -21.7230   -7.7570   23.4940 C   0  0  0  0  0  3  0  0  0  0  0  0
  -21.4420   -7.0340   24.6710 C   0  0  0  0  0  3  0  0  0  0  0  0
  -21.5960   -5.6350   24.6940 C   0  0  0  0  0  0  0  0  0  0  0  0
  -22.0340   -4.9560   23.5440 C   0  0  0  0  0  3  0  0  0  0  0  0
  -22.3170   -5.6750   22.3690 C   0  0  0  0  0  0  0  0  0  0  0  0
  -22.7200   -5.0140   21.2570 F   0  0  0  0  0  0  0  0  0  0  0  0
  -21.3170   -4.9410   25.8230 F   0  0  0  0  0  0  0  0  0  0  0  0
  -24.3430  -14.1860   21.3390 C   0  0  0  0  0  0  0  0  0  0  0  0
  -23.6950  -13.5050   22.2780 N   0  0  0  0  0  0  0  0  0  0  0  0
  -23.9570  -15.2970   20.9800 O   0  0  0  0  0  0  0  0  0  0  0  0
  -24.0210  -12.6010   22.5890 H   0  0  0  0  0  0  0  0  0  0  0  0
  -22.8600  -13.8940   22.6920 H   0  0  0  0  0  0  0  0  0  0  0  0
  -27.0190  -15.6000   20.2440 N   0  0  0  0  0  0  0  0  0  0  0  0
  -26.3750  -16.3230   20.5450 H   0  0  0  0  0  0  0  0  0  0  0  0
  -27.8520  -15.9680   19.8020 H   0  0  0  0  0  0  0  0  0  0  0  0
  1  3  2  0
  2  1  1  0
  2 55  1  0
  4  2  1  0
  5 13  1  0
  5 11  1  0
  6 10  1  0
  8 11  1  0
  8  6  1  0
  9  7  1  0
 10  7  1  0
 10  1  1  0
 11  9  1  0
 12  5  2  0
 14 16  1  0
 14 13  1  0
 15 26  2  0
 16 21  1  0
 17 25  1  0
 17 27  1  0
 18 24  1  0
 18 20  1  0
 19 25  1  0
 20 19  1  0
 21 20  2  0
 22 23  1  0
 22 16  2  0
 23 18  2  0
 24 17  1  0
 25 15  1  0
 27 29  2  0
 28 27  1  0
 30 28  1  0
 31 40  2  0
 31 36  1  0
 32 28  1  0
 32 36  1  0
 33 32  1  0
 34 35  1  0
 34 33  1  0
 35 31  1  0
 36 37  2  0
 37 38  1  0
 39 38  2  0
 40 39  1  0
 41 15  1  0
 41 46  1  0
 41 42  1  0
 42 45  1  1
 42 43  1  0
 44 42  1  0
 46 49  1  0
 47 51  1  0
 47 46  1  0
 48 47  2  0
 51 50  1  0
 53 51  1  0
 53 54  1  0
 53 52  1  0
 56 57  1  0
 57 59  2  0
 58 56  2  0
 58 61  1  0
 59 55  1  0
 60 59  1  0
 60 62  1  0
 61 60  2  0
 63 69  1  0
 63 71  1  0
 64 69  1  0
 65 66  1  0
 65 64  1  0
 67 66  1  0
 67 76  1  0
 67 68  1  0
 69 68  1  0
 70 63  2  0
 71 61  1  0
 71 72  1  0
 73 74  2  0
 74 93  1  0
 75 78  1  0
 75 74  1  0
 76 77  1  0
 76 73  1  0
 77 75  2  0
 78 79  1  0
 79 80  2  0
 81 84  1  0
 81 80  1  0
 82 81  2  0
 83 82  1  0
 83 78  2  0
 84 85  1  0
 85 90  2  0
 85 86  1  0
 86 87  2  0
 87 88  1  0
 88 92  1  0
 89 88  2  0
 90 89  1  0
 91 90  1  0
 93 94  1  0
 94 96  1  0
 94 97  1  0
 95 93  2  0
 98 73  1  0
 98 99  1  0
100 98  1  0
M  ISO  4  13 101  14 101  63 100  71 100
M  END
>  <TORSDO>  (37) 
F 20

>  <SCORE>  (37) 
-10.508

>  <name>  (37) 
36

>  <ligand_id>  (37) 
36

>  <original_smiles>  (37) 
[H]c1c([H])c(N([H])C(=O)N2C([H])([H])C([H])([H])C([H])([H])C([H])(n3nc(-c4c([H])c([H])c(Oc5c([H])c([H])c(F)c([H])c5F)c([H])c4[H])c(C(=O)N([H])[H])c3N([H])[H])C2([H])[H])c(C([H])([H])[H])c(C([H])([H])N([H])C(=O)C2([H])C([H])([H])C([H])([H])N(C(=O)C([H])([H])Oc3c([H])c([H])c4c(c3[H])C([H])([H])N(C(=O)C([H])(N([H])C(=O)C([H])(N([H])C([H])([H])[H])C([H])([H])[H])C(C([H])([H])[H])(C([H])([H])[H])C([H])([H])[H])C([H])(C(=O)N([H])C3([H])c5c([H])c([H])c([H])c([H])c5C([H])([H])C([H])([H])C3([H])[H])C4([H])[H])C([H])([H])C2([H])[H])c1[H]

>  <smiles>  (37) 
[H]c1c([H])c(N([H])C(=O)N2C([H])([H])C([H])([H])C([H])([H])C([H])(n3nc(-c4c([H])c([H])c(Oc5c([H])c([H])c(F)c([H])c5F)c([H])c4[H])c(C(=O)N([H])[H])c3N([H])[H])C2([H])[H])c(C([H])([H])[H])c(C([H])([H])N([H])C(=O)C2([H])C([H])([H])C([H])([H])N(C(=O)C([H])([H])Oc3c([H])c([H])c4c(c3[H])C([H])([H])N(C(=O)C([H])(N([H])C(=O)C([H])(N([H])C([H])([H])[H])C([H])([H])[H])C(C([H])([H])[H])(C([H])([H])[H])C([H])([H])[H])C([H])(C(=O)N([H])C3([H])c5c([H])c([H])c([H])c([H])c5C([H])([H])C([H])([H])C3([H])[H])C4([H])[H])C([H])([H])C2([H])[H])c1[H]

$$$$
37:0:0
     RDKit          3D

 97106  0  0  1  0  0  0  0  0999 V2000
  -30.5080  -21.3460   21.6700 C   0  0  0  0  0  0  0  0  0  0  0  0
  -29.8670  -20.5500   20.8080 N   0  0  0  0  0  0  0  0  0  0  0  0
  -31.2420  -20.9510   22.5800 O   0  0  0  0  0  0  0  0  0  0  0  0
  -29.3500  -21.1070   20.1470 H   0  0  0  0  0  0  0  0  0  0  0  0
  -30.4540  -17.9210   18.3290 C   0  0  0  0  0  3  0  0  0  0  0  0
  -30.3560  -19.1600   18.9660 C   0  0  0  0  0  3  0  0  0  0  0  0
  -30.0730  -18.0460   21.1230 C   0  0  0  0  0  3  0  0  0  0  0  0
  -30.3250  -16.7310   19.0690 C   0  0  0  0  0  0  0  0  0  0  0  0
  -30.1490  -19.2360   20.3510 C   0  0  0  0  0  0  0  0  0  0  0  0
  -30.1620  -16.7720   20.4880 C   0  0  0  0  0  0  0  0  0  0  0  0
  -30.3160  -15.4470   18.2650 C   0  0  0  0  0  1  0  0  0  0  0  0
  -30.7630  -14.4990   21.2930 C   0  0  0  0  0  0  0  0  0  0  0  0
  -30.6670  -12.1390   20.6130 C   0  0  0  0  0  2  0  0  0  0  0  0
  -29.9330  -12.0540   19.2560 C   0  0  0  0  0  2  0  0  0  0  0  0
  -28.3980  -12.0390   19.4300 C   0  0  0  0  0  2  0  0  0  0  0  0
  -27.8630  -13.0430   20.4920 C   0  0  0  0  0  3  0  0  0  0  0  0
  -28.7410  -13.0500   21.7650 C   0  0  0  0  0  2  0  0  0  0  0  0
  -30.1340  -13.2920   21.3490 N   0  0  0  0  0  0  0  0  0  0  0  0
  -31.9730  -14.6150   21.0820 O   0  0  0  0  0  0  0  0  0  0  0  0
  -29.9520  -15.5750   21.2580 N   0  0  0  0  0  0  0  0  0  0  0  0
  -29.0010  -15.4020   21.5460 H   0  0  0  0  0  0  0  0  0  0  0  0
  -25.4160  -13.7080   20.9240 C   0  0  0  0  0  0  0  0  0  0  0  0
  -24.2880  -12.9600   21.1300 C   0  0  0  0  0  0  0  0  0  0  0  0
  -24.7120  -11.5970   21.1290 C   0  0  0  0  0  0  0  0  0  0  0  0
  -26.4560  -12.7990   20.7980 N   0  0  0  0  0  0  0  0  0  0  0  0
  -26.0290  -11.5230   20.9800 N   0  0  0  0  0  0  0  0  0  0  0  0
  -23.9360  -10.3530   21.2100 C   0  0  0  0  0  0  0  0  0  0  0  0
  -24.2950   -9.3160   22.1000 C   0  0  0  0  0  3  0  0  0  0  0  0
  -23.5210   -8.1370   22.1720 C   0  0  0  0  0  3  0  0  0  0  0  0
  -22.3760   -7.9880   21.3550 C   0  0  0  0  0  0  0  0  0  0  0  0
  -22.0370   -9.0120   20.4530 C   0  0  0  0  0  3  0  0  0  0  0  0
  -22.8110  -10.1830   20.3790 C   0  0  0  0  0  3  0  0  0  0  0  0
  -21.5820   -6.8670   21.3410 O   0  0  0  0  0  0  0  0  0  0  0  0
  -21.5340   -6.0050   22.4070 C   0  0  0  0  0  0  0  0  0  0  0  0
  -21.0710   -6.4140   23.6770 C   0  0  0  0  0  3  0  0  0  0  0  0
  -20.9640   -5.4750   24.7240 C   0  0  0  0  0  3  0  0  0  0  0  0
  -21.3140   -4.1300   24.5020 C   0  0  0  0  0  0  0  0  0  0  0  0
  -21.7740   -3.7220   23.2390 C   0  0  0  0  0  3  0  0  0  0  0  0
  -21.8760   -4.6560   22.1920 C   0  0  0  0  0  0  0  0  0  0  0  0
  -22.2970   -4.2520   20.9690 F   0  0  0  0  0  0  0  0  0  0  0  0
  -21.2080   -3.2270   25.5060 F   0  0  0  0  0  0  0  0  0  0  0  0
  -22.8800  -13.4740   21.2360 C   0  0  0  0  0  0  0  0  0  0  0  0
  -22.0370  -12.8110   22.0230 N   0  0  0  0  0  0  0  0  0  0  0  0
  -22.5300  -14.5000   20.6530 O   0  0  0  0  0  0  0  0  0  0  0  0
  -22.3160  -11.9790   22.5200 H   0  0  0  0  0  0  0  0  0  0  0  0
  -21.0860  -13.1380   22.1170 H   0  0  0  0  0  0  0  0  0  0  0  0
  -25.6460  -15.0780   20.8320 N   0  0  0  0  0  0  0  0  0  0  0  0
  -24.9210  -15.7560   21.0350 H   0  0  0  0  0  0  0  0  0  0  0  0
  -26.5640  -15.4980   20.7800 H   0  0  0  0  0  0  0  0  0  0  0  0
  -31.1020  -25.1330   21.3120 C   0  0  0  0  0  3  0  0  0  0  0  0
  -31.2850  -23.7780   21.6710 C   0  0  0  0  0  3  0  0  0  0  0  0
  -29.9130  -25.5560   20.6730 C   0  0  0  0  0  3  0  0  0  0  0  0
  -29.0660  -23.2830   20.7990 C   0  0  0  0  0  3  0  0  0  0  0  0
  -30.2780  -22.8240   21.3970 C   0  0  0  0  0  0  0  0  0  0  0  0
  -28.8780  -24.6300   20.4140 C   0  0  0  0  0  0  0  0  0  0  0  0
  -27.5500  -25.0140   19.7350 C   0  0  0  0  0  2  0  0  0  0  0  0
  -27.5230  -26.3120   19.1270 O   0  0  0  0  0  0  0  0  0  0  0  0
  -24.4060  -31.4810   22.8190 C   0  0  0  0  0  0  0  0  0  0  0  0
  -26.3700  -27.0680   19.2470 C   0  0  0  0  0  0  0  0  0  0  0  0
  -22.9120  -30.2520   21.2750 C   0  0  0  0  0  3  0  0  0  0  0  0
  -24.0760  -28.7000   19.6110 C   0  0  0  0  0  0  0  0  0  0  0  0
  -25.4120  -30.4660   20.7790 C   0  0  0  0  0  2  0  0  0  0  0  0
  -25.3270  -29.1330   20.0670 C   0  0  0  0  0  0  0  0  0  0  0  0
  -26.4700  -28.3320   19.8680 C   0  0  0  0  0  3  0  0  0  0  0  0
  -25.1000  -26.6430   18.7850 C   0  0  0  0  0  3  0  0  0  0  0  0
  -23.9570  -27.4540   18.9630 C   0  0  0  0  0  3  0  0  0  0  0  0
  -22.9050  -29.6280   19.8520 C   0  0  0  0  0  2  0  0  0  0  0  0
  -24.2690  -30.7430   21.6810 N   0  0  0  0  0  0  0  0  0  0  0  0
  -23.4220  -31.7940   23.5060 O   0  0  0  0  0  0  0  0  0  0  0  0
  -22.3080  -29.2290   22.2640 C   0  0  0  0  0  0  0  0  0  0  0  0
  -20.9710  -29.1100   22.2580 N   0  0  0  0  0  0  0  0  0  0  0  0
  -23.0350  -28.5460   22.9890 O   0  0  0  0  0  0  0  0  0  0  0  0
  -20.4470  -29.7090   21.6370 H   0  0  0  0  0  0  0  0  0  0  0  0
  -17.6150  -27.9620   22.9480 C   0  0  0  0  0  0  0  0  0  0  0  0
  -20.1870  -28.1810   23.0710 C   0  0  0  0  0  3  0  0  0  0  0  0
  -20.2350  -26.7520   22.4830 C   0  0  0  0  0  2  0  0  0  0  0  0
  -19.0710  -26.4520   21.5340 C   0  0  0  0  0  2  0  0  0  0  0  0
  -17.7310  -26.6130   22.2590 C   0  0  0  0  0  2  0  0  0  0  0  0
  -18.7670  -28.7070   23.3140 C   0  0  0  0  0  0  0  0  0  0  0  0
  -18.6010  -29.9700   23.9220 C   0  0  0  0  0  3  0  0  0  0  0  0
  -17.3150  -30.4910   24.1590 C   0  0  0  0  0  3  0  0  0  0  0  0
  -16.1790  -29.7430   23.8070 C   0  0  0  0  0  3  0  0  0  0  0  0
  -16.3290  -28.4800   23.2100 C   0  0  0  0  0  3  0  0  0  0  0  0
  -25.8000  -31.9910   23.3020 C   0  0  0  0  0  3  0  0  0  0  0  0
  -26.4940  -31.0210   24.3370 C   0  0  1  0  0  0  0  0  0  0  0  0
  -25.5980  -30.6590   25.5430 C   0  0  0  0  0  1  0  0  0  0  0  0
  -26.9170  -29.7000   23.6510 C   0  0  0  0  0  1  0  0  0  0  0  0
  -27.7830  -31.6760   24.8840 C   0  0  0  0  0  1  0  0  0  0  0  0
  -25.6070  -33.3230   23.8860 N   0  0  0  0  0  0  0  0  0  0  0  0
  -26.0200  -34.4680   23.3260 C   0  0  0  0  0  0  0  0  0  0  0  0
  -26.6760  -34.5030   22.2810 O   0  0  0  0  0  0  0  0  0  0  0  0
  -25.0230  -33.3750   24.7090 H   0  0  0  0  0  0  0  0  0  0  0  0
  -24.4570  -36.4390   23.3210 C   0  0  0  0  0  1  0  0  0  0  0  0
  -25.6490  -35.7820   24.0380 C   0  0  0  0  0  3  0  0  0  0  0  0
  -27.8380  -36.3110   25.0190 C   0  0  0  0  0  1  0  0  0  0  0  0
  -26.7690  -36.7450   24.1240 N   0  0  0  0  0  0  0  0  0  0  0  0
  -26.4390  -37.6510   24.4430 H   0  0  0  0  0  0  0  0  0  0  0  0
  1  3  2  0
  2  1  1  0
  4  2  1  0
  5  6  2  0
  5  8  1  0
  6  9  1  0
  8 10  2  0
  9  2  1  0
  9  7  2  0
 10  7  1  0
 10 20  1  0
 11  8  1  0
 12 18  1  0
 13 18  1  0
 14 15  1  0
 14 13  1  0
 16 15  1  0
 16 25  1  0
 16 17  1  0
 18 17  1  0
 19 12  2  0
 20 12  1  0
 20 21  1  0
 22 23  2  0
 23 42  1  0
 24 23  1  0
 24 27  1  0
 25 22  1  0
 25 26  1  0
 26 24  2  0
 27 28  1  0
 28 29  2  0
 30 29  1  0
 31 30  2  0
 32 31  1  0
 32 27  2  0
 33 30  1  0
 33 34  1  0
 34 35  1  0
 35 36  2  0
 37 36  1  0
 37 41  1  0
 38 37  2  0
 39 34  2  0
 39 38  1  0
 40 39  1  0
 42 43  1  0
 43 46  1  0
 43 45  1  0
 44 42  2  0
 47 22  1  0
 47 48  1  0
 49 47  1  0
 50 51  1  0
 52 50  2  0
 53 54  1  0
 54  1  1  0
 54 51  2  0
 55 52  1  0
 55 53  2  0
 56 55  1  0
 57 59  1  0
 57 56  1  0
 58 69  2  0
 59 64  1  0
 60 68  1  0
 60 70  1  0
 61 67  1  0
 61 63  1  0
 62 68  1  0
 63 62  1  0
 64 63  2  0
 65 66  1  0
 65 59  2  0
 66 61  2  0
 67 60  1  0
 68 58  1  0
 70 72  2  0
 71 70  1  0
 73 71  1  0
 74 83  2  0
 74 79  1  0
 75 71  1  0
 75 79  1  0
 76 75  1  0
 77 78  1  0
 77 76  1  0
 78 74  1  0
 79 80  2  0
 80 81  1  0
 82 81  2  0
 83 82  1  0
 84 58  1  0
 84 89  1  0
 84 85  1  0
 85 88  1  1
 85 86  1  0
 87 85  1  0
 89 92  1  0
 90 89  1  0
 90 94  1  0
 91 90  2  0
 94 93  1  0
 94 96  1  0
 96 97  1  0
 96 95  1  0
M  ISO  4  12 100  20 100  56 101  57 101
M  END
>  <TORSDO>  (38) 
F 19

>  <SCORE>  (38) 
-11.396

>  <name>  (38) 
37

>  <ligand_id>  (38) 
37

>  <original_smiles>  (38) 
[H]c1c([H])c(C(=O)N([H])c2c([H])c([H])c(C([H])([H])[H])c(N([H])C(=O)N3C([H])([H])C([H])([H])C([H])([H])C([H])(n4nc(-c5c([H])c([H])c(Oc6c([H])c([H])c(F)c([H])c6F)c([H])c5[H])c(C(=O)N([H])[H])c4N([H])[H])C3([H])[H])c2[H])c([H])c(C([H])([H])Oc2c([H])c([H])c3c(c2[H])C([H])([H])N(C(=O)C([H])(N([H])C(=O)C([H])(N([H])C([H])([H])[H])C([H])([H])[H])C(C([H])([H])[H])(C([H])([H])[H])C([H])([H])[H])C([H])(C(=O)N([H])C2([H])c4c([H])c([H])c([H])c([H])c4C([H])([H])C([H])([H])C2([H])[H])C3([H])[H])c1[H]

>  <smiles>  (38) 
[H]c1c([H])c(C(=O)N([H])c2c([H])c([H])c(C([H])([H])[H])c(N([H])C(=O)N3C([H])([H])C([H])([H])C([H])([H])C([H])(n4nc(-c5c([H])c([H])c(Oc6c([H])c([H])c(F)c([H])c6F)c([H])c5[H])c(C(=O)N([H])[H])c4N([H])[H])C3([H])[H])c2[H])c([H])c(C([H])([H])Oc2c([H])c([H])c3c(c2[H])C([H])([H])N(C(=O)C([H])(N([H])C(=O)C([H])(N([H])C([H])([H])[H])C([H])([H])[H])C(C([H])([H])[H])(C([H])([H])[H])C([H])([H])[H])C([H])(C(=O)N([H])C2([H])c4c([H])c([H])c([H])c([H])c4C([H])([H])C([H])([H])C2([H])[H])C3([H])[H])c1[H]

$$$$
38:0:0
     RDKit          3D

100109  0  0  1  0  0  0  0  0999 V2000
  -31.0220  -20.3950   21.0330 C   0  0  0  0  0  3  0  0  0  0  0  0
  -31.4860  -19.1050   21.3700 C   0  0  0  0  0  3  0  0  0  0  0  0
  -29.6600  -18.1170   20.1320 C   0  0  0  0  0  3  0  0  0  0  0  0
  -29.1640  -19.4110   19.8180 C   0  0  0  0  0  0  0  0  0  0  0  0
  -29.8470  -20.5870   20.2660 C   0  0  0  0  0  0  0  0  0  0  0  0
  -30.8130  -17.9440   20.9270 C   0  0  0  0  0  0  0  0  0  0  0  0
  -29.4470  -23.0680   21.0750 C   0  0  0  0  0  2  0  0  0  0  0  0
  -30.5840  -24.0210   19.2230 C   0  0  0  0  0  2  0  0  0  0  0  0
  -29.3900  -22.0390   19.9230 C   0  0  0  0  0  3  0  0  0  0  0  0
  -29.7030  -24.4520   20.4170 C   0  0  2  0  0  0  0  0  0  0  0  0
  -30.4650  -25.3960   21.3740 C   0  0  0  0  0  1  0  0  0  0  0  0
  -29.5660  -22.5480   17.4950 C   0  0  0  0  0  1  0  0  0  0  0  0
  -30.2000  -22.6350   18.8320 N   0  0  1  0  0  4  0  0  0  0  0  0
  -31.0570  -22.1040   18.7810 H   0  0  0  0  0  0  0  0  0  0  0  0
  -28.3860  -25.1660   19.9630 C   0  0  0  0  0  2  0  0  0  0  0  0
  -28.5190  -26.5970   19.7770 O   0  0  0  0  0  0  0  0  0  0  0  0
  -24.5290  -31.5720   23.0040 C   0  0  0  0  0  0  0  0  0  0  0  0
  -27.3390  -27.3220   19.7830 C   0  0  0  0  0  0  0  0  0  0  0  0
  -23.3910  -30.2220   21.2720 C   0  0  0  0  0  3  0  0  0  0  0  0
  -24.9120  -28.7870   19.8110 C   0  0  0  0  0  0  0  0  0  0  0  0
  -25.9110  -30.6460   21.1420 C   0  0  0  0  0  2  0  0  0  0  0  0
  -26.0460  -29.3050   20.4480 C   0  0  0  0  0  0  0  0  0  0  0  0
  -27.2660  -28.5820   20.4270 C   0  0  0  0  0  3  0  0  0  0  0  0
  -26.1850  -26.8280   19.1360 C   0  0  0  0  0  3  0  0  0  0  0  0
  -24.9770  -27.5500   19.1500 C   0  0  0  0  0  3  0  0  0  0  0  0
  -23.6470  -29.6180   19.8670 C   0  0  0  0  0  2  0  0  0  0  0  0
  -24.6280  -30.8260   21.8680 N   0  0  0  0  0  0  0  0  0  0  0  0
  -23.4290  -31.7920   23.5320 O   0  0  0  0  0  0  0  0  0  0  0  0
  -22.7490  -29.1410   22.1720 C   0  0  0  0  0  0  0  0  0  0  0  0
  -21.4200  -28.9790   22.0570 N   0  0  0  0  0  0  0  0  0  0  0  0
  -23.4400  -28.4530   22.9270 O   0  0  0  0  0  0  0  0  0  0  0  0
  -20.9220  -29.5920   21.4280 H   0  0  0  0  0  0  0  0  0  0  0  0
  -18.0330  -27.8310   22.5950 C   0  0  0  0  0  0  0  0  0  0  0  0
  -20.6090  -27.9930   22.7710 C   0  0  0  0  0  3  0  0  0  0  0  0
  -20.6400  -26.6190   22.0590 C   0  0  0  0  0  2  0  0  0  0  0  0
  -19.4860  -26.4250   21.0730 C   0  0  0  0  0  2  0  0  0  0  0  0
  -18.1380  -26.5480   21.7880 C   0  0  0  0  0  2  0  0  0  0  0  0
  -19.1930  -28.5180   23.0430 C   0  0  0  0  0  0  0  0  0  0  0  0
  -19.0440  -29.7280   23.7580 C   0  0  0  0  0  3  0  0  0  0  0  0
  -17.7640  -30.2460   24.0310 C   0  0  0  0  0  3  0  0  0  0  0  0
  -16.6190  -29.5550   23.5970 C   0  0  0  0  0  3  0  0  0  0  0  0
  -16.7530  -28.3520   22.8820 C   0  0  0  0  0  3  0  0  0  0  0  0
  -25.7880  -32.2050   23.6800 C   0  0  0  0  0  3  0  0  0  0  0  0
  -26.2840  -31.3980   24.9410 C   0  0  1  0  0  0  0  0  0  0  0  0
  -25.1730  -31.1170   25.9800 C   0  0  0  0  0  1  0  0  0  0  0  0
  -26.8920  -30.0420   24.5120 C   0  0  0  0  0  1  0  0  0  0  0  0
  -27.4170  -32.1790   25.6490 C   0  0  0  0  0  1  0  0  0  0  0  0
  -25.4470  -33.5850   24.0500 N   0  0  0  0  0  0  0  0  0  0  0  0
  -25.7690  -34.6670   23.3290 C   0  0  0  0  0  0  0  0  0  0  0  0
  -26.4590  -34.6120   22.3070 O   0  0  0  0  0  0  0  0  0  0  0  0
  -24.8460  -33.7020   24.8530 H   0  0  0  0  0  0  0  0  0  0  0  0
  -24.0050  -36.4290   23.0060 C   0  0  0  0  0  1  0  0  0  0  0  0
  -25.2440  -36.0290   23.8210 C   0  0  0  0  0  3  0  0  0  0  0  0
  -27.3460  -36.9360   24.7110 C   0  0  0  0  0  1  0  0  0  0  0  0
  -26.2540  -37.1080   23.7560 N   0  0  0  0  0  0  0  0  0  0  0  0
  -25.8240  -38.0130   23.9280 H   0  0  0  0  0  0  0  0  0  0  0  0
  -27.8940  -19.4780   19.0260 C   0  0  0  0  0  0  0  0  0  0  0  0
  -26.8710  -20.0440   19.6450 N   0  0  0  0  0  0  0  0  0  0  0  0
  -27.8140  -19.0170   17.8900 O   0  0  0  0  0  0  0  0  0  0  0  0
  -26.9640  -20.3400   20.6060 H   0  0  0  0  0  0  0  0  0  0  0  0
  -25.9710  -20.1110   19.1910 H   0  0  0  0  0  0  0  0  0  0  0  0
  -31.3050  -16.5590   21.3850 C   0  0  0  0  0  2  0  0  0  0  0  0
  -30.9780  -14.4300   20.1020 C   0  0  0  0  0  0  0  0  0  0  0  0
  -30.5090  -12.2980   18.9390 C   0  0  0  0  0  2  0  0  0  0  0  0
  -29.5150  -12.5010   17.7790 C   0  0  0  0  0  2  0  0  0  0  0  0
  -28.0650  -12.3930   18.2840 C   0  0  0  0  0  2  0  0  0  0  0  0
  -27.8070  -13.2600   19.5460 C   0  0  0  0  0  3  0  0  0  0  0  0
  -28.9110  -13.0480   20.6060 C   0  0  0  0  0  2  0  0  0  0  0  0
  -30.2170  -13.3050   19.9740 N   0  0  0  0  0  0  0  0  0  0  0  0
  -32.0240  -14.5960   19.4690 O   0  0  0  0  0  0  0  0  0  0  0  0
  -30.5350  -15.3750   20.9540 N   0  0  0  0  0  0  0  0  0  0  0  0
  -29.6740  -15.1820   21.4410 H   0  0  0  0  0  0  0  0  0  0  0  0
  -25.4760  -13.9280   20.4030 C   0  0  0  0  0  0  0  0  0  0  0  0
  -24.4030  -13.1830   20.8140 C   0  0  0  0  0  0  0  0  0  0  0  0
  -24.8160  -11.8180   20.7320 C   0  0  0  0  0  0  0  0  0  0  0  0
  -26.4750  -13.0190   20.0970 N   0  0  0  0  0  0  0  0  0  0  0  0
  -26.0840  -11.7440   20.3520 N   0  0  0  0  0  0  0  0  0  0  0  0
  -24.0580  -10.5780   20.9380 C   0  0  0  0  0  0  0  0  0  0  0  0
  -24.4890   -9.5920   21.8540 C   0  0  0  0  0  3  0  0  0  0  0  0
  -23.7340   -8.4160   22.0490 C   0  0  0  0  0  3  0  0  0  0  0  0
  -22.5330   -8.2150   21.3270 C   0  0  0  0  0  0  0  0  0  0  0  0
  -22.1190   -9.1890   20.4000 C   0  0  0  0  0  3  0  0  0  0  0  0
  -22.8750  -10.3570   20.2040 C   0  0  0  0  0  3  0  0  0  0  0  0
  -21.7480   -7.0920   21.4310 O   0  0  0  0  0  0  0  0  0  0  0  0
  -21.6830   -6.3630   22.5920 C   0  0  0  0  0  0  0  0  0  0  0  0
  -21.2680   -6.9400   23.8100 C   0  0  0  0  0  3  0  0  0  0  0  0
  -21.1510   -6.1400   24.9630 C   0  0  0  0  0  3  0  0  0  0  0  0
  -21.4370   -4.7630   24.9000 C   0  0  0  0  0  0  0  0  0  0  0  0
  -21.8460   -4.1850   23.6830 C   0  0  0  0  0  3  0  0  0  0  0  0
  -21.9660   -4.9840   22.5330 C   0  0  0  0  0  0  0  0  0  0  0  0
  -22.3390   -4.4170   21.3600 F   0  0  0  0  0  0  0  0  0  0  0  0
  -21.3170   -3.9930   26.0050 F   0  0  0  0  0  0  0  0  0  0  0  0
  -23.0400  -13.7020   21.1750 C   0  0  0  0  0  0  0  0  0  0  0  0
  -22.3440  -13.0150   22.0730 N   0  0  0  0  0  0  0  0  0  0  0  0
  -22.6050  -14.7470   20.6950 O   0  0  0  0  0  0  0  0  0  0  0  0
  -22.7080  -12.1690   22.4830 H   0  0  0  0  0  0  0  0  0  0  0  0
  -21.4290  -13.3390   22.3550 H   0  0  0  0  0  0  0  0  0  0  0  0
  -25.6800  -15.2970   20.2460 N   0  0  0  0  0  0  0  0  0  0  0  0
  -24.9450  -15.9760   20.4050 H   0  0  0  0  0  0  0  0  0  0  0  0
  -26.5240  -15.7120   19.8720 H   0  0  0  0  0  0  0  0  0  0  0  0
  1  2  1  0
  3  6  1  0
  4  3  2  0
  4  5  1  0
  5  1  2  0
  6  2  2  0
  6 62  1  0
  8 10  1  0
  9  5  1  0
  9  7  1  0
 10  7  1  0
 10 11  1  1
 12 13  1  0
 13  8  1  0
 13  9  1  0
 13 14  1  6
 15 10  1  0
 16 18  1  0
 16 15  1  0
 17 28  2  0
 18 23  1  0
 19 27  1  0
 19 29  1  0
 20 26  1  0
 20 22  1  0
 21 27  1  0
 22 21  1  0
 23 22  2  0
 24 25  1  0
 24 18  2  0
 25 20  2  0
 26 19  1  0
 27 17  1  0
 29 31  2  0
 30 29  1  0
 32 30  1  0
 33 42  2  0
 33 38  1  0
 34 30  1  0
 34 38  1  0
 35 34  1  0
 36 37  1  0
 36 35  1  0
 37 33  1  0
 38 39  2  0
 39 40  1  0
 41 40  2  0
 42 41  1  0
 43 17  1  0
 43 48  1  0
 43 44  1  0
 44 47  1  1
 44 45  1  0
 46 44  1  0
 48 51  1  0
 49 53  1  0
 49 48  1  0
 50 49  2  0
 53 52  1  0
 55 53  1  0
 55 56  1  0
 55 54  1  0
 57 58  1  0
 57  4  1  0
 58 60  1  0
 59 57  2  0
 61 58  1  0
 63 71  1  0
 64 69  1  0
 65 66  1  0
 65 64  1  0
 67 66  1  0
 67 76  1  0
 67 68  1  0
 69 63  1  0
 69 68  1  0
 70 63  2  0
 71 62  1  0
 71 72  1  0
 73 74  2  0
 74 93  1  0
 75 74  1  0
 75 78  1  0
 76 77  1  0
 76 73  1  0
 77 75  2  0
 78 79  1  0
 79 80  2  0
 81 84  1  0
 81 80  1  0
 82 81  2  0
 83 82  1  0
 83 78  2  0
 84 85  1  0
 85 86  1  0
 86 87  2  0
 88 87  1  0
 88 92  1  0
 89 88  2  0
 90 85  2  0
 90 89  1  0
 91 90  1  0
 93 94  1  0
 94 97  1  0
 94 96  1  0
 95 93  2  0
 98 73  1  0
 98 99  1  0
100 98  1  0
M  ISO  4  15 101  16 101  63 100  71 100
M  END
>  <TORSDO>  (39) 
F 20

>  <SCORE>  (39) 
-13.738

>  <name>  (39) 
38

>  <ligand_id>  (39) 
38

>  <original_smiles>  (39) 
[H]c1c([H])c([H])c2c(c1[H])C([H])([H])C([H])([H])C([H])([H])C2([H])N([H])C(=O)C1([H])N(C(=O)C([H])(N([H])C(=O)C([H])(N([H])C([H])([H])[H])C([H])([H])[H])C(C([H])([H])[H])(C([H])([H])[H])C([H])([H])[H])C([H])([H])c2c([H])c(OC([H])([H])C3(C([H])([H])[H])C([H])([H])C([H])(c4c([H])c([H])c(C([H])([H])N([H])C(=O)N5C([H])([H])C([H])([H])C([H])([H])C([H])(n6nc(-c7c([H])c([H])c(Oc8c([H])c([H])c(F)c([H])c8F)c([H])c7[H])c(C(=O)N([H])[H])c6N([H])[H])C5([H])[H])c([H])c4C(=O)N([H])[H])[N+]([H])(C([H])([H])[H])C3([H])[H])c([H])c([H])c2C1([H])[H]

>  <smiles>  (39) 
[H]c1c([H])c([H])c2c(c1[H])C([H])([H])C([H])([H])C([H])([H])C2([H])N([H])C(=O)C1([H])N(C(=O)C([H])(N([H])C(=O)C([H])(N([H])C([H])([H])[H])C([H])([H])[H])C(C([H])([H])[H])(C([H])([H])[H])C([H])([H])[H])C([H])([H])c2c([H])c(OC([H])([H])C3(C([H])([H])[H])C([H])([H])C([H])(c4c([H])c([H])c(C([H])([H])N([H])C(=O)N5C([H])([H])C([H])([H])C([H])([H])C([H])(n6nc(-c7c([H])c([H])c(Oc8c([H])c([H])c(F)c([H])c8F)c([H])c7[H])c(C(=O)N([H])[H])c6N([H])[H])C5([H])[H])c([H])c4C(=O)N([H])[H])[N+]([H])(C([H])([H])[H])C3([H])[H])c([H])c([H])c2C1([H])[H]

$$$$
39:0:0
     RDKit          3D

101109  0  0  1  0  0  0  0  0999 V2000
  -29.4720  -20.8200   21.6400 C   0  0  0  0  0  0  0  0  0  0  0  0
  -29.0630  -22.0800   21.3250 N   0  0  0  0  0  0  0  0  0  0  0  0
  -29.2280  -20.4370   22.7860 O   0  0  0  0  0  0  0  0  0  0  0  0
  -28.6590  -22.5000   22.1460 H   0  0  0  0  0  0  0  0  0  0  0  0
  -30.9790  -20.2450   19.6420 C   0  0  0  0  0  3  0  0  0  0  0  0
  -31.6050  -19.2950   18.8160 C   0  0  0  0  0  3  0  0  0  0  0  0
  -30.0410  -18.4190   20.9350 C   0  0  0  0  0  3  0  0  0  0  0  0
  -30.1520  -19.8290   20.7000 C   0  0  0  0  0  0  0  0  0  0  0  0
  -31.4700  -17.9000   19.0250 C   0  0  0  0  0  0  0  0  0  0  0  0
  -30.6980  -17.4260   20.1450 C   0  0  0  0  0  0  0  0  0  0  0  0
  -31.2020  -14.9100   20.2960 C   0  0  0  0  0  0  0  0  0  0  0  0
  -30.8790  -12.7000   19.2530 C   0  0  0  0  0  2  0  0  0  0  0  0
  -29.9440  -12.8740   18.0380 C   0  0  0  0  0  2  0  0  0  0  0  0
  -28.4720  -12.7480   18.4730 C   0  0  0  0  0  2  0  0  0  0  0  0
  -28.1360  -13.6120   19.7210 C   0  0  0  0  0  3  0  0  0  0  0  0
  -29.2000  -13.4490   20.8300 C   0  0  0  0  0  2  0  0  0  0  0  0
  -30.5180  -13.7300   20.2420 N   0  0  0  0  0  0  0  0  0  0  0  0
  -32.3940  -14.9810   19.9930 O   0  0  0  0  0  0  0  0  0  0  0  0
  -30.4580  -16.0310   20.5090 N   0  0  0  0  0  0  0  0  0  0  0  0
  -29.5610  -15.8430   20.9310 H   0  0  0  0  0  0  0  0  0  0  0  0
  -25.7650  -14.2310   20.5000 C   0  0  0  0  0  0  0  0  0  0  0  0
  -24.6830  -13.4650   20.8420 C   0  0  0  0  0  0  0  0  0  0  0  0
  -25.1110  -12.1070   20.7350 C   0  0  0  0  0  0  0  0  0  0  0  0
  -26.7870  -13.3390   20.2100 N   0  0  0  0  0  0  0  0  0  0  0  0
  -26.3990  -12.0530   20.4130 N   0  0  0  0  0  0  0  0  0  0  0  0
  -24.3540  -10.8550   20.8660 C   0  0  0  0  0  0  0  0  0  0  0  0
  -24.7480   -9.8470   21.7720 C   0  0  0  0  0  3  0  0  0  0  0  0
  -23.9960   -8.6580   21.8930 C   0  0  0  0  0  3  0  0  0  0  0  0
  -22.8340   -8.4710   21.1090 C   0  0  0  0  0  0  0  0  0  0  0  0
  -22.4570   -9.4690   20.1940 C   0  0  0  0  0  3  0  0  0  0  0  0
  -23.2090  -10.6500   20.0700 C   0  0  0  0  0  3  0  0  0  0  0  0
  -22.0540   -7.3390   21.1420 O   0  0  0  0  0  0  0  0  0  0  0  0
  -21.9020   -6.6040   22.2900 C   0  0  0  0  0  0  0  0  0  0  0  0
  -21.3330   -7.1550   23.4590 C   0  0  0  0  0  3  0  0  0  0  0  0
  -21.1320   -6.3450   24.5940 C   0  0  0  0  0  3  0  0  0  0  0  0
  -21.4870   -4.9830   24.5590 C   0  0  0  0  0  0  0  0  0  0  0  0
  -22.0460   -4.4310   23.3940 C   0  0  0  0  0  3  0  0  0  0  0  0
  -22.2510   -5.2390   22.2620 C   0  0  0  0  0  0  0  0  0  0  0  0
  -22.7720   -4.6950   21.1340 F   0  0  0  0  0  0  0  0  0  0  0  0
  -21.2870   -4.2020   25.6460 F   0  0  0  0  0  0  0  0  0  0  0  0
  -23.3020  -13.9620   21.1500 C   0  0  0  0  0  0  0  0  0  0  0  0
  -22.5670  -13.2530   22.0020 N   0  0  0  0  0  0  0  0  0  0  0  0
  -22.8810  -15.0160   20.6750 O   0  0  0  0  0  0  0  0  0  0  0  0
  -22.9170  -12.3990   22.4110 H   0  0  0  0  0  0  0  0  0  0  0  0
  -21.6390  -13.5700   22.2440 H   0  0  0  0  0  0  0  0  0  0  0  0
  -25.9590  -15.6040   20.3890 N   0  0  0  0  0  0  0  0  0  0  0  0
  -25.1980  -16.2590   20.5310 H   0  0  0  0  0  0  0  0  0  0  0  0
  -26.8080  -16.0470   20.0630 H   0  0  0  0  0  0  0  0  0  0  0  0
  -32.0880  -17.0200   17.9680 C   0  0  0  0  0  0  0  0  0  0  0  0
  -33.3780  -17.2190   17.7200 N   0  0  0  0  0  0  0  0  0  0  0  0
  -31.4270  -16.1950   17.3440 O   0  0  0  0  0  0  0  0  0  0  0  0
  -33.9060  -17.8850   18.2670 H   0  0  0  0  0  0  0  0  0  0  0  0
  -33.8420  -16.6770   17.0060 H   0  0  0  0  0  0  0  0  0  0  0  0
  -29.1490  -23.0080   20.1670 C   0  0  0  0  0  2  0  0  0  0  0  0
  -28.4420  -24.3970   20.4530 C   0  0  0  0  0  3  0  0  0  0  0  0
  -27.0580  -24.1890   20.9350 N   0  0  0  0  0  4  0  0  0  0  0  0
  -26.4720  -23.8010   20.2140 H   0  0  0  0  0  0  0  0  0  0  0  0
  -26.6630  -25.0620   21.2400 H   0  0  0  0  0  0  0  0  0  0  0  0
  -27.0360  -23.5590   21.7150 H   0  0  0  0  0  0  0  0  0  0  0  0
  -28.4690  -25.4510   19.2850 C   0  0  0  0  0  2  0  0  0  0  0  0
  -28.3600  -26.8410   19.7050 O   0  0  0  0  0  0  0  0  0  0  0  0
  -24.5300  -31.8370   23.0620 C   0  0  0  0  0  0  0  0  0  0  0  0
  -27.1650  -27.5510   19.7130 C   0  0  0  0  0  0  0  0  0  0  0  0
  -23.3140  -30.5240   21.3550 C   0  0  0  0  0  3  0  0  0  0  0  0
  -24.7600  -29.0740   19.8270 C   0  0  0  0  0  0  0  0  0  0  0  0
  -25.8400  -30.8950   21.1540 C   0  0  0  0  0  2  0  0  0  0  0  0
  -25.9220  -29.5610   20.4350 C   0  0  0  0  0  0  0  0  0  0  0  0
  -27.1210  -28.8090   20.3720 C   0  0  0  0  0  3  0  0  0  0  0  0
  -25.9750  -27.0870   19.1010 C   0  0  0  0  0  3  0  0  0  0  0  0
  -24.7840  -27.8420   19.1540 C   0  0  0  0  0  3  0  0  0  0  0  0
  -23.5150  -29.9280   19.9370 C   0  0  0  0  0  2  0  0  0  0  0  0
  -24.5810  -31.0980   21.9170 N   0  0  0  0  0  0  0  0  0  0  0  0
  -23.4520  -32.0740   23.6260 O   0  0  0  0  0  0  0  0  0  0  0  0
  -22.6800  -29.4440   22.2640 C   0  0  0  0  0  0  0  0  0  0  0  0
  -21.3470  -29.3010   22.1840 N   0  0  0  0  0  0  0  0  0  0  0  0
  -23.3820  -28.7420   22.9970 O   0  0  0  0  0  0  0  0  0  0  0  0
  -20.8440  -29.9170   21.5600 H   0  0  0  0  0  0  0  0  0  0  0  0
  -17.9600  -28.1900   22.7860 C   0  0  0  0  0  0  0  0  0  0  0  0
  -20.5380  -28.3250   22.9150 C   0  0  0  0  0  3  0  0  0  0  0  0
  -20.5460  -26.9540   22.2020 C   0  0  0  0  0  2  0  0  0  0  0  0
  -19.3710  -26.7690   21.2380 C   0  0  0  0  0  2  0  0  0  0  0  0
  -18.0370  -26.9060   21.9780 C   0  0  0  0  0  2  0  0  0  0  0  0
  -19.1330  -28.8650   23.2120 C   0  0  0  0  0  0  0  0  0  0  0  0
  -19.0030  -30.0760   23.9280 C   0  0  0  0  0  3  0  0  0  0  0  0
  -17.7330  -30.6040   24.2240 C   0  0  0  0  0  3  0  0  0  0  0  0
  -16.5760  -29.9220   23.8130 C   0  0  0  0  0  3  0  0  0  0  0  0
  -16.6890  -28.7170   23.0990 C   0  0  0  0  0  3  0  0  0  0  0  0
  -25.8180  -32.4420   23.7040 C   0  0  0  0  0  3  0  0  0  0  0  0
  -25.5160  -33.8280   24.0850 N   0  0  0  0  0  0  0  0  0  0  0  0
  -25.8590  -34.9040   23.3650 C   0  0  0  0  0  0  0  0  0  0  0  0
  -26.5350  -34.8330   22.3350 O   0  0  0  0  0  0  0  0  0  0  0  0
  -24.9260  -33.9600   24.8930 H   0  0  0  0  0  0  0  0  0  0  0  0
  -24.1610  -36.7290   23.0400 C   0  0  0  0  0  1  0  0  0  0  0  0
  -25.3750  -36.2780   23.8680 C   0  0  0  0  0  3  0  0  0  0  0  0
  -27.4870  -37.1070   24.8070 C   0  0  0  0  0  1  0  0  0  0  0  0
  -26.4240  -37.3230   23.8280 N   0  0  0  0  0  0  0  0  0  0  0  0
  -26.0220  -38.2420   23.9950 H   0  0  0  0  0  0  0  0  0  0  0  0
  -26.3300  -31.6250   24.9520 C   0  0  1  0  0  0  0  0  0  0  0  0
  -25.2380  -31.3620   26.0160 C   0  0  0  0  0  1  0  0  0  0  0  0
  -26.9000  -30.2570   24.5110 C   0  0  0  0  0  1  0  0  0  0  0  0
  -27.4940  -32.3840   25.6350 C   0  0  0  0  0  1  0  0  0  0  0  0
  1  3  2  0
  2  1  1  0
  2  4  1  0
  5  8  1  0
  6  9  1  0
  6  5  2  0
  8  7  2  0
  8  1  1  0
  9 10  2  0
 10 19  1  0
 10  7  1  0
 11 19  1  0
 12 17  1  0
 13 14  1  0
 13 12  1  0
 15 14  1  0
 15 24  1  0
 15 16  1  0
 17 11  1  0
 17 16  1  0
 18 11  2  0
 19 20  1  0
 21 22  2  0
 22 41  1  0
 23 22  1  0
 23 26  1  0
 24 25  1  0
 24 21  1  0
 25 23  2  0
 26 27  1  0
 27 28  2  0
 29 32  1  0
 29 28  1  0
 30 29  2  0
 31 30  1  0
 31 26  2  0
 32 33  1  0
 33 34  1  0
 34 35  2  0
 36 35  1  0
 36 40  1  0
 37 36  2  0
 38 33  2  0
 38 37  1  0
 39 38  1  0
 41 42  1  0
 42 45  1  0
 42 44  1  0
 43 41  2  0
 46 21  1  0
 46 47  1  0
 48 46  1  0
 49  9  1  0
 50 49  1  0
 50 52  1  0
 51 49  2  0
 53 50  1  0
 54 55  1  0
 54  2  1  0
 55 60  1  0
 55 56  1  0
 56 58  1  0
 56 59  1  0
 57 56  1  0
 60 61  1  0
 61 63  1  0
 62 73  2  0
 63 68  1  0
 64 72  1  0
 64 74  1  0
 65 71  1  0
 65 67  1  0
 66 72  1  0
 67 66  1  0
 68 67  2  0
 69 70  1  0
 69 63  2  0
 70 65  2  0
 71 64  1  0
 72 62  1  0
 74 76  2  0
 75 74  1  0
 77 75  1  0
 78 87  2  0
 78 83  1  0
 79 75  1  0
 79 83  1  0
 80 79  1  0
 81 82  1  0
 81 80  1  0
 82 78  1  0
 83 84  2  0
 84 85  1  0
 86 85  2  0
 87 86  1  0
 88 62  1  0
 88 89  1  0
 88 98  1  0
 89 92  1  0
 90 94  1  0
 90 89  1  0
 91 90  2  0
 94 93  1  0
 96 94  1  0
 96 97  1  0
 96 95  1  0
 98101  1  1
 98 99  1  0
100 98  1  0
M  ISO  4  11 100  19 100  60 101  61 101
M  END
>  <TORSDO>  (40) 
F 22

>  <SCORE>  (40) 
-11.668

>  <name>  (40) 
39

>  <ligand_id>  (40) 
39

>  <original_smiles>  (40) 
[H]c1c([H])c([H])c2c(c1[H])C([H])([H])C([H])([H])C([H])([H])C2([H])N([H])C(=O)C1([H])N(C(=O)C([H])(N([H])C(=O)C([H])(N([H])C([H])([H])[H])C([H])([H])[H])C(C([H])([H])[H])(C([H])([H])[H])C([H])([H])[H])C([H])([H])c2c([H])c(OC([H])([H])C([H])(C([H])([H])N([H])C(=O)c3c([H])c([H])c(C(=O)N([H])[H])c(N([H])C(=O)N4C([H])([H])C([H])([H])C([H])([H])C([H])(n5nc(-c6c([H])c([H])c(Oc7c([H])c([H])c(F)c([H])c7F)c([H])c6[H])c(C(=O)N([H])[H])c5N([H])[H])C4([H])[H])c3[H])[N+]([H])([H])[H])c([H])c([H])c2C1([H])[H]

>  <smiles>  (40) 
[H]c1c([H])c([H])c2c(c1[H])C([H])([H])C([H])([H])C([H])([H])C2([H])N([H])C(=O)C1([H])N(C(=O)C([H])(N([H])C(=O)C([H])(N([H])C([H])([H])[H])C([H])([H])[H])C(C([H])([H])[H])(C([H])([H])[H])C([H])([H])[H])C([H])([H])c2c([H])c(OC([H])([H])C([H])(C([H])([H])N([H])C(=O)c3c([H])c([H])c(C(=O)N([H])[H])c(N([H])C(=O)N4C([H])([H])C([H])([H])C([H])([H])C([H])(n5nc(-c6c([H])c([H])c(Oc7c([H])c([H])c(F)c([H])c7F)c([H])c6[H])c(C(=O)N([H])[H])c5N([H])[H])C4([H])[H])c3[H])[N+]([H])([H])[H])c([H])c([H])c2C1([H])[H]

$$$$
40:0:0
     RDKit          3D

 91100  0  0  1  0  0  0  0  0999 V2000
  -28.6760  -19.5910   19.3220 C   0  0  0  0  0  3  0  0  0  0  0  0
  -30.3490  -18.5180   21.2360 C   0  0  0  0  0  3  0  0  0  0  0  0
  -29.1860  -20.5540   20.2490 C   0  0  0  0  0  0  0  0  0  0  0  0
  -28.9430  -18.1700   19.3540 C   0  0  0  0  0  0  0  0  0  0  0  0
  -30.0690  -19.9440   21.2010 C   0  0  0  0  0  0  0  0  0  0  0  0
  -29.7880  -17.5560   20.3310 C   0  0  0  0  0  0  0  0  0  0  0  0
  -28.2300  -17.2910   18.3420 C   0  0  0  0  0  1  0  0  0  0  0  0
  -30.6840  -20.8260   22.2700 C   0  0  0  0  0  1  0  0  0  0  0  0
  -30.6330  -14.9860   20.2300 C   0  0  0  0  0  0  0  0  0  0  0  0
  -30.4920  -12.6730   19.2410 C   0  0  0  0  0  2  0  0  0  0  0  0
  -29.5200  -12.7010   18.0380 C   0  0  0  0  0  2  0  0  0  0  0  0
  -28.0630  -12.5050   18.5040 C   0  0  0  0  0  2  0  0  0  0  0  0
  -27.7040  -13.3970   19.7210 C   0  0  0  0  0  3  0  0  0  0  0  0
  -28.7880  -13.3280   20.8180 C   0  0  0  0  0  2  0  0  0  0  0  0
  -30.0620  -13.7230   20.1990 N   0  0  0  0  0  0  0  0  0  0  0  0
  -31.7990  -15.1280   19.8470 O   0  0  0  0  0  0  0  0  0  0  0  0
  -29.8020  -16.0640   20.5600 N   0  0  0  0  0  0  0  0  0  0  0  0
  -28.9070  -15.7190   20.8690 H   0  0  0  0  0  0  0  0  0  0  0  0
  -25.3430  -13.9820   20.5320 C   0  0  0  0  0  0  0  0  0  0  0  0
  -24.2830  -13.2050   20.9130 C   0  0  0  0  0  0  0  0  0  0  0  0
  -24.7370  -11.8530   20.8360 C   0  0  0  0  0  0  0  0  0  0  0  0
  -26.3730  -13.1020   20.2420 N   0  0  0  0  0  0  0  0  0  0  0  0
  -26.0180  -11.8150   20.4880 N   0  0  0  0  0  0  0  0  0  0  0  0
  -24.0070  -10.5910   21.0160 C   0  0  0  0  0  0  0  0  0  0  0  0
  -24.4290   -9.6190   21.9510 C   0  0  0  0  0  3  0  0  0  0  0  0
  -23.6990   -8.4230   22.1180 C   0  0  0  0  0  3  0  0  0  0  0  0
  -22.5330   -8.1900   21.3500 C   0  0  0  0  0  0  0  0  0  0  0  0
  -22.1300   -9.1490   20.4050 C   0  0  0  0  0  3  0  0  0  0  0  0
  -22.8610  -10.3370   20.2350 C   0  0  0  0  0  3  0  0  0  0  0  0
  -21.7750   -7.0450   21.4280 O   0  0  0  0  0  0  0  0  0  0  0  0
  -21.6680   -6.3310   22.5940 C   0  0  0  0  0  0  0  0  0  0  0  0
  -21.1240   -6.8980   23.7680 C   0  0  0  0  0  3  0  0  0  0  0  0
  -20.9650   -6.1070   24.9230 C   0  0  0  0  0  3  0  0  0  0  0  0
  -21.3430   -4.7510   24.9060 C   0  0  0  0  0  0  0  0  0  0  0  0
  -21.8810   -4.1840   23.7380 C   0  0  0  0  0  3  0  0  0  0  0  0
  -22.0390   -4.9710   22.5840 C   0  0  0  0  0  0  0  0  0  0  0  0
  -22.5380   -4.4140   21.4540 F   0  0  0  0  0  0  0  0  0  0  0  0
  -21.1850   -3.9890   26.0140 F   0  0  0  0  0  0  0  0  0  0  0  0
  -22.8980  -13.6850   21.2370 C   0  0  0  0  0  0  0  0  0  0  0  0
  -22.1920  -12.9750   22.1100 N   0  0  0  0  0  0  0  0  0  0  0  0
  -22.4510  -14.7230   20.7500 O   0  0  0  0  0  0  0  0  0  0  0  0
  -22.5670  -12.1340   22.5240 H   0  0  0  0  0  0  0  0  0  0  0  0
  -21.2640  -13.2770   22.3690 H   0  0  0  0  0  0  0  0  0  0  0  0
  -25.5100  -15.3560   20.3870 N   0  0  0  0  0  0  0  0  0  0  0  0
  -24.7500  -16.0080   20.5450 H   0  0  0  0  0  0  0  0  0  0  0  0
  -26.3420  -15.8030   20.0260 H   0  0  0  0  0  0  0  0  0  0  0  0
  -28.7320  -22.8850   19.0090 C   0  0  0  0  0  2  0  0  0  0  0  0
  -28.5780  -22.0640   20.2700 C   0  0  0  0  0  3  0  0  0  0  0  0
  -29.0870  -23.6250   20.2750 C   0  0  0  0  0  3  0  0  0  0  0  0
  -28.2060  -24.9480   20.6690 C   0  0  0  0  0  2  0  0  0  0  0  0
  -28.4780  -26.4190   20.3290 O   0  0  0  0  0  0  0  0  0  0  0  0
  -24.6790  -31.9450   23.3000 C   0  0  0  0  0  0  0  0  0  0  0  0
  -27.3900  -27.3460   20.2810 C   0  0  0  0  0  0  0  0  0  0  0  0
  -23.5290  -30.5430   21.6290 C   0  0  0  0  0  3  0  0  0  0  0  0
  -25.0270  -29.0120   20.2210 C   0  0  0  0  0  0  0  0  0  0  0  0
  -26.0760  -30.8660   21.5070 C   0  0  0  0  0  2  0  0  0  0  0  0
  -26.1850  -29.4840   20.8520 C   0  0  0  0  0  0  0  0  0  0  0  0
  -27.3700  -28.6670   20.8670 C   0  0  0  0  0  3  0  0  0  0  0  0
  -26.2110  -26.9680   19.6010 C   0  0  0  0  0  3  0  0  0  0  0  0
  -25.0500  -27.7640   19.5800 C   0  0  0  0  0  3  0  0  0  0  0  0
  -23.7820  -29.8820   20.2500 C   0  0  0  0  0  2  0  0  0  0  0  0
  -24.7800  -31.1380   22.2020 N   0  0  0  0  0  0  0  0  0  0  0  0
  -23.5800  -32.2070   23.8130 O   0  0  0  0  0  0  0  0  0  0  0  0
  -22.8530  -29.5160   22.5700 C   0  0  0  0  0  0  0  0  0  0  0  0
  -21.5340  -29.3120   22.4080 N   0  0  0  0  0  0  0  0  0  0  0  0
  -23.5180  -28.9030   23.4100 O   0  0  0  0  0  0  0  0  0  0  0  0
  -21.0540  -29.8610   21.7070 H   0  0  0  0  0  0  0  0  0  0  0  0
  -18.1640  -28.0570   22.8340 C   0  0  0  0  0  0  0  0  0  0  0  0
  -20.7130  -28.3570   23.1560 C   0  0  0  0  0  3  0  0  0  0  0  0
  -20.8480  -26.9310   22.5730 C   0  0  0  0  0  2  0  0  0  0  0  0
  -19.7720  -26.5980   21.5350 C   0  0  0  0  0  2  0  0  0  0  0  0
  -18.3750  -26.7160   22.1520 C   0  0  0  0  0  2  0  0  0  0  0  0
  -19.2620  -28.8340   23.2910 C   0  0  0  0  0  0  0  0  0  0  0  0
  -19.0090  -30.0880   23.8890 C   0  0  0  0  0  3  0  0  0  0  0  0
  -17.6930  -30.5650   24.0340 C   0  0  0  0  0  3  0  0  0  0  0  0
  -16.6110  -29.7860   23.5930 C   0  0  0  0  0  3  0  0  0  0  0  0
  -16.8470  -28.5340   22.9990 C   0  0  0  0  0  3  0  0  0  0  0  0
  -25.9370  -32.5930   23.9540 C   0  0  0  0  0  3  0  0  0  0  0  0
  -25.6120  -33.9950   24.2560 N   0  0  0  0  0  0  0  0  0  0  0  0
  -25.9330  -35.0380   23.4770 C   0  0  0  0  0  0  0  0  0  0  0  0
  -26.6010  -34.9200   22.4460 O   0  0  0  0  0  0  0  0  0  0  0  0
  -25.0170  -34.1590   25.0540 H   0  0  0  0  0  0  0  0  0  0  0  0
  -24.1840  -36.8070   23.0980 C   0  0  0  0  0  1  0  0  0  0  0  0
  -25.4340  -36.4300   23.9080 C   0  0  0  0  0  3  0  0  0  0  0  0
  -27.5590  -37.3630   24.7140 C   0  0  0  0  0  1  0  0  0  0  0  0
  -26.4550  -37.4920   23.7670 N   0  0  0  0  0  0  0  0  0  0  0  0
  -26.0390  -38.4110   23.8890 H   0  0  0  0  0  0  0  0  0  0  0  0
  -26.4130  -31.8440   25.2590 C   0  0  1  0  0  0  0  0  0  0  0  0
  -25.2860  -31.6170   26.2930 C   0  0  0  0  0  1  0  0  0  0  0  0
  -27.0170  -30.4640   24.9120 C   0  0  0  0  0  1  0  0  0  0  0  0
  -27.5380  -32.6550   25.9470 C   0  0  0  0  0  1  0  0  0  0  0  0
  1  4  2  0
  1  3  1  0
  3  5  2  0
  4  6  1  0
  5  2  1  0
  5  8  1  0
  6 17  1  0
  6  2  2  0
  7  4  1  0
  9 17  1  0
 10 15  1  0
 11 12  1  0
 11 10  1  0
 13 12  1  0
 13 22  1  0
 13 14  1  0
 15  9  1  0
 15 14  1  0
 16  9  2  0
 17 18  1  0
 19 20  2  0
 20 39  1  0
 21 20  1  0
 21 24  1  0
 22 23  1  0
 22 19  1  0
 23 21  2  0
 24 25  1  0
 25 26  2  0
 27 30  1  0
 27 26  1  0
 28 27  2  0
 29 28  1  0
 29 24  2  0
 30 31  1  0
 31 32  1  0
 32 33  2  0
 34 33  1  0
 34 38  1  0
 35 34  2  0
 36 31  2  0
 36 35  1  0
 37 36  1  0
 39 40  1  0
 40 43  1  0
 40 42  1  0
 41 39  2  0
 44 19  1  0
 44 45  1  0
 46 44  1  0
 47 48  1  0
 47 49  1  0
 48  3  1  0
 48 49  1  0
 49 50  1  0
 51 50  1  0
 52 63  2  0
 53 51  1  0
 53 58  1  0
 54 62  1  0
 54 64  1  0
 55 61  1  0
 55 57  1  0
 56 62  1  0
 57 58  2  0
 57 56  1  0
 59 53  2  0
 60 59  1  0
 60 55  2  0
 61 54  1  0
 62 52  1  0
 64 66  2  0
 65 64  1  0
 67 65  1  0
 68 77  2  0
 68 73  1  0
 69 65  1  0
 69 73  1  0
 70 69  1  0
 71 72  1  0
 71 70  1  0
 72 68  1  0
 73 74  2  0
 74 75  1  0
 76 75  2  0
 77 76  1  0
 78 52  1  0
 78 79  1  0
 78 88  1  0
 79 82  1  0
 80 84  1  0
 80 79  1  0
 81 80  2  0
 84 83  1  0
 86 87  1  0
 86 84  1  0
 86 85  1  0
 88 91  1  1
 88 89  1  0
 90 88  1  0
M  ISO  4   9 100  17 100  50 101  51 101
M  END
>  <TORSDO>  (41) 
F 18

>  <SCORE>  (41) 
-14.762

>  <name>  (41) 
40

>  <ligand_id>  (41) 
40

>  <original_smiles>  (41) 
[H]c1c([H])c([H])c2c(c1[H])C([H])([H])C([H])([H])C([H])([H])C2([H])N([H])C(=O)C1([H])N(C(=O)C([H])(N([H])C(=O)C([H])(N([H])C([H])([H])[H])C([H])([H])[H])C(C([H])([H])[H])(C([H])([H])[H])C([H])([H])[H])C([H])([H])c2c([H])c(OC([H])([H])C3([H])C([H])([H])C3([H])c3c([H])c(C([H])([H])[H])c(N([H])C(=O)N4C([H])([H])C([H])([H])C([H])([H])C([H])(n5nc(-c6c([H])c([H])c(Oc7c([H])c([H])c(F)c([H])c7F)c([H])c6[H])c(C(=O)N([H])[H])c5N([H])[H])C4([H])[H])c([H])c3C([H])([H])[H])c([H])c([H])c2C1([H])[H]

>  <smiles>  (41) 
[H]c1c([H])c([H])c2c(c1[H])C([H])([H])C([H])([H])C([H])([H])C2([H])N([H])C(=O)C1([H])N(C(=O)C([H])(N([H])C(=O)C([H])(N([H])C([H])([H])[H])C([H])([H])[H])C(C([H])([H])[H])(C([H])([H])[H])C([H])([H])[H])C([H])([H])c2c([H])c(OC([H])([H])C3([H])C([H])([H])C3([H])c3c([H])c(C([H])([H])[H])c(N([H])C(=O)N4C([H])([H])C([H])([H])C([H])([H])C([H])(n5nc(-c6c([H])c([H])c(Oc7c([H])c([H])c(F)c([H])c7F)c([H])c6[H])c(C(=O)N([H])[H])c5N([H])[H])C4([H])[H])c([H])c3C([H])([H])[H])c([H])c([H])c2C1([H])[H]

$$$$
41:0:0
     RDKit          3D

 95104  0  0  1  0  0  0  0  0999 V2000
  -31.2710  -18.7280   21.0290 C   0  0  0  0  0  3  0  0  0  0  0  0
  -31.3850  -20.0980   21.3810 C   0  0  0  0  0  3  0  0  0  0  0  0
  -28.8770  -19.0220   20.7800 C   0  0  0  0  0  3  0  0  0  0  0  0
  -30.0220  -18.1990   20.6310 C   0  0  0  0  0  0  0  0  0  0  0  0
  -30.2620  -20.9620   21.3510 C   0  0  0  0  0  0  0  0  0  0  0  0
  -28.9940  -20.3860   21.1170 C   0  0  0  0  0  0  0  0  0  0  0  0
  -27.8830  -21.1620   21.1260 F   0  0  0  0  0  0  0  0  0  0  0  0
  -30.9120  -14.8090   20.5560 C   0  0  0  0  0  0  0  0  0  0  0  0
  -30.8160  -12.4160   19.9540 C   0  0  0  0  0  2  0  0  0  0  0  0
  -29.9860  -12.1870   18.6660 C   0  0  0  0  0  2  0  0  0  0  0  0
  -28.4590  -12.2740   18.9030 C   0  0  0  0  0  2  0  0  0  0  0  0
  -27.9850  -13.3070   19.9680 C   0  0  0  0  0  3  0  0  0  0  0  0
  -28.9390  -13.3640   21.1780 C   0  0  0  0  0  2  0  0  0  0  0  0
  -30.2960  -13.5930   20.6640 N   0  0  0  0  0  0  0  0  0  0  0  0
  -32.1300  -14.9420   20.6910 O   0  0  0  0  0  0  0  0  0  0  0  0
  -30.4980  -16.4850   17.3290 C   0  0  0  0  0  2  0  0  0  0  0  0
  -30.5940  -17.6220   18.2980 C   0  0  0  0  0  2  0  0  0  0  0  0
  -30.4490  -15.2620   18.2340 C   0  0  0  0  0  2  0  0  0  0  0  0
  -29.9290  -17.0870   19.5710 C   0  0  0  0  0  3  0  0  0  0  0  0
  -30.2710  -15.6320   19.6600 N   0  0  0  0  0  0  0  0  0  0  0  0
  -25.5450  -13.9620   20.4660 C   0  0  0  0  0  0  0  0  0  0  0  0
  -24.4420  -13.2120   20.7720 C   0  0  0  0  0  0  0  0  0  0  0  0
  -24.8940  -11.8600   20.8500 C   0  0  0  0  0  0  0  0  0  0  0  0
  -26.5990  -13.0670   20.3670 N   0  0  0  0  0  0  0  0  0  0  0  0
  -26.2060  -11.8030   20.6710 N   0  0  0  0  0  0  0  0  0  0  0  0
  -24.1470  -10.6080   21.0250 C   0  0  0  0  0  0  0  0  0  0  0  0
  -24.5050   -9.6680   22.0160 C   0  0  0  0  0  3  0  0  0  0  0  0
  -23.7590   -8.4800   22.1790 C   0  0  0  0  0  3  0  0  0  0  0  0
  -22.6410   -8.2240   21.3500 C   0  0  0  0  0  0  0  0  0  0  0  0
  -22.3040   -9.1520   20.3490 C   0  0  0  0  0  3  0  0  0  0  0  0
  -23.0500  -10.3310   20.1840 C   0  0  0  0  0  3  0  0  0  0  0  0
  -21.8740   -7.0870   21.4210 O   0  0  0  0  0  0  0  0  0  0  0  0
  -21.7540   -6.3710   22.5850 C   0  0  0  0  0  0  0  0  0  0  0  0
  -21.2720   -6.9570   23.7750 C   0  0  0  0  0  3  0  0  0  0  0  0
  -21.1000   -6.1690   24.9300 C   0  0  0  0  0  3  0  0  0  0  0  0
  -21.4000   -4.7930   24.8950 C   0  0  0  0  0  0  0  0  0  0  0  0
  -21.8740   -4.2060   23.7090 C   0  0  0  0  0  3  0  0  0  0  0  0
  -22.0490   -4.9930   22.5560 C   0  0  0  0  0  0  0  0  0  0  0  0
  -22.4870   -4.4180   21.4100 F   0  0  0  0  0  0  0  0  0  0  0  0
  -21.2260   -4.0330   26.0010 F   0  0  0  0  0  0  0  0  0  0  0  0
  -23.0290  -13.7050   20.8880 C   0  0  0  0  0  0  0  0  0  0  0  0
  -22.2180  -13.0540   21.7160 N   0  0  0  0  0  0  0  0  0  0  0  0
  -22.6470  -14.7020   20.2770 O   0  0  0  0  0  0  0  0  0  0  0  0
  -22.5370  -12.2500   22.2350 H   0  0  0  0  0  0  0  0  0  0  0  0
  -21.2650  -13.3680   21.8340 H   0  0  0  0  0  0  0  0  0  0  0  0
  -25.7370  -15.3220   20.2390 N   0  0  0  0  0  0  0  0  0  0  0  0
  -24.9720  -15.9870   20.2530 H   0  0  0  0  0  0  0  0  0  0  0  0
  -26.6220  -15.7420   19.9840 H   0  0  0  0  0  0  0  0  0  0  0  0
  -30.4280  -22.4840   21.5510 C   0  0  0  0  0  2  0  0  0  0  0  0
  -29.6580  -24.6640   20.5090 C   0  0  0  0  0  0  0  0  0  0  0  0
  -29.5180  -23.3420   20.7610 N   0  0  0  0  0  0  0  0  0  0  0  0
  -30.6390  -25.3020   20.8990 O   0  0  0  0  0  0  0  0  0  0  0  0
  -28.6740  -22.8940   20.4270 H   0  0  0  0  0  0  0  0  0  0  0  0
  -28.5260  -25.3740   19.7150 C   0  0  0  0  0  2  0  0  0  0  0  0
  -28.6340  -26.8240   19.7370 O   0  0  0  0  0  0  0  0  0  0  0  0
  -24.6300  -31.6450   23.1180 C   0  0  0  0  0  0  0  0  0  0  0  0
  -27.4430  -27.5390   19.7240 C   0  0  0  0  0  0  0  0  0  0  0  0
  -23.4740  -30.3180   21.3800 C   0  0  0  0  0  3  0  0  0  0  0  0
  -24.9860  -28.9600   19.8340 C   0  0  0  0  0  0  0  0  0  0  0  0
  -25.9820  -30.8000   21.1980 C   0  0  0  0  0  2  0  0  0  0  0  0
  -26.1250  -29.4850   20.4560 C   0  0  0  0  0  0  0  0  0  0  0  0
  -27.3550  -28.7860   20.3930 C   0  0  0  0  0  3  0  0  0  0  0  0
  -26.2840  -27.0460   19.0780 C   0  0  0  0  0  3  0  0  0  0  0  0
  -25.0630  -27.7440   19.1360 C   0  0  0  0  0  3  0  0  0  0  0  0
  -23.7040  -29.7540   19.9520 C   0  0  0  0  0  2  0  0  0  0  0  0
  -24.7130  -30.9320   21.9580 N   0  0  0  0  0  0  0  0  0  0  0  0
  -23.5420  -31.8270   23.6820 O   0  0  0  0  0  0  0  0  0  0  0  0
  -22.8760  -29.2000   22.2650 C   0  0  0  0  0  0  0  0  0  0  0  0
  -21.5570  -28.9760   22.1390 N   0  0  0  0  0  0  0  0  0  0  0  0
  -23.5940  -28.5400   23.0210 O   0  0  0  0  0  0  0  0  0  0  0  0
  -21.0360  -29.5650   21.5050 H   0  0  0  0  0  0  0  0  0  0  0  0
  -18.2360  -27.6190   22.5870 C   0  0  0  0  0  0  0  0  0  0  0  0
  -20.7880  -27.9490   22.8420 C   0  0  0  0  0  3  0  0  0  0  0  0
  -20.9310  -26.5740   22.1490 C   0  0  0  0  0  2  0  0  0  0  0  0
  -19.8250  -26.2940   21.1280 C   0  0  0  0  0  2  0  0  0  0  0  0
  -18.4500  -26.3360   21.8010 C   0  0  0  0  0  2  0  0  0  0  0  0
  -19.3350  -28.3840   23.0620 C   0  0  0  0  0  0  0  0  0  0  0  0
  -19.0810  -29.5860   23.7560 C   0  0  0  0  0  3  0  0  0  0  0  0
  -17.7620  -30.0250   23.9800 C   0  0  0  0  0  3  0  0  0  0  0  0
  -16.6800  -29.2570   23.5210 C   0  0  0  0  0  3  0  0  0  0  0  0
  -16.9180  -28.0550   22.8300 C   0  0  0  0  0  3  0  0  0  0  0  0
  -25.8910  -32.2850   23.7780 C   0  0  0  0  0  3  0  0  0  0  0  0
  -26.4480  -31.4490   24.9950 C   0  0  1  0  0  0  0  0  0  0  0  0
  -25.3740  -31.1000   26.0520 C   0  0  0  0  0  1  0  0  0  0  0  0
  -27.0760  -30.1230   24.5040 C   0  0  0  0  0  1  0  0  0  0  0  0
  -27.5750  -32.2380   25.7010 C   0  0  0  0  0  1  0  0  0  0  0  0
  -25.5270  -33.6420   24.2040 N   0  0  0  0  0  0  0  0  0  0  0  0
  -25.8230  -34.7580   23.5230 C   0  0  0  0  0  0  0  0  0  0  0  0
  -26.5020  -34.7540   22.4930 O   0  0  0  0  0  0  0  0  0  0  0  0
  -24.9220  -33.7170   25.0080 H   0  0  0  0  0  0  0  0  0  0  0  0
  -24.0250  -36.5000   23.2850 C   0  0  0  0  0  1  0  0  0  0  0  0
  -25.2790  -36.0910   24.0740 C   0  0  0  0  0  3  0  0  0  0  0  0
  -27.3740  -36.9990   24.9750 C   0  0  0  0  0  1  0  0  0  0  0  0
  -26.2700  -37.1890   24.0390 N   0  0  0  0  0  0  0  0  0  0  0  0
  -25.8270  -38.0800   24.2460 H   0  0  0  0  0  0  0  0  0  0  0  0
  1  2  1  0
  3  6  2  0
  4  3  1  0
  4  1  2  0
  5  2  2  0
  5 49  1  0
  6  7  1  0
  6  5  1  0
  8 14  1  0
  8 15  2  0
  9 14  1  0
 10 11  1  0
 10  9  1  0
 12 11  1  0
 12 24  1  0
 12 13  1  0
 14 13  1  0
 16 18  1  0
 16 17  1  0
 17 19  1  0
 18 20  1  0
 19 20  1  0
 19  4  1  0
 20  8  1  0
 21 22  2  0
 22 23  1  0
 22 41  1  0
 23 26  1  0
 24 21  1  0
 24 25  1  0
 25 23  2  0
 26 27  1  0
 27 28  2  0
 29 32  1  0
 29 28  1  0
 30 29  2  0
 31 30  1  0
 31 26  2  0
 32 33  1  0
 33 34  1  0
 34 35  2  0
 36 35  1  0
 36 40  1  0
 37 36  2  0
 38 33  2  0
 38 37  1  0
 39 38  1  0
 41 42  1  0
 42 45  1  0
 42 44  1  0
 43 41  2  0
 46 47  1  0
 46 21  1  0
 48 46  1  0
 50 51  1  0
 50 52  2  0
 51 49  1  0
 53 51  1  0
 54 55  1  0
 54 50  1  0
 56 67  2  0
 57 55  1  0
 57 62  1  0
 58 66  1  0
 58 68  1  0
 59 65  1  0
 59 61  1  0
 60 66  1  0
 61 60  1  0
 62 61  2  0
 63 64  1  0
 63 57  2  0
 64 59  2  0
 65 58  1  0
 66 56  1  0
 68 70  2  0
 69 68  1  0
 71 69  1  0
 72 81  2  0
 72 77  1  0
 73 69  1  0
 73 77  1  0
 74 73  1  0
 75 76  1  0
 75 74  1  0
 76 72  1  0
 77 78  2  0
 78 79  1  0
 80 79  2  0
 81 80  1  0
 82 56  1  0
 82 87  1  0
 82 83  1  0
 83 86  1  1
 83 84  1  0
 85 83  1  0
 87 90  1  0
 88 92  1  0
 88 87  1  0
 89 88  2  0
 92 91  1  0
 94 92  1  0
 94 95  1  0
 94 93  1  0
M  ISO  4   8 100  20 100  54 101  55 101
M  END
>  <TORSDO>  (42) 
F 19

>  <SCORE>  (42) 
-12.126

>  <name>  (42) 
41

>  <ligand_id>  (42) 
41

>  <original_smiles>  (42) 
[H]c1c([H])c([H])c2c(c1[H])C([H])([H])C([H])([H])C([H])([H])C2([H])N([H])C(=O)C1([H])N(C(=O)C([H])(N([H])C(=O)C([H])(N([H])C([H])([H])[H])C([H])([H])[H])C(C([H])([H])[H])(C([H])([H])[H])C([H])([H])[H])C([H])([H])c2c([H])c(OC([H])([H])C(=O)N([H])C([H])([H])c3c([H])c([H])c(C4([H])N(C(=O)N5C([H])([H])C([H])([H])C([H])([H])C([H])(n6nc(-c7c([H])c([H])c(Oc8c([H])c([H])c(F)c([H])c8F)c([H])c7[H])c(C(=O)N([H])[H])c6N([H])[H])C5([H])[H])C([H])([H])C([H])([H])C4([H])[H])c([H])c3F)c([H])c([H])c2C1([H])[H]

>  <smiles>  (42) 
[H]c1c([H])c([H])c2c(c1[H])C([H])([H])C([H])([H])C([H])([H])C2([H])N([H])C(=O)C1([H])N(C(=O)C([H])(N([H])C(=O)C([H])(N([H])C([H])([H])[H])C([H])([H])[H])C(C([H])([H])[H])(C([H])([H])[H])C([H])([H])[H])C([H])([H])c2c([H])c(OC([H])([H])C(=O)N([H])C([H])([H])c3c([H])c([H])c(C4([H])N(C(=O)N5C([H])([H])C([H])([H])C([H])([H])C([H])(n6nc(-c7c([H])c([H])c(Oc8c([H])c([H])c(F)c([H])c8F)c([H])c7[H])c(C(=O)N([H])[H])c6N([H])[H])C5([H])[H])C([H])([H])C([H])([H])C4([H])[H])c([H])c3F)c([H])c([H])c2C1([H])[H]

$$$$
42:0:0
     RDKit          3D

 93101  0  0  1  0  0  0  0  0999 V2000
  -29.9220  -20.1180   18.7760 C   0  0  0  0  0  3  0  0  0  0  0  0
  -28.8530  -21.2060   20.6220 C   0  0  0  0  0  3  0  0  0  0  0  0
  -29.9020  -21.3870   18.1120 C   0  0  0  0  0  0  0  0  0  0  0  0
  -29.4130  -19.8690   20.0620 C   0  0  0  0  0  0  0  0  0  0  0  0
  -28.7590  -22.6260   19.9910 C   0  0  0  0  0  0  0  0  0  0  0  0
  -29.3090  -22.5830   18.6720 C   0  0  0  0  0  0  0  0  0  0  0  0
  -29.2170  -23.8610   17.8300 C   0  0  0  0  0  1  0  0  0  0  0  0
  -30.6110  -21.4250   16.7770 C   0  0  0  0  0  0  0  0  0  0  0  0
  -30.3000  -20.4570   15.9250 N   0  0  0  0  0  0  0  0  0  0  0  0
  -31.4280  -22.3000   16.4930 O   0  0  0  0  0  0  0  0  0  0  0  0
  -29.6220  -19.7590   16.1920 H   0  0  0  0  0  0  0  0  0  0  0  0
  -30.7410  -20.4080   15.0160 H   0  0  0  0  0  0  0  0  0  0  0  0
  -29.7690  -18.2650   20.7260 C   0  0  0  0  0  2  0  0  0  0  0  0
  -30.3910  -15.3450   20.2700 C   0  0  0  0  0  0  0  0  0  0  0  0
  -30.3810  -12.8900   19.3740 C   0  0  0  0  0  2  0  0  0  0  0  0
  -29.4460  -12.6260   18.1670 C   0  0  0  0  0  2  0  0  0  0  0  0
  -28.0090  -12.3410   18.6360 C   0  0  0  0  0  2  0  0  0  0  0  0
  -27.5590  -13.3150   19.7530 C   0  0  0  0  0  3  0  0  0  0  0  0
  -28.6220  -13.4990   20.8540 C   0  0  0  0  0  2  0  0  0  0  0  0
  -29.8210  -14.0370   20.1820 N   0  0  0  0  0  0  0  0  0  0  0  0
  -31.6260  -15.3210   20.1430 O   0  0  0  0  0  0  0  0  0  0  0  0
  -29.6270  -16.6340   20.2930 N   0  0  0  0  0  0  0  0  0  0  0  0
  -28.6490  -16.4130   20.1730 H   0  0  0  0  0  0  0  0  0  0  0  0
  -25.1970  -13.8630   20.5350 C   0  0  0  0  0  0  0  0  0  0  0  0
  -24.1390  -13.0820   20.9090 C   0  0  0  0  0  0  0  0  0  0  0  0
  -24.6100  -11.7330   20.8710 C   0  0  0  0  0  0  0  0  0  0  0  0
  -26.2410  -12.9910   20.2810 N   0  0  0  0  0  0  0  0  0  0  0  0
  -25.9010  -11.7030   20.5520 N   0  0  0  0  0  0  0  0  0  0  0  0
  -23.8870  -10.4690   21.0610 C   0  0  0  0  0  0  0  0  0  0  0  0
  -24.3240   -9.4960   21.9890 C   0  0  0  0  0  3  0  0  0  0  0  0
  -23.5940   -8.3020   22.1700 C   0  0  0  0  0  3  0  0  0  0  0  0
  -22.4150   -8.0690   21.4220 C   0  0  0  0  0  0  0  0  0  0  0  0
  -21.9980   -9.0290   20.4840 C   0  0  0  0  0  3  0  0  0  0  0  0
  -22.7270  -10.2150   20.3010 C   0  0  0  0  0  3  0  0  0  0  0  0
  -21.6600   -6.9250   21.5110 O   0  0  0  0  0  0  0  0  0  0  0  0
  -21.6180   -6.1790   22.6600 C   0  0  0  0  0  0  0  0  0  0  0  0
  -21.1970   -6.7280   23.8900 C   0  0  0  0  0  3  0  0  0  0  0  0
  -21.1000   -5.9080   25.0320 C   0  0  0  0  0  3  0  0  0  0  0  0
  -21.4180   -4.5390   24.9450 C   0  0  0  0  0  0  0  0  0  0  0  0
  -21.8330   -3.9890   23.7190 C   0  0  0  0  0  3  0  0  0  0  0  0
  -21.9290   -4.8050   22.5800 C   0  0  0  0  0  0  0  0  0  0  0  0
  -22.3080   -4.2660   21.3970 F   0  0  0  0  0  0  0  0  0  0  0  0
  -21.3190   -3.7480   26.0390 F   0  0  0  0  0  0  0  0  0  0  0  0
  -22.7430  -13.5560   21.1860 C   0  0  0  0  0  0  0  0  0  0  0  0
  -22.0200  -12.8580   22.0530 N   0  0  0  0  0  0  0  0  0  0  0  0
  -22.3040  -14.5820   20.6680 O   0  0  0  0  0  0  0  0  0  0  0  0
  -22.3900  -12.0250   22.4890 H   0  0  0  0  0  0  0  0  0  0  0  0
  -21.0860  -13.1610   22.2870 H   0  0  0  0  0  0  0  0  0  0  0  0
  -25.3520  -15.2350   20.3590 N   0  0  0  0  0  0  0  0  0  0  0  0
  -24.5820  -15.8840   20.4780 H   0  0  0  0  0  0  0  0  0  0  0  0
  -26.1920  -15.6790   20.0140 H   0  0  0  0  0  0  0  0  0  0  0  0
  -27.9790  -24.1360   20.5170 C   0  0  0  0  0  2  0  0  0  0  0  0
  -28.2390  -25.7730   20.2760 O   0  0  0  0  0  0  0  0  0  0  0  0
  -24.6600  -31.8350   23.2300 C   0  0  0  0  0  0  0  0  0  0  0  0
  -27.2280  -26.8890   20.2730 C   0  0  0  0  0  0  0  0  0  0  0  0
  -23.4760  -30.4250   21.5990 C   0  0  0  0  0  3  0  0  0  0  0  0
  -24.9310  -28.7980   20.2050 C   0  0  0  0  0  0  0  0  0  0  0  0
  -26.0470  -30.6220   21.4670 C   0  0  0  0  0  2  0  0  0  0  0  0
  -26.1200  -29.2010   20.8270 C   0  0  0  0  0  0  0  0  0  0  0  0
  -27.2640  -28.2710   20.8280 C   0  0  0  0  0  3  0  0  0  0  0  0
  -26.0030  -26.6520   19.6070 C   0  0  0  0  0  3  0  0  0  0  0  0
  -24.9010  -27.5450   19.5740 C   0  0  0  0  0  3  0  0  0  0  0  0
  -23.7150  -29.7270   20.2320 C   0  0  0  0  0  2  0  0  0  0  0  0
  -24.7490  -30.9890   22.1520 N   0  0  0  0  0  0  0  0  0  0  0  0
  -23.5680  -32.1300   23.7390 O   0  0  0  0  0  0  0  0  0  0  0  0
  -22.7730  -29.4410   22.5720 C   0  0  0  0  0  0  0  0  0  0  0  0
  -21.4420  -29.2840   22.4500 N   0  0  0  0  0  0  0  0  0  0  0  0
  -23.4350  -28.8190   23.4060 O   0  0  0  0  0  0  0  0  0  0  0  0
  -20.9600  -29.8360   21.7540 H   0  0  0  0  0  0  0  0  0  0  0  0
  -18.0520  -28.0930   22.9700 C   0  0  0  0  0  0  0  0  0  0  0  0
  -20.6140  -28.3540   23.2260 C   0  0  0  0  0  3  0  0  0  0  0  0
  -20.7100  -26.9180   22.6600 C   0  0  0  0  0  2  0  0  0  0  0  0
  -19.6040  -26.5920   21.6500 C   0  0  0  0  0  2  0  0  0  0  0  0
  -18.2240  -26.7420   22.2940 C   0  0  0  0  0  2  0  0  0  0  0  0
  -19.1740  -28.8560   23.3910 C   0  0  0  0  0  0  0  0  0  0  0  0
  -18.9570  -30.1180   23.9860 C   0  0  0  0  0  3  0  0  0  0  0  0
  -17.6520  -30.6180   24.1600 C   0  0  0  0  0  3  0  0  0  0  0  0
  -16.5460  -29.8550   23.7490 C   0  0  0  0  0  3  0  0  0  0  0  0
  -16.7470  -28.5920   23.1620 C   0  0  0  0  0  3  0  0  0  0  0  0
  -25.9260  -32.4860   23.8650 C   0  0  0  0  0  3  0  0  0  0  0  0
  -26.4230  -31.7340   25.1630 C   0  0  1  0  0  0  0  0  0  0  0  0
  -25.3150  -31.5170   26.2210 C   0  0  0  0  0  1  0  0  0  0  0  0
  -27.0090  -30.3490   24.8110 C   0  0  0  0  0  1  0  0  0  0  0  0
  -27.5660  -32.5390   25.8260 C   0  0  0  0  0  1  0  0  0  0  0  0
  -25.6050  -33.8880   24.1870 N   0  0  0  0  0  0  0  0  0  0  0  0
  -25.9380  -34.9470   23.4370 C   0  0  0  0  0  0  0  0  0  0  0  0
  -26.6120  -34.8470   22.4090 O   0  0  0  0  0  0  0  0  0  0  0  0
  -25.0080  -34.0400   24.9870 H   0  0  0  0  0  0  0  0  0  0  0  0
  -24.2110  -36.7460   23.0910 C   0  0  0  0  0  1  0  0  0  0  0  0
  -25.4500  -36.3340   23.9010 C   0  0  0  0  0  3  0  0  0  0  0  0
  -27.5820  -37.2230   24.7340 C   0  0  0  0  0  1  0  0  0  0  0  0
  -26.4800  -37.3910   23.7900 N   0  0  0  0  0  0  0  0  0  0  0  0
  -26.0710  -38.3090   23.9420 H   0  0  0  0  0  0  0  0  0  0  0  0
  1  4  1  0
  3  6  1  0
  3  1  2  0
  4  2  2  0
  4 13  1  0
  5 52  1  0
  5  2  1  0
  6  5  2  0
  7  6  1  0
  8  3  1  0
  9 11  1  0
  9  8  1  0
 10  8  2  0
 12  9  1  0
 14 22  1  0
 15 20  1  0
 16 17  1  0
 16 15  1  0
 18 17  1  0
 18 27  1  0
 18 19  1  0
 20 14  1  0
 20 19  1  0
 21 14  2  0
 22 13  1  0
 23 22  1  0
 24 25  2  0
 25 44  1  0
 26 25  1  0
 26 29  1  0
 27 24  1  0
 27 28  1  0
 28 26  2  0
 29 30  1  0
 30 31  2  0
 32 35  1  0
 32 31  1  0
 33 32  2  0
 34 33  1  0
 34 29  2  0
 35 36  1  0
 36 37  1  0
 37 38  2  0
 39 38  1  0
 39 43  1  0
 40 39  2  0
 41 36  2  0
 41 40  1  0
 42 41  1  0
 44 45  1  0
 45 48  1  0
 45 47  1  0
 46 44  2  0
 49 50  1  0
 49 24  1  0
 51 49  1  0
 53 52  1  0
 54 65  2  0
 55 53  1  0
 55 60  1  0
 56 64  1  0
 56 66  1  0
 57 63  1  0
 57 59  1  0
 58 64  1  0
 59 60  2  0
 59 58  1  0
 61 55  2  0
 62 61  1  0
 62 57  2  0
 63 56  1  0
 64 54  1  0
 66 68  2  0
 67 66  1  0
 69 67  1  0
 70 79  2  0
 70 75  1  0
 71 67  1  0
 71 75  1  0
 72 71  1  0
 73 74  1  0
 73 72  1  0
 74 70  1  0
 75 76  2  0
 76 77  1  0
 78 77  2  0
 79 78  1  0
 80 54  1  0
 80 85  1  0
 80 81  1  0
 81 84  1  1
 81 82  1  0
 83 81  1  0
 85 88  1  0
 86 90  1  0
 86 85  1  0
 87 86  2  0
 90 89  1  0
 92 90  1  0
 92 93  1  0
 92 91  1  0
M  ISO  4  14 100  22 100  52 101  53 101
M  END
>  <TORSDO>  (43) 
F 19

>  <SCORE>  (43) 
-16.097

>  <name>  (43) 
42

>  <ligand_id>  (43) 
42

>  <original_smiles>  (43) 
[H]c1c([H])c([H])c2c(c1[H])C([H])([H])C([H])([H])C([H])([H])C2([H])N([H])C(=O)C1([H])N(C(=O)C([H])(N([H])C(=O)C([H])(N([H])C([H])([H])[H])C([H])([H])[H])C(C([H])([H])[H])(C([H])([H])[H])C([H])([H])[H])C([H])([H])c2c([H])c(OC([H])([H])c3c([H])c(C([H])([H])N([H])C(=O)N4C([H])([H])C([H])([H])C([H])([H])C([H])(n5nc(-c6c([H])c([H])c(Oc7c([H])c([H])c(F)c([H])c7F)c([H])c6[H])c(C(=O)N([H])[H])c5N([H])[H])C4([H])[H])c([H])c(C(=O)N([H])[H])c3C([H])([H])[H])c([H])c([H])c2C1([H])[H]

>  <smiles>  (43) 
[H]c1c([H])c([H])c2c(c1[H])C([H])([H])C([H])([H])C([H])([H])C2([H])N([H])C(=O)C1([H])N(C(=O)C([H])(N([H])C(=O)C([H])(N([H])C([H])([H])[H])C([H])([H])[H])C(C([H])([H])[H])(C([H])([H])[H])C([H])([H])[H])C([H])([H])c2c([H])c(OC([H])([H])c3c([H])c(C([H])([H])N([H])C(=O)N4C([H])([H])C([H])([H])C([H])([H])C([H])(n5nc(-c6c([H])c([H])c(Oc7c([H])c([H])c(F)c([H])c7F)c([H])c6[H])c(C(=O)N([H])[H])c5N([H])[H])C4([H])[H])c([H])c(C(=O)N([H])[H])c3C([H])([H])[H])c([H])c([H])c2C1([H])[H]

$$$$
43:0:0
     RDKit          3D

 96104  0  0  1  0  0  0  0  0999 V2000
  -29.7190  -20.3410   19.3400 C   0  0  0  0  0  0  0  0  0  0  0  0
  -29.7860  -21.6600   19.6740 N   0  0  0  0  0  0  0  0  0  0  0  0
  -29.2010  -19.9640   18.2880 O   0  0  0  0  0  0  0  0  0  0  0  0
  -30.2900  -21.8870   20.5180 H   0  0  0  0  0  0  0  0  0  0  0  0
  -30.4610  -19.6610   21.6630 C   0  0  0  0  0  3  0  0  0  0  0  0
  -30.7740  -18.6930   22.6340 C   0  0  0  0  0  3  0  0  0  0  0  0
  -30.4820  -17.9200   19.9420 C   0  0  0  0  0  3  0  0  0  0  0  0
  -30.2750  -19.2990   20.3100 C   0  0  0  0  0  0  0  0  0  0  0  0
  -30.9110  -17.3370   22.2780 C   0  0  0  0  0  0  0  0  0  0  0  0
  -30.8040  -16.9260   20.9210 C   0  0  0  0  0  0  0  0  0  0  0  0
  -31.0950  -16.3170   23.3920 C   0  0  0  0  0  1  0  0  0  0  0  0
  -31.4960  -14.5860   19.9620 C   0  0  0  0  0  0  0  0  0  0  0  0
  -31.1270  -12.4030   18.8140 C   0  0  0  0  0  2  0  0  0  0  0  0
  -30.1250  -12.6280   17.6540 C   0  0  0  0  0  2  0  0  0  0  0  0
  -28.6610  -12.5990   18.1480 C   0  0  0  0  0  2  0  0  0  0  0  0
  -28.4400  -13.4680   19.4160 C   0  0  0  0  0  3  0  0  0  0  0  0
  -29.5090  -13.1190   20.4730 C   0  0  0  0  0  2  0  0  0  0  0  0
  -30.8330  -13.3940   19.8680 N   0  0  0  0  0  0  0  0  0  0  0  0
  -32.5740  -14.7980   19.3900 O   0  0  0  0  0  0  0  0  0  0  0  0
  -30.8270  -15.4920   20.7180 N   0  0  0  0  0  0  0  0  0  0  0  0
  -30.1000  -15.0230   21.2340 H   0  0  0  0  0  0  0  0  0  0  0  0
  -26.1400  -14.2980   20.2300 C   0  0  0  0  0  0  0  0  0  0  0  0
  -25.0210  -13.6290   20.6400 C   0  0  0  0  0  0  0  0  0  0  0  0
  -25.3440  -12.2380   20.5660 C   0  0  0  0  0  0  0  0  0  0  0  0
  -27.0870  -13.3230   19.9470 N   0  0  0  0  0  0  0  0  0  0  0  0
  -26.6090  -12.0790   20.1990 N   0  0  0  0  0  0  0  0  0  0  0  0
  -24.5090  -11.0500   20.7660 C   0  0  0  0  0  0  0  0  0  0  0  0
  -24.8630  -10.0520   21.7000 C   0  0  0  0  0  3  0  0  0  0  0  0
  -24.0330   -8.9260   21.8930 C   0  0  0  0  0  3  0  0  0  0  0  0
  -22.8370   -8.7900   21.1480 C   0  0  0  0  0  0  0  0  0  0  0  0
  -22.5020   -9.7770   20.2040 C   0  0  0  0  0  3  0  0  0  0  0  0
  -23.3300  -10.8950   20.0110 C   0  0  0  0  0  3  0  0  0  0  0  0
  -21.9860   -7.7150   21.2430 O   0  0  0  0  0  0  0  0  0  0  0  0
  -21.8220   -7.0290   22.4190 C   0  0  0  0  0  0  0  0  0  0  0  0
  -21.4060   -7.6730   23.6050 C   0  0  0  0  0  3  0  0  0  0  0  0
  -21.1770   -6.9190   24.7740 C   0  0  0  0  0  3  0  0  0  0  0  0
  -21.3580   -5.5230   24.7580 C   0  0  0  0  0  0  0  0  0  0  0  0
  -21.7660   -4.8790   23.5770 C   0  0  0  0  0  3  0  0  0  0  0  0
  -21.9920   -5.6290   22.4100 C   0  0  0  0  0  0  0  0  0  0  0  0
  -22.3640   -5.0010   21.2680 F   0  0  0  0  0  0  0  0  0  0  0  0
  -21.1350   -4.7980   25.8800 F   0  0  0  0  0  0  0  0  0  0  0  0
  -23.6890  -14.2310   20.9910 C   0  0  0  0  0  0  0  0  0  0  0  0
  -22.9540  -13.6080   21.9030 N   0  0  0  0  0  0  0  0  0  0  0  0
  -23.3170  -15.2910   20.4860 O   0  0  0  0  0  0  0  0  0  0  0  0
  -23.2690  -12.7500   22.3300 H   0  0  0  0  0  0  0  0  0  0  0  0
  -22.0640  -13.9960   22.1790 H   0  0  0  0  0  0  0  0  0  0  0  0
  -26.4230  -15.6520   20.0540 N   0  0  0  0  0  0  0  0  0  0  0  0
  -25.6980  -16.3570   20.1330 H   0  0  0  0  0  0  0  0  0  0  0  0
  -27.2800  -16.0140   19.6560 H   0  0  0  0  0  0  0  0  0  0  0  0
  -29.8900  -23.1550   17.6660 C   0  0  0  0  0  1  0  0  0  0  0  0
  -29.1480  -22.8220   18.9820 C   0  0  0  0  0  3  0  0  0  0  0  0
  -28.9870  -24.0890   19.9220 C   0  0  0  0  0  3  0  0  0  0  0  0
  -30.2670  -24.2750   20.5130 O   0  0  0  0  0  0  0  0  0  0  0  0
  -30.8870  -24.3950   19.8010 H   0  0  0  0  0  0  0  0  0  0  0  0
  -28.5590  -25.4440   19.2230 C   0  0  0  0  0  2  0  0  0  0  0  0
  -28.2480  -26.5650   20.1080 O   0  0  0  0  0  0  0  0  0  0  0  0
  -24.5310  -31.8360   23.1900 C   0  0  0  0  0  0  0  0  0  0  0  0
  -27.0640  -27.3020   20.0660 C   0  0  0  0  0  0  0  0  0  0  0  0
  -23.2780  -30.4470   21.5730 C   0  0  0  0  0  3  0  0  0  0  0  0
  -24.6820  -28.8700   20.1290 C   0  0  0  0  0  0  0  0  0  0  0  0
  -25.8060  -30.7500   21.3350 C   0  0  0  0  0  2  0  0  0  0  0  0
  -25.8600  -29.3700   20.6960 C   0  0  0  0  0  0  0  0  0  0  0  0
  -27.0470  -28.5940   20.6580 C   0  0  0  0  0  3  0  0  0  0  0  0
  -25.8600  -26.8200   19.5050 C   0  0  0  0  0  3  0  0  0  0  0  0
  -24.6800  -27.5970   19.5310 C   0  0  0  0  0  3  0  0  0  0  0  0
  -23.4550  -29.7560   20.1930 C   0  0  0  0  0  2  0  0  0  0  0  0
  -24.5590  -31.0270   22.0900 N   0  0  0  0  0  0  0  0  0  0  0  0
  -23.4630  -32.1280   23.7460 O   0  0  0  0  0  0  0  0  0  0  0  0
  -22.6210  -29.4450   22.5520 C   0  0  0  0  0  0  0  0  0  0  0  0
  -21.3020  -29.2430   22.4060 N   0  0  0  0  0  0  0  0  0  0  0  0
  -23.2970  -28.8550   23.3970 O   0  0  0  0  0  0  0  0  0  0  0  0
  -20.8200  -29.7750   21.6960 H   0  0  0  0  0  0  0  0  0  0  0  0
  -17.9510  -27.9420   22.8120 C   0  0  0  0  0  0  0  0  0  0  0  0
  -20.4840  -28.3090   23.1810 C   0  0  0  0  0  3  0  0  0  0  0  0
  -20.6640  -26.8590   22.6780 C   0  0  0  0  0  2  0  0  0  0  0  0
  -19.6210  -26.4490   21.6350 C   0  0  0  0  0  2  0  0  0  0  0  0
  -18.2080  -26.5690   22.2110 C   0  0  0  0  0  2  0  0  0  0  0  0
  -19.0220  -28.7620   23.2540 C   0  0  0  0  0  0  0  0  0  0  0  0
  -18.7340  -30.0410   23.7780 C   0  0  0  0  0  3  0  0  0  0  0  0
  -17.4070  -30.5010   23.8680 C   0  0  0  0  0  3  0  0  0  0  0  0
  -16.3480  -29.6770   23.4470 C   0  0  0  0  0  3  0  0  0  0  0  0
  -16.6210  -28.4010   22.9220 C   0  0  0  0  0  3  0  0  0  0  0  0
  -25.8350  -32.4510   23.7890 C   0  0  0  0  0  3  0  0  0  0  0  0
  -25.5460  -33.8470   24.1450 N   0  0  0  0  0  0  0  0  0  0  0  0
  -25.8620  -34.9080   23.3910 C   0  0  0  0  0  0  0  0  0  0  0  0
  -26.5030  -34.8140   22.3400 O   0  0  0  0  0  0  0  0  0  0  0  0
  -24.9800  -33.9940   24.9670 H   0  0  0  0  0  0  0  0  0  0  0  0
  -24.1390  -36.7200   23.1210 C   0  0  0  0  0  1  0  0  0  0  0  0
  -25.4030  -36.2940   23.8840 C   0  0  0  0  0  3  0  0  0  0  0  0
  -27.5700  -37.1520   24.6570 C   0  0  0  0  0  1  0  0  0  0  0  0
  -26.4390  -37.3420   23.7510 N   0  0  0  0  0  0  0  0  0  0  0  0
  -26.0480  -38.2620   23.9290 H   0  0  0  0  0  0  0  0  0  0  0  0
  -26.3760  -31.6610   25.0440 C   0  0  1  0  0  0  0  0  0  0  0  0
  -25.3050  -31.4140   26.1330 C   0  0  0  0  0  1  0  0  0  0  0  0
  -26.9490  -30.2910   24.6150 C   0  0  0  0  0  1  0  0  0  0  0  0
  -27.5420  -32.4450   25.6950 C   0  0  0  0  0  1  0  0  0  0  0  0
  1  2  1  0
  1  8  1  0
  2  4  1  0
  3  1  2  0
  5  6  1  0
  7  8  1  0
  7 10  2  0
  8  5  2  0
  9  6  2  0
  9 11  1  0
 10  9  1  0
 12 20  1  0
 13 18  1  0
 14 15  1  0
 14 13  1  0
 16 15  1  0
 16 25  1  0
 16 17  1  0
 18 12  1  0
 18 17  1  0
 19 12  2  0
 20 10  1  0
 20 21  1  0
 22 23  2  0
 23 42  1  0
 24 23  1  0
 24 27  1  0
 25 26  1  0
 25 22  1  0
 26 24  2  0
 27 28  1  0
 28 29  2  0
 30 33  1  0
 30 29  1  0
 31 30  2  0
 32 31  1  0
 32 27  2  0
 33 34  1  0
 34 35  1  0
 35 36  2  0
 37 36  1  0
 37 41  1  0
 38 37  2  0
 39 34  2  0
 39 38  1  0
 40 39  1  0
 42 43  1  0
 43 46  1  0
 43 45  1  0
 44 42  2  0
 47 48  1  0
 47 22  1  0
 49 47  1  0
 51 50  1  0
 51  2  1  0
 51 52  1  0
 52 55  1  0
 52 53  1  0
 54 53  1  0
 55 56  1  0
 57 68  2  0
 58 56  1  0
 58 63  1  0
 59 67  1  0
 59 69  1  0
 60 66  1  0
 60 62  1  0
 61 67  1  0
 62 61  1  0
 63 62  2  0
 64 65  1  0
 64 58  2  0
 65 60  2  0
 66 59  1  0
 67 57  1  0
 69 71  2  0
 70 69  1  0
 72 70  1  0
 73 82  2  0
 73 78  1  0
 74 70  1  0
 74 78  1  0
 75 74  1  0
 76 77  1  0
 76 75  1  0
 77 73  1  0
 78 79  2  0
 79 80  1  0
 81 80  2  0
 82 81  1  0
 83 57  1  0
 83 84  1  0
 83 93  1  0
 84 87  1  0
 85 89  1  0
 85 84  1  0
 86 85  2  0
 89 88  1  0
 91 89  1  0
 91 92  1  0
 91 90  1  0
 93 96  1  1
 93 94  1  0
 95 93  1  0
M  ISO  4  12 100  20 100  55 101  56 101
M  END
>  <TORSDO>  (44) 
F 21

>  <SCORE>  (44) 
-10.985

>  <name>  (44) 
43

>  <ligand_id>  (44) 
43

>  <original_smiles>  (44) 
[H]OC([H])(C([H])([H])Oc1c([H])c([H])c2c(c1[H])C([H])([H])N(C(=O)C([H])(N([H])C(=O)C([H])(N([H])C([H])([H])[H])C([H])([H])[H])C(C([H])([H])[H])(C([H])([H])[H])C([H])([H])[H])C([H])(C(=O)N([H])C1([H])c3c([H])c([H])c([H])c([H])c3C([H])([H])C([H])([H])C1([H])[H])C2([H])[H])C([H])(N([H])C(=O)c1c([H])c([H])c(C([H])([H])[H])c(N([H])C(=O)N2C([H])([H])C([H])([H])C([H])([H])C([H])(n3nc(-c4c([H])c([H])c(Oc5c([H])c([H])c(F)c([H])c5F)c([H])c4[H])c(C(=O)N([H])[H])c3N([H])[H])C2([H])[H])c1[H])C([H])([H])[H]

>  <smiles>  (44) 
[H]OC([H])(C([H])([H])Oc1c([H])c([H])c2c(c1[H])C([H])([H])N(C(=O)C([H])(N([H])C(=O)C([H])(N([H])C([H])([H])[H])C([H])([H])[H])C(C([H])([H])[H])(C([H])([H])[H])C([H])([H])[H])C([H])(C(=O)N([H])C1([H])c3c([H])c([H])c([H])c([H])c3C([H])([H])C([H])([H])C1([H])[H])C2([H])[H])C([H])(N([H])C(=O)c1c([H])c([H])c(C([H])([H])[H])c(N([H])C(=O)N2C([H])([H])C([H])([H])C([H])([H])C([H])(n3nc(-c4c([H])c([H])c(Oc5c([H])c([H])c(F)c([H])c5F)c([H])c4[H])c(C(=O)N([H])[H])c3N([H])[H])C2([H])[H])c1[H])C([H])([H])[H]

$$$$
44:0:0
     RDKit          3D

 95104  0  0  1  0  0  0  0  0999 V2000
  -29.4660  -24.2070   19.4370 C   0  0  0  0  0  0  0  0  0  0  0  0
  -31.1180  -23.3360   21.1000 C   0  0  0  0  0  2  0  0  0  0  0  0
  -29.7640  -21.8200   20.3500 C   0  0  0  0  0  3  0  0  0  0  0  0
  -30.4670  -22.0850   21.7050 C   0  0  0  0  0  3  0  0  0  0  0  0
  -29.6660  -22.1540   23.0010 C   0  0  0  0  0  1  0  0  0  0  0  0
  -30.2880  -23.1450   19.9150 N   0  0  0  0  0  0  0  0  0  0  0  0
  -29.5230  -24.4780   18.2330 O   0  0  0  0  0  0  0  0  0  0  0  0
  -30.4290  -20.5400   19.7120 C   0  0  0  0  0  0  0  0  0  0  0  0
  -28.3450  -19.2620   19.6070 C   0  0  0  0  0  1  0  0  0  0  0  0
  -29.7930  -19.3330   19.8150 N   0  0  0  0  0  0  0  0  0  0  0  0
  -31.5890  -20.6230   19.2920 O   0  0  0  0  0  0  0  0  0  0  0  0
  -31.3010  -14.5110   19.7120 C   0  0  0  0  0  0  0  0  0  0  0  0
  -30.8330  -12.3260   18.6590 C   0  0  0  0  0  2  0  0  0  0  0  0
  -29.8080  -12.5390   17.5350 C   0  0  0  0  0  2  0  0  0  0  0  0
  -28.3790  -12.4220   18.0980 C   0  0  0  0  0  2  0  0  0  0  0  0
  -28.1650  -13.2990   19.3670 C   0  0  0  0  0  3  0  0  0  0  0  0
  -29.3080  -13.1070   20.3850 C   0  0  0  0  0  2  0  0  0  0  0  0
  -30.5800  -13.3520   19.6840 N   0  0  0  0  0  0  0  0  0  0  0  0
  -32.3890  -14.6210   19.1360 O   0  0  0  0  0  0  0  0  0  0  0  0
  -30.4080  -16.8120   19.3040 C   0  0  0  0  0  2  0  0  0  0  0  0
  -30.8440  -16.1060   21.5370 C   0  0  0  0  0  2  0  0  0  0  0  0
  -30.5190  -18.0720   20.2100 C   0  0  0  0  0  3  0  0  0  0  0  0
  -30.1930  -17.4920   21.5980 C   0  0  0  0  0  3  0  0  0  0  0  0
  -30.6470  -15.6200   20.1630 N   0  0  0  0  0  0  0  0  0  0  0  0
  -28.8850  -17.2880   21.7620 F   0  0  0  0  0  0  0  0  0  0  0  0
  -25.9250  -13.9820   20.4240 C   0  0  0  0  0  0  0  0  0  0  0  0
  -24.8440  -13.2510   20.8370 C   0  0  0  0  0  0  0  0  0  0  0  0
  -25.1880  -11.8830   20.6210 C   0  0  0  0  0  0  0  0  0  0  0  0
  -26.8570  -13.0610   19.9710 N   0  0  0  0  0  0  0  0  0  0  0  0
  -26.4260  -11.7850   20.1520 N   0  0  0  0  0  0  0  0  0  0  0  0
  -24.3850  -10.6630   20.7810 C   0  0  0  0  0  0  0  0  0  0  0  0
  -24.7650   -9.6460   21.6820 C   0  0  0  0  0  3  0  0  0  0  0  0
  -23.9740   -8.4860   21.8260 C   0  0  0  0  0  3  0  0  0  0  0  0
  -22.7860   -8.3390   21.0730 C   0  0  0  0  0  0  0  0  0  0  0  0
  -22.4210   -9.3470   20.1650 C   0  0  0  0  0  3  0  0  0  0  0  0
  -23.2120  -10.4980   20.0190 C   0  0  0  0  0  3  0  0  0  0  0  0
  -21.9620   -7.2380   21.1340 O   0  0  0  0  0  0  0  0  0  0  0  0
  -21.7840   -6.5390   22.3010 C   0  0  0  0  0  0  0  0  0  0  0  0
  -21.2650   -7.1460   23.4640 C   0  0  0  0  0  3  0  0  0  0  0  0
  -21.0280   -6.3710   24.6170 C   0  0  0  0  0  3  0  0  0  0  0  0
  -21.3000   -4.9890   24.6100 C   0  0  0  0  0  0  0  0  0  0  0  0
  -21.8090   -4.3810   23.4500 C   0  0  0  0  0  3  0  0  0  0  0  0
  -22.0480   -5.1520   22.2970 C   0  0  0  0  0  0  0  0  0  0  0  0
  -22.5220   -4.5550   21.1770 F   0  0  0  0  0  0  0  0  0  0  0  0
  -21.0610   -4.2450   25.7170 F   0  0  0  0  0  0  0  0  0  0  0  0
  -23.5330  -13.7980   21.3230 C   0  0  0  0  0  0  0  0  0  0  0  0
  -22.8690  -13.0930   22.2330 N   0  0  0  0  0  0  0  0  0  0  0  0
  -23.1090  -14.8820   20.9250 O   0  0  0  0  0  0  0  0  0  0  0  0
  -23.2270  -12.2180   22.5840 H   0  0  0  0  0  0  0  0  0  0  0  0
  -21.9910  -13.4400   22.5880 H   0  0  0  0  0  0  0  0  0  0  0  0
  -26.1870  -15.3470   20.3830 N   0  0  0  0  0  0  0  0  0  0  0  0
  -25.5190  -16.0270   20.7250 H   0  0  0  0  0  0  0  0  0  0  0  0
  -27.0750  -15.7570   20.1190 H   0  0  0  0  0  0  0  0  0  0  0  0
  -28.5920  -25.1130   20.3820 C   0  0  0  0  0  2  0  0  0  0  0  0
  -28.6530  -26.5500   20.0880 O   0  0  0  0  0  0  0  0  0  0  0  0
  -24.5770  -31.6900   23.0810 C   0  0  0  0  0  0  0  0  0  0  0  0
  -27.4620  -27.2750   20.0910 C   0  0  0  0  0  0  0  0  0  0  0  0
  -23.4640  -30.2450   21.4170 C   0  0  0  0  0  3  0  0  0  0  0  0
  -25.0110  -28.7390   20.0450 C   0  0  0  0  0  0  0  0  0  0  0  0
  -25.9890  -30.6710   21.2820 C   0  0  0  0  0  2  0  0  0  0  0  0
  -26.1460  -29.2970   20.6520 C   0  0  0  0  0  0  0  0  0  0  0  0
  -27.3730  -28.5800   20.6530 C   0  0  0  0  0  3  0  0  0  0  0  0
  -26.2990  -26.7470   19.4810 C   0  0  0  0  0  3  0  0  0  0  0  0
  -25.0900  -27.4670   19.4530 C   0  0  0  0  0  3  0  0  0  0  0  0
  -23.7400  -29.5640   20.0510 C   0  0  0  0  0  2  0  0  0  0  0  0
  -24.6950  -30.8840   21.9850 N   0  0  0  0  0  0  0  0  0  0  0  0
  -23.4740  -31.9290   23.5900 O   0  0  0  0  0  0  0  0  0  0  0  0
  -22.8130  -29.2090   22.3640 C   0  0  0  0  0  0  0  0  0  0  0  0
  -21.4880  -29.0270   22.2330 N   0  0  0  0  0  0  0  0  0  0  0  0
  -23.4960  -28.5750   23.1710 O   0  0  0  0  0  0  0  0  0  0  0  0
  -20.9960  -29.5840   21.5490 H   0  0  0  0  0  0  0  0  0  0  0  0
  -18.1090  -27.8530   22.7440 C   0  0  0  0  0  0  0  0  0  0  0  0
  -20.6730  -28.0790   22.9920 C   0  0  0  0  0  3  0  0  0  0  0  0
  -20.7580  -26.6630   22.3790 C   0  0  0  0  0  2  0  0  0  0  0  0
  -19.6390  -26.3780   21.3690 C   0  0  0  0  0  2  0  0  0  0  0  0
  -18.2660  -26.5200   22.0320 C   0  0  0  0  0  2  0  0  0  0  0  0
  -19.2400  -28.5900   23.1830 C   0  0  0  0  0  0  0  0  0  0  0  0
  -19.0410  -29.8390   23.8110 C   0  0  0  0  0  3  0  0  0  0  0  0
  -17.7440  -30.3500   24.0070 C   0  0  0  0  0  3  0  0  0  0  0  0
  -16.6270  -29.6070   23.5900 C   0  0  0  0  0  3  0  0  0  0  0  0
  -16.8100  -28.3590   22.9650 C   0  0  0  0  0  3  0  0  0  0  0  0
  -25.8220  -32.3610   23.7350 C   0  0  0  0  0  3  0  0  0  0  0  0
  -25.4400  -33.7300   24.1090 N   0  0  0  0  0  0  0  0  0  0  0  0
  -25.7290  -34.8240   23.3900 C   0  0  0  0  0  0  0  0  0  0  0  0
  -26.4130  -34.7880   22.3640 O   0  0  0  0  0  0  0  0  0  0  0  0
  -24.8170  -33.8290   24.8950 H   0  0  0  0  0  0  0  0  0  0  0  0
  -23.9130  -36.5380   23.0900 C   0  0  0  0  0  1  0  0  0  0  0  0
  -25.1720  -36.1700   23.8900 C   0  0  0  0  0  3  0  0  0  0  0  0
  -27.2540  -37.1340   24.7640 C   0  0  0  0  0  1  0  0  0  0  0  0
  -26.1510  -37.2760   23.8170 N   0  0  0  0  0  0  0  0  0  0  0  0
  -25.6990  -38.1690   23.9950 H   0  0  0  0  0  0  0  0  0  0  0  0
  -26.3720  -31.5730   24.9870 C   0  0  1  0  0  0  0  0  0  0  0  0
  -25.2820  -31.2460   26.0340 C   0  0  0  0  0  1  0  0  0  0  0  0
  -27.0280  -30.2440   24.5490 C   0  0  0  0  0  1  0  0  0  0  0  0
  -27.4780  -32.4000   25.6840 C   0  0  0  0  0  1  0  0  0  0  0  0
  1  6  1  0
  1 54  1  0
  2  4  1  0
  3  8  1  0
  3  4  1  0
  4  5  1  0
  6  3  1  0
  6  2  1  0
  7  1  2  0
  8 10  1  0
  9 10  1  0
 11  8  2  0
 12 24  1  0
 13 18  1  0
 14 15  1  0
 14 13  1  0
 16 15  1  0
 16 29  1  0
 16 17  1  0
 18 12  1  0
 18 17  1  0
 19 12  2  0
 20 24  1  0
 20 22  1  0
 21 23  1  0
 22 10  1  0
 22 23  1  0
 23 25  1  0
 24 21  1  0
 26 27  2  0
 27 46  1  0
 28 31  1  0
 28 27  1  0
 29 30  1  0
 29 26  1  0
 30 28  2  0
 31 32  1  0
 32 33  2  0
 34 37  1  0
 34 33  1  0
 35 34  2  0
 36 35  1  0
 36 31  2  0
 37 38  1  0
 38 39  1  0
 39 40  2  0
 41 40  1  0
 41 45  1  0
 42 41  2  0
 43 38  2  0
 43 42  1  0
 44 43  1  0
 46 47  1  0
 47 49  1  0
 47 50  1  0
 48 46  2  0
 51 26  1  0
 51 52  1  0
 53 51  1  0
 55 57  1  0
 55 54  1  0
 56 67  2  0
 57 62  1  0
 58 66  1  0
 58 68  1  0
 59 65  1  0
 59 61  1  0
 60 66  1  0
 61 62  2  0
 61 60  1  0
 63 57  2  0
 64 63  1  0
 64 59  2  0
 65 58  1  0
 66 56  1  0
 68 70  2  0
 69 68  1  0
 71 69  1  0
 72 81  2  0
 72 77  1  0
 73 69  1  0
 73 77  1  0
 74 73  1  0
 75 76  1  0
 75 74  1  0
 76 72  1  0
 77 78  2  0
 78 79  1  0
 80 79  2  0
 81 80  1  0
 82 56  1  0
 82 83  1  0
 82 92  1  0
 83 86  1  0
 84 88  1  0
 84 83  1  0
 85 84  2  0
 88 87  1  0
 90 88  1  0
 90 91  1  0
 90 89  1  0
 92 95  1  1
 92 93  1  0
 94 92  1  0
M  ISO  4  12 100  24 100  54 101  55 101
M  END
>  <TORSDO>  (45) 
F 18

>  <SCORE>  (45) 
-13.799

>  <name>  (45) 
44

>  <ligand_id>  (45) 
44

>  <original_smiles>  (45) 
[H]c1c([H])c([H])c2c(c1[H])C([H])([H])C([H])([H])C([H])([H])C2([H])N([H])C(=O)C1([H])N(C(=O)C([H])(N([H])C(=O)C([H])(N([H])C([H])([H])[H])C([H])([H])[H])C(C([H])([H])[H])(C([H])([H])[H])C([H])([H])[H])C([H])([H])c2c([H])c(OC([H])([H])C(=O)N3C([H])([H])C([H])(C([H])([H])[H])C3([H])C(=O)N(C([H])([H])[H])C3([H])C([H])([H])N(C(=O)N4C([H])([H])C([H])([H])C([H])([H])C([H])(n5nc(-c6c([H])c([H])c(Oc7c([H])c([H])c(F)c([H])c7F)c([H])c6[H])c(C(=O)N([H])[H])c5N([H])[H])C4([H])[H])C([H])([H])C3([H])F)c([H])c([H])c2C1([H])[H]

>  <smiles>  (45) 
[H]c1c([H])c([H])c2c(c1[H])C([H])([H])C([H])([H])C([H])([H])C2([H])N([H])C(=O)C1([H])N(C(=O)C([H])(N([H])C(=O)C([H])(N([H])C([H])([H])[H])C([H])([H])[H])C(C([H])([H])[H])(C([H])([H])[H])C([H])([H])[H])C([H])([H])c2c([H])c(OC([H])([H])C(=O)N3C([H])([H])C([H])(C([H])([H])[H])C3([H])C(=O)N(C([H])([H])[H])C3([H])C([H])([H])N(C(=O)N4C([H])([H])C([H])([H])C([H])([H])C([H])(n5nc(-c6c([H])c([H])c(Oc7c([H])c([H])c(F)c([H])c7F)c([H])c6[H])c(C(=O)N([H])[H])c5N([H])[H])C4([H])[H])C([H])([H])C3([H])F)c([H])c([H])c2C1([H])[H]

$$$$
45:0:0
     RDKit          3D

 96104  0  0  1  0  0  0  0  0999 V2000
  -28.9120  -22.3850   20.6380 C   0  0  0  0  0  0  0  0  0  0  0  0
  -29.4090  -21.0140   18.6190 C   0  0  0  0  0  2  0  0  0  0  0  0
  -29.7860  -19.9130   20.4310 C   0  0  0  0  0  3  0  0  0  0  0  0
  -30.5590  -20.1240   19.1140 C   0  0  0  0  0  3  0  0  0  0  0  0
  -31.9800  -20.6790   19.1820 C   0  0  0  0  0  1  0  0  0  0  0  0
  -28.9060  -21.0810   19.9880 N   0  0  0  0  0  0  0  0  0  0  0  0
  -29.3290  -22.4670   21.7900 O   0  0  0  0  0  0  0  0  0  0  0  0
  -29.2910  -18.3780   20.4800 C   0  0  0  0  0  0  0  0  0  0  0  0
  -31.5640  -17.6150   21.1610 C   0  0  0  0  0  1  0  0  0  0  0  0
  -30.1880  -17.3410   20.7290 N   0  0  0  0  0  0  0  0  0  0  0  0
  -28.1040  -18.1310   20.2620 O   0  0  0  0  0  0  0  0  0  0  0  0
  -30.5500  -14.7940   20.3520 C   0  0  0  0  0  0  0  0  0  0  0  0
  -30.3960  -12.5250   19.3230 C   0  0  0  0  0  2  0  0  0  0  0  0
  -29.4560  -12.6040   18.0980 C   0  0  0  0  0  2  0  0  0  0  0  0
  -27.9860  -12.4170   18.5300 C   0  0  0  0  0  2  0  0  0  0  0  0
  -27.6050  -13.2870   19.7620 C   0  0  0  0  0  3  0  0  0  0  0  0
  -28.6650  -13.1750   20.8760 C   0  0  0  0  0  2  0  0  0  0  0  0
  -29.9510  -13.5570   20.2890 N   0  0  0  0  0  0  0  0  0  0  0  0
  -31.7120  -14.9200   19.9550 O   0  0  0  0  0  0  0  0  0  0  0  0
  -29.7730  -15.8920   20.7050 N   0  0  0  0  0  0  0  0  0  0  0  0
  -28.8030  -15.8060   20.9690 H   0  0  0  0  0  0  0  0  0  0  0  0
  -25.2190  -13.8580   20.5060 C   0  0  0  0  0  0  0  0  0  0  0  0
  -24.1560  -13.0750   20.8770 C   0  0  0  0  0  0  0  0  0  0  0  0
  -24.6300  -11.7260   20.8410 C   0  0  0  0  0  0  0  0  0  0  0  0
  -26.2650  -12.9860   20.2580 N   0  0  0  0  0  0  0  0  0  0  0  0
  -25.9190  -11.6980   20.5210 N   0  0  0  0  0  0  0  0  0  0  0  0
  -23.9120  -10.4590   21.0320 C   0  0  0  0  0  0  0  0  0  0  0  0
  -24.3550   -9.4950   21.9660 C   0  0  0  0  0  3  0  0  0  0  0  0
  -23.6390   -8.2920   22.1480 C   0  0  0  0  0  3  0  0  0  0  0  0
  -22.4670   -8.0470   21.3970 C   0  0  0  0  0  0  0  0  0  0  0  0
  -22.0420   -8.9970   20.4530 C   0  0  0  0  0  3  0  0  0  0  0  0
  -22.7600  -10.1900   20.2700 C   0  0  0  0  0  3  0  0  0  0  0  0
  -21.7190   -6.8980   21.4910 O   0  0  0  0  0  0  0  0  0  0  0  0
  -21.6750   -6.1550   22.6430 C   0  0  0  0  0  0  0  0  0  0  0  0
  -21.2390   -6.7070   23.8670 C   0  0  0  0  0  3  0  0  0  0  0  0
  -21.1420   -5.8920   25.0120 C   0  0  0  0  0  3  0  0  0  0  0  0
  -21.4740   -4.5250   24.9340 C   0  0  0  0  0  0  0  0  0  0  0  0
  -21.9020   -3.9710   23.7140 C   0  0  0  0  0  3  0  0  0  0  0  0
  -21.9980   -4.7830   22.5730 C   0  0  0  0  0  0  0  0  0  0  0  0
  -22.3920   -4.2420   21.3940 F   0  0  0  0  0  0  0  0  0  0  0  0
  -21.3750   -3.7390   26.0320 F   0  0  0  0  0  0  0  0  0  0  0  0
  -22.7570  -13.5390   21.1560 C   0  0  0  0  0  0  0  0  0  0  0  0
  -22.0340  -12.8400   22.0230 N   0  0  0  0  0  0  0  0  0  0  0  0
  -22.3120  -14.5630   20.6360 O   0  0  0  0  0  0  0  0  0  0  0  0
  -22.4030  -12.0140   22.4730 H   0  0  0  0  0  0  0  0  0  0  0  0
  -21.0930  -13.1310   22.2440 H   0  0  0  0  0  0  0  0  0  0  0  0
  -25.3680  -15.2310   20.3290 N   0  0  0  0  0  0  0  0  0  0  0  0
  -24.5920  -15.8770   20.4440 H   0  0  0  0  0  0  0  0  0  0  0  0
  -26.2130  -15.6850   20.0000 H   0  0  0  0  0  0  0  0  0  0  0  0
  -28.3860  -23.7240   19.9200 C   0  0  0  0  0  3  0  0  0  0  0  0
  -27.0010  -23.4550   19.4830 N   0  0  0  0  0  4  0  0  0  0  0  0
  -26.3910  -23.4190   20.2840 H   0  0  0  0  0  0  0  0  0  0  0  0
  -26.9500  -22.5530   19.0410 H   0  0  0  0  0  0  0  0  0  0  0  0
  -26.6630  -24.1460   18.8380 H   0  0  0  0  0  0  0  0  0  0  0  0
  -28.4200  -25.1240   20.7480 C   0  0  0  0  0  2  0  0  0  0  0  0
  -28.3790  -26.4880   20.1200 O   0  0  0  0  0  0  0  0  0  0  0  0
  -24.5960  -31.8870   23.2380 C   0  0  0  0  0  0  0  0  0  0  0  0
  -27.2390  -27.3110   20.1950 C   0  0  0  0  0  0  0  0  0  0  0  0
  -23.3990  -30.4780   21.5970 C   0  0  0  0  0  3  0  0  0  0  0  0
  -24.8600  -28.9120   20.1910 C   0  0  0  0  0  0  0  0  0  0  0  0
  -25.9390  -30.7970   21.4170 C   0  0  0  0  0  2  0  0  0  0  0  0
  -26.0250  -29.4090   20.7870 C   0  0  0  0  0  0  0  0  0  0  0  0
  -27.2200  -28.6200   20.7830 C   0  0  0  0  0  3  0  0  0  0  0  0
  -26.0500  -26.8710   19.5840 C   0  0  0  0  0  3  0  0  0  0  0  0
  -24.8740  -27.6470   19.5840 C   0  0  0  0  0  3  0  0  0  0  0  0
  -23.6220  -29.7870   20.2240 C   0  0  0  0  0  2  0  0  0  0  0  0
  -24.6630  -31.0750   22.1410 N   0  0  0  0  0  0  0  0  0  0  0  0
  -23.5120  -32.1610   23.7730 O   0  0  0  0  0  0  0  0  0  0  0  0
  -22.7340  -29.4690   22.5630 C   0  0  0  0  0  0  0  0  0  0  0  0
  -21.4090  -29.2890   22.4370 N   0  0  0  0  0  0  0  0  0  0  0  0
  -23.4160  -28.8450   23.3820 O   0  0  0  0  0  0  0  0  0  0  0  0
  -20.9200  -29.8450   21.7500 H   0  0  0  0  0  0  0  0  0  0  0  0
  -18.0350  -28.0830   22.9460 C   0  0  0  0  0  0  0  0  0  0  0  0
  -20.5930  -28.3510   23.2110 C   0  0  0  0  0  3  0  0  0  0  0  0
  -20.6970  -26.9190   22.6380 C   0  0  0  0  0  2  0  0  0  0  0  0
  -19.5950  -26.5910   21.6260 C   0  0  0  0  0  2  0  0  0  0  0  0
  -18.2130  -26.7350   22.2700 C   0  0  0  0  0  2  0  0  0  0  0  0
  -19.1520  -28.8500   23.3730 C   0  0  0  0  0  0  0  0  0  0  0  0
  -18.9300  -30.1120   23.9650 C   0  0  0  0  0  3  0  0  0  0  0  0
  -17.6240  -30.6090   24.1330 C   0  0  0  0  0  3  0  0  0  0  0  0
  -16.5210  -29.8420   23.7190 C   0  0  0  0  0  3  0  0  0  0  0  0
  -16.7280  -28.5800   23.1310 C   0  0  0  0  0  3  0  0  0  0  0  0
  -25.8760  -32.5260   23.8600 C   0  0  0  0  0  3  0  0  0  0  0  0
  -26.3920  -31.7630   25.1420 C   0  0  1  0  0  0  0  0  0  0  0  0
  -25.2970  -31.5300   26.2110 C   0  0  0  0  0  1  0  0  0  0  0  0
  -26.9740  -30.3830   24.7580 C   0  0  0  0  0  1  0  0  0  0  0  0
  -27.5410  -32.5600   25.8020 C   0  0  0  0  0  1  0  0  0  0  0  0
  -25.5630  -33.9250   24.1850 N   0  0  0  0  0  0  0  0  0  0  0  0
  -25.8970  -34.9780   23.4270 C   0  0  0  0  0  0  0  0  0  0  0  0
  -26.5710  -34.8740   22.3990 O   0  0  0  0  0  0  0  0  0  0  0  0
  -24.9680  -34.0800   24.9860 H   0  0  0  0  0  0  0  0  0  0  0  0
  -24.1750  -36.7760   23.0600 C   0  0  0  0  0  1  0  0  0  0  0  0
  -25.4100  -36.3680   23.8810 C   0  0  0  0  0  3  0  0  0  0  0  0
  -27.5410  -37.2510   24.7270 C   0  0  0  0  0  1  0  0  0  0  0  0
  -26.4440  -37.4210   23.7760 N   0  0  0  0  0  0  0  0  0  0  0  0
  -26.0390  -38.3420   23.9200 H   0  0  0  0  0  0  0  0  0  0  0  0
  1  7  2  0
  2  4  1  0
  2  6  1  0
  3  8  1  0
  4  5  1  0
  4  3  1  0
  6  3  1  0
  6  1  1  0
  8 10  1  0
 10  9  1  0
 11  8  2  0
 12 20  1  0
 13 18  1  0
 14 15  1  0
 14 13  1  0
 16 15  1  0
 16 25  1  0
 16 17  1  0
 18 12  1  0
 18 17  1  0
 19 12  2  0
 20 10  1  0
 20 21  1  0
 22 23  2  0
 23 42  1  0
 24 23  1  0
 24 27  1  0
 25 22  1  0
 25 26  1  0
 26 24  2  0
 27 28  1  0
 28 29  2  0
 30 33  1  0
 30 29  1  0
 31 30  2  0
 32 31  1  0
 32 27  2  0
 33 34  1  0
 34 35  1  0
 35 36  2  0
 37 36  1  0
 37 41  1  0
 38 37  2  0
 39 34  2  0
 39 38  1  0
 40 39  1  0
 42 43  1  0
 43 46  1  0
 43 45  1  0
 44 42  2  0
 47 48  1  0
 47 22  1  0
 49 47  1  0
 50  1  1  0
 50 55  1  0
 51 50  1  0
 51 52  1  0
 53 51  1  0
 54 51  1  0
 56 58  1  0
 56 55  1  0
 57 68  2  0
 58 63  1  0
 59 67  1  0
 59 69  1  0
 60 66  1  0
 60 62  1  0
 61 67  1  0
 62 61  1  0
 63 62  2  0
 64 58  2  0
 65 64  1  0
 65 60  2  0
 66 59  1  0
 67 57  1  0
 69 71  2  0
 70 69  1  0
 72 70  1  0
 73 82  2  0
 73 78  1  0
 74 70  1  0
 74 78  1  0
 75 74  1  0
 76 77  1  0
 76 75  1  0
 77 73  1  0
 78 79  2  0
 79 80  1  0
 81 80  2  0
 82 81  1  0
 83 57  1  0
 83 88  1  0
 83 84  1  0
 84 87  1  1
 84 85  1  0
 86 84  1  0
 88 91  1  0
 89 93  1  0
 89 88  1  0
 90 89  2  0
 93 92  1  0
 95 93  1  0
 95 96  1  0
 95 94  1  0
M  ISO  4  12 100  20 100  55 101  56 101
M  END
>  <TORSDO>  (46) 
F 20

>  <SCORE>  (46) 
-14.401

>  <name>  (46) 
45

>  <ligand_id>  (46) 
45

>  <original_smiles>  (46) 
[H]c1c([H])c([H])c2c(c1[H])C([H])([H])C([H])([H])C([H])([H])C2([H])N([H])C(=O)C1([H])N(C(=O)C([H])(N([H])C(=O)C([H])(N([H])C([H])([H])[H])C([H])([H])[H])C(C([H])([H])[H])(C([H])([H])[H])C([H])([H])[H])C([H])([H])c2c([H])c(OC([H])([H])C([H])(C(=O)N3C([H])([H])C([H])(C([H])([H])[H])C3([H])C(=O)N(N([H])C(=O)N3C([H])([H])C([H])([H])C([H])([H])C([H])(n4nc(-c5c([H])c([H])c(Oc6c([H])c([H])c(F)c([H])c6F)c([H])c5[H])c(C(=O)N([H])[H])c4N([H])[H])C3([H])[H])C([H])([H])[H])[N+]([H])([H])[H])c([H])c([H])c2C1([H])[H]

>  <smiles>  (46) 
[H]c1c([H])c([H])c2c(c1[H])C([H])([H])C([H])([H])C([H])([H])C2([H])N([H])C(=O)C1([H])N(C(=O)C([H])(N([H])C(=O)C([H])(N([H])C([H])([H])[H])C([H])([H])[H])C(C([H])([H])[H])(C([H])([H])[H])C([H])([H])[H])C([H])([H])c2c([H])c(OC([H])([H])C([H])(C(=O)N3C([H])([H])C([H])(C([H])([H])[H])C3([H])C(=O)N(N([H])C(=O)N3C([H])([H])C([H])([H])C([H])([H])C([H])(n4nc(-c5c([H])c([H])c(Oc6c([H])c([H])c(F)c([H])c6F)c([H])c5[H])c(C(=O)N([H])[H])c4N([H])[H])C3([H])[H])C([H])([H])[H])[N+]([H])([H])[H])c([H])c([H])c2C1([H])[H]

$$$$
46:0:0
     RDKit          3D

 93101  0  0  1  0  0  0  0  0999 V2000
  -29.1540  -20.2480   19.5390 C   0  0  0  0  0  2  0  0  0  0  0  0
  -30.1070  -21.4880   21.4000 C   0  0  0  0  0  2  0  0  0  0  0  0
  -29.3910  -19.2600   20.7130 C   0  0  0  0  0  3  0  0  0  0  0  0
  -29.7640  -21.6330   19.9020 C   0  0  0  0  0  3  0  0  0  0  0  0
  -29.9760  -20.0630   21.8050 N   0  0  0  0  0  4  0  0  0  0  0  0
  -29.4090  -19.9850   22.6340 H   0  0  0  0  0  0  0  0  0  0  0  0
  -30.8920  -19.7040   22.0150 H   0  0  0  0  0  0  0  0  0  0  0  0
  -30.2570  -17.9850   20.3890 C   0  0  0  0  0  0  0  0  0  0  0  0
  -30.8020  -17.8130   19.2940 O   0  0  0  0  0  0  0  0  0  0  0  0
  -30.4350  -16.8830   21.4700 C   0  0  0  0  0  2  0  0  0  0  0  0
  -30.6840  -14.5330   20.4930 C   0  0  0  0  0  0  0  0  0  0  0  0
  -30.3990  -12.3800   19.3010 C   0  0  0  0  0  2  0  0  0  0  0  0
  -29.4550  -12.5740   18.0970 C   0  0  0  0  0  2  0  0  0  0  0  0
  -27.9790  -12.4350   18.5230 C   0  0  0  0  0  2  0  0  0  0  0  0
  -27.6390  -13.2690   19.7870 C   0  0  0  0  0  3  0  0  0  0  0  0
  -28.6900  -13.0380   20.8950 C   0  0  0  0  0  2  0  0  0  0  0  0
  -30.0140  -13.3580   20.3310 N   0  0  0  0  0  0  0  0  0  0  0  0
  -31.8200  -14.7210   20.0510 O   0  0  0  0  0  0  0  0  0  0  0  0
  -29.9800  -15.5260   21.0750 N   0  0  0  0  0  0  0  0  0  0  0  0
  -29.0400  -15.2790   21.3470 H   0  0  0  0  0  0  0  0  0  0  0  0
  -25.2380  -13.8890   20.4720 C   0  0  0  0  0  0  0  0  0  0  0  0
  -24.1650  -13.1230   20.8400 C   0  0  0  0  0  0  0  0  0  0  0  0
  -24.6220  -11.7700   20.8250 C   0  0  0  0  0  0  0  0  0  0  0  0
  -26.2820  -13.0030   20.2580 N   0  0  0  0  0  0  0  0  0  0  0  0
  -25.9150  -11.7240   20.5290 N   0  0  0  0  0  0  0  0  0  0  0  0
  -23.8900  -10.5120   21.0200 C   0  0  0  0  0  0  0  0  0  0  0  0
  -24.3190   -9.5460   21.9590 C   0  0  0  0  0  3  0  0  0  0  0  0
  -23.5880   -8.3530   22.1420 C   0  0  0  0  0  3  0  0  0  0  0  0
  -22.4170   -8.1140   21.3840 C   0  0  0  0  0  0  0  0  0  0  0  0
  -22.0070   -9.0690   20.4360 C   0  0  0  0  0  3  0  0  0  0  0  0
  -22.7370  -10.2540   20.2520 C   0  0  0  0  0  3  0  0  0  0  0  0
  -21.6590   -6.9720   21.4760 O   0  0  0  0  0  0  0  0  0  0  0  0
  -21.6090   -6.2320   22.6300 C   0  0  0  0  0  0  0  0  0  0  0  0
  -21.1930   -6.7930   23.8570 C   0  0  0  0  0  3  0  0  0  0  0  0
  -21.0900   -5.9790   25.0040 C   0  0  0  0  0  3  0  0  0  0  0  0
  -21.3930   -4.6060   24.9230 C   0  0  0  0  0  0  0  0  0  0  0  0
  -21.8010   -4.0450   23.6990 C   0  0  0  0  0  3  0  0  0  0  0  0
  -21.9060   -4.8570   22.5560 C   0  0  0  0  0  0  0  0  0  0  0  0
  -22.2800   -4.3070   21.3760 F   0  0  0  0  0  0  0  0  0  0  0  0
  -21.2860   -3.8230   26.0210 F   0  0  0  0  0  0  0  0  0  0  0  0
  -22.7660  -13.6070   21.0970 C   0  0  0  0  0  0  0  0  0  0  0  0
  -22.0290  -12.9200   21.9620 N   0  0  0  0  0  0  0  0  0  0  0  0
  -22.3360  -14.6300   20.5640 O   0  0  0  0  0  0  0  0  0  0  0  0
  -22.3900  -12.0930   22.4130 H   0  0  0  0  0  0  0  0  0  0  0  0
  -21.0900  -13.2260   22.1770 H   0  0  0  0  0  0  0  0  0  0  0  0
  -25.4090  -15.2570   20.2820 N   0  0  0  0  0  0  0  0  0  0  0  0
  -24.6370  -15.9100   20.3610 H   0  0  0  0  0  0  0  0  0  0  0  0
  -26.2500  -15.6820   19.9120 H   0  0  0  0  0  0  0  0  0  0  0  0
  -28.6840  -22.7640   18.0900 C   0  0  0  0  0  1  0  0  0  0  0  0
  -28.8540  -22.7610   19.5520 N   0  0  0  0  0  0  0  0  0  0  0  0
  -29.2760  -24.1300   19.9800 C   0  0  0  0  0  2  0  0  0  0  0  0
  -28.1500  -25.2000   19.7470 C   0  0  0  0  0  2  0  0  0  0  0  0
  -28.3280  -26.5830   20.1700 O   0  0  0  0  0  0  0  0  0  0  0  0
  -24.5850  -31.8860   23.2480 C   0  0  0  0  0  0  0  0  0  0  0  0
  -27.1840  -27.3870   20.1420 C   0  0  0  0  0  0  0  0  0  0  0  0
  -23.3680  -30.4960   21.6110 C   0  0  0  0  0  3  0  0  0  0  0  0
  -24.8060  -28.9620   20.1730 C   0  0  0  0  0  0  0  0  0  0  0  0
  -25.9040  -30.8250   21.4100 C   0  0  0  0  0  2  0  0  0  0  0  0
  -25.9790  -29.4550   20.7610 C   0  0  0  0  0  0  0  0  0  0  0  0
  -27.1680  -28.6770   20.7420 C   0  0  0  0  0  3  0  0  0  0  0  0
  -25.9820  -26.9400   19.5350 C   0  0  0  0  0  3  0  0  0  0  0  0
  -24.8070  -27.7050   19.5570 C   0  0  0  0  0  3  0  0  0  0  0  0
  -23.5700  -29.8290   20.2270 C   0  0  0  0  0  2  0  0  0  0  0  0
  -24.6390  -31.0840   22.1460 N   0  0  0  0  0  0  0  0  0  0  0  0
  -23.5060  -32.1610   23.7910 O   0  0  0  0  0  0  0  0  0  0  0  0
  -22.7160  -29.4720   22.5680 C   0  0  0  0  0  0  0  0  0  0  0  0
  -21.3910  -29.2870   22.4420 N   0  0  0  0  0  0  0  0  0  0  0  0
  -23.3990  -28.8460   23.3830 O   0  0  0  0  0  0  0  0  0  0  0  0
  -20.8990  -29.8440   21.7560 H   0  0  0  0  0  0  0  0  0  0  0  0
  -18.0190  -28.0760   22.9290 C   0  0  0  0  0  0  0  0  0  0  0  0
  -20.5740  -28.3480   23.2130 C   0  0  0  0  0  3  0  0  0  0  0  0
  -20.6860  -26.9140   22.6460 C   0  0  0  0  0  2  0  0  0  0  0  0
  -19.5920  -26.5800   21.6280 C   0  0  0  0  0  2  0  0  0  0  0  0
  -18.2060  -26.7230   22.2630 C   0  0  0  0  0  2  0  0  0  0  0  0
  -19.1310  -28.8460   23.3610 C   0  0  0  0  0  0  0  0  0  0  0  0
  -18.9040  -30.1140   23.9400 C   0  0  0  0  0  3  0  0  0  0  0  0
  -17.5960  -30.6100   24.0960 C   0  0  0  0  0  3  0  0  0  0  0  0
  -16.4970  -29.8370   23.6800 C   0  0  0  0  0  3  0  0  0  0  0  0
  -16.7100  -28.5730   23.1020 C   0  0  0  0  0  3  0  0  0  0  0  0
  -25.8750  -32.5120   23.8610 C   0  0  0  0  0  3  0  0  0  0  0  0
  -25.5740  -33.9120   24.1900 N   0  0  0  0  0  0  0  0  0  0  0  0
  -25.9060  -34.9620   23.4280 C   0  0  0  0  0  0  0  0  0  0  0  0
  -26.5740  -34.8540   22.3950 O   0  0  0  0  0  0  0  0  0  0  0  0
  -24.9850  -34.0710   24.9940 H   0  0  0  0  0  0  0  0  0  0  0  0
  -24.1870  -36.7610   23.0720 C   0  0  0  0  0  1  0  0  0  0  0  0
  -25.4250  -36.3520   23.8840 C   0  0  0  0  0  3  0  0  0  0  0  0
  -27.5640  -37.2270   24.7160 C   0  0  0  0  0  1  0  0  0  0  0  0
  -26.4620  -37.4000   23.7720 N   0  0  0  0  0  0  0  0  0  0  0  0
  -26.0610  -38.3210   23.9200 H   0  0  0  0  0  0  0  0  0  0  0  0
  -26.3950  -31.7390   25.1350 C   0  0  1  0  0  0  0  0  0  0  0  0
  -25.3060  -31.5070   26.2080 C   0  0  0  0  0  1  0  0  0  0  0  0
  -26.9710  -30.3590   24.7400 C   0  0  0  0  0  1  0  0  0  0  0  0
  -27.5510  -32.5300   25.7900 C   0  0  0  0  0  1  0  0  0  0  0  0
  1  4  1  0
  1  3  1  0
  2  5  1  0
  3  8  1  0
  3  5  1  0
  4 50  1  0
  4  2  1  0
  5  7  1  0
  5  6  1  0
  8 10  1  0
  9  8  2  0
 11 19  1  0
 12 17  1  0
 13 14  1  0
 13 12  1  0
 15 14  1  0
 15 24  1  0
 15 16  1  0
 17 11  1  0
 17 16  1  0
 18 11  2  0
 19 20  1  0
 19 10  1  0
 21 22  2  0
 22 41  1  0
 23 22  1  0
 23 26  1  0
 24 21  1  0
 24 25  1  0
 25 23  2  0
 26 27  1  0
 27 28  2  0
 29 32  1  0
 29 28  1  0
 30 29  2  0
 31 30  1  0
 31 26  2  0
 32 33  1  0
 33 34  1  0
 34 35  2  0
 36 35  1  0
 36 40  1  0
 37 36  2  0
 38 33  2  0
 38 37  1  0
 39 38  1  0
 41 42  1  0
 42 45  1  0
 42 44  1  0
 43 41  2  0
 46 47  1  0
 46 21  1  0
 48 46  1  0
 49 50  1  0
 50 51  1  0
 52 51  1  0
 52 53  1  0
 54 65  2  0
 55 53  1  0
 55 60  1  0
 56 64  1  0
 56 66  1  0
 57 63  1  0
 57 59  1  0
 58 64  1  0
 59 58  1  0
 60 59  2  0
 61 62  1  0
 61 55  2  0
 62 57  2  0
 63 56  1  0
 64 54  1  0
 66 68  2  0
 67 66  1  0
 69 67  1  0
 70 79  2  0
 70 75  1  0
 71 67  1  0
 71 75  1  0
 72 71  1  0
 73 74  1  0
 73 72  1  0
 74 70  1  0
 75 76  2  0
 76 77  1  0
 78 77  2  0
 79 78  1  0
 80 54  1  0
 80 81  1  0
 80 90  1  0
 81 84  1  0
 82 86  1  0
 82 81  1  0
 83 82  2  0
 86 85  1  0
 88 86  1  0
 88 89  1  0
 88 87  1  0
 90 93  1  1
 90 91  1  0
 92 90  1  0
M  ISO  4  11 100  19 100  52 101  53 101
M  END
>  <TORSDO>  (47) 
F 21

>  <SCORE>  (47) 
-13.715

>  <name>  (47) 
46

>  <ligand_id>  (47) 
46

>  <original_smiles>  (47) 
[H]c1c([H])c([H])c2c(c1[H])C([H])([H])C([H])([H])C([H])([H])C2([H])N([H])C(=O)C1([H])N(C(=O)C([H])(N([H])C(=O)C([H])(N([H])C([H])([H])[H])C([H])([H])[H])C(C([H])([H])[H])(C([H])([H])[H])C([H])([H])[H])C([H])([H])c2c([H])c(OC([H])([H])C([H])([H])N(C([H])([H])[H])C3([H])C([H])([H])C([H])(C(=O)C([H])([H])N([H])C(=O)N4C([H])([H])C([H])([H])C([H])([H])C([H])(n5nc(-c6c([H])c([H])c(Oc7c([H])c([H])c(F)c([H])c7F)c([H])c6[H])c(C(=O)N([H])[H])c5N([H])[H])C4([H])[H])[N+]([H])([H])C3([H])[H])c([H])c([H])c2C1([H])[H]

>  <smiles>  (47) 
[H]c1c([H])c([H])c2c(c1[H])C([H])([H])C([H])([H])C([H])([H])C2([H])N([H])C(=O)C1([H])N(C(=O)C([H])(N([H])C(=O)C([H])(N([H])C([H])([H])[H])C([H])([H])[H])C(C([H])([H])[H])(C([H])([H])[H])C([H])([H])[H])C([H])([H])c2c([H])c(OC([H])([H])C([H])([H])N(C([H])([H])[H])C3([H])C([H])([H])C([H])(C(=O)C([H])([H])N([H])C(=O)N4C([H])([H])C([H])([H])C([H])([H])C([H])(n5nc(-c6c([H])c([H])c(Oc7c([H])c([H])c(F)c([H])c7F)c([H])c6[H])c(C(=O)N([H])[H])c5N([H])[H])C4([H])[H])[N+]([H])([H])C3([H])[H])c([H])c([H])c2C1([H])[H]

$$$$
47:0:0
     RDKit          3D

 93101  0  0  1  0  0  0  0  0999 V2000
  -29.4660  -23.5090   21.0680 C   0  0  0  0  0  0  0  0  0  0  0  0
  -29.5720  -22.1810   20.8470 N   0  0  0  0  0  0  0  0  0  0  0  0
  -30.3060  -24.1220   21.7300 O   0  0  0  0  0  0  0  0  0  0  0  0
  -28.8590  -21.7350   20.2870 H   0  0  0  0  0  0  0  0  0  0  0  0
  -30.6820  -21.3240   21.3090 C   0  0  0  0  0  2  0  0  0  0  0  0
  -31.4860  -18.9080   21.6500 C   0  0  0  0  0  3  0  0  0  0  0  0
  -31.3330  -17.5020   21.5410 C   0  0  0  0  0  3  0  0  0  0  0  0
  -29.3060  -19.2380   20.6600 C   0  0  0  0  0  3  0  0  0  0  0  0
  -30.4800  -19.7970   21.2000 C   0  0  0  0  0  0  0  0  0  0  0  0
  -29.1360  -17.8390   20.5660 C   0  0  0  0  0  0  0  0  0  0  0  0
  -30.1590  -16.9420   20.9810 C   0  0  0  0  0  0  0  0  0  0  0  0
  -27.8180  -17.3370   20.0200 C   0  0  0  0  0  1  0  0  0  0  0  0
  -30.6350  -14.5650   20.2640 C   0  0  0  0  0  0  0  0  0  0  0  0
  -30.3200  -12.4310   19.0290 C   0  0  0  0  0  2  0  0  0  0  0  0
  -29.3290  -12.6610   17.8670 C   0  0  0  0  0  2  0  0  0  0  0  0
  -27.8740  -12.4920   18.3390 C   0  0  0  0  0  2  0  0  0  0  0  0
  -27.5780  -13.2780   19.6430 C   0  0  0  0  0  3  0  0  0  0  0  0
  -28.6760  -13.0290   20.7040 C   0  0  0  0  0  2  0  0  0  0  0  0
  -29.9760  -13.3780   20.1050 N   0  0  0  0  0  0  0  0  0  0  0  0
  -31.7350  -14.7830   19.7460 O   0  0  0  0  0  0  0  0  0  0  0  0
  -29.9360  -15.5190   20.9250 N   0  0  0  0  0  0  0  0  0  0  0  0
  -29.0200  -15.2130   21.2140 H   0  0  0  0  0  0  0  0  0  0  0  0
  -25.1940  -13.8610   20.4130 C   0  0  0  0  0  0  0  0  0  0  0  0
  -24.1490  -13.0850   20.8290 C   0  0  0  0  0  0  0  0  0  0  0  0
  -24.6190  -11.7380   20.7780 C   0  0  0  0  0  0  0  0  0  0  0  0
  -26.2420  -12.9910   20.1600 N   0  0  0  0  0  0  0  0  0  0  0  0
  -25.9000  -11.7070   20.4280 N   0  0  0  0  0  0  0  0  0  0  0  0
  -23.9050  -10.4730   20.9830 C   0  0  0  0  0  0  0  0  0  0  0  0
  -24.3580   -9.5150   21.9170 C   0  0  0  0  0  3  0  0  0  0  0  0
  -23.6420   -8.3150   22.1120 C   0  0  0  0  0  3  0  0  0  0  0  0
  -22.4650   -8.0620   21.3700 C   0  0  0  0  0  0  0  0  0  0  0  0
  -22.0330   -9.0080   20.4250 C   0  0  0  0  0  3  0  0  0  0  0  0
  -22.7470  -10.2010   20.2290 C   0  0  0  0  0  3  0  0  0  0  0  0
  -21.7210   -6.9120   21.4710 O   0  0  0  0  0  0  0  0  0  0  0  0
  -21.6740   -6.1870   22.6350 C   0  0  0  0  0  0  0  0  0  0  0  0
  -21.2360   -6.7560   23.8500 C   0  0  0  0  0  3  0  0  0  0  0  0
  -21.1400   -5.9590   25.0080 C   0  0  0  0  0  3  0  0  0  0  0  0
  -21.4700   -4.5920   24.9500 C   0  0  0  0  0  0  0  0  0  0  0  0
  -21.9020   -4.0220   23.7390 C   0  0  0  0  0  3  0  0  0  0  0  0
  -22.0010   -4.8180   22.5850 C   0  0  0  0  0  0  0  0  0  0  0  0
  -22.3980   -4.2570   21.4150 F   0  0  0  0  0  0  0  0  0  0  0  0
  -21.3670   -3.8230   26.0590 F   0  0  0  0  0  0  0  0  0  0  0  0
  -22.7600  -13.5570   21.1470 C   0  0  0  0  0  0  0  0  0  0  0  0
  -22.0630  -12.8530   22.0320 N   0  0  0  0  0  0  0  0  0  0  0  0
  -22.3030  -14.5840   20.6490 O   0  0  0  0  0  0  0  0  0  0  0  0
  -22.4440  -12.0190   22.4540 H   0  0  0  0  0  0  0  0  0  0  0  0
  -21.1340  -13.1550   22.2910 H   0  0  0  0  0  0  0  0  0  0  0  0
  -25.3220  -15.2250   20.1990 N   0  0  0  0  0  0  0  0  0  0  0  0
  -24.4940  -15.8120   20.1950 H   0  0  0  0  0  0  0  0  0  0  0  0
  -26.0550  -15.5810   19.6030 H   0  0  0  0  0  0  0  0  0  0  0  0
  -28.2520  -24.2760   20.4870 C   0  0  0  0  0  2  0  0  0  0  0  0
  -28.6030  -25.4870   19.5700 C   0  0  0  0  0  2  0  0  0  0  0  0
  -28.4520  -26.7870   20.1750 O   0  0  0  0  0  0  0  0  0  0  0  0
  -24.5800  -31.9040   23.2360 C   0  0  0  0  0  0  0  0  0  0  0  0
  -27.2420  -27.4640   20.1560 C   0  0  0  0  0  0  0  0  0  0  0  0
  -23.3710  -30.5040   21.5890 C   0  0  0  0  0  3  0  0  0  0  0  0
  -24.8280  -28.9630   20.1720 C   0  0  0  0  0  0  0  0  0  0  0  0
  -25.8940  -30.8710   21.3830 C   0  0  0  0  0  2  0  0  0  0  0  0
  -25.9840  -29.4950   20.7520 C   0  0  0  0  0  0  0  0  0  0  0  0
  -27.1890  -28.7560   20.7360 C   0  0  0  0  0  3  0  0  0  0  0  0
  -26.0550  -26.9360   19.5940 C   0  0  0  0  0  3  0  0  0  0  0  0
  -24.8580  -27.6800   19.5950 C   0  0  0  0  0  3  0  0  0  0  0  0
  -23.5840  -29.8220   20.2110 C   0  0  0  0  0  2  0  0  0  0  0  0
  -24.6340  -31.1080   22.1290 N   0  0  0  0  0  0  0  0  0  0  0  0
  -23.4990  -32.1720   23.7780 O   0  0  0  0  0  0  0  0  0  0  0  0
  -22.7180  -29.4850   22.5520 C   0  0  0  0  0  0  0  0  0  0  0  0
  -21.3920  -29.3070   22.4320 N   0  0  0  0  0  0  0  0  0  0  0  0
  -23.4020  -28.8580   23.3660 O   0  0  0  0  0  0  0  0  0  0  0  0
  -20.9000  -29.8720   21.7520 H   0  0  0  0  0  0  0  0  0  0  0  0
  -18.0180  -28.1140   22.9430 C   0  0  0  0  0  0  0  0  0  0  0  0
  -20.5770  -28.3680   23.2020 C   0  0  0  0  0  3  0  0  0  0  0  0
  -20.6740  -26.9370   22.6240 C   0  0  0  0  0  2  0  0  0  0  0  0
  -19.5680  -26.6200   21.6130 C   0  0  0  0  0  2  0  0  0  0  0  0
  -18.1890  -26.7660   22.2600 C   0  0  0  0  0  2  0  0  0  0  0  0
  -19.1400  -28.8730   23.3710 C   0  0  0  0  0  0  0  0  0  0  0  0
  -18.9270  -30.1330   23.9680 C   0  0  0  0  0  3  0  0  0  0  0  0
  -17.6250  -30.6380   24.1390 C   0  0  0  0  0  3  0  0  0  0  0  0
  -16.5170  -29.8780   23.7250 C   0  0  0  0  0  3  0  0  0  0  0  0
  -16.7150  -28.6170   23.1350 C   0  0  0  0  0  3  0  0  0  0  0  0
  -25.8660  -32.5380   23.8550 C   0  0  0  0  0  3  0  0  0  0  0  0
  -26.3850  -31.7670   25.1310 C   0  0  1  0  0  0  0  0  0  0  0  0
  -25.2970  -31.5350   26.2050 C   0  0  0  0  0  1  0  0  0  0  0  0
  -26.9690  -30.3890   24.7390 C   0  0  0  0  0  1  0  0  0  0  0  0
  -27.5370  -32.5600   25.7930 C   0  0  0  0  0  1  0  0  0  0  0  0
  -25.5570  -33.9370   24.1810 N   0  0  0  0  0  0  0  0  0  0  0  0
  -25.8960  -34.9880   23.4210 C   0  0  0  0  0  0  0  0  0  0  0  0
  -26.5710  -34.8800   22.3930 O   0  0  0  0  0  0  0  0  0  0  0  0
  -24.9620  -34.0930   24.9800 H   0  0  0  0  0  0  0  0  0  0  0  0
  -24.1790  -36.7920   23.0460 C   0  0  0  0  0  1  0  0  0  0  0  0
  -25.4090  -36.3800   23.8710 C   0  0  0  0  0  3  0  0  0  0  0  0
  -27.5420  -37.2560   24.7180 C   0  0  0  0  0  1  0  0  0  0  0  0
  -26.4480  -37.4290   23.7660 N   0  0  0  0  0  0  0  0  0  0  0  0
  -26.0440  -38.3520   23.9100 H   0  0  0  0  0  0  0  0  0  0  0  0
  1  3  2  0
  2  1  1  0
  2  5  1  0
  4  2  1  0
  7  6  1  0
  8  9  1  0
  9  5  1  0
  9  6  2  0
 10  8  2  0
 10 11  1  0
 11  7  2  0
 12 10  1  0
 13 21  1  0
 14 19  1  0
 15 16  1  0
 15 14  1  0
 17 16  1  0
 17 26  1  0
 17 18  1  0
 19 13  1  0
 19 18  1  0
 20 13  2  0
 21 11  1  0
 21 22  1  0
 23 24  2  0
 24 43  1  0
 25 24  1  0
 25 28  1  0
 26 23  1  0
 26 27  1  0
 27 25  2  0
 28 29  1  0
 29 30  2  0
 31 34  1  0
 31 30  1  0
 32 31  2  0
 33 32  1  0
 33 28  2  0
 34 35  1  0
 35 36  1  0
 36 37  2  0
 38 37  1  0
 38 42  1  0
 39 38  2  0
 40 35  2  0
 40 39  1  0
 41 40  1  0
 43 44  1  0
 44 47  1  0
 44 46  1  0
 45 43  2  0
 48 23  1  0
 49 48  1  0
 50 48  1  0
 51  1  1  0
 52 53  1  0
 52 51  1  0
 54 65  2  0
 55 53  1  0
 55 60  1  0
 56 64  1  0
 56 66  1  0
 57 63  1  0
 57 59  1  0
 58 64  1  0
 59 58  1  0
 60 59  2  0
 61 62  1  0
 61 55  2  0
 62 57  2  0
 63 56  1  0
 64 54  1  0
 66 68  2  0
 67 66  1  0
 69 67  1  0
 70 79  2  0
 70 75  1  0
 71 67  1  0
 71 75  1  0
 72 71  1  0
 73 74  1  0
 73 72  1  0
 74 70  1  0
 75 76  2  0
 76 77  1  0
 78 77  2  0
 79 78  1  0
 80 54  1  0
 80 85  1  0
 80 81  1  0
 81 84  1  1
 81 82  1  0
 83 81  1  0
 85 88  1  0
 86 90  1  0
 86 85  1  0
 87 86  2  0
 90 89  1  0
 92 90  1  0
 92 93  1  0
 92 91  1  0
M  ISO  4  13 100  21 100  52 101  53 101
M  END
>  <TORSDO>  (48) 
F 20

>  <SCORE>  (48) 
-14.260

>  <name>  (48) 
47

>  <ligand_id>  (48) 
47

>  <original_smiles>  (48) 
[H]c1c([H])c([H])c2c(c1[H])C([H])([H])C([H])([H])C([H])([H])C2([H])N([H])C(=O)C1([H])N(C(=O)C([H])(N([H])C(=O)C([H])(N([H])C([H])([H])[H])C([H])([H])[H])C(C([H])([H])[H])(C([H])([H])[H])C([H])([H])[H])C([H])([H])c2c([H])c(OC([H])([H])C([H])([H])C(=O)N([H])C([H])([H])c3c([H])c([H])c(N([H])C(=O)N4C([H])([H])C([H])([H])C([H])([H])C([H])(n5nc(-c6c([H])c([H])c(Oc7c([H])c([H])c(F)c([H])c7F)c([H])c6[H])c(C(=O)N([H])[H])c5N([H])[H])C4([H])[H])c(C([H])([H])[H])c3[H])c([H])c([H])c2C1([H])[H]

>  <smiles>  (48) 
[H]c1c([H])c([H])c2c(c1[H])C([H])([H])C([H])([H])C([H])([H])C2([H])N([H])C(=O)C1([H])N(C(=O)C([H])(N([H])C(=O)C([H])(N([H])C([H])([H])[H])C([H])([H])[H])C(C([H])([H])[H])(C([H])([H])[H])C([H])([H])[H])C([H])([H])c2c([H])c(OC([H])([H])C([H])([H])C(=O)N([H])C([H])([H])c3c([H])c([H])c(N([H])C(=O)N4C([H])([H])C([H])([H])C([H])([H])C([H])(n5nc(-c6c([H])c([H])c(Oc7c([H])c([H])c(F)c([H])c7F)c([H])c6[H])c(C(=O)N([H])[H])c5N([H])[H])C4([H])[H])c(C([H])([H])[H])c3[H])c([H])c([H])c2C1([H])[H]

$$$$
48:0:0
     RDKit          3D

 95104  0  0  1  0  0  0  0  0999 V2000
  -28.3410  -20.8670   20.9340 C   0  0  0  0  0  3  0  0  0  0  0  0
  -29.7040  -22.7660   19.4430 C   0  0  0  0  0  3  0  0  0  0  0  0
  -29.4840  -20.3380   20.2450 C   0  0  0  0  0  0  0  0  0  0  0  0
  -28.5760  -23.2930   20.1530 C   0  0  0  0  0  0  0  0  0  0  0  0
  -27.9090  -22.2490   20.8880 C   0  0  0  0  0  0  0  0  0  0  0  0
  -30.1390  -21.3760   19.4910 C   0  0  0  0  0  0  0  0  0  0  0  0
  -26.7740  -22.5570   21.5600 F   0  0  0  0  0  0  0  0  0  0  0  0
  -31.2340  -21.0360   18.7720 F   0  0  0  0  0  0  0  0  0  0  0  0
  -30.7880  -14.9840   19.8960 C   0  0  0  0  0  0  0  0  0  0  0  0
  -30.5480  -12.6650   18.9170 C   0  0  0  0  0  2  0  0  0  0  0  0
  -29.4980  -12.6660   17.7830 C   0  0  0  0  0  2  0  0  0  0  0  0
  -28.0880  -12.4420   18.3590 C   0  0  0  0  0  2  0  0  0  0  0  0
  -27.8020  -13.3470   19.5880 C   0  0  0  0  0  3  0  0  0  0  0  0
  -28.9620  -13.3290   20.6040 C   0  0  0  0  0  2  0  0  0  0  0  0
  -30.1760  -13.7350   19.8860 N   0  0  0  0  0  0  0  0  0  0  0  0
  -31.9100  -15.0800   19.3840 O   0  0  0  0  0  0  0  0  0  0  0  0
  -29.8780  -17.4930   19.5230 C   0  0  0  0  0  2  0  0  0  0  0  0
  -30.2350  -16.6220   21.6690 C   0  0  0  0  0  2  0  0  0  0  0  0
  -30.0870  -18.8120   20.4540 C   0  0  0  0  0  3  0  0  0  0  0  0
  -29.7780  -18.1130   21.7900 C   0  0  0  0  0  3  0  0  0  0  0  0
  -30.0820  -16.1540   20.2800 N   0  0  0  0  0  0  0  0  0  0  0  0
  -25.5350  -13.9000   20.6390 C   0  0  0  0  0  0  0  0  0  0  0  0
  -24.4990  -13.1140   21.0590 C   0  0  0  0  0  0  0  0  0  0  0  0
  -24.9220  -11.7630   20.8630 C   0  0  0  0  0  0  0  0  0  0  0  0
  -26.5210  -13.0300   20.2070 N   0  0  0  0  0  0  0  0  0  0  0  0
  -26.1680  -11.7330   20.4060 N   0  0  0  0  0  0  0  0  0  0  0  0
  -24.1890  -10.4990   21.0270 C   0  0  0  0  0  0  0  0  0  0  0  0
  -24.6300   -9.4990   21.9220 C   0  0  0  0  0  3  0  0  0  0  0  0
  -23.8960   -8.3030   22.0770 C   0  0  0  0  0  3  0  0  0  0  0  0
  -22.7070   -8.0980   21.3390 C   0  0  0  0  0  0  0  0  0  0  0  0
  -22.2840   -9.0870   20.4350 C   0  0  0  0  0  3  0  0  0  0  0  0
  -23.0170  -10.2750   20.2770 C   0  0  0  0  0  3  0  0  0  0  0  0
  -21.9450   -6.9590   21.4060 O   0  0  0  0  0  0  0  0  0  0  0  0
  -21.8120   -6.2500   22.5730 C   0  0  0  0  0  0  0  0  0  0  0  0
  -21.2890   -6.8360   23.7460 C   0  0  0  0  0  3  0  0  0  0  0  0
  -21.1050   -6.0510   24.9020 C   0  0  0  0  0  3  0  0  0  0  0  0
  -21.4330   -4.6830   24.8870 C   0  0  0  0  0  0  0  0  0  0  0  0
  -21.9470   -4.0970   23.7160 C   0  0  0  0  0  3  0  0  0  0  0  0
  -22.1320   -4.8770   22.5620 C   0  0  0  0  0  0  0  0  0  0  0  0
  -22.6090   -4.3010   21.4320 F   0  0  0  0  0  0  0  0  0  0  0  0
  -21.2470   -3.9280   25.9950 F   0  0  0  0  0  0  0  0  0  0  0  0
  -23.1530  -13.5880   21.5260 C   0  0  0  0  0  0  0  0  0  0  0  0
  -22.5180  -12.8440   22.4240 N   0  0  0  0  0  0  0  0  0  0  0  0
  -22.6780  -14.6520   21.1280 O   0  0  0  0  0  0  0  0  0  0  0  0
  -22.9170  -11.9820   22.7660 H   0  0  0  0  0  0  0  0  0  0  0  0
  -21.6200  -13.1440   22.7780 H   0  0  0  0  0  0  0  0  0  0  0  0
  -25.7160  -15.2780   20.5630 N   0  0  0  0  0  0  0  0  0  0  0  0
  -24.9880  -15.9330   20.8230 H   0  0  0  0  0  0  0  0  0  0  0  0
  -26.5430  -15.7280   20.1910 H   0  0  0  0  0  0  0  0  0  0  0  0
  -30.3530  -18.7890   22.9690 N   0  0  0  0  0  4  0  0  0  0  0  0
  -31.3520  -18.6920   22.9880 H   0  0  0  0  0  0  0  0  0  0  0  0
  -29.9820  -18.3930   23.8170 H   0  0  0  0  0  0  0  0  0  0  0  0
  -30.1380  -19.7690   22.9650 H   0  0  0  0  0  0  0  0  0  0  0  0
  -27.8630  -24.7520   19.9010 C   0  0  0  0  0  2  0  0  0  0  0  0
  -28.2880  -26.2020   20.2430 O   0  0  0  0  0  0  0  0  0  0  0  0
  -24.7110  -31.8870   23.2630 C   0  0  0  0  0  0  0  0  0  0  0  0
  -27.2770  -27.2290   20.1550 C   0  0  0  0  0  0  0  0  0  0  0  0
  -23.5140  -30.5170   21.6050 C   0  0  0  0  0  3  0  0  0  0  0  0
  -24.9610  -28.9860   20.1440 C   0  0  0  0  0  0  0  0  0  0  0  0
  -26.0700  -30.7860   21.4490 C   0  0  0  0  0  2  0  0  0  0  0  0
  -26.1410  -29.4070   20.7730 C   0  0  0  0  0  0  0  0  0  0  0  0
  -27.2980  -28.5420   20.7730 C   0  0  0  0  0  3  0  0  0  0  0  0
  -26.0800  -26.9330   19.4570 C   0  0  0  0  0  3  0  0  0  0  0  0
  -24.9430  -27.7590   19.4700 C   0  0  0  0  0  3  0  0  0  0  0  0
  -23.7360  -29.8800   20.2110 C   0  0  0  0  0  2  0  0  0  0  0  0
  -24.7860  -31.0840   22.1590 N   0  0  0  0  0  0  0  0  0  0  0  0
  -23.6230  -32.1630   23.7920 O   0  0  0  0  0  0  0  0  0  0  0  0
  -22.8370  -29.4870   22.5460 C   0  0  0  0  0  0  0  0  0  0  0  0
  -21.5150  -29.2960   22.3940 N   0  0  0  0  0  0  0  0  0  0  0  0
  -23.5060  -28.8690   23.3770 O   0  0  0  0  0  0  0  0  0  0  0  0
  -21.0370  -29.8540   21.7020 H   0  0  0  0  0  0  0  0  0  0  0  0
  -18.1430  -28.0400   22.8210 C   0  0  0  0  0  0  0  0  0  0  0  0
  -20.6910  -28.3460   23.1440 C   0  0  0  0  0  3  0  0  0  0  0  0
  -20.8300  -26.9160   22.5710 C   0  0  0  0  0  2  0  0  0  0  0  0
  -19.7550  -26.5770   21.5330 C   0  0  0  0  0  2  0  0  0  0  0  0
  -18.3560  -26.6950   22.1470 C   0  0  0  0  0  2  0  0  0  0  0  0
  -19.2390  -28.8220   23.2720 C   0  0  0  0  0  0  0  0  0  0  0  0
  -18.9840  -30.0780   23.8630 C   0  0  0  0  0  3  0  0  0  0  0  0
  -17.6670  -30.5550   24.0060 C   0  0  0  0  0  3  0  0  0  0  0  0
  -16.5850  -29.7720   23.5680 C   0  0  0  0  0  3  0  0  0  0  0  0
  -16.8230  -28.5160   22.9820 C   0  0  0  0  0  3  0  0  0  0  0  0
  -25.9880  -32.5140   23.8990 C   0  0  0  0  0  3  0  0  0  0  0  0
  -26.4800  -31.7410   25.1830 C   0  0  1  0  0  0  0  0  0  0  0  0
  -25.3670  -31.5000   26.2320 C   0  0  0  0  0  1  0  0  0  0  0  0
  -27.0700  -30.3650   24.8030 C   0  0  0  0  0  1  0  0  0  0  0  0
  -27.6200  -32.5340   25.8620 C   0  0  0  0  0  1  0  0  0  0  0  0
  -25.6780  -33.9150   24.2300 N   0  0  0  0  0  0  0  0  0  0  0  0
  -25.9900  -34.9690   23.4620 C   0  0  0  0  0  0  0  0  0  0  0  0
  -26.6370  -34.8620   22.4150 O   0  0  0  0  0  0  0  0  0  0  0  0
  -25.1020  -34.0700   25.0430 H   0  0  0  0  0  0  0  0  0  0  0  0
  -24.2390  -36.7500   23.1630 C   0  0  0  0  0  1  0  0  0  0  0  0
  -25.5150  -36.3590   23.9250 C   0  0  0  0  0  3  0  0  0  0  0  0
  -27.6750  -37.2630   24.6630 C   0  0  0  0  0  1  0  0  0  0  0  0
  -26.5370  -37.4160   23.7600 N   0  0  0  0  0  0  0  0  0  0  0  0
  -26.1340  -38.3360   23.9140 H   0  0  0  0  0  0  0  0  0  0  0  0
  2  6  2  0
  2  4  1  0
  3  1  2  0
  4  5  2  0
  5  1  1  0
  5  7  1  0
  6  3  1  0
  8  6  1  0
  9 21  1  0
 10 15  1  0
 11 12  1  0
 11 10  1  0
 13 12  1  0
 13 25  1  0
 13 14  1  0
 15  9  1  0
 15 14  1  0
 16  9  2  0
 17 21  1  0
 17 19  1  0
 18 20  1  0
 19  3  1  0
 19 20  1  0
 20 50  1  0
 21 18  1  0
 22 23  2  0
 23 42  1  0
 24 27  1  0
 24 23  1  0
 25 26  1  0
 25 22  1  0
 26 24  2  0
 27 28  1  0
 28 29  2  0
 30 33  1  0
 30 29  1  0
 31 30  2  0
 32 31  1  0
 32 27  2  0
 33 34  1  0
 34 35  1  0
 35 36  2  0
 37 36  1  0
 37 41  1  0
 38 37  2  0
 39 34  2  0
 39 38  1  0
 40 39  1  0
 42 43  1  0
 43 45  1  0
 43 46  1  0
 44 42  2  0
 47 22  1  0
 47 48  1  0
 49 47  1  0
 50 51  1  0
 50 52  1  0
 53 50  1  0
 54  4  1  0
 54 55  1  0
 56 67  2  0
 57 55  1  0
 57 62  1  0
 58 66  1  0
 58 68  1  0
 59 65  1  0
 59 61  1  0
 60 66  1  0
 61 62  2  0
 61 60  1  0
 63 64  1  0
 63 57  2  0
 64 59  2  0
 65 58  1  0
 66 56  1  0
 68 70  2  0
 69 68  1  0
 71 69  1  0
 72 81  2  0
 72 77  1  0
 73 69  1  0
 73 77  1  0
 74 73  1  0
 75 76  1  0
 75 74  1  0
 76 72  1  0
 77 78  2  0
 78 79  1  0
 80 79  2  0
 81 80  1  0
 82 56  1  0
 82 87  1  0
 82 83  1  0
 83 86  1  1
 83 84  1  0
 85 83  1  0
 87 90  1  0
 88 92  1  0
 88 87  1  0
 89 88  2  0
 92 91  1  0
 94 95  1  0
 94 92  1  0
 94 93  1  0
M  ISO  4   9 100  21 100  54 101  55 101
M  END
>  <TORSDO>  (49) 
F 18

>  <SCORE>  (49) 
-13.833

>  <name>  (49) 
48

>  <ligand_id>  (49) 
48

>  <original_smiles>  (49) 
[H]c1c([H])c([H])c2c(c1[H])C([H])([H])C([H])([H])C([H])([H])C2([H])N([H])C(=O)C1([H])N(C(=O)C([H])(N([H])C(=O)C([H])(N([H])C([H])([H])[H])C([H])([H])[H])C(C([H])([H])[H])(C([H])([H])[H])C([H])([H])[H])C([H])([H])c2c([H])c(OC([H])([H])c3c([H])c(F)c(C4([H])C([H])([H])N(C(=O)N5C([H])([H])C([H])([H])C([H])([H])C([H])(n6nc(-c7c([H])c([H])c(Oc8c([H])c([H])c(F)c([H])c8F)c([H])c7[H])c(C(=O)N([H])[H])c6N([H])[H])C5([H])[H])C([H])([H])C4([H])[N+]([H])([H])[H])c([H])c3F)c([H])c([H])c2C1([H])[H]

>  <smiles>  (49) 
[H]c1c([H])c([H])c2c(c1[H])C([H])([H])C([H])([H])C([H])([H])C2([H])N([H])C(=O)C1([H])N(C(=O)C([H])(N([H])C(=O)C([H])(N([H])C([H])([H])[H])C([H])([H])[H])C(C([H])([H])[H])(C([H])([H])[H])C([H])([H])[H])C([H])([H])c2c([H])c(OC([H])([H])c3c([H])c(F)c(C4([H])C([H])([H])N(C(=O)N5C([H])([H])C([H])([H])C([H])([H])C([H])(n6nc(-c7c([H])c([H])c(Oc8c([H])c([H])c(F)c([H])c8F)c([H])c7[H])c(C(=O)N([H])[H])c6N([H])[H])C5([H])[H])C([H])([H])C4([H])[N+]([H])([H])[H])c([H])c3F)c([H])c([H])c2C1([H])[H]

$$$$
49:0:0
     RDKit          3D

 97105  0  0  1  0  0  0  0  0999 V2000
  -29.9790  -21.6160   20.0170 C   0  0  0  0  0  3  0  0  0  0  0  0
  -29.5310  -20.1470   20.3730 C   0  0  0  0  0  0  0  0  0  0  0  0
  -31.6740  -18.7910   23.0910 C   0  0  0  0  0  2  0  0  0  0  0  0
  -30.5170  -17.8020   23.0020 C   0  0  0  0  0  2  0  0  0  0  0  0
  -31.2990  -19.9120   22.1180 C   0  0  0  0  0  2  0  0  0  0  0  0
  -29.9870  -17.9400   21.5630 C   0  0  0  0  0  3  0  0  0  0  0  0
  -30.2480  -19.3780   21.2430 N   0  0  0  0  0  0  0  0  0  0  0  0
  -28.5170  -19.6980   19.8320 O   0  0  0  0  0  0  0  0  0  0  0  0
  -31.0140  -14.5580   20.1010 C   0  0  0  0  0  0  0  0  0  0  0  0
  -30.5770  -12.4350   18.9140 C   0  0  0  0  0  2  0  0  0  0  0  0
  -29.5940  -12.7400   17.7640 C   0  0  0  0  0  2  0  0  0  0  0  0
  -28.1360  -12.6310   18.2550 C   0  0  0  0  0  2  0  0  0  0  0  0
  -27.8900  -13.3900   19.5870 C   0  0  0  0  0  3  0  0  0  0  0  0
  -29.0030  -13.1080   20.6240 C   0  0  0  0  0  2  0  0  0  0  0  0
  -30.3020  -13.3980   19.9970 N   0  0  0  0  0  0  0  0  0  0  0  0
  -32.1330  -14.6570   19.5860 O   0  0  0  0  0  0  0  0  0  0  0  0
  -30.7360  -16.9310   20.6320 C   0  0  0  0  0  0  0  0  0  0  0  0
  -30.3770  -15.6160   20.6730 N   0  0  0  0  0  0  0  0  0  0  0  0
  -31.6320  -17.3780   19.9040 O   0  0  0  0  0  0  0  0  0  0  0  0
  -29.5360  -15.3970   21.1850 H   0  0  0  0  0  0  0  0  0  0  0  0
  -25.5390  -13.9940   20.4360 C   0  0  0  0  0  0  0  0  0  0  0  0
  -24.4840  -13.2220   20.8420 C   0  0  0  0  0  0  0  0  0  0  0  0
  -24.9260  -11.8670   20.7460 C   0  0  0  0  0  0  0  0  0  0  0  0
  -26.5620  -13.1100   20.1270 N   0  0  0  0  0  0  0  0  0  0  0  0
  -26.1990  -11.8230   20.3710 N   0  0  0  0  0  0  0  0  0  0  0  0
  -24.1910  -10.6090   20.9400 C   0  0  0  0  0  0  0  0  0  0  0  0
  -24.6160   -9.6420   21.8780 C   0  0  0  0  0  3  0  0  0  0  0  0
  -23.8830   -8.4500   22.0600 C   0  0  0  0  0  3  0  0  0  0  0  0
  -22.7080   -8.2170   21.3030 C   0  0  0  0  0  0  0  0  0  0  0  0
  -22.3010   -9.1720   20.3540 C   0  0  0  0  0  3  0  0  0  0  0  0
  -23.0370  -10.3550   20.1710 C   0  0  0  0  0  3  0  0  0  0  0  0
  -21.9490   -7.0750   21.3930 O   0  0  0  0  0  0  0  0  0  0  0  0
  -21.8420   -6.3710   22.5640 C   0  0  0  0  0  0  0  0  0  0  0  0
  -21.3600   -6.9650   23.7510 C   0  0  0  0  0  3  0  0  0  0  0  0
  -21.2020   -6.1870   24.9140 C   0  0  0  0  0  3  0  0  0  0  0  0
  -21.5170   -4.8140   24.8930 C   0  0  0  0  0  0  0  0  0  0  0  0
  -21.9910   -4.2190   23.7100 C   0  0  0  0  0  3  0  0  0  0  0  0
  -22.1490   -4.9950   22.5490 C   0  0  0  0  0  0  0  0  0  0  0  0
  -22.5880   -4.4120   21.4070 F   0  0  0  0  0  0  0  0  0  0  0  0
  -21.3570   -4.0650   26.0080 F   0  0  0  0  0  0  0  0  0  0  0  0
  -23.1090  -13.7100   21.1980 C   0  0  0  0  0  0  0  0  0  0  0  0
  -22.4280  -13.0170   22.1020 N   0  0  0  0  0  0  0  0  0  0  0  0
  -22.6480  -14.7410   20.7090 O   0  0  0  0  0  0  0  0  0  0  0  0
  -22.8080  -12.1770   22.5150 H   0  0  0  0  0  0  0  0  0  0  0  0
  -21.5090  -13.3300   22.3880 H   0  0  0  0  0  0  0  0  0  0  0  0
  -25.7110  -15.3660   20.2860 N   0  0  0  0  0  0  0  0  0  0  0  0
  -24.9490  -16.0190   20.4430 H   0  0  0  0  0  0  0  0  0  0  0  0
  -26.5290  -15.8050   19.8850 H   0  0  0  0  0  0  0  0  0  0  0  0
  -29.4430  -21.8000   17.4430 C   0  0  0  0  0  1  0  0  0  0  0  0
  -31.5740  -20.6540   18.1850 C   0  0  0  0  0  1  0  0  0  0  0  0
  -30.5270  -21.7260   18.5480 C   0  0  0  0  0  3  0  0  0  0  0  0
  -28.8890  -22.6180   20.2650 N   0  0  0  0  0  4  0  0  0  0  0  0
  -28.1990  -22.4760   19.5440 H   0  0  0  0  0  0  0  0  0  0  0  0
  -28.4420  -22.3530   21.1300 H   0  0  0  0  0  0  0  0  0  0  0  0
  -29.2820  -24.0750   20.3710 C   0  0  0  0  0  2  0  0  0  0  0  0
  -28.1240  -25.0650   20.0420 C   0  0  0  0  0  2  0  0  0  0  0  0
  -28.3590  -26.4940   20.2360 O   0  0  0  0  0  0  0  0  0  0  0  0
  -24.5680  -31.8310   23.1730 C   0  0  0  0  0  0  0  0  0  0  0  0
  -27.2250  -27.3020   20.1750 C   0  0  0  0  0  0  0  0  0  0  0  0
  -23.3840  -30.4140   21.5390 C   0  0  0  0  0  3  0  0  0  0  0  0
  -24.8490  -28.8710   20.1420 C   0  0  0  0  0  0  0  0  0  0  0  0
  -25.9190  -30.7560   21.3660 C   0  0  0  0  0  2  0  0  0  0  0  0
  -26.0110  -29.3760   20.7410 C   0  0  0  0  0  0  0  0  0  0  0  0
  -27.2020  -28.6010   20.7560 C   0  0  0  0  0  3  0  0  0  0  0  0
  -26.0370  -26.8430   19.5550 C   0  0  0  0  0  3  0  0  0  0  0  0
  -24.8610  -27.6050   19.5450 C   0  0  0  0  0  3  0  0  0  0  0  0
  -23.6080  -29.7330   20.1660 C   0  0  0  0  0  2  0  0  0  0  0  0
  -24.6430  -31.0140   22.0850 N   0  0  0  0  0  0  0  0  0  0  0  0
  -23.4780  -32.1070   23.6960 O   0  0  0  0  0  0  0  0  0  0  0  0
  -22.7230  -29.3960   22.4960 C   0  0  0  0  0  0  0  0  0  0  0  0
  -21.3980  -29.2220   22.3660 N   0  0  0  0  0  0  0  0  0  0  0  0
  -23.4000  -28.7670   23.3140 O   0  0  0  0  0  0  0  0  0  0  0  0
  -20.9110  -29.7810   21.6800 H   0  0  0  0  0  0  0  0  0  0  0  0
  -18.0110  -28.0580   22.8640 C   0  0  0  0  0  0  0  0  0  0  0  0
  -20.5720  -28.2940   23.1390 C   0  0  0  0  0  3  0  0  0  0  0  0
  -20.6620  -26.8590   22.5680 C   0  0  0  0  0  2  0  0  0  0  0  0
  -19.5590  -26.5430   21.5540 C   0  0  0  0  0  2  0  0  0  0  0  0
  -18.1770  -26.7040   22.1950 C   0  0  0  0  0  2  0  0  0  0  0  0
  -19.1360  -28.8100   23.2920 C   0  0  0  0  0  0  0  0  0  0  0  0
  -18.9280  -30.0790   23.8770 C   0  0  0  0  0  3  0  0  0  0  0  0
  -17.6280  -30.5920   24.0410 C   0  0  0  0  0  3  0  0  0  0  0  0
  -16.5170  -29.8360   23.6280 C   0  0  0  0  0  3  0  0  0  0  0  0
  -16.7100  -28.5720   23.0440 C   0  0  0  0  0  3  0  0  0  0  0  0
  -25.8440  -32.4740   23.8000 C   0  0  0  0  0  3  0  0  0  0  0  0
  -25.5180  -33.8640   24.1450 N   0  0  0  0  0  0  0  0  0  0  0  0
  -25.8500  -34.9290   23.4050 C   0  0  0  0  0  0  0  0  0  0  0  0
  -26.5360  -34.8470   22.3820 O   0  0  0  0  0  0  0  0  0  0  0  0
  -24.9120  -34.0010   24.9420 H   0  0  0  0  0  0  0  0  0  0  0  0
  -24.1210  -36.7160   23.0300 C   0  0  0  0  0  1  0  0  0  0  0  0
  -25.3400  -36.3050   23.8710 C   0  0  0  0  0  3  0  0  0  0  0  0
  -27.4390  -37.1880   24.7860 C   0  0  0  0  0  1  0  0  0  0  0  0
  -26.3680  -37.3680   23.8090 N   0  0  0  0  0  0  0  0  0  0  0  0
  -25.9510  -38.2810   23.9620 H   0  0  0  0  0  0  0  0  0  0  0  0
  -26.3710  -31.6930   25.0660 C   0  0  1  0  0  0  0  0  0  0  0  0
  -25.2810  -31.4250   26.1290 C   0  0  0  0  0  1  0  0  0  0  0  0
  -26.9760  -30.3310   24.6510 C   0  0  0  0  0  1  0  0  0  0  0  0
  -27.5100  -32.4940   25.7390 C   0  0  0  0  0  1  0  0  0  0  0  0
  1 51  1  0
  1 52  1  0
  1  2  1  0
  2  7  1  0
  4  3  1  0
  5  3  1  0
  6 17  1  0
  6  4  1  0
  7  6  1  0
  7  5  1  0
  8  2  2  0
  9 18  1  0
 10 15  1  0
 11 12  1  0
 11 10  1  0
 13 12  1  0
 13 24  1  0
 13 14  1  0
 15  9  1  0
 15 14  1  0
 16  9  2  0
 17 18  1  0
 18 20  1  0
 19 17  2  0
 21 22  2  0
 22 41  1  0
 23 22  1  0
 23 26  1  0
 24 25  1  0
 24 21  1  0
 25 23  2  0
 26 27  1  0
 27 28  2  0
 29 32  1  0
 29 28  1  0
 30 29  2  0
 31 30  1  0
 31 26  2  0
 32 33  1  0
 33 34  1  0
 34 35  2  0
 36 35  1  0
 36 40  1  0
 37 36  2  0
 38 33  2  0
 38 37  1  0
 39 38  1  0
 41 42  1  0
 42 45  1  0
 42 44  1  0
 43 41  2  0
 46 21  1  0
 46 47  1  0
 48 46  1  0
 49 51  1  0
 50 51  1  0
 52 55  1  0
 52 54  1  0
 53 52  1  0
 56 57  1  0
 56 55  1  0
 58 69  2  0
 59 57  1  0
 59 64  1  0
 60 68  1  0
 60 70  1  0
 61 67  1  0
 61 63  1  0
 62 68  1  0
 63 64  2  0
 63 62  1  0
 65 59  2  0
 66 65  1  0
 66 61  2  0
 67 60  1  0
 68 58  1  0
 70 72  2  0
 71 70  1  0
 73 71  1  0
 74 83  2  0
 74 79  1  0
 75 71  1  0
 75 79  1  0
 76 75  1  0
 77 78  1  0
 77 76  1  0
 78 74  1  0
 79 80  2  0
 80 81  1  0
 82 81  2  0
 83 82  1  0
 84 58  1  0
 84 85  1  0
 84 94  1  0
 85 88  1  0
 86 90  1  0
 86 85  1  0
 87 86  2  0
 90 89  1  0
 92 90  1  0
 92 93  1  0
 92 91  1  0
 94 97  1  1
 94 95  1  0
 96 94  1  0
M  ISO  4   9 100  18 100  56 101  57 101
M  END
>  <TORSDO>  (50) 
F 21

>  <SCORE>  (50) 
-12.829

>  <name>  (50) 
49

>  <ligand_id>  (50) 
49

>  <original_smiles>  (50) 
[H]c1c([H])c([H])c2c(c1[H])C([H])([H])C([H])([H])C([H])([H])C2([H])N([H])C(=O)C1([H])N(C(=O)C([H])(N([H])C(=O)C([H])(N([H])C([H])([H])[H])C([H])([H])[H])C(C([H])([H])[H])(C([H])([H])[H])C([H])([H])[H])C([H])([H])c2c([H])c(OC([H])([H])C([H])([H])[N+]([H])([H])C([H])(C(=O)N3C([H])([H])C([H])([H])C([H])([H])C3([H])C(=O)N([H])C(=O)N3C([H])([H])C([H])([H])C([H])([H])C([H])(n4nc(-c5c([H])c([H])c(Oc6c([H])c([H])c(F)c([H])c6F)c([H])c5[H])c(C(=O)N([H])[H])c4N([H])[H])C3([H])[H])C([H])(C([H])([H])[H])C([H])([H])[H])c([H])c([H])c2C1([H])[H]

>  <smiles>  (50) 
[H]c1c([H])c([H])c2c(c1[H])C([H])([H])C([H])([H])C([H])([H])C2([H])N([H])C(=O)C1([H])N(C(=O)C([H])(N([H])C(=O)C([H])(N([H])C([H])([H])[H])C([H])([H])[H])C(C([H])([H])[H])(C([H])([H])[H])C([H])([H])[H])C([H])([H])c2c([H])c(OC([H])([H])C([H])([H])[N+]([H])([H])C([H])(C(=O)N3C([H])([H])C([H])([H])C([H])([H])C3([H])C(=O)N([H])C(=O)N3C([H])([H])C([H])([H])C([H])([H])C([H])(n4nc(-c5c([H])c([H])c(Oc6c([H])c([H])c(F)c([H])c6F)c([H])c5[H])c(C(=O)N([H])[H])c4N([H])[H])C3([H])[H])C([H])(C([H])([H])[H])C([H])([H])[H])c([H])c([H])c2C1([H])[H]

$$$$
50:0:0
     RDKit          3D

100108  0  0  1  0  0  0  0  0999 V2000
  -30.6450  -20.9970   23.5410 C   0  0  0  0  0  0  0  0  0  0  0  0
  -29.9390  -22.0090   23.0230 N   0  0  0  0  0  0  0  0  0  0  0  0
  -30.8250  -20.8460   24.7510 O   0  0  0  0  0  0  0  0  0  0  0  0
  -29.8980  -22.0520   22.0160 H   0  0  0  0  0  0  0  0  0  0  0  0
  -30.4250  -19.1200   21.8820 C   0  0  0  0  0  3  0  0  0  0  0  0
  -33.1240  -19.2650   21.1780 C   0  0  0  0  0  3  0  0  0  0  0  0
  -31.2540  -20.0710   22.5200 C   0  0  0  0  0  0  0  0  0  0  0  0
  -30.9040  -18.2530   20.8680 C   0  0  0  0  0  0  0  0  0  0  0  0
  -32.6250  -20.1400   22.1630 C   0  0  0  0  0  0  0  0  0  0  0  0
  -32.2850  -18.3340   20.5280 C   0  0  0  0  0  0  0  0  0  0  0  0
  -33.5750  -21.1540   22.7870 C   0  0  0  0  0  1  0  0  0  0  0  0
  -32.9130  -17.4680   19.4500 C   0  0  0  0  0  1  0  0  0  0  0  0
  -28.4790  -17.9170   20.0020 C   0  0  0  0  0  1  0  0  0  0  0  0
  -29.9140  -17.3560   20.0910 C   0  0  0  0  0  3  0  0  0  0  0  0
  -30.3940  -14.9340   19.8820 C   0  0  0  0  0  0  0  0  0  0  0  0
  -30.2300  -12.6030   19.1170 C   0  0  0  0  0  2  0  0  0  0  0  0
  -29.2350  -12.5140   17.9450 C   0  0  0  0  0  2  0  0  0  0  0  0
  -27.8080  -12.2880   18.4780 C   0  0  0  0  0  2  0  0  0  0  0  0
  -27.4230  -13.2910   19.5980 C   0  0  0  0  0  3  0  0  0  0  0  0
  -28.5370  -13.3990   20.6680 C   0  0  0  0  0  2  0  0  0  0  0  0
  -29.8110  -13.7110   19.9960 N   0  0  0  0  0  0  0  0  0  0  0  0
  -31.3630  -15.1320   19.1450 O   0  0  0  0  0  0  0  0  0  0  0  0
  -29.8160  -15.9550   20.5360 N   0  0  0  0  0  0  0  0  0  0  0  0
  -29.0640  -15.7230   21.1660 H   0  0  0  0  0  0  0  0  0  0  0  0
  -25.0970  -13.7770   20.5930 C   0  0  0  0  0  0  0  0  0  0  0  0
  -24.0880  -12.9490   21.0120 C   0  0  0  0  0  0  0  0  0  0  0  0
  -24.5690  -11.6160   20.8300 C   0  0  0  0  0  0  0  0  0  0  0  0
  -26.1310  -12.9450   20.1920 N   0  0  0  0  0  0  0  0  0  0  0  0
  -25.8200  -11.6360   20.3870 N   0  0  0  0  0  0  0  0  0  0  0  0
  -23.8920  -10.3230   21.0000 C   0  0  0  0  0  0  0  0  0  0  0  0
  -24.3820   -9.3440   21.8910 C   0  0  0  0  0  3  0  0  0  0  0  0
  -23.7030   -8.1160   22.0520 C   0  0  0  0  0  3  0  0  0  0  0  0
  -22.5210   -7.8590   21.3190 C   0  0  0  0  0  0  0  0  0  0  0  0
  -22.0480   -8.8270   20.4160 C   0  0  0  0  0  3  0  0  0  0  0  0
  -22.7280  -10.0460   20.2530 C   0  0  0  0  0  3  0  0  0  0  0  0
  -21.8100   -6.6840   21.3900 O   0  0  0  0  0  0  0  0  0  0  0  0
  -21.7550   -5.9450   22.5460 C   0  0  0  0  0  0  0  0  0  0  0  0
  -21.2390   -6.4800   23.7470 C   0  0  0  0  0  3  0  0  0  0  0  0
  -21.1350   -5.6650   24.8920 C   0  0  0  0  0  3  0  0  0  0  0  0
  -21.5370   -4.3170   24.8370 C   0  0  0  0  0  0  0  0  0  0  0  0
  -22.0440   -3.7810   23.6390 C   0  0  0  0  0  3  0  0  0  0  0  0
  -22.1500   -4.5940   22.4960 C   0  0  0  0  0  0  0  0  0  0  0  0
  -22.6200   -4.0670   21.3400 F   0  0  0  0  0  0  0  0  0  0  0  0
  -21.4290   -3.5320   25.9340 F   0  0  0  0  0  0  0  0  0  0  0  0
  -22.7200  -13.3660   21.4690 C   0  0  0  0  0  0  0  0  0  0  0  0
  -22.1060  -12.5910   22.3580 N   0  0  0  0  0  0  0  0  0  0  0  0
  -22.2030  -14.4110   21.0740 O   0  0  0  0  0  0  0  0  0  0  0  0
  -22.5350  -11.7440   22.6980 H   0  0  0  0  0  0  0  0  0  0  0  0
  -21.1930  -12.8510   22.7030 H   0  0  0  0  0  0  0  0  0  0  0  0
  -25.2160  -15.1600   20.5010 N   0  0  0  0  0  0  0  0  0  0  0  0
  -24.4570  -15.7920   20.7340 H   0  0  0  0  0  0  0  0  0  0  0  0
  -26.0240  -15.6360   20.1190 H   0  0  0  0  0  0  0  0  0  0  0  0
  -29.3510  -23.1170   23.7750 C   0  0  0  0  0  2  0  0  0  0  0  0
  -28.5060  -24.0210   22.8450 C   0  0  0  0  0  2  0  0  0  0  0  0
  -28.2200  -25.9320   24.4090 C   0  0  0  0  0  1  0  0  0  0  0  0
  -28.6880  -25.4840   23.0730 N   0  0  2  0  0  4  0  0  0  0  0  0
  -29.6840  -25.6550   23.0710 H   0  0  0  0  0  0  0  0  0  0  0  0
  -28.1060  -26.3120   21.9710 C   0  0  0  0  0  2  0  0  0  0  0  0
  -29.1360  -26.6710   20.8660 C   0  0  0  0  0  2  0  0  0  0  0  0
  -28.5320  -26.9950   19.6050 O   0  0  0  0  0  0  0  0  0  0  0  0
  -24.6320  -31.7030   23.2460 C   0  0  0  0  0  0  0  0  0  0  0  0
  -27.3660  -27.7100   19.6980 C   0  0  0  0  0  0  0  0  0  0  0  0
  -23.4290  -30.3760   21.5370 C   0  0  0  0  0  3  0  0  0  0  0  0
  -24.9010  -29.0570   19.9220 C   0  0  0  0  0  0  0  0  0  0  0  0
  -25.9150  -30.9020   21.2680 C   0  0  0  0  0  2  0  0  0  0  0  0
  -26.0480  -29.5960   20.5160 C   0  0  0  0  0  0  0  0  0  0  0  0
  -27.2840  -28.9230   20.4160 C   0  0  0  0  0  3  0  0  0  0  0  0
  -26.2150  -27.1920   19.0760 C   0  0  0  0  0  3  0  0  0  0  0  0
  -24.9760  -27.8510   19.2040 C   0  0  0  0  0  3  0  0  0  0  0  0
  -23.6130  -29.8310   20.0940 C   0  0  0  0  0  2  0  0  0  0  0  0
  -24.6770  -31.0050   22.0750 N   0  0  0  0  0  0  0  0  0  0  0  0
  -23.5650  -31.8650   23.8550 O   0  0  0  0  0  0  0  0  0  0  0  0
  -22.8850  -29.2390   22.4300 C   0  0  0  0  0  0  0  0  0  0  0  0
  -21.5960  -28.9070   22.2550 N   0  0  0  0  0  0  0  0  0  0  0  0
  -23.6190  -28.6570   23.2330 O   0  0  0  0  0  0  0  0  0  0  0  0
  -21.0580  -29.4390   21.5840 H   0  0  0  0  0  0  0  0  0  0  0  0
  -18.4000  -27.2460   22.5260 C   0  0  0  0  0  0  0  0  0  0  0  0
  -20.8780  -27.8440   22.9550 C   0  0  0  0  0  3  0  0  0  0  0  0
  -21.2110  -26.4590   22.3560 C   0  0  0  0  0  2  0  0  0  0  0  0
  -20.2220  -26.0180   21.2720 C   0  0  0  0  0  2  0  0  0  0  0  0
  -18.7970  -25.9520   21.8360 C   0  0  0  0  0  2  0  0  0  0  0  0
  -19.3770  -28.1400   23.0380 C   0  0  0  0  0  0  0  0  0  0  0  0
  -18.9570  -29.3460   23.6410 C   0  0  0  0  0  3  0  0  0  0  0  0
  -17.5890  -29.6600   23.7420 C   0  0  0  0  0  3  0  0  0  0  0  0
  -16.6240  -28.7620   23.2510 C   0  0  0  0  0  3  0  0  0  0  0  0
  -17.0280  -27.5600   22.6470 C   0  0  0  0  0  3  0  0  0  0  0  0
  -25.9110  -32.3520   23.8610 C   0  0  0  0  0  3  0  0  0  0  0  0
  -25.5890  -33.7450   24.1880 N   0  0  0  0  0  0  0  0  0  0  0  0
  -25.9310  -34.8010   23.4370 C   0  0  0  0  0  0  0  0  0  0  0  0
  -26.6230  -34.7050   22.4200 O   0  0  0  0  0  0  0  0  0  0  0  0
  -24.9690  -33.8930   24.9710 H   0  0  0  0  0  0  0  0  0  0  0  0
  -24.2060  -36.5880   23.0330 C   0  0  0  0  0  1  0  0  0  0  0  0
  -25.4200  -36.1830   23.8860 C   0  0  0  0  0  3  0  0  0  0  0  0
  -27.5390  -37.0510   24.7720 C   0  0  0  0  0  1  0  0  0  0  0  0
  -26.4500  -37.2420   23.8160 N   0  0  0  0  0  0  0  0  0  0  0  0
  -26.0410  -38.1580   23.9850 H   0  0  0  0  0  0  0  0  0  0  0  0
  -26.4460  -31.5880   25.1340 C   0  0  1  0  0  0  0  0  0  0  0  0
  -25.3460  -31.2740   26.1760 C   0  0  0  0  0  1  0  0  0  0  0  0
  -27.1140  -30.2530   24.7300 C   0  0  0  0  0  1  0  0  0  0  0  0
  -27.5360  -32.4340   25.8330 C   0  0  0  0  0  1  0  0  0  0  0  0
  1  3  2  0
  2  1  1  0
  2 53  1  0
  4  2  1  0
  5  7  1  0
  6  9  1  0
  7  1  1  0
  8  5  2  0
  9  7  2  0
  9 11  1  0
 10  8  1  0
 10  6  2  0
 12 10  1  0
 14 13  1  0
 14 23  1  0
 14  8  1  0
 15 21  1  0
 15 23  1  0
 16 21  1  0
 17 18  1  0
 17 16  1  0
 19 18  1  0
 19 28  1  0
 19 20  1  0
 21 20  1  0
 22 15  2  0
 23 24  1  0
 25 26  2  0
 26 45  1  0
 27 30  1  0
 27 26  1  0
 28 29  1  0
 28 25  1  0
 29 27  2  0
 30 31  1  0
 31 32  2  0
 33 36  1  0
 33 32  1  0
 34 33  2  0
 35 34  1  0
 35 30  2  0
 36 37  1  0
 37 38  1  0
 38 39  2  0
 40 39  1  0
 40 44  1  0
 41 40  2  0
 42 37  2  0
 42 41  1  0
 43 42  1  0
 45 46  1  0
 46 48  1  0
 46 49  1  0
 47 45  2  0
 50 25  1  0
 50 51  1  0
 52 50  1  0
 54 56  1  0
 54 53  1  0
 56 55  1  0
 56 57  1  1
 58 56  1  0
 59 58  1  0
 60 62  1  0
 60 59  1  0
 61 72  2  0
 62 67  1  0
 63 71  1  0
 63 73  1  0
 64 70  1  0
 64 66  1  0
 65 71  1  0
 66 65  1  0
 67 66  2  0
 68 69  1  0
 68 62  2  0
 69 64  2  0
 70 63  1  0
 71 61  1  0
 73 75  2  0
 74 73  1  0
 76 74  1  0
 77 86  2  0
 77 82  1  0
 78 74  1  0
 78 82  1  0
 79 78  1  0
 80 81  1  0
 80 79  1  0
 81 77  1  0
 82 83  2  0
 83 84  1  0
 85 84  2  0
 86 85  1  0
 87 61  1  0
 87 88  1  0
 87 97  1  0
 88 91  1  0
 89 93  1  0
 89 88  1  0
 90 89  2  0
 93 92  1  0
 95 93  1  0
 95 96  1  0
 95 94  1  0
 97100  1  1
 97 98  1  0
 99 97  1  0
M  ISO  4  15 100  23 100  59 101  60 101
M  END
>  <TORSDO>  (51) 
F 23

>  <SCORE>  (51) 
-11.934

>  <name>  (51) 
50

>  <ligand_id>  (51) 
50

>  <original_smiles>  (51) 
[H]c1c([H])c([H])c2c(c1[H])C([H])([H])C([H])([H])C([H])([H])C2([H])N([H])C(=O)C1([H])N(C(=O)C([H])(N([H])C(=O)C([H])(N([H])C([H])([H])[H])C([H])([H])[H])C(C([H])([H])[H])(C([H])([H])[H])C([H])([H])[H])C([H])([H])c2c([H])c(OC([H])([H])C([H])([H])[N+]([H])(C([H])([H])[H])C([H])([H])C([H])([H])N([H])C(=O)c3c([H])c(C([H])(N([H])C(=O)N4C([H])([H])C([H])([H])C([H])([H])C([H])(n5nc(-c6c([H])c([H])c(Oc7c([H])c([H])c(F)c([H])c7F)c([H])c6[H])c(C(=O)N([H])[H])c5N([H])[H])C4([H])[H])C([H])([H])[H])c(C([H])([H])[H])c([H])c3C([H])([H])[H])c([H])c([H])c2C1([H])[H]

>  <smiles>  (51) 
[H]c1c([H])c([H])c2c(c1[H])C([H])([H])C([H])([H])C([H])([H])C2([H])N([H])C(=O)C1([H])N(C(=O)C([H])(N([H])C(=O)C([H])(N([H])C([H])([H])[H])C([H])([H])[H])C(C([H])([H])[H])(C([H])([H])[H])C([H])([H])[H])C([H])([H])c2c([H])c(OC([H])([H])C([H])([H])[N+]([H])(C([H])([H])[H])C([H])([H])C([H])([H])N([H])C(=O)c3c([H])c(C([H])(N([H])C(=O)N4C([H])([H])C([H])([H])C([H])([H])C([H])(n5nc(-c6c([H])c([H])c(Oc7c([H])c([H])c(F)c([H])c7F)c([H])c6[H])c(C(=O)N([H])[H])c5N([H])[H])C4([H])[H])C([H])([H])[H])c(C([H])([H])[H])c([H])c3C([H])([H])[H])c([H])c([H])c2C1([H])[H]

$$$$
51:0:0
     RDKit          3D

 95104  0  0  1  0  0  0  0  0999 V2000
  -27.3020  -21.6700   19.1320 C   0  0  0  0  0  2  0  0  0  0  0  0
  -27.8990  -22.5420   18.0330 C   0  0  0  0  0  2  0  0  0  0  0  0
  -28.7010  -21.6320   19.7610 C   0  0  0  0  0  3  0  0  0  0  0  0
  -29.0160  -22.8480   18.9370 N   0  0  2  0  0  4  0  0  0  0  0  0
  -29.9100  -22.7300   18.4790 H   0  0  0  0  0  0  0  0  0  0  0  0
  -29.4160  -20.2610   19.4140 C   0  0  0  0  0  0  0  0  0  0  0  0
  -29.4890  -18.1810   22.4880 C   0  0  0  0  0  2  0  0  0  0  0  0
  -28.9810  -17.1940   21.4560 C   0  0  0  0  0  2  0  0  0  0  0  0
  -29.3160  -19.5280   21.7940 C   0  0  0  0  0  2  0  0  0  0  0  0
  -29.4350  -17.7940   20.1050 C   0  0  0  0  0  3  0  0  0  0  0  0
  -29.5190  -19.2750   20.3590 N   0  0  0  0  0  0  0  0  0  0  0  0
  -29.7620  -20.0470   18.2490 O   0  0  0  0  0  0  0  0  0  0  0  0
  -31.3030  -14.7250   18.8740 C   0  0  0  0  0  0  0  0  0  0  0  0
  -30.8490  -12.5310   17.8180 C   0  0  0  0  0  2  0  0  0  0  0  0
  -29.5950  -12.6590   16.9220 C   0  0  0  0  0  2  0  0  0  0  0  0
  -28.2960  -12.4720   17.7350 C   0  0  0  0  0  2  0  0  0  0  0  0
  -28.2820  -13.3120   19.0400 C   0  0  0  0  0  3  0  0  0  0  0  0
  -29.6040  -13.1210   19.8190 C   0  0  0  0  0  2  0  0  0  0  0  0
  -30.7120  -13.4940   18.9220 N   0  0  0  0  0  0  0  0  0  0  0  0
  -32.2950  -14.9470   18.1710 O   0  0  0  0  0  0  0  0  0  0  0  0
  -30.6930  -17.0420   19.5490 C   0  0  0  0  0  0  0  0  0  0  0  0
  -30.5700  -15.6870   19.4880 N   0  0  0  0  0  0  0  0  0  0  0  0
  -31.6930  -17.6720   19.1940 O   0  0  0  0  0  0  0  0  0  0  0  0
  -29.7390  -15.3270   19.9280 H   0  0  0  0  0  0  0  0  0  0  0  0
  -26.3250  -13.8710   20.6160 C   0  0  0  0  0  0  0  0  0  0  0  0
  -25.3350  -13.0940   21.1560 C   0  0  0  0  0  0  0  0  0  0  0  0
  -25.5820  -11.7640   20.6930 C   0  0  0  0  0  0  0  0  0  0  0  0
  -27.1180  -13.0120   19.8710 N   0  0  0  0  0  0  0  0  0  0  0  0
  -26.6950  -11.7270   19.9720 N   0  0  0  0  0  0  0  0  0  0  0  0
  -24.7930  -10.5370   20.8460 C   0  0  0  0  0  0  0  0  0  0  0  0
  -25.2760   -9.4340   21.5850 C   0  0  0  0  0  3  0  0  0  0  0  0
  -24.4910   -8.2700   21.7300 C   0  0  0  0  0  3  0  0  0  0  0  0
  -23.2090   -8.2010   21.1360 C   0  0  0  0  0  0  0  0  0  0  0  0
  -22.7420   -9.2930   20.3810 C   0  0  0  0  0  3  0  0  0  0  0  0
  -23.5280  -10.4490   20.2340 C   0  0  0  0  0  3  0  0  0  0  0  0
  -22.3850   -7.1030   21.2040 O   0  0  0  0  0  0  0  0  0  0  0  0
  -22.3110   -6.3280   22.3320 C   0  0  0  0  0  0  0  0  0  0  0  0
  -21.9470   -6.8670   23.5850 C   0  0  0  0  0  3  0  0  0  0  0  0
  -21.8160   -6.0200   24.7040 C   0  0  0  0  0  3  0  0  0  0  0  0
  -22.0390   -4.6370   24.5720 C   0  0  0  0  0  0  0  0  0  0  0  0
  -22.3970   -4.0960   23.3240 C   0  0  0  0  0  3  0  0  0  0  0  0
  -22.5290   -4.9400   22.2060 C   0  0  0  0  0  0  0  0  0  0  0  0
  -22.8530   -4.4110   21.0020 F   0  0  0  0  0  0  0  0  0  0  0  0
  -21.9030   -3.8210   25.6450 F   0  0  0  0  0  0  0  0  0  0  0  0
  -24.1640  -13.5730   21.9650 C   0  0  0  0  0  0  0  0  0  0  0  0
  -23.6650  -12.7470   22.8780 N   0  0  0  0  0  0  0  0  0  0  0  0
  -23.7100  -14.7090   21.8240 O   0  0  0  0  0  0  0  0  0  0  0  0
  -24.0480  -11.8250   23.0200 H   0  0  0  0  0  0  0  0  0  0  0  0
  -22.8880  -13.0450   23.4500 H   0  0  0  0  0  0  0  0  0  0  0  0
  -26.6010  -15.2340   20.6660 N   0  0  0  0  0  0  0  0  0  0  0  0
  -25.9670  -15.8860   21.1180 H   0  0  0  0  0  0  0  0  0  0  0  0
  -27.2390  -15.6870   20.0260 H   0  0  0  0  0  0  0  0  0  0  0  0
  -28.9000  -24.2030   19.6190 C   0  0  0  0  0  3  0  0  0  0  0  0
  -28.8530  -25.4450   18.6480 C   0  0  0  0  0  3  0  0  0  0  0  0
  -28.6520  -26.7680   19.2180 O   0  0  0  0  0  0  0  0  0  0  0  0
  -24.6570  -31.4740   22.7570 C   0  0  0  0  0  0  0  0  0  0  0  0
  -27.4270  -27.4290   19.2330 C   0  0  0  0  0  0  0  0  0  0  0  0
  -23.4690  -30.1840   21.0090 C   0  0  0  0  0  3  0  0  0  0  0  0
  -24.9570  -28.8440   19.4120 C   0  0  0  0  0  0  0  0  0  0  0  0
  -25.9730  -30.6660   20.7920 C   0  0  0  0  0  2  0  0  0  0  0  0
  -26.1040  -29.3610   20.0290 C   0  0  0  0  0  0  0  0  0  0  0  0
  -27.3300  -28.6600   19.9350 C   0  0  0  0  0  3  0  0  0  0  0  0
  -26.2580  -26.9350   18.6070 C   0  0  0  0  0  3  0  0  0  0  0  0
  -25.0350  -27.6350   18.6960 C   0  0  0  0  0  3  0  0  0  0  0  0
  -23.6750  -29.6340   19.5690 C   0  0  0  0  0  2  0  0  0  0  0  0
  -24.7190  -30.7870   21.5800 N   0  0  0  0  0  0  0  0  0  0  0  0
  -23.5800  -31.6450   23.3460 O   0  0  0  0  0  0  0  0  0  0  0  0
  -22.8810  -29.0540   21.8880 C   0  0  0  0  0  0  0  0  0  0  0  0
  -21.5550  -28.8630   21.8160 N   0  0  0  0  0  0  0  0  0  0  0  0
  -23.6180  -28.3560   22.5900 O   0  0  0  0  0  0  0  0  0  0  0  0
  -21.0170  -29.4820   21.2250 H   0  0  0  0  0  0  0  0  0  0  0  0
  -18.2310  -27.5460   22.3470 C   0  0  0  0  0  0  0  0  0  0  0  0
  -20.7950  -27.8270   22.5180 C   0  0  0  0  0  3  0  0  0  0  0  0
  -20.8900  -26.4730   21.7780 C   0  0  0  0  0  2  0  0  0  0  0  0
  -19.7420  -26.2400   20.7910 C   0  0  0  0  0  2  0  0  0  0  0  0
  -18.3930  -26.2830   21.5180 C   0  0  0  0  0  2  0  0  0  0  0  0
  -19.3590  -28.2790   22.8030 C   0  0  0  0  0  0  0  0  0  0  0  0
  -19.1490  -29.4620   23.5420 C   0  0  0  0  0  3  0  0  0  0  0  0
  -17.8480  -29.9130   23.8300 C   0  0  0  0  0  3  0  0  0  0  0  0
  -16.7360  -29.1720   23.3920 C   0  0  0  0  0  3  0  0  0  0  0  0
  -16.9290  -27.9910   22.6560 C   0  0  0  0  0  3  0  0  0  0  0  0
  -25.9330  -32.1010   23.4060 C   0  0  0  0  0  3  0  0  0  0  0  0
  -26.5480  -31.2140   24.5580 C   0  0  1  0  0  0  0  0  0  0  0  0
  -25.5270  -30.8060   25.6430 C   0  0  0  0  0  1  0  0  0  0  0  0
  -27.1670  -29.9190   23.9780 C   0  0  0  0  0  1  0  0  0  0  0  0
  -27.6910  -31.9850   25.2560 C   0  0  0  0  0  1  0  0  0  0  0  0
  -25.5610  -33.4270   23.9190 N   0  0  0  0  0  0  0  0  0  0  0  0
  -25.8320  -34.5870   23.3040 C   0  0  0  0  0  0  0  0  0  0  0  0
  -26.4920  -34.6540   22.2640 O   0  0  0  0  0  0  0  0  0  0  0  0
  -24.9750  -33.4450   24.7400 H   0  0  0  0  0  0  0  0  0  0  0  0
  -24.0200  -36.3290   23.1960 C   0  0  0  0  0  1  0  0  0  0  0  0
  -25.2850  -35.8780   23.9430 C   0  0  0  0  0  3  0  0  0  0  0  0
  -27.3810  -36.7470   24.8860 C   0  0  0  0  0  1  0  0  0  0  0  0
  -26.2670  -36.9840   23.9710 N   0  0  0  0  0  0  0  0  0  0  0  0
  -25.8180  -37.8560   24.2340 H   0  0  0  0  0  0  0  0  0  0  0  0
  1  3  1  0
  2  4  1  0
  2  1  1  0
  3  6  1  0
  4 53  1  0
  4  3  1  0
  4  5  1  6
  6 11  1  0
  8  7  1  0
  9  7  1  0
 10 21  1  0
 10 11  1  0
 10  8  1  0
 11  9  1  0
 12  6  2  0
 13 19  1  0
 13 22  1  0
 14 19  1  0
 15 16  1  0
 15 14  1  0
 17 16  1  0
 17 18  1  0
 17 28  1  0
 19 18  1  0
 20 13  2  0
 22 21  1  0
 22 24  1  0
 23 21  2  0
 25 50  1  0
 25 26  2  0
 26 45  1  0
 27 30  1  0
 27 26  1  0
 28 29  1  0
 28 25  1  0
 29 27  2  0
 30 31  1  0
 31 32  2  0
 33 36  1  0
 33 32  1  0
 34 33  2  0
 35 34  1  0
 35 30  2  0
 36 37  1  0
 37 38  1  0
 38 39  2  0
 40 39  1  0
 40 44  1  0
 41 40  2  0
 42 37  2  0
 42 41  1  0
 43 42  1  0
 45 46  1  0
 46 48  1  0
 46 49  1  0
 47 45  2  0
 50 51  1  0
 52 50  1  0
 54 55  1  0
 54 53  2  0
 55 57  1  0
 56 67  2  0
 57 62  1  0
 58 66  1  0
 58 68  1  0
 59 65  1  0
 59 61  1  0
 60 66  1  0
 61 60  1  0
 62 61  2  0
 63 64  1  0
 63 57  2  0
 64 59  2  0
 65 58  1  0
 66 56  1  0
 68 70  2  0
 69 68  1  0
 71 69  1  0
 72 81  2  0
 72 77  1  0
 73 69  1  0
 73 77  1  0
 74 73  1  0
 75 76  1  0
 75 74  1  0
 76 72  1  0
 77 78  2  0
 78 79  1  0
 80 79  2  0
 81 80  1  0
 82 56  1  0
 82 87  1  0
 82 83  1  0
 83 86  1  1
 83 84  1  0
 85 83  1  0
 87 90  1  0
 88 87  1  0
 88 92  1  0
 89 88  2  0
 92 91  1  0
 92 94  1  0
 94 95  1  0
 94 93  1  0
M  ISO  4  13 100  22 100  54 101  55 101
M  END
>  <TORSDO>  (52) 
F 19

>  <SCORE>  (52) 
-5.173

>  <name>  (52) 
51

>  <ligand_id>  (52) 
51

>  <original_smiles>  (52) 
[H]c1c([H])c([H])c2c(c1[H])C([H])([H])C([H])([H])C([H])([H])C2([H])N([H])C(=O)C1([H])N(C(=O)C([H])(N([H])C(=O)C([H])(N([H])C([H])([H])[H])C([H])([H])[H])C(C([H])([H])[H])(C([H])([H])[H])C([H])([H])[H])C([H])([H])c2c([H])c(OC([H])([H])C([H])([H])[N+]3([H])C([H])([H])C([H])([H])C3([H])C(=O)N3C([H])([H])C([H])([H])C([H])([H])C3([H])C(=O)N([H])C(=O)N3C([H])([H])C([H])([H])C([H])([H])C([H])(n4nc(-c5c([H])c([H])c(Oc6c([H])c([H])c(F)c([H])c6F)c([H])c5[H])c(C(=O)N([H])[H])c4N([H])[H])C3([H])[H])c([H])c([H])c2C1([H])[H]

>  <smiles>  (52) 
[H]c1c([H])c([H])c2c(c1[H])C([H])([H])C([H])([H])C([H])([H])C2([H])N([H])C(=O)C1([H])N(C(=O)C([H])(N([H])C(=O)C([H])(N([H])C([H])([H])[H])C([H])([H])[H])C(C([H])([H])[H])(C([H])([H])[H])C([H])([H])[H])C([H])([H])c2c([H])c(OC([H])([H])C([H])([H])[N+]3([H])C([H])([H])C([H])([H])C3([H])C(=O)N3C([H])([H])C([H])([H])C([H])([H])C3([H])C(=O)N([H])C(=O)N3C([H])([H])C([H])([H])C([H])([H])C([H])(n4nc(-c5c([H])c([H])c(Oc6c([H])c([H])c(F)c([H])c6F)c([H])c5[H])c(C(=O)N([H])[H])c4N([H])[H])C3([H])[H])c([H])c([H])c2C1([H])[H]

$$$$
52:0:0
     RDKit          3D

104114  0  0  1  0  0  0  0  0999 V2000
  -28.5350  -21.3090   21.4390 C   0  0  0  0  0  2  0  0  0  0  0  0
  -26.7380  -22.0210   19.9460 C   0  0  0  0  0  2  0  0  0  0  0  0
  -28.3730  -20.3320   20.2520 C   0  0  0  0  0  3  0  0  0  0  0  0
  -27.3620  -22.2970   21.3230 C   0  0  0  0  0  3  0  0  0  0  0  0
  -26.9050  -20.2370   18.2310 C   0  0  0  0  0  1  0  0  0  0  0  0
  -27.0420  -20.6040   19.6620 N   0  0  2  0  0  4  0  0  0  0  0  0
  -26.4070  -20.0220   20.1910 H   0  0  0  0  0  0  0  0  0  0  0  0
  -28.3450  -24.5470   20.7510 C   0  0  0  0  0  0  0  0  0  0  0  0
  -27.6890  -23.7100   21.5700 N   0  0  0  0  0  0  0  0  0  0  0  0
  -28.7950  -24.1880   19.6590 O   0  0  0  0  0  0  0  0  0  0  0  0
  -27.3630  -24.1010   22.4460 H   0  0  0  0  0  0  0  0  0  0  0  0
  -28.4900  -26.0080   21.1960 C   0  0  0  0  0  2  0  0  0  0  0  0
  -27.2370  -26.6570   21.0030 O   0  0  0  0  0  0  0  0  0  0  0  0
  -28.0370  -31.6710   26.0180 C   0  0  0  0  0  0  0  0  0  0  0  0
  -26.7360  -27.3220   22.0900 C   0  0  0  0  0  0  0  0  0  0  0  0
  -26.0590  -30.2030   26.2460 C   0  0  0  0  0  3  0  0  0  0  0  0
  -25.5580  -28.7020   24.2460 C   0  0  0  0  0  0  0  0  0  0  0  0
  -27.0720  -30.6690   23.9490 C   0  0  0  0  0  2  0  0  0  0  0  0
  -26.6120  -29.2880   23.5340 C   0  0  0  0  0  0  0  0  0  0  0  0
  -27.2100  -28.6010   22.4550 C   0  0  0  0  0  3  0  0  0  0  0  0
  -25.6730  -26.7430   22.8100 C   0  0  0  0  0  3  0  0  0  0  0  0
  -25.0880  -27.4240   23.8930 C   0  0  0  0  0  3  0  0  0  0  0  0
  -24.9720  -29.5060   25.3840 C   0  0  0  0  0  2  0  0  0  0  0  0
  -27.1180  -30.8630   25.4170 N   0  0  0  0  0  0  0  0  0  0  0  0
  -27.9860  -31.9070   27.2330 O   0  0  0  0  0  0  0  0  0  0  0  0
  -26.6190  -29.1730   27.2530 C   0  0  0  0  0  0  0  0  0  0  0  0
  -25.9660  -29.0630   28.4200 N   0  0  0  0  0  0  0  0  0  0  0  0
  -27.5960  -28.4740   26.9680 O   0  0  0  0  0  0  0  0  0  0  0  0
  -25.1750  -29.6710   28.5800 H   0  0  0  0  0  0  0  0  0  0  0  0
  -25.0970  -28.1130   31.7950 C   0  0  0  0  0  0  0  0  0  0  0  0
  -26.2890  -28.1330   29.5010 C   0  0  0  0  0  3  0  0  0  0  0  0
  -25.6320  -26.7550   29.2610 C   0  0  0  0  0  2  0  0  0  0  0  0
  -24.2640  -26.6130   29.9340 C   0  0  0  0  0  2  0  0  0  0  0  0
  -24.3840  -26.8160   31.4480 C   0  0  0  0  0  2  0  0  0  0  0  0
  -25.9790  -28.7380   30.8750 C   0  0  0  0  0  0  0  0  0  0  0  0
  -26.5910  -29.9590   31.2320 C   0  0  0  0  0  3  0  0  0  0  0  0
  -26.3350  -30.5530   32.4820 C   0  0  0  0  0  3  0  0  0  0  0  0
  -25.4730  -29.9210   33.3970 C   0  0  0  0  0  3  0  0  0  0  0  0
  -24.8600  -28.7030   33.0540 C   0  0  0  0  0  3  0  0  0  0  0  0
  -29.1800  -32.3560   25.2060 C   0  0  0  0  0  3  0  0  0  0  0  0
  -30.5240  -31.5280   25.2080 C   0  0  1  0  0  0  0  0  0  0  0  0
  -30.9590  -31.0500   26.6140 C   0  0  0  0  0  1  0  0  0  0  0  0
  -30.3880  -30.2790   24.3050 C   0  0  0  0  0  1  0  0  0  0  0  0
  -31.6670  -32.3830   24.6120 C   0  0  0  0  0  1  0  0  0  0  0  0
  -29.3900  -33.6920   25.7750 N   0  0  0  0  0  0  0  0  0  0  0  0
  -28.9160  -34.8270   25.2420 C   0  0  0  0  0  0  0  0  0  0  0  0
  -28.3110  -34.8590   24.1670 O   0  0  0  0  0  0  0  0  0  0  0  0
  -29.8290  -33.7350   26.6830 H   0  0  0  0  0  0  0  0  0  0  0  0
  -27.8790  -36.4940   26.8100 C   0  0  0  0  0  1  0  0  0  0  0  0
  -29.1510  -36.1310   26.0270 C   0  0  0  0  0  3  0  0  0  0  0  0
  -30.8860  -37.1160   24.5980 C   0  0  0  0  0  1  0  0  0  0  0  0
  -29.5520  -37.2690   25.1700 N   0  0  0  0  0  0  0  0  0  0  0  0
  -29.5290  -38.1420   25.6920 H   0  0  0  0  0  0  0  0  0  0  0  0
  -28.5120  -18.8630   20.6850 C   0  0  0  0  0  0  0  0  0  0  0  0
  -29.7030  -18.4880   21.1640 N   0  0  0  0  0  0  0  0  0  0  0  0
  -27.5590  -18.0850   20.5760 O   0  0  0  0  0  0  0  0  0  0  0  0
  -30.4100  -19.2050   21.2550 H   0  0  0  0  0  0  0  0  0  0  0  0
  -31.6400  -16.4720   23.5890 C   0  0  0  0  0  2  0  0  0  0  0  0
  -32.3210  -14.8360   21.9380 C   0  0  0  0  0  2  0  0  0  0  0  0
  -31.4610  -17.1140   22.2240 C   0  0  0  0  0  3  0  0  0  0  0  0
  -31.9460  -16.1110   21.1860 C   0  0  0  0  0  3  0  0  0  0  0  0
  -30.0680  -17.1330   21.5670 C   0  0  0  0  0  3  0  0  0  0  0  0
  -30.6340  -16.3140   20.3950 C   0  0  0  0  0  3  0  0  0  0  0  0
  -32.6630  -14.3430   24.3580 C   0  0  0  0  0  1  0  0  0  0  0  0
  -31.8440  -15.0240   23.3320 N   0  0  1  0  0  4  0  0  0  0  0  0
  -30.9290  -14.6000   23.3700 H   0  0  0  0  0  0  0  0  0  0  0  0
  -30.0980  -14.3150   19.0380 C   0  0  0  0  0  0  0  0  0  0  0  0
  -29.4130  -12.3230   17.7590 C   0  0  0  0  0  2  0  0  0  0  0  0
  -28.2250  -12.6350   16.8290 C   0  0  0  0  0  2  0  0  0  0  0  0
  -26.8900  -12.4600   17.5760 C   0  0  0  0  0  2  0  0  0  0  0  0
  -26.8730  -13.1980   18.9410 C   0  0  0  0  0  3  0  0  0  0  0  0
  -28.1450  -12.8840   19.7600 C   0  0  0  0  0  2  0  0  0  0  0  0
  -29.3230  -13.2050   18.9330 N   0  0  0  0  0  0  0  0  0  0  0  0
  -30.9580  -14.6170   18.2060 O   0  0  0  0  0  0  0  0  0  0  0  0
  -29.8990  -15.0750   20.1260 N   0  0  0  0  0  0  0  0  0  0  0  0
  -29.1550  -14.8040   20.7510 H   0  0  0  0  0  0  0  0  0  0  0  0
  -24.6780  -13.7520   20.1690 C   0  0  0  0  0  0  0  0  0  0  0  0
  -23.7210  -12.9550   20.7380 C   0  0  0  0  0  0  0  0  0  0  0  0
  -24.1760  -11.6110   20.5670 C   0  0  0  0  0  0  0  0  0  0  0  0
  -25.6570  -12.8920   19.6910 N   0  0  0  0  0  0  0  0  0  0  0  0
  -25.3680  -11.5990   19.9850 N   0  0  0  0  0  0  0  0  0  0  0  0
  -23.5180  -10.3330   20.8750 C   0  0  0  0  0  0  0  0  0  0  0  0
  -24.0600   -9.4320   21.8170 C   0  0  0  0  0  3  0  0  0  0  0  0
  -23.3990   -8.2190   22.1090 C   0  0  0  0  0  3  0  0  0  0  0  0
  -22.1830   -7.8980   21.4600 C   0  0  0  0  0  0  0  0  0  0  0  0
  -21.6600   -8.7890   20.5060 C   0  0  0  0  0  3  0  0  0  0  0  0
  -22.3220   -9.9940   20.2130 C   0  0  0  0  0  3  0  0  0  0  0  0
  -21.4860   -6.7320   21.6620 O   0  0  0  0  0  0  0  0  0  0  0  0
  -21.4960   -6.0860   22.8720 C   0  0  0  0  0  0  0  0  0  0  0  0
  -21.0170   -6.7030   24.0490 C   0  0  0  0  0  3  0  0  0  0  0  0
  -20.9810   -5.9800   25.2580 C   0  0  0  0  0  3  0  0  0  0  0  0
  -21.4150   -4.6400   25.2920 C   0  0  0  0  0  0  0  0  0  0  0  0
  -21.8860   -4.0240   24.1190 C   0  0  0  0  0  3  0  0  0  0  0  0
  -21.9240   -4.7440   22.9130 C   0  0  0  0  0  0  0  0  0  0  0  0
  -22.3600   -4.1390   21.7820 F   0  0  0  0  0  0  0  0  0  0  0  0
  -21.3730   -3.9430   26.4500 F   0  0  0  0  0  0  0  0  0  0  0  0
  -22.4150  -13.4050   21.3240 C   0  0  0  0  0  0  0  0  0  0  0  0
  -21.9120  -12.6880   22.3230 N   0  0  0  0  0  0  0  0  0  0  0  0
  -21.8550  -14.4270   20.9310 O   0  0  0  0  0  0  0  0  0  0  0  0
  -22.3800  -11.8590   22.6590 H   0  0  0  0  0  0  0  0  0  0  0  0
  -21.0450  -12.9700   22.7570 H   0  0  0  0  0  0  0  0  0  0  0  0
  -24.7920  -15.1290   20.0030 N   0  0  0  0  0  0  0  0  0  0  0  0
  -24.0760  -15.7750   20.3140 H   0  0  0  0  0  0  0  0  0  0  0  0
  -25.5760  -15.5920   19.5580 H   0  0  0  0  0  0  0  0  0  0  0  0
  2  4  1  0
  3 54  1  0
  3  1  1  0
  4  1  1  0
  4  9  1  0
  5  6  1  0
  6  2  1  0
  6  7  1  1
  6  3  1  0
  8 12  1  0
  8  9  1  0
  9 11  1  0
 10  8  2  0
 13 12  1  0
 13 15  1  0
 14 25  2  0
 15 20  2  0
 15 21  1  0
 16 26  1  0
 17 23  1  0
 18 24  1  0
 19 18  1  0
 19 17  2  0
 20 19  1  0
 21 22  2  0
 22 17  1  0
 23 16  1  0
 24 14  1  0
 24 16  1  0
 26 27  1  0
 27 29  1  0
 28 26  2  0
 30 39  1  0
 31 27  1  0
 31 35  1  0
 32 31  1  0
 32 33  1  0
 33 34  1  0
 34 30  1  0
 35 36  1  0
 35 30  2  0
 36 37  2  0
 37 38  1  0
 39 38  2  0
 40 41  1  0
 40 45  1  0
 40 14  1  0
 41 42  1  1
 43 41  1  0
 44 41  1  0
 45 48  1  0
 46 45  1  0
 46 50  1  0
 47 46  2  0
 50 49  1  0
 51 52  1  0
 52 53  1  0
 52 50  1  0
 54 55  1  0
 55 57  1  0
 56 54  2  0
 59 65  1  0
 60 58  1  0
 61 59  1  0
 61 60  1  0
 62 55  1  0
 62 60  1  0
 63 75  1  0
 63 61  1  0
 63 62  1  0
 65 66  1  6
 65 58  1  0
 65 64  1  0
 67 75  1  0
 68 73  1  0
 69 70  1  0
 69 68  1  0
 71 70  1  0
 71 80  1  0
 71 72  1  0
 73 67  1  0
 73 72  1  0
 74 67  2  0
 75 76  1  0
 77 78  2  0
 78 97  1  0
 79 78  1  0
 79 82  1  0
 80 81  1  0
 80 77  1  0
 81 79  2  0
 82 83  1  0
 83 84  2  0
 85 88  1  0
 85 84  1  0
 86 85  2  0
 87 86  1  0
 87 82  2  0
 88 89  1  0
 89 94  2  0
 89 90  1  0
 90 91  2  0
 91 92  1  0
 92 96  1  0
 93 92  2  0
 94 93  1  0
 95 94  1  0
 97 98  1  0
 98100  1  0
 98101  1  0
 99 97  2  0
102 77  1  0
102103  1  0
104102  1  0
M  ISO  4  12 101  13 101  67 100  75 100
M  END
>  <TORSDO>  (53) 
F 20

>  <SCORE>  (53) 
4.436

>  <name>  (53) 
52

>  <ligand_id>  (53) 
52

>  <original_smiles>  (53) 
[H]c1c([H])c([H])c2c(c1[H])C([H])([H])C([H])([H])C([H])([H])C2([H])N([H])C(=O)C1([H])N(C(=O)C([H])(N([H])C(=O)C([H])(N([H])C([H])([H])[H])C([H])([H])[H])C(C([H])([H])[H])(C([H])([H])[H])C([H])([H])[H])C([H])([H])c2c([H])c(OC([H])([H])C(=O)N([H])C3([H])C([H])([H])C([H])(C(=O)N([H])C4([H])C([H])(N([H])C(=O)N5C([H])([H])C([H])([H])C([H])([H])C([H])(n6nc(-c7c([H])c([H])c(Oc8c([H])c([H])c(F)c([H])c8F)c([H])c7[H])c(C(=O)N([H])[H])c6N([H])[H])C5([H])[H])C5([H])C4([H])C([H])([H])[N+]([H])(C([H])([H])[H])C5([H])[H])[N+]([H])(C([H])([H])[H])C3([H])[H])c([H])c([H])c2C1([H])[H]

>  <smiles>  (53) 
[H]c1c([H])c([H])c2c(c1[H])C([H])([H])C([H])([H])C([H])([H])C2([H])N([H])C(=O)C1([H])N(C(=O)C([H])(N([H])C(=O)C([H])(N([H])C([H])([H])[H])C([H])([H])[H])C(C([H])([H])[H])(C([H])([H])[H])C([H])([H])[H])C([H])([H])c2c([H])c(OC([H])([H])C(=O)N([H])C3([H])C([H])([H])C([H])(C(=O)N([H])C4([H])C([H])(N([H])C(=O)N5C([H])([H])C([H])([H])C([H])([H])C([H])(n6nc(-c7c([H])c([H])c(Oc8c([H])c([H])c(F)c([H])c8F)c([H])c7[H])c(C(=O)N([H])[H])c6N([H])[H])C5([H])[H])C5([H])C4([H])C([H])([H])[N+]([H])(C([H])([H])[H])C5([H])[H])[N+]([H])(C([H])([H])[H])C3([H])[H])c([H])c([H])c2C1([H])[H]

$$$$
53:0:0
     RDKit          3D

 95103  0  0  1  0  0  0  0  0999 V2000
  -29.5460  -20.7500   22.2430 C   0  0  0  0  0  1  0  0  0  0  0  0
  -29.5310  -20.7910   20.7070 C   0  0  0  0  0  3  0  0  0  0  0  0
  -29.5450  -19.0240   18.6600 C   0  0  0  0  0  2  0  0  0  0  0  0
  -30.7490  -18.0960   18.9290 C   0  0  0  0  0  3  0  0  0  0  0  0
  -29.2700  -19.2060   20.1580 C   0  0  0  0  0  3  0  0  0  0  0  0
  -30.2450  -17.8230   20.3650 C   0  0  0  0  0  3  0  0  0  0  0  0
  -30.5680  -15.0910   20.2880 C   0  0  0  0  0  0  0  0  0  0  0  0
  -30.4350  -12.7430   19.3390 C   0  0  0  0  0  2  0  0  0  0  0  0
  -29.4810  -12.6920   18.1230 C   0  0  0  0  0  2  0  0  0  0  0  0
  -28.0290  -12.4670   18.5840 C   0  0  0  0  0  2  0  0  0  0  0  0
  -27.6360  -13.3890   19.7680 C   0  0  0  0  0  3  0  0  0  0  0  0
  -28.7100  -13.4140   20.8750 C   0  0  0  0  0  2  0  0  0  0  0  0
  -29.9660  -13.8350   20.2410 N   0  0  0  0  0  0  0  0  0  0  0  0
  -31.7690  -15.1410   20.0000 O   0  0  0  0  0  0  0  0  0  0  0  0
  -29.8110  -16.2930   20.4440 N   0  0  0  0  0  0  0  0  0  0  0  0
  -28.8320  -16.1360   20.6350 H   0  0  0  0  0  0  0  0  0  0  0  0
  -25.2720  -13.9460   20.5680 C   0  0  0  0  0  0  0  0  0  0  0  0
  -24.2190  -13.1610   20.9470 C   0  0  0  0  0  0  0  0  0  0  0  0
  -24.6880  -11.8120   20.8860 C   0  0  0  0  0  0  0  0  0  0  0  0
  -26.3130  -13.0760   20.2920 N   0  0  0  0  0  0  0  0  0  0  0  0
  -25.9730  -11.7870   20.5510 N   0  0  0  0  0  0  0  0  0  0  0  0
  -23.9680  -10.5450   21.0700 C   0  0  0  0  0  0  0  0  0  0  0  0
  -24.4110   -9.5710   21.9930 C   0  0  0  0  0  3  0  0  0  0  0  0
  -23.6900   -8.3700   22.1670 C   0  0  0  0  0  3  0  0  0  0  0  0
  -22.5130   -8.1330   21.4160 C   0  0  0  0  0  0  0  0  0  0  0  0
  -22.0910   -9.0950   20.4820 C   0  0  0  0  0  3  0  0  0  0  0  0
  -22.8130  -10.2880   20.3070 C   0  0  0  0  0  3  0  0  0  0  0  0
  -21.7630   -6.9850   21.4990 O   0  0  0  0  0  0  0  0  0  0  0  0
  -21.7070   -6.2440   22.6520 C   0  0  0  0  0  0  0  0  0  0  0  0
  -21.2370   -6.7890   23.8660 C   0  0  0  0  0  3  0  0  0  0  0  0
  -21.1300   -5.9730   25.0090 C   0  0  0  0  0  3  0  0  0  0  0  0
  -21.4840   -4.6130   24.9400 C   0  0  0  0  0  0  0  0  0  0  0  0
  -21.9480   -4.0670   23.7300 C   0  0  0  0  0  3  0  0  0  0  0  0
  -22.0560   -4.8790   22.5890 C   0  0  0  0  0  0  0  0  0  0  0  0
  -22.4840   -4.3440   21.4200 F   0  0  0  0  0  0  0  0  0  0  0  0
  -21.3740   -3.8260   26.0360 F   0  0  0  0  0  0  0  0  0  0  0  0
  -22.8260  -13.6290   21.2500 C   0  0  0  0  0  0  0  0  0  0  0  0
  -22.1120  -12.9130   22.1120 N   0  0  0  0  0  0  0  0  0  0  0  0
  -22.3780  -14.6650   20.7570 O   0  0  0  0  0  0  0  0  0  0  0  0
  -22.4880  -12.0750   22.5300 H   0  0  0  0  0  0  0  0  0  0  0  0
  -21.1800  -13.2090   22.3600 H   0  0  0  0  0  0  0  0  0  0  0  0
  -25.4260  -15.3200   20.4080 N   0  0  0  0  0  0  0  0  0  0  0  0
  -24.6550  -15.9660   20.5410 H   0  0  0  0  0  0  0  0  0  0  0  0
  -26.2530  -15.7670   20.0340 H   0  0  0  0  0  0  0  0  0  0  0  0
  -32.1360  -18.7590   18.8090 C   0  0  0  0  0  0  0  0  0  0  0  0
  -32.8640  -18.4570   17.7420 N   0  0  0  0  0  0  0  0  0  0  0  0
  -32.5710  -19.5140   19.6760 O   0  0  0  0  0  0  0  0  0  0  0  0
  -32.5050  -17.8250   17.0380 H   0  0  0  0  0  0  0  0  0  0  0  0
  -33.7930  -18.8400   17.6310 H   0  0  0  0  0  0  0  0  0  0  0  0
  -28.9600  -23.4850   20.4350 C   0  0  0  0  0  0  0  0  0  0  0  0
  -28.7090  -22.0850   20.2800 N   0  0  0  0  0  0  0  0  0  0  0  0
  -30.0600  -23.8290   20.8750 O   0  0  0  0  0  0  0  0  0  0  0  0
  -27.8000  -21.8800   19.8840 H   0  0  0  0  0  0  0  0  0  0  0  0
  -27.8950  -24.7180   20.1030 C   0  0  0  0  0  2  0  0  0  0  0  0
  -28.2250  -26.2390   20.2810 O   0  0  0  0  0  0  0  0  0  0  0  0
  -24.6310  -31.9730   23.2400 C   0  0  0  0  0  0  0  0  0  0  0  0
  -27.1840  -27.2420   20.2060 C   0  0  0  0  0  0  0  0  0  0  0  0
  -23.4240  -30.5790   21.6060 C   0  0  0  0  0  3  0  0  0  0  0  0
  -24.8650  -29.0050   20.1750 C   0  0  0  0  0  0  0  0  0  0  0  0
  -25.9790  -30.8380   21.4340 C   0  0  0  0  0  2  0  0  0  0  0  0
  -26.0480  -29.4450   20.7800 C   0  0  0  0  0  0  0  0  0  0  0  0
  -27.2080  -28.5810   20.7780 C   0  0  0  0  0  3  0  0  0  0  0  0
  -25.9740  -26.9110   19.5580 C   0  0  0  0  0  3  0  0  0  0  0  0
  -24.8410  -27.7520   19.5470 C   0  0  0  0  0  3  0  0  0  0  0  0
  -23.6410  -29.9050   20.2270 C   0  0  0  0  0  2  0  0  0  0  0  0
  -24.6990  -31.1520   22.1490 N   0  0  0  0  0  0  0  0  0  0  0  0
  -23.5470  -32.2600   23.7700 O   0  0  0  0  0  0  0  0  0  0  0  0
  -22.7460  -29.5720   22.5710 C   0  0  0  0  0  0  0  0  0  0  0  0
  -21.4190  -29.3970   22.4420 N   0  0  0  0  0  0  0  0  0  0  0  0
  -23.4170  -28.9520   23.4000 O   0  0  0  0  0  0  0  0  0  0  0  0
  -20.9310  -29.9490   21.7510 H   0  0  0  0  0  0  0  0  0  0  0  0
  -18.0380  -28.1970   22.9530 C   0  0  0  0  0  0  0  0  0  0  0  0
  -20.5980  -28.4620   23.2170 C   0  0  0  0  0  3  0  0  0  0  0  0
  -20.7000  -27.0290   22.6460 C   0  0  0  0  0  2  0  0  0  0  0  0
  -19.5970  -26.7030   21.6340 C   0  0  0  0  0  2  0  0  0  0  0  0
  -18.2150  -26.8470   22.2790 C   0  0  0  0  0  2  0  0  0  0  0  0
  -19.1560  -28.9610   23.3800 C   0  0  0  0  0  0  0  0  0  0  0  0
  -18.9360  -30.2230   23.9730 C   0  0  0  0  0  3  0  0  0  0  0  0
  -17.6310  -30.7220   24.1430 C   0  0  0  0  0  3  0  0  0  0  0  0
  -16.5270  -29.9540   23.7320 C   0  0  0  0  0  3  0  0  0  0  0  0
  -16.7300  -28.6950   23.1430 C   0  0  0  0  0  3  0  0  0  0  0  0
  -25.9120  -32.6080   23.8620 C   0  0  0  0  0  3  0  0  0  0  0  0
  -26.4330  -31.8320   25.1340 C   0  0  1  0  0  0  0  0  0  0  0  0
  -25.3420  -31.5820   26.2010 C   0  0  0  0  0  1  0  0  0  0  0  0
  -27.0250  -30.4590   24.7400 C   0  0  0  0  0  1  0  0  0  0  0  0
  -27.5790  -32.6290   25.8010 C   0  0  0  0  0  1  0  0  0  0  0  0
  -25.5990  -34.0040   24.2060 N   0  0  0  0  0  0  0  0  0  0  0  0
  -25.9190  -35.0670   23.4550 C   0  0  0  0  0  0  0  0  0  0  0  0
  -26.5740  -34.9740   22.4130 O   0  0  0  0  0  0  0  0  0  0  0  0
  -25.0180  -34.1500   25.0180 H   0  0  0  0  0  0  0  0  0  0  0  0
  -24.1870  -36.8650   23.1440 C   0  0  0  0  0  1  0  0  0  0  0  0
  -25.4370  -36.4500   23.9360 C   0  0  0  0  0  3  0  0  0  0  0  0
  -27.5750  -37.3310   24.7590 C   0  0  0  0  0  1  0  0  0  0  0  0
  -26.4670  -37.5050   23.8250 N   0  0  0  0  0  0  0  0  0  0  0  0
  -26.0590  -38.4240   23.9840 H   0  0  0  0  0  0  0  0  0  0  0  0
  2  1  1  0
  3  4  1  0
  3  5  1  0
  4 45  1  0
  4  6  1  0
  5  6  1  0
  5  2  1  0
  6 15  1  0
  7 15  1  0
  8 13  1  0
  9 10  1  0
  9  8  1  0
 11 10  1  0
 11 20  1  0
 11 12  1  0
 13  7  1  0
 13 12  1  0
 14  7  2  0
 15 16  1  0
 17 18  2  0
 18 37  1  0
 19 18  1  0
 19 22  1  0
 20 21  1  0
 20 17  1  0
 21 19  2  0
 22 23  1  0
 23 24  2  0
 25 28  1  0
 25 24  1  0
 26 25  2  0
 27 26  1  0
 27 22  2  0
 28 29  1  0
 29 30  1  0
 30 31  2  0
 32 31  1  0
 32 36  1  0
 33 32  2  0
 34 29  2  0
 34 33  1  0
 35 34  1  0
 37 38  1  0
 38 41  1  0
 38 40  1  0
 39 37  2  0
 42 43  1  0
 42 17  1  0
 44 42  1  0
 45 47  2  0
 46 45  1  0
 48 46  1  0
 49 46  1  0
 50 52  2  0
 51 50  1  0
 51  2  1  0
 53 51  1  0
 54 55  1  0
 54 50  1  0
 56 67  2  0
 57 55  1  0
 57 62  1  0
 58 66  1  0
 58 68  1  0
 59 65  1  0
 59 61  1  0
 60 66  1  0
 61 60  1  0
 62 61  2  0
 63 57  2  0
 64 63  1  0
 64 59  2  0
 65 58  1  0
 66 56  1  0
 68 70  2  0
 69 68  1  0
 71 69  1  0
 72 81  2  0
 72 77  1  0
 73 69  1  0
 73 77  1  0
 74 73  1  0
 75 76  1  0
 75 74  1  0
 76 72  1  0
 77 78  2  0
 78 79  1  0
 80 79  2  0
 81 80  1  0
 82 56  1  0
 82 87  1  0
 82 83  1  0
 83 86  1  1
 83 84  1  0
 85 83  1  0
 87 90  1  0
 88 92  1  0
 88 87  1  0
 89 88  2  0
 92 91  1  0
 94 92  1  0
 94 95  1  0
 94 93  1  0
M  ISO  4   7 100  15 100  54 101  55 101
M  END
>  <TORSDO>  (54) 
F 20

>  <SCORE>  (54) 
-14.057

>  <name>  (54) 
53

>  <ligand_id>  (54) 
53

>  <original_smiles>  (54) 
[H]c1c([H])c([H])c2c(c1[H])C([H])([H])C([H])([H])C([H])([H])C2([H])N([H])C(=O)C1([H])N(C(=O)C([H])(N([H])C(=O)C([H])(N([H])C([H])([H])[H])C([H])([H])[H])C(C([H])([H])[H])(C([H])([H])[H])C([H])([H])[H])C([H])([H])c2c([H])c(OC([H])([H])C(=O)N([H])C([H])(C([H])([H])[H])C3([H])C([H])([H])C([H])(C(=O)N([H])[H])C3([H])N([H])C(=O)N3C([H])([H])C([H])([H])C([H])([H])C([H])(n4nc(-c5c([H])c([H])c(Oc6c([H])c([H])c(F)c([H])c6F)c([H])c5[H])c(C(=O)N([H])[H])c4N([H])[H])C3([H])[H])c([H])c([H])c2C1([H])[H]

>  <smiles>  (54) 
[H]c1c([H])c([H])c2c(c1[H])C([H])([H])C([H])([H])C([H])([H])C2([H])N([H])C(=O)C1([H])N(C(=O)C([H])(N([H])C(=O)C([H])(N([H])C([H])([H])[H])C([H])([H])[H])C(C([H])([H])[H])(C([H])([H])[H])C([H])([H])[H])C([H])([H])c2c([H])c(OC([H])([H])C(=O)N([H])C([H])(C([H])([H])[H])C3([H])C([H])([H])C([H])(C(=O)N([H])[H])C3([H])N([H])C(=O)N3C([H])([H])C([H])([H])C([H])([H])C([H])(n4nc(-c5c([H])c([H])c(Oc6c([H])c([H])c(F)c([H])c6F)c([H])c5[H])c(C(=O)N([H])[H])c4N([H])[H])C3([H])[H])c([H])c([H])c2C1([H])[H]

$$$$
54:0:0
     RDKit          3D

 99108  0  0  1  0  0  0  0  0999 V2000
  -30.0190  -23.1710   19.6350 C   0  0  0  0  0  0  0  0  0  0  0  0
  -31.1810  -21.1970   18.8100 C   0  0  0  0  0  1  0  0  0  0  0  0
  -30.2020  -21.7990   19.7360 N   0  0  0  0  0  0  0  0  0  0  0  0
  -30.5650  -23.8030   18.7230 O   0  0  0  0  0  0  0  0  0  0  0  0
  -29.5370  -20.8150   20.6660 C   0  0  0  0  0  2  0  0  0  0  0  0
  -30.4810  -18.2430   20.5330 C   0  0  0  0  0  0  0  0  0  0  0  0
  -28.7070  -18.9300   18.8730 C   0  0  0  0  0  2  0  0  0  0  0  0
  -29.9340  -16.9550   19.8760 C   0  0  0  0  0  3  0  0  0  0  0  0
  -28.5620  -17.6200   19.6540 C   0  0  0  0  0  3  0  0  0  0  0  0
  -29.4100  -19.2910   20.1940 C   0  0  2  0  0  0  0  0  0  0  0  0
  -28.2920  -18.5480   20.7700 N   0  0  0  0  0  4  0  0  0  0  0  0
  -31.5360  -18.3380   21.1630 O   0  0  0  0  0  0  0  0  0  0  0  0
  -28.4670  -18.1660   21.6860 H   0  0  0  0  0  0  0  0  0  0  0  0
  -27.3970  -18.9980   20.6870 H   0  0  0  0  0  0  0  0  0  0  0  0
  -30.6190  -14.5810   20.4130 C   0  0  0  0  0  0  0  0  0  0  0  0
  -30.3530  -12.3610   19.3580 C   0  0  0  0  0  2  0  0  0  0  0  0
  -29.4230  -12.5320   18.1360 C   0  0  0  0  0  2  0  0  0  0  0  0
  -27.9440  -12.3970   18.5510 C   0  0  0  0  0  2  0  0  0  0  0  0
  -27.5930  -13.2530   19.7970 C   0  0  0  0  0  3  0  0  0  0  0  0
  -28.6440  -13.0830   20.9200 C   0  0  0  0  0  2  0  0  0  0  0  0
  -29.9700  -13.3800   20.3540 N   0  0  0  0  0  0  0  0  0  0  0  0
  -31.7750  -14.7230   20.0060 O   0  0  0  0  0  0  0  0  0  0  0  0
  -29.8270  -15.6650   20.6370 N   0  0  0  0  0  0  0  0  0  0  0  0
  -28.9240  -15.4360   21.0220 H   0  0  0  0  0  0  0  0  0  0  0  0
  -25.1950  -13.8760   20.4910 C   0  0  0  0  0  0  0  0  0  0  0  0
  -24.1210  -13.1160   20.8640 C   0  0  0  0  0  0  0  0  0  0  0  0
  -24.5720  -11.7600   20.8420 C   0  0  0  0  0  0  0  0  0  0  0  0
  -26.2350  -12.9880   20.2690 N   0  0  0  0  0  0  0  0  0  0  0  0
  -25.8640  -11.7090   20.5400 N   0  0  0  0  0  0  0  0  0  0  0  0
  -23.8330  -10.5060   21.0360 C   0  0  0  0  0  0  0  0  0  0  0  0
  -24.2640   -9.5300   21.9620 C   0  0  0  0  0  3  0  0  0  0  0  0
  -23.5270   -8.3400   22.1420 C   0  0  0  0  0  3  0  0  0  0  0  0
  -22.3460   -8.1160   21.3960 C   0  0  0  0  0  0  0  0  0  0  0  0
  -21.9340   -9.0800   20.4580 C   0  0  0  0  0  3  0  0  0  0  0  0
  -22.6710  -10.2620   20.2770 C   0  0  0  0  0  3  0  0  0  0  0  0
  -21.5790   -6.9790   21.4860 O   0  0  0  0  0  0  0  0  0  0  0  0
  -21.5490   -6.2220   22.6300 C   0  0  0  0  0  0  0  0  0  0  0  0
  -21.1700   -6.7680   23.8750 C   0  0  0  0  0  3  0  0  0  0  0  0
  -21.0850   -5.9380   25.0110 C   0  0  0  0  0  3  0  0  0  0  0  0
  -21.3670   -4.5630   24.9020 C   0  0  0  0  0  0  0  0  0  0  0  0
  -21.7390   -4.0160   23.6620 C   0  0  0  0  0  3  0  0  0  0  0  0
  -21.8260   -4.8430   22.5280 C   0  0  0  0  0  0  0  0  0  0  0  0
  -22.1650   -4.3070   21.3310 F   0  0  0  0  0  0  0  0  0  0  0  0
  -21.2780   -3.7650   25.9920 F   0  0  0  0  0  0  0  0  0  0  0  0
  -22.7260  -13.6070   21.1220 C   0  0  0  0  0  0  0  0  0  0  0  0
  -21.9840  -12.9230   21.9860 N   0  0  0  0  0  0  0  0  0  0  0  0
  -22.3020  -14.6340   20.5920 O   0  0  0  0  0  0  0  0  0  0  0  0
  -22.3370  -12.0940   22.4380 H   0  0  0  0  0  0  0  0  0  0  0  0
  -21.0460  -13.2360   22.1980 H   0  0  0  0  0  0  0  0  0  0  0  0
  -25.3670  -15.2430   20.2960 N   0  0  0  0  0  0  0  0  0  0  0  0
  -24.5550  -15.8510   20.3000 H   0  0  0  0  0  0  0  0  0  0  0  0
  -26.1170  -15.5970   19.7190 H   0  0  0  0  0  0  0  0  0  0  0  0
  -29.2330  -24.0670   20.6460 C   0  0  0  0  0  3  0  0  0  0  0  0
  -30.2220  -24.8520   21.4120 N   0  0  0  0  0  4  0  0  0  0  0  0
  -30.7750  -25.3960   20.7700 H   0  0  0  0  0  0  0  0  0  0  0  0
  -30.8400  -24.2510   21.9280 H   0  0  0  0  0  0  0  0  0  0  0  0
  -29.7650  -25.4800   22.0500 H   0  0  0  0  0  0  0  0  0  0  0  0
  -28.1870  -25.0700   19.9920 C   0  0  0  0  0  2  0  0  0  0  0  0
  -28.3590  -26.5230   20.2010 O   0  0  0  0  0  0  0  0  0  0  0  0
  -24.6170  -31.8640   23.2240 C   0  0  0  0  0  0  0  0  0  0  0  0
  -27.2210  -27.3420   20.1400 C   0  0  0  0  0  0  0  0  0  0  0  0
  -23.4010  -30.4720   21.5850 C   0  0  0  0  0  3  0  0  0  0  0  0
  -24.8450  -28.9300   20.1460 C   0  0  0  0  0  0  0  0  0  0  0  0
  -25.9370  -30.7970   21.3890 C   0  0  0  0  0  2  0  0  0  0  0  0
  -26.0140  -29.4230   20.7390 C   0  0  0  0  0  0  0  0  0  0  0  0
  -27.2030  -28.6390   20.7290 C   0  0  0  0  0  3  0  0  0  0  0  0
  -26.0300  -26.9000   19.5130 C   0  0  0  0  0  3  0  0  0  0  0  0
  -24.8540  -27.6700   19.5270 C   0  0  0  0  0  3  0  0  0  0  0  0
  -23.6080  -29.8000   20.2020 C   0  0  0  0  0  2  0  0  0  0  0  0
  -24.6700  -31.0610   22.1230 N   0  0  0  0  0  0  0  0  0  0  0  0
  -23.5370  -32.1410   23.7670 O   0  0  0  0  0  0  0  0  0  0  0  0
  -22.7450  -29.4520   22.5440 C   0  0  0  0  0  0  0  0  0  0  0  0
  -21.4190  -29.2770   22.4240 N   0  0  0  0  0  0  0  0  0  0  0  0
  -23.4280  -28.8210   23.3560 O   0  0  0  0  0  0  0  0  0  0  0  0
  -20.9280  -29.8370   21.7410 H   0  0  0  0  0  0  0  0  0  0  0  0
  -18.0410  -28.0890   22.9300 C   0  0  0  0  0  0  0  0  0  0  0  0
  -20.6010  -28.3410   23.1950 C   0  0  0  0  0  3  0  0  0  0  0  0
  -20.6980  -26.9090   22.6170 C   0  0  0  0  0  2  0  0  0  0  0  0
  -19.5920  -26.5920   21.6050 C   0  0  0  0  0  2  0  0  0  0  0  0
  -18.2120  -26.7410   22.2520 C   0  0  0  0  0  2  0  0  0  0  0  0
  -19.1630  -28.8480   23.3590 C   0  0  0  0  0  0  0  0  0  0  0  0
  -18.9500  -30.1110   23.9520 C   0  0  0  0  0  3  0  0  0  0  0  0
  -17.6470  -30.6160   24.1220 C   0  0  0  0  0  3  0  0  0  0  0  0
  -16.5390  -29.8540   23.7100 C   0  0  0  0  0  3  0  0  0  0  0  0
  -16.7360  -28.5930   23.1200 C   0  0  0  0  0  3  0  0  0  0  0  0
  -25.9060  -32.4900   23.8400 C   0  0  0  0  0  3  0  0  0  0  0  0
  -25.5990  -33.8850   24.1870 N   0  0  0  0  0  0  0  0  0  0  0  0
  -25.9250  -34.9450   23.4360 C   0  0  0  0  0  0  0  0  0  0  0  0
  -26.5860  -34.8520   22.3980 O   0  0  0  0  0  0  0  0  0  0  0  0
  -25.0100  -34.0310   24.9940 H   0  0  0  0  0  0  0  0  0  0  0  0
  -24.1920  -36.7400   23.1150 C   0  0  0  0  0  1  0  0  0  0  0  0
  -25.4410  -36.3280   23.9120 C   0  0  0  0  0  3  0  0  0  0  0  0
  -27.5830  -37.2060   24.7310 C   0  0  0  0  0  1  0  0  0  0  0  0
  -26.4720  -37.3830   23.7990 N   0  0  0  0  0  0  0  0  0  0  0  0
  -26.0670  -38.3020   23.9620 H   0  0  0  0  0  0  0  0  0  0  0  0
  -26.4340  -31.7060   25.1050 C   0  0  1  0  0  0  0  0  0  0  0  0
  -25.3510  -31.4610   26.1810 C   0  0  0  0  0  1  0  0  0  0  0  0
  -27.0120  -30.3310   24.6950 C   0  0  0  0  0  1  0  0  0  0  0  0
  -27.5920  -32.4930   25.7630 C   0  0  0  0  0  1  0  0  0  0  0  0
  1  3  1  0
  1 53  1  0
  2  3  1  0
  3  5  1  0
  4  1  2  0
  6 12  2  0
  7 10  1  0
  8  6  1  0
  8 23  1  0
  9  7  1  0
  9  8  1  0
  9 11  1  0
 10  6  1  0
 10  5  1  1
 10 11  1  0
 11 13  1  0
 14 11  1  0
 15 23  1  0
 16 21  1  0
 17 18  1  0
 17 16  1  0
 19 18  1  0
 19 28  1  0
 19 20  1  0
 21 15  1  0
 21 20  1  0
 22 15  2  0
 23 24  1  0
 25 26  2  0
 26 45  1  0
 27 26  1  0
 27 30  1  0
 28 25  1  0
 28 29  1  0
 29 27  2  0
 30 31  1  0
 31 32  2  0
 33 36  1  0
 33 32  1  0
 34 33  2  0
 35 34  1  0
 35 30  2  0
 36 37  1  0
 37 38  1  0
 38 39  2  0
 40 39  1  0
 40 44  1  0
 41 40  2  0
 42 37  2  0
 42 41  1  0
 43 42  1  0
 45 46  1  0
 46 49  1  0
 46 48  1  0
 47 45  2  0
 50 51  1  0
 50 25  1  0
 52 50  1  0
 53 58  1  0
 53 54  1  0
 54 56  1  0
 54 57  1  0
 55 54  1  0
 58 59  1  0
 60 71  2  0
 61 59  1  0
 61 66  1  0
 62 70  1  0
 62 72  1  0
 63 69  1  0
 63 65  1  0
 64 70  1  0
 65 64  1  0
 66 65  2  0
 67 68  1  0
 67 61  2  0
 68 63  2  0
 69 62  1  0
 70 60  1  0
 72 74  2  0
 73 72  1  0
 75 73  1  0
 76 85  2  0
 76 81  1  0
 77 73  1  0
 77 81  1  0
 78 77  1  0
 79 80  1  0
 79 78  1  0
 80 76  1  0
 81 82  2  0
 82 83  1  0
 84 83  2  0
 85 84  1  0
 86 60  1  0
 86 87  1  0
 86 96  1  0
 87 90  1  0
 88 92  1  0
 88 87  1  0
 89 88  2  0
 92 91  1  0
 94 92  1  0
 94 95  1  0
 94 93  1  0
 96 99  1  1
 96 97  1  0
 98 96  1  0
M  ISO  4  15 100  23 100  58 101  59 101
M  END
>  <TORSDO>  (55) 
F 21

>  <SCORE>  (55) 
-14.045

>  <name>  (55) 
54

>  <ligand_id>  (55) 
54

>  <original_smiles>  (55) 
[H]c1c([H])c([H])c2c(c1[H])C([H])([H])C([H])([H])C([H])([H])C2([H])N([H])C(=O)C1([H])N(C(=O)C([H])(N([H])C(=O)C([H])(N([H])C([H])([H])[H])C([H])([H])[H])C(C([H])([H])[H])(C([H])([H])[H])C([H])([H])[H])C([H])([H])c2c([H])c(OC([H])([H])C([H])(C(=O)N(C([H])([H])[H])C([H])([H])C34C(=O)C([H])(N([H])C(=O)N5C([H])([H])C([H])([H])C([H])([H])C([H])(n6nc(-c7c([H])c([H])c(Oc8c([H])c([H])c(F)c([H])c8F)c([H])c7[H])c(C(=O)N([H])[H])c6N([H])[H])C5([H])[H])C([H])(C3([H])[H])[N+]4([H])[H])[N+]([H])([H])[H])c([H])c([H])c2C1([H])[H]

>  <smiles>  (55) 
[H]c1c([H])c([H])c2c(c1[H])C([H])([H])C([H])([H])C([H])([H])C2([H])N([H])C(=O)C1([H])N(C(=O)C([H])(N([H])C(=O)C([H])(N([H])C([H])([H])[H])C([H])([H])[H])C(C([H])([H])[H])(C([H])([H])[H])C([H])([H])[H])C([H])([H])c2c([H])c(OC([H])([H])C([H])(C(=O)N(C([H])([H])[H])C([H])([H])C34C(=O)C([H])(N([H])C(=O)N5C([H])([H])C([H])([H])C([H])([H])C([H])(n6nc(-c7c([H])c([H])c(Oc8c([H])c([H])c(F)c([H])c8F)c([H])c7[H])c(C(=O)N([H])[H])c6N([H])[H])C5([H])[H])C([H])(C3([H])[H])[N+]4([H])[H])[N+]([H])([H])[H])c([H])c([H])c2C1([H])[H]

$$$$
55:0:0
     RDKit          3D

 96105  0  0  1  0  0  0  0  0999 V2000
  -30.0040  -19.5210   21.7500 C   0  0  0  0  0  3  0  0  0  0  0  0
  -30.2970  -20.9320   21.2470 C   0  0  0  0  0  2  0  0  0  0  0  0
  -31.5750  -17.6720   20.9570 C   0  0  0  0  0  2  0  0  0  0  0  0
  -29.5990  -19.7410   19.0940 C   0  0  0  0  0  2  0  0  0  0  0  0
  -31.2070  -18.6520   22.1320 C   0  0  0  0  0  3  0  0  0  0  0  0
  -29.2640  -18.4140   19.9850 C   0  0  0  0  0  3  0  0  0  0  0  0
  -30.2980  -17.1660   20.2470 C   0  0  0  0  0  3  0  0  0  0  0  0
  -28.9710  -18.9140   21.3210 N   0  0  0  0  0  2  0  0  0  0  0  0
  -29.8350  -21.0940   19.8260 N   0  0  1  0  0  4  0  0  0  0  0  0
  -30.6710  -21.4240   19.3680 H   0  0  0  0  0  0  0  0  0  0  0  0
  -31.1410  -14.7610   19.5840 C   0  0  0  0  0  0  0  0  0  0  0  0
  -30.7730  -12.4800   18.6460 C   0  0  0  0  0  2  0  0  0  0  0  0
  -29.7230  -12.5680   17.5160 C   0  0  0  0  0  2  0  0  0  0  0  0
  -28.2950  -12.4500   18.0940 C   0  0  0  0  0  2  0  0  0  0  0  0
  -28.0650  -13.3950   19.3140 C   0  0  0  0  0  3  0  0  0  0  0  0
  -29.2190  -13.3020   20.3300 C   0  0  0  0  0  2  0  0  0  0  0  0
  -30.4590  -13.5720   19.5880 N   0  0  0  0  0  0  0  0  0  0  0  0
  -32.3500  -14.7970   19.3490 O   0  0  0  0  0  0  0  0  0  0  0  0
  -30.3940  -15.9120   19.3900 N   0  0  0  0  0  0  0  0  0  0  0  0
  -29.7660  -15.8710   18.5740 H   0  0  0  0  0  0  0  0  0  0  0  0
  -25.8150  -14.1170   20.3070 C   0  0  0  0  0  0  0  0  0  0  0  0
  -24.7380  -13.3940   20.7480 C   0  0  0  0  0  0  0  0  0  0  0  0
  -25.1010  -12.0210   20.6140 C   0  0  0  0  0  0  0  0  0  0  0  0
  -26.7630  -13.1800   19.9310 N   0  0  0  0  0  0  0  0  0  0  0  0
  -26.3470  -11.9130   20.1780 N   0  0  0  0  0  0  0  0  0  0  0  0
  -24.3150  -10.7980   20.8140 C   0  0  0  0  0  0  0  0  0  0  0  0
  -24.7190   -9.7990   21.7270 C   0  0  0  0  0  3  0  0  0  0  0  0
  -23.9330   -8.6410   21.9110 C   0  0  0  0  0  3  0  0  0  0  0  0
  -22.7330   -8.4740   21.1810 C   0  0  0  0  0  0  0  0  0  0  0  0
  -22.3500   -9.4590   20.2550 C   0  0  0  0  0  3  0  0  0  0  0  0
  -23.1340  -10.6100   20.0700 C   0  0  0  0  0  3  0  0  0  0  0  0
  -21.9190   -7.3740   21.2750 O   0  0  0  0  0  0  0  0  0  0  0  0
  -21.7770   -6.6840   22.4510 C   0  0  0  0  0  0  0  0  0  0  0  0
  -21.2700   -7.2940   23.6200 C   0  0  0  0  0  3  0  0  0  0  0  0
  -21.0710   -6.5260   24.7850 C   0  0  0  0  0  3  0  0  0  0  0  0
  -21.3750   -5.1510   24.7840 C   0  0  0  0  0  0  0  0  0  0  0  0
  -21.8820   -4.5440   23.6220 C   0  0  0  0  0  3  0  0  0  0  0  0
  -22.0770   -5.3080   22.4580 C   0  0  0  0  0  0  0  0  0  0  0  0
  -22.5420   -4.7110   21.3340 F   0  0  0  0  0  0  0  0  0  0  0  0
  -21.1800   -4.4120   25.9020 F   0  0  0  0  0  0  0  0  0  0  0  0
  -23.4130  -13.9460   21.1840 C   0  0  0  0  0  0  0  0  0  0  0  0
  -22.7320  -13.2560   22.0940 N   0  0  0  0  0  0  0  0  0  0  0  0
  -22.9950  -15.0210   20.7570 O   0  0  0  0  0  0  0  0  0  0  0  0
  -23.0850  -12.3860   22.4660 H   0  0  0  0  0  0  0  0  0  0  0  0
  -21.8460  -13.6080   22.4250 H   0  0  0  0  0  0  0  0  0  0  0  0
  -26.0620  -15.4820   20.1840 N   0  0  0  0  0  0  0  0  0  0  0  0
  -25.3640  -16.1770   20.4210 H   0  0  0  0  0  0  0  0  0  0  0  0
  -26.9130  -15.8950   19.8220 H   0  0  0  0  0  0  0  0  0  0  0  0
  -30.8690  -17.9430   23.3810 N   0  0  0  0  0  4  0  0  0  0  0  0
  -29.9690  -17.5010   23.3050 H   0  0  0  0  0  0  0  0  0  0  0  0
  -30.8230  -18.6120   24.1320 H   0  0  0  0  0  0  0  0  0  0  0  0
  -31.5540  -17.2500   23.6190 H   0  0  0  0  0  0  0  0  0  0  0  0
  -28.8230  -22.2440   19.6250 C   0  0  0  0  0  2  0  0  0  0  0  0
  -29.2520  -23.7870   19.8930 C   0  0  0  0  0  3  0  0  0  0  0  0
  -28.2200  -24.9350   19.4310 C   0  0  0  0  0  3  0  0  0  0  0  0
  -28.4190  -26.3960   19.7140 O   0  0  0  0  0  0  0  0  0  0  0  0
  -24.6090  -31.5900   23.0600 C   0  0  0  0  0  0  0  0  0  0  0  0
  -27.2910  -27.2510   19.7050 C   0  0  0  0  0  0  0  0  0  0  0  0
  -23.4170  -30.2250   21.3850 C   0  0  0  0  0  3  0  0  0  0  0  0
  -24.8860  -28.8040   19.8470 C   0  0  0  0  0  0  0  0  0  0  0  0
  -25.9470  -30.6360   21.1610 C   0  0  0  0  0  2  0  0  0  0  0  0
  -26.0550  -29.2920   20.4460 C   0  0  0  0  0  0  0  0  0  0  0  0
  -27.2620  -28.5260   20.3640 C   0  0  0  0  0  3  0  0  0  0  0  0
  -26.0970  -26.8430   19.0610 C   0  0  0  0  0  3  0  0  0  0  0  0
  -24.9110  -27.5960   19.1400 C   0  0  0  0  0  3  0  0  0  0  0  0
  -23.6190  -29.6260   19.9690 C   0  0  0  0  0  2  0  0  0  0  0  0
  -24.6790  -30.8340   21.9250 N   0  0  0  0  0  0  0  0  0  0  0  0
  -23.5280  -31.7970   23.6320 O   0  0  0  0  0  0  0  0  0  0  0  0
  -22.8210  -29.1390   22.3110 C   0  0  0  0  0  0  0  0  0  0  0  0
  -21.5100  -28.8720   22.1660 N   0  0  0  0  0  0  0  0  0  0  0  0
  -23.5370  -28.5390   23.1160 O   0  0  0  0  0  0  0  0  0  0  0  0
  -20.9900  -29.4200   21.4970 H   0  0  0  0  0  0  0  0  0  0  0  0
  -18.2320  -27.3810   22.5450 C   0  0  0  0  0  0  0  0  0  0  0  0
  -20.7490  -27.8550   22.8940 C   0  0  0  0  0  3  0  0  0  0  0  0
  -20.9890  -26.4420   22.3110 C   0  0  0  0  0  2  0  0  0  0  0  0
  -19.9540  -26.0380   21.2580 C   0  0  0  0  0  2  0  0  0  0  0  0
  -18.5460  -26.0580   21.8620 C   0  0  0  0  0  2  0  0  0  0  0  0
  -19.2680  -28.2310   23.0160 C   0  0  0  0  0  0  0  0  0  0  0  0
  -18.9260  -29.4630   23.6140 C   0  0  0  0  0  3  0  0  0  0  0  0
  -17.5790  -29.8520   23.7430 C   0  0  0  0  0  3  0  0  0  0  0  0
  -16.5570  -29.0020   23.2910 C   0  0  0  0  0  3  0  0  0  0  0  0
  -16.8830  -27.7660   22.7030 C   0  0  0  0  0  3  0  0  0  0  0  0
  -25.8790  -32.2520   23.6820 C   0  0  0  0  0  3  0  0  0  0  0  0
  -26.4390  -31.4640   24.9300 C   0  0  1  0  0  0  0  0  0  0  0  0
  -25.3690  -31.1490   26.0020 C   0  0  0  0  0  1  0  0  0  0  0  0
  -27.0650  -30.1240   24.4890 C   0  0  0  0  0  1  0  0  0  0  0  0
  -27.5730  -32.2760   25.6000 C   0  0  0  0  0  1  0  0  0  0  0  0
  -25.5290  -33.6290   24.0600 N   0  0  0  0  0  0  0  0  0  0  0  0
  -25.8240  -34.7150   23.3330 C   0  0  0  0  0  0  0  0  0  0  0  0
  -26.4870  -34.6610   22.2920 O   0  0  0  0  0  0  0  0  0  0  0  0
  -24.9410  -33.7430   24.8730 H   0  0  0  0  0  0  0  0  0  0  0  0
  -24.0470  -36.4750   23.0490 C   0  0  0  0  0  1  0  0  0  0  0  0
  -25.3030  -36.0740   23.8400 C   0  0  0  0  0  3  0  0  0  0  0  0
  -27.4090  -36.9920   24.7070 C   0  0  0  0  0  1  0  0  0  0  0  0
  -26.3080  -37.1580   23.7620 N   0  0  0  0  0  0  0  0  0  0  0  0
  -25.8770  -38.0620   23.9320 H   0  0  0  0  0  0  0  0  0  0  0  0
  1  2  1  0
  1  5  1  0
  3  5  1  0
  4  9  1  0
  5 49  1  0
  6  4  1  0
  6  7  1  0
  6  8  1  0
  7 19  1  0
  7  3  1  0
  8  1  1  0
  9  2  1  0
  9 10  1  6
 11 17  1  0
 12 17  1  0
 13 14  1  0
 13 12  1  0
 15 14  1  0
 15 24  1  0
 15 16  1  0
 17 16  1  0
 18 11  2  0
 19 11  1  0
 20 19  1  0
 21 22  2  0
 22 41  1  0
 23 22  1  0
 23 26  1  0
 24 25  1  0
 24 21  1  0
 25 23  2  0
 26 27  1  0
 27 28  2  0
 29 32  1  0
 29 28  1  0
 30 29  2  0
 31 30  1  0
 31 26  2  0
 32 33  1  0
 33 38  2  0
 33 34  1  0
 34 35  2  0
 36 35  1  0
 36 40  1  0
 37 36  2  0
 38 37  1  0
 39 38  1  0
 41 42  1  0
 42 45  1  0
 42 44  1  0
 43 41  2  0
 46 21  1  0
 46 47  1  0
 48 46  1  0
 49 52  1  0
 49 51  1  0
 50 49  1  0
 53  9  1  0
 53 54  1  0
 55 56  1  0
 55 54  2  0
 57 68  2  0
 58 56  1  0
 58 63  1  0
 59 67  1  0
 59 69  1  0
 60 66  1  0
 60 62  1  0
 61 67  1  0
 62 61  1  0
 63 62  2  0
 64 65  1  0
 64 58  2  0
 65 60  2  0
 66 59  1  0
 67 57  1  0
 69 71  2  0
 70 69  1  0
 72 70  1  0
 73 82  2  0
 73 78  1  0
 74 70  1  0
 74 78  1  0
 75 74  1  0
 76 77  1  0
 76 75  1  0
 77 73  1  0
 78 79  2  0
 79 80  1  0
 81 80  2  0
 82 81  1  0
 83 57  1  0
 83 88  1  0
 83 84  1  0
 84 87  1  1
 84 85  1  0
 86 84  1  0
 88 91  1  0
 89 93  1  0
 89 88  1  0
 90 89  2  0
 93 92  1  0
 95 93  1  0
 95 96  1  0
 95 94  1  0
M  ISO  4  11 100  19 100  55 101  56 101
M  END
>  <TORSDO>  (56) 
F 20

>  <SCORE>  (56) 
-12.251

>  <name>  (56) 
55

>  <ligand_id>  (56) 
55

>  <original_smiles>  (56) 
[H]c1c([H])c([H])c2c(c1[H])C([H])([H])C([H])([H])C([H])([H])C2([H])N([H])C(=O)C1([H])N(C(=O)C([H])(N([H])C(=O)C([H])(N([H])C([H])([H])[H])C([H])([H])[H])C(C([H])([H])[H])(C([H])([H])[H])C([H])([H])[H])C([H])([H])c2c([H])c(OC([H])([H])C([H])([H])C([H])([H])[N+]3([H])C([H])([H])C4=NC([H])(C([H])(N([H])C(=O)N5C([H])([H])C([H])([H])C([H])([H])C([H])(n6nc(-c7c([H])c([H])c(Oc8c([H])c([H])c(F)c([H])c8F)c([H])c7[H])c(C(=O)N([H])[H])c6N([H])[H])C5([H])[H])C([H])([H])C4([H])[N+]([H])([H])[H])C3([H])[H])c([H])c([H])c2C1([H])[H]

>  <smiles>  (56) 
[H]c1c([H])c([H])c2c(c1[H])C([H])([H])C([H])([H])C([H])([H])C2([H])N([H])C(=O)C1([H])N(C(=O)C([H])(N([H])C(=O)C([H])(N([H])C([H])([H])[H])C([H])([H])[H])C(C([H])([H])[H])(C([H])([H])[H])C([H])([H])[H])C([H])([H])c2c([H])c(OC([H])([H])C([H])([H])C([H])([H])[N+]3([H])C([H])([H])C4=NC([H])(C([H])(N([H])C(=O)N5C([H])([H])C([H])([H])C([H])([H])C([H])(n6nc(-c7c([H])c([H])c(Oc8c([H])c([H])c(F)c([H])c8F)c([H])c7[H])c(C(=O)N([H])[H])c6N([H])[H])C5([H])[H])C([H])([H])C4([H])[N+]([H])([H])[H])C3([H])[H])c([H])c([H])c2C1([H])[H]

$$$$
56:0:0
     RDKit          3D

105114  0  0  1  0  0  0  0  0999 V2000
  -29.2920  -23.0720   20.5980 C   0  0  0  0  0  0  0  0  0  0  0  0
  -29.8480  -21.9270   20.1630 N   0  0  0  0  0  0  0  0  0  0  0  0
  -28.1030  -23.3460   20.4150 O   0  0  0  0  0  0  0  0  0  0  0  0
  -30.8310  -21.7890   20.3470 H   0  0  0  0  0  0  0  0  0  0  0  0
  -29.8080  -23.3680   23.6460 C   0  0  0  0  0  2  0  0  0  0  0  0
  -30.8840  -23.3810   22.5670 C   0  0  0  0  0  2  0  0  0  0  0  0
  -29.1060  -24.7100   23.4320 C   0  0  0  0  0  2  0  0  0  0  0  0
  -30.1820  -24.0670   21.3820 C   0  0  0  0  0  3  0  0  0  0  0  0
  -29.3150  -25.1120   22.0050 N   0  0  2  0  0  4  0  0  0  0  0  0
  -28.4390  -24.9450   21.5160 H   0  0  0  0  0  0  0  0  0  0  0  0
  -28.8900  -27.4700   22.7990 C   0  0  0  0  0  1  0  0  0  0  0  0
  -31.1780  -26.8220   22.0310 C   0  0  0  0  0  1  0  0  0  0  0  0
  -29.6650  -26.5720   21.7970 C   0  0  1  0  0  0  0  0  0  0  0  0
  -29.3180  -27.0470   20.3500 C   0  0  0  0  0  2  0  0  0  0  0  0
  -28.0170  -26.6530   19.9160 O   0  0  0  0  0  0  0  0  0  0  0  0
  -24.3840  -31.8990   23.1840 C   0  0  0  0  0  0  0  0  0  0  0  0
  -26.9250  -27.4950   19.9890 C   0  0  0  0  0  0  0  0  0  0  0  0
  -23.1270  -30.5540   21.5280 C   0  0  0  0  0  3  0  0  0  0  0  0
  -24.5370  -29.0190   20.0580 C   0  0  0  0  0  0  0  0  0  0  0  0
  -25.6510  -30.8830   21.2960 C   0  0  0  0  0  2  0  0  0  0  0  0
  -25.7100  -29.5260   20.6300 C   0  0  0  0  0  0  0  0  0  0  0  0
  -26.9070  -28.7820   20.5830 C   0  0  0  0  0  3  0  0  0  0  0  0
  -25.7300  -26.9990   19.4270 C   0  0  0  0  0  3  0  0  0  0  0  0
  -24.5420  -27.7520   19.4490 C   0  0  0  0  0  3  0  0  0  0  0  0
  -23.3050  -29.8920   20.1340 C   0  0  0  0  0  2  0  0  0  0  0  0
  -24.4080  -31.1230   22.0630 N   0  0  0  0  0  0  0  0  0  0  0  0
  -23.3160  -32.1790   23.7450 O   0  0  0  0  0  0  0  0  0  0  0  0
  -22.4700  -29.5290   22.4780 C   0  0  0  0  0  0  0  0  0  0  0  0
  -21.1420  -29.3690   22.3570 N   0  0  0  0  0  0  0  0  0  0  0  0
  -23.1510  -28.8800   23.2770 O   0  0  0  0  0  0  0  0  0  0  0  0
  -20.6540  -29.9430   21.6840 H   0  0  0  0  0  0  0  0  0  0  0  0
  -17.7510  -28.2280   22.8620 C   0  0  0  0  0  0  0  0  0  0  0  0
  -20.3170  -28.4310   23.1170 C   0  0  0  0  0  3  0  0  0  0  0  0
  -20.3880  -27.0100   22.5120 C   0  0  0  0  0  2  0  0  0  0  0  0
  -19.2700  -26.7280   21.5020 C   0  0  0  0  0  2  0  0  0  0  0  0
  -17.8980  -26.8880   22.1600 C   0  0  0  0  0  2  0  0  0  0  0  0
  -18.8890  -28.9590   23.2980 C   0  0  0  0  0  0  0  0  0  0  0  0
  -18.7010  -30.2150   23.9140 C   0  0  0  0  0  3  0  0  0  0  0  0
  -17.4090  -30.7400   24.1010 C   0  0  0  0  0  3  0  0  0  0  0  0
  -16.2850  -30.0050   23.6830 C   0  0  0  0  0  3  0  0  0  0  0  0
  -16.4580  -28.7510   23.0680 C   0  0  0  0  0  3  0  0  0  0  0  0
  -25.6900  -32.4890   23.8010 C   0  0  0  0  0  3  0  0  0  0  0  0
  -25.4180  -33.8880   24.1570 N   0  0  0  0  0  0  0  0  0  0  0  0
  -25.7860  -34.9430   23.4180 C   0  0  0  0  0  0  0  0  0  0  0  0
  -26.4590  -34.8400   22.3890 O   0  0  0  0  0  0  0  0  0  0  0  0
  -24.8240  -34.0440   24.9580 H   0  0  0  0  0  0  0  0  0  0  0  0
  -24.1110  -36.7860   23.0850 C   0  0  0  0  0  1  0  0  0  0  0  0
  -25.3340  -36.3360   23.8980 C   0  0  0  0  0  3  0  0  0  0  0  0
  -27.4860  -37.1440   24.7600 C   0  0  0  0  0  1  0  0  0  0  0  0
  -26.3960  -37.3620   23.8110 N   0  0  0  0  0  0  0  0  0  0  0  0
  -26.0150  -38.2900   23.9730 H   0  0  0  0  0  0  0  0  0  0  0  0
  -26.2070  -31.6820   25.0550 C   0  0  1  0  0  0  0  0  0  0  0  0
  -25.1190  -31.4400   26.1260 C   0  0  0  0  0  1  0  0  0  0  0  0
  -26.7640  -30.3050   24.6220 C   0  0  0  0  0  1  0  0  0  0  0  0
  -27.3770  -32.4410   25.7210 C   0  0  0  0  0  1  0  0  0  0  0  0
  -29.1630  -20.8610   19.4260 C   0  0  0  0  0  2  0  0  0  0  0  0
  -28.5290  -18.6370   20.4520 C   0  0  0  0  0  3  0  0  0  0  0  0
  -28.7660  -17.2910   20.7930 C   0  0  0  0  0  3  0  0  0  0  0  0
  -31.0540  -17.5060   20.0160 C   0  0  0  0  0  3  0  0  0  0  0  0
  -30.8250  -18.8590   19.6610 C   0  0  0  0  0  0  0  0  0  0  0  0
  -29.5350  -19.4330   19.8600 C   0  0  0  0  0  0  0  0  0  0  0  0
  -30.0210  -16.6970   20.5500 C   0  0  0  0  0  0  0  0  0  0  0  0
  -30.7840  -14.3650   20.1130 C   0  0  0  0  0  0  0  0  0  0  0  0
  -30.4130  -12.2330   18.9290 C   0  0  0  0  0  2  0  0  0  0  0  0
  -29.4160  -12.4810   17.7780 C   0  0  0  0  0  2  0  0  0  0  0  0
  -27.9610  -12.3610   18.2710 C   0  0  0  0  0  2  0  0  0  0  0  0
  -27.7000  -13.1750   19.5670 C   0  0  0  0  0  3  0  0  0  0  0  0
  -28.7980  -12.8910   20.6170 C   0  0  0  0  0  2  0  0  0  0  0  0
  -30.1060  -13.1890   20.0050 N   0  0  0  0  0  0  0  0  0  0  0  0
  -31.8580  -14.5710   19.5400 O   0  0  0  0  0  0  0  0  0  0  0  0
  -30.1570  -15.3050   20.8440 N   0  0  0  0  0  0  0  0  0  0  0  0
  -29.4040  -14.9230   21.3940 H   0  0  0  0  0  0  0  0  0  0  0  0
  -25.3440  -13.8140   20.3870 C   0  0  0  0  0  0  0  0  0  0  0  0
  -24.2810  -13.0540   20.7960 C   0  0  0  0  0  0  0  0  0  0  0  0
  -24.7180  -11.6960   20.7290 C   0  0  0  0  0  0  0  0  0  0  0  0
  -26.3630  -12.9180   20.0990 N   0  0  0  0  0  0  0  0  0  0  0  0
  -25.9900  -11.6390   20.3600 N   0  0  0  0  0  0  0  0  0  0  0  0
  -23.9800  -10.4420   20.9410 C   0  0  0  0  0  0  0  0  0  0  0  0
  -24.4140   -9.4810   21.8790 C   0  0  0  0  0  3  0  0  0  0  0  0
  -23.6800   -8.2920   22.0760 C   0  0  0  0  0  3  0  0  0  0  0  0
  -22.4980   -8.0560   21.3360 C   0  0  0  0  0  0  0  0  0  0  0  0
  -22.0830   -9.0070   20.3860 C   0  0  0  0  0  3  0  0  0  0  0  0
  -22.8180  -10.1870   20.1870 C   0  0  0  0  0  3  0  0  0  0  0  0
  -21.7350   -6.9180   21.4420 O   0  0  0  0  0  0  0  0  0  0  0  0
  -21.6580   -6.2100   22.6140 C   0  0  0  0  0  0  0  0  0  0  0  0
  -21.2080   -6.8030   23.8140 C   0  0  0  0  0  3  0  0  0  0  0  0
  -21.0780   -6.0210   24.9790 C   0  0  0  0  0  3  0  0  0  0  0  0
  -21.3880   -4.6470   24.9450 C   0  0  0  0  0  0  0  0  0  0  0  0
  -21.8300   -4.0550   23.7490 C   0  0  0  0  0  3  0  0  0  0  0  0
  -21.9610   -4.8340   22.5860 C   0  0  0  0  0  0  0  0  0  0  0  0
  -22.3680   -4.2540   21.4320 F   0  0  0  0  0  0  0  0  0  0  0  0
  -21.2550   -3.8950   26.0620 F   0  0  0  0  0  0  0  0  0  0  0  0
  -22.9050  -13.5490   21.1400 C   0  0  0  0  0  0  0  0  0  0  0  0
  -22.2090  -12.8570   22.0350 N   0  0  0  0  0  0  0  0  0  0  0  0
  -22.4580  -14.5850   20.6500 O   0  0  0  0  0  0  0  0  0  0  0  0
  -22.5860  -12.0190   22.4520 H   0  0  0  0  0  0  0  0  0  0  0  0
  -21.2880  -13.1700   22.3060 H   0  0  0  0  0  0  0  0  0  0  0  0
  -25.5220  -15.1830   20.2160 N   0  0  0  0  0  0  0  0  0  0  0  0
  -24.7690  -15.8470   20.3610 H   0  0  0  0  0  0  0  0  0  0  0  0
  -26.3570  -15.6090   19.8360 H   0  0  0  0  0  0  0  0  0  0  0  0
  -31.9490  -19.6250   19.0230 C   0  0  0  0  0  0  0  0  0  0  0  0
  -33.1030  -19.5920   19.6740 N   0  0  0  0  0  0  0  0  0  0  0  0
  -31.8010  -20.2710   17.9880 O   0  0  0  0  0  0  0  0  0  0  0  0
  -33.1800  -19.0740   20.5360 H   0  0  0  0  0  0  0  0  0  0  0  0
  -33.9080  -20.0820   19.3120 H   0  0  0  0  0  0  0  0  0  0  0  0
  2  4  1  0
  2  1  1  0
  3  1  2  0
  6  5  1  0
  7  5  1  0
  8  1  1  0
  8  9  1  0
  8  6  1  0
  9  7  1  0
  9 10  1  6
 13  9  1  0
 13 12  1  1
 13 11  1  0
 14 13  1  0
 15 17  1  0
 15 14  1  0
 16 27  2  0
 17 22  1  0
 18 26  1  0
 18 28  1  0
 19 25  1  0
 19 21  1  0
 20 26  1  0
 21 20  1  0
 22 21  2  0
 23 24  1  0
 23 17  2  0
 24 19  2  0
 25 18  1  0
 26 16  1  0
 28 30  2  0
 29 28  1  0
 31 29  1  0
 32 41  2  0
 32 37  1  0
 33 29  1  0
 33 37  1  0
 34 33  1  0
 35 36  1  0
 35 34  1  0
 36 32  1  0
 37 38  2  0
 38 39  1  0
 40 39  2  0
 41 40  1  0
 42 16  1  0
 42 43  1  0
 42 52  1  0
 43 46  1  0
 44 48  1  0
 44 43  1  0
 45 44  2  0
 48 47  1  0
 50 48  1  0
 50 51  1  0
 50 49  1  0
 52 55  1  1
 52 53  1  0
 54 52  1  0
 56 61  1  0
 56  2  1  0
 57 58  1  0
 59 62  1  0
 60 61  1  0
 60 59  2  0
 61 57  2  0
 62 58  2  0
 62 71  1  0
 63 71  1  0
 64 69  1  0
 65 66  1  0
 65 64  1  0
 67 66  1  0
 67 76  1  0
 67 68  1  0
 69 63  1  0
 69 68  1  0
 70 63  2  0
 71 72  1  0
 73 74  2  0
 74 93  1  0
 75 74  1  0
 75 78  1  0
 76 77  1  0
 76 73  1  0
 77 75  2  0
 78 79  1  0
 79 80  2  0
 81 84  1  0
 81 80  1  0
 82 81  2  0
 83 82  1  0
 83 78  2  0
 84 85  1  0
 85 86  1  0
 86 87  2  0
 88 87  1  0
 88 92  1  0
 89 88  2  0
 90 85  2  0
 90 89  1  0
 91 90  1  0
 93 94  1  0
 94 97  1  0
 94 96  1  0
 95 93  2  0
 98 99  1  0
 98 73  1  0
100 98  1  0
101 60  1  0
101102  1  0
102104  1  0
103101  2  0
105102  1  0
M  ISO  4  14 101  15 101  63 100  71 100
M  END
>  <TORSDO>  (57) 
F 22

>  <SCORE>  (57) 
-12.579

>  <name>  (57) 
56

>  <ligand_id>  (57) 
56

>  <original_smiles>  (57) 
[H]c1c([H])c([H])c2c(c1[H])C([H])([H])C([H])([H])C([H])([H])C2([H])N([H])C(=O)C1([H])N(C(=O)C([H])(N([H])C(=O)C([H])(N([H])C([H])([H])[H])C([H])([H])[H])C(C([H])([H])[H])(C([H])([H])[H])C([H])([H])[H])C([H])([H])c2c([H])c(OC([H])([H])C(C([H])([H])[H])(C([H])([H])[H])[N+]3([H])C([H])([H])C([H])([H])C([H])([H])C3([H])C(=O)N([H])C([H])([H])c3c([H])c([H])c(N([H])C(=O)N4C([H])([H])C([H])([H])C([H])([H])C([H])(n5nc(-c6c([H])c([H])c(Oc7c([H])c([H])c(F)c([H])c7F)c([H])c6[H])c(C(=O)N([H])[H])c5N([H])[H])C4([H])[H])c([H])c3C(=O)N([H])[H])c([H])c([H])c2C1([H])[H]

>  <smiles>  (57) 
[H]c1c([H])c([H])c2c(c1[H])C([H])([H])C([H])([H])C([H])([H])C2([H])N([H])C(=O)C1([H])N(C(=O)C([H])(N([H])C(=O)C([H])(N([H])C([H])([H])[H])C([H])([H])[H])C(C([H])([H])[H])(C([H])([H])[H])C([H])([H])[H])C([H])([H])c2c([H])c(OC([H])([H])C(C([H])([H])[H])(C([H])([H])[H])[N+]3([H])C([H])([H])C([H])([H])C([H])([H])C3([H])C(=O)N([H])C([H])([H])c3c([H])c([H])c(N([H])C(=O)N4C([H])([H])C([H])([H])C([H])([H])C([H])(n5nc(-c6c([H])c([H])c(Oc7c([H])c([H])c(F)c([H])c7F)c([H])c6[H])c(C(=O)N([H])[H])c5N([H])[H])C4([H])[H])c([H])c3C(=O)N([H])[H])c([H])c([H])c2C1([H])[H]

$$$$
57:0:0
     RDKit          3D

 95104  0  0  1  0  0  0  0  0999 V2000
  -31.3470  -19.8230   21.1370 C   0  0  0  0  0  3  0  0  0  0  0  0
  -29.6330  -21.0130   19.8860 C   0  0  0  0  0  3  0  0  0  0  0  0
  -31.5470  -22.2310   20.7820 C   0  0  0  0  0  3  0  0  0  0  0  0
  -30.1280  -19.8110   20.4290 C   0  0  0  0  0  0  0  0  0  0  0  0
  -32.0580  -21.0280   21.3080 C   0  0  0  0  0  0  0  0  0  0  0  0
  -30.3180  -22.2290   20.0820 C   0  0  0  0  0  0  0  0  0  0  0  0
  -33.3540  -21.0310   22.0880 C   0  0  0  0  0  1  0  0  0  0  0  0
  -30.6840  -14.4650   20.1260 C   0  0  0  0  0  0  0  0  0  0  0  0
  -30.3100  -12.3360   18.9820 C   0  0  0  0  0  2  0  0  0  0  0  0
  -29.3300  -12.6200   17.8230 C   0  0  0  0  0  2  0  0  0  0  0  0
  -27.8690  -12.5040   18.3030 C   0  0  0  0  0  2  0  0  0  0  0  0
  -27.5930  -13.2750   19.6230 C   0  0  0  0  0  3  0  0  0  0  0  0
  -28.6990  -13.0250   20.6740 C   0  0  0  0  0  2  0  0  0  0  0  0
  -29.9980  -13.2990   20.0420 N   0  0  0  0  0  0  0  0  0  0  0  0
  -31.8510  -14.6060   19.7470 O   0  0  0  0  0  0  0  0  0  0  0  0
  -29.9360  -17.7400   19.0350 C   0  0  0  0  0  2  0  0  0  0  0  0
  -29.2400  -17.6490   21.4960 C   0  0  0  0  0  2  0  0  0  0  0  0
  -29.4960  -16.2740   19.0500 C   0  0  0  0  0  2  0  0  0  0  0  0
  -30.1160  -16.3780   21.4780 C   0  0  0  0  0  2  0  0  0  0  0  0
  -29.3540  -18.5180   20.2210 C   0  0  0  0  0  3  0  0  0  0  0  0
  -29.9030  -15.5540   20.2800 N   0  0  0  0  0  0  0  0  0  0  0  0
  -25.2310  -13.8840   20.4360 C   0  0  0  0  0  0  0  0  0  0  0  0
  -24.1740  -13.1080   20.8340 C   0  0  0  0  0  0  0  0  0  0  0  0
  -24.6320  -11.7580   20.7680 C   0  0  0  0  0  0  0  0  0  0  0  0
  -26.2620  -13.0010   20.1530 N   0  0  0  0  0  0  0  0  0  0  0  0
  -25.9100  -11.7180   20.4110 N   0  0  0  0  0  0  0  0  0  0  0  0
  -23.9150  -10.4940   20.9660 C   0  0  0  0  0  0  0  0  0  0  0  0
  -24.3650   -9.5310   21.8950 C   0  0  0  0  0  3  0  0  0  0  0  0
  -23.6480   -8.3290   22.0820 C   0  0  0  0  0  3  0  0  0  0  0  0
  -22.4680   -8.0840   21.3410 C   0  0  0  0  0  0  0  0  0  0  0  0
  -22.0410   -9.0360   20.3990 C   0  0  0  0  0  3  0  0  0  0  0  0
  -22.7570  -10.2290   20.2100 C   0  0  0  0  0  3  0  0  0  0  0  0
  -21.7210   -6.9350   21.4380 O   0  0  0  0  0  0  0  0  0  0  0  0
  -21.6600   -6.2130   22.6030 C   0  0  0  0  0  0  0  0  0  0  0  0
  -21.1890   -6.7800   23.8080 C   0  0  0  0  0  3  0  0  0  0  0  0
  -21.0790   -5.9840   24.9660 C   0  0  0  0  0  3  0  0  0  0  0  0
  -21.4250   -4.6200   24.9180 C   0  0  0  0  0  0  0  0  0  0  0  0
  -21.8870   -4.0520   23.7180 C   0  0  0  0  0  3  0  0  0  0  0  0
  -22.0020   -4.8470   22.5640 C   0  0  0  0  0  0  0  0  0  0  0  0
  -22.4280   -4.2900   21.4040 F   0  0  0  0  0  0  0  0  0  0  0  0
  -21.3110   -3.8520   26.0260 F   0  0  0  0  0  0  0  0  0  0  0  0
  -22.7890  -13.5830   21.1610 C   0  0  0  0  0  0  0  0  0  0  0  0
  -22.0910  -12.8740   22.0430 N   0  0  0  0  0  0  0  0  0  0  0  0
  -22.3320  -14.6130   20.6690 O   0  0  0  0  0  0  0  0  0  0  0  0
  -22.4800  -12.0490   22.4730 H   0  0  0  0  0  0  0  0  0  0  0  0
  -21.1560  -13.1640   22.2910 H   0  0  0  0  0  0  0  0  0  0  0  0
  -25.3870  -15.2560   20.2730 N   0  0  0  0  0  0  0  0  0  0  0  0
  -24.6220  -15.9060   20.4260 H   0  0  0  0  0  0  0  0  0  0  0  0
  -26.2380  -15.7070   19.9610 H   0  0  0  0  0  0  0  0  0  0  0  0
  -29.6670  -24.6270   20.0900 C   0  0  0  0  0  0  0  0  0  0  0  0
  -29.7210  -23.3970   19.5530 N   0  0  0  0  0  0  0  0  0  0  0  0
  -30.3810  -25.0210   21.0180 O   0  0  0  0  0  0  0  0  0  0  0  0
  -29.0690  -23.2510   18.7940 H   0  0  0  0  0  0  0  0  0  0  0  0
  -28.6040  -25.5320   19.4720 C   0  0  0  0  0  2  0  0  0  0  0  0
  -28.5110  -26.7730   20.1790 O   0  0  0  0  0  0  0  0  0  0  0  0
  -24.6180  -31.8640   23.2310 C   0  0  0  0  0  0  0  0  0  0  0  0
  -27.3110  -27.4540   20.1520 C   0  0  0  0  0  0  0  0  0  0  0  0
  -23.4330  -30.4680   21.5700 C   0  0  0  0  0  3  0  0  0  0  0  0
  -24.9060  -28.9470   20.1530 C   0  0  0  0  0  0  0  0  0  0  0  0
  -25.9610  -30.8330   21.4030 C   0  0  0  0  0  2  0  0  0  0  0  0
  -26.0530  -29.4650   20.7650 C   0  0  0  0  0  0  0  0  0  0  0  0
  -27.2510  -28.7190   20.7780 C   0  0  0  0  0  3  0  0  0  0  0  0
  -26.1400  -26.9530   19.5320 C   0  0  0  0  0  3  0  0  0  0  0  0
  -24.9410  -27.6850   19.5450 C   0  0  0  0  0  3  0  0  0  0  0  0
  -23.6620  -29.8050   20.1870 C   0  0  0  0  0  2  0  0  0  0  0  0
  -24.6890  -31.0700   22.1270 N   0  0  0  0  0  0  0  0  0  0  0  0
  -23.5300  -32.1280   23.7620 O   0  0  0  0  0  0  0  0  0  0  0  0
  -22.7810  -29.4340   22.5140 C   0  0  0  0  0  0  0  0  0  0  0  0
  -21.4540  -29.2650   22.3890 N   0  0  0  0  0  0  0  0  0  0  0  0
  -23.4630  -28.7870   23.3140 O   0  0  0  0  0  0  0  0  0  0  0  0
  -20.9660  -29.8450   21.7220 H   0  0  0  0  0  0  0  0  0  0  0  0
  -18.0630  -28.1300   22.9050 C   0  0  0  0  0  0  0  0  0  0  0  0
  -20.6290  -28.3240   23.1450 C   0  0  0  0  0  3  0  0  0  0  0  0
  -20.6940  -26.9060   22.5320 C   0  0  0  0  0  2  0  0  0  0  0  0
  -19.5700  -26.6340   21.5270 C   0  0  0  0  0  2  0  0  0  0  0  0
  -18.2000  -26.7930   22.1940 C   0  0  0  0  0  2  0  0  0  0  0  0
  -19.2040  -28.8550   23.3380 C   0  0  0  0  0  0  0  0  0  0  0  0
  -19.0240  -30.1100   23.9590 C   0  0  0  0  0  3  0  0  0  0  0  0
  -17.7340  -30.6380   24.1540 C   0  0  0  0  0  3  0  0  0  0  0  0
  -16.6070  -29.9080   23.7370 C   0  0  0  0  0  3  0  0  0  0  0  0
  -16.7720  -28.6570   23.1170 C   0  0  0  0  0  3  0  0  0  0  0  0
  -25.8950  -32.4960   23.8660 C   0  0  0  0  0  3  0  0  0  0  0  0
  -25.5810  -33.8920   24.1960 N   0  0  0  0  0  0  0  0  0  0  0  0
  -25.9060  -34.9450   23.4350 C   0  0  0  0  0  0  0  0  0  0  0  0
  -26.5760  -34.8450   22.4020 O   0  0  0  0  0  0  0  0  0  0  0  0
  -24.9880  -34.0450   24.9980 H   0  0  0  0  0  0  0  0  0  0  0  0
  -24.1600  -36.7190   23.0830 C   0  0  0  0  0  1  0  0  0  0  0  0
  -25.4080  -36.3310   23.8900 C   0  0  0  0  0  3  0  0  0  0  0  0
  -27.5350  -37.2370   24.7150 C   0  0  0  0  0  1  0  0  0  0  0  0
  -26.4320  -37.3910   23.7700 N   0  0  0  0  0  0  0  0  0  0  0  0
  -26.0190  -38.3110   23.9130 H   0  0  0  0  0  0  0  0  0  0  0  0
  -26.4020  -31.7190   25.1410 C   0  0  1  0  0  0  0  0  0  0  0  0
  -25.3010  -31.4670   26.1980 C   0  0  0  0  0  1  0  0  0  0  0  0
  -26.9940  -30.3500   24.7370 C   0  0  0  0  0  1  0  0  0  0  0  0
  -27.5410  -32.5160   25.8200 C   0  0  0  0  0  1  0  0  0  0  0  0
  1  5  1  0
  2  6  2  0
  2  4  1  0
  3  5  2  0
  4  1  2  0
  5  7  1  0
  6  3  1  0
  8 21  1  0
  9 14  1  0
 10 11  1  0
 10  9  1  0
 12 11  1  0
 12 25  1  0
 12 13  1  0
 14  8  1  0
 14 13  1  0
 15  8  2  0
 16 18  1  0
 16 20  1  0
 18 21  1  0
 19 17  1  0
 20  4  1  0
 20 17  1  0
 21 19  1  0
 22 23  2  0
 23 42  1  0
 24 23  1  0
 24 27  1  0
 25 26  1  0
 25 22  1  0
 26 24  2  0
 27 28  1  0
 28 29  2  0
 30 33  1  0
 30 29  1  0
 31 30  2  0
 32 31  1  0
 32 27  2  0
 33 34  1  0
 34 35  1  0
 35 36  2  0
 37 36  1  0
 37 41  1  0
 38 37  2  0
 39 34  2  0
 39 38  1  0
 40 39  1  0
 42 43  1  0
 43 46  1  0
 43 45  1  0
 44 42  2  0
 47 48  1  0
 47 22  1  0
 49 47  1  0
 50 52  2  0
 51  6  1  0
 51 50  1  0
 53 51  1  0
 54 50  1  0
 54 55  1  0
 56 67  2  0
 57 55  1  0
 57 62  1  0
 58 66  1  0
 58 68  1  0
 59 65  1  0
 59 61  1  0
 60 66  1  0
 61 62  2  0
 61 60  1  0
 63 64  1  0
 63 57  2  0
 64 59  2  0
 65 58  1  0
 66 56  1  0
 68 70  2  0
 69 68  1  0
 71 69  1  0
 72 81  2  0
 72 77  1  0
 73 69  1  0
 73 77  1  0
 74 73  1  0
 75 76  1  0
 75 74  1  0
 76 72  1  0
 77 78  2  0
 78 79  1  0
 80 79  2  0
 81 80  1  0
 82 56  1  0
 82 83  1  0
 82 92  1  0
 83 86  1  0
 84 88  1  0
 84 83  1  0
 85 84  2  0
 88 87  1  0
 90 88  1  0
 90 91  1  0
 90 89  1  0
 92 95  1  1
 92 93  1  0
 94 92  1  0
M  ISO  4   8 100  21 100  54 101  55 101
M  END
>  <TORSDO>  (58) 
F 18

>  <SCORE>  (58) 
-14.528

>  <name>  (58) 
57

>  <ligand_id>  (58) 
57

>  <original_smiles>  (58) 
[H]c1c([H])c([H])c2c(c1[H])C([H])([H])C([H])([H])C([H])([H])C2([H])N([H])C(=O)C1([H])N(C(=O)C([H])(N([H])C(=O)C([H])(N([H])C([H])([H])[H])C([H])([H])[H])C(C([H])([H])[H])(C([H])([H])[H])C([H])([H])[H])C([H])([H])c2c([H])c(OC([H])([H])C(=O)N([H])c3c([H])c(C([H])([H])[H])c([H])c(C4([H])C([H])([H])C([H])([H])N(C(=O)N5C([H])([H])C([H])([H])C([H])([H])C([H])(n6nc(-c7c([H])c([H])c(Oc8c([H])c([H])c(F)c([H])c8F)c([H])c7[H])c(C(=O)N([H])[H])c6N([H])[H])C5([H])[H])C([H])([H])C4([H])[H])c3[H])c([H])c([H])c2C1([H])[H]

>  <smiles>  (58) 
[H]c1c([H])c([H])c2c(c1[H])C([H])([H])C([H])([H])C([H])([H])C2([H])N([H])C(=O)C1([H])N(C(=O)C([H])(N([H])C(=O)C([H])(N([H])C([H])([H])[H])C([H])([H])[H])C(C([H])([H])[H])(C([H])([H])[H])C([H])([H])[H])C([H])([H])c2c([H])c(OC([H])([H])C(=O)N([H])c3c([H])c(C([H])([H])[H])c([H])c(C4([H])C([H])([H])C([H])([H])N(C(=O)N5C([H])([H])C([H])([H])C([H])([H])C([H])(n6nc(-c7c([H])c([H])c(Oc8c([H])c([H])c(F)c([H])c8F)c([H])c7[H])c(C(=O)N([H])[H])c6N([H])[H])C5([H])[H])C([H])([H])C4([H])[H])c3[H])c([H])c([H])c2C1([H])[H]

$$$$
58:0:0
     RDKit          3D

 99101  0  0  1  0  0  0  0  0999 V2000
  -26.5130  -26.9510   17.9150 C   0  0  0  0  0  1  0  0  0  0  0  0
  -27.8790  -24.5450   19.2520 C   0  0  0  0  0  2  0  0  0  0  0  0
  -24.9340  -26.9440   21.6510 C   0  0  0  0  0  1  0  0  0  0  0  0
  -26.0190  -25.9420   18.8690 C   0  0  0  0  0  2  0  0  0  0  0  0
  -27.4710  -22.6350   19.3740 C   0  0  0  0  0  2  0  0  0  0  0  0
  -26.7040  -26.4550   19.3010 C   0  0  0  0  0  1  0  0  0  0  0  0
  -26.3460  -23.9330   18.5310 C   0  0  0  0  0  3  0  0  0  0  0  0
  -25.7470  -27.2710   21.6220 N   0  0  1  0  0  4  0  0  0  0  0  0
  -25.6120  -28.2400   21.3930 H   0  0  0  0  0  0  0  0  0  0  0  0
  -25.0640  -23.2610   18.1070 N   0  0  0  0  0  4  0  0  0  0  0  0
  -24.3530  -23.1670   18.8180 H   0  0  0  0  0  0  0  0  0  0  0  0
  -25.2220  -22.3390   17.7200 H   0  0  0  0  0  0  0  0  0  0  0  0
  -24.6540  -23.7700   17.3400 H   0  0  0  0  0  0  0  0  0  0  0  0
  -29.5290  -20.8880   20.5100 C   0  0  0  0  0  1  0  0  0  0  0  0
  -28.5510  -20.4680   19.4190 C   0  0  0  0  0  1  0  0  0  0  0  0
  -29.6440  -16.7070   19.9350 C   0  0  0  0  0  0  0  0  0  0  0  0
  -30.2210  -13.8980   19.4030 C   0  0  0  0  0  2  0  0  0  0  0  0
  -29.5180  -12.9330   18.3630 C   0  0  0  0  0  2  0  0  0  0  0  0
  -28.2160  -12.3490   18.9070 C   0  0  0  0  0  2  0  0  0  0  0  0
  -27.5340  -13.4080   19.7810 C   0  0  0  0  0  3  0  0  0  0  0  0
  -28.4490  -14.2020   20.7660 C   0  0  0  0  0  2  0  0  0  0  0  0
  -29.3420  -15.1380   19.9420 N   0  0  0  0  0  0  0  0  0  0  0  0
  -30.9160  -16.5080   20.0040 O   0  0  0  0  0  0  0  0  0  0  0  0
  -28.8610  -18.3390   19.7300 N   0  0  0  0  0  2  0  0  0  0  0  0
  -29.8380  -18.5900   19.8250 H   0  0  0  0  0  0  0  0  0  0  0  0
  -25.1980  -13.8350   20.5850 C   0  0  0  0  0  0  0  0  0  0  0  0
  -24.1600  -13.0270   20.9360 C   0  0  0  0  0  0  0  0  0  0  0  0
  -24.6670  -11.6880   20.9010 C   0  0  0  0  0  0  0  0  0  0  0  0
  -26.2650  -12.9930   20.3490 N   0  0  0  0  0  0  0  0  0  0  0  0
  -25.9660  -11.6880   20.5980 N   0  0  0  0  0  0  0  0  0  0  0  0
  -23.9610  -10.4110   21.0770 C   0  0  0  0  0  0  0  0  0  0  0  0
  -24.3940   -9.4420   22.0100 C   0  0  0  0  0  3  0  0  0  0  0  0
  -23.6750   -8.2390   22.1790 C   0  0  0  0  0  3  0  0  0  0  0  0
  -22.5070   -7.9930   21.4180 C   0  0  0  0  0  0  0  0  0  0  0  0
  -22.0950   -8.9500   20.4740 C   0  0  0  0  0  3  0  0  0  0  0  0
  -22.8150  -10.1450   20.3030 C   0  0  0  0  0  3  0  0  0  0  0  0
  -21.7610   -6.8430   21.4970 O   0  0  0  0  0  0  0  0  0  0  0  0
  -21.7050   -6.0970   22.6460 C   0  0  0  0  0  0  0  0  0  0  0  0
  -21.2650   -6.6440   23.8700 C   0  0  0  0  0  3  0  0  0  0  0  0
  -21.1570   -5.8240   25.0110 C   0  0  0  0  0  3  0  0  0  0  0  0
  -21.4810   -4.4560   24.9290 C   0  0  0  0  0  0  0  0  0  0  0  0
  -21.9150   -3.9080   23.7090 C   0  0  0  0  0  3  0  0  0  0  0  0
  -22.0240   -4.7260   22.5710 C   0  0  0  0  0  0  0  0  0  0  0  0
  -22.4210   -4.1850   21.3930 F   0  0  0  0  0  0  0  0  0  0  0  0
  -21.3720   -3.6660   26.0230 F   0  0  0  0  0  0  0  0  0  0  0  0
  -22.7530  -13.4730   21.1780 C   0  0  0  0  0  0  0  0  0  0  0  0
  -22.0330  -12.7700   22.0400 N   0  0  0  0  0  0  0  0  0  0  0  0
  -22.3060  -14.4860   20.6420 O   0  0  0  0  0  0  0  0  0  0  0  0
  -22.4160  -11.9510   22.4910 H   0  0  0  0  0  0  0  0  0  0  0  0
  -21.0850  -13.0500   22.2530 H   0  0  0  0  0  0  0  0  0  0  0  0
  -25.3220  -15.2090   20.3960 N   0  0  0  0  0  0  0  0  0  0  0  0
  -24.5410  -15.8430   20.5210 H   0  0  0  0  0  0  0  0  0  0  0  0
  -26.1640  -15.6710   20.0790 H   0  0  0  0  0  0  0  0  0  0  0  0
  -26.3280  -27.3120   23.1080 C   0  0  0  0  0  2  0  0  0  0  0  0
  -27.0350  -26.0020   23.6890 C   0  0  0  0  0  3  0  0  0  0  0  0
  -26.2060  -24.8460   23.8280 O   0  0  0  0  0  0  0  0  0  0  0  0
  -25.4340  -25.0810   24.3430 H   0  0  0  0  0  0  0  0  0  0  0  0
  -28.4500  -25.6720   23.0260 C   0  0  0  0  0  2  0  0  0  0  0  0
  -28.7260  -26.1300   21.6760 O   0  0  0  0  0  0  0  0  0  0  0  0
  -24.7840  -32.0370   23.3660 C   0  0  0  0  0  0  0  0  0  0  0  0
  -27.6290  -26.5740   21.2150 C   0  0  0  0  0  1  0  0  0  0  0  0
  -23.4700  -30.6550   21.6950 C   0  0  0  0  0  3  0  0  0  0  0  0
  -24.5540  -28.6010   19.9690 C   0  0  0  0  0  3  0  0  0  0  0  0
  -25.9810  -30.8620   21.1930 C   0  0  0  0  0  2  0  0  0  0  0  0
  -26.1420  -29.4060   20.3090 C   0  0  0  0  0  3  0  0  0  0  0  0
  -27.7050  -28.4940   20.7750 C   0  0  0  0  0  1  0  0  0  0  0  0
  -25.7600  -25.5750   20.9930 C   0  0  0  0  0  1  0  0  0  0  0  0
  -24.0350  -26.7180   20.2120 C   0  0  0  0  0  1  0  0  0  0  0  0
  -23.5100  -29.7920   20.2990 C   0  0  0  0  0  2  0  0  0  0  0  0
  -24.7970  -31.2010   22.1830 N   0  0  0  0  0  0  0  0  0  0  0  0
  -23.7150  -32.3690   23.9310 O   0  0  0  0  0  0  0  0  0  0  0  0
  -22.6710  -29.9130   22.8110 C   0  0  0  0  0  0  0  0  0  0  0  0
  -21.3610  -29.7260   22.6290 N   0  0  0  0  0  0  0  0  0  0  0  0
  -23.2500  -29.4520   23.8000 O   0  0  0  0  0  0  0  0  0  0  0  0
  -20.9200  -30.1190   21.8100 H   0  0  0  0  0  0  0  0  0  0  0  0
  -18.0640  -28.2950   22.9180 C   0  0  0  0  0  0  0  0  0  0  0  0
  -20.5630  -28.7670   23.3950 C   0  0  0  0  0  3  0  0  0  0  0  0
  -20.8300  -27.3280   22.8980 C   0  0  0  0  0  2  0  0  0  0  0  0
  -19.8680  -26.8780   21.8030 C   0  0  0  0  0  2  0  0  0  0  0  0
  -18.4080  -26.9600   22.2690 C   0  0  0  0  0  2  0  0  0  0  0  0
  -19.0800  -29.1540   23.4220 C   0  0  0  0  0  0  0  0  0  0  0  0
  -18.7130  -30.4060   23.9660 C   0  0  0  0  0  3  0  0  0  0  0  0
  -17.3600  -30.7980   24.0280 C   0  0  0  0  0  3  0  0  0  0  0  0
  -16.3610  -29.9310   23.5510 C   0  0  0  0  0  3  0  0  0  0  0  0
  -16.7100  -28.6860   22.9980 C   0  0  0  0  0  3  0  0  0  0  0  0
  -26.0340  -32.6590   24.1230 C   0  0  0  0  0  3  0  0  0  0  0  0
  -25.7530  -34.0610   24.5520 N   0  0  0  0  0  0  0  0  0  0  0  0
  -26.1780  -35.1720   23.9370 C   0  0  0  0  0  0  0  0  0  0  0  0
  -26.8730  -35.1280   22.9230 O   0  0  0  0  0  0  0  0  0  0  0  0
  -25.1590  -34.1650   25.3590 H   0  0  0  0  0  0  0  0  0  0  0  0
  -24.5410  -37.0790   23.7720 C   0  0  0  0  0  1  0  0  0  0  0  0
  -25.7760  -36.5470   24.5160 C   0  0  0  0  0  3  0  0  0  0  0  0
  -27.9670  -37.2980   25.3700 C   0  0  0  0  0  1  0  0  0  0  0  0
  -26.8540  -37.5680   24.4640 N   0  0  0  0  0  0  0  0  0  0  0  0
  -26.4870  -38.4940   24.6760 H   0  0  0  0  0  0  0  0  0  0  0  0
  -26.4620  -31.8670   25.4390 C   0  0  1  0  0  0  0  0  0  0  0  0
  -25.3060  -31.6540   26.4560 C   0  0  0  0  0  1  0  0  0  0  0  0
  -27.0320  -30.5020   25.0340 C   0  0  0  0  0  1  0  0  0  0  0  0
  -27.6080  -32.5780   26.1890 C   0  0  0  0  0  1  0  0  0  0  0  0
  1  4  1  0
  2  5  1  0
  4  6  1  0
  7  2  1  0
  7  5  1  0
  8  3  1  0
  8 54  1  0
  8  9  1  6
 10  7  1  0
 10 11  1  0
 12 10  1  0
 13 10  1  0
 15 14  1  0
 16 22  1  0
 16 23  2  0
 17 22  1  0
 18 19  1  0
 18 17  1  0
 20 19  1  0
 20 29  1  0
 20 21  1  0
 22 21  1  0
 24 25  1  0
 24 16  1  0
 26 27  2  0
 27 46  1  0
 28 27  1  0
 28 31  1  0
 29 26  1  0
 29 30  1  0
 30 28  2  0
 31 32  1  0
 32 33  2  0
 34 37  1  0
 34 33  1  0
 35 34  2  0
 36 35  1  0
 36 31  2  0
 37 38  1  0
 38 39  1  0
 39 40  2  0
 41 40  1  0
 41 45  1  0
 42 41  2  0
 43 38  2  0
 43 42  1  0
 44 43  1  0
 46 47  1  0
 47 50  1  0
 47 49  1  0
 48 46  2  0
 51 52  1  0
 51 26  1  0
 53 51  1  0
 54 55  1  0
 55 58  1  0
 55 56  1  0
 56 57  1  0
 59 58  1  0
 60 71  2  0
 61 59  1  0
 62 70  1  0
 62 72  1  0
 63 68  1  0
 63 69  1  0
 63 65  1  0
 64 70  1  0
 65 66  1  0
 65 64  1  0
 67  8  1  0
 69 62  1  0
 70 60  1  0
 72 74  2  0
 73 72  1  0
 75 73  1  0
 76 85  2  0
 76 81  1  0
 77 73  1  0
 77 81  1  0
 78 77  1  0
 79 80  1  0
 79 78  1  0
 80 76  1  0
 81 82  2  0
 82 83  1  0
 84 83  2  0
 85 84  1  0
 86 60  1  0
 86 87  1  0
 86 96  1  0
 87 90  1  0
 88 92  1  0
 88 87  1  0
 89 88  2  0
 92 91  1  0
 94 92  1  0
 94 95  1  0
 94 93  1  0
 96 99  1  1
 96 97  1  0
 98 96  1  0
M  ISO  4  16 100  24 100  58 101  59 101
M  END
>  <TORSDO>  (59) 
F 22

>  <SCORE>  (59) 
-13.629

>  <name>  (59) 
58

>  <ligand_id>  (59) 
58

>  <original_smiles>  (59) 
[H]OC([H])(C([H])([H])Oc1c([H])c([H])c2c(c1[H])C([H])([H])N(C(=O)C([H])(N([H])C(=O)C([H])(N([H])C([H])([H])[H])C([H])([H])[H])C(C([H])([H])[H])(C([H])([H])[H])C([H])([H])[H])C([H])(C(=O)N([H])C1([H])c3c([H])c([H])c([H])c([H])c3C([H])([H])C([H])([H])C1([H])[H])C2([H])[H])C([H])([H])[N+]1([H])C([H])([H])C2([H])C([H])([H])C1([H])C([H])([H])C([H])(C([H])(N([H])C(=O)N1C([H])([H])C([H])([H])C([H])([H])C([H])(n3nc(-c4c([H])c([H])c(Oc5c([H])c([H])c(F)c([H])c5F)c([H])c4[H])c(C(=O)N([H])[H])c3N([H])[H])C1([H])[H])C([H])([H])[H])C2([H])[N+]([H])([H])[H]

>  <smiles>  (59) 
[H]OC([H])(C([H])([H])Oc1c([H])c([H])c2c(c1[H])C([H])([H])N(C(=O)C([H])(N([H])C(=O)C([H])(N([H])C([H])([H])[H])C([H])([H])[H])C(C([H])([H])[H])(C([H])([H])[H])C([H])([H])[H])C([H])(C(=O)N([H])C1([H])c3c([H])c([H])c([H])c([H])c3C([H])([H])C([H])([H])C1([H])[H])C2([H])[H])C([H])([H])[N+]1([H])C([H])([H])C2([H])C([H])([H])C1([H])C([H])([H])C([H])(C([H])(N([H])C(=O)N1C([H])([H])C([H])([H])C([H])([H])C([H])(n3nc(-c4c([H])c([H])c(Oc5c([H])c([H])c(F)c([H])c5F)c([H])c4[H])c(C(=O)N([H])[H])c3N([H])[H])C1([H])[H])C([H])([H])[H])C2([H])[N+]([H])([H])[H]

$$$$
59:0:0
     RDKit          3D

 95103  0  0  1  0  0  0  0  0999 V2000
  -28.5050  -22.6980   19.2560 C   0  0  0  0  0  0  0  0  0  0  0  0
  -28.1100  -22.8670   18.0980 O   0  0  0  0  0  0  0  0  0  0  0  0
  -29.0390  -20.2550   18.6780 C   0  0  0  0  0  3  0  0  0  0  0  0
  -29.4880  -18.9300   18.9610 C   0  0  0  0  0  3  0  0  0  0  0  0
  -29.7200  -19.5410   21.2680 C   0  0  0  0  0  3  0  0  0  0  0  0
  -28.9510  -21.2790   19.6690 C   0  0  0  0  0  0  0  0  0  0  0  0
  -29.8750  -18.5410   20.2630 C   0  0  0  0  0  0  0  0  0  0  0  0
  -29.2620  -20.8680   20.9890 C   0  0  0  0  0  0  0  0  0  0  0  0
  -29.1260  -21.7510   22.0110 F   0  0  0  0  0  0  0  0  0  0  0  0
  -30.6440  -17.1940   20.5500 C   0  0  0  0  0  2  0  0  0  0  0  0
  -30.8080  -14.6890   19.9630 C   0  0  0  0  0  0  0  0  0  0  0  0
  -30.4970  -12.4340   18.9510 C   0  0  0  0  0  2  0  0  0  0  0  0
  -29.5010  -12.5350   17.7780 C   0  0  0  0  0  2  0  0  0  0  0  0
  -28.0580  -12.3750   18.2900 C   0  0  0  0  0  2  0  0  0  0  0  0
  -27.7580  -13.2860   19.5110 C   0  0  0  0  0  3  0  0  0  0  0  0
  -28.8670  -13.1830   20.5800 C   0  0  0  0  0  2  0  0  0  0  0  0
  -30.1400  -13.4940   19.9180 N   0  0  0  0  0  0  0  0  0  0  0  0
  -31.9800  -14.7690   19.5880 O   0  0  0  0  0  0  0  0  0  0  0  0
  -30.0870  -15.8230   20.2620 N   0  0  0  0  0  0  0  0  0  0  0  0
  -29.1060  -15.6910   20.4520 H   0  0  0  0  0  0  0  0  0  0  0  0
  -25.4280  -13.9200   20.3760 C   0  0  0  0  0  0  0  0  0  0  0  0
  -24.3670  -13.1610   20.7910 C   0  0  0  0  0  0  0  0  0  0  0  0
  -24.7990  -11.8010   20.7150 C   0  0  0  0  0  0  0  0  0  0  0  0
  -26.4380  -13.0220   20.0710 N   0  0  0  0  0  0  0  0  0  0  0  0
  -26.0700  -11.7420   20.3380 N   0  0  0  0  0  0  0  0  0  0  0  0
  -24.0570  -10.5520   20.9210 C   0  0  0  0  0  0  0  0  0  0  0  0
  -24.4850   -9.5800   21.8530 C   0  0  0  0  0  3  0  0  0  0  0  0
  -23.7410   -8.3960   22.0440 C   0  0  0  0  0  3  0  0  0  0  0  0
  -22.5560   -8.1740   21.3020 C   0  0  0  0  0  0  0  0  0  0  0  0
  -22.1480   -9.1330   20.3580 C   0  0  0  0  0  3  0  0  0  0  0  0
  -22.8920  -10.3090   20.1660 C   0  0  0  0  0  3  0  0  0  0  0  0
  -21.7830   -7.0410   21.4040 O   0  0  0  0  0  0  0  0  0  0  0  0
  -21.7000   -6.3320   22.5760 C   0  0  0  0  0  0  0  0  0  0  0  0
  -21.2170   -6.9160   23.7680 C   0  0  0  0  0  3  0  0  0  0  0  0
  -21.0860   -6.1350   24.9330 C   0  0  0  0  0  3  0  0  0  0  0  0
  -21.4240   -4.7670   24.9050 C   0  0  0  0  0  0  0  0  0  0  0  0
  -21.9000   -4.1830   23.7190 C   0  0  0  0  0  3  0  0  0  0  0  0
  -22.0350   -4.9630   22.5570 C   0  0  0  0  0  0  0  0  0  0  0  0
  -22.4770   -4.3910   21.4110 F   0  0  0  0  0  0  0  0  0  0  0  0
  -21.2890   -4.0120   26.0200 F   0  0  0  0  0  0  0  0  0  0  0  0
  -22.9960  -13.6630   21.1400 C   0  0  0  0  0  0  0  0  0  0  0  0
  -22.2950  -12.9650   22.0270 N   0  0  0  0  0  0  0  0  0  0  0  0
  -22.5560  -14.7080   20.6620 O   0  0  0  0  0  0  0  0  0  0  0  0
  -22.6610  -12.1160   22.4330 H   0  0  0  0  0  0  0  0  0  0  0  0
  -21.3800  -13.2850   22.3080 H   0  0  0  0  0  0  0  0  0  0  0  0
  -25.6110  -15.2880   20.2100 N   0  0  0  0  0  0  0  0  0  0  0  0
  -24.8610  -15.9500   20.3770 H   0  0  0  0  0  0  0  0  0  0  0  0
  -26.4390  -15.7170   19.8170 H   0  0  0  0  0  0  0  0  0  0  0  0
  -28.4950  -23.9660   20.2160 C   0  0  0  0  0  3  0  0  0  0  0  0
  -27.2590  -23.8890   21.0170 N   0  0  0  0  0  4  0  0  0  0  0  0
  -27.3280  -23.1150   21.6570 H   0  0  0  0  0  0  0  0  0  0  0  0
  -26.4570  -23.7540   20.4230 H   0  0  0  0  0  0  0  0  0  0  0  0
  -27.1360  -24.7350   21.5490 H   0  0  0  0  0  0  0  0  0  0  0  0
  -28.5640  -25.3560   19.4440 C   0  0  0  0  0  2  0  0  0  0  0  0
  -28.3990  -26.5970   20.2180 O   0  0  0  0  0  0  0  0  0  0  0  0
  -24.5940  -31.8950   23.2230 C   0  0  0  0  0  0  0  0  0  0  0  0
  -27.2350  -27.3680   20.1680 C   0  0  0  0  0  0  0  0  0  0  0  0
  -23.3940  -30.4910   21.5850 C   0  0  0  0  0  3  0  0  0  0  0  0
  -24.8500  -28.9380   20.1690 C   0  0  0  0  0  0  0  0  0  0  0  0
  -25.9280  -30.8230   21.3980 C   0  0  0  0  0  2  0  0  0  0  0  0
  -26.0130  -29.4430   20.7630 C   0  0  0  0  0  0  0  0  0  0  0  0
  -27.2040  -28.6680   20.7570 C   0  0  0  0  0  3  0  0  0  0  0  0
  -26.0400  -26.8990   19.5730 C   0  0  0  0  0  3  0  0  0  0  0  0
  -24.8650  -27.6700   19.5700 C   0  0  0  0  0  3  0  0  0  0  0  0
  -23.6130  -29.8110   20.2090 C   0  0  0  0  0  2  0  0  0  0  0  0
  -24.6590  -31.0830   22.1290 N   0  0  0  0  0  0  0  0  0  0  0  0
  -23.5080  -32.1750   23.7540 O   0  0  0  0  0  0  0  0  0  0  0  0
  -22.7320  -29.4750   22.5450 C   0  0  0  0  0  0  0  0  0  0  0  0
  -21.4040  -29.3050   22.4210 N   0  0  0  0  0  0  0  0  0  0  0  0
  -23.4090  -28.8410   23.3590 O   0  0  0  0  0  0  0  0  0  0  0  0
  -20.9200  -29.8700   21.7370 H   0  0  0  0  0  0  0  0  0  0  0  0
  -18.0160  -28.1470   22.9440 C   0  0  0  0  0  0  0  0  0  0  0  0
  -20.5790  -28.3730   23.1940 C   0  0  0  0  0  3  0  0  0  0  0  0
  -20.6600  -26.9430   22.6090 C   0  0  0  0  0  2  0  0  0  0  0  0
  -19.5440  -26.6390   21.6050 C   0  0  0  0  0  2  0  0  0  0  0  0
  -18.1700  -26.7980   22.2600 C   0  0  0  0  0  2  0  0  0  0  0  0
  -19.1470  -28.8930   23.3680 C   0  0  0  0  0  0  0  0  0  0  0  0
  -18.9470  -30.1530   23.9700 C   0  0  0  0  0  3  0  0  0  0  0  0
  -17.6500  -30.6690   24.1480 C   0  0  0  0  0  3  0  0  0  0  0  0
  -16.5330  -29.9210   23.7360 C   0  0  0  0  0  3  0  0  0  0  0  0
  -16.7180  -28.6610   23.1410 C   0  0  0  0  0  3  0  0  0  0  0  0
  -25.8770  -32.5250   23.8480 C   0  0  0  0  0  3  0  0  0  0  0  0
  -25.5600  -33.9190   24.1860 N   0  0  0  0  0  0  0  0  0  0  0  0
  -25.8760  -34.9770   23.4260 C   0  0  0  0  0  0  0  0  0  0  0  0
  -26.5350  -34.8800   22.3890 O   0  0  0  0  0  0  0  0  0  0  0  0
  -24.9830  -34.0670   25.0020 H   0  0  0  0  0  0  0  0  0  0  0  0
  -24.1430  -36.7670   23.0810 C   0  0  0  0  0  1  0  0  0  0  0  0
  -25.3850  -36.3610   23.8920 C   0  0  0  0  0  3  0  0  0  0  0  0
  -27.5130  -37.2650   24.7230 C   0  0  0  0  0  1  0  0  0  0  0  0
  -26.4120  -37.4190   23.7770 N   0  0  0  0  0  0  0  0  0  0  0  0
  -25.9990  -38.3350   23.9210 H   0  0  0  0  0  0  0  0  0  0  0  0
  -26.3910  -31.7460   25.1190 C   0  0  1  0  0  0  0  0  0  0  0  0
  -25.2970  -31.5020   26.1830 C   0  0  0  0  0  1  0  0  0  0  0  0
  -26.9760  -30.3710   24.7220 C   0  0  0  0  0  1  0  0  0  0  0  0
  -27.5410  -32.5390   25.7840 C   0  0  0  0  0  1  0  0  0  0  0  0
  1  6  1  0
  1 49  1  0
  2  1  2  0
  3  4  2  0
  3  6  1  0
  4  7  1  0
  6  8  2  0
  7 10  1  0
  7  5  2  0
  8  5  1  0
  8  9  1  0
 11 19  1  0
 12 17  1  0
 13 14  1  0
 13 12  1  0
 15 14  1  0
 15 24  1  0
 15 16  1  0
 17 11  1  0
 17 16  1  0
 18 11  2  0
 19 20  1  0
 19 10  1  0
 21 22  2  0
 22 41  1  0
 23 22  1  0
 23 26  1  0
 24 25  1  0
 24 21  1  0
 25 23  2  0
 26 27  1  0
 27 28  2  0
 29 32  1  0
 29 28  1  0
 30 29  2  0
 31 30  1  0
 31 26  2  0
 32 33  1  0
 33 34  1  0
 34 35  2  0
 36 35  1  0
 36 40  1  0
 37 36  2  0
 38 33  2  0
 38 37  1  0
 39 38  1  0
 41 42  1  0
 42 45  1  0
 42 44  1  0
 43 41  2  0
 46 21  1  0
 46 47  1  0
 48 46  1  0
 49 54  1  0
 49 50  1  0
 50 53  1  0
 50 51  1  0
 52 50  1  0
 54 55  1  0
 56 67  2  0
 57 55  1  0
 57 62  1  0
 58 66  1  0
 58 68  1  0
 59 65  1  0
 59 61  1  0
 60 66  1  0
 61 60  1  0
 62 61  2  0
 63 57  2  0
 64 63  1  0
 64 59  2  0
 65 58  1  0
 66 56  1  0
 68 70  2  0
 69 68  1  0
 71 69  1  0
 72 81  2  0
 72 77  1  0
 73 69  1  0
 73 77  1  0
 74 73  1  0
 75 76  1  0
 75 74  1  0
 76 72  1  0
 77 78  2  0
 78 79  1  0
 80 79  2  0
 81 80  1  0
 82 56  1  0
 82 83  1  0
 82 92  1  0
 83 86  1  0
 84 88  1  0
 84 83  1  0
 85 84  2  0
 88 87  1  0
 90 88  1  0
 90 91  1  0
 90 89  1  0
 92 95  1  1
 92 93  1  0
 94 92  1  0
M  ISO  4  11 100  19 100  54 101  55 101
M  END
>  <TORSDO>  (60) 
F 21

>  <SCORE>  (60) 
-13.625

>  <name>  (60) 
59

>  <ligand_id>  (60) 
59

>  <original_smiles>  (60) 
[H]c1c([H])c([H])c2c(c1[H])C([H])([H])C([H])([H])C([H])([H])C2([H])N([H])C(=O)C1([H])N(C(=O)C([H])(N([H])C(=O)C([H])(N([H])C([H])([H])[H])C([H])([H])[H])C(C([H])([H])[H])(C([H])([H])[H])C([H])([H])[H])C([H])([H])c2c([H])c(OC([H])([H])C([H])(C(=O)c3c([H])c([H])c(C([H])([H])N([H])C(=O)N4C([H])([H])C([H])([H])C([H])([H])C([H])(n5nc(-c6c([H])c([H])c(Oc7c([H])c([H])c(F)c([H])c7F)c([H])c6[H])c(C(=O)N([H])[H])c5N([H])[H])C4([H])[H])c([H])c3F)[N+]([H])([H])[H])c([H])c([H])c2C1([H])[H]

>  <smiles>  (60) 
[H]c1c([H])c([H])c2c(c1[H])C([H])([H])C([H])([H])C([H])([H])C2([H])N([H])C(=O)C1([H])N(C(=O)C([H])(N([H])C(=O)C([H])(N([H])C([H])([H])[H])C([H])([H])[H])C(C([H])([H])[H])(C([H])([H])[H])C([H])([H])[H])C([H])([H])c2c([H])c(OC([H])([H])C([H])(C(=O)c3c([H])c([H])c(C([H])([H])N([H])C(=O)N4C([H])([H])C([H])([H])C([H])([H])C([H])(n5nc(-c6c([H])c([H])c(Oc7c([H])c([H])c(F)c([H])c7F)c([H])c6[H])c(C(=O)N([H])[H])c5N([H])[H])C4([H])[H])c([H])c3F)[N+]([H])([H])[H])c([H])c([H])c2C1([H])[H]

$$$$
60:0:0
     RDKit          3D

 99108  0  0  1  0  0  0  0  0999 V2000
  -30.8810  -22.7370   17.8010 C   0  0  0  0  0  0  0  0  0  0  0  0
  -30.6330  -21.4520   18.0940 N   0  0  0  0  0  0  0  0  0  0  0  0
  -31.9880  -23.2510   17.9930 O   0  0  0  0  0  0  0  0  0  0  0  0
  -29.7110  -21.0710   17.9290 H   0  0  0  0  0  0  0  0  0  0  0  0
  -28.9770  -24.4420   18.1380 C   0  0  0  0  0  2  0  0  0  0  0  0
  -30.1350  -25.9220   16.6880 C   0  0  0  0  0  2  0  0  0  0  0  0
  -29.7810  -23.5850   17.1360 C   0  0  0  0  0  3  0  0  0  0  0  0
  -29.7020  -25.7920   18.1510 C   0  0  0  0  0  3  0  0  0  0  0  0
  -30.3340  -24.3030   14.8020 C   0  0  0  0  0  1  0  0  0  0  0  0
  -30.4710  -24.5530   16.2530 N   0  0  1  0  0  4  0  0  0  0  0  0
  -31.4390  -24.3960   16.5120 H   0  0  0  0  0  0  0  0  0  0  0  0
  -28.8540  -26.9790   18.6090 C   0  0  0  0  0  2  0  0  0  0  0  0
  -28.4010  -26.8180   19.9540 O   0  0  0  0  0  0  0  0  0  0  0  0
  -24.5710  -31.8660   23.2350 C   0  0  0  0  0  0  0  0  0  0  0  0
  -27.2170  -27.4790   20.1270 C   0  0  0  0  0  0  0  0  0  0  0  0
  -23.3650  -30.4670   21.5880 C   0  0  0  0  0  3  0  0  0  0  0  0
  -24.8170  -28.9370   20.1690 C   0  0  0  0  0  0  0  0  0  0  0  0
  -25.8860  -30.8430   21.3860 C   0  0  0  0  0  2  0  0  0  0  0  0
  -25.9730  -29.4720   20.7540 C   0  0  0  0  0  0  0  0  0  0  0  0
  -27.1800  -28.7450   20.7410 C   0  0  0  0  0  3  0  0  0  0  0  0
  -26.0430  -26.9300   19.5720 C   0  0  0  0  0  3  0  0  0  0  0  0
  -24.8420  -27.6600   19.5840 C   0  0  0  0  0  3  0  0  0  0  0  0
  -23.5730  -29.7920   20.2070 C   0  0  0  0  0  2  0  0  0  0  0  0
  -24.6250  -31.0730   22.1280 N   0  0  0  0  0  0  0  0  0  0  0  0
  -23.4900  -32.1330   23.7790 O   0  0  0  0  0  0  0  0  0  0  0  0
  -22.7230  -29.4370   22.5440 C   0  0  0  0  0  0  0  0  0  0  0  0
  -21.3990  -29.2540   22.4160 N   0  0  0  0  0  0  0  0  0  0  0  0
  -23.4110  -28.8060   23.3500 O   0  0  0  0  0  0  0  0  0  0  0  0
  -20.9080  -29.8110   21.7320 H   0  0  0  0  0  0  0  0  0  0  0  0
  -18.0250  -28.0710   22.9200 C   0  0  0  0  0  0  0  0  0  0  0  0
  -20.5840  -28.3120   23.1830 C   0  0  0  0  0  3  0  0  0  0  0  0
  -20.6770  -26.8860   22.5930 C   0  0  0  0  0  2  0  0  0  0  0  0
  -19.5690  -26.5780   21.5800 C   0  0  0  0  0  2  0  0  0  0  0  0
  -18.1910  -26.7270   22.2300 C   0  0  0  0  0  2  0  0  0  0  0  0
  -19.1490  -28.8230   23.3520 C   0  0  0  0  0  0  0  0  0  0  0  0
  -18.9400  -30.0840   23.9520 C   0  0  0  0  0  3  0  0  0  0  0  0
  -17.6390  -30.5910   24.1280 C   0  0  0  0  0  3  0  0  0  0  0  0
  -16.5290  -29.8350   23.7120 C   0  0  0  0  0  3  0  0  0  0  0  0
  -16.7230  -28.5760   23.1150 C   0  0  0  0  0  3  0  0  0  0  0  0
  -25.8590  -32.4960   23.8530 C   0  0  0  0  0  3  0  0  0  0  0  0
  -26.3740  -31.7260   25.1300 C   0  0  1  0  0  0  0  0  0  0  0  0
  -25.2830  -31.4970   26.1990 C   0  0  0  0  0  1  0  0  0  0  0  0
  -26.9510  -30.3450   24.7400 C   0  0  0  0  0  1  0  0  0  0  0  0
  -27.5300  -32.5180   25.7860 C   0  0  0  0  0  1  0  0  0  0  0  0
  -25.5540  -33.8950   24.1750 N   0  0  0  0  0  0  0  0  0  0  0  0
  -25.8960  -34.9420   23.4120 C   0  0  0  0  0  0  0  0  0  0  0  0
  -26.5750  -34.8310   22.3870 O   0  0  0  0  0  0  0  0  0  0  0  0
  -24.9550  -34.0550   24.9710 H   0  0  0  0  0  0  0  0  0  0  0  0
  -24.1830  -36.7400   23.0200 C   0  0  0  0  0  1  0  0  0  0  0  0
  -25.4060  -36.3320   23.8560 C   0  0  0  0  0  3  0  0  0  0  0  0
  -27.5330  -37.2040   24.7200 C   0  0  0  0  0  1  0  0  0  0  0  0
  -26.4450  -37.3810   23.7630 N   0  0  0  0  0  0  0  0  0  0  0  0
  -26.0400  -38.3020   23.9110 H   0  0  0  0  0  0  0  0  0  0  0  0
  -31.6770  -20.5290   18.5340 C   0  0  0  0  0  2  0  0  0  0  0  0
  -30.7800  -18.1830   18.3370 C   0  0  0  0  0  3  0  0  0  0  0  0
  -30.3560  -16.9650   18.8920 C   0  0  0  0  0  3  0  0  0  0  0  0
  -30.5680  -17.9020   21.1350 C   0  0  0  0  0  3  0  0  0  0  0  0
  -31.1280  -19.2650   19.1750 C   0  0  0  0  0  0  0  0  0  0  0  0
  -30.9950  -19.1330   20.5790 C   0  0  0  0  0  0  0  0  0  0  0  0
  -30.2880  -16.8020   20.2940 C   0  0  0  0  0  0  0  0  0  0  0  0
  -31.3440  -20.2870   21.5030 C   0  0  0  0  0  1  0  0  0  0  0  0
  -30.6670  -14.4260   20.4760 C   0  0  0  0  0  0  0  0  0  0  0  0
  -30.3240  -12.2770   19.3700 C   0  0  0  0  0  2  0  0  0  0  0  0
  -29.4160  -12.5270   18.1470 C   0  0  0  0  0  2  0  0  0  0  0  0
  -27.9340  -12.4140   18.5460 C   0  0  0  0  0  2  0  0  0  0  0  0
  -27.5830  -13.2480   19.8100 C   0  0  0  0  0  3  0  0  0  0  0  0
  -28.6200  -13.0270   20.9390 C   0  0  0  0  0  2  0  0  0  0  0  0
  -29.9600  -13.2740   20.3850 N   0  0  0  0  0  0  0  0  0  0  0  0
  -31.8310  -14.5330   20.0740 O   0  0  0  0  0  0  0  0  0  0  0  0
  -29.9810  -15.5210   20.8380 N   0  0  0  0  0  0  0  0  0  0  0  0
  -29.0760  -15.3910   21.2620 H   0  0  0  0  0  0  0  0  0  0  0  0
  -25.1800  -13.8720   20.4880 C   0  0  0  0  0  0  0  0  0  0  0  0
  -24.1020  -13.1070   20.8470 C   0  0  0  0  0  0  0  0  0  0  0  0
  -24.5550  -11.7500   20.8280 C   0  0  0  0  0  0  0  0  0  0  0  0
  -26.2200  -12.9830   20.2680 N   0  0  0  0  0  0  0  0  0  0  0  0
  -25.8470  -11.7030   20.5260 N   0  0  0  0  0  0  0  0  0  0  0  0
  -23.8180  -10.4930   21.0200 C   0  0  0  0  0  0  0  0  0  0  0  0
  -24.2380   -9.5270   21.9600 C   0  0  0  0  0  3  0  0  0  0  0  0
  -23.5060   -8.3340   22.1380 C   0  0  0  0  0  3  0  0  0  0  0  0
  -22.3390   -8.0990   21.3720 C   0  0  0  0  0  0  0  0  0  0  0  0
  -21.9330   -9.0540   20.4250 C   0  0  0  0  0  3  0  0  0  0  0  0
  -22.6660  -10.2390   20.2470 C   0  0  0  0  0  3  0  0  0  0  0  0
  -21.5800   -6.9570   21.4560 O   0  0  0  0  0  0  0  0  0  0  0  0
  -21.5250   -6.2120   22.6080 C   0  0  0  0  0  0  0  0  0  0  0  0
  -21.0950   -6.7640   23.8330 C   0  0  0  0  0  3  0  0  0  0  0  0
  -20.9840   -5.9460   24.9760 C   0  0  0  0  0  3  0  0  0  0  0  0
  -21.2950   -4.5760   24.8920 C   0  0  0  0  0  0  0  0  0  0  0  0
  -21.7190   -4.0220   23.6720 C   0  0  0  0  0  3  0  0  0  0  0  0
  -21.8290   -4.8380   22.5330 C   0  0  0  0  0  0  0  0  0  0  0  0
  -22.2170   -4.2950   21.3530 F   0  0  0  0  0  0  0  0  0  0  0  0
  -21.1820   -3.7860   25.9890 F   0  0  0  0  0  0  0  0  0  0  0  0
  -22.7050  -13.5960   21.1040 C   0  0  0  0  0  0  0  0  0  0  0  0
  -21.9620  -12.9070   21.9630 N   0  0  0  0  0  0  0  0  0  0  0  0
  -22.2790  -14.6240   20.5790 O   0  0  0  0  0  0  0  0  0  0  0  0
  -22.3170  -12.0760   22.4150 H   0  0  0  0  0  0  0  0  0  0  0  0
  -21.0240  -13.2170   22.1720 H   0  0  0  0  0  0  0  0  0  0  0  0
  -25.3600  -15.2420   20.3190 N   0  0  0  0  0  0  0  0  0  0  0  0
  -24.6260  -15.9200   20.4940 H   0  0  0  0  0  0  0  0  0  0  0  0
  -26.2200  -15.6610   19.9850 H   0  0  0  0  0  0  0  0  0  0  0  0
  1  3  2  0
  1  2  1  0
  2 54  1  0
  4  2  1  0
  5  8  1  0
  6  8  1  0
  7  1  1  0
  7  5  1  0
  8 12  1  0
  9 10  1  0
 10 11  1  1
 10  6  1  0
 10  7  1  0
 12 13  1  0
 13 15  1  0
 14 25  2  0
 15 20  1  0
 16 24  1  0
 16 26  1  0
 17 23  1  0
 17 19  1  0
 18 24  1  0
 19 18  1  0
 20 19  2  0
 21 22  1  0
 21 15  2  0
 22 17  2  0
 23 16  1  0
 24 14  1  0
 26 28  2  0
 27 26  1  0
 29 27  1  0
 30 39  2  0
 30 35  1  0
 31 27  1  0
 31 35  1  0
 32 31  1  0
 33 34  1  0
 33 32  1  0
 34 30  1  0
 35 36  2  0
 36 37  1  0
 38 37  2  0
 39 38  1  0
 40 14  1  0
 40 45  1  0
 40 41  1  0
 41 44  1  1
 41 42  1  0
 43 41  1  0
 45 48  1  0
 46 50  1  0
 46 45  1  0
 47 46  2  0
 50 49  1  0
 52 50  1  0
 52 53  1  0
 52 51  1  0
 54 58  1  0
 55 56  2  0
 55 58  1  0
 56 60  1  0
 58 59  2  0
 59 57  1  0
 59 61  1  0
 60 70  1  0
 60 57  2  0
 62 70  1  0
 63 68  1  0
 64 65  1  0
 64 63  1  0
 66 65  1  0
 66 75  1  0
 66 67  1  0
 68 62  1  0
 68 67  1  0
 69 62  2  0
 70 71  1  0
 72 73  2  0
 73 92  1  0
 74 73  1  0
 74 77  1  0
 75 72  1  0
 75 76  1  0
 76 74  2  0
 77 78  1  0
 78 79  2  0
 80 83  1  0
 80 79  1  0
 81 80  2  0
 82 81  1  0
 82 77  2  0
 83 84  1  0
 84 85  1  0
 85 86  2  0
 87 86  1  0
 87 91  1  0
 88 87  2  0
 89 84  2  0
 89 88  1  0
 90 89  1  0
 92 93  1  0
 93 96  1  0
 93 95  1  0
 94 92  2  0
 97 72  1  0
 97 98  1  0
 99 97  1  0
M  ISO  4  12 101  13 101  62 100  70 100
M  END
>  <TORSDO>  (61) 
F 20

>  <SCORE>  (61) 
-13.868

>  <name>  (61) 
60

>  <ligand_id>  (61) 
60

>  <original_smiles>  (61) 
[H]c1c([H])c([H])c2c(c1[H])C([H])([H])C([H])([H])C([H])([H])C2([H])N([H])C(=O)C1([H])N(C(=O)C([H])(N([H])C(=O)C([H])(N([H])C([H])([H])[H])C([H])([H])[H])C(C([H])([H])[H])(C([H])([H])[H])C([H])([H])[H])C([H])([H])c2c([H])c(OC([H])([H])C3([H])C([H])([H])C([H])(C(=O)N([H])C([H])([H])c4c([H])c([H])c(N([H])C(=O)N5C([H])([H])C([H])([H])C([H])([H])C([H])(n6nc(-c7c([H])c([H])c(Oc8c([H])c([H])c(F)c([H])c8F)c([H])c7[H])c(C(=O)N([H])[H])c6N([H])[H])C5([H])[H])c([H])c4C([H])([H])[H])[N+]([H])(C([H])([H])[H])C3([H])[H])c([H])c([H])c2C1([H])[H]

>  <smiles>  (61) 
[H]c1c([H])c([H])c2c(c1[H])C([H])([H])C([H])([H])C([H])([H])C2([H])N([H])C(=O)C1([H])N(C(=O)C([H])(N([H])C(=O)C([H])(N([H])C([H])([H])[H])C([H])([H])[H])C(C([H])([H])[H])(C([H])([H])[H])C([H])([H])[H])C([H])([H])c2c([H])c(OC([H])([H])C3([H])C([H])([H])C([H])(C(=O)N([H])C([H])([H])c4c([H])c([H])c(N([H])C(=O)N5C([H])([H])C([H])([H])C([H])([H])C([H])(n6nc(-c7c([H])c([H])c(Oc8c([H])c([H])c(F)c([H])c8F)c([H])c7[H])c(C(=O)N([H])[H])c6N([H])[H])C5([H])[H])c([H])c4C([H])([H])[H])[N+]([H])(C([H])([H])[H])C3([H])[H])c([H])c([H])c2C1([H])[H]

$$$$
61:0:0
     RDKit          3D

 99108  0  0  1  0  0  0  0  0999 V2000
  -30.9880  -23.1120   21.9290 C   0  0  0  0  0  2  0  0  0  0  0  0
  -30.0260  -24.1770   22.4350 C   0  0  0  0  0  2  0  0  0  0  0  0
  -30.5720  -22.8850   20.4690 C   0  0  0  0  0  3  0  0  0  0  0  0
  -29.7470  -25.0430   21.1970 C   0  0  0  0  0  3  0  0  0  0  0  0
  -30.3320  -24.6850   18.7870 C   0  0  0  0  0  1  0  0  0  0  0  0
  -29.8200  -24.0960   20.0470 N   0  0  1  0  0  4  0  0  0  0  0  0
  -28.8930  -23.7250   19.8620 H   0  0  0  0  0  0  0  0  0  0  0  0
  -29.7130  -21.6290   20.2480 C   0  0  0  0  0  0  0  0  0  0  0  0
  -30.2900  -20.4380   20.4910 N   0  0  0  0  0  0  0  0  0  0  0  0
  -28.5420  -21.7550   19.8720 O   0  0  0  0  0  0  0  0  0  0  0  0
  -31.1620  -20.4560   21.0030 H   0  0  0  0  0  0  0  0  0  0  0  0
  -29.4290  -19.1090   18.6180 C   0  0  0  0  0  3  0  0  0  0  0  0
  -29.1480  -17.8640   18.0390 C   0  0  0  0  0  3  0  0  0  0  0  0
  -30.0930  -17.9940   20.6940 C   0  0  0  0  0  3  0  0  0  0  0  0
  -29.9040  -19.1850   19.9470 C   0  0  0  0  0  0  0  0  0  0  0  0
  -29.8060  -16.7330   20.1130 C   0  0  0  0  0  0  0  0  0  0  0  0
  -29.3310  -16.6860   18.7800 C   0  0  0  0  0  0  0  0  0  0  0  0
  -29.0300  -15.5110   18.1890 F   0  0  0  0  0  0  0  0  0  0  0  0
  -30.6780  -14.4900   20.4930 C   0  0  0  0  0  0  0  0  0  0  0  0
  -30.4280  -12.2780   19.4540 C   0  0  0  0  0  2  0  0  0  0  0  0
  -29.5030  -12.4190   18.2280 C   0  0  0  0  0  2  0  0  0  0  0  0
  -28.0150  -12.3380   18.6370 C   0  0  0  0  0  2  0  0  0  0  0  0
  -27.6600  -13.1930   19.8840 C   0  0  0  0  0  3  0  0  0  0  0  0
  -28.7060  -13.0040   21.0060 C   0  0  0  0  0  2  0  0  0  0  0  0
  -30.0350  -13.2930   20.4410 N   0  0  0  0  0  0  0  0  0  0  0  0
  -31.8290  -14.6620   20.0820 O   0  0  0  0  0  0  0  0  0  0  0  0
  -29.9190  -15.5300   20.8770 N   0  0  0  0  0  0  0  0  0  0  0  0
  -29.0650  -15.2510   21.3340 H   0  0  0  0  0  0  0  0  0  0  0  0
  -25.2570  -13.8120   20.5660 C   0  0  0  0  0  0  0  0  0  0  0  0
  -24.1810  -13.0420   20.9180 C   0  0  0  0  0  0  0  0  0  0  0  0
  -24.6370  -11.6880   20.8780 C   0  0  0  0  0  0  0  0  0  0  0  0
  -26.3010  -12.9270   20.3450 N   0  0  0  0  0  0  0  0  0  0  0  0
  -25.9290  -11.6460   20.5900 N   0  0  0  0  0  0  0  0  0  0  0  0
  -23.9040  -10.4270   21.0450 C   0  0  0  0  0  0  0  0  0  0  0  0
  -24.3600   -9.4180   21.9220 C   0  0  0  0  0  3  0  0  0  0  0  0
  -23.6270   -8.2220   22.0770 C   0  0  0  0  0  3  0  0  0  0  0  0
  -22.4250   -8.0260   21.3560 C   0  0  0  0  0  0  0  0  0  0  0  0
  -21.9890   -9.0240   20.4660 C   0  0  0  0  0  3  0  0  0  0  0  0
  -22.7230  -10.2110   20.3090 C   0  0  0  0  0  3  0  0  0  0  0  0
  -21.6640   -6.8830   21.4230 O   0  0  0  0  0  0  0  0  0  0  0  0
  -21.6850   -6.0710   22.5280 C   0  0  0  0  0  0  0  0  0  0  0  0
  -21.4000   -6.5620   23.8210 C   0  0  0  0  0  3  0  0  0  0  0  0
  -21.3670   -5.6780   24.9180 C   0  0  0  0  0  3  0  0  0  0  0  0
  -21.6060   -4.3050   24.7240 C   0  0  0  0  0  0  0  0  0  0  0  0
  -21.8820   -3.8140   23.4360 C   0  0  0  0  0  3  0  0  0  0  0  0
  -21.9180   -4.6930   22.3410 C   0  0  0  0  0  0  0  0  0  0  0  0
  -22.1640   -4.2120   21.0990 F   0  0  0  0  0  0  0  0  0  0  0  0
  -21.5660   -3.4530   25.7750 F   0  0  0  0  0  0  0  0  0  0  0  0
  -22.7840  -13.5220   21.1840 C   0  0  0  0  0  0  0  0  0  0  0  0
  -22.0460  -12.8230   22.0400 N   0  0  0  0  0  0  0  0  0  0  0  0
  -22.3540  -14.5540   20.6690 O   0  0  0  0  0  0  0  0  0  0  0  0
  -22.4070  -11.9890   22.4800 H   0  0  0  0  0  0  0  0  0  0  0  0
  -21.1080  -13.1260   22.2610 H   0  0  0  0  0  0  0  0  0  0  0  0
  -25.4310  -15.1820   20.3960 N   0  0  0  0  0  0  0  0  0  0  0  0
  -24.6640  -15.8380   20.4880 H   0  0  0  0  0  0  0  0  0  0  0  0
  -26.2820  -15.6110   20.0570 H   0  0  0  0  0  0  0  0  0  0  0  0
  -28.2460  -26.5610   22.6240 C   0  0  0  0  0  1  0  0  0  0  0  0
  -28.4030  -25.8150   21.2730 C   0  0  0  0  0  3  0  0  0  0  0  0
  -28.3770  -26.7360   20.1700 O   0  0  0  0  0  0  0  0  0  0  0  0
  -24.6100  -31.8690   23.2100 C   0  0  0  0  0  0  0  0  0  0  0  0
  -27.2300  -27.4830   20.0980 C   0  0  0  0  0  0  0  0  0  0  0  0
  -23.3950  -30.4920   21.5510 C   0  0  0  0  0  3  0  0  0  0  0  0
  -24.8400  -28.9670   20.1060 C   0  0  0  0  0  0  0  0  0  0  0  0
  -25.9150  -30.8600   21.3460 C   0  0  0  0  0  2  0  0  0  0  0  0
  -25.9960  -29.5000   20.6890 C   0  0  0  0  0  0  0  0  0  0  0  0
  -27.1990  -28.7730   20.6650 C   0  0  0  0  0  3  0  0  0  0  0  0
  -26.0670  -26.9510   19.5050 C   0  0  0  0  0  3  0  0  0  0  0  0
  -24.8700  -27.6950   19.5020 C   0  0  0  0  0  3  0  0  0  0  0  0
  -23.5950  -29.8220   20.1640 C   0  0  0  0  0  2  0  0  0  0  0  0
  -24.6580  -31.0860   22.0960 N   0  0  0  0  0  0  0  0  0  0  0  0
  -23.5310  -32.1420   23.7540 O   0  0  0  0  0  0  0  0  0  0  0  0
  -22.7390  -29.4660   22.5020 C   0  0  0  0  0  0  0  0  0  0  0  0
  -21.4130  -29.3020   22.3780 N   0  0  0  0  0  0  0  0  0  0  0  0
  -23.4190  -28.8210   23.3040 O   0  0  0  0  0  0  0  0  0  0  0  0
  -20.9280  -29.8750   21.7010 H   0  0  0  0  0  0  0  0  0  0  0  0
  -18.0260  -28.1380   22.8510 C   0  0  0  0  0  0  0  0  0  0  0  0
  -20.5850  -28.3650   23.1350 C   0  0  0  0  0  3  0  0  0  0  0  0
  -20.6760  -26.9390   22.5440 C   0  0  0  0  0  2  0  0  0  0  0  0
  -19.5740  -26.6390   21.5230 C   0  0  0  0  0  2  0  0  0  0  0  0
  -18.1910  -26.7930   22.1630 C   0  0  0  0  0  2  0  0  0  0  0  0
  -19.1510  -28.8830   23.2930 C   0  0  0  0  0  0  0  0  0  0  0  0
  -18.9450  -30.1440   23.8930 C   0  0  0  0  0  3  0  0  0  0  0  0
  -17.6450  -30.6590   24.0570 C   0  0  0  0  0  3  0  0  0  0  0  0
  -16.5340  -29.9100   23.6330 C   0  0  0  0  0  3  0  0  0  0  0  0
  -16.7260  -28.6510   23.0350 C   0  0  0  0  0  3  0  0  0  0  0  0
  -25.9010  -32.4830   23.8390 C   0  0  0  0  0  3  0  0  0  0  0  0
  -26.4460  -31.6590   25.0700 C   0  0  1  0  0  0  0  0  0  0  0  0
  -25.3750  -31.3670   26.1460 C   0  0  0  0  0  1  0  0  0  0  0  0
  -27.0280  -30.3050   24.6010 C   0  0  0  0  0  1  0  0  0  0  0  0
  -27.6050  -32.4300   25.7460 C   0  0  0  0  0  1  0  0  0  0  0  0
  -25.5880  -33.8630   24.2340 N   0  0  0  0  0  0  0  0  0  0  0  0
  -25.9030  -34.9490   23.5140 C   0  0  0  0  0  0  0  0  0  0  0  0
  -26.5610  -34.8940   22.4710 O   0  0  0  0  0  0  0  0  0  0  0  0
  -25.0030  -33.9790   25.0490 H   0  0  0  0  0  0  0  0  0  0  0  0
  -24.1480  -36.7330   23.2640 C   0  0  0  0  0  1  0  0  0  0  0  0
  -25.4100  -36.3130   24.0350 C   0  0  0  0  0  3  0  0  0  0  0  0
  -27.5590  -37.1820   24.8460 C   0  0  0  0  0  1  0  0  0  0  0  0
  -26.4300  -37.3810   23.9410 N   0  0  0  0  0  0  0  0  0  0  0  0
  -26.0200  -38.2890   24.1410 H   0  0  0  0  0  0  0  0  0  0  0  0
  1  2  1  0
  3  8  1  0
  3  1  1  0
  4 58  1  0
  4  2  1  0
  5  6  1  0
  6  3  1  0
  6  4  1  0
  6  7  1  6
  8  9  1  0
  9 11  1  0
 10  8  2  0
 12 15  1  0
 13 12  2  0
 13 17  1  0
 15  9  1  0
 15 14  2  0
 16 14  1  0
 16 27  1  0
 17 16  2  0
 18 17  1  0
 19 27  1  0
 20 25  1  0
 21 22  1  0
 21 20  1  0
 23 22  1  0
 23 32  1  0
 23 24  1  0
 25 19  1  0
 25 24  1  0
 26 19  2  0
 27 28  1  0
 29 30  2  0
 30 49  1  0
 31 30  1  0
 31 34  1  0
 32 29  1  0
 32 33  1  0
 33 31  2  0
 34 35  1  0
 35 36  2  0
 37 40  1  0
 37 36  1  0
 38 37  2  0
 39 38  1  0
 39 34  2  0
 40 41  1  0
 41 42  1  0
 42 43  2  0
 44 43  1  0
 44 48  1  0
 45 44  2  0
 46 41  2  0
 46 45  1  0
 47 46  1  0
 49 50  1  0
 50 53  1  0
 50 52  1  0
 51 49  2  0
 54 55  1  0
 54 29  1  0
 56 54  1  0
 58 57  1  0
 59 58  1  0
 60 71  2  0
 61 59  1  0
 61 66  1  0
 62 70  1  0
 62 72  1  0
 63 69  1  0
 63 65  1  0
 64 70  1  0
 65 64  1  0
 66 65  2  0
 67 61  2  0
 68 67  1  0
 68 63  2  0
 69 62  1  0
 70 60  1  0
 72 74  2  0
 73 72  1  0
 75 73  1  0
 76 85  2  0
 76 81  1  0
 77 73  1  0
 77 81  1  0
 78 77  1  0
 79 80  1  0
 79 78  1  0
 80 76  1  0
 81 82  2  0
 82 83  1  0
 84 83  2  0
 85 84  1  0
 86 60  1  0
 86 91  1  0
 86 87  1  0
 87 90  1  1
 87 88  1  0
 89 87  1  0
 91 94  1  0
 92 96  1  0
 92 91  1  0
 93 92  2  0
 96 95  1  0
 98 96  1  0
 98 99  1  0
 98 97  1  0
M  ISO  4  19 100  27 100  58 101  59 101
M  END
>  <TORSDO>  (62) 
F 19

>  <SCORE>  (62) 
-13.498

>  <name>  (62) 
61

>  <ligand_id>  (62) 
61

>  <original_smiles>  (62) 
[H]c1c([H])c([H])c2c(c1[H])C([H])([H])C([H])([H])C([H])([H])C2([H])N([H])C(=O)C1([H])N(C(=O)C([H])(N([H])C(=O)C([H])(N([H])C([H])([H])[H])C([H])([H])[H])C(C([H])([H])[H])(C([H])([H])[H])C([H])([H])[H])C([H])([H])c2c([H])c(OC([H])(C([H])([H])[H])C3([H])C([H])([H])C([H])([H])C([H])(C(=O)N([H])c4c([H])c([H])c(F)c(N([H])C(=O)N5C([H])([H])C([H])([H])C([H])([H])C([H])(n6nc(-c7c([H])c([H])c(Oc8c([H])c([H])c(F)c([H])c8F)c([H])c7[H])c(C(=O)N([H])[H])c6N([H])[H])C5([H])[H])c4[H])[N+]3([H])C([H])([H])[H])c([H])c([H])c2C1([H])[H]

>  <smiles>  (62) 
[H]c1c([H])c([H])c2c(c1[H])C([H])([H])C([H])([H])C([H])([H])C2([H])N([H])C(=O)C1([H])N(C(=O)C([H])(N([H])C(=O)C([H])(N([H])C([H])([H])[H])C([H])([H])[H])C(C([H])([H])[H])(C([H])([H])[H])C([H])([H])[H])C([H])([H])c2c([H])c(OC([H])(C([H])([H])[H])C3([H])C([H])([H])C([H])([H])C([H])(C(=O)N([H])c4c([H])c([H])c(F)c(N([H])C(=O)N5C([H])([H])C([H])([H])C([H])([H])C([H])(n6nc(-c7c([H])c([H])c(Oc8c([H])c([H])c(F)c([H])c8F)c([H])c7[H])c(C(=O)N([H])[H])c6N([H])[H])C5([H])[H])c4[H])[N+]3([H])C([H])([H])[H])c([H])c([H])c2C1([H])[H]

$$$$
62:0:0
     RDKit          3D

 95104  0  0  1  0  0  0  0  0999 V2000
  -30.0330  -22.8910   22.5180 C   0  0  0  0  0  2  0  0  0  0  0  0
  -29.7710  -24.3860   22.2840 C   0  0  0  0  0  2  0  0  0  0  0  0
  -30.0180  -22.2390   21.1220 C   0  0  0  0  0  3  0  0  0  0  0  0
  -29.3480  -24.5310   20.8070 C   0  0  0  0  0  3  0  0  0  0  0  0
  -29.3690  -23.0010   18.8380 C   0  0  0  0  0  1  0  0  0  0  0  0
  -29.1570  -23.1310   20.3020 N   0  0  1  0  0  4  0  0  0  0  0  0
  -28.2080  -22.8480   20.5070 H   0  0  0  0  0  0  0  0  0  0  0  0
  -29.4660  -20.7630   21.1140 C   0  0  0  0  0  0  0  0  0  0  0  0
  -28.3150  -20.5350   21.5060 O   0  0  0  0  0  0  0  0  0  0  0  0
  -32.3260  -18.8530   19.4230 C   0  0  0  0  0  3  0  0  0  0  0  0
  -31.5230  -19.9010   19.8950 C   0  0  0  0  0  3  0  0  0  0  0  0
  -31.9660  -17.5150   19.6690 C   0  0  0  0  0  3  0  0  0  0  0  0
  -29.9810  -18.2670   20.8460 C   0  0  0  0  0  3  0  0  0  0  0  0
  -30.3410  -19.6340   20.6250 C   0  0  0  0  0  0  0  0  0  0  0  0
  -30.7880  -17.1840   20.3960 C   0  0  0  0  0  0  0  0  0  0  0  0
  -30.9960  -14.6650   20.3170 C   0  0  0  0  0  0  0  0  0  0  0  0
  -30.5880  -12.4970   19.2350 C   0  0  0  0  0  2  0  0  0  0  0  0
  -29.6360  -12.6900   18.0370 C   0  0  0  0  0  2  0  0  0  0  0  0
  -28.1660  -12.6100   18.4810 C   0  0  0  0  0  2  0  0  0  0  0  0
  -27.8580  -13.4210   19.7700 C   0  0  0  0  0  3  0  0  0  0  0  0
  -28.9470  -13.2530   20.8560 C   0  0  0  0  0  2  0  0  0  0  0  0
  -30.2540  -13.5210   20.2390 N   0  0  0  0  0  0  0  0  0  0  0  0
  -32.1630  -14.6790   19.9340 O   0  0  0  0  0  0  0  0  0  0  0  0
  -30.3650  -15.8150   20.6530 N   0  0  0  0  0  0  0  0  0  0  0  0
  -29.4440  -15.7050   21.0450 H   0  0  0  0  0  0  0  0  0  0  0  0
  -25.4790  -13.9920   20.5500 C   0  0  0  0  0  0  0  0  0  0  0  0
  -24.4220  -13.2120   20.9300 C   0  0  0  0  0  0  0  0  0  0  0  0
  -24.8820  -11.8620   20.8590 C   0  0  0  0  0  0  0  0  0  0  0  0
  -26.5210  -13.1210   20.2790 N   0  0  0  0  0  0  0  0  0  0  0  0
  -26.1670  -11.8310   20.5230 N   0  0  0  0  0  0  0  0  0  0  0  0
  -24.1560  -10.5980   21.0330 C   0  0  0  0  0  0  0  0  0  0  0  0
  -24.5640   -9.6410   21.9890 C   0  0  0  0  0  3  0  0  0  0  0  0
  -23.8410   -8.4380   22.1550 C   0  0  0  0  0  3  0  0  0  0  0  0
  -22.6940   -8.1860   21.3630 C   0  0  0  0  0  0  0  0  0  0  0  0
  -22.3070   -9.1310   20.3960 C   0  0  0  0  0  3  0  0  0  0  0  0
  -23.0310  -10.3240   20.2300 C   0  0  0  0  0  3  0  0  0  0  0  0
  -21.9420   -7.0390   21.4380 O   0  0  0  0  0  0  0  0  0  0  0  0
  -21.7970   -6.3440   22.6110 C   0  0  0  0  0  0  0  0  0  0  0  0
  -21.2260   -6.9360   23.7600 C   0  0  0  0  0  3  0  0  0  0  0  0
  -21.0320   -6.1670   24.9250 C   0  0  0  0  0  3  0  0  0  0  0  0
  -21.3960   -4.8070   24.9420 C   0  0  0  0  0  0  0  0  0  0  0  0
  -21.9580   -4.2150   23.7970 C   0  0  0  0  0  3  0  0  0  0  0  0
  -22.1540   -4.9800   22.6350 C   0  0  0  0  0  0  0  0  0  0  0  0
  -22.6750   -4.4010   21.5280 F   0  0  0  0  0  0  0  0  0  0  0  0
  -21.2040   -4.0670   26.0570 F   0  0  0  0  0  0  0  0  0  0  0  0
  -23.0320  -13.6820   21.2450 C   0  0  0  0  0  0  0  0  0  0  0  0
  -22.3230  -12.9630   22.1060 N   0  0  0  0  0  0  0  0  0  0  0  0
  -22.5880  -14.7240   20.7670 O   0  0  0  0  0  0  0  0  0  0  0  0
  -22.6950  -12.1230   22.5200 H   0  0  0  0  0  0  0  0  0  0  0  0
  -21.3860  -13.2540   22.3470 H   0  0  0  0  0  0  0  0  0  0  0  0
  -25.6400  -15.3630   20.3920 N   0  0  0  0  0  0  0  0  0  0  0  0
  -24.8690  -16.0170   20.4890 H   0  0  0  0  0  0  0  0  0  0  0  0
  -26.4710  -15.7870   20.0000 H   0  0  0  0  0  0  0  0  0  0  0  0
  -28.1040  -25.4400   20.5980 C   0  0  0  0  0  2  0  0  0  0  0  0
  -28.3940  -26.8090   20.2360 O   0  0  0  0  0  0  0  0  0  0  0  0
  -24.6330  -31.9780   23.3670 C   0  0  0  0  0  0  0  0  0  0  0  0
  -27.2640  -27.6000   20.1820 C   0  0  0  0  0  0  0  0  0  0  0  0
  -23.4330  -30.6220   21.6880 C   0  0  0  0  0  3  0  0  0  0  0  0
  -24.8880  -29.1340   20.2180 C   0  0  0  0  0  0  0  0  0  0  0  0
  -25.9610  -30.9800   21.5020 C   0  0  0  0  0  2  0  0  0  0  0  0
  -26.0470  -29.6280   20.8270 C   0  0  0  0  0  0  0  0  0  0  0  0
  -27.2440  -28.8720   20.8020 C   0  0  0  0  0  3  0  0  0  0  0  0
  -26.0910  -27.1420   19.5340 C   0  0  0  0  0  3  0  0  0  0  0  0
  -24.9080  -27.8970   19.5600 C   0  0  0  0  0  3  0  0  0  0  0  0
  -23.6510  -29.9990   20.2840 C   0  0  0  0  0  2  0  0  0  0  0  0
  -24.6960  -31.2050   22.2450 N   0  0  0  0  0  0  0  0  0  0  0  0
  -23.5500  -32.2330   23.9110 O   0  0  0  0  0  0  0  0  0  0  0  0
  -22.7820  -29.5660   22.6130 C   0  0  0  0  0  0  0  0  0  0  0  0
  -21.4610  -29.3730   22.4660 N   0  0  0  0  0  0  0  0  0  0  0  0
  -23.4660  -28.9310   23.4220 O   0  0  0  0  0  0  0  0  0  0  0  0
  -20.9740  -29.9410   21.7870 H   0  0  0  0  0  0  0  0  0  0  0  0
  -18.0920  -28.1330   22.9020 C   0  0  0  0  0  0  0  0  0  0  0  0
  -20.6440  -28.4150   23.2120 C   0  0  0  0  0  3  0  0  0  0  0  0
  -20.7710  -26.9940   22.6160 C   0  0  0  0  0  2  0  0  0  0  0  0
  -19.6870  -26.6720   21.5830 C   0  0  0  0  0  2  0  0  0  0  0  0
  -18.2950  -26.7960   22.2090 C   0  0  0  0  0  2  0  0  0  0  0  0
  -19.1970  -28.8990   23.3600 C   0  0  0  0  0  0  0  0  0  0  0  0
  -18.9570  -30.1500   23.9700 C   0  0  0  0  0  3  0  0  0  0  0  0
  -17.6450  -30.6350   24.1260 C   0  0  0  0  0  3  0  0  0  0  0  0
  -16.5550  -29.8680   23.6820 C   0  0  0  0  0  3  0  0  0  0  0  0
  -16.7790  -28.6190   23.0750 C   0  0  0  0  0  3  0  0  0  0  0  0
  -25.9150  -32.5970   24.0000 C   0  0  0  0  0  3  0  0  0  0  0  0
  -26.4050  -31.8280   25.2870 C   0  0  1  0  0  0  0  0  0  0  0  0
  -25.2920  -31.5860   26.3340 C   0  0  0  0  0  1  0  0  0  0  0  0
  -26.9900  -30.4500   24.8980 C   0  0  0  0  0  1  0  0  0  0  0  0
  -27.5470  -32.6190   25.9690 C   0  0  0  0  0  1  0  0  0  0  0  0
  -25.6210  -34.0030   24.3140 N   0  0  0  0  0  0  0  0  0  0  0  0
  -25.9350  -35.0390   23.5240 C   0  0  0  0  0  0  0  0  0  0  0  0
  -26.5780  -34.9130   22.4770 O   0  0  0  0  0  0  0  0  0  0  0  0
  -25.0580  -34.1740   25.1340 H   0  0  0  0  0  0  0  0  0  0  0  0
  -24.1830  -36.8140   23.1990 C   0  0  0  0  0  1  0  0  0  0  0  0
  -25.4620  -36.4380   23.9650 C   0  0  0  0  0  3  0  0  0  0  0  0
  -27.6250  -37.3560   24.6810 C   0  0  0  0  0  1  0  0  0  0  0  0
  -26.4830  -37.4920   23.7800 N   0  0  0  0  0  0  0  0  0  0  0  0
  -26.0780  -38.4140   23.9220 H   0  0  0  0  0  0  0  0  0  0  0  0
  2  1  1  0
  3  8  1  0
  3  1  1  0
  4 54  1  0
  4  2  1  0
  5  6  1  0
  6  7  1  6
  6  4  1  0
  6  3  1  0
  8  9  2  0
 10 12  2  0
 10 11  1  0
 11 14  2  0
 12 15  1  0
 14 13  1  0
 14  8  1  0
 15 24  1  0
 15 13  2  0
 16 24  1  0
 17 22  1  0
 18 19  1  0
 18 17  1  0
 20 19  1  0
 20 29  1  0
 20 21  1  0
 22 16  1  0
 22 21  1  0
 23 16  2  0
 24 25  1  0
 26 27  2  0
 27 46  1  0
 28 27  1  0
 28 31  1  0
 29 30  1  0
 29 26  1  0
 30 28  2  0
 31 32  1  0
 32 33  2  0
 34 37  1  0
 34 33  1  0
 35 34  2  0
 36 35  1  0
 36 31  2  0
 37 38  1  0
 38 43  2  0
 38 39  1  0
 39 40  2  0
 40 41  1  0
 41 45  1  0
 42 41  2  0
 43 42  1  0
 44 43  1  0
 46 47  1  0
 47 50  1  0
 47 49  1  0
 48 46  2  0
 51 52  1  0
 51 26  1  0
 53 51  1  0
 55 54  1  0
 56 67  2  0
 57 55  1  0
 57 62  1  0
 58 66  1  0
 58 68  1  0
 59 65  1  0
 59 61  1  0
 60 66  1  0
 61 60  1  0
 62 61  2  0
 63 64  1  0
 63 57  2  0
 64 59  2  0
 65 58  1  0
 66 56  1  0
 68 70  2  0
 69 68  1  0
 71 69  1  0
 72 81  2  0
 72 77  1  0
 73 69  1  0
 73 77  1  0
 74 73  1  0
 75 76  1  0
 75 74  1  0
 76 72  1  0
 77 78  2  0
 78 79  1  0
 80 79  2  0
 81 80  1  0
 82 56  1  0
 82 87  1  0
 82 83  1  0
 83 86  1  1
 83 84  1  0
 85 83  1  0
 87 90  1  0
 88 92  1  0
 88 87  1  0
 89 88  2  0
 92 91  1  0
 94 95  1  0
 94 92  1  0
 94 93  1  0
M  ISO  4  16 100  24 100  54 101  55 101
M  END
>  <TORSDO>  (63) 
F 19

>  <SCORE>  (63) 
-14.158

>  <name>  (63) 
62

>  <ligand_id>  (63) 
62

>  <original_smiles>  (63) 
[H]c1c([H])c(C(=O)C2([H])C([H])([H])C([H])([H])C([H])(C([H])([H])Oc3c([H])c([H])c4c(c3[H])C([H])([H])N(C(=O)C([H])(N([H])C(=O)C([H])(N([H])C([H])([H])[H])C([H])([H])[H])C(C([H])([H])[H])(C([H])([H])[H])C([H])([H])[H])C([H])(C(=O)N([H])C3([H])c5c([H])c([H])c([H])c([H])c5C([H])([H])C([H])([H])C3([H])[H])C4([H])[H])[N+]2([H])C([H])([H])[H])c([H])c(N([H])C(=O)N2C([H])([H])C([H])([H])C([H])([H])C([H])(n3nc(-c4c([H])c([H])c(Oc5c([H])c([H])c(F)c([H])c5F)c([H])c4[H])c(C(=O)N([H])[H])c3N([H])[H])C2([H])[H])c1[H]

>  <smiles>  (63) 
[H]c1c([H])c(C(=O)C2([H])C([H])([H])C([H])([H])C([H])(C([H])([H])Oc3c([H])c([H])c4c(c3[H])C([H])([H])N(C(=O)C([H])(N([H])C(=O)C([H])(N([H])C([H])([H])[H])C([H])([H])[H])C(C([H])([H])[H])(C([H])([H])[H])C([H])([H])[H])C([H])(C(=O)N([H])C3([H])c5c([H])c([H])c([H])c([H])c5C([H])([H])C([H])([H])C3([H])[H])C4([H])[H])[N+]2([H])C([H])([H])[H])c([H])c(N([H])C(=O)N2C([H])([H])C([H])([H])C([H])([H])C([H])(n3nc(-c4c([H])c([H])c(Oc5c([H])c([H])c(F)c([H])c5F)c([H])c4[H])c(C(=O)N([H])[H])c3N([H])[H])C2([H])[H])c1[H]

$$$$
63:0:0
     RDKit          3D

 92100  0  0  1  0  0  0  0  0999 V2000
  -28.7810  -20.6040   19.8990 C   0  0  0  0  0  2  0  0  0  0  0  0
  -28.5950  -23.3800   19.9720 C   0  0  0  0  0  0  0  0  0  0  0  0
  -28.7380  -22.0700   20.5350 N   0  0  0  0  0  0  0  0  0  0  0  0
  -28.8110  -23.5080   18.7650 O   0  0  0  0  0  0  0  0  0  0  0  0
  -28.5640  -22.0710   21.5320 H   0  0  0  0  0  0  0  0  0  0  0  0
  -28.0740  -24.7500   20.7790 C   0  0  0  0  0  2  0  0  0  0  0  0
  -28.3140  -26.2290   20.3130 O   0  0  0  0  0  0  0  0  0  0  0  0
  -24.5870  -31.9300   23.2500 C   0  0  0  0  0  0  0  0  0  0  0  0
  -27.2540  -27.2110   20.2940 C   0  0  0  0  0  0  0  0  0  0  0  0
  -23.4280  -30.5110   21.6010 C   0  0  0  0  0  3  0  0  0  0  0  0
  -24.9140  -28.9390   20.2120 C   0  0  0  0  0  0  0  0  0  0  0  0
  -25.9830  -30.8010   21.4730 C   0  0  0  0  0  2  0  0  0  0  0  0
  -26.0820  -29.4020   20.8340 C   0  0  0  0  0  0  0  0  0  0  0  0
  -27.2560  -28.5560   20.8520 C   0  0  0  0  0  3  0  0  0  0  0  0
  -26.0610  -26.8500   19.6360 C   0  0  0  0  0  3  0  0  0  0  0  0
  -24.9180  -27.6770   19.5970 C   0  0  0  0  0  3  0  0  0  0  0  0
  -23.6790  -29.8270   20.2320 C   0  0  0  0  0  2  0  0  0  0  0  0
  -24.6850  -31.1040   22.1630 N   0  0  0  0  0  0  0  0  0  0  0  0
  -23.4890  -32.2050   23.7590 O   0  0  0  0  0  0  0  0  0  0  0  0
  -22.7460  -29.5030   22.5590 C   0  0  0  0  0  0  0  0  0  0  0  0
  -21.4210  -29.3200   22.4170 N   0  0  0  0  0  0  0  0  0  0  0  0
  -23.4120  -28.8870   23.3950 O   0  0  0  0  0  0  0  0  0  0  0  0
  -20.9390  -29.8680   21.7180 H   0  0  0  0  0  0  0  0  0  0  0  0
  -18.0420  -28.0960   22.8890 C   0  0  0  0  0  0  0  0  0  0  0  0
  -20.5970  -28.3790   23.1810 C   0  0  0  0  0  3  0  0  0  0  0  0
  -20.7150  -26.9460   22.6120 C   0  0  0  0  0  2  0  0  0  0  0  0
  -19.6270  -26.6120   21.5870 C   0  0  0  0  0  2  0  0  0  0  0  0
  -18.2370  -26.7480   22.2160 C   0  0  0  0  0  2  0  0  0  0  0  0
  -19.1510  -28.8690   23.3280 C   0  0  0  0  0  0  0  0  0  0  0  0
  -18.9150  -30.1300   23.9170 C   0  0  0  0  0  3  0  0  0  0  0  0
  -17.6030  -30.6180   24.0720 C   0  0  0  0  0  3  0  0  0  0  0  0
  -16.5100  -29.8440   23.6480 C   0  0  0  0  0  3  0  0  0  0  0  0
  -16.7300  -28.5840   23.0620 C   0  0  0  0  0  3  0  0  0  0  0  0
  -25.8470  -32.5850   23.8930 C   0  0  0  0  0  3  0  0  0  0  0  0
  -26.3350  -31.8410   25.1970 C   0  0  1  0  0  0  0  0  0  0  0  0
  -25.2150  -31.6110   26.2400 C   0  0  0  0  0  1  0  0  0  0  0  0
  -26.9390  -30.4610   24.8480 C   0  0  0  0  0  1  0  0  0  0  0  0
  -27.4610  -32.6560   25.8750 C   0  0  0  0  0  1  0  0  0  0  0  0
  -25.5180  -33.9870   24.1980 N   0  0  0  0  0  0  0  0  0  0  0  0
  -25.8550  -35.0360   23.4360 C   0  0  0  0  0  0  0  0  0  0  0  0
  -26.5430  -34.9250   22.4180 O   0  0  0  0  0  0  0  0  0  0  0  0
  -24.9090  -34.1450   24.9880 H   0  0  0  0  0  0  0  0  0  0  0  0
  -24.1280  -36.8220   23.0290 C   0  0  0  0  0  1  0  0  0  0  0  0
  -25.3520  -36.4270   23.8710 C   0  0  0  0  0  3  0  0  0  0  0  0
  -27.4610  -37.3330   24.7450 C   0  0  0  0  0  1  0  0  0  0  0  0
  -26.3830  -37.4850   23.7730 N   0  0  0  0  0  0  0  0  0  0  0  0
  -25.9680  -38.4040   23.9000 H   0  0  0  0  0  0  0  0  0  0  0  0
  -29.6740  -19.2320   20.3960 C   0  0  0  0  0  3  0  0  0  0  0  0
  -30.6810  -15.1230   20.2770 C   0  0  0  0  0  0  0  0  0  0  0  0
  -30.5400  -12.7500   19.3730 C   0  0  0  0  0  2  0  0  0  0  0  0
  -29.6050  -12.6270   18.1510 C   0  0  0  0  0  2  0  0  0  0  0  0
  -28.1480  -12.4180   18.6020 C   0  0  0  0  0  2  0  0  0  0  0  0
  -27.7330  -13.3790   19.7480 C   0  0  0  0  0  3  0  0  0  0  0  0
  -28.7960  -13.4710   20.8610 C   0  0  0  0  0  2  0  0  0  0  0  0
  -30.0390  -13.8850   20.2030 N   0  0  0  0  0  0  0  0  0  0  0  0
  -31.9070  -15.0860   20.1210 O   0  0  0  0  0  0  0  0  0  0  0  0
  -28.6540  -17.3570   18.7220 C   0  0  0  0  0  2  0  0  0  0  0  0
  -30.0110  -16.7090   18.4280 C   0  0  0  0  0  2  0  0  0  0  0  0
  -29.1540  -17.6270   20.1420 C   0  0  0  0  0  3  0  0  0  0  0  0
  -30.0380  -16.3300   19.8390 N   0  0  0  0  0  0  0  0  0  0  0  0
  -25.3700  -13.9530   20.5290 C   0  0  0  0  0  0  0  0  0  0  0  0
  -24.3080  -13.1780   20.9010 C   0  0  0  0  0  0  0  0  0  0  0  0
  -24.7700  -11.8270   20.8550 C   0  0  0  0  0  0  0  0  0  0  0  0
  -26.4070  -13.0760   20.2690 N   0  0  0  0  0  0  0  0  0  0  0  0
  -26.0580  -11.7900   20.5330 N   0  0  0  0  0  0  0  0  0  0  0  0
  -24.0420  -10.5640   21.0360 C   0  0  0  0  0  0  0  0  0  0  0  0
  -24.4680   -9.5920   21.9680 C   0  0  0  0  0  3  0  0  0  0  0  0
  -23.7390   -8.3940   22.1400 C   0  0  0  0  0  3  0  0  0  0  0  0
  -22.5680   -8.1630   21.3800 C   0  0  0  0  0  0  0  0  0  0  0  0
  -22.1610   -9.1230   20.4370 C   0  0  0  0  0  3  0  0  0  0  0  0
  -22.8900  -10.3100   20.2630 C   0  0  0  0  0  3  0  0  0  0  0  0
  -21.8100   -7.0200   21.4600 O   0  0  0  0  0  0  0  0  0  0  0  0
  -21.7410   -6.2830   22.6160 C   0  0  0  0  0  0  0  0  0  0  0  0
  -21.2600   -6.8350   23.8240 C   0  0  0  0  0  3  0  0  0  0  0  0
  -21.1400   -6.0230   24.9700 C   0  0  0  0  0  3  0  0  0  0  0  0
  -21.4890   -4.6600   24.9090 C   0  0  0  0  0  0  0  0  0  0  0  0
  -21.9630   -4.1090   23.7050 C   0  0  0  0  0  3  0  0  0  0  0  0
  -22.0850   -4.9180   22.5610 C   0  0  0  0  0  0  0  0  0  0  0  0
  -22.5210   -4.3750   21.3990 F   0  0  0  0  0  0  0  0  0  0  0  0
  -21.3670   -3.8790   26.0060 F   0  0  0  0  0  0  0  0  0  0  0  0
  -22.9140  -13.6560   21.1830 C   0  0  0  0  0  0  0  0  0  0  0  0
  -22.1870  -12.9550   22.0460 N   0  0  0  0  0  0  0  0  0  0  0  0
  -22.4770  -14.6880   20.6740 O   0  0  0  0  0  0  0  0  0  0  0  0
  -22.5540  -12.1210   22.4800 H   0  0  0  0  0  0  0  0  0  0  0  0
  -21.2510  -13.2580   22.2760 H   0  0  0  0  0  0  0  0  0  0  0  0
  -25.5360  -15.3250   20.3640 N   0  0  0  0  0  0  0  0  0  0  0  0
  -24.7730  -15.9810   20.4870 H   0  0  0  0  0  0  0  0  0  0  0  0
  -26.3880  -15.7600   20.0320 H   0  0  0  0  0  0  0  0  0  0  0  0
  -30.0120  -19.3920   21.8170 N   0  0  0  0  0  4  0  0  0  0  0  0
  -29.1870  -19.3480   22.3890 H   0  0  0  0  0  0  0  0  0  0  0  0
  -30.4640  -20.2760   21.9650 H   0  0  0  0  0  0  0  0  0  0  0  0
  -30.6430  -18.6680   22.1080 H   0  0  0  0  0  0  0  0  0  0  0  0
  1  3  1  0
  2  3  1  0
  2  6  1  0
  3  5  1  0
  4  2  2  0
  7  6  1  0
  8 19  2  0
  9  7  1  0
  9 14  1  0
 10 18  1  0
 10 20  1  0
 11 17  1  0
 11 13  1  0
 12 18  1  0
 13 14  2  0
 13 12  1  0
 15  9  2  0
 16 15  1  0
 16 11  2  0
 17 10  1  0
 18  8  1  0
 20 22  2  0
 21 20  1  0
 23 21  1  0
 24 33  2  0
 24 29  1  0
 25 21  1  0
 25 29  1  0
 26 25  1  0
 27 28  1  0
 27 26  1  0
 28 24  1  0
 29 30  2  0
 30 31  1  0
 32 31  2  0
 33 32  1  0
 34  8  1  0
 34 39  1  0
 34 35  1  0
 35 38  1  1
 35 36  1  0
 37 35  1  0
 39 42  1  0
 40 44  1  0
 40 39  1  0
 41 40  2  0
 44 43  1  0
 46 44  1  0
 46 47  1  0
 46 45  1  0
 48  1  1  0
 48 89  1  0
 50 55  1  0
 51 52  1  0
 51 50  1  0
 53 52  1  0
 53 64  1  0
 53 54  1  0
 55 49  1  0
 55 54  1  0
 56 49  2  0
 57 59  1  0
 58 57  1  0
 58 60  1  0
 59 48  1  0
 60 59  1  0
 60 49  1  0
 61 62  2  0
 62 81  1  0
 63 62  1  0
 63 66  1  0
 64 61  1  0
 64 65  1  0
 65 63  2  0
 66 67  1  0
 67 68  2  0
 69 72  1  0
 69 68  1  0
 70 69  2  0
 71 70  1  0
 71 66  2  0
 72 73  1  0
 73 74  1  0
 74 75  2  0
 76 75  1  0
 76 80  1  0
 77 76  2  0
 78 73  2  0
 78 77  1  0
 79 78  1  0
 81 82  1  0
 82 85  1  0
 82 84  1  0
 83 81  2  0
 86 87  1  0
 86 61  1  0
 88 86  1  0
 89 91  1  0
 89 92  1  0
 89 90  1  0
M  ISO  4   6 101   7 101  49 100  60 100
M  END
>  <TORSDO>  (64) 
F 20

>  <SCORE>  (64) 
-15.058

>  <name>  (64) 
63

>  <ligand_id>  (64) 
63

>  <original_smiles>  (64) 
[H]c1c([H])c([H])c2c(c1[H])C([H])([H])C([H])([H])C([H])([H])C2([H])N([H])C(=O)C1([H])N(C(=O)C([H])(N([H])C(=O)C([H])(N([H])C([H])([H])[H])C([H])([H])[H])C(C([H])([H])[H])(C([H])([H])[H])C([H])([H])[H])C([H])([H])c2c([H])c(OC([H])([H])C(=O)N([H])C([H])([H])C([H])(C3([H])N(C(=O)N4C([H])([H])C([H])([H])C([H])([H])C([H])(n5nc(-c6c([H])c([H])c(Oc7c([H])c([H])c(F)c([H])c7F)c([H])c6[H])c(C(=O)N([H])[H])c5N([H])[H])C4([H])[H])C([H])([H])C3([H])[H])[N+]([H])([H])[H])c([H])c([H])c2C1([H])[H]

>  <smiles>  (64) 
[H]c1c([H])c([H])c2c(c1[H])C([H])([H])C([H])([H])C([H])([H])C2([H])N([H])C(=O)C1([H])N(C(=O)C([H])(N([H])C(=O)C([H])(N([H])C([H])([H])[H])C([H])([H])[H])C(C([H])([H])[H])(C([H])([H])[H])C([H])([H])[H])C([H])([H])c2c([H])c(OC([H])([H])C(=O)N([H])C([H])([H])C([H])(C3([H])N(C(=O)N4C([H])([H])C([H])([H])C([H])([H])C([H])(n5nc(-c6c([H])c([H])c(Oc7c([H])c([H])c(F)c([H])c7F)c([H])c6[H])c(C(=O)N([H])[H])c5N([H])[H])C4([H])[H])C([H])([H])C3([H])[H])[N+]([H])([H])[H])c([H])c([H])c2C1([H])[H]

$$$$
64:0:0
     RDKit          3D

 93101  0  0  1  0  0  0  0  0999 V2000
  -27.2760  -22.1580   20.5600 C   0  0  0  0  0  1  0  0  0  0  0  0
  -28.7170  -22.6620   20.5490 C   0  0  2  0  0  0  0  0  0  0  0  0
  -31.7970  -20.2030   19.5110 C   0  0  0  0  0  3  0  0  0  0  0  0
  -30.9330  -21.3140   19.7270 C   0  0  0  0  0  3  0  0  0  0  0  0
  -31.4280  -18.8340   19.6710 C   0  0  0  0  0  3  0  0  0  0  0  0
  -29.2690  -19.6650   20.3120 C   0  0  0  0  0  3  0  0  0  0  0  0
  -29.5870  -21.1790   20.1380 C   0  0  0  0  0  0  0  0  0  0  0  0
  -30.1440  -18.4040   20.0880 C   0  0  0  0  0  0  0  0  0  0  0  0
  -30.5940  -15.4820   20.0160 C   0  0  0  0  0  0  0  0  0  0  0  0
  -30.5280  -13.0120   19.1590 C   0  0  0  0  0  2  0  0  0  0  0  0
  -29.5510  -12.7160   17.9890 C   0  0  0  0  0  2  0  0  0  0  0  0
  -28.1550  -12.3830   18.5220 C   0  0  0  0  0  2  0  0  0  0  0  0
  -27.7140  -13.3960   19.6010 C   0  0  0  0  0  3  0  0  0  0  0  0
  -28.8080  -13.6370   20.6800 C   0  0  0  0  0  2  0  0  0  0  0  0
  -30.0100  -14.1680   20.0000 N   0  0  0  0  0  0  0  0  0  0  0  0
  -31.7870  -15.4490   19.6670 O   0  0  0  0  0  0  0  0  0  0  0  0
  -29.8960  -16.7880   20.2480 N   0  0  0  0  0  0  0  0  0  0  0  0
  -28.9800  -16.6020   20.6300 H   0  0  0  0  0  0  0  0  0  0  0  0
  -25.3680  -13.9360   20.4480 C   0  0  0  0  0  0  0  0  0  0  0  0
  -24.3210  -13.1530   20.8440 C   0  0  0  0  0  0  0  0  0  0  0  0
  -24.7870  -11.8010   20.7780 C   0  0  0  0  0  0  0  0  0  0  0  0
  -26.4070  -13.0680   20.1620 N   0  0  0  0  0  0  0  0  0  0  0  0
  -26.0670  -11.7770   20.4240 N   0  0  0  0  0  0  0  0  0  0  0  0
  -24.0640  -10.5360   20.9690 C   0  0  0  0  0  0  0  0  0  0  0  0
  -24.5010   -9.5720   21.9030 C   0  0  0  0  0  3  0  0  0  0  0  0
  -23.7750   -8.3730   22.0890 C   0  0  0  0  0  3  0  0  0  0  0  0
  -22.6000   -8.1300   21.3380 C   0  0  0  0  0  0  0  0  0  0  0  0
  -22.1820   -9.0840   20.3920 C   0  0  0  0  0  3  0  0  0  0  0  0
  -22.9090  -10.2720   20.2060 C   0  0  0  0  0  3  0  0  0  0  0  0
  -21.8470   -6.9830   21.4300 O   0  0  0  0  0  0  0  0  0  0  0  0
  -21.7720   -6.2610   22.5950 C   0  0  0  0  0  0  0  0  0  0  0  0
  -21.2870   -6.8310   23.7940 C   0  0  0  0  0  3  0  0  0  0  0  0
  -21.1660   -6.0360   24.9520 C   0  0  0  0  0  3  0  0  0  0  0  0
  -21.5200   -4.6730   24.9110 C   0  0  0  0  0  0  0  0  0  0  0  0
  -21.9990   -4.1040   23.7190 C   0  0  0  0  0  3  0  0  0  0  0  0
  -22.1230   -4.8970   22.5650 C   0  0  0  0  0  0  0  0  0  0  0  0
  -22.5640   -4.3390   21.4110 F   0  0  0  0  0  0  0  0  0  0  0  0
  -21.3950   -3.9080   26.0200 F   0  0  0  0  0  0  0  0  0  0  0  0
  -22.9340  -13.6180   21.1690 C   0  0  0  0  0  0  0  0  0  0  0  0
  -22.2330  -12.9050   22.0460 N   0  0  0  0  0  0  0  0  0  0  0  0
  -22.4790  -14.6530   20.6830 O   0  0  0  0  0  0  0  0  0  0  0  0
  -22.6170  -12.0620   22.4520 H   0  0  0  0  0  0  0  0  0  0  0  0
  -21.3060  -13.2040   22.3110 H   0  0  0  0  0  0  0  0  0  0  0  0
  -25.5280  -15.3100   20.2710 N   0  0  0  0  0  0  0  0  0  0  0  0
  -24.7640  -15.9680   20.3750 H   0  0  0  0  0  0  0  0  0  0  0  0
  -26.3560  -15.7330   19.8690 H   0  0  0  0  0  0  0  0  0  0  0  0
  -29.1700  -22.8860   22.0260 C   0  0  0  0  0  2  0  0  0  0  0  0
  -28.6450  -24.0890   22.6980 N   0  0  0  0  0  4  0  0  0  0  0  0
  -29.1730  -24.9000   22.4300 H   0  0  0  0  0  0  0  0  0  0  0  0
  -28.7510  -23.9800   23.6950 H   0  0  0  0  0  0  0  0  0  0  0  0
  -27.6750  -24.2450   22.5000 H   0  0  0  0  0  0  0  0  0  0  0  0
  -28.5820  -24.3120   19.7410 C   0  0  0  0  0  2  0  0  0  0  0  0
  -28.3260  -25.9220   20.1420 O   0  0  0  0  0  0  0  0  0  0  0  0
  -24.6320  -31.8110   23.0550 C   0  0  0  0  0  0  0  0  0  0  0  0
  -27.2570  -26.9730   19.9910 C   0  0  0  0  0  0  0  0  0  0  0  0
  -23.4420  -30.4110   21.4070 C   0  0  0  0  0  3  0  0  0  0  0  0
  -24.9100  -28.8270   19.9600 C   0  0  0  0  0  0  0  0  0  0  0  0
  -26.0020  -30.6590   21.2380 C   0  0  0  0  0  2  0  0  0  0  0  0
  -26.0880  -29.2500   20.5790 C   0  0  0  0  0  0  0  0  0  0  0  0
  -27.2420  -28.3420   20.5740 C   0  0  0  0  0  3  0  0  0  0  0  0
  -26.0440  -26.7090   19.3100 C   0  0  0  0  0  3  0  0  0  0  0  0
  -24.9150  -27.5820   19.3030 C   0  0  0  0  0  3  0  0  0  0  0  0
  -23.6720  -29.7230   20.0250 C   0  0  0  0  0  2  0  0  0  0  0  0
  -24.7140  -30.9920   21.9540 N   0  0  0  0  0  0  0  0  0  0  0  0
  -23.5440  -32.0780   23.5920 O   0  0  0  0  0  0  0  0  0  0  0  0
  -22.7600  -29.4120   22.3750 C   0  0  0  0  0  0  0  0  0  0  0  0
  -21.4220  -29.2690   22.2940 N   0  0  0  0  0  0  0  0  0  0  0  0
  -23.4450  -28.7620   23.1660 O   0  0  0  0  0  0  0  0  0  0  0  0
  -20.9140  -29.8490   21.6390 H   0  0  0  0  0  0  0  0  0  0  0  0
  -18.0600  -28.0460   22.8740 C   0  0  0  0  0  0  0  0  0  0  0  0
  -20.6250  -28.3180   23.0730 C   0  0  0  0  0  3  0  0  0  0  0  0
  -20.7090  -26.8900   22.4760 C   0  0  0  0  0  2  0  0  0  0  0  0
  -19.5900  -26.5960   21.4720 C   0  0  0  0  0  2  0  0  0  0  0  0
  -18.2250  -26.7170   22.1560 C   0  0  0  0  0  2  0  0  0  0  0  0
  -19.1860  -28.8080   23.2880 C   0  0  0  0  0  0  0  0  0  0  0  0
  -18.9750  -30.0530   23.9190 C   0  0  0  0  0  3  0  0  0  0  0  0
  -17.6720  -30.5370   24.1380 C   0  0  0  0  0  3  0  0  0  0  0  0
  -16.5620  -29.7740   23.7400 C   0  0  0  0  0  3  0  0  0  0  0  0
  -16.7560  -28.5300   23.1160 C   0  0  0  0  0  3  0  0  0  0  0  0
  -25.8980  -32.4630   23.6880 C   0  0  0  0  0  3  0  0  0  0  0  0
  -26.4320  -31.6870   24.9540 C   0  0  1  0  0  0  0  0  0  0  0  0
  -25.3510  -31.4430   26.0320 C   0  0  0  0  0  1  0  0  0  0  0  0
  -27.0180  -30.3120   24.5550 C   0  0  0  0  0  1  0  0  0  0  0  0
  -27.5830  -32.4790   25.6180 C   0  0  0  0  0  1  0  0  0  0  0  0
  -25.5660  -33.8520   24.0530 N   0  0  0  0  0  0  0  0  0  0  0  0
  -25.9030  -34.9360   23.3390 C   0  0  0  0  0  0  0  0  0  0  0  0
  -26.5810  -34.8680   22.3110 O   0  0  0  0  0  0  0  0  0  0  0  0
  -24.9530  -33.9760   24.8450 H   0  0  0  0  0  0  0  0  0  0  0  0
  -24.1840  -36.7540   23.0270 C   0  0  0  0  0  1  0  0  0  0  0  0
  -25.4100  -36.3100   23.8420 C   0  0  0  0  0  3  0  0  0  0  0  0
  -27.5250  -37.1740   24.7480 C   0  0  0  0  0  1  0  0  0  0  0  0
  -26.4440  -37.3660   23.7840 N   0  0  0  0  0  0  0  0  0  0  0  0
  -26.0320  -38.2800   23.9440 H   0  0  0  0  0  0  0  0  0  0  0  0
  2  1  1  1
  2 47  1  0
  3  5  2  0
  3  4  1  0
  4  7  2  0
  5  8  1  0
  7  6  1  0
  7  2  1  0
  8 17  1  0
  8  6  2  0
  9 17  1  0
 10 15  1  0
 11 12  1  0
 11 10  1  0
 13 12  1  0
 13 22  1  0
 13 14  1  0
 15  9  1  0
 15 14  1  0
 16  9  2  0
 17 18  1  0
 19 20  2  0
 20 39  1  0
 21 20  1  0
 21 24  1  0
 22 23  1  0
 22 19  1  0
 23 21  2  0
 24 25  1  0
 25 26  2  0
 27 30  1  0
 27 26  1  0
 28 27  2  0
 29 28  1  0
 29 24  2  0
 30 31  1  0
 31 32  1  0
 32 33  2  0
 34 33  1  0
 34 38  1  0
 35 34  2  0
 36 31  2  0
 36 35  1  0
 37 36  1  0
 39 40  1  0
 40 43  1  0
 40 42  1  0
 41 39  2  0
 44 45  1  0
 44 19  1  0
 46 44  1  0
 47 48  1  0
 48 50  1  0
 49 48  1  0
 51 48  1  0
 52 53  1  0
 52  2  1  0
 54 65  2  0
 55 53  1  0
 55 60  1  0
 56 64  1  0
 56 66  1  0
 57 63  1  0
 57 59  1  0
 58 64  1  0
 59 58  1  0
 60 59  2  0
 61 55  2  0
 62 61  1  0
 62 57  2  0
 63 56  1  0
 64 54  1  0
 66 68  2  0
 67 66  1  0
 69 67  1  0
 70 79  2  0
 70 75  1  0
 71 67  1  0
 71 75  1  0
 72 71  1  0
 73 74  1  0
 73 72  1  0
 74 70  1  0
 75 76  2  0
 76 77  1  0
 78 77  2  0
 79 78  1  0
 80 54  1  0
 80 85  1  0
 80 81  1  0
 81 84  1  1
 81 82  1  0
 83 81  1  0
 85 88  1  0
 86 90  1  0
 86 85  1  0
 87 86  2  0
 90 89  1  0
 92 90  1  0
 92 93  1  0
 92 91  1  0
M  ISO  4   9 100  17 100  52 101  53 101
M  END
>  <TORSDO>  (65) 
F 20

>  <SCORE>  (65) 
-15.475

>  <name>  (65) 
64

>  <ligand_id>  (65) 
64

>  <original_smiles>  (65) 
[H]c1c([H])c([H])c2c(c1[H])C([H])([H])C([H])([H])C([H])([H])C2([H])N([H])C(=O)C1([H])N(C(=O)C([H])(N([H])C(=O)C([H])(N([H])C([H])([H])[H])C([H])([H])[H])C(C([H])([H])[H])(C([H])([H])[H])C([H])([H])[H])C([H])([H])c2c([H])c(OC([H])([H])C(c3c([H])c([H])c([H])c(N([H])C(=O)N4C([H])([H])C([H])([H])C([H])([H])C([H])(n5nc(-c6c([H])c([H])c(Oc7c([H])c([H])c(F)c([H])c7F)c([H])c6[H])c(C(=O)N([H])[H])c5N([H])[H])C4([H])[H])c3[H])(C([H])([H])[H])C([H])([H])[N+]([H])([H])[H])c([H])c([H])c2C1([H])[H]

>  <smiles>  (65) 
[H]c1c([H])c([H])c2c(c1[H])C([H])([H])C([H])([H])C([H])([H])C2([H])N([H])C(=O)C1([H])N(C(=O)C([H])(N([H])C(=O)C([H])(N([H])C([H])([H])[H])C([H])([H])[H])C(C([H])([H])[H])(C([H])([H])[H])C([H])([H])[H])C([H])([H])c2c([H])c(OC([H])([H])C(c3c([H])c([H])c([H])c(N([H])C(=O)N4C([H])([H])C([H])([H])C([H])([H])C([H])(n5nc(-c6c([H])c([H])c(Oc7c([H])c([H])c(F)c([H])c7F)c([H])c6[H])c(C(=O)N([H])[H])c5N([H])[H])C4([H])[H])c3[H])(C([H])([H])[H])C([H])([H])[N+]([H])([H])[H])c([H])c([H])c2C1([H])[H]

$$$$
65:0:0
     RDKit          3D

 98107  0  0  1  0  0  0  0  0999 V2000
  -31.4980  -21.2110   21.9010 C   0  0  0  0  0  2  0  0  0  0  0  0
  -30.7610  -20.2290   19.7820 C   0  0  0  0  0  2  0  0  0  0  0  0
  -31.7250  -18.7770   22.8280 C   0  0  0  0  0  2  0  0  0  0  0  0
  -31.1350  -21.5720   20.4430 C   0  0  0  0  0  3  0  0  0  0  0  0
  -30.8240  -19.8620   22.2240 C   0  0  0  0  0  3  0  0  0  0  0  0
  -30.3170  -19.2750   20.9120 C   0  0  0  0  0  3  0  0  0  0  0  0
  -30.8150  -17.7910   20.8600 C   0  0  0  0  0  3  0  0  0  0  0  0
  -32.3430  -16.4430   22.3550 C   0  0  0  0  0  1  0  0  0  0  0  0
  -31.2990  -17.4910   22.2340 N   0  0  1  0  0  4  0  0  0  0  0  0
  -30.4960  -17.1740   22.7550 H   0  0  0  0  0  0  0  0  0  0  0  0
  -30.0600  -22.6800   20.3830 C   0  0  0  0  0  0  0  0  0  0  0  0
  -30.5070  -23.8920   20.0310 N   0  0  0  0  0  0  0  0  0  0  0  0
  -28.8960  -22.4640   20.7290 O   0  0  0  0  0  0  0  0  0  0  0  0
  -31.4730  -23.9320   19.7300 H   0  0  0  0  0  0  0  0  0  0  0  0
  -29.9160  -25.1780   20.3830 C   0  0  0  0  0  2  0  0  0  0  0  0
  -28.6430  -25.5790   19.6150 C   0  0  0  0  0  2  0  0  0  0  0  0
  -28.4650  -26.9410   19.9840 O   0  0  0  0  0  0  0  0  0  0  0  0
  -24.4390  -31.8190   23.1380 C   0  0  0  0  0  0  0  0  0  0  0  0
  -27.2260  -27.5400   19.9780 C   0  0  0  0  0  0  0  0  0  0  0  0
  -23.2780  -30.4150   21.4610 C   0  0  0  0  0  3  0  0  0  0  0  0
  -24.7790  -28.9470   20.0140 C   0  0  0  0  0  0  0  0  0  0  0  0
  -25.7880  -30.8610   21.2740 C   0  0  0  0  0  2  0  0  0  0  0  0
  -25.9130  -29.5040   20.6150 C   0  0  0  0  0  0  0  0  0  0  0  0
  -27.1340  -28.8030   20.5940 C   0  0  0  0  0  3  0  0  0  0  0  0
  -26.0760  -26.9810   19.3780 C   0  0  0  0  0  3  0  0  0  0  0  0
  -24.8520  -27.6840   19.3960 C   0  0  0  0  0  3  0  0  0  0  0  0
  -23.5140  -29.7680   20.0700 C   0  0  0  0  0  2  0  0  0  0  0  0
  -24.5210  -31.0450   22.0190 N   0  0  0  0  0  0  0  0  0  0  0  0
  -23.3490  -32.0460   23.6820 O   0  0  0  0  0  0  0  0  0  0  0  0
  -22.6530  -29.3590   22.4000 C   0  0  0  0  0  0  0  0  0  0  0  0
  -21.3320  -29.1480   22.2680 N   0  0  0  0  0  0  0  0  0  0  0  0
  -23.3530  -28.7320   23.1970 O   0  0  0  0  0  0  0  0  0  0  0  0
  -20.8310  -29.7080   21.5920 H   0  0  0  0  0  0  0  0  0  0  0  0
  -17.9880  -27.8690   22.7270 C   0  0  0  0  0  0  0  0  0  0  0  0
  -20.5390  -28.1760   23.0180 C   0  0  0  0  0  3  0  0  0  0  0  0
  -20.6780  -26.7600   22.4120 C   0  0  0  0  0  2  0  0  0  0  0  0
  -19.5870  -26.4340   21.3880 C   0  0  0  0  0  2  0  0  0  0  0  0
  -18.1990  -26.5380   22.0280 C   0  0  0  0  0  2  0  0  0  0  0  0
  -19.0880  -28.6460   23.1800 C   0  0  0  0  0  0  0  0  0  0  0  0
  -18.8380  -29.8950   23.7900 C   0  0  0  0  0  3  0  0  0  0  0  0
  -17.5210  -30.3610   23.9620 C   0  0  0  0  0  3  0  0  0  0  0  0
  -16.4370  -29.5780   23.5310 C   0  0  0  0  0  3  0  0  0  0  0  0
  -16.6710  -28.3390   22.9110 C   0  0  0  0  0  3  0  0  0  0  0  0
  -25.7040  -32.4750   23.7740 C   0  0  0  0  0  3  0  0  0  0  0  0
  -26.2320  -31.6980   25.0410 C   0  0  1  0  0  0  0  0  0  0  0  0
  -25.1370  -31.4100   26.0940 C   0  0  0  0  0  1  0  0  0  0  0  0
  -26.8590  -30.3490   24.6190 C   0  0  0  0  0  1  0  0  0  0  0  0
  -27.3550  -32.5120   25.7270 C   0  0  0  0  0  1  0  0  0  0  0  0
  -25.3610  -33.8590   24.1200 N   0  0  0  0  0  0  0  0  0  0  0  0
  -25.6770  -34.9280   23.3770 C   0  0  0  0  0  0  0  0  0  0  0  0
  -26.3580  -34.8540   22.3500 O   0  0  0  0  0  0  0  0  0  0  0  0
  -24.7590  -33.9890   24.9200 H   0  0  0  0  0  0  0  0  0  0  0  0
  -23.9130  -36.6810   23.0270 C   0  0  0  0  0  1  0  0  0  0  0  0
  -25.1540  -36.2980   23.8480 C   0  0  0  0  0  3  0  0  0  0  0  0
  -27.2590  -37.2220   24.7080 C   0  0  0  0  0  1  0  0  0  0  0  0
  -26.1620  -37.3750   23.7560 N   0  0  0  0  0  0  0  0  0  0  0  0
  -25.7350  -38.2850   23.9100 H   0  0  0  0  0  0  0  0  0  0  0  0
  -29.4240  -17.1160   18.8530 C   0  0  0  0  0  1  0  0  0  0  0  0
  -28.4070  -16.8900   21.1360 C   0  0  0  0  0  1  0  0  0  0  0  0
  -29.7290  -16.7840   20.3310 C   0  0  2  0  0  0  0  0  0  0  0  0
  -30.6460  -14.4810   19.6160 C   0  0  0  0  0  0  0  0  0  0  0  0
  -30.2160  -12.3290   18.4790 C   0  0  0  0  0  2  0  0  0  0  0  0
  -29.1390  -12.5620   17.3990 C   0  0  0  0  0  2  0  0  0  0  0  0
  -27.7160  -12.4600   17.9910 C   0  0  0  0  0  2  0  0  0  0  0  0
  -27.5510  -13.2990   19.2840 C   0  0  0  0  0  3  0  0  0  0  0  0
  -28.7130  -13.0050   20.2600 C   0  0  0  0  0  2  0  0  0  0  0  0
  -29.9880  -13.2910   19.5650 N   0  0  0  0  0  0  0  0  0  0  0  0
  -31.6200  -14.7660   18.9110 O   0  0  0  0  0  0  0  0  0  0  0  0
  -30.0670  -15.3540   20.4570 N   0  0  0  0  0  0  0  0  0  0  0  0
  -29.4410  -14.8640   21.0790 H   0  0  0  0  0  0  0  0  0  0  0  0
  -25.2830  -14.0190   20.2830 C   0  0  0  0  0  0  0  0  0  0  0  0
  -24.2250  -13.2910   20.7600 C   0  0  0  0  0  0  0  0  0  0  0  0
  -24.6040  -11.9180   20.6340 C   0  0  0  0  0  0  0  0  0  0  0  0
  -26.2450  -13.0920   19.9070 N   0  0  0  0  0  0  0  0  0  0  0  0
  -25.8440  -11.8240   20.1710 N   0  0  0  0  0  0  0  0  0  0  0  0
  -23.8430  -10.6890   20.8770 C   0  0  0  0  0  0  0  0  0  0  0  0
  -24.3190   -9.6890   21.7520 C   0  0  0  0  0  3  0  0  0  0  0  0
  -23.5630   -8.5200   21.9810 C   0  0  0  0  0  3  0  0  0  0  0  0
  -22.3160   -8.3440   21.3380 C   0  0  0  0  0  0  0  0  0  0  0  0
  -21.8560   -9.3330   20.4490 C   0  0  0  0  0  3  0  0  0  0  0  0
  -22.6120  -10.4940   20.2180 C   0  0  0  0  0  3  0  0  0  0  0  0
  -21.5240   -7.2290   21.4820 O   0  0  0  0  0  0  0  0  0  0  0  0
  -21.5380   -6.4800   22.6290 C   0  0  0  0  0  0  0  0  0  0  0  0
  -21.2490   -7.0420   23.8910 C   0  0  0  0  0  3  0  0  0  0  0  0
  -21.2080   -6.2200   25.0360 C   0  0  0  0  0  3  0  0  0  0  0  0
  -21.4440   -4.8390   24.9190 C   0  0  0  0  0  0  0  0  0  0  0  0
  -21.7270   -4.2750   23.6620 C   0  0  0  0  0  3  0  0  0  0  0  0
  -21.7720   -5.0930   22.5210 C   0  0  0  0  0  0  0  0  0  0  0  0
  -22.0220   -4.5420   21.3090 F   0  0  0  0  0  0  0  0  0  0  0  0
  -21.3970   -4.0470   26.0170 F   0  0  0  0  0  0  0  0  0  0  0  0
  -22.8960  -13.8250   21.2130 C   0  0  0  0  0  0  0  0  0  0  0  0
  -22.2490  -13.1440   22.1530 N   0  0  0  0  0  0  0  0  0  0  0  0
  -22.4440  -14.8780   20.7680 O   0  0  0  0  0  0  0  0  0  0  0  0
  -22.6280  -12.2900   22.5360 H   0  0  0  0  0  0  0  0  0  0  0  0
  -21.3590  -13.4800   22.4930 H   0  0  0  0  0  0  0  0  0  0  0  0
  -25.4980  -15.3850   20.1250 N   0  0  0  0  0  0  0  0  0  0  0  0
  -24.7870  -16.0740   20.3440 H   0  0  0  0  0  0  0  0  0  0  0  0
  -26.3280  -15.7910   19.7160 H   0  0  0  0  0  0  0  0  0  0  0  0
  2  4  1  0
  4 11  1  0
  4  1  1  0
  5  1  1  0
  5  3  1  0
  6  2  1  0
  6  5  1  0
  7 60  1  0
  7  6  1  0
  7  9  1  0
  9  8  1  0
  9 10  1  1
  9  3  1  0
 11 13  2  0
 12 15  1  0
 12 11  1  0
 14 12  1  0
 16 17  1  0
 16 15  1  0
 18 29  2  0
 19 17  1  0
 19 24  1  0
 20 28  1  0
 20 30  1  0
 21 27  1  0
 21 23  1  0
 22 28  1  0
 23 22  1  0
 24 23  2  0
 25 26  1  0
 25 19  2  0
 26 21  2  0
 27 20  1  0
 28 18  1  0
 30 32  2  0
 31 30  1  0
 33 31  1  0
 34 43  2  0
 34 39  1  0
 35 31  1  0
 35 39  1  0
 36 35  1  0
 37 38  1  0
 37 36  1  0
 38 34  1  0
 39 40  2  0
 40 41  1  0
 42 41  2  0
 43 42  1  0
 44 18  1  0
 44 49  1  0
 44 45  1  0
 45 48  1  1
 45 46  1  0
 47 45  1  0
 49 52  1  0
 50 54  1  0
 50 49  1  0
 51 50  2  0
 54 53  1  0
 56 54  1  0
 56 57  1  0
 56 55  1  0
 60 58  1  6
 60 69  1  0
 60 59  1  0
 61 69  1  0
 62 67  1  0
 63 64  1  0
 63 62  1  0
 65 64  1  0
 65 74  1  0
 65 66  1  0
 67 61  1  0
 67 66  1  0
 68 61  2  0
 69 70  1  0
 71 72  2  0
 72 91  1  0
 73 72  1  0
 73 76  1  0
 74 75  1  0
 74 71  1  0
 75 73  2  0
 76 77  1  0
 77 78  2  0
 79 82  1  0
 79 78  1  0
 80 79  2  0
 81 80  1  0
 81 76  2  0
 82 83  1  0
 83 84  1  0
 84 85  2  0
 86 85  1  0
 86 90  1  0
 87 86  2  0
 88 83  2  0
 88 87  1  0
 89 88  1  0
 91 92  1  0
 92 95  1  0
 92 94  1  0
 93 91  2  0
 96 71  1  0
 96 97  1  0
 98 96  1  0
M  ISO  4  16 101  17 101  61 100  69 100
M  END
>  <TORSDO>  (66) 
F 20

>  <SCORE>  (66) 
-9.651

>  <name>  (66) 
65

>  <ligand_id>  (66) 
65

>  <original_smiles>  (66) 
[H]c1c([H])c([H])c2c(c1[H])C([H])([H])C([H])([H])C([H])([H])C2([H])N([H])C(=O)C1([H])N(C(=O)C([H])(N([H])C(=O)C([H])(N([H])C([H])([H])[H])C([H])([H])[H])C(C([H])([H])[H])(C([H])([H])[H])C([H])([H])[H])C([H])([H])c2c([H])c(OC([H])([H])C([H])([H])N([H])C(=O)C3([H])C([H])([H])C4([H])C([H])(C3([H])[H])C([H])(C(N([H])C(=O)N3C([H])([H])C([H])([H])C([H])([H])C([H])(n5nc(-c6c([H])c([H])c(Oc7c([H])c([H])c(F)c([H])c7F)c([H])c6[H])c(C(=O)N([H])[H])c5N([H])[H])C3([H])[H])(C([H])([H])[H])C([H])([H])[H])[N+]([H])(C([H])([H])[H])C4([H])[H])c([H])c([H])c2C1([H])[H]

>  <smiles>  (66) 
[H]c1c([H])c([H])c2c(c1[H])C([H])([H])C([H])([H])C([H])([H])C2([H])N([H])C(=O)C1([H])N(C(=O)C([H])(N([H])C(=O)C([H])(N([H])C([H])([H])[H])C([H])([H])[H])C(C([H])([H])[H])(C([H])([H])[H])C([H])([H])[H])C([H])([H])c2c([H])c(OC([H])([H])C([H])([H])N([H])C(=O)C3([H])C([H])([H])C4([H])C([H])(C3([H])[H])C([H])(C(N([H])C(=O)N3C([H])([H])C([H])([H])C([H])([H])C([H])(n5nc(-c6c([H])c([H])c(Oc7c([H])c([H])c(F)c([H])c7F)c([H])c6[H])c(C(=O)N([H])[H])c5N([H])[H])C3([H])[H])(C([H])([H])[H])C([H])([H])[H])[N+]([H])(C([H])([H])[H])C4([H])[H])c([H])c([H])c2C1([H])[H]

$$$$
66:0:0
     RDKit          3D

 93101  0  0  1  0  0  0  0  0999 V2000
  -29.1320  -23.0860   20.4560 C   0  0  0  0  0  3  0  0  0  0  0  0
  -28.1760  -20.3510   20.4870 C   0  0  0  0  0  3  0  0  0  0  0  0
  -28.3600  -18.8790   20.4670 C   0  0  0  0  0  3  0  0  0  0  0  0
  -30.5600  -19.1220   19.8390 C   0  0  0  0  0  3  0  0  0  0  0  0
  -29.1740  -21.3620   20.1830 C   0  0  0  0  0  0  0  0  0  0  0  0
  -29.5650  -18.1120   20.1630 C   0  0  0  0  0  0  0  0  0  0  0  0
  -30.3810  -20.6000   19.8490 C   0  0  0  0  0  0  0  0  0  0  0  0
  -31.4850  -21.3310   19.5670 F   0  0  0  0  0  0  0  0  0  0  0  0
  -30.4510  -15.3240   19.9440 C   0  0  0  0  0  0  0  0  0  0  0  0
  -30.3890  -12.9170   19.0060 C   0  0  0  0  0  2  0  0  0  0  0  0
  -29.3890  -12.7800   17.8300 C   0  0  0  0  0  2  0  0  0  0  0  0
  -27.9630  -12.5140   18.3480 C   0  0  0  0  0  2  0  0  0  0  0  0
  -27.5940  -13.4400   19.5340 C   0  0  0  0  0  3  0  0  0  0  0  0
  -28.7100  -13.5110   20.5980 C   0  0  0  0  0  2  0  0  0  0  0  0
  -29.9140  -14.0140   19.9170 N   0  0  0  0  0  0  0  0  0  0  0  0
  -31.6400  -15.3920   19.6000 O   0  0  0  0  0  0  0  0  0  0  0  0
  -29.6150  -16.5050   20.1950 N   0  0  0  0  0  0  0  0  0  0  0  0
  -28.7190  -16.1470   20.4860 H   0  0  0  0  0  0  0  0  0  0  0  0
  -25.2720  -13.9910   20.4410 C   0  0  0  0  0  0  0  0  0  0  0  0
  -24.2300  -13.2070   20.8510 C   0  0  0  0  0  0  0  0  0  0  0  0
  -24.6860  -11.8570   20.7510 C   0  0  0  0  0  0  0  0  0  0  0  0
  -26.2940  -13.1190   20.1080 N   0  0  0  0  0  0  0  0  0  0  0  0
  -25.9570  -11.8270   20.3620 N   0  0  0  0  0  0  0  0  0  0  0  0
  -23.9650  -10.5910   20.9450 C   0  0  0  0  0  0  0  0  0  0  0  0
  -24.4020   -9.6260   21.8800 C   0  0  0  0  0  3  0  0  0  0  0  0
  -23.6780   -8.4280   22.0630 C   0  0  0  0  0  3  0  0  0  0  0  0
  -22.5040   -8.1860   21.3110 C   0  0  0  0  0  0  0  0  0  0  0  0
  -22.0860   -9.1390   20.3660 C   0  0  0  0  0  3  0  0  0  0  0  0
  -22.8110  -10.3280   20.1800 C   0  0  0  0  0  3  0  0  0  0  0  0
  -21.7520   -7.0390   21.4040 O   0  0  0  0  0  0  0  0  0  0  0  0
  -21.6530   -6.3370   22.5780 C   0  0  0  0  0  0  0  0  0  0  0  0
  -21.1240   -6.9170   23.7510 C   0  0  0  0  0  3  0  0  0  0  0  0
  -20.9770   -6.1380   24.9160 C   0  0  0  0  0  3  0  0  0  0  0  0
  -21.3460   -4.7810   24.9080 C   0  0  0  0  0  0  0  0  0  0  0  0
  -21.8670   -4.1990   23.7390 C   0  0  0  0  0  3  0  0  0  0  0  0
  -22.0170   -4.9740   22.5760 C   0  0  0  0  0  0  0  0  0  0  0  0
  -22.4990   -4.4040   21.4460 F   0  0  0  0  0  0  0  0  0  0  0  0
  -21.1970   -4.0300   26.0240 F   0  0  0  0  0  0  0  0  0  0  0  0
  -22.8540  -13.6800   21.2160 C   0  0  0  0  0  0  0  0  0  0  0  0
  -22.1730  -12.9620   22.1020 N   0  0  0  0  0  0  0  0  0  0  0  0
  -22.3930  -14.7220   20.7500 O   0  0  0  0  0  0  0  0  0  0  0  0
  -22.5610  -12.1190   22.4980 H   0  0  0  0  0  0  0  0  0  0  0  0
  -21.2510  -13.2600   22.3880 H   0  0  0  0  0  0  0  0  0  0  0  0
  -25.4280  -15.3660   20.2920 N   0  0  0  0  0  0  0  0  0  0  0  0
  -24.6610  -16.0090   20.4510 H   0  0  0  0  0  0  0  0  0  0  0  0
  -26.2230  -15.8040   19.8450 H   0  0  0  0  0  0  0  0  0  0  0  0
  -29.3170  -23.2940   21.9770 C   0  0  0  0  0  2  0  0  0  0  0  0
  -30.5690  -22.7260   22.5110 N   0  0  0  0  0  4  0  0  0  0  0  0
  -30.5890  -21.7290   22.3900 H   0  0  0  0  0  0  0  0  0  0  0  0
  -30.6340  -22.9210   23.4950 H   0  0  0  0  0  0  0  0  0  0  0  0
  -31.3710  -23.1310   22.0620 H   0  0  0  0  0  0  0  0  0  0  0  0
  -28.0950  -24.4480   19.9860 C   0  0  0  0  0  2  0  0  0  0  0  0
  -28.2580  -26.0490   20.2660 O   0  0  0  0  0  0  0  0  0  0  0  0
  -24.6180  -31.8990   23.2380 C   0  0  0  0  0  0  0  0  0  0  0  0
  -27.2210  -27.1020   20.1930 C   0  0  0  0  0  0  0  0  0  0  0  0
  -23.4360  -30.5080   21.5850 C   0  0  0  0  0  3  0  0  0  0  0  0
  -24.8990  -28.9290   20.1540 C   0  0  0  0  0  0  0  0  0  0  0  0
  -25.9980  -30.7510   21.4420 C   0  0  0  0  0  2  0  0  0  0  0  0
  -26.0800  -29.3510   20.7780 C   0  0  0  0  0  0  0  0  0  0  0  0
  -27.2350  -28.4580   20.7730 C   0  0  0  0  0  3  0  0  0  0  0  0
  -26.0100  -26.8170   19.5240 C   0  0  0  0  0  3  0  0  0  0  0  0
  -24.8860  -27.6820   19.5070 C   0  0  0  0  0  3  0  0  0  0  0  0
  -23.6720  -29.8360   20.2040 C   0  0  0  0  0  2  0  0  0  0  0  0
  -24.7050  -31.0780   22.1420 N   0  0  0  0  0  0  0  0  0  0  0  0
  -23.5270  -32.1760   23.7600 O   0  0  0  0  0  0  0  0  0  0  0  0
  -22.7490  -29.4990   22.5410 C   0  0  0  0  0  0  0  0  0  0  0  0
  -21.4220  -29.3210   22.4060 N   0  0  0  0  0  0  0  0  0  0  0  0
  -23.4160  -28.8770   23.3720 O   0  0  0  0  0  0  0  0  0  0  0  0
  -20.9370  -29.8760   21.7140 H   0  0  0  0  0  0  0  0  0  0  0  0
  -18.0460  -28.0850   22.8870 C   0  0  0  0  0  0  0  0  0  0  0  0
  -20.6020  -28.3720   23.1660 C   0  0  0  0  0  3  0  0  0  0  0  0
  -20.7190  -26.9440   22.5840 C   0  0  0  0  0  2  0  0  0  0  0  0
  -19.6250  -26.6170   21.5620 C   0  0  0  0  0  2  0  0  0  0  0  0
  -18.2390  -26.7430   22.2000 C   0  0  0  0  0  2  0  0  0  0  0  0
  -19.1550  -28.8560   23.3260 C   0  0  0  0  0  0  0  0  0  0  0  0
  -18.9190  -30.1090   23.9310 C   0  0  0  0  0  3  0  0  0  0  0  0
  -17.6080  -30.5930   24.1000 C   0  0  0  0  0  3  0  0  0  0  0  0
  -16.5140  -29.8190   23.6750 C   0  0  0  0  0  3  0  0  0  0  0  0
  -16.7340  -28.5670   23.0750 C   0  0  0  0  0  3  0  0  0  0  0  0
  -25.8860  -32.5430   23.8790 C   0  0  0  0  0  3  0  0  0  0  0  0
  -26.3690  -31.7940   25.1820 C   0  0  1  0  0  0  0  0  0  0  0  0
  -25.2500  -31.5800   26.2290 C   0  0  0  0  0  1  0  0  0  0  0  0
  -26.9560  -30.4070   24.8360 C   0  0  0  0  0  1  0  0  0  0  0  0
  -27.5070  -32.5960   25.8560 C   0  0  0  0  0  1  0  0  0  0  0  0
  -25.5710  -33.9480   24.1880 N   0  0  0  0  0  0  0  0  0  0  0  0
  -25.8900  -34.9940   23.4150 C   0  0  0  0  0  0  0  0  0  0  0  0
  -26.5430  -34.8780   22.3740 O   0  0  0  0  0  0  0  0  0  0  0  0
  -24.9890  -34.1130   24.9970 H   0  0  0  0  0  0  0  0  0  0  0  0
  -24.1400  -36.7770   23.0920 C   0  0  0  0  0  1  0  0  0  0  0  0
  -25.4120  -36.3910   23.8640 C   0  0  0  0  0  3  0  0  0  0  0  0
  -27.5630  -37.3140   24.6110 C   0  0  0  0  0  1  0  0  0  0  0  0
  -26.4340  -37.4470   23.6930 N   0  0  0  0  0  0  0  0  0  0  0  0
  -26.0250  -38.3690   23.8250 H   0  0  0  0  0  0  0  0  0  0  0  0
  1 52  1  0
  1 47  1  0
  3  2  1  0
  4  7  2  0
  4  6  1  0
  5  1  1  0
  5  2  2  0
  6 17  1  0
  6  3  2  0
  7  5  1  0
  8  7  1  0
  9 17  1  0
 10 15  1  0
 11 12  1  0
 11 10  1  0
 13 12  1  0
 13 22  1  0
 13 14  1  0
 15  9  1  0
 15 14  1  0
 16  9  2  0
 17 18  1  0
 19 20  2  0
 20 39  1  0
 21 20  1  0
 21 24  1  0
 22 23  1  0
 22 19  1  0
 23 21  2  0
 24 25  1  0
 25 26  2  0
 27 30  1  0
 27 26  1  0
 28 27  2  0
 29 28  1  0
 29 24  2  0
 30 31  1  0
 31 32  1  0
 32 33  2  0
 34 33  1  0
 34 38  1  0
 35 34  2  0
 36 31  2  0
 36 35  1  0
 37 36  1  0
 39 40  1  0
 40 43  1  0
 40 42  1  0
 41 39  2  0
 44 19  1  0
 44 45  1  0
 46 44  1  0
 47 48  1  0
 48 50  1  0
 49 48  1  0
 51 48  1  0
 52 53  1  0
 54 65  2  0
 55 53  1  0
 55 60  1  0
 56 64  1  0
 56 66  1  0
 57 63  1  0
 57 59  1  0
 58 64  1  0
 59 58  1  0
 60 59  2  0
 61 55  2  0
 62 61  1  0
 62 57  2  0
 63 56  1  0
 64 54  1  0
 66 68  2  0
 67 66  1  0
 69 67  1  0
 70 79  2  0
 70 75  1  0
 71 67  1  0
 71 75  1  0
 72 71  1  0
 73 74  1  0
 73 72  1  0
 74 70  1  0
 75 76  2  0
 76 77  1  0
 78 77  2  0
 79 78  1  0
 80 54  1  0
 80 85  1  0
 80 81  1  0
 81 84  1  1
 81 82  1  0
 83 81  1  0
 85 88  1  0
 86 90  1  0
 86 85  1  0
 87 86  2  0
 90 89  1  0
 92 93  1  0
 92 90  1  0
 92 91  1  0
M  ISO  4   9 100  17 100  52 101  53 101
M  END
>  <TORSDO>  (67) 
F 20

>  <SCORE>  (67) 
-15.453

>  <name>  (67) 
66

>  <ligand_id>  (67) 
66

>  <original_smiles>  (67) 
[H]c1c([H])c([H])c2c(c1[H])C([H])([H])C([H])([H])C([H])([H])C2([H])N([H])C(=O)C1([H])N(C(=O)C([H])(N([H])C(=O)C([H])(N([H])C([H])([H])[H])C([H])([H])[H])C(C([H])([H])[H])(C([H])([H])[H])C([H])([H])[H])C([H])([H])c2c([H])c(OC([H])([H])C([H])(c3c([H])c([H])c(N([H])C(=O)N4C([H])([H])C([H])([H])C([H])([H])C([H])(n5nc(-c6c([H])c([H])c(Oc7c([H])c([H])c(F)c([H])c7F)c([H])c6[H])c(C(=O)N([H])[H])c5N([H])[H])C4([H])[H])c([H])c3F)C([H])([H])[N+]([H])([H])[H])c([H])c([H])c2C1([H])[H]

>  <smiles>  (67) 
[H]c1c([H])c([H])c2c(c1[H])C([H])([H])C([H])([H])C([H])([H])C2([H])N([H])C(=O)C1([H])N(C(=O)C([H])(N([H])C(=O)C([H])(N([H])C([H])([H])[H])C([H])([H])[H])C(C([H])([H])[H])(C([H])([H])[H])C([H])([H])[H])C([H])([H])c2c([H])c(OC([H])([H])C([H])(c3c([H])c([H])c(N([H])C(=O)N4C([H])([H])C([H])([H])C([H])([H])C([H])(n5nc(-c6c([H])c([H])c(Oc7c([H])c([H])c(F)c([H])c7F)c([H])c6[H])c(C(=O)N([H])[H])c5N([H])[H])C4([H])[H])c([H])c3F)C([H])([H])[N+]([H])([H])[H])c([H])c([H])c2C1([H])[H]

$$$$
67:0:0
     RDKit          3D

 96104  0  0  1  0  0  0  0  0999 V2000
  -30.6270  -22.7160   21.0550 C   0  0  0  0  0  2  0  0  0  0  0  0
  -30.4410  -20.3090   21.6640 C   0  0  0  0  0  0  0  0  0  0  0  0
  -31.1660  -21.4020   21.3990 N   0  0  0  0  0  0  0  0  0  0  0  0
  -29.2090  -20.3260   21.7010 O   0  0  0  0  0  0  0  0  0  0  0  0
  -32.1730  -21.3070   21.3910 H   0  0  0  0  0  0  0  0  0  0  0  0
  -31.5810  -18.6550   23.3180 C   0  0  0  0  0  2  0  0  0  0  0  0
  -31.2360  -17.1950   22.9930 C   0  0  0  0  0  2  0  0  0  0  0  0
  -31.2240  -19.0020   21.8670 C   0  0  0  0  0  3  0  0  0  0  0  0
  -30.3830  -17.7060   21.8250 C   0  0  0  0  0  3  0  0  0  0  0  0
  -30.3060  -16.9490   20.5070 C   0  0  0  0  0  2  0  0  0  0  0  0
  -30.6100  -14.5470   20.0370 C   0  0  0  0  0  0  0  0  0  0  0  0
  -30.2650  -12.4030   18.8950 C   0  0  0  0  0  2  0  0  0  0  0  0
  -29.2330  -12.5920   17.7640 C   0  0  0  0  0  2  0  0  0  0  0  0
  -27.8050  -12.3910   18.3040 C   0  0  0  0  0  2  0  0  0  0  0  0
  -27.5290  -13.2130   19.5910 C   0  0  0  0  0  3  0  0  0  0  0  0
  -28.6710  -13.0370   20.6200 C   0  0  0  0  0  2  0  0  0  0  0  0
  -29.9450  -13.3660   19.9580 N   0  0  0  0  0  0  0  0  0  0  0  0
  -31.6600  -14.7660   19.4270 O   0  0  0  0  0  0  0  0  0  0  0  0
  -29.9790  -15.5340   20.6860 N   0  0  0  0  0  0  0  0  0  0  0  0
  -29.1180  -15.3010   21.1580 H   0  0  0  0  0  0  0  0  0  0  0  0
  -25.1760  -13.7160   20.5100 C   0  0  0  0  0  0  0  0  0  0  0  0
  -24.1650  -12.8970   20.9360 C   0  0  0  0  0  0  0  0  0  0  0  0
  -24.6640  -11.5620   20.8190 C   0  0  0  0  0  0  0  0  0  0  0  0
  -26.2260  -12.8790   20.1640 N   0  0  0  0  0  0  0  0  0  0  0  0
  -25.9250  -11.5770   20.4070 N   0  0  0  0  0  0  0  0  0  0  0  0
  -23.9940  -10.2710   21.0200 C   0  0  0  0  0  0  0  0  0  0  0  0
  -24.4460   -9.3480   21.9910 C   0  0  0  0  0  3  0  0  0  0  0  0
  -23.7720   -8.1200   22.1780 C   0  0  0  0  0  3  0  0  0  0  0  0
  -22.6370   -7.8070   21.3940 C   0  0  0  0  0  0  0  0  0  0  0  0
  -22.2070   -8.7200   20.4140 C   0  0  0  0  0  3  0  0  0  0  0  0
  -22.8810   -9.9380   20.2250 C   0  0  0  0  0  3  0  0  0  0  0  0
  -21.9360   -6.6290   21.4870 O   0  0  0  0  0  0  0  0  0  0  0  0
  -21.7870   -5.9740   22.6840 C   0  0  0  0  0  0  0  0  0  0  0  0
  -21.1600   -6.5840   23.7930 C   0  0  0  0  0  3  0  0  0  0  0  0
  -20.9600   -5.8520   24.9810 C   0  0  0  0  0  3  0  0  0  0  0  0
  -21.3790   -4.5100   25.0610 C   0  0  0  0  0  0  0  0  0  0  0  0
  -22.0010   -3.9000   23.9570 C   0  0  0  0  0  3  0  0  0  0  0  0
  -22.2000   -4.6300   22.7710 C   0  0  0  0  0  0  0  0  0  0  0  0
  -22.7790   -4.0290   21.7020 F   0  0  0  0  0  0  0  0  0  0  0  0
  -21.1860   -3.8040   26.2010 F   0  0  0  0  0  0  0  0  0  0  0  0
  -22.7800  -13.3180   21.3380 C   0  0  0  0  0  0  0  0  0  0  0  0
  -22.1420  -12.5680   22.2300 N   0  0  0  0  0  0  0  0  0  0  0  0
  -22.2730  -14.3450   20.8950 O   0  0  0  0  0  0  0  0  0  0  0  0
  -22.5680  -11.7370   22.6140 H   0  0  0  0  0  0  0  0  0  0  0  0
  -21.2170  -12.8330   22.5400 H   0  0  0  0  0  0  0  0  0  0  0  0
  -25.2830  -15.0970   20.3690 N   0  0  0  0  0  0  0  0  0  0  0  0
  -24.5080  -15.7220   20.5700 H   0  0  0  0  0  0  0  0  0  0  0  0
  -26.0860  -15.5720   19.9770 H   0  0  0  0  0  0  0  0  0  0  0  0
  -30.6090  -22.9090   19.5280 C   0  0  0  0  0  2  0  0  0  0  0  0
  -30.0190  -25.3260   19.3040 C   0  0  0  0  0  0  0  0  0  0  0  0
  -29.7590  -24.0240   19.1330 N   0  0  0  0  0  0  0  0  0  0  0  0
  -31.0760  -25.7430   19.7830 O   0  0  0  0  0  0  0  0  0  0  0  0
  -28.8790  -23.7910   18.6950 H   0  0  0  0  0  0  0  0  0  0  0  0
  -29.3230  -27.1900   17.7300 C   0  0  0  0  0  1  0  0  0  0  0  0
  -28.8950  -26.2900   18.9020 C   0  0  0  0  0  3  0  0  0  0  0  0
  -28.5740  -27.0880   20.0450 O   0  0  0  0  0  0  0  0  0  0  0  0
  -24.7010  -32.0140   23.3930 C   0  0  0  0  0  0  0  0  0  0  0  0
  -27.3650  -27.7470   20.0880 C   0  0  0  0  0  0  0  0  0  0  0  0
  -23.4930  -30.6640   21.7090 C   0  0  0  0  0  3  0  0  0  0  0  0
  -24.9450  -29.2030   20.2130 C   0  0  0  0  0  0  0  0  0  0  0  0
  -26.0130  -31.0560   21.5080 C   0  0  0  0  0  2  0  0  0  0  0  0
  -26.1020  -29.7140   20.8140 C   0  0  0  0  0  0  0  0  0  0  0  0
  -27.3090  -28.9850   20.7630 C   0  0  0  0  0  3  0  0  0  0  0  0
  -26.1810  -27.2360   19.5020 C   0  0  0  0  0  3  0  0  0  0  0  0
  -24.9780  -27.9590   19.5640 C   0  0  0  0  0  3  0  0  0  0  0  0
  -23.6970  -30.0470   20.3010 C   0  0  0  0  0  2  0  0  0  0  0  0
  -24.7540  -31.2580   22.2610 N   0  0  0  0  0  0  0  0  0  0  0  0
  -23.6230  -32.2550   23.9520 O   0  0  0  0  0  0  0  0  0  0  0  0
  -22.8630  -29.5970   22.6330 C   0  0  0  0  0  0  0  0  0  0  0  0
  -21.5440  -29.3840   22.4900 N   0  0  0  0  0  0  0  0  0  0  0  0
  -23.5570  -28.9660   23.4350 O   0  0  0  0  0  0  0  0  0  0  0  0
  -21.0460  -29.9440   21.8130 H   0  0  0  0  0  0  0  0  0  0  0  0
  -18.2060  -28.0670   22.8910 C   0  0  0  0  0  0  0  0  0  0  0  0
  -20.7460  -28.4070   23.2290 C   0  0  0  0  0  3  0  0  0  0  0  0
  -20.9130  -26.9890   22.6340 C   0  0  0  0  0  2  0  0  0  0  0  0
  -19.8470  -26.6450   21.5900 C   0  0  0  0  0  2  0  0  0  0  0  0
  -18.4450  -26.7330   22.2040 C   0  0  0  0  0  2  0  0  0  0  0  0
  -19.2870  -28.8600   23.3600 C   0  0  0  0  0  0  0  0  0  0  0  0
  -19.0110  -30.1060   23.9610 C   0  0  0  0  0  3  0  0  0  0  0  0
  -17.6860  -30.5610   24.1000 C   0  0  0  0  0  3  0  0  0  0  0  0
  -16.6190  -29.7650   23.6490 C   0  0  0  0  0  3  0  0  0  0  0  0
  -16.8800  -28.5190   23.0500 C   0  0  0  0  0  3  0  0  0  0  0  0
  -25.9880  -32.6340   24.0220 C   0  0  0  0  0  3  0  0  0  0  0  0
  -25.6760  -34.0230   24.3830 N   0  0  0  0  0  0  0  0  0  0  0  0
  -26.0120  -35.0920   23.6490 C   0  0  0  0  0  0  0  0  0  0  0  0
  -26.6900  -35.0120   22.6200 O   0  0  0  0  0  0  0  0  0  0  0  0
  -25.0740  -34.1580   25.1810 H   0  0  0  0  0  0  0  0  0  0  0  0
  -24.2930  -36.8950   23.3110 C   0  0  0  0  0  1  0  0  0  0  0  0
  -25.5190  -36.4670   24.1340 C   0  0  0  0  0  3  0  0  0  0  0  0
  -27.6380  -37.3240   25.0290 C   0  0  0  0  0  1  0  0  0  0  0  0
  -26.5540  -37.5210   24.0710 N   0  0  0  0  0  0  0  0  0  0  0  0
  -26.1450  -38.4370   24.2400 H   0  0  0  0  0  0  0  0  0  0  0  0
  -26.5140  -31.8340   25.2770 C   0  0  1  0  0  0  0  0  0  0  0  0
  -25.4240  -31.5600   26.3390 C   0  0  0  0  0  1  0  0  0  0  0  0
  -27.1090  -30.4730   24.8480 C   0  0  0  0  0  1  0  0  0  0  0  0
  -27.6610  -32.6210   25.9560 C   0  0  0  0  0  1  0  0  0  0  0  0
  1  3  1  0
  2  4  2  0
  3  2  1  0
  5  3  1  0
  7  6  1  0
  8  2  1  0
  8  6  1  0
  9 10  1  0
  9  8  1  0
  9  7  1  0
 10 19  1  0
 11 19  1  0
 12 17  1  0
 13 14  1  0
 13 12  1  0
 15 14  1  0
 15 24  1  0
 15 16  1  0
 17 11  1  0
 17 16  1  0
 18 11  2  0
 19 20  1  0
 21 22  2  0
 22 41  1  0
 23 22  1  0
 23 26  1  0
 24 25  1  0
 24 21  1  0
 25 23  2  0
 26 27  1  0
 27 28  2  0
 29 32  1  0
 29 28  1  0
 30 29  2  0
 31 30  1  0
 31 26  2  0
 32 33  1  0
 33 38  2  0
 33 34  1  0
 34 35  2  0
 35 36  1  0
 36 40  1  0
 37 36  2  0
 38 37  1  0
 39 38  1  0
 41 42  1  0
 42 45  1  0
 42 44  1  0
 43 41  2  0
 46 21  1  0
 46 47  1  0
 48 46  1  0
 49  1  1  0
 50 52  2  0
 51 50  1  0
 51 49  1  0
 53 51  1  0
 55 54  1  0
 55 50  1  0
 55 56  1  0
 56 58  1  0
 57 68  2  0
 58 63  1  0
 59 67  1  0
 59 69  1  0
 60 66  1  0
 60 62  1  0
 61 67  1  0
 62 61  1  0
 63 62  2  0
 64 65  1  0
 64 58  2  0
 65 60  2  0
 66 59  1  0
 67 57  1  0
 69 71  2  0
 70 69  1  0
 72 70  1  0
 73 82  2  0
 73 78  1  0
 74 70  1  0
 74 78  1  0
 75 74  1  0
 76 77  1  0
 76 75  1  0
 77 73  1  0
 78 79  2  0
 79 80  1  0
 81 80  2  0
 82 81  1  0
 83 57  1  0
 83 84  1  0
 83 93  1  0
 84 87  1  0
 85 89  1  0
 85 84  1  0
 86 85  2  0
 89 88  1  0
 91 89  1  0
 91 92  1  0
 91 90  1  0
 93 96  1  1
 93 94  1  0
 95 93  1  0
M  ISO  4  11 100  19 100  55 101  56 101
M  END
>  <TORSDO>  (68) 
F 22

>  <SCORE>  (68) 
-11.686

>  <name>  (68) 
67

>  <ligand_id>  (68) 
67

>  <original_smiles>  (68) 
[H]c1c([H])c([H])c2c(c1[H])C([H])([H])C([H])([H])C([H])([H])C2([H])N([H])C(=O)C1([H])N(C(=O)C([H])(N([H])C(=O)C([H])(N([H])C([H])([H])[H])C([H])([H])[H])C(C([H])([H])[H])(C([H])([H])[H])C([H])([H])[H])C([H])([H])c2c([H])c(OC([H])(C(=O)N([H])C([H])([H])C([H])([H])N([H])C(=O)C3([H])C([H])([H])C([H])([H])C3([H])C([H])([H])N([H])C(=O)N3C([H])([H])C([H])([H])C([H])([H])C([H])(n4nc(-c5c([H])c([H])c(Oc6c([H])c([H])c(F)c([H])c6F)c([H])c5[H])c(C(=O)N([H])[H])c4N([H])[H])C3([H])[H])C([H])([H])[H])c([H])c([H])c2C1([H])[H]

>  <smiles>  (68) 
[H]c1c([H])c([H])c2c(c1[H])C([H])([H])C([H])([H])C([H])([H])C2([H])N([H])C(=O)C1([H])N(C(=O)C([H])(N([H])C(=O)C([H])(N([H])C([H])([H])[H])C([H])([H])[H])C(C([H])([H])[H])(C([H])([H])[H])C([H])([H])[H])C([H])([H])c2c([H])c(OC([H])(C(=O)N([H])C([H])([H])C([H])([H])N([H])C(=O)C3([H])C([H])([H])C([H])([H])C3([H])C([H])([H])N([H])C(=O)N3C([H])([H])C([H])([H])C([H])([H])C([H])(n4nc(-c5c([H])c([H])c(Oc6c([H])c([H])c(F)c([H])c6F)c([H])c5[H])c(C(=O)N([H])[H])c4N([H])[H])C3([H])[H])C([H])([H])[H])c([H])c([H])c2C1([H])[H]

$$$$
68:0:0
     RDKit          3D

 89 98  0  0  1  0  0  0  0  0999 V2000
  -28.6700  -21.2170   21.4430 C   0  0  0  0  0  3  0  0  0  0  0  0
  -29.4210  -21.2250   19.2060 C   0  0  0  0  0  3  0  0  0  0  0  0
  -28.4060  -22.6390   21.3680 C   0  0  0  0  0  3  0  0  0  0  0  0
  -29.1630  -22.6460   19.1260 C   0  0  0  0  0  3  0  0  0  0  0  0
  -29.1410  -20.4130   20.3540 C   0  0  0  0  0  0  0  0  0  0  0  0
  -28.5960  -23.4220   20.1870 C   0  0  0  0  0  0  0  0  0  0  0  0
  -29.4180  -18.0730   19.0910 C   0  0  0  0  0  2  0  0  0  0  0  0
  -29.0700  -18.7860   20.3740 C   0  0  0  0  0  3  0  0  0  0  0  0
  -30.0920  -17.5030   20.3130 C   0  0  0  0  0  3  0  0  0  0  0  0
  -30.5510  -14.8790   20.3670 C   0  0  0  0  0  0  0  0  0  0  0  0
  -30.3720  -12.5760   19.3790 C   0  0  0  0  0  2  0  0  0  0  0  0
  -29.4310  -12.6150   18.1540 C   0  0  0  0  0  2  0  0  0  0  0  0
  -27.9650  -12.4290   18.5880 C   0  0  0  0  0  2  0  0  0  0  0  0
  -27.5840  -13.3260   19.7970 C   0  0  0  0  0  3  0  0  0  0  0  0
  -28.6460  -13.2700   20.9170 C   0  0  0  0  0  2  0  0  0  0  0  0
  -29.9340  -13.6410   20.3160 N   0  0  0  0  0  0  0  0  0  0  0  0
  -31.7400  -14.9680   20.0450 O   0  0  0  0  0  0  0  0  0  0  0  0
  -29.7690  -16.0280   20.5390 N   0  0  0  0  0  0  0  0  0  0  0  0
  -28.8100  -15.8340   20.7860 H   0  0  0  0  0  0  0  0  0  0  0  0
  -25.2010  -13.9100   20.5400 C   0  0  0  0  0  0  0  0  0  0  0  0
  -24.1360  -13.1350   20.9080 C   0  0  0  0  0  0  0  0  0  0  0  0
  -24.5980  -11.7840   20.8660 C   0  0  0  0  0  0  0  0  0  0  0  0
  -26.2440  -13.0320   20.2930 N   0  0  0  0  0  0  0  0  0  0  0  0
  -25.8870  -11.7470   20.5520 N   0  0  0  0  0  0  0  0  0  0  0  0
  -23.8690  -10.5220   21.0490 C   0  0  0  0  0  0  0  0  0  0  0  0
  -24.2930   -9.5510   21.9840 C   0  0  0  0  0  3  0  0  0  0  0  0
  -23.5650   -8.3550   22.1550 C   0  0  0  0  0  3  0  0  0  0  0  0
  -22.3970   -8.1190   21.3920 C   0  0  0  0  0  0  0  0  0  0  0  0
  -21.9910   -9.0780   20.4460 C   0  0  0  0  0  3  0  0  0  0  0  0
  -22.7210  -10.2660   20.2730 C   0  0  0  0  0  3  0  0  0  0  0  0
  -21.6390   -6.9750   21.4720 O   0  0  0  0  0  0  0  0  0  0  0  0
  -21.5690   -6.2400   22.6280 C   0  0  0  0  0  0  0  0  0  0  0  0
  -21.0990   -6.7960   23.8370 C   0  0  0  0  0  3  0  0  0  0  0  0
  -20.9770   -5.9860   24.9840 C   0  0  0  0  0  3  0  0  0  0  0  0
  -21.3130   -4.6210   24.9210 C   0  0  0  0  0  0  0  0  0  0  0  0
  -21.7730   -4.0630   23.7150 C   0  0  0  0  0  3  0  0  0  0  0  0
  -21.8980   -4.8700   22.5710 C   0  0  0  0  0  0  0  0  0  0  0  0
  -22.3230   -4.3230   21.4070 F   0  0  0  0  0  0  0  0  0  0  0  0
  -21.1870   -3.8400   26.0200 F   0  0  0  0  0  0  0  0  0  0  0  0
  -22.7410  -13.6130   21.1860 C   0  0  0  0  0  0  0  0  0  0  0  0
  -22.0140  -12.9140   22.0510 N   0  0  0  0  0  0  0  0  0  0  0  0
  -22.3040  -14.6410   20.6710 O   0  0  0  0  0  0  0  0  0  0  0  0
  -22.3810  -12.0820   22.4900 H   0  0  0  0  0  0  0  0  0  0  0  0
  -21.0770  -13.2160   22.2790 H   0  0  0  0  0  0  0  0  0  0  0  0
  -25.3650  -15.2820   20.3700 N   0  0  0  0  0  0  0  0  0  0  0  0
  -24.5930  -15.9310   20.4790 H   0  0  0  0  0  0  0  0  0  0  0  0
  -26.1980  -15.7210   19.9990 H   0  0  0  0  0  0  0  0  0  0  0  0
  -27.8380  -24.8330   19.9120 C   0  0  0  0  0  2  0  0  0  0  0  0
  -28.2210  -26.2710   20.2640 O   0  0  0  0  0  0  0  0  0  0  0  0
  -24.6330  -31.9250   23.2530 C   0  0  0  0  0  0  0  0  0  0  0  0
  -27.1810  -27.2600   20.1800 C   0  0  0  0  0  0  0  0  0  0  0  0
  -23.4180  -30.5410   21.6160 C   0  0  0  0  0  3  0  0  0  0  0  0
  -24.8550  -28.9870   20.1740 C   0  0  0  0  0  0  0  0  0  0  0  0
  -25.9720  -30.8100   21.4400 C   0  0  0  0  0  2  0  0  0  0  0  0
  -26.0380  -29.4270   20.7820 C   0  0  0  0  0  0  0  0  0  0  0  0
  -27.2030  -28.5780   20.7770 C   0  0  0  0  0  3  0  0  0  0  0  0
  -25.9740  -26.9280   19.5170 C   0  0  0  0  0  3  0  0  0  0  0  0
  -24.8330  -27.7480   19.5280 C   0  0  0  0  0  3  0  0  0  0  0  0
  -23.6280  -29.8780   20.2320 C   0  0  0  0  0  2  0  0  0  0  0  0
  -24.6950  -31.1120   22.1580 N   0  0  0  0  0  0  0  0  0  0  0  0
  -23.5500  -32.2120   23.7870 O   0  0  0  0  0  0  0  0  0  0  0  0
  -22.7470  -29.5260   22.5730 C   0  0  0  0  0  0  0  0  0  0  0  0
  -21.4180  -29.3540   22.4470 N   0  0  0  0  0  0  0  0  0  0  0  0
  -23.4210  -28.8980   23.3940 O   0  0  0  0  0  0  0  0  0  0  0  0
  -20.9320  -29.9130   21.7600 H   0  0  0  0  0  0  0  0  0  0  0  0
  -18.0360  -28.1630   22.9550 C   0  0  0  0  0  0  0  0  0  0  0  0
  -20.5960  -28.4190   23.2190 C   0  0  0  0  0  3  0  0  0  0  0  0
  -20.6940  -26.9870   22.6450 C   0  0  0  0  0  2  0  0  0  0  0  0
  -19.5890  -26.6660   21.6330 C   0  0  0  0  0  2  0  0  0  0  0  0
  -18.2090  -26.8130   22.2790 C   0  0  0  0  0  2  0  0  0  0  0  0
  -19.1570  -28.9230   23.3820 C   0  0  0  0  0  0  0  0  0  0  0  0
  -18.9410  -30.1860   23.9760 C   0  0  0  0  0  3  0  0  0  0  0  0
  -17.6360  -30.6880   24.1450 C   0  0  0  0  0  3  0  0  0  0  0  0
  -16.5300  -29.9250   23.7330 C   0  0  0  0  0  3  0  0  0  0  0  0
  -16.7310  -28.6640   23.1440 C   0  0  0  0  0  3  0  0  0  0  0  0
  -25.9170  -32.5530   23.8730 C   0  0  0  0  0  3  0  0  0  0  0  0
  -25.6130  -33.9520   24.2100 N   0  0  0  0  0  0  0  0  0  0  0  0
  -25.9220  -35.0070   23.4440 C   0  0  0  0  0  0  0  0  0  0  0  0
  -26.5630  -34.9050   22.3950 O   0  0  0  0  0  0  0  0  0  0  0  0
  -25.0400  -34.1050   25.0280 H   0  0  0  0  0  0  0  0  0  0  0  0
  -24.1730  -36.7930   23.1510 C   0  0  0  0  0  1  0  0  0  0  0  0
  -25.4460  -36.3960   23.9160 C   0  0  0  0  0  3  0  0  0  0  0  0
  -27.6030  -37.2940   24.6690 C   0  0  0  0  0  1  0  0  0  0  0  0
  -26.4690  -37.4520   23.7620 N   0  0  0  0  0  0  0  0  0  0  0  0
  -26.0640  -38.3710   23.9180 H   0  0  0  0  0  0  0  0  0  0  0  0
  -26.4320  -31.7780   25.1490 C   0  0  1  0  0  0  0  0  0  0  0  0
  -25.3380  -31.5420   26.2170 C   0  0  0  0  0  1  0  0  0  0  0  0
  -27.0110  -30.3990   24.7580 C   0  0  0  0  0  1  0  0  0  0  0  0
  -27.5860  -32.5680   25.8100 C   0  0  0  0  0  1  0  0  0  0  0  0
  2  5  1  0
  3  1  1  0
  4  2  2  0
  4  6  1  0
  5  1  2  0
  6  3  2  0
  7  9  1  0
  7  8  1  0
  8  5  1  0
  9  8  1  0
  9 18  1  0
 10 18  1  0
 11 16  1  0
 12 13  1  0
 12 11  1  0
 14 13  1  0
 14 23  1  0
 14 15  1  0
 16 10  1  0
 16 15  1  0
 17 10  2  0
 18 19  1  0
 20 21  2  0
 21 40  1  0
 22 21  1  0
 22 25  1  0
 23 20  1  0
 23 24  1  0
 24 22  2  0
 25 26  1  0
 26 27  2  0
 28 31  1  0
 28 27  1  0
 29 28  2  0
 30 29  1  0
 30 25  2  0
 31 32  1  0
 32 33  1  0
 33 34  2  0
 35 34  1  0
 35 39  1  0
 36 35  2  0
 37 32  2  0
 37 36  1  0
 38 37  1  0
 40 41  1  0
 41 44  1  0
 41 43  1  0
 42 40  2  0
 45 46  1  0
 45 20  1  0
 47 45  1  0
 48  6  1  0
 48 49  1  0
 50 61  2  0
 51 49  1  0
 51 56  1  0
 52 60  1  0
 52 62  1  0
 53 59  1  0
 53 55  1  0
 54 60  1  0
 55 54  1  0
 56 55  2  0
 57 58  1  0
 57 51  2  0
 58 53  2  0
 59 52  1  0
 60 50  1  0
 62 64  2  0
 63 62  1  0
 65 63  1  0
 66 75  2  0
 66 71  1  0
 67 63  1  0
 67 71  1  0
 68 67  1  0
 69 70  1  0
 69 68  1  0
 70 66  1  0
 71 72  2  0
 72 73  1  0
 74 73  2  0
 75 74  1  0
 76 50  1  0
 76 77  1  0
 76 86  1  0
 77 80  1  0
 78 82  1  0
 78 77  1  0
 79 78  2  0
 82 81  1  0
 84 82  1  0
 84 85  1  0
 84 83  1  0
 86 89  1  1
 86 87  1  0
 88 86  1  0
M  ISO  4  10 100  18 100  48 101  49 101
M  END
>  <TORSDO>  (69) 
F 18

>  <SCORE>  (69) 
-14.682

>  <name>  (69) 
68

>  <ligand_id>  (69) 
68

>  <original_smiles>  (69) 
[H]c1c([H])c([H])c2c(c1[H])C([H])([H])C([H])([H])C([H])([H])C2([H])N([H])C(=O)C1([H])N(C(=O)C([H])(N([H])C(=O)C([H])(N([H])C([H])([H])[H])C([H])([H])[H])C(C([H])([H])[H])(C([H])([H])[H])C([H])([H])[H])C([H])([H])c2c([H])c(OC([H])([H])c3c([H])c([H])c(C4([H])C([H])([H])C4([H])N([H])C(=O)N4C([H])([H])C([H])([H])C([H])([H])C([H])(n5nc(-c6c([H])c([H])c(Oc7c([H])c([H])c(F)c([H])c7F)c([H])c6[H])c(C(=O)N([H])[H])c5N([H])[H])C4([H])[H])c([H])c3[H])c([H])c([H])c2C1([H])[H]

>  <smiles>  (69) 
[H]c1c([H])c([H])c2c(c1[H])C([H])([H])C([H])([H])C([H])([H])C2([H])N([H])C(=O)C1([H])N(C(=O)C([H])(N([H])C(=O)C([H])(N([H])C([H])([H])[H])C([H])([H])[H])C(C([H])([H])[H])(C([H])([H])[H])C([H])([H])[H])C([H])([H])c2c([H])c(OC([H])([H])c3c([H])c([H])c(C4([H])C([H])([H])C4([H])N([H])C(=O)N4C([H])([H])C([H])([H])C([H])([H])C([H])(n5nc(-c6c([H])c([H])c(Oc7c([H])c([H])c(F)c([H])c7F)c([H])c6[H])c(C(=O)N([H])[H])c5N([H])[H])C4([H])[H])c([H])c3[H])c([H])c([H])c2C1([H])[H]

$$$$
69:0:0
     RDKit          3D

 96104  0  0  1  0  0  0  0  0999 V2000
  -31.9340  -19.0860   20.8420 C   0  0  0  0  0  3  0  0  0  0  0  0
  -31.5350  -17.7430   20.7450 C   0  0  0  0  0  3  0  0  0  0  0  0
  -31.0270  -20.1690   20.7710 C   0  0  0  0  0  0  0  0  0  0  0  0
  -29.6390  -19.9190   20.5570 C   0  0  0  0  0  0  0  0  0  0  0  0
  -29.2470  -18.4990   20.4720 C   0  0  0  0  0  0  0  0  0  0  0  0
  -30.1860  -17.3780   20.5580 C   0  0  0  0  0  0  0  0  0  0  0  0
  -27.7720  -18.1730   20.2950 C   0  0  0  0  0  1  0  0  0  0  0  0
  -30.5800  -14.7790   20.2530 C   0  0  0  0  0  0  0  0  0  0  0  0
  -30.3350  -12.5310   19.1890 C   0  0  0  0  0  2  0  0  0  0  0  0
  -29.3740  -12.6430   17.9860 C   0  0  0  0  0  2  0  0  0  0  0  0
  -27.9130  -12.4670   18.4400 C   0  0  0  0  0  2  0  0  0  0  0  0
  -27.5690  -13.3210   19.6890 C   0  0  0  0  0  3  0  0  0  0  0  0
  -28.6500  -13.2050   20.7840 C   0  0  0  0  0  2  0  0  0  0  0  0
  -29.9330  -13.5640   20.1710 N   0  0  0  0  0  0  0  0  0  0  0  0
  -31.7600  -14.8450   19.8970 O   0  0  0  0  0  0  0  0  0  0  0  0
  -29.8260  -15.9240   20.5130 N   0  0  0  0  0  0  0  0  0  0  0  0
  -28.8510  -15.7230   20.6710 H   0  0  0  0  0  0  0  0  0  0  0  0
  -25.1900  -13.8950   20.4550 C   0  0  0  0  0  0  0  0  0  0  0  0
  -24.1370  -13.1150   20.8440 C   0  0  0  0  0  0  0  0  0  0  0  0
  -24.6080  -11.7670   20.8030 C   0  0  0  0  0  0  0  0  0  0  0  0
  -26.2360  -13.0240   20.2020 N   0  0  0  0  0  0  0  0  0  0  0  0
  -25.8940  -11.7380   20.4740 N   0  0  0  0  0  0  0  0  0  0  0  0
  -23.8920  -10.5000   21.0020 C   0  0  0  0  0  0  0  0  0  0  0  0
  -24.3400   -9.5350   21.9310 C   0  0  0  0  0  3  0  0  0  0  0  0
  -23.6220   -8.3350   22.1180 C   0  0  0  0  0  3  0  0  0  0  0  0
  -22.4430   -8.0890   21.3750 C   0  0  0  0  0  0  0  0  0  0  0  0
  -22.0140   -9.0430   20.4340 C   0  0  0  0  0  3  0  0  0  0  0  0
  -22.7320  -10.2350   20.2460 C   0  0  0  0  0  3  0  0  0  0  0  0
  -21.6960   -6.9400   21.4710 O   0  0  0  0  0  0  0  0  0  0  0  0
  -21.6610   -6.1990   22.6250 C   0  0  0  0  0  0  0  0  0  0  0  0
  -21.2400   -6.7540   23.8530 C   0  0  0  0  0  3  0  0  0  0  0  0
  -21.1520   -5.9400   25.0000 C   0  0  0  0  0  3  0  0  0  0  0  0
  -21.4750   -4.5720   24.9190 C   0  0  0  0  0  0  0  0  0  0  0  0
  -21.8900   -4.0160   23.6950 C   0  0  0  0  0  3  0  0  0  0  0  0
  -21.9800   -4.8280   22.5510 C   0  0  0  0  0  0  0  0  0  0  0  0
  -22.3590   -4.2840   21.3690 F   0  0  0  0  0  0  0  0  0  0  0  0
  -21.3840   -3.7860   26.0180 F   0  0  0  0  0  0  0  0  0  0  0  0
  -22.7420  -13.5850   21.1380 C   0  0  0  0  0  0  0  0  0  0  0  0
  -22.0300  -12.8800   22.0100 N   0  0  0  0  0  0  0  0  0  0  0  0
  -22.2920  -14.6100   20.6280 O   0  0  0  0  0  0  0  0  0  0  0  0
  -22.4070  -12.0510   22.4440 H   0  0  0  0  0  0  0  0  0  0  0  0
  -21.0950  -13.1760   22.2520 H   0  0  0  0  0  0  0  0  0  0  0  0
  -25.3400  -15.2670   20.2680 N   0  0  0  0  0  0  0  0  0  0  0  0
  -24.5560  -15.9030   20.3620 H   0  0  0  0  0  0  0  0  0  0  0  0
  -26.1380  -15.6890   19.8150 H   0  0  0  0  0  0  0  0  0  0  0  0
  -31.5940  -21.5790   20.9770 C   0  0  1  0  0  0  0  0  0  0  0  0
  -32.8810  -21.5480   21.3350 F   0  0  0  0  0  0  0  0  0  0  0  0
  -31.5200  -22.2820   19.8470 F   0  0  0  0  0  0  0  0  0  0  0  0
  -30.9440  -22.2140   21.9530 F   0  0  0  0  0  0  0  0  0  0  0  0
  -28.5830  -21.1390   20.5590 C   0  0  0  0  0  2  0  0  0  0  0  0
  -28.3710  -23.7840   20.4400 C   0  0  0  0  0  0  0  0  0  0  0  0
  -28.8310  -22.5470   20.0000 N   0  0  0  0  0  0  0  0  0  0  0  0
  -27.7730  -23.8740   21.5150 O   0  0  0  0  0  0  0  0  0  0  0  0
  -29.3220  -22.5670   19.1160 H   0  0  0  0  0  0  0  0  0  0  0  0
  -28.5460  -25.1160   19.5590 C   0  0  0  0  0  2  0  0  0  0  0  0
  -28.4160  -26.4610   20.2200 O   0  0  0  0  0  0  0  0  0  0  0  0
  -24.6010  -31.8540   23.1910 C   0  0  0  0  0  0  0  0  0  0  0  0
  -27.2830  -27.3020   20.1330 C   0  0  0  0  0  0  0  0  0  0  0  0
  -23.4310  -30.4620   21.5220 C   0  0  0  0  0  3  0  0  0  0  0  0
  -24.9120  -28.9300   20.0990 C   0  0  0  0  0  0  0  0  0  0  0  0
  -25.9730  -30.7870   21.3820 C   0  0  0  0  0  2  0  0  0  0  0  0
  -26.0690  -29.4130   20.7220 C   0  0  0  0  0  0  0  0  0  0  0  0
  -27.2520  -28.6090   20.7290 C   0  0  0  0  0  3  0  0  0  0  0  0
  -26.0980  -26.8780   19.4930 C   0  0  0  0  0  3  0  0  0  0  0  0
  -24.9320  -27.6710   19.4770 C   0  0  0  0  0  3  0  0  0  0  0  0
  -23.6690  -29.7970   20.1390 C   0  0  0  0  0  2  0  0  0  0  0  0
  -24.6870  -31.0530   22.0880 N   0  0  0  0  0  0  0  0  0  0  0  0
  -23.5070  -32.1210   23.7120 O   0  0  0  0  0  0  0  0  0  0  0  0
  -22.7580  -29.4360   22.4650 C   0  0  0  0  0  0  0  0  0  0  0  0
  -21.4290  -29.2710   22.3380 N   0  0  0  0  0  0  0  0  0  0  0  0
  -23.4300  -28.7910   23.2730 O   0  0  0  0  0  0  0  0  0  0  0  0
  -20.9410  -29.8450   21.6640 H   0  0  0  0  0  0  0  0  0  0  0  0
  -18.0420  -28.1090   22.8400 C   0  0  0  0  0  0  0  0  0  0  0  0
  -20.6060  -28.3240   23.0910 C   0  0  0  0  0  3  0  0  0  0  0  0
  -20.6810  -26.9060   22.4780 C   0  0  0  0  0  2  0  0  0  0  0  0
  -19.5660  -26.6270   21.4670 C   0  0  0  0  0  2  0  0  0  0  0  0
  -18.1920  -26.7770   22.1260 C   0  0  0  0  0  2  0  0  0  0  0  0
  -19.1750  -28.8430   23.2790 C   0  0  0  0  0  0  0  0  0  0  0  0
  -18.9800  -30.0930   23.9070 C   0  0  0  0  0  3  0  0  0  0  0  0
  -17.6840  -30.6090   24.0970 C   0  0  0  0  0  3  0  0  0  0  0  0
  -16.5640  -29.8710   23.6740 C   0  0  0  0  0  3  0  0  0  0  0  0
  -16.7440  -28.6210   23.0530 C   0  0  0  0  0  3  0  0  0  0  0  0
  -25.8700  -32.4900   23.8380 C   0  0  0  0  0  3  0  0  0  0  0  0
  -26.3600  -31.7240   25.1280 C   0  0  1  0  0  0  0  0  0  0  0  0
  -25.2430  -31.4920   26.1720 C   0  0  0  0  0  1  0  0  0  0  0  0
  -26.9550  -30.3460   24.7550 C   0  0  0  0  0  1  0  0  0  0  0  0
  -27.4940  -32.5230   25.8120 C   0  0  0  0  0  1  0  0  0  0  0  0
  -25.5510  -33.8900   24.1600 N   0  0  0  0  0  0  0  0  0  0  0  0
  -25.9000  -34.9430   23.4090 C   0  0  0  0  0  0  0  0  0  0  0  0
  -26.5910  -34.8410   22.3920 O   0  0  0  0  0  0  0  0  0  0  0  0
  -24.9410  -34.0470   24.9490 H   0  0  0  0  0  0  0  0  0  0  0  0
  -24.1830  -36.7390   23.0210 C   0  0  0  0  0  1  0  0  0  0  0  0
  -25.4050  -36.3320   23.8590 C   0  0  0  0  0  3  0  0  0  0  0  0
  -27.5220  -37.2130   24.7380 C   0  0  0  0  0  1  0  0  0  0  0  0
  -26.4410  -37.3840   23.7710 N   0  0  0  0  0  0  0  0  0  0  0  0
  -26.0330  -38.3030   23.9120 H   0  0  0  0  0  0  0  0  0  0  0  0
  2  1  2  0
  3  1  1  0
  3 46  1  0
  4 50  1  0
  4  3  2  0
  5  4  1  0
  5  6  2  0
  6  2  1  0
  7  5  1  0
  8 16  1  0
  9 14  1  0
 10 11  1  0
 10  9  1  0
 12 11  1  0
 12 21  1  0
 12 13  1  0
 14  8  1  0
 14 13  1  0
 15  8  2  0
 16  6  1  0
 16 17  1  0
 18 19  2  0
 19 38  1  0
 20 19  1  0
 20 23  1  0
 21 18  1  0
 21 22  1  0
 22 20  2  0
 23 24  1  0
 24 25  2  0
 26 29  1  0
 26 25  1  0
 27 26  2  0
 28 27  1  0
 28 23  2  0
 29 30  1  0
 30 31  1  0
 31 32  2  0
 33 32  1  0
 33 37  1  0
 34 33  2  0
 35 30  2  0
 35 34  1  0
 36 35  1  0
 38 39  1  0
 39 42  1  0
 39 41  1  0
 40 38  2  0
 43 44  1  0
 43 18  1  0
 45 43  1  0
 46 47  1  1
 46 49  1  0
 48 46  1  0
 51 53  2  0
 52 51  1  0
 52 50  1  0
 54 52  1  0
 55 56  1  0
 55 51  1  0
 57 68  2  0
 58 56  1  0
 58 63  1  0
 59 67  1  0
 59 69  1  0
 60 66  1  0
 60 62  1  0
 61 67  1  0
 62 63  2  0
 62 61  1  0
 64 58  2  0
 65 64  1  0
 65 60  2  0
 66 59  1  0
 67 57  1  0
 69 71  2  0
 70 69  1  0
 72 70  1  0
 73 82  2  0
 73 78  1  0
 74 70  1  0
 74 78  1  0
 75 74  1  0
 76 77  1  0
 76 75  1  0
 77 73  1  0
 78 79  2  0
 79 80  1  0
 81 80  2  0
 82 81  1  0
 83 57  1  0
 83 88  1  0
 83 84  1  0
 84 87  1  1
 84 85  1  0
 86 84  1  0
 88 91  1  0
 89 93  1  0
 89 88  1  0
 90 89  2  0
 93 92  1  0
 95 93  1  0
 95 96  1  0
 95 94  1  0
M  ISO  4   8 100  16 100  55 101  56 101
M  END
>  <TORSDO>  (70) 
F 20

>  <SCORE>  (70) 
-14.547

>  <name>  (70) 
69

>  <ligand_id>  (70) 
69

>  <original_smiles>  (70) 
[H]c1c([H])c([H])c2c(c1[H])C([H])([H])C([H])([H])C([H])([H])C2([H])N([H])C(=O)C1([H])N(C(=O)C([H])(N([H])C(=O)C([H])(N([H])C([H])([H])[H])C([H])([H])[H])C(C([H])([H])[H])(C([H])([H])[H])C([H])([H])[H])C([H])([H])c2c([H])c(OC([H])([H])C(=O)N([H])C([H])([H])c3c(C([H])([H])[H])c(N([H])C(=O)N4C([H])([H])C([H])([H])C([H])([H])C([H])(n5nc(-c6c([H])c([H])c(Oc7c([H])c([H])c(F)c([H])c7F)c([H])c6[H])c(C(=O)N([H])[H])c5N([H])[H])C4([H])[H])c([H])c([H])c3C(F)(F)F)c([H])c([H])c2C1([H])[H]

>  <smiles>  (70) 
[H]c1c([H])c([H])c2c(c1[H])C([H])([H])C([H])([H])C([H])([H])C2([H])N([H])C(=O)C1([H])N(C(=O)C([H])(N([H])C(=O)C([H])(N([H])C([H])([H])[H])C([H])([H])[H])C(C([H])([H])[H])(C([H])([H])[H])C([H])([H])[H])C([H])([H])c2c([H])c(OC([H])([H])C(=O)N([H])C([H])([H])c3c(C([H])([H])[H])c(N([H])C(=O)N4C([H])([H])C([H])([H])C([H])([H])C([H])(n5nc(-c6c([H])c([H])c(Oc7c([H])c([H])c(F)c([H])c7F)c([H])c6[H])c(C(=O)N([H])[H])c5N([H])[H])C4([H])[H])c([H])c([H])c3C(F)(F)F)c([H])c([H])c2C1([H])[H]

$$$$
70:0:0
     RDKit          3D

 96105  0  0  1  0  0  0  0  0999 V2000
  -30.2050  -23.1670   20.7050 N   0  0  0  0  0  4  0  0  0  0  0  0
  -29.2840  -23.3840   20.3660 H   0  0  0  0  0  0  0  0  0  0  0  0
  -30.8060  -23.0690   19.9020 H   0  0  0  0  0  0  0  0  0  0  0  0
  -28.7910  -21.4770   21.8900 C   0  0  0  0  0  2  0  0  0  0  0  0
  -29.4070  -20.7910   20.6870 C   0  0  0  0  0  3  0  0  0  0  0  0
  -30.1720  -21.8720   21.4150 C   0  0  0  0  0  3  0  0  0  0  0  0
  -31.1240  -18.9540   20.4850 C   0  0  0  0  0  3  0  0  0  0  0  0
  -28.8670  -18.3810   21.1880 C   0  0  0  0  0  3  0  0  0  0  0  0
  -31.4990  -17.6000   20.5730 C   0  0  0  0  0  3  0  0  0  0  0  0
  -29.2390  -17.0270   21.2780 C   0  0  0  0  0  3  0  0  0  0  0  0
  -29.8060  -19.3530   20.7900 C   0  0  0  0  0  0  0  0  0  0  0  0
  -30.5510  -16.6250   20.9570 C   0  0  0  0  0  0  0  0  0  0  0  0
  -31.2440  -14.4600   20.0250 C   0  0  0  0  0  0  0  0  0  0  0  0
  -30.8490  -12.3150   18.8760 C   0  0  0  0  0  2  0  0  0  0  0  0
  -29.8040  -12.4850   17.7560 C   0  0  0  0  0  2  0  0  0  0  0  0
  -28.3750  -12.3390   18.3110 C   0  0  0  0  0  2  0  0  0  0  0  0
  -28.1350  -13.2170   19.5660 C   0  0  0  0  0  3  0  0  0  0  0  0
  -29.2690  -13.0060   20.5920 C   0  0  0  0  0  2  0  0  0  0  0  0
  -30.5610  -13.2910   19.9340 N   0  0  0  0  0  0  0  0  0  0  0  0
  -32.1950  -14.7540   19.2900 O   0  0  0  0  0  0  0  0  0  0  0  0
  -30.8420  -15.2420   21.0360 N   0  0  0  0  0  0  0  0  0  0  0  0
  -30.2620  -14.7370   21.6870 H   0  0  0  0  0  0  0  0  0  0  0  0
  -25.8650  -13.8560   20.6100 C   0  0  0  0  0  0  0  0  0  0  0  0
  -24.7940  -13.0980   21.0010 C   0  0  0  0  0  0  0  0  0  0  0  0
  -25.1590  -11.7400   20.7480 C   0  0  0  0  0  0  0  0  0  0  0  0
  -26.8200  -12.9590   20.1540 N   0  0  0  0  0  0  0  0  0  0  0  0
  -26.4030  -11.6750   20.2890 N   0  0  0  0  0  0  0  0  0  0  0  0
  -24.3790  -10.5010   20.8640 C   0  0  0  0  0  0  0  0  0  0  0  0
  -24.7200   -9.4990   21.8000 C   0  0  0  0  0  3  0  0  0  0  0  0
  -23.9470   -8.3230   21.9040 C   0  0  0  0  0  3  0  0  0  0  0  0
  -22.8180   -8.1410   21.0700 C   0  0  0  0  0  0  0  0  0  0  0  0
  -22.4960   -9.1310   20.1250 C   0  0  0  0  0  3  0  0  0  0  0  0
  -23.2690  -10.2980   20.0200 C   0  0  0  0  0  3  0  0  0  0  0  0
  -22.0240   -7.0200   21.0820 O   0  0  0  0  0  0  0  0  0  0  0  0
  -21.7250   -6.3630   22.2480 C   0  0  0  0  0  0  0  0  0  0  0  0
  -21.0830   -7.0120   23.3260 C   0  0  0  0  0  3  0  0  0  0  0  0
  -20.7310   -6.2810   24.4780 C   0  0  0  0  0  3  0  0  0  0  0  0
  -21.0100   -4.9030   24.5530 C   0  0  0  0  0  0  0  0  0  0  0  0
  -21.6440   -4.2540   23.4790 C   0  0  0  0  0  3  0  0  0  0  0  0
  -21.9970   -4.9820   22.3280 C   0  0  0  0  0  0  0  0  0  0  0  0
  -22.5890   -4.3480   21.2870 F   0  0  0  0  0  0  0  0  0  0  0  0
  -20.6650   -4.1990   25.6560 F   0  0  0  0  0  0  0  0  0  0  0  0
  -23.4670  -13.6040   21.4910 C   0  0  0  0  0  0  0  0  0  0  0  0
  -22.8190  -12.8640   22.3840 N   0  0  0  0  0  0  0  0  0  0  0  0
  -23.0200  -14.6880   21.1200 O   0  0  0  0  0  0  0  0  0  0  0  0
  -23.1960  -11.9870   22.7100 H   0  0  0  0  0  0  0  0  0  0  0  0
  -21.9330  -13.1850   22.7500 H   0  0  0  0  0  0  0  0  0  0  0  0
  -26.1000  -15.2270   20.5900 N   0  0  0  0  0  0  0  0  0  0  0  0
  -25.3960  -15.9030   20.8700 H   0  0  0  0  0  0  0  0  0  0  0  0
  -26.9480  -15.6580   20.2430 H   0  0  0  0  0  0  0  0  0  0  0  0
  -30.7200  -24.2850   21.5240 C   0  0  0  0  0  2  0  0  0  0  0  0
  -30.5270  -25.6520   20.8280 C   0  0  0  0  0  3  0  0  0  0  0  0
  -31.4520  -26.5980   21.3560 O   0  0  0  0  0  0  0  0  0  0  0  0
  -31.1890  -26.8060   22.2480 H   0  0  0  0  0  0  0  0  0  0  0  0
  -29.1010  -26.2210   20.9940 C   0  0  0  0  0  2  0  0  0  0  0  0
  -28.7560  -26.9290   19.8120 O   0  0  0  0  0  0  0  0  0  0  0  0
  -24.7580  -31.8080   23.1070 C   0  0  0  0  0  0  0  0  0  0  0  0
  -27.5620  -27.5930   19.8940 C   0  0  0  0  0  0  0  0  0  0  0  0
  -23.6000  -30.4130   21.4240 C   0  0  0  0  0  3  0  0  0  0  0  0
  -25.1080  -28.9700   19.9580 C   0  0  0  0  0  0  0  0  0  0  0  0
  -26.1050  -30.8790   21.2310 C   0  0  0  0  0  2  0  0  0  0  0  0
  -26.2410  -29.5290   20.5630 C   0  0  0  0  0  0  0  0  0  0  0  0
  -27.4720  -28.8440   20.5360 C   0  0  0  0  0  3  0  0  0  0  0  0
  -26.4190  -27.0340   19.2900 C   0  0  0  0  0  3  0  0  0  0  0  0
  -25.1890  -27.7170   19.3210 C   0  0  0  0  0  3  0  0  0  0  0  0
  -23.8330  -29.7770   20.0260 C   0  0  0  0  0  2  0  0  0  0  0  0
  -24.8390  -31.0460   21.9800 N   0  0  0  0  0  0  0  0  0  0  0  0
  -23.6690  -32.0250   23.6540 O   0  0  0  0  0  0  0  0  0  0  0  0
  -22.9890  -29.3410   22.3540 C   0  0  0  0  0  0  0  0  0  0  0  0
  -21.6650  -29.1440   22.2480 N   0  0  0  0  0  0  0  0  0  0  0  0
  -23.7010  -28.6920   23.1260 O   0  0  0  0  0  0  0  0  0  0  0  0
  -21.1510  -29.7240   21.5990 H   0  0  0  0  0  0  0  0  0  0  0  0
  -18.3100  -27.9360   22.8200 C   0  0  0  0  0  0  0  0  0  0  0  0
  -20.8790  -28.1630   22.9940 C   0  0  0  0  0  3  0  0  0  0  0  0
  -20.9460  -26.7710   22.3250 C   0  0  0  0  0  2  0  0  0  0  0  0
  -19.7970  -26.5180   21.3410 C   0  0  0  0  0  2  0  0  0  0  0  0
  -18.4470  -26.6300   22.0540 C   0  0  0  0  0  2  0  0  0  0  0  0
  -19.4520  -28.6630   23.2470 C   0  0  0  0  0  0  0  0  0  0  0  0
  -19.2690  -29.8900   23.9220 C   0  0  0  0  0  3  0  0  0  0  0  0
  -17.9770  -30.3860   24.1760 C   0  0  0  0  0  3  0  0  0  0  0  0
  -16.8500  -29.6520   23.7650 C   0  0  0  0  0  3  0  0  0  0  0  0
  -17.0180  -28.4300   23.0920 C   0  0  0  0  0  3  0  0  0  0  0  0
  -26.0230  -32.4630   23.7450 C   0  0  0  0  0  3  0  0  0  0  0  0
  -25.6680  -33.8390   24.1160 N   0  0  0  0  0  0  0  0  0  0  0  0
  -25.9650  -34.9220   23.3880 C   0  0  0  0  0  0  0  0  0  0  0  0
  -26.6370  -34.8720   22.3530 O   0  0  0  0  0  0  0  0  0  0  0  0
  -25.0650  -33.9500   24.9170 H   0  0  0  0  0  0  0  0  0  0  0  0
  -24.1780  -36.6670   23.0800 C   0  0  0  0  0  1  0  0  0  0  0  0
  -25.4300  -36.2790   23.8840 C   0  0  0  0  0  3  0  0  0  0  0  0
  -27.5250  -37.2140   24.7580 C   0  0  0  0  0  1  0  0  0  0  0  0
  -26.4270  -37.3690   23.8080 N   0  0  0  0  0  0  0  0  0  0  0  0
  -25.9880  -38.2700   23.9720 H   0  0  0  0  0  0  0  0  0  0  0  0
  -26.5750  -31.6690   24.9910 C   0  0  1  0  0  0  0  0  0  0  0  0
  -25.4940  -31.3430   26.0480 C   0  0  0  0  0  1  0  0  0  0  0  0
  -27.2210  -30.3350   24.5460 C   0  0  0  0  0  1  0  0  0  0  0  0
  -27.6890  -32.4900   25.6830 C   0  0  0  0  0  1  0  0  0  0  0  0
  1 51  1  0
  2  1  1  0
  3  1  1  0
  5 11  1  0
  5  6  1  0
  5  4  1  0
  6  1  1  0
  6  4  1  0
  7  9  2  0
  7 11  1  0
  8 10  1  0
  9 12  1  0
 11  8  2  0
 12 21  1  0
 12 10  2  0
 13 21  1  0
 14 19  1  0
 15 16  1  0
 15 14  1  0
 17 16  1  0
 17 26  1  0
 17 18  1  0
 19 13  1  0
 19 18  1  0
 20 13  2  0
 21 22  1  0
 23 24  2  0
 24 43  1  0
 25 28  1  0
 25 24  1  0
 26 27  1  0
 26 23  1  0
 27 25  2  0
 28 29  1  0
 29 30  2  0
 31 34  1  0
 31 30  1  0
 32 31  2  0
 33 32  1  0
 33 28  2  0
 34 35  1  0
 35 40  2  0
 35 36  1  0
 36 37  2  0
 37 38  1  0
 38 42  1  0
 39 38  2  0
 40 39  1  0
 41 40  1  0
 43 44  1  0
 44 46  1  0
 44 47  1  0
 45 43  2  0
 48 23  1  0
 48 49  1  0
 50 48  1  0
 52 55  1  0
 52 53  1  0
 52 51  1  0
 53 54  1  0
 56 58  1  0
 56 55  1  0
 57 68  2  0
 58 63  1  0
 59 67  1  0
 59 69  1  0
 60 66  1  0
 60 62  1  0
 61 67  1  0
 62 61  1  0
 63 62  2  0
 64 65  1  0
 64 58  2  0
 65 60  2  0
 66 59  1  0
 67 57  1  0
 69 71  2  0
 70 69  1  0
 72 70  1  0
 73 82  2  0
 73 78  1  0
 74 70  1  0
 74 78  1  0
 75 74  1  0
 76 77  1  0
 76 75  1  0
 77 73  1  0
 78 79  2  0
 79 80  1  0
 81 80  2  0
 82 81  1  0
 83 57  1  0
 83 84  1  0
 83 93  1  0
 84 87  1  0
 85 89  1  0
 85 84  1  0
 86 85  2  0
 89 88  1  0
 91 89  1  0
 91 92  1  0
 91 90  1  0
 93 96  1  1
 93 94  1  0
 95 93  1  0
M  ISO  4  13 100  21 100  55 101  56 101
M  END
>  <TORSDO>  (71) 
F 22

>  <SCORE>  (71) 
-11.540

>  <name>  (71) 
70

>  <ligand_id>  (71) 
70

>  <original_smiles>  (71) 
[H]OC([H])(C([H])([H])Oc1c([H])c([H])c2c(c1[H])C([H])([H])N(C(=O)C([H])(N([H])C(=O)C([H])(N([H])C([H])([H])[H])C([H])([H])[H])C(C([H])([H])[H])(C([H])([H])[H])C([H])([H])[H])C([H])(C(=O)N([H])C1([H])c3c([H])c([H])c([H])c([H])c3C([H])([H])C([H])([H])C1([H])[H])C2([H])[H])C([H])([H])[N+]([H])([H])C1([H])C([H])([H])C1([H])c1c([H])c([H])c(N([H])C(=O)N2C([H])([H])C([H])([H])C([H])([H])C([H])(n3nc(-c4c([H])c([H])c(Oc5c([H])c([H])c(F)c([H])c5F)c([H])c4[H])c(C(=O)N([H])[H])c3N([H])[H])C2([H])[H])c([H])c1[H]

>  <smiles>  (71) 
[H]OC([H])(C([H])([H])Oc1c([H])c([H])c2c(c1[H])C([H])([H])N(C(=O)C([H])(N([H])C(=O)C([H])(N([H])C([H])([H])[H])C([H])([H])[H])C(C([H])([H])[H])(C([H])([H])[H])C([H])([H])[H])C([H])(C(=O)N([H])C1([H])c3c([H])c([H])c([H])c([H])c3C([H])([H])C([H])([H])C1([H])[H])C2([H])[H])C([H])([H])[N+]([H])([H])C1([H])C([H])([H])C1([H])c1c([H])c([H])c(N([H])C(=O)N2C([H])([H])C([H])([H])C([H])([H])C([H])(n3nc(-c4c([H])c([H])c(Oc5c([H])c([H])c(F)c([H])c5F)c([H])c4[H])c(C(=O)N([H])[H])c3N([H])[H])C2([H])[H])c([H])c1[H]

$$$$
71:0:0
     RDKit          3D

 94102  0  0  1  0  0  0  0  0999 V2000
  -30.0250  -20.1120   16.9480 C   0  0  0  0  0  3  0  0  0  0  0  0
  -30.3410  -18.7610   16.9110 C   0  0  0  0  0  3  0  0  0  0  0  0
  -29.7320  -20.7050   18.1710 C   0  0  0  0  0  3  0  0  0  0  0  0
  -30.3680  -17.9880   18.0850 C   0  0  0  0  0  0  0  0  0  0  0  0
  -29.7320  -20.0060   19.4050 C   0  0  0  0  0  0  0  0  0  0  0  0
  -30.0670  -18.5400   19.3890 C   0  0  0  0  0  0  0  0  0  0  0  0
  -30.7870  -16.5530   17.8150 C   0  0  0  0  0  1  0  0  0  0  0  0
  -31.6120  -17.8070   21.3090 C   0  0  0  0  0  1  0  0  0  0  0  0
  -30.2370  -17.5560   20.6600 C   0  0  0  0  0  3  0  0  0  0  0  0
  -30.6910  -14.8510   20.5960 C   0  0  0  0  0  0  0  0  0  0  0  0
  -30.5240  -12.5410   19.6420 C   0  0  0  0  0  2  0  0  0  0  0  0
  -29.6370  -12.5220   18.3770 C   0  0  0  0  0  2  0  0  0  0  0  0
  -28.1550  -12.3460   18.7550 C   0  0  0  0  0  2  0  0  0  0  0  0
  -27.7180  -13.2930   19.9030 C   0  0  0  0  0  3  0  0  0  0  0  0
  -28.7250  -13.2970   21.0730 C   0  0  0  0  0  2  0  0  0  0  0  0
  -30.0400  -13.6380   20.5150 N   0  0  0  0  0  0  0  0  0  0  0  0
  -31.9110  -14.8820   20.4190 O   0  0  0  0  0  0  0  0  0  0  0  0
  -29.9340  -16.0250   20.6300 N   0  0  0  0  0  0  0  0  0  0  0  0
  -28.9460  -15.8300   20.7080 H   0  0  0  0  0  0  0  0  0  0  0  0
  -25.2990  -13.8930   20.5050 C   0  0  0  0  0  0  0  0  0  0  0  0
  -24.2180  -13.1250   20.8410 C   0  0  0  0  0  0  0  0  0  0  0  0
  -24.6860  -11.7750   20.8610 C   0  0  0  0  0  0  0  0  0  0  0  0
  -26.3540  -13.0140   20.3410 N   0  0  0  0  0  0  0  0  0  0  0  0
  -25.9900  -11.7360   20.6190 N   0  0  0  0  0  0  0  0  0  0  0  0
  -23.9510  -10.5160   21.0340 C   0  0  0  0  0  0  0  0  0  0  0  0
  -24.3490   -9.5560   21.9910 C   0  0  0  0  0  3  0  0  0  0  0  0
  -23.6160   -8.3610   22.1550 C   0  0  0  0  0  3  0  0  0  0  0  0
  -22.4710   -8.1170   21.3590 C   0  0  0  0  0  0  0  0  0  0  0  0
  -22.0920   -9.0640   20.3920 C   0  0  0  0  0  3  0  0  0  0  0  0
  -22.8250  -10.2520   20.2280 C   0  0  0  0  0  3  0  0  0  0  0  0
  -21.7130   -6.9730   21.4340 O   0  0  0  0  0  0  0  0  0  0  0  0
  -21.6300   -6.2380   22.5900 C   0  0  0  0  0  0  0  0  0  0  0  0
  -21.1800   -6.8030   23.8030 C   0  0  0  0  0  3  0  0  0  0  0  0
  -21.0470   -5.9950   24.9500 C   0  0  0  0  0  3  0  0  0  0  0  0
  -21.3510   -4.6210   24.8830 C   0  0  0  0  0  0  0  0  0  0  0  0
  -21.7910   -4.0560   23.6740 C   0  0  0  0  0  3  0  0  0  0  0  0
  -21.9280   -4.8610   22.5300 C   0  0  0  0  0  0  0  0  0  0  0  0
  -22.3330   -4.3040   21.3630 F   0  0  0  0  0  0  0  0  0  0  0  0
  -21.2140   -3.8440   25.9840 F   0  0  0  0  0  0  0  0  0  0  0  0
  -22.8080  -13.6060   21.0350 C   0  0  0  0  0  0  0  0  0  0  0  0
  -22.0420  -12.9240   21.8800 N   0  0  0  0  0  0  0  0  0  0  0  0
  -22.3940  -14.6200   20.4750 O   0  0  0  0  0  0  0  0  0  0  0  0
  -22.3880  -12.1010   22.3490 H   0  0  0  0  0  0  0  0  0  0  0  0
  -21.0960  -13.2300   22.0630 H   0  0  0  0  0  0  0  0  0  0  0  0
  -25.4670  -15.2610   20.3020 N   0  0  0  0  0  0  0  0  0  0  0  0
  -24.6880  -15.9080   20.3520 H   0  0  0  0  0  0  0  0  0  0  0  0
  -26.3160  -15.6930   19.9610 H   0  0  0  0  0  0  0  0  0  0  0  0
  -29.3960  -21.0300   20.5940 C   0  0  0  0  0  2  0  0  0  0  0  0
  -29.0150  -23.7320   20.4320 C   0  0  0  0  0  0  0  0  0  0  0  0
  -28.6980  -22.3800   20.2750 N   0  0  0  0  0  0  0  0  0  0  0  0
  -30.1090  -24.0680   20.8920 O   0  0  0  0  0  0  0  0  0  0  0  0
  -27.7680  -22.2440   19.8970 H   0  0  0  0  0  0  0  0  0  0  0  0
  -27.9500  -24.8830   20.0290 C   0  0  0  0  0  2  0  0  0  0  0  0
  -28.2590  -26.3640   20.1910 O   0  0  0  0  0  0  0  0  0  0  0  0
  -24.5870  -31.8850   23.2330 C   0  0  0  0  0  0  0  0  0  0  0  0
  -27.1720  -27.2860   20.1370 C   0  0  0  0  0  0  0  0  0  0  0  0
  -23.3670  -30.4940   21.6060 C   0  0  0  0  0  3  0  0  0  0  0  0
  -24.8070  -28.9480   20.1560 C   0  0  0  0  0  0  0  0  0  0  0  0
  -25.9130  -30.8040   21.3940 C   0  0  0  0  0  2  0  0  0  0  0  0
  -25.9930  -29.4240   20.7340 C   0  0  0  0  0  0  0  0  0  0  0  0
  -27.1770  -28.6120   20.7080 C   0  0  0  0  0  3  0  0  0  0  0  0
  -25.9610  -26.8950   19.5190 C   0  0  0  0  0  3  0  0  0  0  0  0
  -24.7980  -27.6900   19.5390 C   0  0  0  0  0  3  0  0  0  0  0  0
  -23.5690  -29.8230   20.2220 C   0  0  0  0  0  2  0  0  0  0  0  0
  -24.6430  -31.0780   22.1340 N   0  0  0  0  0  0  0  0  0  0  0  0
  -23.5110  -32.1570   23.7830 O   0  0  0  0  0  0  0  0  0  0  0  0
  -22.7140  -29.4720   22.5690 C   0  0  0  0  0  0  0  0  0  0  0  0
  -21.3880  -29.2810   22.4530 N   0  0  0  0  0  0  0  0  0  0  0  0
  -23.4050  -28.8500   23.3830 O   0  0  0  0  0  0  0  0  0  0  0  0
  -20.8870  -29.8310   21.7670 H   0  0  0  0  0  0  0  0  0  0  0  0
  -18.0310  -28.0380   22.9760 C   0  0  0  0  0  0  0  0  0  0  0  0
  -20.5860  -28.3390   23.2360 C   0  0  0  0  0  3  0  0  0  0  0  0
  -20.7090  -26.9030   22.6730 C   0  0  0  0  0  2  0  0  0  0  0  0
  -19.6090  -26.5560   21.6640 C   0  0  0  0  0  2  0  0  0  0  0  0
  -18.2250  -26.6850   22.3090 C   0  0  0  0  0  2  0  0  0  0  0  0
  -19.1390  -28.8190   23.3970 C   0  0  0  0  0  0  0  0  0  0  0  0
  -18.9020  -30.0830   23.9810 C   0  0  0  0  0  3  0  0  0  0  0  0
  -17.5900  -30.5670   24.1400 C   0  0  0  0  0  3  0  0  0  0  0  0
  -16.4970  -29.7830   23.7320 C   0  0  0  0  0  3  0  0  0  0  0  0
  -16.7180  -28.5180   23.1590 C   0  0  0  0  0  3  0  0  0  0  0  0
  -25.8740  -32.5240   23.8380 C   0  0  0  0  0  3  0  0  0  0  0  0
  -26.4080  -31.7530   25.1090 C   0  0  1  0  0  0  0  0  0  0  0  0
  -25.3300  -31.5190   26.1920 C   0  0  0  0  0  1  0  0  0  0  0  0
  -26.9870  -30.3750   24.7150 C   0  0  0  0  0  1  0  0  0  0  0  0
  -27.5620  -32.5520   25.7580 C   0  0  0  0  0  1  0  0  0  0  0  0
  -25.5590  -33.9180   24.1800 N   0  0  0  0  0  0  0  0  0  0  0  0
  -25.8800  -34.9790   23.4260 C   0  0  0  0  0  0  0  0  0  0  0  0
  -26.5380  -34.8840   22.3870 O   0  0  0  0  0  0  0  0  0  0  0  0
  -24.9660  -34.0610   24.9830 H   0  0  0  0  0  0  0  0  0  0  0  0
  -24.1400  -36.7680   23.1060 C   0  0  0  0  0  1  0  0  0  0  0  0
  -25.3900  -36.3590   23.9010 C   0  0  0  0  0  3  0  0  0  0  0  0
  -27.5320  -37.2460   24.7120 C   0  0  0  0  0  1  0  0  0  0  0  0
  -26.4170  -37.4180   23.7850 N   0  0  0  0  0  0  0  0  0  0  0  0
  -26.0080  -38.3340   23.9520 H   0  0  0  0  0  0  0  0  0  0  0  0
  1  3  1  0
  2  1  2  0
  2  4  1  0
  3  5  2  0
  4  6  2  0
  5 48  1  0
  6  5  1  0
  6  9  1  0
  7  4  1  0
  9  8  1  0
 10 18  1  0
 11 16  1  0
 12 13  1  0
 12 11  1  0
 14 13  1  0
 14 23  1  0
 14 15  1  0
 16 10  1  0
 16 15  1  0
 17 10  2  0
 18  9  1  0
 18 19  1  0
 20 21  2  0
 21 22  1  0
 21 40  1  0
 22 25  1  0
 23 20  1  0
 23 24  1  0
 24 22  2  0
 25 26  1  0
 26 27  2  0
 28 31  1  0
 28 27  1  0
 29 28  2  0
 30 29  1  0
 30 25  2  0
 31 32  1  0
 32 33  1  0
 33 34  2  0
 35 34  1  0
 35 39  1  0
 36 35  2  0
 37 32  2  0
 37 36  1  0
 38 37  1  0
 40 41  1  0
 41 44  1  0
 41 43  1  0
 42 40  2  0
 45 46  1  0
 45 20  1  0
 47 45  1  0
 49 51  2  0
 50 49  1  0
 50 48  1  0
 52 50  1  0
 53 54  1  0
 53 49  1  0
 55 66  2  0
 56 54  1  0
 56 61  1  0
 57 65  1  0
 57 67  1  0
 58 64  1  0
 58 60  1  0
 59 65  1  0
 60 59  1  0
 61 60  2  0
 62 63  1  0
 62 56  2  0
 63 58  2  0
 64 57  1  0
 65 55  1  0
 67 69  2  0
 68 67  1  0
 70 68  1  0
 71 80  2  0
 71 76  1  0
 72 68  1  0
 72 76  1  0
 73 72  1  0
 74 75  1  0
 74 73  1  0
 75 71  1  0
 76 77  2  0
 77 78  1  0
 79 78  2  0
 80 79  1  0
 81 55  1  0
 81 86  1  0
 81 82  1  0
 82 85  1  1
 82 83  1  0
 84 82  1  0
 86 89  1  0
 87 91  1  0
 87 86  1  0
 88 87  2  0
 91 90  1  0
 93 91  1  0
 93 94  1  0
 93 92  1  0
M  ISO  4  10 100  18 100  53 101  54 101
M  END
>  <TORSDO>  (72) 
F 20

>  <SCORE>  (72) 
-13.481

>  <name>  (72) 
71

>  <ligand_id>  (72) 
71

>  <original_smiles>  (72) 
[H]c1c([H])c(C([H])([H])[H])c(C([H])(N([H])C(=O)N2C([H])([H])C([H])([H])C([H])([H])C([H])(n3nc(-c4c([H])c([H])c(Oc5c([H])c([H])c(F)c([H])c5F)c([H])c4[H])c(C(=O)N([H])[H])c3N([H])[H])C2([H])[H])C([H])([H])[H])c(C([H])([H])N([H])C(=O)C([H])([H])Oc2c([H])c([H])c3c(c2[H])C([H])([H])N(C(=O)C([H])(N([H])C(=O)C([H])(N([H])C([H])([H])[H])C([H])([H])[H])C(C([H])([H])[H])(C([H])([H])[H])C([H])([H])[H])C([H])(C(=O)N([H])C2([H])c4c([H])c([H])c([H])c([H])c4C([H])([H])C([H])([H])C2([H])[H])C3([H])[H])c1[H]

>  <smiles>  (72) 
[H]c1c([H])c(C([H])([H])[H])c(C([H])(N([H])C(=O)N2C([H])([H])C([H])([H])C([H])([H])C([H])(n3nc(-c4c([H])c([H])c(Oc5c([H])c([H])c(F)c([H])c5F)c([H])c4[H])c(C(=O)N([H])[H])c3N([H])[H])C2([H])[H])C([H])([H])[H])c(C([H])([H])N([H])C(=O)C([H])([H])Oc2c([H])c([H])c3c(c2[H])C([H])([H])N(C(=O)C([H])(N([H])C(=O)C([H])(N([H])C([H])([H])[H])C([H])([H])[H])C(C([H])([H])[H])(C([H])([H])[H])C([H])([H])[H])C([H])(C(=O)N([H])C2([H])c4c([H])c([H])c([H])c([H])c4C([H])([H])C([H])([H])C2([H])[H])C3([H])[H])c1[H]

$$$$
72:0:0
     RDKit          3D

 99108  0  0  1  0  0  0  0  0999 V2000
  -28.5560  -20.4710   19.9120 C   0  0  0  0  0  0  0  0  0  0  0  0
  -30.3520  -18.6790   21.9270 C   0  0  0  0  0  2  0  0  0  0  0  0
  -31.1220  -17.7770   19.7780 C   0  0  0  0  0  2  0  0  0  0  0  0
  -28.4870  -18.0980   20.6070 C   0  0  0  0  0  2  0  0  0  0  0  0
  -29.5680  -17.4290   21.5130 C   0  0  0  0  0  3  0  0  0  0  0  0
  -30.5830  -19.0700   20.4760 C   0  0  0  0  0  3  0  0  0  0  0  0
  -30.6290  -16.6110   20.6980 C   0  0  1  0  0  0  0  0  0  0  0  0
  -29.1890  -19.2770   20.0720 N   0  0  0  0  0  0  0  0  0  0  0  0
  -27.3810  -20.5390   19.5310 O   0  0  0  0  0  0  0  0  0  0  0  0
  -30.6090  -14.4640   19.3060 C   0  0  0  0  0  0  0  0  0  0  0  0
  -30.0470  -12.3870   18.0790 C   0  0  0  0  0  2  0  0  0  0  0  0
  -28.8950  -12.6260   17.0760 C   0  0  0  0  0  2  0  0  0  0  0  0
  -27.5300  -12.5130   17.7710 C   0  0  0  0  0  2  0  0  0  0  0  0
  -27.4580  -13.3280   19.0880 C   0  0  0  0  0  3  0  0  0  0  0  0
  -28.6760  -12.9980   19.9790 C   0  0  0  0  0  2  0  0  0  0  0  0
  -29.8820  -13.3210   19.2030 N   0  0  0  0  0  0  0  0  0  0  0  0
  -31.6690  -14.6450   18.7030 O   0  0  0  0  0  0  0  0  0  0  0  0
  -30.0200  -15.4380   20.0340 N   0  0  0  0  0  0  0  0  0  0  0  0
  -29.1270  -15.1620   20.4080 H   0  0  0  0  0  0  0  0  0  0  0  0
  -25.2390  -14.0340   20.1790 C   0  0  0  0  0  0  0  0  0  0  0  0
  -24.2040  -13.2990   20.6900 C   0  0  0  0  0  0  0  0  0  0  0  0
  -24.5870  -11.9290   20.5530 C   0  0  0  0  0  0  0  0  0  0  0  0
  -26.1940  -13.1100   19.7750 N   0  0  0  0  0  0  0  0  0  0  0  0
  -25.8110  -11.8400   20.0540 N   0  0  0  0  0  0  0  0  0  0  0  0
  -23.8400  -10.6930   20.8160 C   0  0  0  0  0  0  0  0  0  0  0  0
  -24.3460   -9.6950   21.6790 C   0  0  0  0  0  3  0  0  0  0  0  0
  -23.6000   -8.5240   21.9330 C   0  0  0  0  0  3  0  0  0  0  0  0
  -22.3350   -8.3430   21.3270 C   0  0  0  0  0  0  0  0  0  0  0  0
  -21.8450   -9.3290   20.4510 C   0  0  0  0  0  3  0  0  0  0  0  0
  -22.5910  -10.4920   20.1930 C   0  0  0  0  0  3  0  0  0  0  0  0
  -21.5580   -7.2210   21.4930 O   0  0  0  0  0  0  0  0  0  0  0  0
  -21.5980   -6.4820   22.6490 C   0  0  0  0  0  0  0  0  0  0  0  0
  -21.3430   -7.0590   23.9140 C   0  0  0  0  0  3  0  0  0  0  0  0
  -21.3280   -6.2480   25.0660 C   0  0  0  0  0  3  0  0  0  0  0  0
  -21.5600   -4.8640   24.9590 C   0  0  0  0  0  0  0  0  0  0  0  0
  -21.8090   -4.2870   23.7010 C   0  0  0  0  0  3  0  0  0  0  0  0
  -21.8240   -5.0930   22.5510 C   0  0  0  0  0  0  0  0  0  0  0  0
  -22.0430   -4.5260   21.3380 F   0  0  0  0  0  0  0  0  0  0  0  0
  -21.5390   -4.0870   26.0680 F   0  0  0  0  0  0  0  0  0  0  0  0
  -22.8860  -13.8240   21.1800 C   0  0  0  0  0  0  0  0  0  0  0  0
  -22.2740  -13.1440   22.1420 N   0  0  0  0  0  0  0  0  0  0  0  0
  -22.4130  -14.8700   20.7350 O   0  0  0  0  0  0  0  0  0  0  0  0
  -22.6710  -12.2940   22.5200 H   0  0  0  0  0  0  0  0  0  0  0  0
  -21.3910  -13.4690   22.5040 H   0  0  0  0  0  0  0  0  0  0  0  0
  -25.4380  -15.4040   20.0080 N   0  0  0  0  0  0  0  0  0  0  0  0
  -24.7060  -16.0730   20.2120 H   0  0  0  0  0  0  0  0  0  0  0  0
  -26.2420  -15.8260   19.5630 H   0  0  0  0  0  0  0  0  0  0  0  0
  -31.7360  -16.0350   21.6270 C   0  0  0  0  0  0  0  0  0  0  0  0
  -32.9720  -15.9320   21.1620 N   0  0  0  0  0  0  0  0  0  0  0  0
  -31.4600  -15.6240   22.7500 O   0  0  0  0  0  0  0  0  0  0  0  0
  -33.1660  -16.2440   20.2210 H   0  0  0  0  0  0  0  0  0  0  0  0
  -33.7110  -15.5080   21.7030 H   0  0  0  0  0  0  0  0  0  0  0  0
  -29.2810  -21.7670   20.3450 C   0  0  0  0  0  2  0  0  0  0  0  0
  -28.7490  -24.2080   20.2990 C   0  0  0  0  0  0  0  0  0  0  0  0
  -28.8040  -23.0040   19.7000 N   0  0  0  0  0  0  0  0  0  0  0  0
  -28.8360  -24.3290   21.5230 O   0  0  0  0  0  0  0  0  0  0  0  0
  -28.6190  -22.9560   18.7040 H   0  0  0  0  0  0  0  0  0  0  0  0
  -28.6760  -25.4510   19.3760 C   0  0  0  0  0  2  0  0  0  0  0  0
  -28.4700  -26.6860   20.1000 O   0  0  0  0  0  0  0  0  0  0  0  0
  -24.5010  -31.7410   23.1590 C   0  0  0  0  0  0  0  0  0  0  0  0
  -27.2600  -27.3590   20.0670 C   0  0  0  0  0  0  0  0  0  0  0  0
  -23.3380  -30.3290   21.4950 C   0  0  0  0  0  3  0  0  0  0  0  0
  -24.8380  -28.8400   20.0650 C   0  0  0  0  0  0  0  0  0  0  0  0
  -25.8620  -30.7360   21.3270 C   0  0  0  0  0  2  0  0  0  0  0  0
  -25.9790  -29.3740   20.6680 C   0  0  0  0  0  0  0  0  0  0  0  0
  -27.1920  -28.6460   20.6610 C   0  0  0  0  0  3  0  0  0  0  0  0
  -26.0900  -26.8330   19.4730 C   0  0  0  0  0  3  0  0  0  0  0  0
  -24.8920  -27.5730   19.4560 C   0  0  0  0  0  3  0  0  0  0  0  0
  -23.5820  -29.6810   20.1050 C   0  0  0  0  0  2  0  0  0  0  0  0
  -24.5850  -30.9470   22.0540 N   0  0  0  0  0  0  0  0  0  0  0  0
  -23.4100  -31.9860   23.6950 O   0  0  0  0  0  0  0  0  0  0  0  0
  -22.7040  -29.2790   22.4370 C   0  0  0  0  0  0  0  0  0  0  0  0
  -21.3890  -29.0490   22.2830 N   0  0  0  0  0  0  0  0  0  0  0  0
  -23.3900  -28.6820   23.2690 O   0  0  0  0  0  0  0  0  0  0  0  0
  -20.8990  -29.5410   21.5480 H   0  0  0  0  0  0  0  0  0  0  0  0
  -18.0350  -27.8060   22.7400 C   0  0  0  0  0  0  0  0  0  0  0  0
  -20.5800  -28.1150   23.0680 C   0  0  0  0  0  3  0  0  0  0  0  0
  -20.7120  -26.6650   22.5470 C   0  0  0  0  0  2  0  0  0  0  0  0
  -19.6510  -26.2930   21.5050 C   0  0  0  0  0  2  0  0  0  0  0  0
  -18.2430  -26.4470   22.1000 C   0  0  0  0  0  2  0  0  0  0  0  0
  -19.1300  -28.5900   23.1920 C   0  0  0  0  0  0  0  0  0  0  0  0
  -18.8780  -29.8480   23.7770 C   0  0  0  0  0  3  0  0  0  0  0  0
  -17.5600  -30.3200   23.9210 C   0  0  0  0  0  3  0  0  0  0  0  0
  -16.4780  -29.5350   23.4840 C   0  0  0  0  0  3  0  0  0  0  0  0
  -16.7160  -28.2790   22.8980 C   0  0  0  0  0  3  0  0  0  0  0  0
  -25.7680  -32.3960   23.7950 C   0  0  0  0  0  3  0  0  0  0  0  0
  -26.2930  -31.6310   25.0730 C   0  0  1  0  0  0  0  0  0  0  0  0
  -25.1970  -31.3670   26.1310 C   0  0  0  0  0  1  0  0  0  0  0  0
  -26.9100  -30.2690   24.6780 C   0  0  0  0  0  1  0  0  0  0  0  0
  -27.4180  -32.4500   25.7460 C   0  0  0  0  0  1  0  0  0  0  0  0
  -25.4250  -33.7850   24.1240 N   0  0  0  0  0  0  0  0  0  0  0  0
  -25.7470  -34.8470   23.3730 C   0  0  0  0  0  0  0  0  0  0  0  0
  -26.4220  -34.7610   22.3440 O   0  0  0  0  0  0  0  0  0  0  0  0
  -24.8090  -33.9230   24.9120 H   0  0  0  0  0  0  0  0  0  0  0  0
  -23.9710  -36.6000   23.0260 C   0  0  0  0  0  1  0  0  0  0  0  0
  -25.2250  -36.2210   23.8330 C   0  0  0  0  0  3  0  0  0  0  0  0
  -27.3400  -37.1560   24.6590 C   0  0  0  0  0  1  0  0  0  0  0  0
  -26.2290  -37.3010   23.7210 N   0  0  0  0  0  0  0  0  0  0  0  0
  -25.8000  -38.2080   23.8760 H   0  0  0  0  0  0  0  0  0  0  0  0
  1  8  1  0
  1 53  1  0
  3  7  1  0
  5  4  1  0
  5  2  1  0
  6  3  1  0
  6  2  1  0
  7  5  1  0
  7 48  1  0
  8  6  1  0
  8  4  1  0
  9  1  2  0
 10 18  1  0
 11 16  1  0
 12 13  1  0
 12 11  1  0
 14 13  1  0
 14 23  1  0
 14 15  1  0
 16 10  1  0
 16 15  1  0
 17 10  2  0
 18 19  1  0
  7 18  1  6
 20 21  2  0
 21 40  1  0
 22 21  1  0
 22 25  1  0
 23 24  1  0
 23 20  1  0
 24 22  2  0
 25 26  1  0
 26 27  2  0
 28 31  1  0
 28 27  1  0
 29 28  2  0
 30 29  1  0
 30 25  2  0
 31 32  1  0
 32 33  1  0
 33 34  2  0
 35 34  1  0
 35 39  1  0
 36 35  2  0
 37 32  2  0
 37 36  1  0
 38 37  1  0
 40 41  1  0
 41 44  1  0
 41 43  1  0
 42 40  2  0
 45 20  1  0
 45 46  1  0
 47 45  1  0
 48 50  2  0
 49 48  1  0
 49 52  1  0
 51 49  1  0
 54 56  2  0
 55 54  1  0
 55 53  1  0
 57 55  1  0
 58 59  1  0
 58 54  1  0
 60 71  2  0
 61 59  1  0
 61 66  1  0
 62 70  1  0
 62 72  1  0
 63 69  1  0
 63 65  1  0
 64 70  1  0
 65 64  1  0
 66 65  2  0
 67 61  2  0
 68 67  1  0
 68 63  2  0
 69 62  1  0
 70 60  1  0
 72 74  2  0
 73 72  1  0
 75 73  1  0
 76 85  2  0
 76 81  1  0
 77 73  1  0
 77 81  1  0
 78 77  1  0
 79 80  1  0
 79 78  1  0
 80 76  1  0
 81 82  2  0
 82 83  1  0
 84 83  2  0
 85 84  1  0
 86 60  1  0
 86 91  1  0
 86 87  1  0
 87 90  1  1
 87 88  1  0
 89 87  1  0
 91 94  1  0
 92 96  1  0
 92 91  1  0
 93 92  2  0
 96 95  1  0
 98 96  1  0
 98 99  1  0
 98 97  1  0
M  ISO  4  10 100  18 100  58 101  59 101
M  END
>  <TORSDO>  (73) 
F 20

>  <SCORE>  (73) 
-9.641

>  <name>  (73) 
72

>  <ligand_id>  (73) 
72

>  <original_smiles>  (73) 
[H]c1c([H])c([H])c2c(c1[H])C([H])([H])C([H])([H])C([H])([H])C2([H])N([H])C(=O)C1([H])N(C(=O)C([H])(N([H])C(=O)C([H])(N([H])C([H])([H])[H])C([H])([H])[H])C(C([H])([H])[H])(C([H])([H])[H])C([H])([H])[H])C([H])([H])c2c([H])c(OC([H])([H])C(=O)N([H])C([H])([H])C(=O)N3C([H])([H])C4([H])C([H])([H])C3([H])C([H])([H])C4(C(=O)N([H])[H])N([H])C(=O)N3C([H])([H])C([H])([H])C([H])([H])C([H])(n4nc(-c5c([H])c([H])c(Oc6c([H])c([H])c(F)c([H])c6F)c([H])c5[H])c(C(=O)N([H])[H])c4N([H])[H])C3([H])[H])c([H])c([H])c2C1([H])[H]

>  <smiles>  (73) 
[H]c1c([H])c([H])c2c(c1[H])C([H])([H])C([H])([H])C([H])([H])C2([H])N([H])C(=O)C1([H])N(C(=O)C([H])(N([H])C(=O)C([H])(N([H])C([H])([H])[H])C([H])([H])[H])C(C([H])([H])[H])(C([H])([H])[H])C([H])([H])[H])C([H])([H])c2c([H])c(OC([H])([H])C(=O)N([H])C([H])([H])C(=O)N3C([H])([H])C4([H])C([H])([H])C3([H])C([H])([H])C4(C(=O)N([H])[H])N([H])C(=O)N3C([H])([H])C([H])([H])C([H])([H])C([H])(n4nc(-c5c([H])c([H])c(Oc6c([H])c([H])c(F)c([H])c6F)c([H])c5[H])c(C(=O)N([H])[H])c4N([H])[H])C3([H])[H])c([H])c([H])c2C1([H])[H]

$$$$
73:0:0
     RDKit          3D

 94102  0  0  1  0  0  0  0  0999 V2000
  -28.9240  -23.4170   20.3440 C   0  0  0  0  0  3  0  0  0  0  0  0
  -28.3310  -21.9490   19.9360 C   0  0  0  0  0  0  0  0  0  0  0  0
  -27.2350  -22.0370   19.3740 O   0  0  0  0  0  0  0  0  0  0  0  0
  -30.0390  -19.9270   20.8320 C   0  0  0  0  0  3  0  0  0  0  0  0
  -28.1560  -19.3750   19.5220 C   0  0  0  0  0  3  0  0  0  0  0  0
  -30.3560  -18.5030   20.9480 C   0  0  0  0  0  3  0  0  0  0  0  0
  -28.4590  -17.9730   19.6420 C   0  0  0  0  0  3  0  0  0  0  0  0
  -28.9020  -20.4480   20.1170 C   0  0  0  0  0  0  0  0  0  0  0  0
  -29.5690  -17.4480   20.3620 C   0  0  0  0  0  0  0  0  0  0  0  0
  -30.5030  -14.8820   20.3470 C   0  0  0  0  0  0  0  0  0  0  0  0
  -30.3980  -12.5560   19.3730 C   0  0  0  0  0  2  0  0  0  0  0  0
  -29.4520  -12.5720   18.1480 C   0  0  0  0  0  2  0  0  0  0  0  0
  -27.9840  -12.3770   18.5790 C   0  0  0  0  0  2  0  0  0  0  0  0
  -27.5960  -13.2750   19.7830 C   0  0  0  0  0  3  0  0  0  0  0  0
  -28.6570  -13.2140   20.9040 C   0  0  0  0  0  2  0  0  0  0  0  0
  -29.9430  -13.6130   20.3110 N   0  0  0  0  0  0  0  0  0  0  0  0
  -31.6840  -15.0250   20.0100 O   0  0  0  0  0  0  0  0  0  0  0  0
  -29.6400  -15.9560   20.6150 N   0  0  0  0  0  0  0  0  0  0  0  0
  -28.7350  -15.5760   20.8420 H   0  0  0  0  0  0  0  0  0  0  0  0
  -25.2100  -13.8600   20.5170 C   0  0  0  0  0  0  0  0  0  0  0  0
  -24.1470  -13.0850   20.8920 C   0  0  0  0  0  0  0  0  0  0  0  0
  -24.6130  -11.7350   20.8640 C   0  0  0  0  0  0  0  0  0  0  0  0
  -26.2550  -12.9830   20.2780 N   0  0  0  0  0  0  0  0  0  0  0  0
  -25.9030  -11.6990   20.5500 N   0  0  0  0  0  0  0  0  0  0  0  0
  -23.8880  -10.4720   21.0580 C   0  0  0  0  0  0  0  0  0  0  0  0
  -24.3320   -9.5000   21.9800 C   0  0  0  0  0  3  0  0  0  0  0  0
  -23.6070   -8.3020   22.1620 C   0  0  0  0  0  3  0  0  0  0  0  0
  -22.4230   -8.0690   21.4220 C   0  0  0  0  0  0  0  0  0  0  0  0
  -21.9980   -9.0320   20.4890 C   0  0  0  0  0  3  0  0  0  0  0  0
  -22.7250  -10.2190   20.3040 C   0  0  0  0  0  3  0  0  0  0  0  0
  -21.6680   -6.9260   21.5150 O   0  0  0  0  0  0  0  0  0  0  0  0
  -21.6460   -6.1680   22.6590 C   0  0  0  0  0  0  0  0  0  0  0  0
  -21.2590   -6.7090   23.9040 C   0  0  0  0  0  3  0  0  0  0  0  0
  -21.1850   -5.8780   25.0390 C   0  0  0  0  0  3  0  0  0  0  0  0
  -21.4880   -4.5080   24.9310 C   0  0  0  0  0  0  0  0  0  0  0  0
  -21.8680   -3.9660   23.6910 C   0  0  0  0  0  3  0  0  0  0  0  0
  -21.9440   -4.7940   22.5580 C   0  0  0  0  0  0  0  0  0  0  0  0
  -22.2910   -4.2630   21.3610 F   0  0  0  0  0  0  0  0  0  0  0  0
  -21.4090   -3.7070   26.0200 F   0  0  0  0  0  0  0  0  0  0  0  0
  -22.7490  -13.5610   21.1640 C   0  0  0  0  0  0  0  0  0  0  0  0
  -22.0250  -12.8710   22.0370 N   0  0  0  0  0  0  0  0  0  0  0  0
  -22.3080  -14.5820   20.6360 O   0  0  0  0  0  0  0  0  0  0  0  0
  -22.3950  -12.0470   22.4870 H   0  0  0  0  0  0  0  0  0  0  0  0
  -21.0870  -13.1720   22.2600 H   0  0  0  0  0  0  0  0  0  0  0  0
  -25.3670  -15.2300   20.3350 N   0  0  0  0  0  0  0  0  0  0  0  0
  -24.5910  -15.8750   20.4410 H   0  0  0  0  0  0  0  0  0  0  0  0
  -26.1990  -15.6730   19.9670 H   0  0  0  0  0  0  0  0  0  0  0  0
  -30.3890  -23.5950   19.8720 C   0  0  0  0  0  2  0  0  0  0  0  0
  -30.5650  -23.8010   18.4160 N   0  0  0  0  0  4  0  0  0  0  0  0
  -30.2340  -23.0240   17.8730 H   0  0  0  0  0  0  0  0  0  0  0  0
  -31.5450  -23.9090   18.2180 H   0  0  0  0  0  0  0  0  0  0  0  0
  -30.1080  -24.6390   18.1040 H   0  0  0  0  0  0  0  0  0  0  0  0
  -27.9910  -24.7630   19.9910 C   0  0  0  0  0  2  0  0  0  0  0  0
  -28.2630  -26.2550   20.2620 O   0  0  0  0  0  0  0  0  0  0  0  0
  -24.6480  -31.8910   23.2480 C   0  0  0  0  0  0  0  0  0  0  0  0
  -27.1990  -27.2150   20.1890 C   0  0  0  0  0  0  0  0  0  0  0  0
  -23.4330  -30.5050   21.6110 C   0  0  0  0  0  3  0  0  0  0  0  0
  -24.8680  -28.9370   20.1750 C   0  0  0  0  0  0  0  0  0  0  0  0
  -25.9840  -30.7720   21.4320 C   0  0  0  0  0  2  0  0  0  0  0  0
  -26.0500  -29.3860   20.7770 C   0  0  0  0  0  0  0  0  0  0  0  0
  -27.2160  -28.5400   20.7700 C   0  0  0  0  0  3  0  0  0  0  0  0
  -25.9920  -26.8590   19.5450 C   0  0  0  0  0  3  0  0  0  0  0  0
  -24.8490  -27.6850   19.5450 C   0  0  0  0  0  3  0  0  0  0  0  0
  -23.6420  -29.8320   20.2290 C   0  0  0  0  0  2  0  0  0  0  0  0
  -24.7080  -31.0760   22.1520 N   0  0  0  0  0  0  0  0  0  0  0  0
  -23.5660  -32.1790   23.7830 O   0  0  0  0  0  0  0  0  0  0  0  0
  -22.7580  -29.4960   22.5730 C   0  0  0  0  0  0  0  0  0  0  0  0
  -21.4290  -29.3280   22.4480 N   0  0  0  0  0  0  0  0  0  0  0  0
  -23.4300  -28.8680   23.3950 O   0  0  0  0  0  0  0  0  0  0  0  0
  -20.9440  -29.8850   21.7580 H   0  0  0  0  0  0  0  0  0  0  0  0
  -18.0470  -28.1290   22.9420 C   0  0  0  0  0  0  0  0  0  0  0  0
  -20.6050  -28.3940   23.2200 C   0  0  0  0  0  3  0  0  0  0  0  0
  -20.7100  -26.9590   22.6540 C   0  0  0  0  0  2  0  0  0  0  0  0
  -19.6130  -26.6300   21.6370 C   0  0  0  0  0  2  0  0  0  0  0  0
  -18.2280  -26.7770   22.2740 C   0  0  0  0  0  2  0  0  0  0  0  0
  -19.1630  -28.8960   23.3720 C   0  0  0  0  0  0  0  0  0  0  0  0
  -18.9400  -30.1610   23.9580 C   0  0  0  0  0  3  0  0  0  0  0  0
  -17.6340  -30.6600   24.1180 C   0  0  0  0  0  3  0  0  0  0  0  0
  -16.5320  -29.8910   23.7040 C   0  0  0  0  0  3  0  0  0  0  0  0
  -16.7390  -28.6280   23.1220 C   0  0  0  0  0  3  0  0  0  0  0  0
  -25.9340  -32.5180   23.8690 C   0  0  0  0  0  3  0  0  0  0  0  0
  -25.6300  -33.9160   24.2080 N   0  0  0  0  0  0  0  0  0  0  0  0
  -25.9460  -34.9730   23.4470 C   0  0  0  0  0  0  0  0  0  0  0  0
  -26.5920  -34.8730   22.4010 O   0  0  0  0  0  0  0  0  0  0  0  0
  -25.0530  -34.0670   25.0230 H   0  0  0  0  0  0  0  0  0  0  0  0
  -24.2020  -36.7640   23.1550 C   0  0  0  0  0  1  0  0  0  0  0  0
  -25.4720  -36.3620   23.9220 C   0  0  0  0  0  3  0  0  0  0  0  0
  -27.6330  -37.2520   24.6760 C   0  0  0  0  0  1  0  0  0  0  0  0
  -26.4980  -37.4180   23.7730 N   0  0  0  0  0  0  0  0  0  0  0  0
  -26.0940  -38.3360   23.9340 H   0  0  0  0  0  0  0  0  0  0  0  0
  -26.4480  -31.7410   25.1440 C   0  0  1  0  0  0  0  0  0  0  0  0
  -25.3560  -31.5100   26.2150 C   0  0  0  0  0  1  0  0  0  0  0  0
  -27.0210  -30.3590   24.7520 C   0  0  0  0  0  1  0  0  0  0  0  0
  -27.6060  -32.5270   25.8030 C   0  0  0  0  0  1  0  0  0  0  0  0
  1 48  1  0
  2  8  1  0
  2  1  1  0
  3  2  2  0
  4  6  1  0
  5  7  2  0
  5  8  1  0
  7  9  1  0
  8  4  2  0
  9 18  1  0
  9  6  2  0
 10 18  1  0
 11 16  1  0
 12 13  1  0
 12 11  1  0
 14 13  1  0
 14 23  1  0
 14 15  1  0
 16 10  1  0
 16 15  1  0
 17 10  2  0
 18 19  1  0
 20 21  2  0
 21 40  1  0
 22 21  1  0
 22 25  1  0
 23 20  1  0
 23 24  1  0
 24 22  2  0
 25 26  1  0
 26 27  2  0
 28 31  1  0
 28 27  1  0
 29 28  2  0
 30 29  1  0
 30 25  2  0
 31 32  1  0
 32 33  1  0
 33 34  2  0
 35 34  1  0
 35 39  1  0
 36 35  2  0
 37 32  2  0
 37 36  1  0
 38 37  1  0
 40 41  1  0
 41 44  1  0
 41 43  1  0
 42 40  2  0
 45 46  1  0
 45 20  1  0
 47 45  1  0
 49 48  1  0
 50 49  1  0
 51 49  1  0
 52 49  1  0
 53 54  1  0
 53  1  1  0
 55 66  2  0
 56 54  1  0
 56 61  1  0
 57 65  1  0
 57 67  1  0
 58 64  1  0
 58 60  1  0
 59 65  1  0
 60 59  1  0
 61 60  2  0
 62 56  2  0
 63 62  1  0
 63 58  2  0
 64 57  1  0
 65 55  1  0
 67 69  2  0
 68 67  1  0
 70 68  1  0
 71 80  2  0
 71 76  1  0
 72 68  1  0
 72 76  1  0
 73 72  1  0
 74 75  1  0
 74 73  1  0
 75 71  1  0
 76 77  2  0
 77 78  1  0
 79 78  2  0
 80 79  1  0
 81 55  1  0
 81 82  1  0
 81 91  1  0
 82 85  1  0
 83 87  1  0
 83 82  1  0
 84 83  2  0
 87 86  1  0
 89 87  1  0
 89 90  1  0
 89 88  1  0
 91 94  1  1
 91 92  1  0
 93 91  1  0
M  ISO  4  10 100  18 100  53 101  54 101
M  END
>  <TORSDO>  (74) 
F 21

>  <SCORE>  (74) 
-13.858

>  <name>  (74) 
73

>  <ligand_id>  (74) 
73

>  <original_smiles>  (74) 
[H]c1c([H])c([H])c2c(c1[H])C([H])([H])C([H])([H])C([H])([H])C2([H])N([H])C(=O)C1([H])N(C(=O)C([H])(N([H])C(=O)C([H])(N([H])C([H])([H])[H])C([H])([H])[H])C(C([H])([H])[H])(C([H])([H])[H])C([H])([H])[H])C([H])([H])c2c([H])c(OC([H])([H])C([H])(C(=O)c3c([H])c([H])c(N([H])C(=O)N4C([H])([H])C([H])([H])C([H])([H])C([H])(n5nc(-c6c([H])c([H])c(Oc7c([H])c([H])c(F)c([H])c7F)c([H])c6[H])c(C(=O)N([H])[H])c5N([H])[H])C4([H])[H])c([H])c3[H])C([H])([H])[N+]([H])([H])[H])c([H])c([H])c2C1([H])[H]

>  <smiles>  (74) 
[H]c1c([H])c([H])c2c(c1[H])C([H])([H])C([H])([H])C([H])([H])C2([H])N([H])C(=O)C1([H])N(C(=O)C([H])(N([H])C(=O)C([H])(N([H])C([H])([H])[H])C([H])([H])[H])C(C([H])([H])[H])(C([H])([H])[H])C([H])([H])[H])C([H])([H])c2c([H])c(OC([H])([H])C([H])(C(=O)c3c([H])c([H])c(N([H])C(=O)N4C([H])([H])C([H])([H])C([H])([H])C([H])(n5nc(-c6c([H])c([H])c(Oc7c([H])c([H])c(F)c([H])c7F)c([H])c6[H])c(C(=O)N([H])[H])c5N([H])[H])C4([H])[H])c([H])c3[H])C([H])([H])[N+]([H])([H])[H])c([H])c([H])c2C1([H])[H]

$$$$
74:0:0
     RDKit          3D

 93102  0  0  1  0  0  0  0  0999 V2000
  -28.6780  -20.4360   19.0490 C   0  0  0  0  0  3  0  0  0  0  0  0
  -29.5690  -20.5940   21.1600 C   0  0  0  0  0  3  0  0  0  0  0  0
  -28.2980  -21.8670   19.1000 C   0  0  0  0  0  3  0  0  0  0  0  0
  -29.1630  -22.0280   21.2210 C   0  0  0  0  0  3  0  0  0  0  0  0
  -29.3780  -19.6500   20.0600 C   0  0  0  0  0  0  0  0  0  0  0  0
  -28.5140  -22.8170   20.1800 C   0  0  0  0  0  0  0  0  0  0  0  0
  -30.4500  -18.0170   18.2710 C   0  0  0  0  0  2  0  0  0  0  0  0
  -31.9300  -17.6660   18.0690 C   0  0  0  0  0  2  0  0  0  0  0  0
  -31.6100  -18.3490   20.3120 C   0  0  0  0  0  2  0  0  0  0  0  0
  -30.1660  -18.1100   19.8030 C   0  0  1  0  0  0  0  0  0  0  0  0
  -33.9440  -17.8890   19.5290 C   0  0  0  0  0  1  0  0  0  0  0  0
  -32.5040  -17.5930   19.4220 N   0  0  2  0  0  4  0  0  0  0  0  0
  -32.3670  -16.6150   19.6930 H   0  0  0  0  0  0  0  0  0  0  0  0
  -30.4690  -15.2310   20.1330 C   0  0  0  0  0  0  0  0  0  0  0  0
  -30.3450  -12.8250   19.2390 C   0  0  0  0  0  2  0  0  0  0  0  0
  -29.3940  -12.7030   18.0250 C   0  0  0  0  0  2  0  0  0  0  0  0
  -27.9510  -12.4580   18.5030 C   0  0  0  0  0  2  0  0  0  0  0  0
  -27.5570  -13.3880   19.6800 C   0  0  0  0  0  3  0  0  0  0  0  0
  -28.6440  -13.4860   20.7700 C   0  0  0  0  0  2  0  0  0  0  0  0
  -29.8570  -13.9590   20.0990 N   0  0  0  0  0  0  0  0  0  0  0  0
  -31.6790  -15.1760   19.8870 O   0  0  0  0  0  0  0  0  0  0  0  0
  -29.7800  -16.5380   20.1980 N   0  0  0  0  0  0  0  0  0  0  0  0
  -28.7980  -16.4330   20.4100 H   0  0  0  0  0  0  0  0  0  0  0  0
  -25.2160  -13.9300   20.5410 C   0  0  0  0  0  0  0  0  0  0  0  0
  -24.1710  -13.1420   20.9350 C   0  0  0  0  0  0  0  0  0  0  0  0
  -24.6380  -11.7930   20.8570 C   0  0  0  0  0  0  0  0  0  0  0  0
  -26.2490  -13.0610   20.2340 N   0  0  0  0  0  0  0  0  0  0  0  0
  -25.9170  -11.7700   20.4950 N   0  0  0  0  0  0  0  0  0  0  0  0
  -23.9200  -10.5260   21.0430 C   0  0  0  0  0  0  0  0  0  0  0  0
  -24.3710   -9.5470   21.9560 C   0  0  0  0  0  3  0  0  0  0  0  0
  -23.6470   -8.3470   22.1330 C   0  0  0  0  0  3  0  0  0  0  0  0
  -22.4620   -8.1170   21.3950 C   0  0  0  0  0  0  0  0  0  0  0  0
  -22.0320   -9.0850   20.4710 C   0  0  0  0  0  3  0  0  0  0  0  0
  -22.7540  -10.2760   20.2920 C   0  0  0  0  0  3  0  0  0  0  0  0
  -21.7090   -6.9720   21.4830 O   0  0  0  0  0  0  0  0  0  0  0  0
  -21.6570   -6.2310   22.6370 C   0  0  0  0  0  0  0  0  0  0  0  0
  -21.1980   -6.7790   23.8540 C   0  0  0  0  0  3  0  0  0  0  0  0
  -21.0950   -5.9640   24.9990 C   0  0  0  0  0  3  0  0  0  0  0  0
  -21.4420   -4.6020   24.9290 C   0  0  0  0  0  0  0  0  0  0  0  0
  -21.8930   -4.0530   23.7160 C   0  0  0  0  0  3  0  0  0  0  0  0
  -21.9970   -4.8650   22.5720 C   0  0  0  0  0  0  0  0  0  0  0  0
  -22.4130   -4.3260   21.4010 F   0  0  0  0  0  0  0  0  0  0  0  0
  -21.3360   -3.8170   26.0260 F   0  0  0  0  0  0  0  0  0  0  0  0
  -22.7830  -13.6120   21.2600 C   0  0  0  0  0  0  0  0  0  0  0  0
  -22.0840  -12.9030   22.1390 N   0  0  0  0  0  0  0  0  0  0  0  0
  -22.3290  -14.6440   20.7680 O   0  0  0  0  0  0  0  0  0  0  0  0
  -22.4640  -12.0680   22.5600 H   0  0  0  0  0  0  0  0  0  0  0  0
  -21.1560  -13.2010   22.3980 H   0  0  0  0  0  0  0  0  0  0  0  0
  -25.3660  -15.3050   20.3850 N   0  0  0  0  0  0  0  0  0  0  0  0
  -24.6030  -15.9540   20.5490 H   0  0  0  0  0  0  0  0  0  0  0  0
  -26.1880  -15.7520   20.0000 H   0  0  0  0  0  0  0  0  0  0  0  0
  -27.7390  -24.3650   20.2830 C   0  0  0  0  0  2  0  0  0  0  0  0
  -28.1630  -25.9370   20.2620 O   0  0  0  0  0  0  0  0  0  0  0  0
  -24.6370  -31.9050   23.2420 C   0  0  0  0  0  0  0  0  0  0  0  0
  -27.1680  -27.0400   20.2230 C   0  0  0  0  0  0  0  0  0  0  0  0
  -23.4320  -30.5050   21.6160 C   0  0  0  0  0  3  0  0  0  0  0  0
  -24.8720  -28.9050   20.1920 C   0  0  0  0  0  0  0  0  0  0  0  0
  -25.9980  -30.7200   21.4550 C   0  0  0  0  0  2  0  0  0  0  0  0
  -26.0640  -29.3110   20.8080 C   0  0  0  0  0  0  0  0  0  0  0  0
  -27.2080  -28.3970   20.8060 C   0  0  0  0  0  3  0  0  0  0  0  0
  -25.9510  -26.7930   19.5490 C   0  0  0  0  0  3  0  0  0  0  0  0
  -24.8390  -27.6660   19.5430 C   0  0  0  0  0  3  0  0  0  0  0  0
  -23.6530  -29.8200   20.2410 C   0  0  0  0  0  2  0  0  0  0  0  0
  -24.7110  -31.0690   22.1590 N   0  0  0  0  0  0  0  0  0  0  0  0
  -23.5490  -32.1980   23.7660 O   0  0  0  0  0  0  0  0  0  0  0  0
  -22.7440  -29.5110   22.5870 C   0  0  0  0  0  0  0  0  0  0  0  0
  -21.4150  -29.3400   22.4630 N   0  0  0  0  0  0  0  0  0  0  0  0
  -23.4120  -28.8960   23.4230 O   0  0  0  0  0  0  0  0  0  0  0  0
  -20.9300  -29.8880   21.7660 H   0  0  0  0  0  0  0  0  0  0  0  0
  -18.0370  -28.1170   22.9680 C   0  0  0  0  0  0  0  0  0  0  0  0
  -20.5930  -28.4070   23.2400 C   0  0  0  0  0  3  0  0  0  0  0  0
  -20.7070  -26.9680   22.6840 C   0  0  0  0  0  2  0  0  0  0  0  0
  -19.6140  -26.6250   21.6690 C   0  0  0  0  0  2  0  0  0  0  0  0
  -18.2270  -26.7630   22.3060 C   0  0  0  0  0  2  0  0  0  0  0  0
  -19.1460  -28.8950   23.3930 C   0  0  0  0  0  0  0  0  0  0  0  0
  -18.9110  -30.1580   23.9790 C   0  0  0  0  0  3  0  0  0  0  0  0
  -17.6010  -30.6450   24.1390 C   0  0  0  0  0  3  0  0  0  0  0  0
  -16.5060  -29.8650   23.7290 C   0  0  0  0  0  3  0  0  0  0  0  0
  -16.7240  -28.6020   23.1490 C   0  0  0  0  0  3  0  0  0  0  0  0
  -25.9110  -32.5500   23.8660 C   0  0  0  0  0  3  0  0  0  0  0  0
  -25.5980  -33.9520   24.1910 N   0  0  0  0  0  0  0  0  0  0  0  0
  -25.9150  -35.0070   23.4280 C   0  0  0  0  0  0  0  0  0  0  0  0
  -26.5670  -34.9010   22.3850 O   0  0  0  0  0  0  0  0  0  0  0  0
  -25.0150  -34.1060   25.0000 H   0  0  0  0  0  0  0  0  0  0  0  0
  -24.1780  -36.8030   23.1130 C   0  0  0  0  0  1  0  0  0  0  0  0
  -25.4400  -36.3990   23.8920 C   0  0  0  0  0  3  0  0  0  0  0  0
  -27.5920  -37.2970   24.6660 C   0  0  0  0  0  1  0  0  0  0  0  0
  -26.4680  -37.4530   23.7450 N   0  0  0  0  0  0  0  0  0  0  0  0
  -26.0630  -38.3740   23.8920 H   0  0  0  0  0  0  0  0  0  0  0  0
  -26.4170  -31.7920   25.1560 C   0  0  1  0  0  0  0  0  0  0  0  0
  -25.3160  -31.5710   26.2210 C   0  0  0  0  0  1  0  0  0  0  0  0
  -26.9970  -30.4060   24.7890 C   0  0  0  0  0  1  0  0  0  0  0  0
  -27.5690  -32.5870   25.8120 C   0  0  0  0  0  1  0  0  0  0  0  0
  1  3  2  0
  1  5  1  0
  2  4  1  0
  3  6  1  0
  5  2  2  0
  6 52  1  0
  6  4  2  0
  7 10  1  0
  8  7  1  0
  8 12  1  0
 10  5  1  0
 10 22  1  1
 10  9  1  0
 12 11  1  0
 12 13  1  1
 12  9  1  0
 14 22  1  0
 15 20  1  0
 16 17  1  0
 16 15  1  0
 18 17  1  0
 18 27  1  0
 18 19  1  0
 20 14  1  0
 20 19  1  0
 21 14  2  0
 22 23  1  0
 24 25  2  0
 25 44  1  0
 26 25  1  0
 26 29  1  0
 27 28  1  0
 27 24  1  0
 28 26  2  0
 29 30  1  0
 30 31  2  0
 32 35  1  0
 32 31  1  0
 33 32  2  0
 34 33  1  0
 34 29  2  0
 35 36  1  0
 36 37  1  0
 37 38  2  0
 39 38  1  0
 39 43  1  0
 40 39  2  0
 41 36  2  0
 41 40  1  0
 42 41  1  0
 44 45  1  0
 45 48  1  0
 45 47  1  0
 46 44  2  0
 49 24  1  0
 49 50  1  0
 51 49  1  0
 53 52  1  0
 54 65  2  0
 55 53  1  0
 55 60  1  0
 56 64  1  0
 56 66  1  0
 57 63  1  0
 57 59  1  0
 58 64  1  0
 59 58  1  0
 60 59  2  0
 61 55  2  0
 62 61  1  0
 62 57  2  0
 63 56  1  0
 64 54  1  0
 66 68  2  0
 67 66  1  0
 69 67  1  0
 70 79  2  0
 70 75  1  0
 71 67  1  0
 71 75  1  0
 72 71  1  0
 73 74  1  0
 73 72  1  0
 74 70  1  0
 75 76  2  0
 76 77  1  0
 78 77  2  0
 79 78  1  0
 80 54  1  0
 80 81  1  0
 80 90  1  0
 81 84  1  0
 82 86  1  0
 82 81  1  0
 83 82  2  0
 86 85  1  0
 88 89  1  0
 88 86  1  0
 88 87  1  0
 90 93  1  1
 90 91  1  0
 92 90  1  0
M  ISO  4  14 100  22 100  52 101  53 101
M  END
>  <TORSDO>  (75) 
F 18

>  <SCORE>  (75) 
-15.984

>  <name>  (75) 
74

>  <ligand_id>  (75) 
74

>  <original_smiles>  (75) 
[H]c1c([H])c([H])c2c(c1[H])C([H])([H])C([H])([H])C([H])([H])C2([H])N([H])C(=O)C1([H])N(C(=O)C([H])(N([H])C(=O)C([H])(N([H])C([H])([H])[H])C([H])([H])[H])C(C([H])([H])[H])(C([H])([H])[H])C([H])([H])[H])C([H])([H])c2c([H])c(OC([H])([H])c3c([H])c([H])c(C4(N([H])C(=O)N5C([H])([H])C([H])([H])C([H])([H])C([H])(n6nc(-c7c([H])c([H])c(Oc8c([H])c([H])c(F)c([H])c8F)c([H])c7[H])c(C(=O)N([H])[H])c6N([H])[H])C5([H])[H])C([H])([H])C([H])([H])[N+]([H])(C([H])([H])[H])C4([H])[H])c([H])c3[H])c([H])c([H])c2C1([H])[H]

>  <smiles>  (75) 
[H]c1c([H])c([H])c2c(c1[H])C([H])([H])C([H])([H])C([H])([H])C2([H])N([H])C(=O)C1([H])N(C(=O)C([H])(N([H])C(=O)C([H])(N([H])C([H])([H])[H])C([H])([H])[H])C(C([H])([H])[H])(C([H])([H])[H])C([H])([H])[H])C([H])([H])c2c([H])c(OC([H])([H])c3c([H])c([H])c(C4(N([H])C(=O)N5C([H])([H])C([H])([H])C([H])([H])C([H])(n6nc(-c7c([H])c([H])c(Oc8c([H])c([H])c(F)c([H])c8F)c([H])c7[H])c(C(=O)N([H])[H])c6N([H])[H])C5([H])[H])C([H])([H])C([H])([H])[N+]([H])(C([H])([H])[H])C4([H])[H])c([H])c3[H])c([H])c([H])c2C1([H])[H]

$$$$
75:0:0
     RDKit          3D

 99108  0  0  1  0  0  0  0  0999 V2000
  -28.2990  -17.7590   20.1560 C   0  0  0  0  0  3  0  0  0  0  0  0
  -29.9820  -19.3320   20.9200 C   0  0  0  0  0  3  0  0  0  0  0  0
  -27.8660  -20.1630   20.0510 C   0  0  0  0  0  3  0  0  0  0  0  0
  -29.6160  -17.9950   20.6090 C   0  0  0  0  0  0  0  0  0  0  0  0
  -27.4400  -18.8330   19.8560 C   0  0  0  0  0  0  0  0  0  0  0  0
  -29.1550  -20.4270   20.5760 C   0  0  0  0  0  0  0  0  0  0  0  0
  -26.0930  -18.5490   19.2210 C   0  0  0  0  0  1  0  0  0  0  0  0
  -30.8360  -14.4700   20.0310 C   0  0  0  0  0  0  0  0  0  0  0  0
  -30.3220  -12.3590   18.9200 C   0  0  0  0  0  2  0  0  0  0  0  0
  -29.3060  -12.5430   17.7760 C   0  0  0  0  0  2  0  0  0  0  0  0
  -27.8690  -12.4490   18.3190 C   0  0  0  0  0  2  0  0  0  0  0  0
  -27.6220  -13.3030   19.5920 C   0  0  0  0  0  3  0  0  0  0  0  0
  -28.7590  -13.1340   20.6230 C   0  0  0  0  0  2  0  0  0  0  0  0
  -30.0260  -13.3820   19.9270 N   0  0  0  0  0  0  0  0  0  0  0  0
  -32.0460  -14.4040   19.8290 O   0  0  0  0  0  0  0  0  0  0  0  0
  -31.5250  -17.2250   18.3550 C   0  0  0  0  0  2  0  0  0  0  0  0
  -30.4290  -16.1410   18.3930 C   0  0  0  0  0  2  0  0  0  0  0  0
  -30.6960  -16.8830   20.5830 C   0  0  0  0  0  3  0  0  0  0  0  0
  -31.9390  -17.4390   19.8120 C   0  0  0  0  0  3  0  0  0  0  0  0
  -30.2720  -15.6830   19.7990 N   0  0  0  0  0  0  0  0  0  0  0  0
  -25.2790  -13.8970   20.4780 C   0  0  0  0  0  0  0  0  0  0  0  0
  -24.2310  -13.1190   20.8900 C   0  0  0  0  0  0  0  0  0  0  0  0
  -24.6870  -11.7690   20.8100 C   0  0  0  0  0  0  0  0  0  0  0  0
  -26.3070  -13.0210   20.1660 N   0  0  0  0  0  0  0  0  0  0  0  0
  -25.9590  -11.7350   20.4330 N   0  0  0  0  0  0  0  0  0  0  0  0
  -23.9640  -10.5100   21.0190 C   0  0  0  0  0  0  0  0  0  0  0  0
  -24.4280   -9.5350   21.9310 C   0  0  0  0  0  3  0  0  0  0  0  0
  -23.7090   -8.3380   22.1300 C   0  0  0  0  0  3  0  0  0  0  0  0
  -22.5080   -8.1060   21.4170 C   0  0  0  0  0  0  0  0  0  0  0  0
  -22.0620   -9.0680   20.4920 C   0  0  0  0  0  3  0  0  0  0  0  0
  -22.7850  -10.2570   20.2970 C   0  0  0  0  0  3  0  0  0  0  0  0
  -21.7560   -6.9620   21.5230 O   0  0  0  0  0  0  0  0  0  0  0  0
  -21.7270   -6.2260   22.6780 C   0  0  0  0  0  0  0  0  0  0  0  0
  -21.3030   -6.7870   23.9050 C   0  0  0  0  0  3  0  0  0  0  0  0
  -21.2220   -5.9790   25.0540 C   0  0  0  0  0  3  0  0  0  0  0  0
  -21.5540   -4.6100   24.9820 C   0  0  0  0  0  0  0  0  0  0  0  0
  -21.9680   -4.0530   23.7610 C   0  0  0  0  0  3  0  0  0  0  0  0
  -22.0520   -4.8600   22.6110 C   0  0  0  0  0  0  0  0  0  0  0  0
  -22.4330   -4.3100   21.4320 F   0  0  0  0  0  0  0  0  0  0  0  0
  -21.4660   -3.8310   26.0870 F   0  0  0  0  0  0  0  0  0  0  0  0
  -22.8550  -13.5950   21.2480 C   0  0  0  0  0  0  0  0  0  0  0  0
  -22.1770  -12.8870   22.1440 N   0  0  0  0  0  0  0  0  0  0  0  0
  -22.3930  -14.6310   20.7720 O   0  0  0  0  0  0  0  0  0  0  0  0
  -22.5660  -12.0480   22.5480 H   0  0  0  0  0  0  0  0  0  0  0  0
  -21.2530  -13.1890   22.4250 H   0  0  0  0  0  0  0  0  0  0  0  0
  -25.4350  -15.2670   20.3320 N   0  0  0  0  0  0  0  0  0  0  0  0
  -24.6810  -15.9130   20.5380 H   0  0  0  0  0  0  0  0  0  0  0  0
  -26.2830  -15.7230   20.0310 H   0  0  0  0  0  0  0  0  0  0  0  0
  -33.2150  -16.7610   20.1290 N   0  0  0  0  0  4  0  0  0  0  0  0
  -33.0620  -15.7570   20.1210 H   0  0  0  0  0  0  0  0  0  0  0  0
  -33.5610  -17.0440   21.0290 H   0  0  0  0  0  0  0  0  0  0  0  0
  -33.9200  -16.9690   19.4430 H   0  0  0  0  0  0  0  0  0  0  0  0
  -29.7280  -21.8460   20.7430 C   0  0  0  0  0  2  0  0  0  0  0  0
  -29.0240  -22.8990   19.9760 N   0  0  0  0  0  4  0  0  0  0  0  0
  -28.0410  -22.7620   20.1420 H   0  0  0  0  0  0  0  0  0  0  0  0
  -29.1920  -22.7320   18.9930 H   0  0  0  0  0  0  0  0  0  0  0  0
  -29.3730  -24.3120   20.3210 C   0  0  0  0  0  2  0  0  0  0  0  0
  -28.3340  -25.2880   19.7320 C   0  0  0  0  0  2  0  0  0  0  0  0
  -28.4410  -26.6680   20.1440 O   0  0  0  0  0  0  0  0  0  0  0  0
  -24.5440  -31.8210   23.1820 C   0  0  0  0  0  0  0  0  0  0  0  0
  -27.2760  -27.4220   20.0870 C   0  0  0  0  0  0  0  0  0  0  0  0
  -23.3840  -30.4370   21.4950 C   0  0  0  0  0  3  0  0  0  0  0  0
  -24.8770  -28.9360   20.0810 C   0  0  0  0  0  0  0  0  0  0  0  0
  -25.9120  -30.8100   21.3560 C   0  0  0  0  0  2  0  0  0  0  0  0
  -26.0220  -29.4450   20.7050 C   0  0  0  0  0  0  0  0  0  0  0  0
  -27.2230  -28.6930   20.7130 C   0  0  0  0  0  3  0  0  0  0  0  0
  -26.1090  -26.9550   19.4290 C   0  0  0  0  0  3  0  0  0  0  0  0
  -24.9150  -27.6910   19.4420 C   0  0  0  0  0  3  0  0  0  0  0  0
  -23.6260  -29.7810   20.1120 C   0  0  0  0  0  2  0  0  0  0  0  0
  -24.6320  -31.0350   22.0720 N   0  0  0  0  0  0  0  0  0  0  0  0
  -23.4490  -32.0720   23.7030 O   0  0  0  0  0  0  0  0  0  0  0  0
  -22.7160  -29.3970   22.4230 C   0  0  0  0  0  0  0  0  0  0  0  0
  -21.3960  -29.2120   22.2630 N   0  0  0  0  0  0  0  0  0  0  0  0
  -23.3850  -28.7610   23.2430 O   0  0  0  0  0  0  0  0  0  0  0  0
  -20.9190  -29.7710   21.5690 H   0  0  0  0  0  0  0  0  0  0  0  0
  -18.0220  -27.9930   22.6660 C   0  0  0  0  0  0  0  0  0  0  0  0
  -20.5680  -28.2580   23.0000 C   0  0  0  0  0  3  0  0  0  0  0  0
  -20.6940  -26.8370   22.4060 C   0  0  0  0  0  2  0  0  0  0  0  0
  -19.6180  -26.5220   21.3600 C   0  0  0  0  0  2  0  0  0  0  0  0
  -18.2200  -26.6560   21.9720 C   0  0  0  0  0  2  0  0  0  0  0  0
  -19.1250  -28.7540   23.1330 C   0  0  0  0  0  0  0  0  0  0  0  0
  -18.8850  -30.0070   23.7360 C   0  0  0  0  0  3  0  0  0  0  0  0
  -17.5750  -30.5030   23.8750 C   0  0  0  0  0  3  0  0  0  0  0  0
  -16.4850  -29.7370   23.4270 C   0  0  0  0  0  3  0  0  0  0  0  0
  -16.7090  -28.4860   22.8270 C   0  0  0  0  0  3  0  0  0  0  0  0
  -25.8130  -32.4520   23.8360 C   0  0  0  0  0  3  0  0  0  0  0  0
  -25.4930  -33.8470   24.1670 N   0  0  0  0  0  0  0  0  0  0  0  0
  -25.8290  -34.9030   23.4150 C   0  0  0  0  0  0  0  0  0  0  0  0
  -26.5110  -34.8060   22.3910 O   0  0  0  0  0  0  0  0  0  0  0  0
  -24.8940  -33.9920   24.9670 H   0  0  0  0  0  0  0  0  0  0  0  0
  -24.0950  -36.6840   23.0360 C   0  0  0  0  0  1  0  0  0  0  0  0
  -25.3280  -36.2900   23.8660 C   0  0  0  0  0  3  0  0  0  0  0  0
  -27.4440  -37.1880   24.7300 C   0  0  0  0  0  1  0  0  0  0  0  0
  -26.3570  -37.3500   23.7680 N   0  0  0  0  0  0  0  0  0  0  0  0
  -25.9420  -38.2680   23.9090 H   0  0  0  0  0  0  0  0  0  0  0  0
  -26.2980  -31.6720   25.1160 C   0  0  1  0  0  0  0  0  0  0  0  0
  -25.1770  -31.4160   26.1510 C   0  0  0  0  0  1  0  0  0  0  0  0
  -26.8930  -30.3040   24.7190 C   0  0  0  0  0  1  0  0  0  0  0  0
  -27.4280  -32.4610   25.8160 C   0  0  0  0  0  1  0  0  0  0  0  0
  1  4  1  0
  3  6  2  0
  4  2  2  0
  5  3  1  0
  5  1  2  0
  6 53  1  0
  6  2  1  0
  7  5  1  0
  9 14  1  0
 10 11  1  0
 10  9  1  0
 12 11  1  0
 12 24  1  0
 12 13  1  0
 14  8  1  0
 14 13  1  0
 15  8  2  0
 16 17  1  0
 16 19  1  0
 17 20  1  0
 18  4  1  0
 19 49  1  0
 19 18  1  0
 20  8  1  0
 20 18  1  0
 21 22  2  0
 22 41  1  0
 23 22  1  0
 23 26  1  0
 24 25  1  0
 24 21  1  0
 25 23  2  0
 26 27  1  0
 27 28  2  0
 29 32  1  0
 29 28  1  0
 30 29  2  0
 31 30  1  0
 31 26  2  0
 32 33  1  0
 33 34  1  0
 34 35  2  0
 36 35  1  0
 36 40  1  0
 37 36  2  0
 38 33  2  0
 38 37  1  0
 39 38  1  0
 41 42  1  0
 42 45  1  0
 42 44  1  0
 43 41  2  0
 46 21  1  0
 46 47  1  0
 48 46  1  0
 49 51  1  0
 50 49  1  0
 52 49  1  0
 54 55  1  0
 54 57  1  0
 54 53  1  0
 56 54  1  0
 58 59  1  0
 58 57  1  0
 60 71  2  0
 61 59  1  0
 61 66  1  0
 62 70  1  0
 62 72  1  0
 63 69  1  0
 63 65  1  0
 64 70  1  0
 65 66  2  0
 65 64  1  0
 67 68  1  0
 67 61  2  0
 68 63  2  0
 69 62  1  0
 70 60  1  0
 72 74  2  0
 73 72  1  0
 75 73  1  0
 76 85  2  0
 76 81  1  0
 77 73  1  0
 77 81  1  0
 78 77  1  0
 79 80  1  0
 79 78  1  0
 80 76  1  0
 81 82  2  0
 82 83  1  0
 84 83  2  0
 85 84  1  0
 86 60  1  0
 86 87  1  0
 86 96  1  0
 87 90  1  0
 88 92  1  0
 88 87  1  0
 89 88  2  0
 92 91  1  0
 94 92  1  0
 94 95  1  0
 94 93  1  0
 96 99  1  1
 96 97  1  0
 98 96  1  0
M  ISO  4   8 100  20 100  58 101  59 101
M  END
>  <TORSDO>  (76) 
F 21

>  <SCORE>  (76) 
-12.935

>  <name>  (76) 
75

>  <ligand_id>  (76) 
75

>  <original_smiles>  (76) 
[H]c1c([H])c([H])c2c(c1[H])C([H])([H])C([H])([H])C([H])([H])C2([H])N([H])C(=O)C1([H])N(C(=O)C([H])(N([H])C(=O)C([H])(N([H])C([H])([H])[H])C([H])([H])[H])C(C([H])([H])[H])(C([H])([H])[H])C([H])([H])[H])C([H])([H])c2c([H])c(OC([H])([H])C([H])([H])[N+]([H])([H])C([H])([H])c3c([H])c(C([H])([H])[H])c([H])c(C4([H])N(C(=O)N5C([H])([H])C([H])([H])C([H])([H])C([H])(n6nc(-c7c([H])c([H])c(Oc8c([H])c([H])c(F)c([H])c8F)c([H])c7[H])c(C(=O)N([H])[H])c6N([H])[H])C5([H])[H])C([H])([H])C([H])([H])C4([H])[N+]([H])([H])[H])c3[H])c([H])c([H])c2C1([H])[H]

>  <smiles>  (76) 
[H]c1c([H])c([H])c2c(c1[H])C([H])([H])C([H])([H])C([H])([H])C2([H])N([H])C(=O)C1([H])N(C(=O)C([H])(N([H])C(=O)C([H])(N([H])C([H])([H])[H])C([H])([H])[H])C(C([H])([H])[H])(C([H])([H])[H])C([H])([H])[H])C([H])([H])c2c([H])c(OC([H])([H])C([H])([H])[N+]([H])([H])C([H])([H])c3c([H])c(C([H])([H])[H])c([H])c(C4([H])N(C(=O)N5C([H])([H])C([H])([H])C([H])([H])C([H])(n6nc(-c7c([H])c([H])c(Oc8c([H])c([H])c(F)c([H])c8F)c([H])c7[H])c(C(=O)N([H])[H])c6N([H])[H])C5([H])[H])C([H])([H])C([H])([H])C4([H])[N+]([H])([H])[H])c3[H])c([H])c([H])c2C1([H])[H]

$$$$
76:0:0
     RDKit          3D

 92100  0  0  1  0  0  0  0  0999 V2000
  -29.0990  -20.7630   20.5070 C   0  0  0  0  0  0  0  0  0  0  0  0
  -30.1630  -22.9170   19.9730 C   0  0  0  0  0  2  0  0  0  0  0  0
  -30.4770  -21.4220   20.3630 C   0  0  0  0  0  3  0  0  0  0  0  0
  -28.8040  -23.2380   20.6210 C   0  0  0  0  0  3  0  0  0  0  0  0
  -28.2260  -21.7890   20.5880 N   0  0  0  0  0  0  0  0  0  0  0  0
  -31.2620  -21.3640   21.6200 N   0  0  0  0  0  4  0  0  0  0  0  0
  -30.7690  -21.7790   22.3950 H   0  0  0  0  0  0  0  0  0  0  0  0
  -32.1180  -21.8720   21.5060 H   0  0  0  0  0  0  0  0  0  0  0  0
  -31.5090  -20.4260   21.8670 H   0  0  0  0  0  0  0  0  0  0  0  0
  -28.9160  -19.0640   20.5240 C   0  0  0  0  0  0  0  0  0  0  0  0
  -27.7590  -18.6420   20.6340 O   0  0  0  0  0  0  0  0  0  0  0  0
  -30.0490  -17.8380   20.4200 C   0  0  0  0  0  2  0  0  0  0  0  0
  -30.4810  -15.0880   20.2720 C   0  0  0  0  0  0  0  0  0  0  0  0
  -30.3780  -12.7450   19.2660 C   0  0  0  0  0  2  0  0  0  0  0  0
  -29.4030  -12.6650   18.0630 C   0  0  0  0  0  2  0  0  0  0  0  0
  -27.9540  -12.4390   18.5380 C   0  0  0  0  0  2  0  0  0  0  0  0
  -27.5780  -13.3510   19.7330 C   0  0  0  0  0  3  0  0  0  0  0  0
  -28.6630  -13.3510   20.8300 C   0  0  0  0  0  2  0  0  0  0  0  0
  -29.9010  -13.8180   20.1960 N   0  0  0  0  0  0  0  0  0  0  0  0
  -31.6730  -15.1650   19.9420 O   0  0  0  0  0  0  0  0  0  0  0  0
  -29.7140  -16.2710   20.5150 N   0  0  0  0  0  0  0  0  0  0  0  0
  -28.7520  -16.0880   20.7620 H   0  0  0  0  0  0  0  0  0  0  0  0
  -25.2260  -13.9150   20.5500 C   0  0  0  0  0  0  0  0  0  0  0  0
  -24.1720  -13.1330   20.9340 C   0  0  0  0  0  0  0  0  0  0  0  0
  -24.6310  -11.7830   20.8560 C   0  0  0  0  0  0  0  0  0  0  0  0
  -26.2570  -13.0400   20.2620 N   0  0  0  0  0  0  0  0  0  0  0  0
  -25.9130  -11.7510   20.5130 N   0  0  0  0  0  0  0  0  0  0  0  0
  -23.9070  -10.5170   21.0340 C   0  0  0  0  0  0  0  0  0  0  0  0
  -24.3380   -9.5430   21.9640 C   0  0  0  0  0  3  0  0  0  0  0  0
  -23.6130   -8.3450   22.1360 C   0  0  0  0  0  3  0  0  0  0  0  0
  -22.4450   -8.1080   21.3740 C   0  0  0  0  0  0  0  0  0  0  0  0
  -22.0320   -9.0690   20.4340 C   0  0  0  0  0  3  0  0  0  0  0  0
  -22.7560  -10.2580   20.2610 C   0  0  0  0  0  3  0  0  0  0  0  0
  -21.6930   -6.9620   21.4500 O   0  0  0  0  0  0  0  0  0  0  0  0
  -21.6070   -6.2350   22.6110 C   0  0  0  0  0  0  0  0  0  0  0  0
  -21.0890   -6.7890   23.8000 C   0  0  0  0  0  3  0  0  0  0  0  0
  -20.9570   -5.9880   24.9520 C   0  0  0  0  0  3  0  0  0  0  0  0
  -21.3280   -4.6300   24.9110 C   0  0  0  0  0  0  0  0  0  0  0  0
  -21.8370   -4.0730   23.7250 C   0  0  0  0  0  3  0  0  0  0  0  0
  -21.9710   -4.8730   22.5770 C   0  0  0  0  0  0  0  0  0  0  0  0
  -22.4430   -4.3270   21.4300 F   0  0  0  0  0  0  0  0  0  0  0  0
  -21.1920   -3.8590   26.0140 F   0  0  0  0  0  0  0  0  0  0  0  0
  -22.7840  -13.6050   21.2520 C   0  0  0  0  0  0  0  0  0  0  0  0
  -22.0840  -12.8980   22.1330 N   0  0  0  0  0  0  0  0  0  0  0  0
  -22.3280  -14.6370   20.7580 O   0  0  0  0  0  0  0  0  0  0  0  0
  -22.4650  -12.0590   22.5460 H   0  0  0  0  0  0  0  0  0  0  0  0
  -21.1540  -13.1960   22.3940 H   0  0  0  0  0  0  0  0  0  0  0  0
  -25.3830  -15.2890   20.3950 N   0  0  0  0  0  0  0  0  0  0  0  0
  -24.6120  -15.9350   20.5220 H   0  0  0  0  0  0  0  0  0  0  0  0
  -26.2100  -15.7330   20.0120 H   0  0  0  0  0  0  0  0  0  0  0  0
  -27.9320  -24.6230   20.1090 C   0  0  0  0  0  2  0  0  0  0  0  0
  -28.2130  -26.1560   20.3440 O   0  0  0  0  0  0  0  0  0  0  0  0
  -24.6280  -31.9080   23.2820 C   0  0  0  0  0  0  0  0  0  0  0  0
  -27.1830  -27.1730   20.2520 C   0  0  0  0  0  0  0  0  0  0  0  0
  -23.4320  -30.5270   21.6310 C   0  0  0  0  0  3  0  0  0  0  0  0
  -24.8740  -28.9570   20.2010 C   0  0  0  0  0  0  0  0  0  0  0  0
  -25.9890  -30.7810   21.4720 C   0  0  0  0  0  2  0  0  0  0  0  0
  -26.0600  -29.3880   20.8120 C   0  0  0  0  0  0  0  0  0  0  0  0
  -27.2160  -28.5160   20.8150 C   0  0  0  0  0  3  0  0  0  0  0  0
  -25.9750  -26.8520   19.5930 C   0  0  0  0  0  3  0  0  0  0  0  0
  -24.8500  -27.7040   19.5730 C   0  0  0  0  0  3  0  0  0  0  0  0
  -23.6570  -29.8670   20.2470 C   0  0  0  0  0  2  0  0  0  0  0  0
  -24.7050  -31.0910   22.1860 N   0  0  0  0  0  0  0  0  0  0  0  0
  -23.5420  -32.1890   23.8080 O   0  0  0  0  0  0  0  0  0  0  0  0
  -22.7460  -29.5100   22.5830 C   0  0  0  0  0  0  0  0  0  0  0  0
  -21.4210  -29.3260   22.4340 N   0  0  0  0  0  0  0  0  0  0  0  0
  -23.4090  -28.8930   23.4190 O   0  0  0  0  0  0  0  0  0  0  0  0
  -20.9410  -29.8850   21.7430 H   0  0  0  0  0  0  0  0  0  0  0  0
  -18.0410  -28.1060   22.8920 C   0  0  0  0  0  0  0  0  0  0  0  0
  -20.5960  -28.3800   23.1930 C   0  0  0  0  0  3  0  0  0  0  0  0
  -20.7120  -26.9480   22.6190 C   0  0  0  0  0  2  0  0  0  0  0  0
  -19.6260  -26.6240   21.5890 C   0  0  0  0  0  2  0  0  0  0  0  0
  -18.2320  -26.7600   22.2160 C   0  0  0  0  0  2  0  0  0  0  0  0
  -19.1500  -28.8720   23.3380 C   0  0  0  0  0  0  0  0  0  0  0  0
  -18.9160  -30.1270   23.9370 C   0  0  0  0  0  3  0  0  0  0  0  0
  -17.6070  -30.6200   24.0910 C   0  0  0  0  0  3  0  0  0  0  0  0
  -16.5110  -29.8490   23.6660 C   0  0  0  0  0  3  0  0  0  0  0  0
  -16.7290  -28.5950   23.0690 C   0  0  0  0  0  3  0  0  0  0  0  0
  -25.9000  -32.5410   23.9200 C   0  0  0  0  0  3  0  0  0  0  0  0
  -26.3890  -31.7770   25.2100 C   0  0  1  0  0  0  0  0  0  0  0  0
  -25.2780  -31.5500   26.2640 C   0  0  0  0  0  1  0  0  0  0  0  0
  -26.9700  -30.3960   24.8330 C   0  0  0  0  0  1  0  0  0  0  0  0
  -27.5340  -32.5710   25.8870 C   0  0  0  0  0  1  0  0  0  0  0  0
  -25.5880  -33.9440   24.2460 N   0  0  0  0  0  0  0  0  0  0  0  0
  -25.9020  -34.9960   23.4800 C   0  0  0  0  0  0  0  0  0  0  0  0
  -26.5470  -34.8900   22.4330 O   0  0  0  0  0  0  0  0  0  0  0  0
  -25.0100  -34.1000   25.0590 H   0  0  0  0  0  0  0  0  0  0  0  0
  -24.1450  -36.7760   23.1840 C   0  0  0  0  0  1  0  0  0  0  0  0
  -25.4250  -36.3880   23.9430 C   0  0  0  0  0  3  0  0  0  0  0  0
  -27.5790  -37.3010   24.6790 C   0  0  0  0  0  1  0  0  0  0  0  0
  -26.4440  -37.4470   23.7750 N   0  0  0  0  0  0  0  0  0  0  0  0
  -26.0370  -38.3660   23.9280 H   0  0  0  0  0  0  0  0  0  0  0  0
  1 10  1  0
  1  5  2  0
  2  3  1  0
  2  4  1  0
  3  1  1  0
  3  6  1  0
  4 51  1  0
  5  4  1  0
  6  9  1  0
  6  7  1  0
  8  6  1  0
 10 11  2  0
 12 21  1  0
 12 10  1  0
 13 21  1  0
 14 19  1  0
 15 16  1  0
 15 14  1  0
 17 16  1  0
 17 26  1  0
 17 18  1  0
 19 13  1  0
 19 18  1  0
 20 13  2  0
 21 22  1  0
 23 24  2  0
 24 43  1  0
 25 24  1  0
 25 28  1  0
 26 27  1  0
 26 23  1  0
 27 25  2  0
 28 29  1  0
 29 30  2  0
 31 34  1  0
 31 30  1  0
 32 31  2  0
 33 32  1  0
 33 28  2  0
 34 35  1  0
 35 36  1  0
 36 37  2  0
 38 37  1  0
 38 42  1  0
 39 38  2  0
 40 35  2  0
 40 39  1  0
 41 40  1  0
 43 44  1  0
 44 47  1  0
 44 46  1  0
 45 43  2  0
 48 49  1  0
 48 23  1  0
 50 48  1  0
 51 52  1  0
 53 64  2  0
 54 52  1  0
 54 59  1  0
 55 63  1  0
 55 65  1  0
 56 62  1  0
 56 58  1  0
 57 63  1  0
 58 59  2  0
 58 57  1  0
 60 54  2  0
 61 60  1  0
 61 56  2  0
 62 55  1  0
 63 53  1  0
 65 67  2  0
 66 65  1  0
 68 66  1  0
 69 78  2  0
 69 74  1  0
 70 66  1  0
 70 74  1  0
 71 70  1  0
 72 73  1  0
 72 71  1  0
 73 69  1  0
 74 75  2  0
 75 76  1  0
 77 76  2  0
 78 77  1  0
 79 53  1  0
 79 84  1  0
 79 80  1  0
 80 83  1  1
 80 81  1  0
 82 80  1  0
 84 87  1  0
 85 89  1  0
 85 84  1  0
 86 85  2  0
 89 88  1  0
 91 92  1  0
 91 89  1  0
 91 90  1  0
M  ISO  4  13 100  21 100  51 101  52 101
M  END
>  <TORSDO>  (77) 
F 20

>  <SCORE>  (77) 
-15.140

>  <name>  (77) 
76

>  <ligand_id>  (77) 
76

>  <original_smiles>  (77) 
[H]c1c([H])c([H])c2c(c1[H])C([H])([H])C([H])([H])C([H])([H])C2([H])N([H])C(=O)C1([H])N(C(=O)C([H])(N([H])C(=O)C([H])(N([H])C([H])([H])[H])C([H])([H])[H])C(C([H])([H])[H])(C([H])([H])[H])C([H])([H])[H])C([H])([H])c2c([H])c(OC([H])([H])C3([H])N=C(C(=O)C([H])([H])N([H])C(=O)N4C([H])([H])C([H])([H])C([H])([H])C([H])(n5nc(-c6c([H])c([H])c(Oc7c([H])c([H])c(F)c([H])c7F)c([H])c6[H])c(C(=O)N([H])[H])c5N([H])[H])C4([H])[H])C([H])([N+]([H])([H])[H])C3([H])[H])c([H])c([H])c2C1([H])[H]

>  <smiles>  (77) 
[H]c1c([H])c([H])c2c(c1[H])C([H])([H])C([H])([H])C([H])([H])C2([H])N([H])C(=O)C1([H])N(C(=O)C([H])(N([H])C(=O)C([H])(N([H])C([H])([H])[H])C([H])([H])[H])C(C([H])([H])[H])(C([H])([H])[H])C([H])([H])[H])C([H])([H])c2c([H])c(OC([H])([H])C3([H])N=C(C(=O)C([H])([H])N([H])C(=O)N4C([H])([H])C([H])([H])C([H])([H])C([H])(n5nc(-c6c([H])c([H])c(Oc7c([H])c([H])c(F)c([H])c7F)c([H])c6[H])c(C(=O)N([H])[H])c5N([H])[H])C4([H])[H])C([H])([N+]([H])([H])[H])C3([H])[H])c([H])c([H])c2C1([H])[H]

$$$$
77:0:0
     RDKit          3D

 97106  0  0  1  0  0  0  0  0999 V2000
  -28.7580  -20.8350   21.4590 C   0  0  0  0  0  2  0  0  0  0  0  0
  -29.1570  -22.2950   19.6430 C   0  0  0  0  0  2  0  0  0  0  0  0
  -30.2770  -20.8130   21.2480 C   0  0  0  0  0  3  0  0  0  0  0  0
  -30.4560  -22.1710   20.4800 C   0  0  0  0  0  3  0  0  0  0  0  0
  -26.8010  -21.6460   20.1560 C   0  0  0  0  0  1  0  0  0  0  0  0
  -28.2280  -21.2590   20.1490 N   0  0  2  0  0  4  0  0  0  0  0  0
  -28.3230  -20.4600   19.5370 H   0  0  0  0  0  0  0  0  0  0  0  0
  -30.9850  -18.3020   18.3520 C   0  0  0  0  0  3  0  0  0  0  0  0
  -30.6880  -19.4860   19.0470 C   0  0  0  0  0  3  0  0  0  0  0  0
  -31.2540  -17.1170   19.0520 C   0  0  0  0  0  3  0  0  0  0  0  0
  -30.9590  -18.3070   21.1590 C   0  0  0  0  0  3  0  0  0  0  0  0
  -30.6670  -19.5200   20.4640 C   0  0  0  0  0  0  0  0  0  0  0  0
  -31.2400  -17.0980   20.4630 C   0  0  0  0  0  0  0  0  0  0  0  0
  -32.0290  -14.7760   20.6460 C   0  0  0  0  0  0  0  0  0  0  0  0
  -31.6150  -12.6450   19.4760 C   0  0  0  0  0  2  0  0  0  0  0  0
  -30.7670  -12.9300   18.2190 C   0  0  0  0  0  2  0  0  0  0  0  0
  -29.2640  -12.9450   18.5570 C   0  0  0  0  0  2  0  0  0  0  0  0
  -28.9340  -13.8040   19.8050 C   0  0  0  0  0  3  0  0  0  0  0  0
  -29.8900  -13.4720   20.9740 C   0  0  0  0  0  2  0  0  0  0  0  0
  -31.2750  -13.6510   20.4970 N   0  0  0  0  0  0  0  0  0  0  0  0
  -33.1870  -14.8670   20.2240 O   0  0  0  0  0  0  0  0  0  0  0  0
  -31.3840  -15.8490   21.1520 N   0  0  0  0  0  0  0  0  0  0  0  0
  -30.5880  -15.6100   21.7250 H   0  0  0  0  0  0  0  0  0  0  0  0
  -26.5690  -14.6430   20.3780 C   0  0  0  0  0  0  0  0  0  0  0  0
  -25.4100  -13.9780   20.6800 C   0  0  0  0  0  0  0  0  0  0  0  0
  -25.7400  -12.5880   20.6700 C   0  0  0  0  0  0  0  0  0  0  0  0
  -27.5350  -13.6650   20.1990 N   0  0  0  0  0  0  0  0  0  0  0  0
  -27.0350  -12.4230   20.4320 N   0  0  0  0  0  0  0  0  0  0  0  0
  -24.8870  -11.4000   20.8140 C   0  0  0  0  0  0  0  0  0  0  0  0
  -25.1940  -10.3780   21.7380 C   0  0  0  0  0  3  0  0  0  0  0  0
  -24.3490   -9.2550   21.8710 C   0  0  0  0  0  3  0  0  0  0  0  0
  -23.1830   -9.1460   21.0770 C   0  0  0  0  0  0  0  0  0  0  0  0
  -22.8940  -10.1560   20.1410 C   0  0  0  0  0  3  0  0  0  0  0  0
  -23.7390  -11.2710   20.0070 C   0  0  0  0  0  3  0  0  0  0  0  0
  -22.3180   -8.0790   21.1180 O   0  0  0  0  0  0  0  0  0  0  0  0
  -22.1340   -7.3470   22.2630 C   0  0  0  0  0  0  0  0  0  0  0  0
  -21.6850   -7.9410   23.4630 C   0  0  0  0  0  3  0  0  0  0  0  0
  -21.4400   -7.1400   24.5960 C   0  0  0  0  0  3  0  0  0  0  0  0
  -21.6340   -5.7470   24.5310 C   0  0  0  0  0  0  0  0  0  0  0  0
  -22.0760   -5.1530   23.3340 C   0  0  0  0  0  3  0  0  0  0  0  0
  -22.3210   -5.9520   22.2040 C   0  0  0  0  0  0  0  0  0  0  0  0
  -22.7270   -5.3710   21.0480 F   0  0  0  0  0  0  0  0  0  0  0  0
  -21.3920   -4.9770   25.6170 F   0  0  0  0  0  0  0  0  0  0  0  0
  -24.0520  -14.5870   20.8740 C   0  0  0  0  0  0  0  0  0  0  0  0
  -23.2190  -13.9800   21.7130 N   0  0  0  0  0  0  0  0  0  0  0  0
  -23.7360  -15.6370   20.3150 O   0  0  0  0  0  0  0  0  0  0  0  0
  -23.4860  -13.1310   22.1880 H   0  0  0  0  0  0  0  0  0  0  0  0
  -22.3030  -14.3690   21.8820 H   0  0  0  0  0  0  0  0  0  0  0  0
  -26.8770  -15.9920   20.2230 N   0  0  0  0  0  0  0  0  0  0  0  0
  -26.1740  -16.7180   20.3010 H   0  0  0  0  0  0  0  0  0  0  0  0
  -27.7850  -16.3450   19.9450 H   0  0  0  0  0  0  0  0  0  0  0  0
  -30.7540  -24.6450   20.8430 C   0  0  0  0  0  0  0  0  0  0  0  0
  -30.6250  -23.3840   21.3160 N   0  0  0  0  0  0  0  0  0  0  0  0
  -30.9130  -24.8690   19.6410 O   0  0  0  0  0  0  0  0  0  0  0  0
  -30.5290  -23.2800   22.3200 H   0  0  0  0  0  0  0  0  0  0  0  0
  -30.6500  -25.8180   21.8510 C   0  0  0  0  0  2  0  0  0  0  0  0
  -30.6220  -27.1170   21.2170 O   0  0  0  0  0  0  0  0  0  0  0  0
  -25.6630  -31.5340   23.8480 C   0  0  0  0  0  0  0  0  0  0  0  0
  -29.3750  -27.6890   21.0770 C   0  0  0  0  0  0  0  0  0  0  0  0
  -24.9440  -30.0750   21.9830 C   0  0  0  0  0  3  0  0  0  0  0  0
  -26.8100  -28.8440   20.7540 C   0  0  0  0  0  0  0  0  0  0  0  0
  -27.3880  -30.8010   22.2000 C   0  0  0  0  0  2  0  0  0  0  0  0
  -27.7760  -29.4930   21.5350 C   0  0  0  0  0  0  0  0  0  0  0  0
  -29.0630  -28.9250   21.6920 C   0  0  0  0  0  3  0  0  0  0  0  0
  -28.3920  -27.0530   20.2910 C   0  0  0  0  0  3  0  0  0  0  0  0
  -27.1140  -27.6220   20.1290 C   0  0  0  0  0  3  0  0  0  0  0  0
  -25.4590  -29.5150   20.6310 C   0  0  0  0  0  2  0  0  0  0  0  0
  -26.0060  -30.8170   22.7390 N   0  0  0  0  0  0  0  0  0  0  0  0
  -24.4850  -31.6170   24.2210 O   0  0  0  0  0  0  0  0  0  0  0  0
  -24.3130  -28.9180   22.7910 C   0  0  0  0  0  0  0  0  0  0  0  0
  -23.0730  -28.5430   22.4340 N   0  0  0  0  0  0  0  0  0  0  0  0
  -24.9450  -28.3590   23.6910 O   0  0  0  0  0  0  0  0  0  0  0  0
  -22.6220  -29.0570   21.6910 H   0  0  0  0  0  0  0  0  0  0  0  0
  -19.8970  -26.8250   22.3120 C   0  0  0  0  0  0  0  0  0  0  0  0
  -22.3000  -27.4510   23.0260 C   0  0  0  0  0  3  0  0  0  0  0  0
  -22.7210  -26.0860   22.4340 C   0  0  0  0  0  2  0  0  0  0  0  0
  -21.8680  -25.6580   21.2370 C   0  0  0  0  0  2  0  0  0  0  0  0
  -20.3930  -25.5570   21.6390 C   0  0  0  0  0  2  0  0  0  0  0  0
  -20.7930  -27.7230   22.9490 C   0  0  0  0  0  0  0  0  0  0  0  0
  -20.2840  -28.9040   23.5300 C   0  0  0  0  0  3  0  0  0  0  0  0
  -18.9070  -29.1930   23.4820 C   0  0  0  0  0  3  0  0  0  0  0  0
  -18.0210  -28.2940   22.8630 C   0  0  0  0  0  3  0  0  0  0  0  0
  -18.5150  -27.1120   22.2840 C   0  0  0  0  0  3  0  0  0  0  0  0
  -26.7330  -32.3020   24.6850 C   0  0  0  0  0  3  0  0  0  0  0  0
  -27.0110  -31.6430   26.0910 C   0  0  1  0  0  0  0  0  0  0  0  0
  -25.7300  -31.3560   26.9080 C   0  0  0  0  0  1  0  0  0  0  0  0
  -27.7760  -30.3090   25.9260 C   0  0  0  0  0  1  0  0  0  0  0  0
  -27.9200  -32.5690   26.9350 C   0  0  0  0  0  1  0  0  0  0  0  0
  -26.2610  -33.6840   24.8460 N   0  0  0  0  0  0  0  0  0  0  0  0
  -26.6430  -34.7110   24.0750 C   0  0  0  0  0  0  0  0  0  0  0  0
  -27.4970  -34.6030   23.1900 O   0  0  0  0  0  0  0  0  0  0  0  0
  -25.5210  -33.8340   25.5160 H   0  0  0  0  0  0  0  0  0  0  0  0
  -24.8510  -36.2940   23.2980 C   0  0  0  0  0  1  0  0  0  0  0  0
  -25.9730  -36.0750   24.3260 C   0  0  0  0  0  3  0  0  0  0  0  0
  -27.8610  -37.2230   25.3980 C   0  0  0  0  0  1  0  0  0  0  0  0
  -26.9180  -37.2120   24.2820 N   0  0  0  0  0  0  0  0  0  0  0  0
  -26.4190  -38.0970   24.2800 H   0  0  0  0  0  0  0  0  0  0  0  0
  2  6  1  0
  2  4  1  0
  3 12  1  0
  3  1  1  0
  4  3  1  0
  4 53  1  0
  6  5  1  0
  6  1  1  0
  6  7  1  6
  8  9  2  0
  8 10  1  0
  9 12  1  0
 10 13  2  0
 12 11  2  0
 13 22  1  0
 13 11  1  0
 14 22  1  0
 15 20  1  0
 16 17  1  0
 16 15  1  0
 18 17  1  0
 18 27  1  0
 18 19  1  0
 20 14  1  0
 20 19  1  0
 21 14  2  0
 22 23  1  0
 24 25  2  0
 25 44  1  0
 26 25  1  0
 26 29  1  0
 27 24  1  0
 27 28  1  0
 28 26  2  0
 29 30  1  0
 30 31  2  0
 32 35  1  0
 32 31  1  0
 33 32  2  0
 34 33  1  0
 34 29  2  0
 35 36  1  0
 36 37  1  0
 37 38  2  0
 39 38  1  0
 39 43  1  0
 40 39  2  0
 41 36  2  0
 41 40  1  0
 42 41  1  0
 44 45  1  0
 45 48  1  0
 45 47  1  0
 46 44  2  0
 49 50  1  0
 49 24  1  0
 51 49  1  0
 52 53  1  0
 52 56  1  0
 53 55  1  0
 54 52  2  0
 57 56  1  0
 58 69  2  0
 59 57  1  0
 59 64  1  0
 60 68  1  0
 60 70  1  0
 61 63  1  0
 62 68  1  0
 63 64  2  0
 63 62  1  0
 65 59  2  0
 66 65  1  0
 66 61  2  0
 67 61  1  0
 67 60  1  0
 68 58  1  0
 70 72  2  0
 71 70  1  0
 73 71  1  0
 74 79  1  0
 75 71  1  0
 76 75  1  0
 77 78  1  0
 77 76  1  0
 78 74  1  0
 79 75  1  0
 79 80  2  0
 81 80  1  0
 82 81  2  0
 83 74  2  0
 83 82  1  0
 84 58  1  0
 84 89  1  0
 84 85  1  0
 85 86  1  1
 85 88  1  0
 87 85  1  0
 89 92  1  0
 90 94  1  0
 90 89  1  0
 91 90  2  0
 94 93  1  0
 96 94  1  0
 96 95  1  0
 97 96  1  0
M  ISO  4  14 100  22 100  56 101  57 101
M  END
>  <TORSDO>  (78) 
F 19

>  <SCORE>  (78) 
-10.171

>  <name>  (78) 
77

>  <ligand_id>  (78) 
77

>  <original_smiles>  (78) 
[H]c1c([H])c([H])c2c(c1[H])C([H])([H])C([H])([H])C([H])([H])C2([H])N([H])C(=O)C1([H])N(C(=O)C([H])(N([H])C(=O)C([H])(N([H])C([H])([H])[H])C([H])([H])[H])C(C([H])([H])[H])(C([H])([H])[H])C([H])([H])[H])C([H])([H])c2c([H])c(OC([H])([H])C(=O)N([H])C3([H])C([H])(c4c([H])c([H])c([H])c(N([H])C(=O)N5C([H])([H])C([H])([H])C([H])([H])C([H])(n6nc(-c7c([H])c([H])c(Oc8c([H])c([H])c(F)c([H])c8F)c([H])c7[H])c(C(=O)N([H])[H])c6N([H])[H])C5([H])[H])c4[H])C([H])([H])[N+]([H])(C([H])([H])[H])C3([H])[H])c([H])c([H])c2C1([H])[H]

>  <smiles>  (78) 
[H]c1c([H])c([H])c2c(c1[H])C([H])([H])C([H])([H])C([H])([H])C2([H])N([H])C(=O)C1([H])N(C(=O)C([H])(N([H])C(=O)C([H])(N([H])C([H])([H])[H])C([H])([H])[H])C(C([H])([H])[H])(C([H])([H])[H])C([H])([H])[H])C([H])([H])c2c([H])c(OC([H])([H])C(=O)N([H])C3([H])C([H])(c4c([H])c([H])c([H])c(N([H])C(=O)N5C([H])([H])C([H])([H])C([H])([H])C([H])(n6nc(-c7c([H])c([H])c(Oc8c([H])c([H])c(F)c([H])c8F)c([H])c7[H])c(C(=O)N([H])[H])c6N([H])[H])C5([H])[H])c4[H])C([H])([H])[N+]([H])(C([H])([H])[H])C3([H])[H])c([H])c([H])c2C1([H])[H]

$$$$
78:0:0
     RDKit          3D

 97106  0  0  1  0  0  0  0  0999 V2000
  -27.0250  -23.2830   22.3680 C   0  0  0  0  0  2  0  0  0  0  0  0
  -27.7500  -22.6690   21.1940 C   0  0  0  0  0  3  0  0  0  0  0  0
  -28.0980  -24.0830   21.6750 C   0  0  0  0  0  3  0  0  0  0  0  0
  -28.5740  -21.4400   21.5730 C   0  0  0  0  0  2  0  0  0  0  0  0
  -29.6820  -19.4040   20.7260 C   0  0  0  0  0  0  0  0  0  0  0  0
  -28.8290  -20.4280   20.5520 N   0  0  0  0  0  0  0  0  0  0  0  0
  -30.3540  -19.2750   21.7530 O   0  0  0  0  0  0  0  0  0  0  0  0
  -28.3150  -20.4830   19.6800 H   0  0  0  0  0  0  0  0  0  0  0  0
  -30.5060  -18.9500   18.3390 C   0  0  0  0  0  2  0  0  0  0  0  0
  -31.1950  -17.5980   18.1670 C   0  0  0  0  0  2  0  0  0  0  0  0
  -29.8020  -18.3790   19.5830 C   0  0  0  0  0  3  0  0  0  0  0  0
  -30.9700  -17.3520   19.6730 C   0  0  0  0  0  3  0  0  0  0  0  0
  -31.3290  -14.8700   19.7400 C   0  0  0  0  0  0  0  0  0  0  0  0
  -31.0180  -12.5740   18.9220 C   0  0  0  0  0  2  0  0  0  0  0  0
  -30.0440  -12.6220   17.7270 C   0  0  0  0  0  2  0  0  0  0  0  0
  -28.5800  -12.5500   18.2080 C   0  0  0  0  0  2  0  0  0  0  0  0
  -28.2740  -13.5430   19.3610 C   0  0  0  0  0  3  0  0  0  0  0  0
  -29.3620  -13.4740   20.4580 C   0  0  0  0  0  2  0  0  0  0  0  0
  -30.6660  -13.6870   19.8140 N   0  0  0  0  0  0  0  0  0  0  0  0
  -32.4700  -14.9700   19.2810 O   0  0  0  0  0  0  0  0  0  0  0  0
  -30.5820  -15.9640   19.9890 N   0  0  0  0  0  0  0  0  0  0  0  0
  -29.6490  -15.8090   20.3420 H   0  0  0  0  0  0  0  0  0  0  0  0
  -25.9500  -14.2590   20.2060 C   0  0  0  0  0  0  0  0  0  0  0  0
  -24.8700  -13.5350   20.6320 C   0  0  0  0  0  0  0  0  0  0  0  0
  -25.2630  -12.1630   20.5680 C   0  0  0  0  0  0  0  0  0  0  0  0
  -26.9380  -13.3310   19.9130 N   0  0  0  0  0  0  0  0  0  0  0  0
  -26.5300  -12.0640   20.1850 N   0  0  0  0  0  0  0  0  0  0  0  0
  -24.4860  -10.9370   20.7890 C   0  0  0  0  0  0  0  0  0  0  0  0
  -24.8520  -10.0020   21.7830 C   0  0  0  0  0  3  0  0  0  0  0  0
  -24.0810   -8.8380   21.9890 C   0  0  0  0  0  3  0  0  0  0  0  0
  -22.9260   -8.6040   21.2040 C   0  0  0  0  0  0  0  0  0  0  0  0
  -22.5790   -9.5270   20.2020 C   0  0  0  0  0  3  0  0  0  0  0  0
  -23.3510  -10.6820   19.9930 C   0  0  0  0  0  3  0  0  0  0  0  0
  -22.1300   -7.4900   21.3180 O   0  0  0  0  0  0  0  0  0  0  0  0
  -21.9210   -6.8750   22.5260 C   0  0  0  0  0  0  0  0  0  0  0  0
  -21.3660   -7.5640   23.6270 C   0  0  0  0  0  3  0  0  0  0  0  0
  -21.1060   -6.8750   24.8300 C   0  0  0  0  0  3  0  0  0  0  0  0
  -21.3880   -5.5000   24.9280 C   0  0  0  0  0  0  0  0  0  0  0  0
  -21.9330   -4.8100   23.8310 C   0  0  0  0  0  3  0  0  0  0  0  0
  -22.1970   -5.4970   22.6330 C   0  0  0  0  0  0  0  0  0  0  0  0
  -22.7050   -4.8250   21.5710 F   0  0  0  0  0  0  0  0  0  0  0  0
  -21.1290   -4.8350   26.0800 F   0  0  0  0  0  0  0  0  0  0  0  0
  -23.5150  -14.0770   20.9850 C   0  0  0  0  0  0  0  0  0  0  0  0
  -22.8100  -13.4270   21.9050 N   0  0  0  0  0  0  0  0  0  0  0  0
  -23.0920  -15.1170   20.4820 O   0  0  0  0  0  0  0  0  0  0  0  0
  -23.1610  -12.5840   22.3360 H   0  0  0  0  0  0  0  0  0  0  0  0
  -21.9080  -13.7810   22.1830 H   0  0  0  0  0  0  0  0  0  0  0  0
  -26.1660  -15.6220   20.0260 N   0  0  0  0  0  0  0  0  0  0  0  0
  -25.4230  -16.3000   20.1600 H   0  0  0  0  0  0  0  0  0  0  0  0
  -27.0100  -16.0280   19.6430 H   0  0  0  0  0  0  0  0  0  0  0  0
  -27.6370  -25.4310   21.1110 C   0  0  0  0  0  3  0  0  0  0  0  0
  -27.9670  -26.4770   22.1060 N   0  0  0  0  0  4  0  0  0  0  0  0
  -28.9610  -26.5560   22.2420 H   0  0  0  0  0  0  0  0  0  0  0  0
  -27.5420  -26.2600   22.9920 H   0  0  0  0  0  0  0  0  0  0  0  0
  -27.6240  -27.3710   21.7980 H   0  0  0  0  0  0  0  0  0  0  0  0
  -28.2110  -25.8010   19.7130 C   0  0  0  0  0  2  0  0  0  0  0  0
  -28.2510  -27.2260   19.4830 O   0  0  0  0  0  0  0  0  0  0  0  0
  -24.6320  -31.9110   23.3740 C   0  0  0  0  0  0  0  0  0  0  0  0
  -27.0750  -27.9390   19.5840 C   0  0  0  0  0  0  0  0  0  0  0  0
  -23.3250  -30.7310   21.6350 C   0  0  0  0  0  3  0  0  0  0  0  0
  -24.6860  -29.4050   19.9310 C   0  0  0  0  0  0  0  0  0  0  0  0
  -25.8300  -31.1380   21.3270 C   0  0  0  0  0  2  0  0  0  0  0  0
  -25.8760  -29.8650   20.5050 C   0  0  0  0  0  0  0  0  0  0  0  0
  -27.0760  -29.1450   20.3230 C   0  0  0  0  0  3  0  0  0  0  0  0
  -25.8680  -27.4910   19.0030 C   0  0  0  0  0  3  0  0  0  0  0  0
  -24.6760  -28.2190   19.1770 C   0  0  0  0  0  3  0  0  0  0  0  0
  -23.4460  -30.2360   20.1670 C   0  0  0  0  0  2  0  0  0  0  0  0
  -24.6180  -31.2660   22.1720 N   0  0  0  0  0  0  0  0  0  0  0  0
  -23.5880  -32.1020   24.0110 O   0  0  0  0  0  0  0  0  0  0  0  0
  -22.7320  -29.5880   22.4890 C   0  0  0  0  0  0  0  0  0  0  0  0
  -21.4160  -29.3630   22.3520 N   0  0  0  0  0  0  0  0  0  0  0  0
  -23.4530  -28.9080   23.2250 O   0  0  0  0  0  0  0  0  0  0  0  0
  -20.8920  -29.9810   21.7490 H   0  0  0  0  0  0  0  0  0  0  0  0
  -18.1340  -27.8770   22.6100 C   0  0  0  0  0  0  0  0  0  0  0  0
  -20.6490  -28.3070   23.0130 C   0  0  0  0  0  3  0  0  0  0  0  0
  -20.8910  -26.9360   22.3380 C   0  0  0  0  0  2  0  0  0  0  0  0
  -19.8510  -26.5890   21.2680 C   0  0  0  0  0  2  0  0  0  0  0  0
  -18.4410  -26.5930   21.8620 C   0  0  0  0  0  2  0  0  0  0  0  0
  -19.1690  -28.6890   23.1410 C   0  0  0  0  0  0  0  0  0  0  0  0
  -18.8270  -29.8920   23.7980 C   0  0  0  0  0  3  0  0  0  0  0  0
  -17.4810  -30.2810   23.9330 C   0  0  0  0  0  3  0  0  0  0  0  0
  -16.4590  -29.4650   23.4200 C   0  0  0  0  0  3  0  0  0  0  0  0
  -16.7860  -28.2640   22.7630 C   0  0  0  0  0  3  0  0  0  0  0  0
  -25.9580  -32.4570   23.9950 C   0  0  0  0  0  3  0  0  0  0  0  0
  -25.7030  -33.8320   24.4430 N   0  0  0  0  0  0  0  0  0  0  0  0
  -26.0480  -34.9310   23.7590 C   0  0  0  0  0  0  0  0  0  0  0  0
  -26.6870  -34.8910   22.7050 O   0  0  0  0  0  0  0  0  0  0  0  0
  -25.1410  -33.9430   25.2750 H   0  0  0  0  0  0  0  0  0  0  0  0
  -24.3710  -36.7940   23.5880 C   0  0  0  0  0  1  0  0  0  0  0  0
  -25.6140  -36.2910   24.3380 C   0  0  0  0  0  3  0  0  0  0  0  0
  -27.7920  -37.0400   25.1890 C   0  0  0  0  0  1  0  0  0  0  0  0
  -26.6760  -37.3200   24.2880 N   0  0  0  0  0  0  0  0  0  0  0  0
  -26.3020  -38.2360   24.5260 H   0  0  0  0  0  0  0  0  0  0  0  0
  -26.5010  -31.5750   25.1850 C   0  0  1  0  0  0  0  0  0  0  0  0
  -25.4370  -31.2550   26.2590 C   0  0  0  0  0  1  0  0  0  0  0  0
  -27.0540  -30.2320   24.6570 C   0  0  0  0  0  1  0  0  0  0  0  0
  -27.6810  -32.2970   25.8790 C   0  0  0  0  0  1  0  0  0  0  0  0
  2  4  1  0
  2  3  1  0
  2  1  1  0
  3 51  1  0
  3  1  1  0
  5  7  2  0
  6  5  1  0
  6  4  1  0
  8  6  1  0
  9 11  1  0
 10  9  1  0
 10 12  1  0
 11 12  1  0
 11  5  1  0
 12 21  1  0
 13 19  1  0
 13 21  1  0
 14 19  1  0
 15 16  1  0
 15 14  1  0
 17 16  1  0
 17 26  1  0
 17 18  1  0
 19 18  1  0
 20 13  2  0
 21 22  1  0
 23 24  2  0
 24 43  1  0
 25 24  1  0
 25 28  1  0
 26 27  1  0
 26 23  1  0
 27 25  2  0
 28 29  1  0
 29 30  2  0
 31 34  1  0
 31 30  1  0
 32 31  2  0
 33 32  1  0
 33 28  2  0
 34 35  1  0
 35 40  2  0
 35 36  1  0
 36 37  2  0
 37 38  1  0
 38 42  1  0
 39 38  2  0
 40 39  1  0
 41 40  1  0
 43 44  1  0
 44 47  1  0
 44 46  1  0
 45 43  2  0
 48 49  1  0
 48 23  1  0
 50 48  1  0
 51 56  1  0
 51 52  1  0
 52 53  1  0
 52 54  1  0
 55 52  1  0
 57 59  1  0
 57 56  1  0
 58 69  2  0
 59 64  1  0
 60 68  1  0
 60 70  1  0
 61 67  1  0
 61 63  1  0
 62 68  1  0
 63 62  1  0
 64 63  2  0
 65 66  1  0
 65 59  2  0
 66 61  2  0
 67 60  1  0
 68 58  1  0
 70 72  2  0
 71 70  1  0
 73 71  1  0
 74 83  2  0
 74 79  1  0
 75 71  1  0
 75 79  1  0
 76 75  1  0
 77 78  1  0
 77 76  1  0
 78 74  1  0
 79 80  2  0
 80 81  1  0
 82 81  2  0
 83 82  1  0
 84 58  1  0
 84 85  1  0
 84 94  1  0
 85 88  1  0
 86 90  1  0
 86 85  1  0
 87 86  2  0
 90 89  1  0
 92 90  1  0
 92 93  1  0
 92 91  1  0
 94 97  1  1
 94 95  1  0
 96 94  1  0
M  ISO  4  13 100  21 100  56 101  57 101
M  END
>  <TORSDO>  (79) 
F 22

>  <SCORE>  (79) 
-11.509

>  <name>  (79) 
78

>  <ligand_id>  (79) 
78

>  <original_smiles>  (79) 
[H]c1c([H])c([H])c2c(c1[H])C([H])([H])C([H])([H])C([H])([H])C2([H])N([H])C(=O)C1([H])N(C(=O)C([H])(N([H])C(=O)C([H])(N([H])C([H])([H])[H])C([H])([H])[H])C(C([H])([H])[H])(C([H])([H])[H])C([H])([H])[H])C([H])([H])c2c([H])c(OC([H])([H])C([H])(C3([H])C([H])([H])C3([H])C([H])([H])N([H])C(=O)C3([H])C([H])([H])C([H])([H])C3([H])N([H])C(=O)N3C([H])([H])C([H])([H])C([H])([H])C([H])(n4nc(-c5c([H])c([H])c(Oc6c([H])c([H])c(F)c([H])c6F)c([H])c5[H])c(C(=O)N([H])[H])c4N([H])[H])C3([H])[H])[N+]([H])([H])[H])c([H])c([H])c2C1([H])[H]

>  <smiles>  (79) 
[H]c1c([H])c([H])c2c(c1[H])C([H])([H])C([H])([H])C([H])([H])C2([H])N([H])C(=O)C1([H])N(C(=O)C([H])(N([H])C(=O)C([H])(N([H])C([H])([H])[H])C([H])([H])[H])C(C([H])([H])[H])(C([H])([H])[H])C([H])([H])[H])C([H])([H])c2c([H])c(OC([H])([H])C([H])(C3([H])C([H])([H])C3([H])C([H])([H])N([H])C(=O)C3([H])C([H])([H])C([H])([H])C3([H])N([H])C(=O)N3C([H])([H])C([H])([H])C([H])([H])C([H])(n4nc(-c5c([H])c([H])c(Oc6c([H])c([H])c(F)c([H])c6F)c([H])c5[H])c(C(=O)N([H])[H])c4N([H])[H])C3([H])[H])[N+]([H])([H])[H])c([H])c([H])c2C1([H])[H]

$$$$
79:0:0
     RDKit          3D

 93102  0  0  1  0  0  0  0  0999 V2000
  -31.9380  -18.7300   22.4660 C   0  0  0  0  0  3  0  0  0  0  0  0
  -31.2870  -17.7060   21.7590 C   0  0  0  0  0  3  0  0  0  0  0  0
  -30.5410  -20.3970   21.4040 C   0  0  0  0  0  0  0  0  0  0  0  0
  -29.8360  -19.3830   20.6940 C   0  0  0  0  0  0  0  0  0  0  0  0
  -31.5920  -20.0780   22.3010 C   0  0  0  0  0  0  0  0  0  0  0  0
  -30.2290  -17.8930   20.8310 C   0  0  0  0  0  0  0  0  0  0  0  0
  -30.0560  -21.8290   21.1500 C   0  0  0  0  0  0  0  0  0  0  0  0
  -28.7760  -20.3530   19.9500 C   0  0  0  0  0  2  0  0  0  0  0  0
  -32.3680  -21.1040   23.1220 C   0  0  0  0  0  1  0  0  0  0  0  0
  -29.0030  -21.8820   20.3060 N   0  0  0  0  0  0  0  0  0  0  0  0
  -30.5420  -22.8220   21.6980 O   0  0  0  0  0  0  0  0  0  0  0  0
  -30.4550  -15.2250   20.1680 C   0  0  0  0  0  0  0  0  0  0  0  0
  -30.3260  -12.8850   19.1430 C   0  0  0  0  0  2  0  0  0  0  0  0
  -29.3500  -12.7860   17.9470 C   0  0  0  0  0  2  0  0  0  0  0  0
  -27.9120  -12.5110   18.4290 C   0  0  0  0  0  2  0  0  0  0  0  0
  -27.5130  -13.4050   19.6300 C   0  0  0  0  0  3  0  0  0  0  0  0
  -28.6100  -13.4870   20.7120 C   0  0  0  0  0  2  0  0  0  0  0  0
  -29.8290  -13.9720   20.0500 N   0  0  0  0  0  0  0  0  0  0  0  0
  -31.6620  -15.2200   19.8990 O   0  0  0  0  0  0  0  0  0  0  0  0
  -29.7510  -16.4930   20.3270 N   0  0  0  0  0  0  0  0  0  0  0  0
  -28.7530  -16.4260   20.2040 H   0  0  0  0  0  0  0  0  0  0  0  0
  -25.1490  -13.8900   20.4790 C   0  0  0  0  0  0  0  0  0  0  0  0
  -24.1220  -13.0740   20.8680 C   0  0  0  0  0  0  0  0  0  0  0  0
  -24.6240  -11.7390   20.7930 C   0  0  0  0  0  0  0  0  0  0  0  0
  -26.2090  -13.0490   20.1800 N   0  0  0  0  0  0  0  0  0  0  0  0
  -25.9040  -11.7490   20.4360 N   0  0  0  0  0  0  0  0  0  0  0  0
  -23.9390  -10.4520   20.9810 C   0  0  0  0  0  0  0  0  0  0  0  0
  -24.3930   -9.5050   21.9240 C   0  0  0  0  0  3  0  0  0  0  0  0
  -23.7040   -8.2860   22.1000 C   0  0  0  0  0  3  0  0  0  0  0  0
  -22.5480   -8.0050   21.3360 C   0  0  0  0  0  0  0  0  0  0  0  0
  -22.1130   -8.9420   20.3820 C   0  0  0  0  0  3  0  0  0  0  0  0
  -22.8010  -10.1530   20.2040 C   0  0  0  0  0  3  0  0  0  0  0  0
  -21.8310   -6.8350   21.4200 O   0  0  0  0  0  0  0  0  0  0  0  0
  -21.7540   -6.1200   22.5870 C   0  0  0  0  0  0  0  0  0  0  0  0
  -21.2090   -6.6740   23.7660 C   0  0  0  0  0  3  0  0  0  0  0  0
  -21.0860   -5.8840   24.9250 C   0  0  0  0  0  3  0  0  0  0  0  0
  -21.4960   -4.5370   24.9080 C   0  0  0  0  0  0  0  0  0  0  0  0
  -22.0310   -3.9800   23.7340 C   0  0  0  0  0  3  0  0  0  0  0  0
  -22.1580   -4.7680   22.5770 C   0  0  0  0  0  0  0  0  0  0  0  0
  -22.6560   -4.2210   21.4420 F   0  0  0  0  0  0  0  0  0  0  0  0
  -21.3710   -3.7750   26.0200 F   0  0  0  0  0  0  0  0  0  0  0  0
  -22.7220  -13.5070   21.1950 C   0  0  0  0  0  0  0  0  0  0  0  0
  -22.0360  -12.7660   22.0600 N   0  0  0  0  0  0  0  0  0  0  0  0
  -22.2430  -14.5340   20.7150 O   0  0  0  0  0  0  0  0  0  0  0  0
  -22.4350  -11.9410   22.4830 H   0  0  0  0  0  0  0  0  0  0  0  0
  -21.0940  -13.0310   22.3060 H   0  0  0  0  0  0  0  0  0  0  0  0
  -25.2610  -15.2690   20.3250 N   0  0  0  0  0  0  0  0  0  0  0  0
  -24.4660  -15.8850   20.4620 H   0  0  0  0  0  0  0  0  0  0  0  0
  -26.0830  -15.7570   19.9910 H   0  0  0  0  0  0  0  0  0  0  0  0
  -26.9430  -22.8670   19.1950 C   0  0  0  0  0  1  0  0  0  0  0  0
  -28.0820  -23.2090   20.1740 C   0  0  0  0  0  3  0  0  0  0  0  0
  -28.5860  -24.8160   19.8090 C   0  0  0  0  0  2  0  0  0  0  0  0
  -28.2800  -26.2900   20.3120 O   0  0  0  0  0  0  0  0  0  0  0  0
  -24.6090  -31.9440   23.2490 C   0  0  0  0  0  0  0  0  0  0  0  0
  -27.1870  -27.2300   20.1620 C   0  0  0  0  0  0  0  0  0  0  0  0
  -23.3970  -30.5510   21.6140 C   0  0  0  0  0  3  0  0  0  0  0  0
  -24.8370  -28.9720   20.1620 C   0  0  0  0  0  0  0  0  0  0  0  0
  -25.9480  -30.8150   21.4260 C   0  0  0  0  0  2  0  0  0  0  0  0
  -26.0200  -29.4280   20.7590 C   0  0  0  0  0  0  0  0  0  0  0  0
  -27.1860  -28.5720   20.7380 C   0  0  0  0  0  3  0  0  0  0  0  0
  -25.9820  -26.8770   19.5220 C   0  0  0  0  0  3  0  0  0  0  0  0
  -24.8360  -27.7140   19.5290 C   0  0  0  0  0  3  0  0  0  0  0  0
  -23.6030  -29.8660   20.2330 C   0  0  0  0  0  2  0  0  0  0  0  0
  -24.6720  -31.1300   22.1480 N   0  0  0  0  0  0  0  0  0  0  0  0
  -23.5250  -32.2220   23.7890 O   0  0  0  0  0  0  0  0  0  0  0  0
  -22.7320  -29.5440   22.5880 C   0  0  0  0  0  0  0  0  0  0  0  0
  -21.4070  -29.3490   22.4590 N   0  0  0  0  0  0  0  0  0  0  0  0
  -23.4110  -28.9400   23.4220 O   0  0  0  0  0  0  0  0  0  0  0  0
  -20.9140  -29.8870   21.7600 H   0  0  0  0  0  0  0  0  0  0  0  0
  -18.0440  -28.0900   22.9630 C   0  0  0  0  0  0  0  0  0  0  0  0
  -20.5980  -28.3980   23.2300 C   0  0  0  0  0  3  0  0  0  0  0  0
  -20.7240  -26.9660   22.6600 C   0  0  0  0  0  2  0  0  0  0  0  0
  -19.6290  -26.6210   21.6450 C   0  0  0  0  0  2  0  0  0  0  0  0
  -18.2440  -26.7440   22.2860 C   0  0  0  0  0  2  0  0  0  0  0  0
  -19.1490  -28.8740   23.3890 C   0  0  0  0  0  0  0  0  0  0  0  0
  -18.9040  -30.1320   23.9820 C   0  0  0  0  0  3  0  0  0  0  0  0
  -17.5900  -30.6080   24.1490 C   0  0  0  0  0  3  0  0  0  0  0  0
  -16.5000  -29.8220   23.7350 C   0  0  0  0  0  3  0  0  0  0  0  0
  -16.7280  -28.5640   23.1510 C   0  0  0  0  0  3  0  0  0  0  0  0
  -25.8880  -32.5860   23.8700 C   0  0  0  0  0  3  0  0  0  0  0  0
  -25.5780  -33.9900   24.1890 N   0  0  0  0  0  0  0  0  0  0  0  0
  -25.9120  -35.0420   23.4290 C   0  0  0  0  0  0  0  0  0  0  0  0
  -26.5780  -34.9310   22.3950 O   0  0  0  0  0  0  0  0  0  0  0  0
  -24.9890  -34.1470   24.9940 H   0  0  0  0  0  0  0  0  0  0  0  0
  -24.1930  -36.8430   23.0730 C   0  0  0  0  0  1  0  0  0  0  0  0
  -25.4350  -36.4330   23.8830 C   0  0  0  0  0  3  0  0  0  0  0  0
  -27.5690  -37.3200   24.7140 C   0  0  0  0  0  1  0  0  0  0  0  0
  -26.4700  -37.4830   23.7650 N   0  0  0  0  0  0  0  0  0  0  0  0
  -26.0650  -38.4060   23.9000 H   0  0  0  0  0  0  0  0  0  0  0  0
  -26.3950  -31.8330   25.1610 C   0  0  1  0  0  0  0  0  0  0  0  0
  -25.2910  -31.5910   26.2150 C   0  0  0  0  0  1  0  0  0  0  0  0
  -27.0060  -30.4620   24.7950 C   0  0  0  0  0  1  0  0  0  0  0  0
  -27.5240  -32.6530   25.8340 C   0  0  0  0  0  1  0  0  0  0  0  0
  2  1  2  0
  3  5  2  0
  4  6  2  0
  4  3  1  0
  5  1  1  0
  5  9  1  0
  6  2  1  0
  7  3  1  0
  7 11  2  0
  8 10  1  0
  8  4  1  0
 10  7  1  0
 12 20  1  0
 13 18  1  0
 14 15  1  0
 14 13  1  0
 16 15  1  0
 16 25  1  0
 16 17  1  0
 18 12  1  0
 18 17  1  0
 19 12  2  0
 20  6  1  0
 21 20  1  0
 22 23  2  0
 23 42  1  0
 24 23  1  0
 24 27  1  0
 25 26  1  0
 25 22  1  0
 26 24  2  0
 27 28  1  0
 28 29  2  0
 30 33  1  0
 30 29  1  0
 31 30  2  0
 32 31  1  0
 32 27  2  0
 33 34  1  0
 34 35  1  0
 35 36  2  0
 37 36  1  0
 37 41  1  0
 38 37  2  0
 39 34  2  0
 39 38  1  0
 40 39  1  0
 42 43  1  0
 43 46  1  0
 43 45  1  0
 44 42  2  0
 47 48  1  0
 47 22  1  0
 49 47  1  0
 51 50  1  0
 51 10  1  0
 52 51  1  0
 52 53  1  0
 54 65  2  0
 55 53  1  0
 55 60  1  0
 56 64  1  0
 56 66  1  0
 57 63  1  0
 57 59  1  0
 58 64  1  0
 59 58  1  0
 60 59  2  0
 61 62  1  0
 61 55  2  0
 62 57  2  0
 63 56  1  0
 64 54  1  0
 66 68  2  0
 67 66  1  0
 69 67  1  0
 70 79  2  0
 70 75  1  0
 71 67  1  0
 71 75  1  0
 72 71  1  0
 73 74  1  0
 73 72  1  0
 74 70  1  0
 75 76  2  0
 76 77  1  0
 78 77  2  0
 79 78  1  0
 80 54  1  0
 80 81  1  0
 80 90  1  0
 81 84  1  0
 82 86  1  0
 82 81  1  0
 83 82  2  0
 86 85  1  0
 88 86  1  0
 88 89  1  0
 88 87  1  0
 90 93  1  1
 90 91  1  0
 92 90  1  0
M  ISO  4  12 100  20 100  52 101  53 101
M  END
>  <TORSDO>  (80) 
F 18

>  <SCORE>  (80) 
-15.446

>  <name>  (80) 
79

>  <ligand_id>  (80) 
79

>  <original_smiles>  (80) 
[H]c1c([H])c([H])c2c(c1[H])C([H])([H])C([H])([H])C([H])([H])C2([H])N([H])C(=O)C1([H])N(C(=O)C([H])(N([H])C(=O)C([H])(N([H])C([H])([H])[H])C([H])([H])[H])C(C([H])([H])[H])(C([H])([H])[H])C([H])([H])[H])C([H])([H])c2c([H])c(OC([H])([H])C([H])(N3C(=O)c4c(C([H])([H])[H])c([H])c([H])c(N([H])C(=O)N5C([H])([H])C([H])([H])C([H])([H])C([H])(n6nc(-c7c([H])c([H])c(Oc8c([H])c([H])c(F)c([H])c8F)c([H])c7[H])c(C(=O)N([H])[H])c6N([H])[H])C5([H])[H])c4C3([H])[H])C([H])([H])[H])c([H])c([H])c2C1([H])[H]

>  <smiles>  (80) 
[H]c1c([H])c([H])c2c(c1[H])C([H])([H])C([H])([H])C([H])([H])C2([H])N([H])C(=O)C1([H])N(C(=O)C([H])(N([H])C(=O)C([H])(N([H])C([H])([H])[H])C([H])([H])[H])C(C([H])([H])[H])(C([H])([H])[H])C([H])([H])[H])C([H])([H])c2c([H])c(OC([H])([H])C([H])(N3C(=O)c4c(C([H])([H])[H])c([H])c([H])c(N([H])C(=O)N5C([H])([H])C([H])([H])C([H])([H])C([H])(n6nc(-c7c([H])c([H])c(Oc8c([H])c([H])c(F)c([H])c8F)c([H])c7[H])c(C(=O)N([H])[H])c6N([H])[H])C5([H])[H])c4C3([H])[H])C([H])([H])[H])c([H])c([H])c2C1([H])[H]

$$$$
80:0:0
     RDKit          3D

 92100  0  0  1  0  0  0  0  0999 V2000
  -28.6690  -21.8440   19.4760 N   0  0  0  0  0  4  0  0  0  0  0  0
  -29.4010  -21.8370   18.7860 H   0  0  0  0  0  0  0  0  0  0  0  0
  -29.0990  -21.9200   20.3840 H   0  0  0  0  0  0  0  0  0  0  0  0
  -27.9450  -20.5460   19.4010 C   0  0  0  0  0  2  0  0  0  0  0  0
  -28.1550  -18.0850   18.4870 C   0  0  0  0  0  2  0  0  0  0  0  0
  -27.9220  -17.5830   19.9110 C   0  0  0  0  0  2  0  0  0  0  0  0
  -28.8340  -19.3030   19.1380 C   0  0  0  0  0  3  0  0  0  0  0  0
  -29.0400  -18.4360   20.3210 N   0  0  0  0  0  0  0  0  0  0  0  0
  -30.3170  -17.6950   20.2900 C   0  0  0  0  0  2  0  0  0  0  0  0
  -30.5000  -16.7570   21.5160 C   0  0  0  0  0  2  0  0  0  0  0  0
  -30.6840  -14.4420   20.5560 C   0  0  0  0  0  0  0  0  0  0  0  0
  -30.3730  -12.3180   19.3360 C   0  0  0  0  0  2  0  0  0  0  0  0
  -29.4340  -12.5390   18.1340 C   0  0  0  0  0  2  0  0  0  0  0  0
  -27.9550  -12.4090   18.5520 C   0  0  0  0  0  2  0  0  0  0  0  0
  -27.6190  -13.2280   19.8260 C   0  0  0  0  0  3  0  0  0  0  0  0
  -28.6660  -12.9720   20.9330 C   0  0  0  0  0  2  0  0  0  0  0  0
  -29.9990  -13.2790   20.3840 N   0  0  0  0  0  0  0  0  0  0  0  0
  -31.7700  -14.6740   20.0170 O   0  0  0  0  0  0  0  0  0  0  0  0
  -30.0550  -15.3750   21.2850 N   0  0  0  0  0  0  0  0  0  0  0  0
  -29.1740  -15.1060   21.6960 H   0  0  0  0  0  0  0  0  0  0  0  0
  -25.2100  -13.8440   20.5030 C   0  0  0  0  0  0  0  0  0  0  0  0
  -24.1400  -13.0770   20.8760 C   0  0  0  0  0  0  0  0  0  0  0  0
  -24.6000  -11.7250   20.8600 C   0  0  0  0  0  0  0  0  0  0  0  0
  -26.2590  -12.9610   20.2910 N   0  0  0  0  0  0  0  0  0  0  0  0
  -25.8920  -11.6820   20.5600 N   0  0  0  0  0  0  0  0  0  0  0  0
  -23.8710  -10.4660   21.0540 C   0  0  0  0  0  0  0  0  0  0  0  0
  -24.3100   -9.4950   21.9820 C   0  0  0  0  0  3  0  0  0  0  0  0
  -23.5820   -8.2990   22.1640 C   0  0  0  0  0  3  0  0  0  0  0  0
  -22.4020   -8.0660   21.4190 C   0  0  0  0  0  0  0  0  0  0  0  0
  -21.9830   -9.0260   20.4800 C   0  0  0  0  0  3  0  0  0  0  0  0
  -22.7100  -10.2140   20.2960 C   0  0  0  0  0  3  0  0  0  0  0  0
  -21.6440   -6.9240   21.5110 O   0  0  0  0  0  0  0  0  0  0  0  0
  -21.6190   -6.1680   22.6560 C   0  0  0  0  0  0  0  0  0  0  0  0
  -21.2350   -6.7130   23.9010 C   0  0  0  0  0  3  0  0  0  0  0  0
  -21.1550   -5.8850   25.0380 C   0  0  0  0  0  3  0  0  0  0  0  0
  -21.4500   -4.5120   24.9320 C   0  0  0  0  0  0  0  0  0  0  0  0
  -21.8270   -3.9670   23.6930 C   0  0  0  0  0  3  0  0  0  0  0  0
  -21.9090   -4.7920   22.5580 C   0  0  0  0  0  0  0  0  0  0  0  0
  -22.2520   -4.2560   21.3620 F   0  0  0  0  0  0  0  0  0  0  0  0
  -21.3650   -3.7150   26.0230 F   0  0  0  0  0  0  0  0  0  0  0  0
  -22.7400  -13.5600   21.1350 C   0  0  0  0  0  0  0  0  0  0  0  0
  -22.0050  -12.8720   22.0030 N   0  0  0  0  0  0  0  0  0  0  0  0
  -22.3070  -14.5790   20.6010 O   0  0  0  0  0  0  0  0  0  0  0  0
  -22.3670  -12.0500   22.4610 H   0  0  0  0  0  0  0  0  0  0  0  0
  -21.0660  -13.1790   22.2140 H   0  0  0  0  0  0  0  0  0  0  0  0
  -25.3750  -15.2120   20.3090 N   0  0  0  0  0  0  0  0  0  0  0  0
  -24.6010  -15.8620   20.3910 H   0  0  0  0  0  0  0  0  0  0  0  0
  -26.2120  -15.6350   19.9330 H   0  0  0  0  0  0  0  0  0  0  0  0
  -27.7760  -23.0110   19.2130 C   0  0  0  0  0  2  0  0  0  0  0  0
  -28.4530  -24.4110   19.1580 C   0  0  0  0  0  2  0  0  0  0  0  0
  -28.2670  -25.2850   20.4240 C   0  0  0  0  0  2  0  0  0  0  0  0
  -28.3850  -26.6980   20.1640 O   0  0  0  0  0  0  0  0  0  0  0  0
  -24.5840  -31.8850   23.2380 C   0  0  0  0  0  0  0  0  0  0  0  0
  -27.2140  -27.4320   20.1510 C   0  0  0  0  0  0  0  0  0  0  0  0
  -23.3730  -30.4830   21.6010 C   0  0  0  0  0  3  0  0  0  0  0  0
  -24.8190  -28.9430   20.1720 C   0  0  0  0  0  0  0  0  0  0  0  0
  -25.8980  -30.8390   21.3930 C   0  0  0  0  0  2  0  0  0  0  0  0
  -25.9810  -29.4690   20.7510 C   0  0  0  0  0  0  0  0  0  0  0  0
  -27.1840  -28.7230   20.7290 C   0  0  0  0  0  3  0  0  0  0  0  0
  -26.0320  -26.9230   19.5690 C   0  0  0  0  0  3  0  0  0  0  0  0
  -24.8400  -27.6700   19.5770 C   0  0  0  0  0  3  0  0  0  0  0  0
  -23.5760  -29.8030   20.2210 C   0  0  0  0  0  2  0  0  0  0  0  0
  -24.6370  -31.0830   22.1360 N   0  0  0  0  0  0  0  0  0  0  0  0
  -23.5040  -32.1580   23.7800 O   0  0  0  0  0  0  0  0  0  0  0  0
  -22.7220  -29.4630   22.5630 C   0  0  0  0  0  0  0  0  0  0  0  0
  -21.3960  -29.2830   22.4390 N   0  0  0  0  0  0  0  0  0  0  0  0
  -23.4070  -28.8360   23.3760 O   0  0  0  0  0  0  0  0  0  0  0  0
  -20.9070  -29.8410   21.7530 H   0  0  0  0  0  0  0  0  0  0  0  0
  -18.0210  -28.0960   22.9410 C   0  0  0  0  0  0  0  0  0  0  0  0
  -20.5790  -28.3470   23.2110 C   0  0  0  0  0  3  0  0  0  0  0  0
  -20.6780  -26.9160   22.6350 C   0  0  0  0  0  2  0  0  0  0  0  0
  -19.5740  -26.5960   21.6220 C   0  0  0  0  0  2  0  0  0  0  0  0
  -18.1940  -26.7450   22.2670 C   0  0  0  0  0  2  0  0  0  0  0  0
  -19.1420  -28.8550   23.3700 C   0  0  0  0  0  0  0  0  0  0  0  0
  -18.9270  -30.1210   23.9590 C   0  0  0  0  0  3  0  0  0  0  0  0
  -17.6230  -30.6260   24.1240 C   0  0  0  0  0  3  0  0  0  0  0  0
  -16.5170  -29.8630   23.7130 C   0  0  0  0  0  3  0  0  0  0  0  0
  -16.7170  -28.6000   23.1270 C   0  0  0  0  0  3  0  0  0  0  0  0
  -25.8710  -32.5150   23.8550 C   0  0  0  0  0  3  0  0  0  0  0  0
  -25.5650  -33.9120   24.1860 N   0  0  0  0  0  0  0  0  0  0  0  0
  -25.8980  -34.9640   23.4270 C   0  0  0  0  0  0  0  0  0  0  0  0
  -26.5680  -34.8590   22.3950 O   0  0  0  0  0  0  0  0  0  0  0  0
  -24.9720  -34.0670   24.9880 H   0  0  0  0  0  0  0  0  0  0  0  0
  -24.1720  -36.7570   23.0710 C   0  0  0  0  0  1  0  0  0  0  0  0
  -25.4130  -36.3530   23.8840 C   0  0  0  0  0  3  0  0  0  0  0  0
  -27.5500  -37.2310   24.7130 C   0  0  0  0  0  1  0  0  0  0  0  0
  -26.4470  -37.4040   23.7720 N   0  0  0  0  0  0  0  0  0  0  0  0
  -26.0430  -38.3240   23.9220 H   0  0  0  0  0  0  0  0  0  0  0  0
  -26.3940  -31.7410   25.1270 C   0  0  1  0  0  0  0  0  0  0  0  0
  -25.3060  -31.5020   26.2000 C   0  0  0  0  0  1  0  0  0  0  0  0
  -26.9720  -30.3640   24.7260 C   0  0  0  0  0  1  0  0  0  0  0  0
  -27.5500  -32.5320   25.7820 C   0  0  0  0  0  1  0  0  0  0  0  0
  1  3  1  0
  2  1  1  0
  4  1  1  0
  5  7  1  0
  5  6  1  0
  6  8  1  0
  7  4  1  0
  7  8  1  0
  9  8  1  0
  9 10  1  0
 11 19  1  0
 12 17  1  0
 13 14  1  0
 13 12  1  0
 15 14  1  0
 15 24  1  0
 15 16  1  0
 17 11  1  0
 17 16  1  0
 18 11  2  0
 19 10  1  0
 19 20  1  0
 21 22  2  0
 22 41  1  0
 23 22  1  0
 23 26  1  0
 24 21  1  0
 24 25  1  0
 25 23  2  0
 26 27  1  0
 27 28  2  0
 29 32  1  0
 29 28  1  0
 30 29  2  0
 31 30  1  0
 31 26  2  0
 32 33  1  0
 33 34  1  0
 34 35  2  0
 36 35  1  0
 36 40  1  0
 37 36  2  0
 38 33  2  0
 38 37  1  0
 39 38  1  0
 41 42  1  0
 42 45  1  0
 42 44  1  0
 43 41  2  0
 46 47  1  0
 46 21  1  0
 48 46  1  0
 49  1  1  0
 50 49  1  0
 50 51  1  0
 52 51  1  0
 53 64  2  0
 54 52  1  0
 54 59  1  0
 55 63  1  0
 55 65  1  0
 56 62  1  0
 56 58  1  0
 57 63  1  0
 58 57  1  0
 59 58  2  0
 60 61  1  0
 60 54  2  0
 61 56  2  0
 62 55  1  0
 63 53  1  0
 65 67  2  0
 66 65  1  0
 68 66  1  0
 69 78  2  0
 69 74  1  0
 70 66  1  0
 70 74  1  0
 71 70  1  0
 72 73  1  0
 72 71  1  0
 73 69  1  0
 74 75  2  0
 75 76  1  0
 77 76  2  0
 78 77  1  0
 79 53  1  0
 79 80  1  0
 79 89  1  0
 80 83  1  0
 81 85  1  0
 81 80  1  0
 82 81  2  0
 85 84  1  0
 87 85  1  0
 87 88  1  0
 87 86  1  0
 89 92  1  1
 89 90  1  0
 91 89  1  0
M  ISO  4  11 100  19 100  51 101  52 101
M  END
>  <TORSDO>  (81) 
F 23

>  <SCORE>  (81) 
-13.040

>  <name>  (81) 
80

>  <ligand_id>  (81) 
80

>  <original_smiles>  (81) 
[H]c1c([H])c([H])c2c(c1[H])C([H])([H])C([H])([H])C([H])([H])C2([H])N([H])C(=O)C1([H])N(C(=O)C([H])(N([H])C(=O)C([H])(N([H])C([H])([H])[H])C([H])([H])[H])C(C([H])([H])[H])(C([H])([H])[H])C([H])([H])[H])C([H])([H])c2c([H])c(OC([H])([H])C([H])([H])C([H])([H])[N+]([H])([H])C([H])([H])C3([H])N(C([H])([H])C([H])([H])N([H])C(=O)N4C([H])([H])C([H])([H])C([H])([H])C([H])(n5nc(-c6c([H])c([H])c(Oc7c([H])c([H])c(F)c([H])c7F)c([H])c6[H])c(C(=O)N([H])[H])c5N([H])[H])C4([H])[H])C([H])([H])C3([H])[H])c([H])c([H])c2C1([H])[H]

>  <smiles>  (81) 
[H]c1c([H])c([H])c2c(c1[H])C([H])([H])C([H])([H])C([H])([H])C2([H])N([H])C(=O)C1([H])N(C(=O)C([H])(N([H])C(=O)C([H])(N([H])C([H])([H])[H])C([H])([H])[H])C(C([H])([H])[H])(C([H])([H])[H])C([H])([H])[H])C([H])([H])c2c([H])c(OC([H])([H])C([H])([H])C([H])([H])[N+]([H])([H])C([H])([H])C3([H])N(C([H])([H])C([H])([H])N([H])C(=O)N4C([H])([H])C([H])([H])C([H])([H])C([H])(n5nc(-c6c([H])c([H])c(Oc7c([H])c([H])c(F)c([H])c7F)c([H])c6[H])c(C(=O)N([H])[H])c5N([H])[H])C4([H])[H])C([H])([H])C3([H])[H])c([H])c([H])c2C1([H])[H]

$$$$
81:0:0
     RDKit          3D

 92101  0  0  1  0  0  0  0  0999 V2000
  -27.7910  -19.8110   20.5690 C   0  0  0  0  0  2  0  0  0  0  0  0
  -28.5070  -19.7770   18.1890 C   0  0  0  0  0  2  0  0  0  0  0  0
  -29.9450  -20.6530   20.6480 C   0  0  0  0  0  2  0  0  0  0  0  0
  -29.1870  -19.1910   20.8340 C   0  0  0  0  0  3  0  0  0  0  0  0
  -29.3930  -17.8730   19.8340 C   0  0  0  0  0  3  0  0  0  0  0  0
  -28.0610  -20.7620   19.3800 C   0  0  0  0  0  3  0  0  0  0  0  0
  -29.5190  -18.5470   18.4360 C   0  0  0  0  0  3  0  0  0  0  0  0
  -29.1340  -21.7130   19.8410 N   0  0  1  0  0  4  0  0  0  0  0  0
  -29.3300  -17.6310   17.4840 F   0  0  0  0  0  0  0  0  0  0  0  0
  -29.6840  -21.9010   19.0130 H   0  0  0  0  0  0  0  0  0  0  0  0
  -30.4790  -15.1630   19.8640 C   0  0  0  0  0  0  0  0  0  0  0  0
  -30.3900  -12.7820   18.9460 C   0  0  0  0  0  2  0  0  0  0  0  0
  -29.3770  -12.7060   17.7770 C   0  0  0  0  0  2  0  0  0  0  0  0
  -27.9410  -12.4890   18.2970 C   0  0  0  0  0  2  0  0  0  0  0  0
  -27.6090  -13.4020   19.5050 C   0  0  0  0  0  3  0  0  0  0  0  0
  -28.7310  -13.4080   20.5630 C   0  0  0  0  0  2  0  0  0  0  0  0
  -29.9490  -13.8650   19.8830 N   0  0  0  0  0  0  0  0  0  0  0  0
  -31.6400  -15.2730   19.4530 O   0  0  0  0  0  0  0  0  0  0  0  0
  -29.6310  -16.2940   20.1430 N   0  0  0  0  0  0  0  0  0  0  0  0
  -28.7830  -15.9170   20.5380 H   0  0  0  0  0  0  0  0  0  0  0  0
  -25.2890  -13.9760   20.4100 C   0  0  0  0  0  0  0  0  0  0  0  0
  -24.2470  -13.2030   20.8340 C   0  0  0  0  0  0  0  0  0  0  0  0
  -24.6950  -11.8490   20.7430 C   0  0  0  0  0  0  0  0  0  0  0  0
  -26.3060  -13.0990   20.0820 N   0  0  0  0  0  0  0  0  0  0  0  0
  -25.9620  -11.8090   20.3450 N   0  0  0  0  0  0  0  0  0  0  0  0
  -23.9690  -10.5900   20.9520 C   0  0  0  0  0  0  0  0  0  0  0  0
  -24.4330   -9.6100   21.8560 C   0  0  0  0  0  3  0  0  0  0  0  0
  -23.7040   -8.4170   22.0540 C   0  0  0  0  0  3  0  0  0  0  0  0
  -22.4970   -8.1980   21.3490 C   0  0  0  0  0  0  0  0  0  0  0  0
  -22.0520   -9.1660   20.4310 C   0  0  0  0  0  3  0  0  0  0  0  0
  -22.7800  -10.3510   20.2320 C   0  0  0  0  0  3  0  0  0  0  0  0
  -21.7370   -7.0590   21.4590 O   0  0  0  0  0  0  0  0  0  0  0  0
  -21.7110   -6.3190   22.6130 C   0  0  0  0  0  0  0  0  0  0  0  0
  -21.2800   -6.8690   23.8400 C   0  0  0  0  0  3  0  0  0  0  0  0
  -21.2060   -6.0560   24.9890 C   0  0  0  0  0  3  0  0  0  0  0  0
  -21.5470   -4.6930   24.9100 C   0  0  0  0  0  0  0  0  0  0  0  0
  -21.9690   -4.1420   23.6880 C   0  0  0  0  0  3  0  0  0  0  0  0
  -22.0470   -4.9520   22.5410 C   0  0  0  0  0  0  0  0  0  0  0  0
  -22.4350   -4.4120   21.3610 F   0  0  0  0  0  0  0  0  0  0  0  0
  -21.4680   -3.9080   26.0110 F   0  0  0  0  0  0  0  0  0  0  0  0
  -22.8760  -13.6870   21.2040 C   0  0  0  0  0  0  0  0  0  0  0  0
  -22.2000  -12.9840   22.1060 N   0  0  0  0  0  0  0  0  0  0  0  0
  -22.4160  -14.7260   20.7320 O   0  0  0  0  0  0  0  0  0  0  0  0
  -22.5870  -12.1460   22.5140 H   0  0  0  0  0  0  0  0  0  0  0  0
  -21.2810  -13.2880   22.3950 H   0  0  0  0  0  0  0  0  0  0  0  0
  -25.4480  -15.3500   20.2530 N   0  0  0  0  0  0  0  0  0  0  0  0
  -24.6770  -15.9890   20.4170 H   0  0  0  0  0  0  0  0  0  0  0  0
  -26.2440  -15.7930   19.8170 H   0  0  0  0  0  0  0  0  0  0  0  0
  -28.0810  -23.0860   21.7860 C   0  0  0  0  0  1  0  0  0  0  0  0
  -28.8520  -23.2040   20.4550 C   0  0  0  0  0  3  0  0  0  0  0  0
  -28.2750  -24.6190   19.6430 C   0  0  0  0  0  2  0  0  0  0  0  0
  -28.3290  -26.1540   20.0980 O   0  0  0  0  0  0  0  0  0  0  0  0
  -24.6530  -31.8440   23.1560 C   0  0  0  0  0  0  0  0  0  0  0  0
  -27.2700  -27.1580   20.0200 C   0  0  0  0  0  0  0  0  0  0  0  0
  -23.4680  -30.4720   21.4860 C   0  0  0  0  0  3  0  0  0  0  0  0
  -24.9300  -28.9310   20.0230 C   0  0  0  0  0  0  0  0  0  0  0  0
  -26.0210  -30.7430   21.3350 C   0  0  0  0  0  2  0  0  0  0  0  0
  -26.1060  -29.3600   20.6500 C   0  0  0  0  0  0  0  0  0  0  0  0
  -27.2700  -28.4880   20.6340 C   0  0  0  0  0  3  0  0  0  0  0  0
  -26.0660  -26.8580   19.3440 C   0  0  0  0  0  3  0  0  0  0  0  0
  -24.9270  -27.6950   19.3550 C   0  0  0  0  0  3  0  0  0  0  0  0
  -23.6950  -29.8200   20.0930 C   0  0  0  0  0  2  0  0  0  0  0  0
  -24.7330  -31.0420   22.0460 N   0  0  0  0  0  0  0  0  0  0  0  0
  -23.5650  -32.1080   23.6930 O   0  0  0  0  0  0  0  0  0  0  0  0
  -22.7980  -29.4410   22.4290 C   0  0  0  0  0  0  0  0  0  0  0  0
  -21.4720  -29.2680   22.3030 N   0  0  0  0  0  0  0  0  0  0  0  0
  -23.4770  -28.8010   23.2370 O   0  0  0  0  0  0  0  0  0  0  0  0
  -20.9810  -29.8470   21.6360 H   0  0  0  0  0  0  0  0  0  0  0  0
  -18.1110  -27.9960   22.7960 C   0  0  0  0  0  0  0  0  0  0  0  0
  -20.6640  -28.3000   23.0550 C   0  0  0  0  0  3  0  0  0  0  0  0
  -20.7900  -26.8810   22.4530 C   0  0  0  0  0  2  0  0  0  0  0  0
  -19.6870  -26.5540   21.4440 C   0  0  0  0  0  2  0  0  0  0  0  0
  -18.3080  -26.6620   22.0960 C   0  0  0  0  0  2  0  0  0  0  0  0
  -19.2160  -28.7700   23.2340 C   0  0  0  0  0  0  0  0  0  0  0  0
  -18.9760  -30.0150   23.8550 C   0  0  0  0  0  3  0  0  0  0  0  0
  -17.6620  -30.4900   24.0380 C   0  0  0  0  0  3  0  0  0  0  0  0
  -16.5700  -29.7150   23.6080 C   0  0  0  0  0  3  0  0  0  0  0  0
  -16.7970  -28.4690   22.9960 C   0  0  0  0  0  3  0  0  0  0  0  0
  -25.9260  -32.4780   23.7940 C   0  0  0  0  0  3  0  0  0  0  0  0
  -25.6050  -33.8730   24.1410 N   0  0  0  0  0  0  0  0  0  0  0  0
  -25.9210  -34.9400   23.3960 C   0  0  0  0  0  0  0  0  0  0  0  0
  -26.5790  -34.8560   22.3560 O   0  0  0  0  0  0  0  0  0  0  0  0
  -25.0160  -34.0130   24.9480 H   0  0  0  0  0  0  0  0  0  0  0  0
  -24.1740  -36.7280   23.0960 C   0  0  0  0  0  1  0  0  0  0  0  0
  -25.4320  -36.3200   23.8790 C   0  0  0  0  0  3  0  0  0  0  0  0
  -27.5680  -37.2220   24.6880 C   0  0  0  0  0  1  0  0  0  0  0  0
  -26.4540  -37.3830   23.7580 N   0  0  0  0  0  0  0  0  0  0  0  0
  -26.0420  -38.2990   23.9140 H   0  0  0  0  0  0  0  0  0  0  0  0
  -26.4370  -31.7010   25.0720 C   0  0  1  0  0  0  0  0  0  0  0  0
  -25.3370  -31.4560   26.1300 C   0  0  0  0  0  1  0  0  0  0  0  0
  -27.0320  -30.3270   24.6860 C   0  0  0  0  0  1  0  0  0  0  0  0
  -27.5800  -32.4960   25.7460 C   0  0  0  0  0  1  0  0  0  0  0  0
  2  7  1  0
  3  4  1  0
  4  1  1  0
  5 19  1  0
  5  4  1  0
  6  2  1  0
  6  8  1  0
  6  1  1  0
  7  9  1  0
  7  5  1  0
  8 50  1  0
  8  3  1  0
  8 10  1  6
 11 17  1  0
 11 19  1  0
 12 17  1  0
 13 14  1  0
 13 12  1  0
 15 14  1  0
 15 24  1  0
 15 16  1  0
 17 16  1  0
 18 11  2  0
 19 20  1  0
 21 22  2  0
 22 41  1  0
 23 22  1  0
 23 26  1  0
 24 25  1  0
 24 21  1  0
 25 23  2  0
 26 27  1  0
 27 28  2  0
 29 32  1  0
 29 28  1  0
 30 29  2  0
 31 30  1  0
 31 26  2  0
 32 33  1  0
 33 34  1  0
 34 35  2  0
 36 35  1  0
 36 40  1  0
 37 36  2  0
 38 33  2  0
 38 37  1  0
 39 38  1  0
 41 42  1  0
 42 45  1  0
 42 44  1  0
 43 41  2  0
 46 21  1  0
 46 47  1  0
 48 46  1  0
 50 49  1  0
 51 52  1  0
 51 50  1  0
 53 64  2  0
 54 52  1  0
 54 59  1  0
 55 63  1  0
 55 65  1  0
 56 62  1  0
 56 58  1  0
 57 63  1  0
 58 57  1  0
 59 58  2  0
 60 61  1  0
 60 54  2  0
 61 56  2  0
 62 55  1  0
 63 53  1  0
 65 67  2  0
 66 65  1  0
 68 66  1  0
 69 78  2  0
 69 74  1  0
 70 66  1  0
 70 74  1  0
 71 70  1  0
 72 73  1  0
 72 71  1  0
 73 69  1  0
 74 75  2  0
 75 76  1  0
 77 76  2  0
 78 77  1  0
 79 53  1  0
 79 80  1  0
 79 89  1  0
 80 83  1  0
 81 85  1  0
 81 80  1  0
 82 81  2  0
 85 84  1  0
 87 85  1  0
 87 88  1  0
 87 86  1  0
 89 92  1  1
 89 90  1  0
 91 89  1  0
M  ISO  4  11 100  19 100  51 101  52 101
M  END
>  <TORSDO>  (82) 
F 18

>  <SCORE>  (82) 
-14.762

>  <name>  (82) 
81

>  <ligand_id>  (82) 
81

>  <original_smiles>  (82) 
[H]c1c([H])c([H])c2c(c1[H])C([H])([H])C([H])([H])C([H])([H])C2([H])N([H])C(=O)C1([H])N(C(=O)C([H])(N([H])C(=O)C([H])(N([H])C([H])([H])[H])C([H])([H])[H])C(C([H])([H])[H])(C([H])([H])[H])C([H])([H])[H])C([H])([H])c2c([H])c(OC([H])([H])C([H])(C([H])([H])[H])[N+]3([H])C([H])([H])C4([H])C([H])([H])C3([H])C([H])([H])C([H])(F)C4([H])N([H])C(=O)N3C([H])([H])C([H])([H])C([H])([H])C([H])(n4nc(-c5c([H])c([H])c(Oc6c([H])c([H])c(F)c([H])c6F)c([H])c5[H])c(C(=O)N([H])[H])c4N([H])[H])C3([H])[H])c([H])c([H])c2C1([H])[H]

>  <smiles>  (82) 
[H]c1c([H])c([H])c2c(c1[H])C([H])([H])C([H])([H])C([H])([H])C2([H])N([H])C(=O)C1([H])N(C(=O)C([H])(N([H])C(=O)C([H])(N([H])C([H])([H])[H])C([H])([H])[H])C(C([H])([H])[H])(C([H])([H])[H])C([H])([H])[H])C([H])([H])c2c([H])c(OC([H])([H])C([H])(C([H])([H])[H])[N+]3([H])C([H])([H])C4([H])C([H])([H])C3([H])C([H])([H])C([H])(F)C4([H])N([H])C(=O)N3C([H])([H])C([H])([H])C([H])([H])C([H])(n4nc(-c5c([H])c([H])c(Oc6c([H])c([H])c(F)c([H])c6F)c([H])c5[H])c(C(=O)N([H])[H])c4N([H])[H])C3([H])[H])c([H])c([H])c2C1([H])[H]

$$$$
82:0:0
     RDKit          3D

101109  0  0  1  0  0  0  0  0999 V2000
  -29.4930  -18.8780   21.2930 C   0  0  0  0  0  0  0  0  0  0  0  0
  -30.4450  -20.6970   19.9680 C   0  0  0  0  0  2  0  0  0  0  0  0
  -30.0300  -18.8150   18.8900 C   0  0  0  0  0  3  0  0  0  0  0  0
  -30.3540  -20.4360   18.4570 C   0  0  0  0  0  3  0  0  0  0  0  0
  -30.3350  -19.2660   20.2490 N   0  0  0  0  0  0  0  0  0  0  0  0
  -28.2670  -18.8930   21.1720 O   0  0  0  0  0  0  0  0  0  0  0  0
  -31.3570  -14.8480   19.0230 C   0  0  0  0  0  0  0  0  0  0  0  0
  -31.0900  -12.3730   18.5010 C   0  0  0  0  0  2  0  0  0  0  0  0
  -30.0220  -12.1680   17.4020 C   0  0  0  0  0  2  0  0  0  0  0  0
  -28.6200  -12.0560   18.0270 C   0  0  0  0  0  2  0  0  0  0  0  0
  -28.3610  -13.1540   19.0920 C   0  0  0  0  0  3  0  0  0  0  0  0
  -29.5450  -13.3270   20.0700 C   0  0  0  0  0  2  0  0  0  0  0  0
  -30.7350  -13.6130   19.2580 N   0  0  0  0  0  0  0  0  0  0  0  0
  -32.5150  -14.7800   18.6010 O   0  0  0  0  0  0  0  0  0  0  0  0
  -30.9600  -17.4320   18.6710 C   0  0  0  0  0  0  0  0  0  0  0  0
  -30.6410  -16.0920   19.0810 N   0  0  0  0  0  0  0  0  0  0  0  0
  -32.0340  -17.6430   18.1060 O   0  0  0  0  0  0  0  0  0  0  0  0
  -29.7440  -16.0110   19.5330 H   0  0  0  0  0  0  0  0  0  0  0  0
  -26.2450  -13.9260   20.3020 C   0  0  0  0  0  0  0  0  0  0  0  0
  -25.1490  -13.2510   20.7640 C   0  0  0  0  0  0  0  0  0  0  0  0
  -25.3920  -11.8690   20.4960 C   0  0  0  0  0  0  0  0  0  0  0  0
  -27.0910  -12.9630   19.7830 N   0  0  0  0  0  0  0  0  0  0  0  0
  -26.5960  -11.7100   19.9600 N   0  0  0  0  0  0  0  0  0  0  0  0
  -24.5200  -10.6980   20.6620 C   0  0  0  0  0  0  0  0  0  0  0  0
  -24.8390   -9.6560   21.5610 C   0  0  0  0  0  3  0  0  0  0  0  0
  -23.9700   -8.5550   21.7170 C   0  0  0  0  0  3  0  0  0  0  0  0
  -22.7670   -8.4880   20.9730 C   0  0  0  0  0  0  0  0  0  0  0  0
  -22.4670   -9.5150   20.0620 C   0  0  0  0  0  3  0  0  0  0  0  0
  -23.3360  -10.6070   19.9030 C   0  0  0  0  0  3  0  0  0  0  0  0
  -21.8770   -7.4450   21.0410 O   0  0  0  0  0  0  0  0  0  0  0  0
  -21.6230   -6.7900   22.2200 C   0  0  0  0  0  0  0  0  0  0  0  0
  -21.0730   -7.4560   23.3380 C   0  0  0  0  0  3  0  0  0  0  0  0
  -20.7610   -6.7310   24.5050 C   0  0  0  0  0  3  0  0  0  0  0  0
  -20.9890   -5.3440   24.5570 C   0  0  0  0  0  0  0  0  0  0  0  0
  -21.5340   -4.6790   23.4450 C   0  0  0  0  0  3  0  0  0  0  0  0
  -21.8470   -5.4000   22.2780 C   0  0  0  0  0  0  0  0  0  0  0  0
  -22.3500   -4.7500   21.2010 F   0  0  0  0  0  0  0  0  0  0  0  0
  -20.6840   -4.6470   25.6760 F   0  0  0  0  0  0  0  0  0  0  0  0
  -23.9010  -13.8650   21.3290 C   0  0  0  0  0  0  0  0  0  0  0  0
  -23.2490  -13.1770   22.2590 N   0  0  0  0  0  0  0  0  0  0  0  0
  -23.5270  -14.9850   20.9820 O   0  0  0  0  0  0  0  0  0  0  0  0
  -23.5690  -12.2660   22.5550 H   0  0  0  0  0  0  0  0  0  0  0  0
  -22.4190  -13.5680   22.6810 H   0  0  0  0  0  0  0  0  0  0  0  0
  -26.5830  -15.2750   20.2560 N   0  0  0  0  0  0  0  0  0  0  0  0
  -25.9520  -16.0010   20.5780 H   0  0  0  0  0  0  0  0  0  0  0  0
  -27.4170  -15.6460   19.8230 H   0  0  0  0  0  0  0  0  0  0  0  0
  -29.5090  -22.9870   17.7600 C   0  0  0  0  0  0  0  0  0  0  0  0
  -29.3820  -21.5580   17.8560 N   0  0  0  0  0  0  0  0  0  0  0  0
  -30.5820  -23.4810   18.1150 O   0  0  0  0  0  0  0  0  0  0  0  0
  -28.4920  -21.2050   17.5310 H   0  0  0  0  0  0  0  0  0  0  0  0
  -28.3430  -24.0730   17.2430 C   0  0  0  0  0  2  0  0  0  0  0  0
  -28.4660  -25.6420   17.3540 O   0  0  0  0  0  0  0  0  0  0  0  0
  -24.7480  -29.9350   22.1030 C   0  0  0  0  0  0  0  0  0  0  0  0
  -27.3290  -26.4970   17.6530 C   0  0  0  0  0  0  0  0  0  0  0  0
  -23.4740  -28.8430   20.3000 C   0  0  0  0  0  3  0  0  0  0  0  0
  -24.8540  -27.8840   18.3510 C   0  0  0  0  0  0  0  0  0  0  0  0
  -25.9390  -29.4760   19.9240 C   0  0  0  0  0  2  0  0  0  0  0  0
  -26.0600  -28.3130   18.9190 C   0  0  0  0  0  0  0  0  0  0  0  0
  -27.2920  -27.6390   18.5580 C   0  0  0  0  0  3  0  0  0  0  0  0
  -26.0800  -26.1870   17.0710 C   0  0  0  0  0  3  0  0  0  0  0  0
  -24.8750  -26.8410   17.4140 C   0  0  0  0  0  3  0  0  0  0  0  0
  -23.5610  -28.5670   18.7740 C   0  0  0  0  0  2  0  0  0  0  0  0
  -24.7460  -29.4290   20.8320 N   0  0  0  0  0  0  0  0  0  0  0  0
  -23.7260  -29.9290   22.8080 O   0  0  0  0  0  0  0  0  0  0  0  0
  -23.0460  -27.5460   21.0310 C   0  0  0  0  0  0  0  0  0  0  0  0
  -21.7560  -27.1770   20.9230 N   0  0  0  0  0  0  0  0  0  0  0  0
  -23.8730  -26.8820   21.6610 O   0  0  0  0  0  0  0  0  0  0  0  0
  -21.1350  -27.7750   20.3960 H   0  0  0  0  0  0  0  0  0  0  0  0
  -18.7010  -25.2440   21.1620 C   0  0  0  0  0  0  0  0  0  0  0  0
  -21.1630  -25.9630   21.4920 C   0  0  0  0  0  3  0  0  0  0  0  0
  -21.5290  -24.7180   20.6500 C   0  0  0  0  0  2  0  0  0  0  0  0
  -20.4810  -24.3800   19.5840 C   0  0  0  0  0  2  0  0  0  0  0  0
  -19.1210  -24.1160   20.2350 C   0  0  0  0  0  2  0  0  0  0  0  0
  -19.6590  -26.1210   21.7390 C   0  0  0  0  0  0  0  0  0  0  0  0
  -19.2110  -27.1720   22.5680 C   0  0  0  0  0  3  0  0  0  0  0  0
  -17.8390  -27.3550   22.8220 C   0  0  0  0  0  3  0  0  0  0  0  0
  -16.8970  -26.4760   22.2590 C   0  0  0  0  0  3  0  0  0  0  0  0
  -17.3290  -25.4210   21.4350 C   0  0  0  0  0  3  0  0  0  0  0  0
  -26.0310  -30.5640   22.7280 C   0  0  0  0  0  3  0  0  0  0  0  0
  -25.6160  -31.7250   23.5320 N   0  0  0  0  0  0  0  0  0  0  0  0
  -25.9010  -33.0000   23.2380 C   0  0  0  0  0  0  0  0  0  0  0  0
  -26.6070  -33.3210   22.2780 O   0  0  0  0  0  0  0  0  0  0  0  0
  -24.9850  -31.5390   24.2980 H   0  0  0  0  0  0  0  0  0  0  0  0
  -24.1240  -34.7730   23.4480 C   0  0  0  0  0  1  0  0  0  0  0  0
  -25.3110  -34.0940   24.1510 C   0  0  0  0  0  3  0  0  0  0  0  0
  -27.3150  -34.6100   25.4740 C   0  0  0  0  0  1  0  0  0  0  0  0
  -26.2980  -35.1180   24.5570 N   0  0  0  0  0  0  0  0  0  0  0  0
  -25.8360  -35.9070   25.0010 H   0  0  0  0  0  0  0  0  0  0  0  0
  -26.8470  -29.5470   23.6190 C   0  0  1  0  0  0  0  0  0  0  0  0
  -25.9920  -28.8320   24.6910 C   0  0  0  0  0  1  0  0  0  0  0  0
  -27.5110  -28.4580   22.7450 C   0  0  0  0  0  1  0  0  0  0  0  0
  -27.9950  -30.2900   24.3430 C   0  0  0  0  0  1  0  0  0  0  0  0
  -30.1650  -18.2720   22.5410 C   0  0  0  0  0  3  0  0  0  0  0  0
  -30.9870  -17.0990   22.1850 N   0  0  0  0  0  0  0  0  0  0  0  0
  -31.2670  -16.5520   22.9880 H   0  0  0  0  0  0  0  0  0  0  0  0
  -31.8450  -17.3860   21.7280 H   0  0  0  0  0  0  0  0  0  0  0  0
  -31.0010  -19.3310   23.2920 C   0  0  0  0  0  2  0  0  0  0  0  0
  -31.2980  -18.9060   24.6700 N   0  0  0  0  0  4  0  0  0  0  0  0
  -31.8360  -19.6100   25.1410 H   0  0  0  0  0  0  0  0  0  0  0  0
  -31.8360  -18.0580   24.6650 H   0  0  0  0  0  0  0  0  0  0  0  0
  -30.4550  -18.7530   25.1920 H   0  0  0  0  0  0  0  0  0  0  0  0
  1 93  1  0
  2  5  1  0
  3 15  1  0
  3  5  1  0
  4 48  1  0
  4  3  1  0
  4  2  1  0
  5  1  1  0
  6  1  2  0
  7 16  1  0
  7 13  1  0
  8 13  1  0
  9 10  1  0
  9  8  1  0
 11 10  1  0
 11 22  1  0
 11 12  1  0
 13 12  1  0
 14  7  2  0
 15 16  1  0
 16 18  1  0
 17 15  2  0
 19 20  2  0
 20 39  1  0
 21 24  1  0
 21 20  1  0
 22 23  1  0
 22 19  1  0
 23 21  2  0
 24 25  1  0
 25 26  2  0
 27 30  1  0
 27 26  1  0
 28 27  2  0
 29 28  1  0
 29 24  2  0
 30 31  1  0
 31 36  2  0
 31 32  1  0
 32 33  2  0
 33 34  1  0
 34 38  1  0
 35 34  2  0
 36 35  1  0
 37 36  1  0
 39 40  1  0
 40 42  1  0
 40 43  1  0
 41 39  2  0
 44 19  1  0
 44 45  1  0
 46 44  1  0
 47 48  1  0
 47 49  2  0
 50 48  1  0
 51 52  1  0
 51 47  1  0
 52 54  1  0
 53 64  2  0
 54 59  1  0
 55 63  1  0
 55 65  1  0
 56 62  1  0
 56 58  1  0
 57 63  1  0
 58 57  1  0
 59 58  2  0
 60 61  1  0
 60 54  2  0
 61 56  2  0
 62 55  1  0
 63 53  1  0
 65 67  2  0
 66 65  1  0
 68 66  1  0
 69 78  2  0
 69 74  1  0
 70 66  1  0
 70 74  1  0
 71 70  1  0
 72 73  1  0
 72 71  1  0
 73 69  1  0
 74 75  2  0
 75 76  1  0
 77 76  2  0
 78 77  1  0
 79 53  1  0
 79 80  1  0
 79 89  1  0
 80 83  1  0
 81 80  1  0
 81 85  1  0
 82 81  2  0
 85 84  1  0
 85 87  1  0
 87 88  1  0
 87 86  1  0
 89 92  1  1
 89 90  1  0
 91 89  1  0
 93 97  1  0
 94 93  1  0
 94 95  1  0
 96 94  1  0
 97 98  1  0
 98 99  1  0
 98101  1  0
100 98  1  0
M  ISO  4   7 100  16 100  51 101  52 101
M  END
>  <TORSDO>  (83) 
F 22

>  <SCORE>  (83) 
-6.542

>  <name>  (83) 
82

>  <ligand_id>  (83) 
82

>  <original_smiles>  (83) 
[H]c1c([H])c([H])c2c(c1[H])C([H])([H])C([H])([H])C([H])([H])C2([H])N([H])C(=O)C1([H])N(C(=O)C([H])(N([H])C(=O)C([H])(N([H])C([H])([H])[H])C([H])([H])[H])C(C([H])([H])[H])(C([H])([H])[H])C([H])([H])[H])C([H])([H])c2c([H])c(OC([H])([H])C(=O)N([H])C3([H])C([H])([H])N(C(=O)C([H])(N([H])[H])C([H])([H])[N+]([H])([H])[H])C3([H])C(=O)N([H])C(=O)N3C([H])([H])C([H])([H])C([H])([H])C([H])(n4nc(-c5c([H])c([H])c(Oc6c([H])c([H])c(F)c([H])c6F)c([H])c5[H])c(C(=O)N([H])[H])c4N([H])[H])C3([H])[H])c([H])c([H])c2C1([H])[H]

>  <smiles>  (83) 
[H]c1c([H])c([H])c2c(c1[H])C([H])([H])C([H])([H])C([H])([H])C2([H])N([H])C(=O)C1([H])N(C(=O)C([H])(N([H])C(=O)C([H])(N([H])C([H])([H])[H])C([H])([H])[H])C(C([H])([H])[H])(C([H])([H])[H])C([H])([H])[H])C([H])([H])c2c([H])c(OC([H])([H])C(=O)N([H])C3([H])C([H])([H])N(C(=O)C([H])(N([H])[H])C([H])([H])[N+]([H])([H])[H])C3([H])C(=O)N([H])C(=O)N3C([H])([H])C([H])([H])C([H])([H])C([H])(n4nc(-c5c([H])c([H])c(Oc6c([H])c([H])c(F)c([H])c6F)c([H])c5[H])c(C(=O)N([H])[H])c4N([H])[H])C3([H])[H])c([H])c([H])c2C1([H])[H]

$$$$
83:0:0
     RDKit          3D

 99107  0  0  1  0  0  0  0  0999 V2000
  -29.3280  -18.6330   20.1690 C   0  0  0  0  0  3  0  0  0  0  0  0
  -30.8740  -17.7330   21.8010 C   0  0  0  0  0  3  0  0  0  0  0  0
  -30.4820  -20.1850   21.6750 C   0  0  0  0  0  0  0  0  0  0  0  0
  -29.5710  -20.0110   20.5860 C   0  0  0  0  0  0  0  0  0  0  0  0
  -29.9750  -17.4660   20.7500 C   0  0  0  0  0  0  0  0  0  0  0  0
  -31.1230  -19.0460   22.2640 C   0  0  0  0  0  0  0  0  0  0  0  0
  -30.5130  -14.9410   20.2740 C   0  0  0  0  0  0  0  0  0  0  0  0
  -30.3820  -12.6440   19.2760 C   0  0  0  0  0  2  0  0  0  0  0  0
  -29.4310  -12.6520   18.0600 C   0  0  0  0  0  2  0  0  0  0  0  0
  -27.9740  -12.4260   18.5140 C   0  0  0  0  0  2  0  0  0  0  0  0
  -27.5740  -13.3270   19.7120 C   0  0  0  0  0  3  0  0  0  0  0  0
  -28.6470  -13.3070   20.8250 C   0  0  0  0  0  2  0  0  0  0  0  0
  -29.9210  -13.6990   20.2040 N   0  0  0  0  0  0  0  0  0  0  0  0
  -31.6980  -15.0720   19.9630 O   0  0  0  0  0  0  0  0  0  0  0  0
  -29.6840  -16.0490   20.4100 N   0  0  0  0  0  0  0  0  0  0  0  0
  -28.7030  -15.8310   20.3490 H   0  0  0  0  0  0  0  0  0  0  0  0
  -25.1860  -13.8460   20.4910 C   0  0  0  0  0  0  0  0  0  0  0  0
  -24.1480  -13.0420   20.8710 C   0  0  0  0  0  0  0  0  0  0  0  0
  -24.6440  -11.7030   20.8200 C   0  0  0  0  0  0  0  0  0  0  0  0
  -26.2470  -12.9960   20.2230 N   0  0  0  0  0  0  0  0  0  0  0  0
  -25.9290  -11.7010   20.4850 N   0  0  0  0  0  0  0  0  0  0  0  0
  -23.9530  -10.4200   21.0100 C   0  0  0  0  0  0  0  0  0  0  0  0
  -24.4040   -9.4680   21.9500 C   0  0  0  0  0  3  0  0  0  0  0  0
  -23.7130   -8.2520   22.1300 C   0  0  0  0  0  3  0  0  0  0  0  0
  -22.5520   -7.9760   21.3680 C   0  0  0  0  0  0  0  0  0  0  0  0
  -22.1150   -8.9170   20.4180 C   0  0  0  0  0  3  0  0  0  0  0  0
  -22.8130  -10.1260   20.2370 C   0  0  0  0  0  3  0  0  0  0  0  0
  -21.8320   -6.8080   21.4530 O   0  0  0  0  0  0  0  0  0  0  0  0
  -21.7710   -6.0850   22.6150 C   0  0  0  0  0  0  0  0  0  0  0  0
  -21.2350   -6.6280   23.8040 C   0  0  0  0  0  3  0  0  0  0  0  0
  -21.1290   -5.8280   24.9580 C   0  0  0  0  0  3  0  0  0  0  0  0
  -21.5450   -4.4830   24.9250 C   0  0  0  0  0  0  0  0  0  0  0  0
  -22.0740   -3.9390   23.7410 C   0  0  0  0  0  3  0  0  0  0  0  0
  -22.1840   -4.7370   22.5880 C   0  0  0  0  0  0  0  0  0  0  0  0
  -22.6740   -4.2030   21.4460 F   0  0  0  0  0  0  0  0  0  0  0  0
  -21.4350   -3.7110   26.0320 F   0  0  0  0  0  0  0  0  0  0  0  0
  -22.7430  -13.4810   21.1690 C   0  0  0  0  0  0  0  0  0  0  0  0
  -22.0430  -12.7570   22.0350 N   0  0  0  0  0  0  0  0  0  0  0  0
  -22.2720  -14.5030   20.6670 O   0  0  0  0  0  0  0  0  0  0  0  0
  -22.4310  -11.9330   22.4680 H   0  0  0  0  0  0  0  0  0  0  0  0
  -21.1020  -13.0360   22.2770 H   0  0  0  0  0  0  0  0  0  0  0  0
  -25.3120  -15.2190   20.3250 N   0  0  0  0  0  0  0  0  0  0  0  0
  -24.5300  -15.8510   20.4580 H   0  0  0  0  0  0  0  0  0  0  0  0
  -26.1320  -15.6800   19.9510 H   0  0  0  0  0  0  0  0  0  0  0  0
  -30.7710  -21.5730   22.1860 C   0  0  0  0  0  0  0  0  0  0  0  0
  -30.0860  -21.9430   23.2620 N   0  0  0  0  0  0  0  0  0  0  0  0
  -31.5810  -22.3150   21.6320 O   0  0  0  0  0  0  0  0  0  0  0  0
  -29.4330  -21.3010   23.6900 H   0  0  0  0  0  0  0  0  0  0  0  0
  -30.2230  -22.8570   23.6650 H   0  0  0  0  0  0  0  0  0  0  0  0
  -32.0260  -19.1550   23.3260 N   0  0  0  0  0  0  0  0  0  0  0  0
  -32.3190  -18.3330   23.8440 H   0  0  0  0  0  0  0  0  0  0  0  0
  -32.1100  -20.0200   23.8530 H   0  0  0  0  0  0  0  0  0  0  0  0
  -28.9580  -21.2650   19.7830 C   0  0  0  0  0  2  0  0  0  0  0  0
  -28.5600  -23.8830   19.8560 C   0  0  0  0  0  0  0  0  0  0  0  0
  -28.5040  -22.6000   20.3940 N   0  0  0  0  0  0  0  0  0  0  0  0
  -29.2310  -24.0910   18.8430 O   0  0  0  0  0  0  0  0  0  0  0  0
  -27.9760  -22.5190   21.2520 H   0  0  0  0  0  0  0  0  0  0  0  0
  -27.7380  -25.1120   20.4780 C   0  0  0  0  0  2  0  0  0  0  0  0
  -27.9520  -26.4960   19.9160 O   0  0  0  0  0  0  0  0  0  0  0  0
  -24.4760  -31.9670   23.1960 C   0  0  0  0  0  0  0  0  0  0  0  0
  -26.8740  -27.4100   19.9450 C   0  0  0  0  0  0  0  0  0  0  0  0
  -23.1840  -30.6430   21.5630 C   0  0  0  0  0  3  0  0  0  0  0  0
  -24.5500  -29.0980   20.0410 C   0  0  0  0  0  0  0  0  0  0  0  0
  -25.7220  -30.9090   21.2920 C   0  0  0  0  0  2  0  0  0  0  0  0
  -25.7510  -29.5430   20.6090 C   0  0  0  0  0  0  0  0  0  0  0  0
  -26.9180  -28.7130   20.5450 C   0  0  0  0  0  3  0  0  0  0  0  0
  -25.6540  -27.0350   19.3410 C   0  0  0  0  0  3  0  0  0  0  0  0
  -24.5070  -27.8540   19.3920 C   0  0  0  0  0  3  0  0  0  0  0  0
  -23.3350  -29.9990   20.1570 C   0  0  0  0  0  2  0  0  0  0  0  0
  -24.4830  -31.1900   22.0730 N   0  0  0  0  0  0  0  0  0  0  0  0
  -23.4210  -32.2520   23.7790 O   0  0  0  0  0  0  0  0  0  0  0  0
  -22.5340  -29.6150   22.5200 C   0  0  0  0  0  0  0  0  0  0  0  0
  -21.2050  -29.4340   22.4080 N   0  0  0  0  0  0  0  0  0  0  0  0
  -23.2240  -28.9820   23.3240 O   0  0  0  0  0  0  0  0  0  0  0  0
  -20.7060  -29.9980   21.7340 H   0  0  0  0  0  0  0  0  0  0  0  0
  -17.8450  -28.1910   22.9120 C   0  0  0  0  0  0  0  0  0  0  0  0
  -20.4010  -28.4830   23.1780 C   0  0  0  0  0  3  0  0  0  0  0  0
  -20.5190  -27.0540   22.6000 C   0  0  0  0  0  2  0  0  0  0  0  0
  -19.4210  -26.7200   21.5870 C   0  0  0  0  0  2  0  0  0  0  0  0
  -18.0380  -26.8460   22.2320 C   0  0  0  0  0  2  0  0  0  0  0  0
  -18.9550  -28.9660   23.3430 C   0  0  0  0  0  0  0  0  0  0  0  0
  -18.7190  -30.2230   23.9390 C   0  0  0  0  0  3  0  0  0  0  0  0
  -17.4080  -30.7060   24.1080 C   0  0  0  0  0  3  0  0  0  0  0  0
  -16.3130  -29.9280   23.6920 C   0  0  0  0  0  3  0  0  0  0  0  0
  -16.5330  -28.6720   23.1000 C   0  0  0  0  0  3  0  0  0  0  0  0
  -25.7950  -32.5560   23.7870 C   0  0  0  0  0  3  0  0  0  0  0  0
  -25.5390  -33.9620   24.1360 N   0  0  0  0  0  0  0  0  0  0  0  0
  -25.9000  -35.0100   23.3840 C   0  0  0  0  0  0  0  0  0  0  0  0
  -26.5540  -34.8920   22.3440 O   0  0  0  0  0  0  0  0  0  0  0  0
  -24.9570  -34.1290   24.9440 H   0  0  0  0  0  0  0  0  0  0  0  0
  -24.2600  -36.8870   23.0400 C   0  0  0  0  0  1  0  0  0  0  0  0
  -25.4710  -36.4120   23.8600 C   0  0  0  0  0  3  0  0  0  0  0  0
  -27.6290  -37.1940   24.7370 C   0  0  0  0  0  1  0  0  0  0  0  0
  -26.5530  -37.4180   23.7760 N   0  0  0  0  0  0  0  0  0  0  0  0
  -26.1860  -38.3550   23.9200 H   0  0  0  0  0  0  0  0  0  0  0  0
  -26.3190  -31.7630   25.0480 C   0  0  1  0  0  0  0  0  0  0  0  0
  -25.2460  -31.5570   26.1440 C   0  0  0  0  0  1  0  0  0  0  0  0
  -26.8440  -30.3680   24.6370 C   0  0  0  0  0  1  0  0  0  0  0  0
  -27.5110  -32.5160   25.6840 C   0  0  0  0  0  1  0  0  0  0  0  0
  1  4  2  0
  1  5  1  0
  2  6  1  0
  3 45  1  0
  3  6  2  0
  4  3  1  0
  5  2  2  0
  6 50  1  0
  7 15  1  0
  8 13  1  0
  9 10  1  0
  9  8  1  0
 11 10  1  0
 11 20  1  0
 11 12  1  0
 13  7  1  0
 13 12  1  0
 14  7  2  0
 15  5  1  0
 16 15  1  0
 17 18  2  0
 18 37  1  0
 19 18  1  0
 19 22  1  0
 20 21  1  0
 20 17  1  0
 21 19  2  0
 22 23  1  0
 23 24  2  0
 25 28  1  0
 25 24  1  0
 26 25  2  0
 27 26  1  0
 27 22  2  0
 28 29  1  0
 29 30  1  0
 30 31  2  0
 32 31  1  0
 32 36  1  0
 33 32  2  0
 34 29  2  0
 34 33  1  0
 35 34  1  0
 37 38  1  0
 38 41  1  0
 38 40  1  0
 39 37  2  0
 42 43  1  0
 42 17  1  0
 44 42  1  0
 45 46  1  0
 46 49  1  0
 46 48  1  0
 47 45  2  0
 50 51  1  0
 50 52  1  0
 53 55  1  0
 53  4  1  0
 54 55  1  0
 54 58  1  0
 55 57  1  0
 56 54  2  0
 59 61  1  0
 59 58  1  0
 60 71  2  0
 61 66  1  0
 62 70  1  0
 62 72  1  0
 63 69  1  0
 63 65  1  0
 64 70  1  0
 65 64  1  0
 66 65  2  0
 67 68  1  0
 67 61  2  0
 68 63  2  0
 69 62  1  0
 70 60  1  0
 72 74  2  0
 73 72  1  0
 75 73  1  0
 76 85  2  0
 76 81  1  0
 77 73  1  0
 77 81  1  0
 78 77  1  0
 79 80  1  0
 79 78  1  0
 80 76  1  0
 81 82  2  0
 82 83  1  0
 84 83  2  0
 85 84  1  0
 86 60  1  0
 86 87  1  0
 86 96  1  0
 87 90  1  0
 88 92  1  0
 88 87  1  0
 89 88  2  0
 92 91  1  0
 94 92  1  0
 94 95  1  0
 94 93  1  0
 96 99  1  1
 96 97  1  0
 98 96  1  0
M  ISO  4   7 100  15 100  58 101  59 101
M  END
>  <TORSDO>  (84) 
F 21

>  <SCORE>  (84) 
-13.542

>  <name>  (84) 
83

>  <ligand_id>  (84) 
83

>  <original_smiles>  (84) 
[H]c1c([H])c([H])c2c(c1[H])C([H])([H])C([H])([H])C([H])([H])C2([H])N([H])C(=O)C1([H])N(C(=O)C([H])(N([H])C(=O)C([H])(N([H])C([H])([H])[H])C([H])([H])[H])C(C([H])([H])[H])(C([H])([H])[H])C([H])([H])[H])C([H])([H])c2c([H])c(OC([H])([H])C(=O)N([H])C([H])([H])c3c([H])c(N([H])C(=O)N4C([H])([H])C([H])([H])C([H])([H])C([H])(n5nc(-c6c([H])c([H])c(Oc7c([H])c([H])c(F)c([H])c7F)c([H])c6[H])c(C(=O)N([H])[H])c5N([H])[H])C4([H])[H])c([H])c(N([H])[H])c3C(=O)N([H])[H])c([H])c([H])c2C1([H])[H]

>  <smiles>  (84) 
[H]c1c([H])c([H])c2c(c1[H])C([H])([H])C([H])([H])C([H])([H])C2([H])N([H])C(=O)C1([H])N(C(=O)C([H])(N([H])C(=O)C([H])(N([H])C([H])([H])[H])C([H])([H])[H])C(C([H])([H])[H])(C([H])([H])[H])C([H])([H])[H])C([H])([H])c2c([H])c(OC([H])([H])C(=O)N([H])C([H])([H])c3c([H])c(N([H])C(=O)N4C([H])([H])C([H])([H])C([H])([H])C([H])(n5nc(-c6c([H])c([H])c(Oc7c([H])c([H])c(F)c([H])c7F)c([H])c6[H])c(C(=O)N([H])[H])c5N([H])[H])C4([H])[H])c([H])c(N([H])[H])c3C(=O)N([H])[H])c([H])c([H])c2C1([H])[H]

$$$$
84:0:0
     RDKit          3D

 97106  0  0  1  0  0  0  0  0999 V2000
  -29.6000  -22.6830   19.6880 C   0  0  0  0  0  2  0  0  0  0  0  0
  -30.0480  -24.0020   21.6870 C   0  0  0  0  0  2  0  0  0  0  0  0
  -30.4850  -21.7670   20.6300 C   0  0  0  0  0  3  0  0  0  0  0  0
  -30.2800  -22.4880   21.9830 C   0  0  0  0  0  3  0  0  0  0  0  0
  -29.5730  -24.1930   20.2210 C   0  0  1  0  0  0  0  0  0  0  0  0
  -30.5980  -25.0400   19.4310 C   0  0  0  0  0  1  0  0  0  0  0  0
  -30.6310  -19.3700   21.7800 C   0  0  0  0  0  3  0  0  0  0  0  0
  -30.5610  -17.9460   21.7840 C   0  0  0  0  0  3  0  0  0  0  0  0
  -30.0560  -19.4070   19.4640 C   0  0  0  0  0  3  0  0  0  0  0  0
  -30.3530  -20.1690   20.6280 C   0  0  0  0  0  0  0  0  0  0  0  0
  -29.9720  -17.9720   19.4590 C   0  0  0  0  0  0  0  0  0  0  0  0
  -30.2070  -17.1950   20.6330 C   0  0  0  0  0  0  0  0  0  0  0  0
  -29.5860  -17.2710   18.1710 C   0  0  0  0  0  1  0  0  0  0  0  0
  -30.6090  -14.6550   20.3120 C   0  0  0  0  0  0  0  0  0  0  0  0
  -30.3050  -12.4380   19.2180 C   0  0  0  0  0  2  0  0  0  0  0  0
  -29.3320  -12.5780   18.0240 C   0  0  0  0  0  2  0  0  0  0  0  0
  -27.8790  -12.3860   18.4980 C   0  0  0  0  0  2  0  0  0  0  0  0
  -27.5400  -13.2420   19.7460 C   0  0  0  0  0  3  0  0  0  0  0  0
  -28.6370  -13.1200   20.8350 C   0  0  0  0  0  2  0  0  0  0  0  0
  -29.9340  -13.4570   20.2250 N   0  0  0  0  0  0  0  0  0  0  0  0
  -31.7560  -14.7670   19.8860 O   0  0  0  0  0  0  0  0  0  0  0  0
  -29.9070  -15.7580   20.7350 N   0  0  0  0  0  0  0  0  0  0  0  0
  -28.9950  -15.5440   21.1060 H   0  0  0  0  0  0  0  0  0  0  0  0
  -25.1530  -13.8000   20.5370 C   0  0  0  0  0  0  0  0  0  0  0  0
  -24.1000  -13.0110   20.9190 C   0  0  0  0  0  0  0  0  0  0  0  0
  -24.5740  -11.6640   20.8580 C   0  0  0  0  0  0  0  0  0  0  0  0
  -26.2020  -12.9360   20.2650 N   0  0  0  0  0  0  0  0  0  0  0  0
  -25.8580  -11.6450   20.5150 N   0  0  0  0  0  0  0  0  0  0  0  0
  -23.8630  -10.3930   21.0430 C   0  0  0  0  0  0  0  0  0  0  0  0
  -24.2950   -9.4340   21.9860 C   0  0  0  0  0  3  0  0  0  0  0  0
  -23.5840   -8.2280   22.1590 C   0  0  0  0  0  3  0  0  0  0  0  0
  -22.4230   -7.9710   21.3890 C   0  0  0  0  0  0  0  0  0  0  0  0
  -22.0100   -8.9190   20.4360 C   0  0  0  0  0  3  0  0  0  0  0  0
  -22.7250  -10.1150   20.2620 C   0  0  0  0  0  3  0  0  0  0  0  0
  -21.6840   -6.8140   21.4710 O   0  0  0  0  0  0  0  0  0  0  0  0
  -21.5960   -6.0960   22.6360 C   0  0  0  0  0  0  0  0  0  0  0  0
  -21.0550   -6.6520   23.8140 C   0  0  0  0  0  3  0  0  0  0  0  0
  -20.9210   -5.8580   24.9710 C   0  0  0  0  0  3  0  0  0  0  0  0
  -21.3150   -4.5070   24.9480 C   0  0  0  0  0  0  0  0  0  0  0  0
  -21.8540   -3.9510   23.7740 C   0  0  0  0  0  3  0  0  0  0  0  0
  -21.9900   -4.7430   22.6200 C   0  0  0  0  0  0  0  0  0  0  0  0
  -22.4870   -4.1960   21.4860 F   0  0  0  0  0  0  0  0  0  0  0  0
  -21.1820   -3.7400   26.0570 F   0  0  0  0  0  0  0  0  0  0  0  0
  -22.7050  -13.4710   21.2280 C   0  0  0  0  0  0  0  0  0  0  0  0
  -21.9990  -12.7620   22.1030 N   0  0  0  0  0  0  0  0  0  0  0  0
  -22.2470  -14.4980   20.7320 O   0  0  0  0  0  0  0  0  0  0  0  0
  -22.3820  -11.9350   22.5370 H   0  0  0  0  0  0  0  0  0  0  0  0
  -21.0650  -13.0590   22.3440 H   0  0  0  0  0  0  0  0  0  0  0  0
  -25.2980  -15.1770   20.3790 N   0  0  0  0  0  0  0  0  0  0  0  0
  -24.5310  -15.8230   20.5170 H   0  0  0  0  0  0  0  0  0  0  0  0
  -26.1310  -15.6230   20.0160 H   0  0  0  0  0  0  0  0  0  0  0  0
  -31.3870  -22.2750   22.9430 N   0  0  0  0  0  4  0  0  0  0  0  0
  -32.2590  -22.6320   22.5910 H   0  0  0  0  0  0  0  0  0  0  0  0
  -31.5070  -21.2930   23.1210 H   0  0  0  0  0  0  0  0  0  0  0  0
  -31.1860  -22.7240   23.8190 H   0  0  0  0  0  0  0  0  0  0  0  0
  -28.2080  -25.0280   20.0890 C   0  0  0  0  0  2  0  0  0  0  0  0
  -28.3000  -26.5060   20.2250 O   0  0  0  0  0  0  0  0  0  0  0  0
  -24.5150  -31.8550   23.2120 C   0  0  0  0  0  0  0  0  0  0  0  0
  -27.1460  -27.3060   20.1830 C   0  0  0  0  0  0  0  0  0  0  0  0
  -23.3110  -30.4570   21.5720 C   0  0  0  0  0  3  0  0  0  0  0  0
  -24.7660  -28.8990   20.1580 C   0  0  0  0  0  0  0  0  0  0  0  0
  -25.8510  -30.7790   21.3930 C   0  0  0  0  0  2  0  0  0  0  0  0
  -25.9360  -29.4050   20.7390 C   0  0  0  0  0  0  0  0  0  0  0  0
  -27.1280  -28.6250   20.7290 C   0  0  0  0  0  3  0  0  0  0  0  0
  -25.9390  -26.8290   19.6200 C   0  0  0  0  0  3  0  0  0  0  0  0
  -24.7680  -27.6100   19.6010 C   0  0  0  0  0  3  0  0  0  0  0  0
  -23.5270  -29.7730   20.1970 C   0  0  0  0  0  2  0  0  0  0  0  0
  -24.5770  -31.0500   22.1120 N   0  0  0  0  0  0  0  0  0  0  0  0
  -23.4330  -32.1360   23.7470 O   0  0  0  0  0  0  0  0  0  0  0  0
  -22.6450  -29.4450   22.5330 C   0  0  0  0  0  0  0  0  0  0  0  0
  -21.3190  -29.2700   22.4000 N   0  0  0  0  0  0  0  0  0  0  0  0
  -23.3210  -28.8170   23.3520 O   0  0  0  0  0  0  0  0  0  0  0  0
  -20.8340  -29.8200   21.7050 H   0  0  0  0  0  0  0  0  0  0  0  0
  -17.9320  -28.1280   22.9270 C   0  0  0  0  0  0  0  0  0  0  0  0
  -20.4970  -28.3380   23.1710 C   0  0  0  0  0  3  0  0  0  0  0  0
  -20.5680  -26.9130   22.5730 C   0  0  0  0  0  2  0  0  0  0  0  0
  -19.4480  -26.6250   21.5670 C   0  0  0  0  0  2  0  0  0  0  0  0
  -18.0760  -26.7870   22.2290 C   0  0  0  0  0  2  0  0  0  0  0  0
  -19.0680  -28.8630   23.3550 C   0  0  0  0  0  0  0  0  0  0  0  0
  -18.8820  -30.1220   23.9640 C   0  0  0  0  0  3  0  0  0  0  0  0
  -17.5880  -30.6430   24.1570 C   0  0  0  0  0  3  0  0  0  0  0  0
  -16.4650  -29.9030   23.7500 C   0  0  0  0  0  3  0  0  0  0  0  0
  -16.6370  -28.6480   23.1380 C   0  0  0  0  0  3  0  0  0  0  0  0
  -25.8000  -32.4850   23.8380 C   0  0  0  0  0  3  0  0  0  0  0  0
  -26.3090  -31.7160   25.1180 C   0  0  1  0  0  0  0  0  0  0  0  0
  -25.2090  -31.4810   26.1780 C   0  0  0  0  0  1  0  0  0  0  0  0
  -26.9000  -30.3370   24.7370 C   0  0  0  0  0  1  0  0  0  0  0  0
  -27.4500  -32.5180   25.7880 C   0  0  0  0  0  1  0  0  0  0  0  0
  -25.4910  -33.8830   24.1660 N   0  0  0  0  0  0  0  0  0  0  0  0
  -25.8130  -34.9350   23.4020 C   0  0  0  0  0  0  0  0  0  0  0  0
  -26.4690  -34.8310   22.3620 O   0  0  0  0  0  0  0  0  0  0  0  0
  -24.9020  -34.0360   24.9710 H   0  0  0  0  0  0  0  0  0  0  0  0
  -24.0740  -36.7210   23.0690 C   0  0  0  0  0  1  0  0  0  0  0  0
  -25.3270  -36.3210   23.8640 C   0  0  0  0  0  3  0  0  0  0  0  0
  -27.4630  -37.2160   24.6800 C   0  0  0  0  0  1  0  0  0  0  0  0
  -26.3560  -37.3760   23.7400 N   0  0  0  0  0  0  0  0  0  0  0  0
  -25.9490  -38.2960   23.8840 H   0  0  0  0  0  0  0  0  0  0  0  0
  1  5  1  0
  1  3  1  0
  2  4  1  0
  3 10  1  0
  3  4  1  0
  4 52  1  0
  5  6  1  6
  5  2  1  0
  7  8  1  0
  9 10  1  0
 10  7  2  0
 11  9  2  0
 11 12  1  0
 12 22  1  0
 12  8  2  0
 13 11  1  0
 14 22  1  0
 15 20  1  0
 16 17  1  0
 16 15  1  0
 18 17  1  0
 18 27  1  0
 18 19  1  0
 20 14  1  0
 20 19  1  0
 21 14  2  0
 22 23  1  0
 24 25  2  0
 25 44  1  0
 26 25  1  0
 26 29  1  0
 27 28  1  0
 27 24  1  0
 28 26  2  0
 29 30  1  0
 30 31  2  0
 32 35  1  0
 32 31  1  0
 33 32  2  0
 34 33  1  0
 34 29  2  0
 35 36  1  0
 36 37  1  0
 37 38  2  0
 39 38  1  0
 39 43  1  0
 40 39  2  0
 41 36  2  0
 41 40  1  0
 42 41  1  0
 44 45  1  0
 45 48  1  0
 45 47  1  0
 46 44  2  0
 49 50  1  0
 49 24  1  0
 51 49  1  0
 52 54  1  0
 52 55  1  0
 53 52  1  0
 56  5  1  0
 56 57  1  0
 58 69  2  0
 59 57  1  0
 59 64  1  0
 60 68  1  0
 60 70  1  0
 61 67  1  0
 61 63  1  0
 62 68  1  0
 63 62  1  0
 64 63  2  0
 65 59  2  0
 66 65  1  0
 66 61  2  0
 67 60  1  0
 68 58  1  0
 70 72  2  0
 71 70  1  0
 73 71  1  0
 74 83  2  0
 74 79  1  0
 75 71  1  0
 75 79  1  0
 76 75  1  0
 77 78  1  0
 77 76  1  0
 78 74  1  0
 79 80  2  0
 80 81  1  0
 82 81  2  0
 83 82  1  0
 84 58  1  0
 84 89  1  0
 84 85  1  0
 85 88  1  1
 85 86  1  0
 87 85  1  0
 89 92  1  0
 90 94  1  0
 90 89  1  0
 91 90  2  0
 94 93  1  0
 96 94  1  0
 96 97  1  0
 96 95  1  0
M  ISO  4  14 100  22 100  56 101  57 101
M  END
>  <TORSDO>  (85) 
F 19

>  <SCORE>  (85) 
-14.401

>  <name>  (85) 
84

>  <ligand_id>  (85) 
84

>  <original_smiles>  (85) 
[H]c1c([H])c([H])c2c(c1[H])C([H])([H])C([H])([H])C([H])([H])C2([H])N([H])C(=O)C1([H])N(C(=O)C([H])(N([H])C(=O)C([H])(N([H])C([H])([H])[H])C([H])([H])[H])C(C([H])([H])[H])(C([H])([H])[H])C([H])([H])[H])C([H])([H])c2c([H])c(OC([H])([H])C3(C([H])([H])[H])C([H])([H])C([H])(c4c([H])c([H])c(N([H])C(=O)N5C([H])([H])C([H])([H])C([H])([H])C([H])(n6nc(-c7c([H])c([H])c(Oc8c([H])c([H])c(F)c([H])c8F)c([H])c7[H])c(C(=O)N([H])[H])c6N([H])[H])C5([H])[H])c(C([H])([H])[H])c4[H])C([H])([N+]([H])([H])[H])C3([H])[H])c([H])c([H])c2C1([H])[H]

>  <smiles>  (85) 
[H]c1c([H])c([H])c2c(c1[H])C([H])([H])C([H])([H])C([H])([H])C2([H])N([H])C(=O)C1([H])N(C(=O)C([H])(N([H])C(=O)C([H])(N([H])C([H])([H])[H])C([H])([H])[H])C(C([H])([H])[H])(C([H])([H])[H])C([H])([H])[H])C([H])([H])c2c([H])c(OC([H])([H])C3(C([H])([H])[H])C([H])([H])C([H])(c4c([H])c([H])c(N([H])C(=O)N5C([H])([H])C([H])([H])C([H])([H])C([H])(n6nc(-c7c([H])c([H])c(Oc8c([H])c([H])c(F)c([H])c8F)c([H])c7[H])c(C(=O)N([H])[H])c6N([H])[H])C5([H])[H])c(C([H])([H])[H])c4[H])C([H])([N+]([H])([H])[H])C3([H])[H])c([H])c([H])c2C1([H])[H]

$$$$
85:0:0
     RDKit          3D

 98108  0  0  1  0  0  0  0  0999 V2000
  -28.8610  -22.4560   20.8580 C   0  0  0  0  0  2  0  0  0  0  0  0
  -30.0460  -23.5640   19.0620 C   0  0  0  0  0  2  0  0  0  0  0  0
  -29.2930  -21.4120   19.7800 C   0  0  0  0  0  3  0  0  0  0  0  0
  -29.3160  -23.9030   20.3900 C   0  0  2  0  0  0  0  0  0  0  0  0
  -30.3090  -24.4830   21.4190 C   0  0  0  0  0  1  0  0  0  0  0  0
  -30.6350  -21.6000   17.6770 C   0  0  0  0  0  1  0  0  0  0  0  0
  -30.3760  -22.1080   19.0470 N   0  0  1  0  0  4  0  0  0  0  0  0
  -31.2190  -21.9950   19.5870 H   0  0  0  0  0  0  0  0  0  0  0  0
  -30.7850  -19.2830   20.4090 C   0  0  0  0  0  3  0  0  0  0  0  0
  -30.9310  -17.8710   20.5840 C   0  0  0  0  0  3  0  0  0  0  0  0
  -28.4050  -19.0210   20.2400 C   0  0  0  0  0  3  0  0  0  0  0  0
  -29.5170  -19.8980   20.1910 C   0  0  0  0  0  0  0  0  0  0  0  0
  -29.8090  -16.9970   20.5710 C   0  0  0  0  0  0  0  0  0  0  0  0
  -28.5320  -17.6080   20.4250 C   0  0  0  0  0  0  0  0  0  0  0  0
  -30.6480  -14.5590   20.1680 C   0  0  0  0  0  0  0  0  0  0  0  0
  -30.4590  -12.3880   18.9680 C   0  0  0  0  0  2  0  0  0  0  0  0
  -29.4720  -12.5790   17.7960 C   0  0  0  0  0  2  0  0  0  0  0  0
  -28.0170  -12.3630   18.2610 C   0  0  0  0  0  2  0  0  0  0  0  0
  -27.6860  -13.1350   19.5660 C   0  0  0  0  0  3  0  0  0  0  0  0
  -28.7820  -12.9160   20.6340 C   0  0  0  0  0  2  0  0  0  0  0  0
  -30.0680  -13.3230   20.0430 N   0  0  0  0  0  0  0  0  0  0  0  0
  -31.7790  -14.7840   19.7250 O   0  0  0  0  0  0  0  0  0  0  0  0
  -29.8440  -15.5390   20.6840 N   0  0  0  0  0  0  0  0  0  0  0  0
  -28.9980  -15.1680   21.0920 H   0  0  0  0  0  0  0  0  0  0  0  0
  -25.2630  -13.6270   20.2660 C   0  0  0  0  0  0  0  0  0  0  0  0
  -24.2440  -12.8150   20.6840 C   0  0  0  0  0  0  0  0  0  0  0  0
  -24.7830  -11.4930   20.7110 C   0  0  0  0  0  0  0  0  0  0  0  0
  -26.3570  -12.8000   20.0720 N   0  0  0  0  0  0  0  0  0  0  0  0
  -26.0730  -11.5120   20.3960 N   0  0  0  0  0  0  0  0  0  0  0  0
  -24.1300  -10.2020   20.9630 C   0  0  0  0  0  0  0  0  0  0  0  0
  -24.5700   -9.3400   21.9900 C   0  0  0  0  0  3  0  0  0  0  0  0
  -23.9160   -8.1120   22.2240 C   0  0  0  0  0  3  0  0  0  0  0  0
  -22.8060   -7.7370   21.4300 C   0  0  0  0  0  0  0  0  0  0  0  0
  -22.3850   -8.5890   20.3940 C   0  0  0  0  0  3  0  0  0  0  0  0
  -23.0420   -9.8090   20.1590 C   0  0  0  0  0  3  0  0  0  0  0  0
  -22.1240   -6.5530   21.5700 O   0  0  0  0  0  0  0  0  0  0  0  0
  -21.9610   -5.9540   22.7930 C   0  0  0  0  0  0  0  0  0  0  0  0
  -21.3370   -6.6190   23.8710 C   0  0  0  0  0  3  0  0  0  0  0  0
  -21.1270   -5.9430   25.0880 C   0  0  0  0  0  3  0  0  0  0  0  0
  -21.5320   -4.6010   25.2290 C   0  0  0  0  0  0  0  0  0  0  0  0
  -22.1500   -3.9360   24.1560 C   0  0  0  0  0  3  0  0  0  0  0  0
  -22.3610   -4.6100   22.9400 C   0  0  0  0  0  0  0  0  0  0  0  0
  -22.9370   -3.9580   21.9020 F   0  0  0  0  0  0  0  0  0  0  0  0
  -21.3220   -3.9480   26.3950 F   0  0  0  0  0  0  0  0  0  0  0  0
  -22.8250  -13.2270   20.9490 C   0  0  0  0  0  0  0  0  0  0  0  0
  -22.1440  -12.5350   21.8550 N   0  0  0  0  0  0  0  0  0  0  0  0
  -22.3260  -14.2010   20.3870 O   0  0  0  0  0  0  0  0  0  0  0  0
  -22.5590  -11.7490   22.3330 H   0  0  0  0  0  0  0  0  0  0  0  0
  -21.1930  -12.7950   22.0730 H   0  0  0  0  0  0  0  0  0  0  0  0
  -25.3460  -14.9910   20.0150 N   0  0  0  0  0  4  0  0  0  0  0  0
  -24.5430  -15.5980   20.1180 H   0  0  0  0  0  0  0  0  0  0  0  0
  -26.1920  -15.4910   19.7730 H   0  0  0  0  0  0  0  0  0  0  0  0
  -27.4400  -16.7600   20.4310 O   0  0  0  0  0  0  0  0  0  0  0  0
  -25.6090  -17.6790   19.0790 C   0  0  0  0  0  1  0  0  0  0  0  0
  -25.2360  -16.2820   21.1580 C   0  0  0  0  0  2  0  0  0  0  0  0
  -26.1310  -17.3260   20.4840 C   0  0  0  0  0  3  0  0  0  0  0  0
  -28.1330  -24.9580   20.2000 C   0  0  0  0  0  2  0  0  0  0  0  0
  -28.4210  -26.4050   20.0650 O   0  0  0  0  0  0  0  0  0  0  0  0
  -24.7930  -31.6960   23.3840 C   0  0  0  0  0  0  0  0  0  0  0  0
  -27.3230  -27.2800   20.0730 C   0  0  0  0  0  0  0  0  0  0  0  0
  -23.5810  -30.4630   21.6210 C   0  0  0  0  0  3  0  0  0  0  0  0
  -25.0110  -28.9630   20.1250 C   0  0  0  0  0  0  0  0  0  0  0  0
  -26.1320  -30.7030   21.5150 C   0  0  0  0  0  2  0  0  0  0  0  0
  -26.1810  -29.3700   20.7790 C   0  0  0  0  0  0  0  0  0  0  0  0
  -27.3410  -28.5420   20.7430 C   0  0  0  0  0  3  0  0  0  0  0  0
  -26.1330  -26.9310   19.3930 C   0  0  0  0  0  3  0  0  0  0  0  0
  -24.9870  -27.7500   19.4240 C   0  0  0  0  0  3  0  0  0  0  0  0
  -23.8050  -29.8760   20.2030 C   0  0  0  0  0  2  0  0  0  0  0  0
  -24.8540  -30.9650   22.2320 N   0  0  0  0  0  0  0  0  0  0  0  0
  -23.7080  -31.9760   23.9120 O   0  0  0  0  0  0  0  0  0  0  0  0
  -22.8580  -29.4080   22.4910 C   0  0  0  0  0  0  0  0  0  0  0  0
  -21.5300  -29.2900   22.3180 N   0  0  0  0  0  0  0  0  0  0  0  0
  -23.4900  -28.7030   23.2800 O   0  0  0  0  0  0  0  0  0  0  0  0
  -21.0800  -29.9140   21.6630 H   0  0  0  0  0  0  0  0  0  0  0  0
  -18.0880  -28.2510   22.7170 C   0  0  0  0  0  0  0  0  0  0  0  0
  -20.6560  -28.3340   23.0020 C   0  0  0  0  0  3  0  0  0  0  0  0
  -20.6750  -26.9590   22.2960 C   0  0  0  0  0  2  0  0  0  0  0  0
  -19.5590  -26.7960   21.2590 C   0  0  0  0  0  2  0  0  0  0  0  0
  -18.1870  -26.9620   21.9190 C   0  0  0  0  0  2  0  0  0  0  0  0
  -19.2490  -28.9030   23.2130 C   0  0  0  0  0  0  0  0  0  0  0  0
  -19.1030  -30.1160   23.9210 C   0  0  0  0  0  3  0  0  0  0  0  0
  -17.8300  -30.6770   24.1350 C   0  0  0  0  0  3  0  0  0  0  0  0
  -16.6840  -30.0200   23.6550 C   0  0  0  0  0  3  0  0  0  0  0  0
  -16.8130  -28.8070   22.9540 C   0  0  0  0  0  3  0  0  0  0  0  0
  -26.0830  -32.2330   24.0790 C   0  0  0  0  0  3  0  0  0  0  0  0
  -26.5050  -31.3850   25.3410 C   0  0  1  0  0  0  0  0  0  0  0  0
  -25.3610  -31.1740   26.3600 C   0  0  0  0  0  1  0  0  0  0  0  0
  -27.0190  -29.9900   24.9140 C   0  0  0  0  0  1  0  0  0  0  0  0
  -27.6780  -32.0800   26.0710 C   0  0  0  0  0  1  0  0  0  0  0  0
  -25.8350  -33.6310   24.4540 N   0  0  0  0  0  0  0  0  0  0  0  0
  -26.2170  -34.6920   23.7310 C   0  0  0  0  0  0  0  0  0  0  0  0
  -26.8850  -34.5910   22.6980 O   0  0  0  0  0  0  0  0  0  0  0  0
  -25.2440  -33.7870   25.2570 H   0  0  0  0  0  0  0  0  0  0  0  0
  -24.5680  -36.5690   23.4350 C   0  0  0  0  0  1  0  0  0  0  0  0
  -25.7920  -36.0860   24.2310 C   0  0  0  0  0  3  0  0  0  0  0  0
  -27.9650  -36.8500   25.0820 C   0  0  0  0  0  1  0  0  0  0  0  0
  -26.8710  -37.0960   24.1470 N   0  0  0  0  0  0  0  0  0  0  0  0
  -26.5060  -38.0270   24.3230 H   0  0  0  0  0  0  0  0  0  0  0  0
  2  4  1  0
  3 12  1  0
  3  1  1  0
  4  1  1  0
  4  5  1  1
  6  7  1  0
  7  2  1  0
  7  8  1  1
  7  3  1  0
  9 10  1  0
 11 14  2  0
 12 11  1  0
 12  9  2  0
 13 10  2  0
 13 23  1  0
 14 53  1  0
 14 13  1  0
 15 23  1  0
 16 21  1  0
 17 18  1  0
 17 16  1  0
 19 18  1  0
 19 28  1  0
 19 20  1  0
 21 15  1  0
 21 20  1  0
 22 15  2  0
 23 24  1  0
 25 26  2  0
 26 27  1  0
 26 45  1  0
 27 30  1  0
 28 25  1  0
 28 29  1  0
 29 27  2  0
 30 31  1  0
 31 32  2  0
 33 36  1  0
 33 32  1  0
 34 33  2  0
 35 34  1  0
 35 30  2  0
 36 37  1  0
 37 42  2  0
 37 38  1  0
 38 39  2  0
 39 40  1  0
 40 44  1  0
 41 40  2  0
 42 41  1  0
 43 42  1  0
 45 46  1  0
 46 49  1  0
 46 48  1  0
 47 45  2  0
 50 51  1  0
 50 25  1  0
 50 55  1  0
 52 50  1  0
 53 56  1  0
 56 54  1  0
 56 55  1  0
 57  4  1  0
 58 60  1  0
 58 57  1  0
 59 70  2  0
 60 65  1  0
 61 69  1  0
 61 71  1  0
 62 68  1  0
 62 64  1  0
 63 69  1  0
 64 63  1  0
 65 64  2  0
 66 67  1  0
 66 60  2  0
 67 62  2  0
 68 61  1  0
 69 59  1  0
 71 73  2  0
 72 71  1  0
 74 72  1  0
 75 84  2  0
 75 80  1  0
 76 72  1  0
 76 80  1  0
 77 76  1  0
 78 79  1  0
 78 77  1  0
 79 75  1  0
 80 81  2  0
 81 82  1  0
 83 82  2  0
 84 83  1  0
 85 59  1  0
 85 90  1  0
 85 86  1  0
 86 89  1  1
 86 87  1  0
 88 86  1  0
 90 93  1  0
 91 95  1  0
 91 90  1  0
 92 91  2  0
 95 94  1  0
 97 95  1  0
 97 98  1  0
 97 96  1  0
M  ISO  4  15 100  23 100  57 101  58 101
M  END
>  <TORSDO>  (86) 
F 20

>  <SCORE>  (86) 
-10.951

>  <name>  (86) 
85

>  <ligand_id>  (86) 
85

>  <original_smiles>  (86) 
[H]c1c([H])c([H])c2c(c1[H])C([H])([H])C([H])([H])C([H])([H])C2([H])N([H])C(=O)C1([H])N(C(=O)C([H])(N([H])C(=O)C([H])(N([H])C([H])([H])[H])C([H])([H])[H])C(C([H])([H])[H])(C([H])([H])[H])C([H])([H])[H])C([H])([H])c2c([H])c(OC([H])([H])C3(C([H])([H])[H])C([H])([H])C([H])(c4c([H])c([H])c(N([H])C(=O)N5C([H])([H])C([H])([H])C([H])([H])C([H])(n6nc(-c7c([H])c([H])c(Oc8c([H])c([H])c(F)c([H])c8F)c([H])c7[H])c(C(=O)N([H])[H])c6N([H])[H])C5([H])[H])c(OC([H])(C([H])([H])[H])C([H])([H])[H])c4[H])[N+]([H])(C([H])([H])[H])C3([H])[H])c([H])c([H])c2C1([H])[H]

>  <smiles>  (86) 
[H]c1c([H])c([H])c2c(c1[H])C([H])([H])C([H])([H])C([H])([H])C2([H])N([H])C(=O)C1([H])N(C(=O)C([H])(N([H])C(=O)C([H])(N([H])C([H])([H])[H])C([H])([H])[H])C(C([H])([H])[H])(C([H])([H])[H])C([H])([H])[H])C([H])([H])c2c([H])c(OC([H])([H])C3(C([H])([H])[H])C([H])([H])C([H])(c4c([H])c([H])c(N([H])C(=O)N5C([H])([H])C([H])([H])C([H])([H])C([H])(n6nc(-c7c([H])c([H])c(Oc8c([H])c([H])c(F)c([H])c8F)c([H])c7[H])c(C(=O)N([H])[H])c6N([H])[H])C5([H])[H])c(OC([H])(C([H])([H])[H])C([H])([H])[H])c4[H])[N+]([H])(C([H])([H])[H])C3([H])[H])c([H])c([H])c2C1([H])[H]

$$$$
86:0:0
     RDKit          3D

 96105  0  0  1  0  0  0  0  0999 V2000
  -29.0320  -21.8150   20.5680 C   0  0  0  0  0  0  0  0  0  0  0  0
  -28.4840  -22.7670   21.3460 N   0  0  0  0  0  0  0  0  0  0  0  0
  -29.5650  -22.0520   19.4800 O   0  0  0  0  0  0  0  0  0  0  0  0
  -28.0490  -22.4100   22.1890 H   0  0  0  0  0  0  0  0  0  0  0  0
  -28.7800  -20.3540   21.0580 C   0  0  0  0  0  0  0  0  0  0  0  0
  -30.2470  -17.6300   18.4550 C   0  0  0  0  0  2  0  0  0  0  0  0
  -28.8530  -17.6730   19.1070 C   0  0  0  0  0  2  0  0  0  0  0  0
  -30.9620  -19.3870   20.0920 C   0  0  0  0  0  2  0  0  0  0  0  0
  -31.1760  -17.9150   19.6570 C   0  0  0  0  0  3  0  0  0  0  0  0
  -29.1910  -17.9490   20.5930 C   0  0  0  0  0  3  0  0  0  0  0  0
  -30.5000  -17.1820   20.8230 C   0  0  0  0  0  3  0  0  0  0  0  0
  -29.5980  -19.3560   20.6380 N   0  0  0  0  0  0  0  0  0  0  0  0
  -27.7580  -20.1360   21.7180 O   0  0  0  0  0  0  0  0  0  0  0  0
  -31.0010  -14.7620   20.1510 C   0  0  0  0  0  0  0  0  0  0  0  0
  -30.6960  -12.5990   19.0050 C   0  0  0  0  0  2  0  0  0  0  0  0
  -29.7170  -12.8040   17.8290 C   0  0  0  0  0  2  0  0  0  0  0  0
  -28.2580  -12.6440   18.3030 C   0  0  0  0  0  2  0  0  0  0  0  0
  -27.9490  -13.4780   19.5710 C   0  0  0  0  0  3  0  0  0  0  0  0
  -29.0360  -13.2620   20.6490 C   0  0  0  0  0  2  0  0  0  0  0  0
  -30.3470  -13.5740   20.0470 N   0  0  0  0  0  0  0  0  0  0  0  0
  -32.1070  -14.9790   19.6460 O   0  0  0  0  0  0  0  0  0  0  0  0
  -30.2710  -15.7310   20.7190 N   0  0  0  0  0  0  0  0  0  0  0  0
  -29.3940  -15.4150   21.0990 H   0  0  0  0  0  0  0  0  0  0  0  0
  -25.5750  -14.0830   20.3610 C   0  0  0  0  0  0  0  0  0  0  0  0
  -24.5170  -13.3070   20.7500 C   0  0  0  0  0  0  0  0  0  0  0  0
  -24.9730  -11.9550   20.6830 C   0  0  0  0  0  0  0  0  0  0  0  0
  -26.6110  -13.2020   20.0850 N   0  0  0  0  0  0  0  0  0  0  0  0
  -26.2540  -11.9160   20.3360 N   0  0  0  0  0  0  0  0  0  0  0  0
  -24.2540  -10.6920   20.8800 C   0  0  0  0  0  0  0  0  0  0  0  0
  -24.6690   -9.7510   21.8480 C   0  0  0  0  0  3  0  0  0  0  0  0
  -23.9520   -8.5490   22.0300 C   0  0  0  0  0  3  0  0  0  0  0  0
  -22.8040   -8.2830   21.2460 C   0  0  0  0  0  0  0  0  0  0  0  0
  -22.4050   -9.2160   20.2730 C   0  0  0  0  0  3  0  0  0  0  0  0
  -23.1230  -10.4100   20.0910 C   0  0  0  0  0  3  0  0  0  0  0  0
  -22.0600   -7.1310   21.3340 O   0  0  0  0  0  0  0  0  0  0  0  0
  -21.9140   -6.4580   22.5190 C   0  0  0  0  0  0  0  0  0  0  0  0
  -21.3380   -7.0670   23.6560 C   0  0  0  0  0  3  0  0  0  0  0  0
  -21.1470   -6.3180   24.8350 C   0  0  0  0  0  3  0  0  0  0  0  0
  -21.5200   -4.9590   24.8750 C   0  0  0  0  0  0  0  0  0  0  0  0
  -22.0890   -4.3530   23.7420 C   0  0  0  0  0  3  0  0  0  0  0  0
  -22.2820   -5.0990   22.5670 C   0  0  0  0  0  0  0  0  0  0  0  0
  -22.8120   -4.5020   21.4710 F   0  0  0  0  0  0  0  0  0  0  0  0
  -21.3290   -4.2370   26.0020 F   0  0  0  0  0  0  0  0  0  0  0  0
  -23.1300  -13.7820   21.0720 C   0  0  0  0  0  0  0  0  0  0  0  0
  -22.4360  -13.0830   21.9640 N   0  0  0  0  0  0  0  0  0  0  0  0
  -22.6720  -14.8100   20.5710 O   0  0  0  0  0  0  0  0  0  0  0  0
  -22.8210  -12.2510   22.3860 H   0  0  0  0  0  0  0  0  0  0  0  0
  -21.5090  -13.3810   22.2340 H   0  0  0  0  0  0  0  0  0  0  0  0
  -25.7420  -15.4540   20.1970 N   0  0  0  0  0  0  0  0  0  0  0  0
  -24.9860  -16.1160   20.3310 H   0  0  0  0  0  0  0  0  0  0  0  0
  -26.5840  -15.8820   19.8370 H   0  0  0  0  0  0  0  0  0  0  0  0
  -27.1950  -24.7740   21.9480 C   0  0  0  0  0  1  0  0  0  0  0  0
  -28.0990  -24.1100   20.8960 C   0  0  0  0  0  3  0  0  0  0  0  0
  -29.3140  -24.9990   20.5190 C   0  0  0  0  0  2  0  0  0  0  0  0
  -29.0990  -25.8660   19.2620 C   0  0  0  0  0  2  0  0  0  0  0  0
  -28.8600  -27.2190   19.6430 O   0  0  0  0  0  0  0  0  0  0  0  0
  -24.6880  -31.7680   23.1230 C   0  0  0  0  0  0  0  0  0  0  0  0
  -27.5910  -27.7520   19.7140 C   0  0  0  0  0  0  0  0  0  0  0  0
  -23.5580  -30.4150   21.3840 C   0  0  0  0  0  3  0  0  0  0  0  0
  -25.0940  -29.0710   19.8610 C   0  0  0  0  0  0  0  0  0  0  0  0
  -26.0540  -30.9450   21.2100 C   0  0  0  0  0  2  0  0  0  0  0  0
  -26.2170  -29.6340   20.4720 C   0  0  0  0  0  0  0  0  0  0  0  0
  -27.4620  -28.9800   20.3980 C   0  0  0  0  0  3  0  0  0  0  0  0
  -26.4390  -27.1830   19.1180 C   0  0  0  0  0  3  0  0  0  0  0  0
  -25.1970  -27.8390   19.1920 C   0  0  0  0  0  3  0  0  0  0  0  0
  -23.8040  -29.8510   19.9580 C   0  0  0  0  0  2  0  0  0  0  0  0
  -24.7820  -31.0560   21.9620 N   0  0  0  0  0  0  0  0  0  0  0  0
  -23.5980  -31.9290   23.6870 O   0  0  0  0  0  0  0  0  0  0  0  0
  -22.9830  -29.2900   22.2720 C   0  0  0  0  0  0  0  0  0  0  0  0
  -21.6720  -29.0350   22.1430 N   0  0  0  0  0  0  0  0  0  0  0  0
  -23.7120  -28.6520   23.0360 O   0  0  0  0  0  0  0  0  0  0  0  0
  -21.1430  -29.5970   21.4910 H   0  0  0  0  0  0  0  0  0  0  0  0
  -18.3850  -27.6110   22.6140 C   0  0  0  0  0  0  0  0  0  0  0  0
  -20.9300  -27.9950   22.8570 C   0  0  0  0  0  3  0  0  0  0  0  0
  -21.1050  -26.6220   22.1670 C   0  0  0  0  0  2  0  0  0  0  0  0
  -19.9970  -26.3070   21.1600 C   0  0  0  0  0  2  0  0  0  0  0  0
  -18.6230  -26.3280   21.8370 C   0  0  0  0  0  2  0  0  0  0  0  0
  -19.4690  -28.3990   23.0840 C   0  0  0  0  0  0  0  0  0  0  0  0
  -19.1910  -29.6000   23.7740 C   0  0  0  0  0  3  0  0  0  0  0  0
  -17.8640  -30.0120   23.9990 C   0  0  0  0  0  3  0  0  0  0  0  0
  -16.7960  -29.2140   23.5520 C   0  0  0  0  0  3  0  0  0  0  0  0
  -17.0580  -28.0150   22.8650 C   0  0  0  0  0  3  0  0  0  0  0  0
  -25.9400  -32.4320   23.7760 C   0  0  0  0  0  3  0  0  0  0  0  0
  -26.4690  -31.6570   25.0440 C   0  0  1  0  0  0  0  0  0  0  0  0
  -25.3740  -31.3520   26.0900 C   0  0  0  0  0  1  0  0  0  0  0  0
  -27.1110  -30.3090   24.6360 C   0  0  0  0  0  1  0  0  0  0  0  0
  -27.5780  -32.4800   25.7390 C   0  0  0  0  0  1  0  0  0  0  0  0
  -25.5730  -33.8120   24.1250 N   0  0  0  0  0  0  0  0  0  0  0  0
  -25.8910  -34.8880   23.3950 C   0  0  0  0  0  0  0  0  0  0  0  0
  -26.5950  -34.8290   22.3820 O   0  0  0  0  0  0  0  0  0  0  0  0
  -24.9410  -33.9320   24.9020 H   0  0  0  0  0  0  0  0  0  0  0  0
  -24.1120  -36.6250   23.0170 C   0  0  0  0  0  1  0  0  0  0  0  0
  -25.3410  -36.2490   23.8590 C   0  0  0  0  0  3  0  0  0  0  0  0
  -27.4080  -37.1990   24.7780 C   0  0  0  0  0  1  0  0  0  0  0  0
  -26.3360  -37.3390   23.7980 N   0  0  0  0  0  0  0  0  0  0  0  0
  -25.8910  -38.2410   23.9430 H   0  0  0  0  0  0  0  0  0  0  0  0
  1  5  1  0
  1  2  1  0
  2  4  1  0
  3  1  2  0
  5 13  2  0
  6  7  1  0
  8 12  1  0
  9  6  1  0
  9  8  1  0
  9 11  1  0
 10  7  1  0
 10 12  1  0
 10 11  1  0
 11 22  1  0
 12  5  1  0
 14 22  1  0
 15 20  1  0
 16 17  1  0
 16 15  1  0
 18 17  1  0
 18 27  1  0
 18 19  1  0
 20 14  1  0
 20 19  1  0
 21 14  2  0
 22 23  1  0
 24 25  2  0
 25 44  1  0
 26 25  1  0
 26 29  1  0
 27 28  1  0
 27 24  1  0
 28 26  2  0
 29 30  1  0
 30 31  2  0
 32 35  1  0
 32 31  1  0
 33 32  2  0
 34 33  1  0
 34 29  2  0
 35 36  1  0
 36 41  2  0
 36 37  1  0
 37 38  2  0
 38 39  1  0
 39 43  1  0
 40 39  2  0
 41 40  1  0
 42 41  1  0
 44 45  1  0
 45 48  1  0
 45 47  1  0
 46 44  2  0
 49 50  1  0
 49 24  1  0
 51 49  1  0
 53  2  1  0
 53 52  1  0
 54 53  1  0
 55 56  1  0
 55 54  1  0
 56 58  1  0
 57 68  2  0
 58 63  1  0
 59 67  1  0
 59 69  1  0
 60 66  1  0
 60 62  1  0
 61 67  1  0
 62 61  1  0
 63 62  2  0
 64 65  1  0
 64 58  2  0
 65 60  2  0
 66 59  1  0
 67 57  1  0
 69 71  2  0
 70 69  1  0
 72 70  1  0
 73 82  2  0
 73 78  1  0
 74 70  1  0
 74 78  1  0
 75 74  1  0
 76 77  1  0
 76 75  1  0
 77 73  1  0
 78 79  2  0
 79 80  1  0
 81 80  2  0
 82 81  1  0
 83 57  1  0
 83 88  1  0
 83 84  1  0
 84 87  1  1
 84 85  1  0
 86 84  1  0
 88 91  1  0
 89 93  1  0
 89 88  1  0
 90 89  2  0
 93 92  1  0
 95 93  1  0
 95 96  1  0
 95 94  1  0
M  ISO  4  14 100  22 100  55 101  56 101
M  END
>  <TORSDO>  (87) 
F 20

>  <SCORE>  (87) 
-11.880

>  <name>  (87) 
86

>  <ligand_id>  (87) 
86

>  <original_smiles>  (87) 
[H]c1c([H])c([H])c2c(c1[H])C([H])([H])C([H])([H])C([H])([H])C2([H])N([H])C(=O)C1([H])N(C(=O)C([H])(N([H])C(=O)C([H])(N([H])C([H])([H])[H])C([H])([H])[H])C(C([H])([H])[H])(C([H])([H])[H])C([H])([H])[H])C([H])([H])c2c([H])c(OC([H])([H])C([H])([H])C([H])(N([H])C(=O)C(=O)N3C([H])([H])C4([H])C([H])([H])C([H])([H])C3([H])C4([H])N([H])C(=O)N3C([H])([H])C([H])([H])C([H])([H])C([H])(n4nc(-c5c([H])c([H])c(Oc6c([H])c([H])c(F)c([H])c6F)c([H])c5[H])c(C(=O)N([H])[H])c4N([H])[H])C3([H])[H])C([H])([H])[H])c([H])c([H])c2C1([H])[H]

>  <smiles>  (87) 
[H]c1c([H])c([H])c2c(c1[H])C([H])([H])C([H])([H])C([H])([H])C2([H])N([H])C(=O)C1([H])N(C(=O)C([H])(N([H])C(=O)C([H])(N([H])C([H])([H])[H])C([H])([H])[H])C(C([H])([H])[H])(C([H])([H])[H])C([H])([H])[H])C([H])([H])c2c([H])c(OC([H])([H])C([H])([H])C([H])(N([H])C(=O)C(=O)N3C([H])([H])C4([H])C([H])([H])C([H])([H])C3([H])C4([H])N([H])C(=O)N3C([H])([H])C([H])([H])C([H])([H])C([H])(n4nc(-c5c([H])c([H])c(Oc6c([H])c([H])c(F)c([H])c6F)c([H])c5[H])c(C(=O)N([H])[H])c4N([H])[H])C3([H])[H])C([H])([H])[H])c([H])c([H])c2C1([H])[H]

$$$$
87:0:0
     RDKit          3D

 99108  0  0  1  0  0  0  0  0999 V2000
  -26.7440  -22.2920   20.4870 C   0  0  0  0  0  2  0  0  0  0  0  0
  -27.1280  -23.2340   19.3500 C   0  0  0  0  0  2  0  0  0  0  0  0
  -27.8250  -22.5540   21.5570 C   0  0  0  0  0  3  0  0  0  0  0  0
  -27.6010  -24.4880   20.1030 C   0  0  0  0  0  3  0  0  0  0  0  0
  -28.0670  -24.8380   22.5450 C   0  0  0  0  0  1  0  0  0  0  0  0
  -28.2330  -23.9700   21.3540 N   0  0  1  0  0  4  0  0  0  0  0  0
  -29.2300  -23.8640   21.1880 H   0  0  0  0  0  0  0  0  0  0  0  0
  -29.0650  -21.6690   21.3460 C   0  0  0  0  0  0  0  0  0  0  0  0
  -28.8960  -20.3330   21.3140 N   0  0  0  0  0  0  0  0  0  0  0  0
  -30.1690  -22.2150   21.2320 O   0  0  0  0  0  0  0  0  0  0  0  0
  -28.0130  -19.9840   21.6620 H   0  0  0  0  0  0  0  0  0  0  0  0
  -31.2890  -18.8440   18.8440 C   0  0  0  0  0  3  0  0  0  0  0  0
  -30.5690  -19.7950   19.5760 C   0  0  0  0  0  3  0  0  0  0  0  0
  -31.1720  -17.4800   19.1540 C   0  0  0  0  0  3  0  0  0  0  0  0
  -29.6160  -18.0120   20.9490 C   0  0  0  0  0  3  0  0  0  0  0  0
  -29.7220  -19.3910   20.6370 C   0  0  0  0  0  0  0  0  0  0  0  0
  -30.3470  -17.0400   20.2220 C   0  0  0  0  0  0  0  0  0  0  0  0
  -30.8670  -14.5990   20.0900 C   0  0  0  0  0  0  0  0  0  0  0  0
  -30.5170  -12.4250   19.0130 C   0  0  0  0  0  2  0  0  0  0  0  0
  -29.5370  -12.6290   17.8390 C   0  0  0  0  0  2  0  0  0  0  0  0
  -28.0820  -12.4880   18.3230 C   0  0  0  0  0  2  0  0  0  0  0  0
  -27.7870  -13.3400   19.5870 C   0  0  0  0  0  3  0  0  0  0  0  0
  -28.8810  -13.1470   20.6590 C   0  0  0  0  0  2  0  0  0  0  0  0
  -30.1870  -13.4260   20.0370 N   0  0  0  0  0  0  0  0  0  0  0  0
  -32.0050  -14.7210   19.6300 O   0  0  0  0  0  0  0  0  0  0  0  0
  -30.1680  -15.6550   20.5500 N   0  0  0  0  0  0  0  0  0  0  0  0
  -29.3160  -15.4200   21.0350 H   0  0  0  0  0  0  0  0  0  0  0  0
  -25.4270  -13.9430   20.4180 C   0  0  0  0  0  0  0  0  0  0  0  0
  -24.3710  -13.1690   20.8170 C   0  0  0  0  0  0  0  0  0  0  0  0
  -24.8210  -11.8150   20.7320 C   0  0  0  0  0  0  0  0  0  0  0  0
  -26.4540  -13.0630   20.1190 N   0  0  0  0  0  0  0  0  0  0  0  0
  -26.0940  -11.7760   20.3630 N   0  0  0  0  0  0  0  0  0  0  0  0
  -24.0960  -10.5530   20.9250 C   0  0  0  0  0  0  0  0  0  0  0  0
  -24.5190   -9.5960   21.8760 C   0  0  0  0  0  3  0  0  0  0  0  0
  -23.7970   -8.3970   22.0570 C   0  0  0  0  0  3  0  0  0  0  0  0
  -22.6370   -8.1450   21.2870 C   0  0  0  0  0  0  0  0  0  0  0  0
  -22.2320   -9.0900   20.3260 C   0  0  0  0  0  3  0  0  0  0  0  0
  -22.9560  -10.2800   20.1430 C   0  0  0  0  0  3  0  0  0  0  0  0
  -21.8860   -6.9970   21.3750 O   0  0  0  0  0  0  0  0  0  0  0  0
  -21.7590   -6.3100   22.5560 C   0  0  0  0  0  0  0  0  0  0  0  0
  -21.2310   -6.9150   23.7170 C   0  0  0  0  0  3  0  0  0  0  0  0
  -21.0530   -6.1530   24.8900 C   0  0  0  0  0  3  0  0  0  0  0  0
  -21.3920   -4.7870   24.9010 C   0  0  0  0  0  0  0  0  0  0  0  0
  -21.9120   -4.1810   23.7430 C   0  0  0  0  0  3  0  0  0  0  0  0
  -22.0920   -4.9400   22.5740 C   0  0  0  0  0  0  0  0  0  0  0  0
  -22.5730   -4.3470   21.4560 F   0  0  0  0  0  0  0  0  0  0  0  0
  -21.2140   -4.0530   26.0230 F   0  0  0  0  0  0  0  0  0  0  0  0
  -22.9920  -13.6460   21.1660 C   0  0  0  0  0  0  0  0  0  0  0  0
  -22.2990  -12.9310   22.0460 N   0  0  0  0  0  0  0  0  0  0  0  0
  -22.5370  -14.6870   20.6940 O   0  0  0  0  0  0  0  0  0  0  0  0
  -22.6780  -12.0890   22.4500 H   0  0  0  0  0  0  0  0  0  0  0  0
  -21.3740  -13.2330   22.3210 H   0  0  0  0  0  0  0  0  0  0  0  0
  -25.5980  -15.3180   20.2700 N   0  0  0  0  0  0  0  0  0  0  0  0
  -24.8400  -15.9760   20.4150 H   0  0  0  0  0  0  0  0  0  0  0  0
  -26.4410  -15.7540   19.9210 H   0  0  0  0  0  0  0  0  0  0  0  0
  -29.9970  -25.2090   19.5030 C   0  0  0  0  0  1  0  0  0  0  0  0
  -28.2870  -25.4160   17.7250 C   0  0  0  0  0  1  0  0  0  0  0  0
  -28.4990  -25.4840   19.2590 C   0  0  1  0  0  0  0  0  0  0  0  0
  -28.3600  -26.8590   19.6650 O   0  0  0  0  0  0  0  0  0  0  0  0
  -24.6320  -31.8160   23.0690 C   0  0  0  0  0  0  0  0  0  0  0  0
  -27.1610  -27.5530   19.6650 C   0  0  0  0  0  0  0  0  0  0  0  0
  -23.3650  -30.5000   21.4040 C   0  0  0  0  0  3  0  0  0  0  0  0
  -24.7650  -29.0560   19.8420 C   0  0  0  0  0  0  0  0  0  0  0  0
  -25.8820  -30.8790   21.1290 C   0  0  0  0  0  2  0  0  0  0  0  0
  -25.9420  -29.5460   20.4150 C   0  0  0  0  0  0  0  0  0  0  0  0
  -27.1380  -28.8010   20.3270 C   0  0  0  0  0  3  0  0  0  0  0  0
  -25.9590  -27.0890   19.0740 C   0  0  0  0  0  3  0  0  0  0  0  0
  -24.7680  -27.8250   19.1700 C   0  0  0  0  0  3  0  0  0  0  0  0
  -23.5220  -29.9020   19.9800 C   0  0  0  0  0  2  0  0  0  0  0  0
  -24.6460  -31.0760   21.9260 N   0  0  0  0  0  0  0  0  0  0  0  0
  -23.5700  -32.0560   23.6620 O   0  0  0  0  0  0  0  0  0  0  0  0
  -22.7580  -29.4220   22.3290 C   0  0  0  0  0  0  0  0  0  0  0  0
  -21.4320  -29.2340   22.2380 N   0  0  0  0  0  0  0  0  0  0  0  0
  -23.4740  -28.7600   23.0850 O   0  0  0  0  0  0  0  0  0  0  0  0
  -20.9150  -29.8210   21.5980 H   0  0  0  0  0  0  0  0  0  0  0  0
  -18.0840  -27.9830   22.7720 C   0  0  0  0  0  0  0  0  0  0  0  0
  -20.6450  -28.2540   22.9890 C   0  0  0  0  0  3  0  0  0  0  0  0
  -20.7450  -26.8520   22.3450 C   0  0  0  0  0  2  0  0  0  0  0  0
  -19.6210  -26.5640   21.3460 C   0  0  0  0  0  2  0  0  0  0  0  0
  -18.2550  -26.6670   22.0310 C   0  0  0  0  0  2  0  0  0  0  0  0
  -19.2070  -28.7350   23.2070 C   0  0  0  0  0  0  0  0  0  0  0  0
  -18.9930  -29.9690   23.8580 C   0  0  0  0  0  3  0  0  0  0  0  0
  -17.6900  -30.4520   24.0780 C   0  0  0  0  0  3  0  0  0  0  0  0
  -16.5820  -29.6940   23.6620 C   0  0  0  0  0  3  0  0  0  0  0  0
  -16.7800  -28.4600   23.0150 C   0  0  0  0  0  3  0  0  0  0  0  0
  -25.9390  -32.4190   23.6690 C   0  0  0  0  0  3  0  0  0  0  0  0
  -26.5210  -31.5720   24.8660 C   0  0  1  0  0  0  0  0  0  0  0  0
  -25.4840  -31.2590   25.9700 C   0  0  0  0  0  1  0  0  0  0  0  0
  -27.0870  -30.2250   24.3580 C   0  0  0  0  0  1  0  0  0  0  0  0
  -27.7010  -32.3290   25.5190 C   0  0  0  0  0  1  0  0  0  0  0  0
  -25.6350  -33.7900   24.1010 N   0  0  0  0  0  0  0  0  0  0  0  0
  -25.9230  -34.8920   23.3930 C   0  0  0  0  0  0  0  0  0  0  0  0
  -26.5470  -34.8600   22.3290 O   0  0  0  0  0  0  0  0  0  0  0  0
  -25.0710  -33.8860   24.9320 H   0  0  0  0  0  0  0  0  0  0  0  0
  -24.1640  -36.6800   23.2270 C   0  0  0  0  0  1  0  0  0  0  0  0
  -25.4430  -36.2420   23.9570 C   0  0  0  0  0  3  0  0  0  0  0  0
  -27.6050  -37.0960   24.7480 C   0  0  0  0  0  1  0  0  0  0  0  0
  -26.4590  -37.3140   23.8680 N   0  0  0  0  0  0  0  0  0  0  0  0
  -26.0510  -38.2160   24.0950 H   0  0  0  0  0  0  0  0  0  0  0  0
  1  3  1  0
  2  4  1  0
  2  1  1  0
  3  8  1  0
  4 58  1  0
  4  6  1  0
  6  3  1  0
  6  5  1  0
  6  7  1  6
  9  8  1  0
  9 11  1  0
 10  8  2  0
 12 14  2  0
 12 13  1  0
 13 16  2  0
 14 17  1  0
 16 15  1  0
 16  9  1  0
 17 26  1  0
 17 15  2  0
 18 26  1  0
 19 24  1  0
 20 21  1  0
 20 19  1  0
 22 21  1  0
 22 31  1  0
 22 23  1  0
 24 18  1  0
 24 23  1  0
 25 18  2  0
 26 27  1  0
 28 29  2  0
 29 48  1  0
 30 29  1  0
 30 33  1  0
 31 32  1  0
 31 28  1  0
 32 30  2  0
 33 34  1  0
 34 35  2  0
 36 39  1  0
 36 35  1  0
 37 36  2  0
 38 37  1  0
 38 33  2  0
 39 40  1  0
 40 45  2  0
 40 41  1  0
 41 42  2  0
 42 43  1  0
 43 47  1  0
 44 43  2  0
 45 44  1  0
 46 45  1  0
 48 49  1  0
 49 52  1  0
 49 51  1  0
 50 48  2  0
 53 54  1  0
 53 28  1  0
 55 53  1  0
 58 57  1  6
 58 56  1  0
 58 59  1  0
 60 71  2  0
 61 59  1  0
 61 66  1  0
 62 70  1  0
 62 72  1  0
 63 69  1  0
 63 65  1  0
 64 70  1  0
 65 64  1  0
 66 65  2  0
 67 68  1  0
 67 61  2  0
 68 63  2  0
 69 62  1  0
 70 60  1  0
 72 74  2  0
 73 72  1  0
 75 73  1  0
 76 85  2  0
 76 81  1  0
 77 73  1  0
 77 81  1  0
 78 77  1  0
 79 80  1  0
 79 78  1  0
 80 76  1  0
 81 82  2  0
 82 83  1  0
 84 83  2  0
 85 84  1  0
 86 60  1  0
 86 91  1  0
 86 87  1  0
 87 90  1  1
 87 88  1  0
 89 87  1  0
 91 94  1  0
 92 96  1  0
 92 91  1  0
 93 92  2  0
 96 95  1  0
 98 96  1  0
 98 99  1  0
 98 97  1  0
M  ISO  4  18 100  26 100  58 101  59 101
M  END
>  <TORSDO>  (88) 
F 19

>  <SCORE>  (88) 
-14.033

>  <name>  (88) 
87

>  <ligand_id>  (88) 
87

>  <original_smiles>  (88) 
[H]c1c([H])c(N([H])C(=O)N2C([H])([H])C([H])([H])C([H])([H])C([H])(n3nc(-c4c([H])c([H])c(Oc5c([H])c([H])c(F)c([H])c5F)c([H])c4[H])c(C(=O)N([H])[H])c3N([H])[H])C2([H])[H])c([H])c(N([H])C(=O)C2([H])C([H])([H])C([H])([H])C([H])(C(Oc3c([H])c([H])c4c(c3[H])C([H])([H])N(C(=O)C([H])(N([H])C(=O)C([H])(N([H])C([H])([H])[H])C([H])([H])[H])C(C([H])([H])[H])(C([H])([H])[H])C([H])([H])[H])C([H])(C(=O)N([H])C3([H])c5c([H])c([H])c([H])c([H])c5C([H])([H])C([H])([H])C3([H])[H])C4([H])[H])(C([H])([H])[H])C([H])([H])[H])[N+]2([H])C([H])([H])[H])c1[H]

>  <smiles>  (88) 
[H]c1c([H])c(N([H])C(=O)N2C([H])([H])C([H])([H])C([H])([H])C([H])(n3nc(-c4c([H])c([H])c(Oc5c([H])c([H])c(F)c([H])c5F)c([H])c4[H])c(C(=O)N([H])[H])c3N([H])[H])C2([H])[H])c([H])c(N([H])C(=O)C2([H])C([H])([H])C([H])([H])C([H])(C(Oc3c([H])c([H])c4c(c3[H])C([H])([H])N(C(=O)C([H])(N([H])C(=O)C([H])(N([H])C([H])([H])[H])C([H])([H])[H])C(C([H])([H])[H])(C([H])([H])[H])C([H])([H])[H])C([H])(C(=O)N([H])C3([H])c5c([H])c([H])c([H])c([H])c5C([H])([H])C([H])([H])C3([H])[H])C4([H])[H])(C([H])([H])[H])C([H])([H])[H])[N+]2([H])C([H])([H])[H])c1[H]

$$$$
88:0:0
     RDKit          3D

 97105  0  0  1  0  0  0  0  0999 V2000
  -29.1050  -17.9210   19.8060 C   0  0  0  0  0  3  0  0  0  0  0  0
  -28.8080  -20.3460   19.7040 C   0  0  0  0  0  3  0  0  0  0  0  0
  -30.3450  -19.3730   21.3170 C   0  0  0  0  0  3  0  0  0  0  0  0
  -28.4890  -19.0520   19.2310 C   0  0  0  0  0  0  0  0  0  0  0  0
  -30.0320  -18.0630   20.8610 C   0  0  0  0  0  0  0  0  0  0  0  0
  -29.7410  -20.5280   20.7500 C   0  0  0  0  0  0  0  0  0  0  0  0
  -27.5470  -18.8660   18.0780 C   0  0  0  0  0  0  0  0  0  0  0  0
  -26.4870  -19.6600   18.0500 N   0  0  0  0  0  0  0  0  0  0  0  0
  -27.7220  -17.9810   17.2420 O   0  0  0  0  0  0  0  0  0  0  0  0
  -25.8060  -19.5740   17.3100 H   0  0  0  0  0  0  0  0  0  0  0  0
  -26.3360  -20.3270   18.7930 H   0  0  0  0  0  0  0  0  0  0  0  0
  -30.1160  -21.8210   21.1870 N   0  0  0  0  0  0  0  0  0  0  0  0
  -30.8710  -21.8450   21.8660 H   0  0  0  0  0  0  0  0  0  0  0  0
  -29.0960  -22.8710   21.3820 C   0  0  0  0  0  2  0  0  0  0  0  0
  -30.6960  -24.8330   21.8480 C   0  0  0  0  0  1  0  0  0  0  0  0
  -29.5330  -24.3210   20.9800 C   0  0  0  0  0  3  0  0  0  0  0  0
  -28.3230  -25.3010   21.0520 C   0  0  0  0  0  2  0  0  0  0  0  0
  -28.5460  -26.6500   20.5640 O   0  0  0  0  0  0  0  0  0  0  0  0
  -24.6700  -31.9860   23.3200 C   0  0  0  0  0  0  0  0  0  0  0  0
  -27.4000  -27.4270   20.4720 C   0  0  0  0  0  0  0  0  0  0  0  0
  -23.5130  -30.5220   21.7040 C   0  0  0  0  0  3  0  0  0  0  0  0
  -25.0070  -28.9480   20.3650 C   0  0  0  0  0  0  0  0  0  0  0  0
  -26.0450  -30.8840   21.5510 C   0  0  0  0  0  2  0  0  0  0  0  0
  -26.1530  -29.4900   20.9600 C   0  0  0  0  0  0  0  0  0  0  0  0
  -27.3530  -28.7380   21.0090 C   0  0  0  0  0  3  0  0  0  0  0  0
  -26.2380  -26.9210   19.8480 C   0  0  0  0  0  3  0  0  0  0  0  0
  -25.0450  -27.6630   19.8040 C   0  0  0  0  0  3  0  0  0  0  0  0
  -23.7590  -29.8000   20.3530 C   0  0  0  0  0  2  0  0  0  0  0  0
  -24.7610  -31.1480   22.2500 N   0  0  0  0  0  0  0  0  0  0  0  0
  -23.5750  -32.2690   23.8260 O   0  0  0  0  0  0  0  0  0  0  0  0
  -22.8440  -29.5300   22.6820 C   0  0  0  0  0  0  0  0  0  0  0  0
  -21.5280  -29.3190   22.5190 N   0  0  0  0  0  0  0  0  0  0  0  0
  -23.5080  -28.9520   23.5490 O   0  0  0  0  0  0  0  0  0  0  0  0
  -21.0550  -29.8370   21.7930 H   0  0  0  0  0  0  0  0  0  0  0  0
  -18.1600  -28.0750   22.9440 C   0  0  0  0  0  0  0  0  0  0  0  0
  -20.7010  -28.4000   23.3000 C   0  0  0  0  0  3  0  0  0  0  0  0
  -20.8550  -26.9470   22.7950 C   0  0  0  0  0  2  0  0  0  0  0  0
  -19.7980  -26.5540   21.7580 C   0  0  0  0  0  2  0  0  0  0  0  0
  -18.3900  -26.7000   22.3390 C   0  0  0  0  0  2  0  0  0  0  0  0
  -19.2470  -28.8780   23.3810 C   0  0  0  0  0  0  0  0  0  0  0  0
  -18.9810  -30.1620   23.9030 C   0  0  0  0  0  3  0  0  0  0  0  0
  -17.6610  -30.6430   23.9980 C   0  0  0  0  0  3  0  0  0  0  0  0
  -16.5890  -29.8370   23.5780 C   0  0  0  0  0  3  0  0  0  0  0  0
  -16.8390  -28.5560   23.0580 C   0  0  0  0  0  3  0  0  0  0  0  0
  -25.9370  -32.6490   23.9470 C   0  0  0  0  0  3  0  0  0  0  0  0
  -25.6000  -34.0460   24.2450 N   0  0  0  0  0  0  0  0  0  0  0  0
  -25.9300  -35.0900   23.4730 C   0  0  0  0  0  0  0  0  0  0  0  0
  -26.6170  -34.9800   22.4540 O   0  0  0  0  0  0  0  0  0  0  0  0
  -24.9890  -34.2060   25.0330 H   0  0  0  0  0  0  0  0  0  0  0  0
  -24.1820  -36.8510   23.0540 C   0  0  0  0  0  1  0  0  0  0  0  0
  -25.4120  -36.4790   23.8960 C   0  0  0  0  0  3  0  0  0  0  0  0
  -27.5170  -37.4100   24.7530 C   0  0  0  0  0  1  0  0  0  0  0  0
  -26.4320  -37.5450   23.7840 N   0  0  0  0  0  0  0  0  0  0  0  0
  -26.0110  -38.4610   23.9050 H   0  0  0  0  0  0  0  0  0  0  0  0
  -26.4490  -31.9070   25.2420 C   0  0  1  0  0  0  0  0  0  0  0  0
  -25.3470  -31.6580   26.2970 C   0  0  0  0  0  1  0  0  0  0  0  0
  -27.0700  -30.5390   24.8750 C   0  0  0  0  0  1  0  0  0  0  0  0
  -27.5710  -32.7380   25.9090 C   0  0  0  0  0  1  0  0  0  0  0  0
  -30.7130  -16.8320   21.4890 C   0  0  0  0  0  2  0  0  0  0  0  0
  -30.7490  -14.5570   20.3940 C   0  0  0  0  0  0  0  0  0  0  0  0
  -30.3610  -12.5030   19.0730 C   0  0  0  0  0  2  0  0  0  0  0  0
  -29.3960  -12.8140   17.9120 C   0  0  0  0  0  2  0  0  0  0  0  0
  -27.9320  -12.6520   18.3660 C   0  0  0  0  0  2  0  0  0  0  0  0
  -27.6380  -13.3990   19.6940 C   0  0  0  0  0  3  0  0  0  0  0  0
  -28.7170  -13.0920   20.7580 C   0  0  0  0  0  2  0  0  0  0  0  0
  -30.0340  -13.4160   20.1810 N   0  0  0  0  0  0  0  0  0  0  0  0
  -31.8430  -14.7590   19.8650 O   0  0  0  0  0  0  0  0  0  0  0  0
  -30.1570  -15.5060   21.1430 N   0  0  0  0  0  0  0  0  0  0  0  0
  -29.2530  -15.2800   21.5300 H   0  0  0  0  0  0  0  0  0  0  0  0
  -25.2380  -13.9680   20.4180 C   0  0  0  0  0  0  0  0  0  0  0  0
  -24.1830  -13.1810   20.7930 C   0  0  0  0  0  0  0  0  0  0  0  0
  -24.6660  -11.8370   20.7670 C   0  0  0  0  0  0  0  0  0  0  0  0
  -26.2940  -13.1030   20.1850 N   0  0  0  0  0  0  0  0  0  0  0  0
  -25.9550  -11.8160   20.4520 N   0  0  0  0  0  0  0  0  0  0  0  0
  -23.9590  -10.5640   20.9670 C   0  0  0  0  0  0  0  0  0  0  0  0
  -24.3940   -9.6210   21.9250 C   0  0  0  0  0  3  0  0  0  0  0  0
  -23.6870   -8.4130   22.1110 C   0  0  0  0  0  3  0  0  0  0  0  0
  -22.5330   -8.1410   21.3390 C   0  0  0  0  0  0  0  0  0  0  0  0
  -22.1170   -9.0730   20.3730 C   0  0  0  0  0  3  0  0  0  0  0  0
  -22.8230  -10.2720   20.1850 C   0  0  0  0  0  3  0  0  0  0  0  0
  -21.7970   -6.9840   21.4340 O   0  0  0  0  0  0  0  0  0  0  0  0
  -21.7290   -6.2690   22.6020 C   0  0  0  0  0  0  0  0  0  0  0  0
  -21.2460   -6.8400   23.8000 C   0  0  0  0  0  3  0  0  0  0  0  0
  -21.1250   -6.0470   24.9590 C   0  0  0  0  0  3  0  0  0  0  0  0
  -21.4810   -4.6850   24.9210 C   0  0  0  0  0  0  0  0  0  0  0  0
  -21.9610   -4.1160   23.7290 C   0  0  0  0  0  3  0  0  0  0  0  0
  -22.0820   -4.9050   22.5730 C   0  0  0  0  0  0  0  0  0  0  0  0
  -22.5230   -4.3450   21.4200 F   0  0  0  0  0  0  0  0  0  0  0  0
  -21.3600   -3.9220   26.0330 F   0  0  0  0  0  0  0  0  0  0  0  0
  -22.7820  -13.6400   21.0700 C   0  0  0  0  0  0  0  0  0  0  0  0
  -22.0690  -12.9330   21.9390 N   0  0  0  0  0  0  0  0  0  0  0  0
  -22.3260  -14.6590   20.5530 O   0  0  0  0  0  0  0  0  0  0  0  0
  -22.4510  -12.1070   22.3730 H   0  0  0  0  0  0  0  0  0  0  0  0
  -21.1300  -13.2230   22.1740 H   0  0  0  0  0  0  0  0  0  0  0  0
  -25.3810  -15.3410   20.2380 N   0  0  0  0  0  0  0  0  0  0  0  0
  -24.6050  -15.9820   20.3480 H   0  0  0  0  0  0  0  0  0  0  0  0
  -26.2260  -15.7910   19.9080 H   0  0  0  0  0  0  0  0  0  0  0  0
  1  5  1  0
  2  6  2  0
  4  2  1  0
  4  1  2  0
  5  3  2  0
  5 59  1  0
  6 12  1  0
  6  3  1  0
  7  4  1  0
  8  7  1  0
  8 11  1  0
  9  7  2  0
 10  8  1  0
 12 14  1  0
 12 13  1  0
 16 17  1  0
 16 14  1  0
 16 15  1  0
 18 17  1  0
 19 30  2  0
 20 18  1  0
 20 25  1  0
 21 29  1  0
 21 31  1  0
 22 24  1  0
 23 29  1  0
 24 25  2  0
 24 23  1  0
 26 20  2  0
 27 26  1  0
 27 22  2  0
 28 22  1  0
 28 21  1  0
 29 19  1  0
 31 33  2  0
 32 31  1  0
 34 32  1  0
 35 44  2  0
 35 40  1  0
 36 32  1  0
 36 40  1  0
 37 36  1  0
 38 39  1  0
 38 37  1  0
 39 35  1  0
 40 41  2  0
 41 42  1  0
 43 42  2  0
 44 43  1  0
 45 19  1  0
 45 46  1  0
 45 55  1  0
 46 49  1  0
 47 51  1  0
 47 46  1  0
 48 47  2  0
 51 50  1  0
 53 51  1  0
 53 54  1  0
 53 52  1  0
 55 58  1  1
 55 56  1  0
 57 55  1  0
 60 68  1  0
 61 66  1  0
 62 63  1  0
 62 61  1  0
 64 63  1  0
 64 73  1  0
 64 65  1  0
 66 60  1  0
 66 65  1  0
 67 60  2  0
 68 59  1  0
 68 69  1  0
 70 71  2  0
 71 90  1  0
 72 71  1  0
 72 75  1  0
 73 70  1  0
 73 74  1  0
 74 72  2  0
 75 76  1  0
 76 77  2  0
 78 81  1  0
 78 77  1  0
 79 78  2  0
 80 79  1  0
 80 75  2  0
 81 82  1  0
 82 83  1  0
 83 84  2  0
 85 84  1  0
 85 89  1  0
 86 85  2  0
 87 82  2  0
 87 86  1  0
 88 87  1  0
 90 91  1  0
 91 94  1  0
 91 93  1  0
 92 90  2  0
 95 96  1  0
 95 70  1  0
 97 95  1  0
M  ISO  4  17 101  18 101  60 100  68 100
M  END
>  <TORSDO>  (89) 
F 22

>  <SCORE>  (89) 
-12.906

>  <name>  (89) 
88

>  <ligand_id>  (89) 
88

>  <original_smiles>  (89) 
[H]c1c([H])c([H])c2c(c1[H])C([H])([H])C([H])([H])C([H])([H])C2([H])N([H])C(=O)C1([H])N(C(=O)C([H])(N([H])C(=O)C([H])(N([H])C([H])([H])[H])C([H])([H])[H])C(C([H])([H])[H])(C([H])([H])[H])C([H])([H])[H])C([H])([H])c2c([H])c(OC([H])([H])C([H])(C([H])([H])[H])C([H])([H])N([H])c3c([H])c(C(=O)N([H])[H])c([H])c(C([H])([H])N([H])C(=O)N4C([H])([H])C([H])([H])C([H])([H])C([H])(n5nc(-c6c([H])c([H])c(Oc7c([H])c([H])c(F)c([H])c7F)c([H])c6[H])c(C(=O)N([H])[H])c5N([H])[H])C4([H])[H])c3[H])c([H])c([H])c2C1([H])[H]

>  <smiles>  (89) 
[H]c1c([H])c([H])c2c(c1[H])C([H])([H])C([H])([H])C([H])([H])C2([H])N([H])C(=O)C1([H])N(C(=O)C([H])(N([H])C(=O)C([H])(N([H])C([H])([H])[H])C([H])([H])[H])C(C([H])([H])[H])(C([H])([H])[H])C([H])([H])[H])C([H])([H])c2c([H])c(OC([H])([H])C([H])(C([H])([H])[H])C([H])([H])N([H])c3c([H])c(C(=O)N([H])[H])c([H])c(C([H])([H])N([H])C(=O)N4C([H])([H])C([H])([H])C([H])([H])C([H])(n5nc(-c6c([H])c([H])c(Oc7c([H])c([H])c(F)c([H])c7F)c([H])c6[H])c(C(=O)N([H])[H])c5N([H])[H])C4([H])[H])c3[H])c([H])c([H])c2C1([H])[H]

$$$$
89:0:0
     RDKit          3D

104113  0  0  1  0  0  0  0  0999 V2000
  -29.8610  -21.3610   22.0930 C   0  0  0  0  0  0  0  0  0  0  0  0
  -31.0730  -19.4520   23.0020 C   0  0  0  0  0  1  0  0  0  0  0  0
  -31.0010  -20.6270   22.1210 N   0  0  0  0  0  0  0  0  0  0  0  0
  -28.8700  -21.0500   22.7620 O   0  0  0  0  0  0  0  0  0  0  0  0
  -28.3410  -23.0390   20.8810 C   0  0  0  0  0  2  0  0  0  0  0  0
  -30.5300  -23.7980   21.9930 C   0  0  0  0  0  2  0  0  0  0  0  0
  -28.2190  -24.4270   20.2110 C   0  0  0  0  0  2  0  0  0  0  0  0
  -29.7140  -25.0940   22.0630 C   0  0  0  0  0  2  0  0  0  0  0  0
  -29.7990  -22.6500   21.2450 C   0  0  0  0  0  3  0  0  0  0  0  0
  -29.2000  -25.4360   20.7160 N   0  0  2  0  0  4  0  0  0  0  0  0
  -30.0050  -25.3670   20.1050 H   0  0  0  0  0  0  0  0  0  0  0  0
  -28.7430  -26.8510   20.6430 C   0  0  0  0  0  2  0  0  0  0  0  0
  -28.6770  -27.3960   19.2050 C   0  0  0  0  0  2  0  0  0  0  0  0
  -27.4150  -27.0820   18.6210 O   0  0  0  0  0  0  0  0  0  0  0  0
  -24.3560  -31.7680   23.0750 C   0  0  0  0  0  0  0  0  0  0  0  0
  -26.3220  -27.8280   18.9970 C   0  0  0  0  0  0  0  0  0  0  0  0
  -22.8460  -30.6320   21.4730 C   0  0  0  0  0  3  0  0  0  0  0  0
  -23.9910  -29.2930   19.6360 C   0  0  0  0  0  0  0  0  0  0  0  0
  -25.3090  -30.9950   20.9130 C   0  0  0  0  0  2  0  0  0  0  0  0
  -25.2390  -29.7300   20.0900 C   0  0  0  0  0  0  0  0  0  0  0  0
  -26.4030  -29.0030   19.7820 C   0  0  0  0  0  3  0  0  0  0  0  0
  -25.0560  -27.3910   18.5530 C   0  0  0  0  0  3  0  0  0  0  0  0
  -23.8910  -28.1140   18.8740 C   0  0  0  0  0  3  0  0  0  0  0  0
  -22.8000  -30.1420   20.0000 C   0  0  0  0  0  2  0  0  0  0  0  0
  -24.1960  -31.1360   21.8770 N   0  0  0  0  0  0  0  0  0  0  0  0
  -23.3890  -31.9770   23.8190 O   0  0  0  0  0  0  0  0  0  0  0  0
  -22.3170  -29.4970   22.3780 C   0  0  0  0  0  0  0  0  0  0  0  0
  -21.0010  -29.2450   22.3040 N   0  0  0  0  0  0  0  0  0  0  0  0
  -23.0790  -28.8440   23.0940 O   0  0  0  0  0  0  0  0  0  0  0  0
  -20.4440  -29.8240   21.6920 H   0  0  0  0  0  0  0  0  0  0  0  0
  -17.7860  -27.6490   22.6710 C   0  0  0  0  0  0  0  0  0  0  0  0
  -20.2850  -28.2000   23.0330 C   0  0  0  0  0  3  0  0  0  0  0  0
  -20.5780  -26.8050   22.4330 C   0  0  0  0  0  2  0  0  0  0  0  0
  -19.5560  -26.3740   21.3800 C   0  0  0  0  0  2  0  0  0  0  0  0
  -18.1440  -26.3460   21.9730 C   0  0  0  0  0  2  0  0  0  0  0  0
  -18.7930  -28.5250   23.1530 C   0  0  0  0  0  0  0  0  0  0  0  0
  -18.4080  -29.7390   23.7630 C   0  0  0  0  0  3  0  0  0  0  0  0
  -17.0490  -30.0810   23.8940 C   0  0  0  0  0  3  0  0  0  0  0  0
  -16.0570  -29.2010   23.4330 C   0  0  0  0  0  3  0  0  0  0  0  0
  -16.4250  -27.9870   22.8250 C   0  0  0  0  0  3  0  0  0  0  0  0
  -25.7530  -32.2720   23.5570 C   0  0  0  0  0  3  0  0  0  0  0  0
  -26.3690  -31.3920   24.7150 C   0  0  1  0  0  0  0  0  0  0  0  0
  -25.4070  -31.1810   25.9070 C   0  0  0  0  0  1  0  0  0  0  0  0
  -26.7810  -29.9960   24.1910 C   0  0  0  0  0  1  0  0  0  0  0  0
  -27.6650  -32.0530   25.2420 C   0  0  0  0  0  1  0  0  0  0  0  0
  -25.5950  -33.6670   23.9880 N   0  0  0  0  0  0  0  0  0  0  0  0
  -25.9770  -34.7310   23.2690 C   0  0  0  0  0  0  0  0  0  0  0  0
  -26.5730  -34.6360   22.1920 O   0  0  0  0  0  0  0  0  0  0  0  0
  -25.0560  -33.8250   24.8280 H   0  0  0  0  0  0  0  0  0  0  0  0
  -24.4150  -36.6970   23.1010 C   0  0  0  0  0  1  0  0  0  0  0  0
  -25.6410  -36.1260   23.8300 C   0  0  0  0  0  3  0  0  0  0  0  0
  -27.8720  -36.7560   24.6410 C   0  0  0  0  0  1  0  0  0  0  0  0
  -26.7650  -37.0840   23.7440 N   0  0  0  0  0  0  0  0  0  0  0  0
  -26.4540  -38.0280   23.9610 H   0  0  0  0  0  0  0  0  0  0  0  0
  -32.2170  -20.9300   21.3380 C   0  0  0  0  0  2  0  0  0  0  0  0
  -32.6750  -19.5420   18.0950 C   0  0  0  0  0  2  0  0  0  0  0  0
  -32.4740  -19.0140   19.5180 C   0  0  0  0  0  3  0  0  0  0  0  0
  -33.0100  -20.9090   18.7350 C   0  0  0  0  0  3  0  0  0  0  0  0
  -32.0650  -20.4680   19.8790 C   0  0  0  0  0  3  0  0  0  0  0  0
  -32.5600  -15.8520   19.9120 C   0  0  0  0  0  0  0  0  0  0  0  0
  -32.5400  -13.4590   19.3070 C   0  0  0  0  0  2  0  0  0  0  0  0
  -31.5980  -13.3180   18.0870 C   0  0  0  0  0  2  0  0  0  0  0  0
  -30.1100  -13.2270   18.5040 C   0  0  0  0  0  2  0  0  0  0  0  0
  -29.7110  -14.3080   19.5390 C   0  0  0  0  0  3  0  0  0  0  0  0
  -30.7450  -14.3160   20.6910 C   0  0  0  0  0  2  0  0  0  0  0  0
  -32.0710  -14.5950   20.1010 N   0  0  0  0  0  0  0  0  0  0  0  0
  -33.6880  -16.0960   19.4650 O   0  0  0  0  0  0  0  0  0  0  0  0
  -31.3410  -18.0050   19.7310 C   0  0  0  0  0  0  0  0  0  0  0  0
  -31.5530  -16.7320   20.0530 N   0  0  0  0  0  0  0  0  0  0  0  0
  -30.1740  -18.3920   19.6930 O   0  0  0  0  0  0  0  0  0  0  0  0
  -30.7000  -16.2690   20.3230 H   0  0  0  0  0  0  0  0  0  0  0  0
  -27.3850  -15.0940   20.3230 C   0  0  0  0  0  0  0  0  0  0  0  0
  -26.2670  -14.3980   20.6900 C   0  0  0  0  0  0  0  0  0  0  0  0
  -26.6150  -13.0150   20.5920 C   0  0  0  0  0  0  0  0  0  0  0  0
  -28.3500  -14.1370   20.0350 N   0  0  0  0  0  0  0  0  0  0  0  0
  -27.8890  -12.8830   20.2470 N   0  0  0  0  0  0  0  0  0  0  0  0
  -25.7940  -11.8090   20.7410 C   0  0  0  0  0  0  0  0  0  0  0  0
  -26.0770  -10.8410   21.7310 C   0  0  0  0  0  3  0  0  0  0  0  0
  -25.2620   -9.6970   21.8650 C   0  0  0  0  0  3  0  0  0  0  0  0
  -24.1510   -9.5120   21.0090 C   0  0  0  0  0  0  0  0  0  0  0  0
  -23.8860  -10.4650   20.0110 C   0  0  0  0  0  3  0  0  0  0  0  0
  -24.7000  -11.6030   19.8760 C   0  0  0  0  0  3  0  0  0  0  0  0
  -23.3230   -8.4190   21.0510 O   0  0  0  0  0  0  0  0  0  0  0  0
  -22.8010   -7.9580   22.2330 C   0  0  0  0  0  0  0  0  0  0  0  0
  -21.9680   -8.7600   23.0420 C   0  0  0  0  0  3  0  0  0  0  0  0
  -21.4050   -8.2240   24.2190 C   0  0  0  0  0  3  0  0  0  0  0  0
  -21.6580   -6.8880   24.5760 C   0  0  0  0  0  0  0  0  0  0  0  0
  -22.4800   -6.0870   23.7660 C   0  0  0  0  0  3  0  0  0  0  0  0
  -23.0490   -6.6200   22.5960 C   0  0  0  0  0  0  0  0  0  0  0  0
  -23.8280   -5.8390   21.8100 F   0  0  0  0  0  0  0  0  0  0  0  0
  -21.1070   -6.3690   25.6990 F   0  0  0  0  0  0  0  0  0  0  0  0
  -24.9210  -14.9750   21.0190 C   0  0  0  0  0  0  0  0  0  0  0  0
  -24.1780  -14.3240   21.9100 N   0  0  0  0  0  0  0  0  0  0  0  0
  -24.5410  -16.0360   20.5250 O   0  0  0  0  0  0  0  0  0  0  0  0
  -24.4950  -13.4650   22.3310 H   0  0  0  0  0  0  0  0  0  0  0  0
  -23.2750  -14.6910   22.1750 H   0  0  0  0  0  0  0  0  0  0  0  0
  -27.6550  -16.4510   20.1900 N   0  0  0  0  0  0  0  0  0  0  0  0
  -26.8980  -17.1270   20.2300 H   0  0  0  0  0  0  0  0  0  0  0  0
  -28.5250  -16.8480   19.8580 H   0  0  0  0  0  0  0  0  0  0  0  0
  -32.7360  -22.2060   17.9590 C   0  0  0  0  0  2  0  0  0  0  0  0
  -33.5170  -22.2760   16.7110 N   0  0  0  0  0  4  0  0  0  0  0  0
  -34.5000  -22.3280   16.9060 H   0  0  0  0  0  0  0  0  0  0  0  0
  -33.2640  -23.0950   16.1860 H   0  0  0  0  0  0  0  0  0  0  0  0
  -33.3480  -21.4730   16.1320 H   0  0  0  0  0  0  0  0  0  0  0  0
  1  3  1  0
  1  4  2  0
  3  2  1  0
  5  9  1  0
  6  8  1  0
  7 10  1  0
  7  5  1  0
  9  6  1  0
  9  1  1  0
 10  8  1  0
 10 11  1  6
 12 10  1  0
 13 12  1  0
 14 16  1  0
 14 13  1  0
 15 26  2  0
 16 21  1  0
 17 25  1  0
 17 27  1  0
 18 24  1  0
 18 20  1  0
 19 25  1  0
 20 19  1  0
 21 20  2  0
 22 23  1  0
 22 16  2  0
 23 18  2  0
 24 17  1  0
 25 15  1  0
 27 29  2  0
 28 27  1  0
 30 28  1  0
 31 40  2  0
 31 36  1  0
 32 28  1  0
 32 36  1  0
 33 32  1  0
 34 35  1  0
 34 33  1  0
 35 31  1  0
 36 37  2  0
 37 38  1  0
 39 38  2  0
 40 39  1  0
 41 15  1  0
 41 46  1  0
 41 42  1  0
 42 45  1  1
 42 43  1  0
 44 42  1  0
 46 49  1  0
 47 51  1  0
 47 46  1  0
 48 47  2  0
 51 50  1  0
 53 51  1  0
 53 54  1  0
 53 52  1  0
 55  3  1  0
 56 58  1  0
 56 57  1  0
 57 68  1  0
 57 59  1  0
 58100  1  0
 58 59  1  0
 59 55  1  0
 60 69  1  0
 60 66  1  0
 61 66  1  0
 62 63  1  0
 62 61  1  0
 64 63  1  0
 64 75  1  0
 64 65  1  0
 66 65  1  0
 67 60  2  0
 68 69  1  0
 69 71  1  0
 70 68  2  0
 72 73  2  0
 73 92  1  0
 74 73  1  0
 74 77  1  0
 75 76  1  0
 75 72  1  0
 76 74  2  0
 77 78  1  0
 78 79  2  0
 80 83  1  0
 80 79  1  0
 81 80  2  0
 82 81  1  0
 82 77  2  0
 83 84  1  0
 84 89  2  0
 84 85  1  0
 85 86  2  0
 86 87  1  0
 87 91  1  0
 88 87  2  0
 89 88  1  0
 90 89  1  0
 92 93  1  0
 93 96  1  0
 93 95  1  0
 94 92  2  0
 97 98  1  0
 97 72  1  0
 99 97  1  0
101102  1  0
101100  1  0
103101  1  0
104101  1  0
M  ISO  4  13 101  14 101  60 100  69 100
M  END
>  <TORSDO>  (90) 
F 23

>  <SCORE>  (90) 
-8.466

>  <name>  (90) 
89

>  <ligand_id>  (90) 
89

>  <original_smiles>  (90) 
[H]c1c([H])c([H])c2c(c1[H])C([H])([H])C([H])([H])C([H])([H])C2([H])N([H])C(=O)C1([H])N(C(=O)C([H])(N([H])C(=O)C([H])(N([H])C([H])([H])[H])C([H])([H])[H])C(C([H])([H])[H])(C([H])([H])[H])C([H])([H])[H])C([H])([H])c2c([H])c(OC([H])([H])C([H])([H])[N+]3([H])C([H])([H])C([H])([H])C([H])(C(=O)N(C([H])([H])[H])C([H])([H])C4([H])C([H])(C(=O)N([H])C(=O)N5C([H])([H])C([H])([H])C([H])([H])C([H])(n6nc(-c7c([H])c([H])c(Oc8c([H])c([H])c(F)c([H])c8F)c([H])c7[H])c(C(=O)N([H])[H])c6N([H])[H])C5([H])[H])C([H])([H])C4([H])C([H])([H])[N+]([H])([H])[H])C([H])([H])C3([H])[H])c([H])c([H])c2C1([H])[H]

>  <smiles>  (90) 
[H]c1c([H])c([H])c2c(c1[H])C([H])([H])C([H])([H])C([H])([H])C2([H])N([H])C(=O)C1([H])N(C(=O)C([H])(N([H])C(=O)C([H])(N([H])C([H])([H])[H])C([H])([H])[H])C(C([H])([H])[H])(C([H])([H])[H])C([H])([H])[H])C([H])([H])c2c([H])c(OC([H])([H])C([H])([H])[N+]3([H])C([H])([H])C([H])([H])C([H])(C(=O)N(C([H])([H])[H])C([H])([H])C4([H])C([H])(C(=O)N([H])C(=O)N5C([H])([H])C([H])([H])C([H])([H])C([H])(n6nc(-c7c([H])c([H])c(Oc8c([H])c([H])c(F)c([H])c8F)c([H])c7[H])c(C(=O)N([H])[H])c6N([H])[H])C5([H])[H])C([H])([H])C4([H])C([H])([H])[N+]([H])([H])[H])C([H])([H])C3([H])[H])c([H])c([H])c2C1([H])[H]

$$$$
90:0:0
     RDKit          3D

100109  0  0  1  0  0  0  0  0999 V2000
  -30.5440  -21.4730   18.5900 C   0  0  0  0  0  2  0  0  0  0  0  0
  -31.0050  -22.9100   18.2860 C   0  0  0  0  0  2  0  0  0  0  0  0
  -31.1360  -21.7900   20.9440 C   0  0  0  0  0  2  0  0  0  0  0  0
  -31.5640  -23.2450   20.6170 C   0  0  0  0  0  3  0  0  0  0  0  0
  -33.0910  -23.3740   20.4220 C   0  0  0  0  0  1  0  0  0  0  0  0
  -31.2080  -20.9120   19.7720 N   0  0  0  0  0  0  0  0  0  0  0  0
  -30.7700  -23.7410   19.4750 N   0  0  0  0  0  0  0  0  0  0  0  0
  -31.7530  -18.8190   20.9150 C   0  0  0  0  0  3  0  0  0  0  0  0
  -31.4710  -17.4700   21.2180 C   0  0  0  0  0  3  0  0  0  0  0  0
  -29.7290  -18.9430   19.5870 C   0  0  0  0  0  3  0  0  0  0  0  0
  -29.4300  -17.6040   19.8950 C   0  0  0  0  0  0  0  0  0  0  0  0
  -30.8950  -19.5700   20.0810 C   0  0  0  0  0  0  0  0  0  0  0  0
  -30.3130  -16.8470   20.6990 C   0  0  0  0  0  0  0  0  0  0  0  0
  -28.1690  -16.9980   19.3220 C   0  0  0  0  0  1  0  0  0  0  0  0
  -30.6810  -14.4560   20.4150 C   0  0  0  0  0  0  0  0  0  0  0  0
  -30.3260  -12.3170   19.2570 C   0  0  0  0  0  2  0  0  0  0  0  0
  -29.3810  -12.5480   18.0610 C   0  0  0  0  0  2  0  0  0  0  0  0
  -27.9110  -12.4090   18.4970 C   0  0  0  0  0  2  0  0  0  0  0  0
  -27.5820  -13.2390   19.7660 C   0  0  0  0  0  3  0  0  0  0  0  0
  -28.6470  -13.0250   20.8690 C   0  0  0  0  0  2  0  0  0  0  0  0
  -29.9760  -13.3010   20.2930 N   0  0  0  0  0  0  0  0  0  0  0  0
  -31.8060  -14.6110   19.9300 O   0  0  0  0  0  0  0  0  0  0  0  0
  -30.0240  -15.4830   20.9770 N   0  0  0  0  0  0  0  0  0  0  0  0
  -29.0850  -15.2710   21.2760 H   0  0  0  0  0  0  0  0  0  0  0  0
  -25.1870  -13.8530   20.4930 C   0  0  0  0  0  0  0  0  0  0  0  0
  -24.1200  -13.0830   20.8670 C   0  0  0  0  0  0  0  0  0  0  0  0
  -24.5760  -11.7320   20.8220 C   0  0  0  0  0  0  0  0  0  0  0  0
  -26.2300  -12.9700   20.2520 N   0  0  0  0  0  0  0  0  0  0  0  0
  -25.8630  -11.6880   20.5040 N   0  0  0  0  0  0  0  0  0  0  0  0
  -23.8450  -10.4730   21.0050 C   0  0  0  0  0  0  0  0  0  0  0  0
  -24.2660   -9.5060   21.9430 C   0  0  0  0  0  3  0  0  0  0  0  0
  -23.5360   -8.3100   22.1140 C   0  0  0  0  0  3  0  0  0  0  0  0
  -22.3700   -8.0750   21.3450 C   0  0  0  0  0  0  0  0  0  0  0  0
  -21.9700   -9.0310   20.3950 C   0  0  0  0  0  3  0  0  0  0  0  0
  -22.7010  -10.2180   20.2230 C   0  0  0  0  0  3  0  0  0  0  0  0
  -21.6120   -6.9320   21.4260 O   0  0  0  0  0  0  0  0  0  0  0  0
  -21.5390   -6.1980   22.5830 C   0  0  0  0  0  0  0  0  0  0  0  0
  -21.0640   -6.7540   23.7910 C   0  0  0  0  0  3  0  0  0  0  0  0
  -20.9390   -5.9460   24.9370 C   0  0  0  0  0  3  0  0  0  0  0  0
  -21.2800   -4.5820   24.8790 C   0  0  0  0  0  0  0  0  0  0  0  0
  -21.7470   -4.0230   23.6750 C   0  0  0  0  0  3  0  0  0  0  0  0
  -21.8740   -4.8290   22.5300 C   0  0  0  0  0  0  0  0  0  0  0  0
  -22.3050   -4.2820   21.3680 F   0  0  0  0  0  0  0  0  0  0  0  0
  -21.1510   -3.8020   25.9770 F   0  0  0  0  0  0  0  0  0  0  0  0
  -22.7270  -13.5670   21.1520 C   0  0  0  0  0  0  0  0  0  0  0  0
  -21.9960  -12.8620   22.0080 N   0  0  0  0  0  0  0  0  0  0  0  0
  -22.2960  -14.6060   20.6540 O   0  0  0  0  0  0  0  0  0  0  0  0
  -22.3580  -12.0250   22.4380 H   0  0  0  0  0  0  0  0  0  0  0  0
  -21.0610  -13.1660   22.2410 H   0  0  0  0  0  0  0  0  0  0  0  0
  -25.3420  -15.2220   20.3210 N   0  0  0  0  0  0  0  0  0  0  0  0
  -24.5640  -15.8640   20.4290 H   0  0  0  0  0  0  0  0  0  0  0  0
  -26.1650  -15.6600   19.9330 H   0  0  0  0  0  0  0  0  0  0  0  0
  -30.8980  -25.1880   19.2690 C   0  0  0  0  0  2  0  0  0  0  0  0
  -29.7790  -25.7550   18.3550 C   0  0  0  0  0  3  0  0  0  0  0  0
  -30.2580  -25.9120   16.9610 N   0  0  0  0  0  4  0  0  0  0  0  0
  -30.9950  -26.5920   16.8950 H   0  0  0  0  0  0  0  0  0  0  0  0
  -29.5090  -26.2070   16.3570 H   0  0  0  0  0  0  0  0  0  0  0  0
  -30.6060  -25.0400   16.6040 H   0  0  0  0  0  0  0  0  0  0  0  0
  -29.2000  -27.0810   18.8940 C   0  0  0  0  0  2  0  0  0  0  0  0
  -28.3890  -26.7930   20.0340 O   0  0  0  0  0  0  0  0  0  0  0  0
  -24.5430  -31.8600   23.2150 C   0  0  0  0  0  0  0  0  0  0  0  0
  -27.2160  -27.4980   20.0790 C   0  0  0  0  0  0  0  0  0  0  0  0
  -23.3400  -30.4690   21.5560 C   0  0  0  0  0  3  0  0  0  0  0  0
  -24.8030  -28.9500   20.1210 C   0  0  0  0  0  0  0  0  0  0  0  0
  -25.8600  -30.8490   21.3610 C   0  0  0  0  0  2  0  0  0  0  0  0
  -25.9530  -29.4850   20.7130 C   0  0  0  0  0  0  0  0  0  0  0  0
  -27.1640  -28.7610   20.6990 C   0  0  0  0  0  3  0  0  0  0  0  0
  -26.0520  -26.9550   19.5000 C   0  0  0  0  0  3  0  0  0  0  0  0
  -24.8420  -27.6790   19.5160 C   0  0  0  0  0  3  0  0  0  0  0  0
  -23.5520  -29.7970   20.1720 C   0  0  0  0  0  2  0  0  0  0  0  0
  -24.5990  -31.0730   22.1030 N   0  0  0  0  0  0  0  0  0  0  0  0
  -23.4610  -32.1240   23.7570 O   0  0  0  0  0  0  0  0  0  0  0  0
  -22.6920  -29.4370   22.5070 C   0  0  0  0  0  0  0  0  0  0  0  0
  -21.3680  -29.2590   22.3810 N   0  0  0  0  0  0  0  0  0  0  0  0
  -23.3790  -28.8020   23.3110 O   0  0  0  0  0  0  0  0  0  0  0  0
  -20.8770  -29.8270   21.7040 H   0  0  0  0  0  0  0  0  0  0  0  0
  -17.9900  -28.0820   22.8750 C   0  0  0  0  0  0  0  0  0  0  0  0
  -20.5510  -28.3140   23.1390 C   0  0  0  0  0  3  0  0  0  0  0  0
  -20.6390  -26.8920   22.5370 C   0  0  0  0  0  2  0  0  0  0  0  0
  -19.5290  -26.5970   21.5230 C   0  0  0  0  0  2  0  0  0  0  0  0
  -18.1530  -26.7420   22.1770 C   0  0  0  0  0  2  0  0  0  0  0  0
  -19.1170  -28.8270   23.3130 C   0  0  0  0  0  0  0  0  0  0  0  0
  -18.9130  -30.0830   23.9240 C   0  0  0  0  0  3  0  0  0  0  0  0
  -17.6130  -30.5930   24.1030 C   0  0  0  0  0  3  0  0  0  0  0  0
  -16.5000  -29.8440   23.6840 C   0  0  0  0  0  3  0  0  0  0  0  0
  -16.6890  -28.5910   23.0740 C   0  0  0  0  0  3  0  0  0  0  0  0
  -25.8290  -32.4840   23.8410 C   0  0  0  0  0  3  0  0  0  0  0  0
  -25.5270  -33.8840   24.1680 N   0  0  0  0  0  0  0  0  0  0  0  0
  -25.8710  -34.9320   23.4090 C   0  0  0  0  0  0  0  0  0  0  0  0
  -26.5500  -34.8230   22.3830 O   0  0  0  0  0  0  0  0  0  0  0  0
  -24.9240  -34.0420   24.9630 H   0  0  0  0  0  0  0  0  0  0  0  0
  -24.1630  -36.7360   23.0260 C   0  0  0  0  0  1  0  0  0  0  0  0
  -25.3860  -36.3230   23.8600 C   0  0  0  0  0  3  0  0  0  0  0  0
  -27.5100  -37.1920   24.7340 C   0  0  0  0  0  1  0  0  0  0  0  0
  -26.4290  -37.3680   23.7670 N   0  0  0  0  0  0  0  0  0  0  0  0
  -26.0270  -38.2910   23.9040 H   0  0  0  0  0  0  0  0  0  0  0  0
  -26.3400  -31.7080   25.1170 C   0  0  1  0  0  0  0  0  0  0  0  0
  -25.2430  -31.4720   26.1810 C   0  0  0  0  0  1  0  0  0  0  0  0
  -26.9200  -30.3300   24.7200 C   0  0  0  0  0  1  0  0  0  0  0  0
  -27.4910  -32.4980   25.7850 C   0  0  0  0  0  1  0  0  0  0  0  0
  1  6  1  0
  2  1  1  0
  2  7  1  0
  4  5  1  0
  4  3  1  0
  6 12  1  0
  6  3  1  0
  7  4  1  0
  8  9  1  0
 10 11  2  0
 10 12  1  0
 11 13  1  0
 12  8  2  0
 13 23  1  0
 13  9  2  0
 14 11  1  0
 15 23  1  0
 16 21  1  0
 17 18  1  0
 17 16  1  0
 19 18  1  0
 19 28  1  0
 19 20  1  0
 21 15  1  0
 21 20  1  0
 22 15  2  0
 23 24  1  0
 25 26  2  0
 26 45  1  0
 27 26  1  0
 27 30  1  0
 28 25  1  0
 28 29  1  0
 29 27  2  0
 30 31  1  0
 31 32  2  0
 33 36  1  0
 33 32  1  0
 34 33  2  0
 35 34  1  0
 35 30  2  0
 36 37  1  0
 37 38  1  0
 38 39  2  0
 40 39  1  0
 40 44  1  0
 41 40  2  0
 42 37  2  0
 42 41  1  0
 43 42  1  0
 45 46  1  0
 46 49  1  0
 46 48  1  0
 47 45  2  0
 50 51  1  0
 50 25  1  0
 52 50  1  0
 53  7  1  0
 54 59  1  0
 54 53  1  0
 55 54  1  0
 56 55  1  0
 57 55  1  0
 58 55  1  0
 59 60  1  0
 60 62  1  0
 61 72  2  0
 62 67  1  0
 63 71  1  0
 63 73  1  0
 64 70  1  0
 64 66  1  0
 65 71  1  0
 66 65  1  0
 67 66  2  0
 68 69  1  0
 68 62  2  0
 69 64  2  0
 70 63  1  0
 71 61  1  0
 73 75  2  0
 74 73  1  0
 76 74  1  0
 77 86  2  0
 77 82  1  0
 78 74  1  0
 78 82  1  0
 79 78  1  0
 80 81  1  0
 80 79  1  0
 81 77  1  0
 82 83  2  0
 83 84  1  0
 85 84  2  0
 86 85  1  0
 87 61  1  0
 87 88  1  0
 87 97  1  0
 88 91  1  0
 89 93  1  0
 89 88  1  0
 90 89  2  0
 93 92  1  0
 95 93  1  0
 95 96  1  0
 95 94  1  0
 97100  1  1
 97 98  1  0
 99 97  1  0
M  ISO  4  15 100  23 100  59 101  60 101
M  END
>  <TORSDO>  (91) 
F 21

>  <SCORE>  (91) 
-13.686

>  <name>  (91) 
90

>  <ligand_id>  (91) 
90

>  <original_smiles>  (91) 
[H]c1c([H])c([H])c2c(c1[H])C([H])([H])C([H])([H])C([H])([H])C2([H])N([H])C(=O)C1([H])N(C(=O)C([H])(N([H])C(=O)C([H])(N([H])C([H])([H])[H])C([H])([H])[H])C(C([H])([H])[H])(C([H])([H])[H])C([H])([H])[H])C([H])([H])c2c([H])c(OC([H])([H])C([H])(C([H])([H])N3C([H])([H])C([H])([H])N(c4c([H])c([H])c(N([H])C(=O)N5C([H])([H])C([H])([H])C([H])([H])C([H])(n6nc(-c7c([H])c([H])c(Oc8c([H])c([H])c(F)c([H])c8F)c([H])c7[H])c(C(=O)N([H])[H])c6N([H])[H])C5([H])[H])c(C([H])([H])[H])c4[H])C([H])([H])C3([H])C([H])([H])[H])[N+]([H])([H])[H])c([H])c([H])c2C1([H])[H]

>  <smiles>  (91) 
[H]c1c([H])c([H])c2c(c1[H])C([H])([H])C([H])([H])C([H])([H])C2([H])N([H])C(=O)C1([H])N(C(=O)C([H])(N([H])C(=O)C([H])(N([H])C([H])([H])[H])C([H])([H])[H])C(C([H])([H])[H])(C([H])([H])[H])C([H])([H])[H])C([H])([H])c2c([H])c(OC([H])([H])C([H])(C([H])([H])N3C([H])([H])C([H])([H])N(c4c([H])c([H])c(N([H])C(=O)N5C([H])([H])C([H])([H])C([H])([H])C([H])(n6nc(-c7c([H])c([H])c(Oc8c([H])c([H])c(F)c([H])c8F)c([H])c7[H])c(C(=O)N([H])[H])c6N([H])[H])C5([H])[H])c(C([H])([H])[H])c4[H])C([H])([H])C3([H])C([H])([H])[H])[N+]([H])([H])[H])c([H])c([H])c2C1([H])[H]

$$$$
91:0:0
     RDKit          3D

 94103  0  0  1  0  0  0  0  0999 V2000
  -28.9160  -24.2530   19.8740 C   0  0  0  0  0  0  0  0  0  0  0  0
  -31.5250  -22.5540   19.8340 C   0  0  0  0  0  2  0  0  0  0  0  0
  -31.0680  -23.5910   20.8650 C   0  0  0  0  0  2  0  0  0  0  0  0
  -30.0890  -22.0030   19.8000 C   0  0  0  0  0  3  0  0  0  0  0  0
  -29.6940  -23.2510   20.4980 N   0  0  0  0  0  0  0  0  0  0  0  0
  -28.4380  -24.0910   18.7490 O   0  0  0  0  0  0  0  0  0  0  0  0
  -29.9660  -20.7010   20.6470 C   0  0  0  0  0  0  0  0  0  0  0  0
  -30.2130  -19.5200   20.0410 N   0  0  0  0  0  0  0  0  0  0  0  0
  -29.6760  -20.7700   21.8440 O   0  0  0  0  0  0  0  0  0  0  0  0
  -30.4590  -19.5560   19.0630 H   0  0  0  0  0  0  0  0  0  0  0  0
  -30.9560  -14.6280   19.6420 C   0  0  0  0  0  0  0  0  0  0  0  0
  -30.5150  -12.4980   18.4570 C   0  0  0  0  0  2  0  0  0  0  0  0
  -29.4370  -12.6870   17.3710 C   0  0  0  0  0  2  0  0  0  0  0  0
  -28.0250  -12.5120   17.9660 C   0  0  0  0  0  2  0  0  0  0  0  0
  -27.8340  -13.3160   19.2810 C   0  0  0  0  0  3  0  0  0  0  0  0
  -29.0170  -13.0560   20.2480 C   0  0  0  0  0  2  0  0  0  0  0  0
  -30.2380  -13.4620   19.5420 N   0  0  0  0  0  0  0  0  0  0  0  0
  -32.0590  -14.7110   19.0890 O   0  0  0  0  0  0  0  0  0  0  0  0
  -29.2170  -16.0410   20.9680 C   0  0  0  0  0  2  0  0  0  0  0  0
  -30.9990  -17.1170   19.8500 C   0  0  0  0  0  2  0  0  0  0  0  0
  -28.8940  -17.5380   20.8700 C   0  0  0  0  0  3  0  0  0  0  0  0
  -30.2610  -18.1900   20.6910 C   0  0  0  0  0  3  0  0  0  0  0  0
  -28.0410  -18.0550   22.0380 C   0  0  0  0  0  1  0  0  0  0  0  0
  -30.3730  -15.7920   20.0970 N   0  0  0  0  0  0  0  0  0  0  0  0
  -25.5560  -13.9280   20.3140 C   0  0  0  0  0  0  0  0  0  0  0  0
  -24.5250  -13.1540   20.7720 C   0  0  0  0  0  0  0  0  0  0  0  0
  -24.9460  -11.8000   20.6050 C   0  0  0  0  0  0  0  0  0  0  0  0
  -26.5450  -13.0440   19.9090 N   0  0  0  0  0  0  0  0  0  0  0  0
  -26.1870  -11.7550   20.1400 N   0  0  0  0  0  0  0  0  0  0  0  0
  -24.2220  -10.5400   20.8070 C   0  0  0  0  0  0  0  0  0  0  0  0
  -24.6570   -9.5780   21.7440 C   0  0  0  0  0  3  0  0  0  0  0  0
  -23.9310   -8.3830   21.9340 C   0  0  0  0  0  3  0  0  0  0  0  0
  -22.7570   -8.1390   21.1810 C   0  0  0  0  0  0  0  0  0  0  0  0
  -22.3410   -9.0920   20.2340 C   0  0  0  0  0  3  0  0  0  0  0  0
  -23.0680  -10.2780   20.0430 C   0  0  0  0  0  3  0  0  0  0  0  0
  -22.0030   -6.9960   21.2780 O   0  0  0  0  0  0  0  0  0  0  0  0
  -21.8330   -6.3450   22.4730 C   0  0  0  0  0  0  0  0  0  0  0  0
  -21.2770   -6.9890   23.5990 C   0  0  0  0  0  3  0  0  0  0  0  0
  -21.0560   -6.2660   24.7870 C   0  0  0  0  0  3  0  0  0  0  0  0
  -21.3770   -4.8970   24.8500 C   0  0  0  0  0  0  0  0  0  0  0  0
  -21.9280   -4.2530   23.7300 C   0  0  0  0  0  3  0  0  0  0  0  0
  -22.1520   -4.9730   22.5430 C   0  0  0  0  0  0  0  0  0  0  0  0
  -22.6610   -4.3410   21.4580 F   0  0  0  0  0  0  0  0  0  0  0  0
  -21.1570   -4.1990   25.9890 F   0  0  0  0  0  0  0  0  0  0  0  0
  -23.1840  -13.6380   21.2400 C   0  0  0  0  0  0  0  0  0  0  0  0
  -22.5690  -12.9290   22.1810 N   0  0  0  0  0  0  0  0  0  0  0  0
  -22.6920  -14.6810   20.8070 O   0  0  0  0  0  0  0  0  0  0  0  0
  -22.9840  -12.0900   22.5560 H   0  0  0  0  0  0  0  0  0  0  0  0
  -21.6750  -13.2340   22.5360 H   0  0  0  0  0  0  0  0  0  0  0  0
  -25.7180  -15.3030   20.1920 N   0  0  0  0  0  0  0  0  0  0  0  0
  -24.9710  -15.9510   20.4180 H   0  0  0  0  0  0  0  0  0  0  0  0
  -26.5120  -15.7570   19.7630 H   0  0  0  0  0  0  0  0  0  0  0  0
  -28.6490  -25.5620   20.6710 C   0  0  0  0  0  2  0  0  0  0  0  0
  -28.5700  -26.7280   19.8240 O   0  0  0  0  0  0  0  0  0  0  0  0
  -24.5770  -31.7590   22.9780 C   0  0  0  0  0  0  0  0  0  0  0  0
  -27.3800  -27.4260   19.8740 C   0  0  0  0  0  0  0  0  0  0  0  0
  -23.4280  -30.3450   21.3080 C   0  0  0  0  0  3  0  0  0  0  0  0
  -24.9390  -28.8590   19.8840 C   0  0  0  0  0  0  0  0  0  0  0  0
  -25.9440  -30.7720   21.1410 C   0  0  0  0  0  2  0  0  0  0  0  0
  -26.0760  -29.4100   20.4910 C   0  0  0  0  0  0  0  0  0  0  0  0
  -27.3020  -28.7020   20.4790 C   0  0  0  0  0  3  0  0  0  0  0  0
  -26.2280  -26.8850   19.2690 C   0  0  0  0  0  3  0  0  0  0  0  0
  -25.0120  -27.5950   19.2710 C   0  0  0  0  0  3  0  0  0  0  0  0
  -23.6700  -29.6830   19.9240 C   0  0  0  0  0  2  0  0  0  0  0  0
  -24.6690  -30.9750   21.8670 N   0  0  0  0  0  0  0  0  0  0  0  0
  -23.4810  -31.9960   23.5060 O   0  0  0  0  0  0  0  0  0  0  0  0
  -22.7930  -29.2980   22.2490 C   0  0  0  0  0  0  0  0  0  0  0  0
  -21.4620  -29.1380   22.1540 N   0  0  0  0  0  0  0  0  0  0  0  0
  -23.4910  -28.6300   23.0170 O   0  0  0  0  0  0  0  0  0  0  0  0
  -20.9600  -29.7270   21.5040 H   0  0  0  0  0  0  0  0  0  0  0  0
  -18.0790  -28.0260   22.7670 C   0  0  0  0  0  0  0  0  0  0  0  0
  -20.6560  -28.1820   22.9120 C   0  0  0  0  0  3  0  0  0  0  0  0
  -20.6750  -26.7890   22.2430 C   0  0  0  0  0  2  0  0  0  0  0  0
  -19.5080  -26.5680   21.2740 C   0  0  0  0  0  2  0  0  0  0  0  0
  -18.1700  -26.7160   22.0010 C   0  0  0  0  0  2  0  0  0  0  0  0
  -19.2460  -28.7220   23.1780 C   0  0  0  0  0  0  0  0  0  0  0  0
  -19.1050  -29.9520   23.8560 C   0  0  0  0  0  3  0  0  0  0  0  0
  -17.8300  -30.4860   24.1250 C   0  0  0  0  0  3  0  0  0  0  0  0
  -16.6780  -29.7850   23.7280 C   0  0  0  0  0  3  0  0  0  0  0  0
  -16.8040  -28.5560   23.0540 C   0  0  0  0  0  3  0  0  0  0  0  0
  -25.8380  -32.4130   23.6230 C   0  0  0  0  0  3  0  0  0  0  0  0
  -25.4620  -33.7680   24.0480 N   0  0  0  0  0  0  0  0  0  0  0  0
  -25.7150  -34.8820   23.3480 C   0  0  0  0  0  0  0  0  0  0  0  0
  -26.3610  -34.8810   22.2970 O   0  0  0  0  0  0  0  0  0  0  0  0
  -24.8760  -33.8360   24.8680 H   0  0  0  0  0  0  0  0  0  0  0  0
  -23.8790  -36.5910   23.1560 C   0  0  0  0  0  1  0  0  0  0  0  0
  -25.1660  -36.2110   23.9060 C   0  0  0  0  0  3  0  0  0  0  0  0
  -27.2690  -37.1690   24.7370 C   0  0  0  0  0  1  0  0  0  0  0  0
  -26.1340  -37.3260   23.8290 N   0  0  0  0  0  0  0  0  0  0  0  0
  -25.6820  -38.2120   24.0390 H   0  0  0  0  0  0  0  0  0  0  0  0
  -26.4170  -31.5880   24.8380 C   0  0  1  0  0  0  0  0  0  0  0  0
  -25.3540  -31.2200   25.9000 C   0  0  0  0  0  1  0  0  0  0  0  0
  -27.0680  -30.2740   24.3440 C   0  0  0  0  0  1  0  0  0  0  0  0
  -27.5360  -32.3980   25.5320 C   0  0  0  0  0  1  0  0  0  0  0  0
  1  5  1  0
  1 53  1  0
  2  3  1  0
  4  2  1  0
  4  5  1  0
  4  7  1  0
  5  3  1  0
  6  1  2  0
  7  9  2  0
  8  7  1  0
 10  8  1  0
 11 24  1  0
 12 17  1  0
 13 14  1  0
 13 12  1  0
 15 14  1  0
 15 28  1  0
 15 16  1  0
 17 11  1  0
 17 16  1  0
 18 11  2  0
 20 24  1  0
 20 22  1  0
 21 19  1  0
 21 23  1  0
 22  8  1  0
 22 21  1  0
 24 19  1  0
 25 26  2  0
 26 45  1  0
 27 26  1  0
 27 30  1  0
 28 29  1  0
 28 25  1  0
 29 27  2  0
 30 31  1  0
 31 32  2  0
 33 36  1  0
 33 32  1  0
 34 33  2  0
 35 34  1  0
 35 30  2  0
 36 37  1  0
 37 42  2  0
 37 38  1  0
 38 39  2  0
 39 40  1  0
 40 44  1  0
 41 40  2  0
 42 41  1  0
 43 42  1  0
 45 46  1  0
 46 49  1  0
 46 48  1  0
 47 45  2  0
 50 25  1  0
 50 51  1  0
 52 50  1  0
 54 56  1  0
 54 53  1  0
 55 66  2  0
 56 61  1  0
 57 65  1  0
 57 67  1  0
 58 64  1  0
 58 60  1  0
 59 65  1  0
 60 59  1  0
 61 60  2  0
 62 63  1  0
 62 56  2  0
 63 58  2  0
 64 57  1  0
 65 55  1  0
 67 69  2  0
 68 67  1  0
 70 68  1  0
 71 80  2  0
 71 76  1  0
 72 68  1  0
 72 76  1  0
 73 72  1  0
 74 75  1  0
 74 73  1  0
 75 71  1  0
 76 77  2  0
 77 78  1  0
 79 78  2  0
 80 79  1  0
 81 55  1  0
 81 82  1  0
 81 91  1  0
 82 85  1  0
 83 87  1  0
 83 82  1  0
 84 83  2  0
 87 86  1  0
 89 87  1  0
 89 90  1  0
 89 88  1  0
 91 94  1  1
 91 92  1  0
 93 91  1  0
M  ISO  4  11 100  24 100  53 101  54 101
M  END
>  <TORSDO>  (92) 
F 18

>  <SCORE>  (92) 
-9.785

>  <name>  (92) 
91

>  <ligand_id>  (92) 
91

>  <original_smiles>  (92) 
[H]c1c([H])c([H])c2c(c1[H])C([H])([H])C([H])([H])C([H])([H])C2([H])N([H])C(=O)C1([H])N(C(=O)C([H])(N([H])C(=O)C([H])(N([H])C([H])([H])[H])C([H])([H])[H])C(C([H])([H])[H])(C([H])([H])[H])C([H])([H])[H])C([H])([H])c2c([H])c(OC([H])([H])C(=O)N3C([H])([H])C([H])([H])C3([H])C(=O)N([H])C3([H])C([H])([H])N(C(=O)N4C([H])([H])C([H])([H])C([H])([H])C([H])(n5nc(-c6c([H])c([H])c(Oc7c([H])c([H])c(F)c([H])c7F)c([H])c6[H])c(C(=O)N([H])[H])c5N([H])[H])C4([H])[H])C([H])([H])C3([H])C([H])([H])[H])c([H])c([H])c2C1([H])[H]

>  <smiles>  (92) 
[H]c1c([H])c([H])c2c(c1[H])C([H])([H])C([H])([H])C([H])([H])C2([H])N([H])C(=O)C1([H])N(C(=O)C([H])(N([H])C(=O)C([H])(N([H])C([H])([H])[H])C([H])([H])[H])C(C([H])([H])[H])(C([H])([H])[H])C([H])([H])[H])C([H])([H])c2c([H])c(OC([H])([H])C(=O)N3C([H])([H])C([H])([H])C3([H])C(=O)N([H])C3([H])C([H])([H])N(C(=O)N4C([H])([H])C([H])([H])C([H])([H])C([H])(n5nc(-c6c([H])c([H])c(Oc7c([H])c([H])c(F)c([H])c7F)c([H])c6[H])c(C(=O)N([H])[H])c5N([H])[H])C4([H])[H])C([H])([H])C3([H])C([H])([H])[H])c([H])c([H])c2C1([H])[H]

$$$$
92:0:0
     RDKit          3D

 94102  0  0  1  0  0  0  0  0999 V2000
  -29.3500  -24.2090   19.9780 C   0  0  0  0  0  0  0  0  0  0  0  0
  -28.2510  -20.6400   20.8450 C   0  0  0  0  0  2  0  0  0  0  0  0
  -30.3580  -20.5470   19.5850 C   0  0  0  0  0  2  0  0  0  0  0  0
  -28.5000  -22.1460   21.1980 C   0  0  0  0  0  2  0  0  0  0  0  0
  -30.6160  -22.0480   19.9410 C   0  0  0  0  0  2  0  0  0  0  0  0
  -29.5330  -19.7790   20.6490 C   0  0  0  0  0  3  0  0  0  0  0  0
  -29.4120  -22.8580   20.2770 N   0  0  0  0  0  0  0  0  0  0  0  0
  -30.2220  -24.7430   19.2830 O   0  0  0  0  0  0  0  0  0  0  0  0
  -28.1950  -25.1360   20.4960 C   0  0  0  0  0  2  0  0  0  0  0  0
  -28.3700  -26.5640   20.1560 O   0  0  0  0  0  0  0  0  0  0  0  0
  -24.6050  -31.8790   23.2140 C   0  0  0  0  0  0  0  0  0  0  0  0
  -27.2300  -27.3690   20.1420 C   0  0  0  0  0  0  0  0  0  0  0  0
  -23.3990  -30.4800   21.5740 C   0  0  0  0  0  3  0  0  0  0  0  0
  -24.8510  -28.9410   20.1420 C   0  0  0  0  0  0  0  0  0  0  0  0
  -25.9330  -30.8190   21.3790 C   0  0  0  0  0  2  0  0  0  0  0  0
  -26.0170  -29.4440   20.7340 C   0  0  0  0  0  0  0  0  0  0  0  0
  -27.2100  -28.6690   20.7240 C   0  0  0  0  0  3  0  0  0  0  0  0
  -26.0450  -26.9130   19.5200 C   0  0  0  0  0  3  0  0  0  0  0  0
  -24.8660  -27.6800   19.5270 C   0  0  0  0  0  3  0  0  0  0  0  0
  -23.6100  -29.8080   20.1920 C   0  0  0  0  0  2  0  0  0  0  0  0
  -24.6640  -31.0760   22.1130 N   0  0  0  0  0  0  0  0  0  0  0  0
  -23.5240  -32.1510   23.7540 O   0  0  0  0  0  0  0  0  0  0  0  0
  -22.7460  -29.4580   22.5330 C   0  0  0  0  0  0  0  0  0  0  0  0
  -21.4190  -29.2850   22.4160 N   0  0  0  0  0  0  0  0  0  0  0  0
  -23.4310  -28.8250   23.3410 O   0  0  0  0  0  0  0  0  0  0  0  0
  -20.9260  -29.8460   21.7370 H   0  0  0  0  0  0  0  0  0  0  0  0
  -18.0420  -28.1000   22.9360 C   0  0  0  0  0  0  0  0  0  0  0  0
  -20.6040  -28.3460   23.1880 C   0  0  0  0  0  3  0  0  0  0  0  0
  -20.6960  -26.9170   22.6050 C   0  0  0  0  0  2  0  0  0  0  0  0
  -19.5840  -26.6040   21.5980 C   0  0  0  0  0  2  0  0  0  0  0  0
  -18.2080  -26.7520   22.2530 C   0  0  0  0  0  2  0  0  0  0  0  0
  -19.1680  -28.8540   23.3610 C   0  0  0  0  0  0  0  0  0  0  0  0
  -18.9590  -30.1150   23.9610 C   0  0  0  0  0  3  0  0  0  0  0  0
  -17.6570  -30.6210   24.1390 C   0  0  0  0  0  3  0  0  0  0  0  0
  -16.5470  -29.8630   23.7290 C   0  0  0  0  0  3  0  0  0  0  0  0
  -16.7400  -28.6040   23.1330 C   0  0  0  0  0  3  0  0  0  0  0  0
  -25.8910  -32.5120   23.8330 C   0  0  0  0  0  3  0  0  0  0  0  0
  -26.4170  -31.7340   25.1010 C   0  0  1  0  0  0  0  0  0  0  0  0
  -25.3300  -31.4860   26.1740 C   0  0  0  0  0  1  0  0  0  0  0  0
  -27.0020  -30.3610   24.6970 C   0  0  0  0  0  1  0  0  0  0  0  0
  -27.5680  -32.5280   25.7620 C   0  0  0  0  0  1  0  0  0  0  0  0
  -25.5780  -33.9070   24.1730 N   0  0  0  0  0  0  0  0  0  0  0  0
  -25.9030  -34.9650   23.4190 C   0  0  0  0  0  0  0  0  0  0  0  0
  -26.5690  -34.8690   22.3840 O   0  0  0  0  0  0  0  0  0  0  0  0
  -24.9860  -34.0550   24.9780 H   0  0  0  0  0  0  0  0  0  0  0  0
  -24.1690  -36.7540   23.0800 C   0  0  0  0  0  1  0  0  0  0  0  0
  -25.4130  -36.3490   23.8860 C   0  0  0  0  0  3  0  0  0  0  0  0
  -27.5490  -37.2330   24.7150 C   0  0  0  0  0  1  0  0  0  0  0  0
  -26.4430  -37.4060   23.7780 N   0  0  0  0  0  0  0  0  0  0  0  0
  -26.0350  -38.3230   23.9340 H   0  0  0  0  0  0  0  0  0  0  0  0
  -29.2420  -18.2260   20.3720 C   0  0  0  0  0  3  0  0  0  0  0  0
  -28.7490  -18.0100   19.0000 N   0  0  0  0  0  4  0  0  0  0  0  0
  -28.5160  -17.0450   18.8610 H   0  0  0  0  0  0  0  0  0  0  0  0
  -29.4530  -18.2560   18.3260 H   0  0  0  0  0  0  0  0  0  0  0  0
  -27.9270  -18.5600   18.8250 H   0  0  0  0  0  0  0  0  0  0  0  0
  -30.3530  -17.1480   20.7230 C   0  0  0  0  0  2  0  0  0  0  0  0
  -30.6590  -14.6140   20.3250 C   0  0  0  0  0  0  0  0  0  0  0  0
  -30.3930  -12.3830   19.2740 C   0  0  0  0  0  2  0  0  0  0  0  0
  -29.4550  -12.5150   18.0550 C   0  0  0  0  0  2  0  0  0  0  0  0
  -27.9800  -12.3750   18.4830 C   0  0  0  0  0  2  0  0  0  0  0  0
  -27.6280  -13.2550   19.7120 C   0  0  0  0  0  3  0  0  0  0  0  0
  -28.6860  -13.1130   20.8320 C   0  0  0  0  0  2  0  0  0  0  0  0
  -29.9990  -13.4200   20.2470 N   0  0  0  0  0  0  0  0  0  0  0  0
  -31.8210  -14.7430   19.9320 O   0  0  0  0  0  0  0  0  0  0  0  0
  -29.9170  -15.7080   20.6660 N   0  0  0  0  0  0  0  0  0  0  0  0
  -28.9830  -15.5010   20.9890 H   0  0  0  0  0  0  0  0  0  0  0  0
  -25.2360  -13.8780   20.4170 C   0  0  0  0  0  0  0  0  0  0  0  0
  -24.1650  -13.1160   20.7940 C   0  0  0  0  0  0  0  0  0  0  0  0
  -24.6190  -11.7620   20.7800 C   0  0  0  0  0  0  0  0  0  0  0  0
  -26.2770  -12.9890   20.1980 N   0  0  0  0  0  0  0  0  0  0  0  0
  -25.9100  -11.7120   20.4760 N   0  0  0  0  0  0  0  0  0  0  0  0
  -23.8840  -10.5070   20.9820 C   0  0  0  0  0  0  0  0  0  0  0  0
  -24.3100   -9.5460   21.9240 C   0  0  0  0  0  3  0  0  0  0  0  0
  -23.5750   -8.3550   22.1140 C   0  0  0  0  0  3  0  0  0  0  0  0
  -22.4000   -8.1190   21.3600 C   0  0  0  0  0  0  0  0  0  0  0  0
  -21.9950   -9.0680   20.4060 C   0  0  0  0  0  3  0  0  0  0  0  0
  -22.7310  -10.2500   20.2140 C   0  0  0  0  0  3  0  0  0  0  0  0
  -21.6370   -6.9810   21.4590 O   0  0  0  0  0  0  0  0  0  0  0  0
  -21.5850   -6.2480   22.6180 C   0  0  0  0  0  0  0  0  0  0  0  0
  -21.1670   -6.8170   23.8420 C   0  0  0  0  0  3  0  0  0  0  0  0
  -21.0590   -6.0110   24.9920 C   0  0  0  0  0  3  0  0  0  0  0  0
  -21.3600   -4.6370   24.9220 C   0  0  0  0  0  0  0  0  0  0  0  0
  -21.7710   -4.0690   23.7030 C   0  0  0  0  0  3  0  0  0  0  0  0
  -21.8790   -4.8720   22.5540 C   0  0  0  0  0  0  0  0  0  0  0  0
  -22.2550   -4.3140   21.3780 F   0  0  0  0  0  0  0  0  0  0  0  0
  -21.2510   -3.8610   26.0250 F   0  0  0  0  0  0  0  0  0  0  0  0
  -22.7700  -13.6060   21.0560 C   0  0  0  0  0  0  0  0  0  0  0  0
  -22.0360  -12.9250   21.9290 N   0  0  0  0  0  0  0  0  0  0  0  0
  -22.3400  -14.6270   20.5220 O   0  0  0  0  0  0  0  0  0  0  0  0
  -22.3970  -12.0990   22.3820 H   0  0  0  0  0  0  0  0  0  0  0  0
  -21.0990  -13.2350   22.1470 H   0  0  0  0  0  0  0  0  0  0  0  0
  -25.4060  -15.2460   20.2220 N   0  0  0  0  0  0  0  0  0  0  0  0
  -24.6360  -15.9000   20.3220 H   0  0  0  0  0  0  0  0  0  0  0  0
  -26.2450  -15.6750   19.8630 H   0  0  0  0  0  0  0  0  0  0  0  0
  1  7  1  0
  1  9  1  0
  2  4  1  0
  3  5  1  0
  3  6  1  0
  5  7  1  0
  6 51  1  0
  6  2  1  0
  7  4  1  0
  8  1  2  0
 10  9  1  0
 11 22  2  0
 12 10  1  0
 12 17  1  0
 13 21  1  0
 13 23  1  0
 14 20  1  0
 14 16  1  0
 15 21  1  0
 16 15  1  0
 17 16  2  0
 18 19  1  0
 18 12  2  0
 19 14  2  0
 20 13  1  0
 21 11  1  0
 23 25  2  0
 24 23  1  0
 26 24  1  0
 27 36  2  0
 27 32  1  0
 28 24  1  0
 28 32  1  0
 29 28  1  0
 30 31  1  0
 30 29  1  0
 31 27  1  0
 32 33  2  0
 33 34  1  0
 35 34  2  0
 36 35  1  0
 37 11  1  0
 37 42  1  0
 37 38  1  0
 38 41  1  1
 38 39  1  0
 40 38  1  0
 42 45  1  0
 43 47  1  0
 43 42  1  0
 44 43  2  0
 47 46  1  0
 49 47  1  0
 49 50  1  0
 49 48  1  0
 51 56  1  0
 52 51  1  0
 53 52  1  0
 54 52  1  0
 55 52  1  0
 57 65  1  0
 58 63  1  0
 59 60  1  0
 59 58  1  0
 61 60  1  0
 61 70  1  0
 61 62  1  0
 63 57  1  0
 63 62  1  0
 64 57  2  0
 65 56  1  0
 65 66  1  0
 67 68  2  0
 68 87  1  0
 69 68  1  0
 69 72  1  0
 70 67  1  0
 70 71  1  0
 71 69  2  0
 72 73  1  0
 73 74  2  0
 75 78  1  0
 75 74  1  0
 76 75  2  0
 77 76  1  0
 77 72  2  0
 78 79  1  0
 79 80  1  0
 80 81  2  0
 82 81  1  0
 82 86  1  0
 83 82  2  0
 84 79  2  0
 84 83  1  0
 85 84  1  0
 87 88  1  0
 88 91  1  0
 88 90  1  0
 89 87  2  0
 92 93  1  0
 92 67  1  0
 94 92  1  0
M  ISO  4   9 101  10 101  57 100  65 100
M  END
>  <TORSDO>  (93) 
F 20

>  <SCORE>  (93) 
-14.103

>  <name>  (93) 
92

>  <ligand_id>  (93) 
92

>  <original_smiles>  (93) 
[H]c1c([H])c([H])c2c(c1[H])C([H])([H])C([H])([H])C([H])([H])C2([H])N([H])C(=O)C1([H])N(C(=O)C([H])(N([H])C(=O)C([H])(N([H])C([H])([H])[H])C([H])([H])[H])C(C([H])([H])[H])(C([H])([H])[H])C([H])([H])[H])C([H])([H])c2c([H])c(OC([H])([H])C(=O)N3C([H])([H])C([H])([H])C([H])(C([H])(C([H])([H])N([H])C(=O)N4C([H])([H])C([H])([H])C([H])([H])C([H])(n5nc(-c6c([H])c([H])c(Oc7c([H])c([H])c(F)c([H])c7F)c([H])c6[H])c(C(=O)N([H])[H])c5N([H])[H])C4([H])[H])[N+]([H])([H])[H])C([H])([H])C3([H])[H])c([H])c([H])c2C1([H])[H]

>  <smiles>  (93) 
[H]c1c([H])c([H])c2c(c1[H])C([H])([H])C([H])([H])C([H])([H])C2([H])N([H])C(=O)C1([H])N(C(=O)C([H])(N([H])C(=O)C([H])(N([H])C([H])([H])[H])C([H])([H])[H])C(C([H])([H])[H])(C([H])([H])[H])C([H])([H])[H])C([H])([H])c2c([H])c(OC([H])([H])C(=O)N3C([H])([H])C([H])([H])C([H])(C([H])(C([H])([H])N([H])C(=O)N4C([H])([H])C([H])([H])C([H])([H])C([H])(n5nc(-c6c([H])c([H])c(Oc7c([H])c([H])c(F)c([H])c7F)c([H])c6[H])c(C(=O)N([H])[H])c5N([H])[H])C4([H])[H])[N+]([H])([H])[H])C([H])([H])C3([H])[H])c([H])c([H])c2C1([H])[H]

$$$$
93:0:0
     RDKit          3D

 95103  0  0  1  0  0  0  0  0999 V2000
  -32.0520  -19.6020   20.8640 C   0  0  0  0  0  2  0  0  0  0  0  0
  -31.5360  -20.5650   19.7990 C   0  0  0  0  0  2  0  0  0  0  0  0
  -30.8020  -19.2570   21.6910 C   0  0  0  0  0  3  0  0  0  0  0  0
  -30.3920  -21.3350   20.4880 C   0  0  0  0  0  3  0  0  0  0  0  0
  -29.8900  -20.4190   21.5480 N   0  0  0  0  0  4  0  0  0  0  0  0
  -29.7670  -20.9080   22.4180 H   0  0  0  0  0  0  0  0  0  0  0  0
  -28.9970  -20.0390   21.2690 H   0  0  0  0  0  0  0  0  0  0  0  0
  -30.1020  -17.9380   21.2710 C   0  0  0  0  0  0  0  0  0  0  0  0
  -29.0540  -17.9060   20.6160 O   0  0  0  0  0  0  0  0  0  0  0  0
  -30.7860  -16.6330   21.7390 C   0  0  0  0  0  2  0  0  0  0  0  0
  -30.6990  -14.4730   20.4670 C   0  0  0  0  0  0  0  0  0  0  0  0
  -30.3470  -12.3740   19.2130 C   0  0  0  0  0  2  0  0  0  0  0  0
  -29.3770  -12.6030   18.0370 C   0  0  0  0  0  2  0  0  0  0  0  0
  -27.9160  -12.4460   18.4990 C   0  0  0  0  0  2  0  0  0  0  0  0
  -27.6070  -13.2560   19.7870 C   0  0  0  0  0  3  0  0  0  0  0  0
  -28.6820  -13.0040   20.8660 C   0  0  0  0  0  2  0  0  0  0  0  0
  -29.9960  -13.3230   20.2820 N   0  0  0  0  0  0  0  0  0  0  0  0
  -31.7740  -14.6980   19.9060 O   0  0  0  0  0  0  0  0  0  0  0  0
  -30.1380  -15.3890   21.2750 N   0  0  0  0  0  0  0  0  0  0  0  0
  -29.2270  -15.1750   21.6540 H   0  0  0  0  0  0  0  0  0  0  0  0
  -25.2170  -13.8470   20.5390 C   0  0  0  0  0  0  0  0  0  0  0  0
  -24.1590  -13.0670   20.9180 C   0  0  0  0  0  0  0  0  0  0  0  0
  -24.6260  -11.7180   20.8700 C   0  0  0  0  0  0  0  0  0  0  0  0
  -26.2620  -12.9720   20.2860 N   0  0  0  0  0  0  0  0  0  0  0  0
  -25.9110  -11.6860   20.5420 N   0  0  0  0  0  0  0  0  0  0  0  0
  -23.9090  -10.4500   21.0620 C   0  0  0  0  0  0  0  0  0  0  0  0
  -24.3650   -9.4760   21.9780 C   0  0  0  0  0  3  0  0  0  0  0  0
  -23.6490   -8.2730   22.1580 C   0  0  0  0  0  3  0  0  0  0  0  0
  -22.4630   -8.0360   21.4230 C   0  0  0  0  0  0  0  0  0  0  0  0
  -22.0270   -8.9990   20.4960 C   0  0  0  0  0  3  0  0  0  0  0  0
  -22.7430  -10.1930   20.3140 C   0  0  0  0  0  3  0  0  0  0  0  0
  -21.7160   -6.8870   21.5140 O   0  0  0  0  0  0  0  0  0  0  0  0
  -21.6940   -6.1310   22.6580 C   0  0  0  0  0  0  0  0  0  0  0  0
  -21.2880   -6.6680   23.8990 C   0  0  0  0  0  3  0  0  0  0  0  0
  -21.2150   -5.8380   25.0360 C   0  0  0  0  0  3  0  0  0  0  0  0
  -21.5370   -4.4720   24.9330 C   0  0  0  0  0  0  0  0  0  0  0  0
  -21.9370   -3.9340   23.6960 C   0  0  0  0  0  3  0  0  0  0  0  0
  -22.0120   -4.7610   22.5620 C   0  0  0  0  0  0  0  0  0  0  0  0
  -22.3780   -4.2330   21.3690 F   0  0  0  0  0  0  0  0  0  0  0  0
  -21.4590   -3.6720   26.0220 F   0  0  0  0  0  0  0  0  0  0  0  0
  -22.7640  -13.5350   21.2180 C   0  0  0  0  0  0  0  0  0  0  0  0
  -22.0540  -12.8250   22.0880 N   0  0  0  0  0  0  0  0  0  0  0  0
  -22.3140  -14.5630   20.7160 O   0  0  0  0  0  0  0  0  0  0  0  0
  -22.4310  -11.9930   22.5150 H   0  0  0  0  0  0  0  0  0  0  0  0
  -21.1190  -13.1200   22.3310 H   0  0  0  0  0  0  0  0  0  0  0  0
  -25.3750  -15.2190   20.3690 N   0  0  0  0  0  0  0  0  0  0  0  0
  -24.6090  -15.8720   20.4910 H   0  0  0  0  0  0  0  0  0  0  0  0
  -26.2230  -15.6640   20.0370 H   0  0  0  0  0  0  0  0  0  0  0  0
  -29.7160  -22.2130   18.1140 C   0  0  0  0  0  1  0  0  0  0  0  0
  -29.2580  -21.8300   19.5390 C   0  0  0  0  0  3  0  0  0  0  0  0
  -28.5250  -22.9320   20.1850 N   0  0  0  0  0  0  0  0  0  0  0  0
  -27.5590  -22.9160   19.8630 H   0  0  0  0  0  0  0  0  0  0  0  0
  -29.0390  -24.2960   19.9560 C   0  0  0  0  0  2  0  0  0  0  0  0
  -28.2370  -25.3460   20.7600 C   0  0  0  0  0  2  0  0  0  0  0  0
  -28.4110  -26.6860   20.2520 O   0  0  0  0  0  0  0  0  0  0  0  0
  -24.5960  -31.9060   23.2470 C   0  0  0  0  0  0  0  0  0  0  0  0
  -27.2610  -27.4500   20.2100 C   0  0  0  0  0  0  0  0  0  0  0  0
  -23.4040  -30.4960   21.6020 C   0  0  0  0  0  3  0  0  0  0  0  0
  -24.8710  -28.9620   20.1860 C   0  0  0  0  0  0  0  0  0  0  0  0
  -25.9320  -30.8590   21.4210 C   0  0  0  0  0  2  0  0  0  0  0  0
  -26.0250  -29.4870   20.7830 C   0  0  0  0  0  0  0  0  0  0  0  0
  -27.2260  -28.7390   20.7900 C   0  0  0  0  0  3  0  0  0  0  0  0
  -26.0970  -26.9520   19.5840 C   0  0  0  0  0  3  0  0  0  0  0  0
  -24.9030  -27.6950   19.5800 C   0  0  0  0  0  3  0  0  0  0  0  0
  -23.6250  -29.8170   20.2240 C   0  0  0  0  0  2  0  0  0  0  0  0
  -24.6610  -31.1020   22.1480 N   0  0  0  0  0  0  0  0  0  0  0  0
  -23.5110  -32.1770   23.7790 O   0  0  0  0  0  0  0  0  0  0  0  0
  -22.7500  -29.4740   22.5610 C   0  0  0  0  0  0  0  0  0  0  0  0
  -21.4260  -29.2930   22.4330 N   0  0  0  0  0  0  0  0  0  0  0  0
  -23.4330  -28.8470   23.3770 O   0  0  0  0  0  0  0  0  0  0  0  0
  -20.9380  -29.8520   21.7470 H   0  0  0  0  0  0  0  0  0  0  0  0
  -18.0450  -28.1230   22.9410 C   0  0  0  0  0  0  0  0  0  0  0  0
  -20.6060  -28.3590   23.2020 C   0  0  0  0  0  3  0  0  0  0  0  0
  -20.6940  -26.9300   22.6190 C   0  0  0  0  0  2  0  0  0  0  0  0
  -19.5860  -26.6210   21.6080 C   0  0  0  0  0  2  0  0  0  0  0  0
  -18.2080  -26.7750   22.2570 C   0  0  0  0  0  2  0  0  0  0  0  0
  -19.1720  -28.8730   23.3700 C   0  0  0  0  0  0  0  0  0  0  0  0
  -18.9670  -30.1360   23.9680 C   0  0  0  0  0  3  0  0  0  0  0  0
  -17.6680  -30.6490   24.1390 C   0  0  0  0  0  3  0  0  0  0  0  0
  -16.5550  -29.8940   23.7270 C   0  0  0  0  0  3  0  0  0  0  0  0
  -16.7440  -28.6330   23.1340 C   0  0  0  0  0  3  0  0  0  0  0  0
  -25.8780  -32.5430   23.8710 C   0  0  0  0  0  3  0  0  0  0  0  0
  -25.5660  -33.9420   24.1890 N   0  0  0  0  0  0  0  0  0  0  0  0
  -25.9070  -34.9900   23.4260 C   0  0  0  0  0  0  0  0  0  0  0  0
  -26.5900  -34.8800   22.4040 O   0  0  0  0  0  0  0  0  0  0  0  0
  -24.9640  -34.1020   24.9830 H   0  0  0  0  0  0  0  0  0  0  0  0
  -24.1880  -36.7810   23.0290 C   0  0  0  0  0  1  0  0  0  0  0  0
  -25.4130  -36.3800   23.8680 C   0  0  0  0  0  3  0  0  0  0  0  0
  -27.5320  -37.2640   24.7380 C   0  0  0  0  0  1  0  0  0  0  0  0
  -26.4500  -37.4310   23.7710 N   0  0  0  0  0  0  0  0  0  0  0  0
  -26.0420  -38.3520   23.9080 H   0  0  0  0  0  0  0  0  0  0  0  0
  -26.3900  -31.7790   25.1530 C   0  0  1  0  0  0  0  0  0  0  0  0
  -25.2910  -31.5420   26.2160 C   0  0  0  0  0  1  0  0  0  0  0  0
  -26.9780  -30.4010   24.7680 C   0  0  0  0  0  1  0  0  0  0  0  0
  -27.5350  -32.5780   25.8170 C   0  0  0  0  0  1  0  0  0  0  0  0
  1  3  1  0
  2  4  1  0
  2  1  1  0
  3  8  1  0
  4 50  1  0
  4  5  1  0
  5  3  1  0
  5  6  1  0
  7  5  1  0
  8 10  1  0
  9  8  2  0
 11 19  1  0
 12 17  1  0
 13 14  1  0
 13 12  1  0
 15 14  1  0
 15 24  1  0
 15 16  1  0
 17 11  1  0
 17 16  1  0
 18 11  2  0
 19 20  1  0
 19 10  1  0
 21 22  2  0
 22 41  1  0
 23 22  1  0
 23 26  1  0
 24 21  1  0
 24 25  1  0
 25 23  2  0
 26 27  1  0
 27 28  2  0
 29 32  1  0
 29 28  1  0
 30 29  2  0
 31 30  1  0
 31 26  2  0
 32 33  1  0
 33 34  1  0
 34 35  2  0
 36 35  1  0
 36 40  1  0
 37 36  2  0
 38 33  2  0
 38 37  1  0
 39 38  1  0
 41 42  1  0
 42 45  1  0
 42 44  1  0
 43 41  2  0
 46 47  1  0
 46 21  1  0
 48 46  1  0
 50 49  1  0
 50 51  1  0
 52 51  1  0
 53 51  1  0
 53 54  1  0
 55 54  1  0
 56 67  2  0
 57 55  1  0
 57 62  1  0
 58 66  1  0
 58 68  1  0
 59 65  1  0
 59 61  1  0
 60 66  1  0
 61 62  2  0
 61 60  1  0
 63 57  2  0
 64 63  1  0
 64 59  2  0
 65 58  1  0
 66 56  1  0
 68 70  2  0
 69 68  1  0
 71 69  1  0
 72 81  2  0
 72 77  1  0
 73 69  1  0
 73 77  1  0
 74 73  1  0
 75 76  1  0
 75 74  1  0
 76 72  1  0
 77 78  2  0
 78 79  1  0
 80 79  2  0
 81 80  1  0
 82 56  1  0
 82 83  1  0
 82 92  1  0
 83 86  1  0
 84 88  1  0
 84 83  1  0
 85 84  2  0
 88 87  1  0
 90 88  1  0
 90 91  1  0
 90 89  1  0
 92 95  1  1
 92 93  1  0
 94 92  1  0
M  ISO  4  11 100  19 100  54 101  55 101
M  END
>  <TORSDO>  (94) 
F 22

>  <SCORE>  (94) 
-13.506

>  <name>  (94) 
93

>  <ligand_id>  (94) 
93

>  <original_smiles>  (94) 
[H]c1c([H])c([H])c2c(c1[H])C([H])([H])C([H])([H])C([H])([H])C2([H])N([H])C(=O)C1([H])N(C(=O)C([H])(N([H])C(=O)C([H])(N([H])C([H])([H])[H])C([H])([H])[H])C(C([H])([H])[H])(C([H])([H])[H])C([H])([H])[H])C([H])([H])c2c([H])c(OC([H])([H])C([H])([H])N([H])C([H])(C([H])([H])[H])C3([H])C([H])([H])C([H])([H])C([H])(C(=O)C([H])([H])N([H])C(=O)N4C([H])([H])C([H])([H])C([H])([H])C([H])(n5nc(-c6c([H])c([H])c(Oc7c([H])c([H])c(F)c([H])c7F)c([H])c6[H])c(C(=O)N([H])[H])c5N([H])[H])C4([H])[H])[N+]3([H])[H])c([H])c([H])c2C1([H])[H]

>  <smiles>  (94) 
[H]c1c([H])c([H])c2c(c1[H])C([H])([H])C([H])([H])C([H])([H])C2([H])N([H])C(=O)C1([H])N(C(=O)C([H])(N([H])C(=O)C([H])(N([H])C([H])([H])[H])C([H])([H])[H])C(C([H])([H])[H])(C([H])([H])[H])C([H])([H])[H])C([H])([H])c2c([H])c(OC([H])([H])C([H])([H])N([H])C([H])(C([H])([H])[H])C3([H])C([H])([H])C([H])([H])C([H])(C(=O)C([H])([H])N([H])C(=O)N4C([H])([H])C([H])([H])C([H])([H])C([H])(n5nc(-c6c([H])c([H])c(Oc7c([H])c([H])c(F)c([H])c7F)c([H])c6[H])c(C(=O)N([H])[H])c5N([H])[H])C4([H])[H])[N+]3([H])[H])c([H])c([H])c2C1([H])[H]

$$$$
94:0:0
     RDKit          3D

 96105  0  0  1  0  0  0  0  0999 V2000
  -32.1200  -20.6890   18.0440 C   0  0  0  0  0  3  0  0  0  0  0  0
  -31.1010  -21.6230   17.7790 C   0  0  0  0  0  3  0  0  0  0  0  0
  -32.0190  -19.8330   19.1580 C   0  0  0  0  0  3  0  0  0  0  0  0
  -29.8910  -20.8610   19.7530 C   0  0  0  0  0  3  0  0  0  0  0  0
  -29.9820  -21.7140   18.6300 C   0  0  0  0  0  0  0  0  0  0  0  0
  -30.8960  -19.9050   20.0120 C   0  0  0  0  0  0  0  0  0  0  0  0
  -31.7280  -19.2010   22.1570 C   0  0  0  0  0  1  0  0  0  0  0  0
  -30.7380  -19.0260   21.0960 N   0  0  0  0  0  0  0  0  0  0  0  0
  -31.0900  -14.2050   20.1100 C   0  0  0  0  0  0  0  0  0  0  0  0
  -30.6420  -12.1470   18.8250 C   0  0  0  0  0  2  0  0  0  0  0  0
  -29.6470  -12.4330   17.6730 C   0  0  0  0  0  2  0  0  0  0  0  0
  -28.1820  -12.3360   18.1500 C   0  0  0  0  0  2  0  0  0  0  0  0
  -27.9390  -13.1020   19.4770 C   0  0  0  0  0  3  0  0  0  0  0  0
  -29.0270  -12.7300   20.5080 C   0  0  0  0  0  2  0  0  0  0  0  0
  -30.3290  -13.0830   19.9220 N   0  0  0  0  0  0  0  0  0  0  0  0
  -32.2220  -14.2870   19.6180 O   0  0  0  0  0  0  0  0  0  0  0  0
  -29.3980  -17.0490   21.8900 C   0  0  0  0  0  2  0  0  0  0  0  0
  -29.4000  -15.5670   21.5060 C   0  0  0  0  0  2  0  0  0  0  0  0
  -31.1390  -16.6520   20.2970 C   0  0  0  0  0  2  0  0  0  0  0  0
  -30.1500  -17.7250   20.7530 C   0  0  0  0  0  3  0  0  0  0  0  0
  -30.5050  -15.3540   20.5630 N   0  0  0  0  0  0  0  0  0  0  0  0
  -25.5790  -13.7870   20.2460 C   0  0  0  0  0  0  0  0  0  0  0  0
  -24.5100  -13.0500   20.6710 C   0  0  0  0  0  0  0  0  0  0  0  0
  -24.9440  -11.6870   20.6680 C   0  0  0  0  0  0  0  0  0  0  0  0
  -26.5990  -12.8770   20.0090 N   0  0  0  0  0  0  0  0  0  0  0  0
  -26.2210  -11.6110   20.3180 N   0  0  0  0  0  0  0  0  0  0  0  0
  -24.2020  -10.4490   20.9190 C   0  0  0  0  0  0  0  0  0  0  0  0
  -24.6110   -9.5330   21.9140 C   0  0  0  0  0  3  0  0  0  0  0  0
  -23.8750   -8.3530   22.1450 C   0  0  0  0  0  3  0  0  0  0  0  0
  -22.7140   -8.0800   21.3840 C   0  0  0  0  0  0  0  0  0  0  0  0
  -22.3270   -8.9830   20.3770 C   0  0  0  0  0  3  0  0  0  0  0  0
  -23.0640  -10.1550   20.1450 C   0  0  0  0  0  3  0  0  0  0  0  0
  -21.9490   -6.9480   21.5200 O   0  0  0  0  0  0  0  0  0  0  0  0
  -21.8210   -6.3080   22.7280 C   0  0  0  0  0  0  0  0  0  0  0  0
  -21.3090   -6.9610   23.8690 C   0  0  0  0  0  3  0  0  0  0  0  0
  -21.1350   -6.2460   25.0710 C   0  0  0  0  0  3  0  0  0  0  0  0
  -21.4580   -4.8780   25.1310 C   0  0  0  0  0  0  0  0  0  0  0  0
  -21.9600   -4.2220   23.9930 C   0  0  0  0  0  3  0  0  0  0  0  0
  -22.1390   -4.9360   22.7940 C   0  0  0  0  0  0  0  0  0  0  0  0
  -22.6070   -4.2950   21.6960 F   0  0  0  0  0  0  0  0  0  0  0  0
  -21.2830   -4.1890   26.2820 F   0  0  0  0  0  0  0  0  0  0  0  0
  -23.1300  -13.5640   20.9700 C   0  0  0  0  0  0  0  0  0  0  0  0
  -22.4220  -12.9210   21.8890 N   0  0  0  0  0  0  0  0  0  0  0  0
  -22.6910  -14.5730   20.4190 O   0  0  0  0  0  0  0  0  0  0  0  0
  -22.7940  -12.1100   22.3640 H   0  0  0  0  0  0  0  0  0  0  0  0
  -21.4950  -13.2440   22.1230 H   0  0  0  0  0  0  0  0  0  0  0  0
  -25.7690  -15.1480   20.0220 N   0  0  0  0  0  0  0  0  0  0  0  0
  -25.0320  -15.8320   20.1560 H   0  0  0  0  0  0  0  0  0  0  0  0
  -26.6350  -15.5540   19.6940 H   0  0  0  0  0  0  0  0  0  0  0  0
  -28.8740  -22.7030   18.3190 C   0  0  0  0  0  2  0  0  0  0  0  0
  -28.6660  -25.1780   18.3270 C   0  0  0  0  0  0  0  0  0  0  0  0
  -29.1790  -24.0420   18.8140 N   0  0  0  0  0  0  0  0  0  0  0  0
  -27.8860  -25.2040   17.3710 O   0  0  0  0  0  0  0  0  0  0  0  0
  -29.8180  -24.1170   19.5960 H   0  0  0  0  0  0  0  0  0  0  0  0
  -29.0740  -26.4820   19.0240 C   0  0  0  0  0  2  0  0  0  0  0  0
  -28.4340  -26.6010   20.3010 O   0  0  0  0  0  0  0  0  0  0  0  0
  -24.5740  -31.8050   23.2610 C   0  0  0  0  0  0  0  0  0  0  0  0
  -27.2560  -27.3100   20.3020 C   0  0  0  0  0  0  0  0  0  0  0  0
  -23.3880  -30.3790   21.6220 C   0  0  0  0  0  3  0  0  0  0  0  0
  -24.8580  -28.7990   20.2640 C   0  0  0  0  0  0  0  0  0  0  0  0
  -25.9150  -30.7210   21.4620 C   0  0  0  0  0  2  0  0  0  0  0  0
  -26.0040  -29.3310   20.8690 C   0  0  0  0  0  0  0  0  0  0  0  0
  -27.2030  -28.5850   20.9030 C   0  0  0  0  0  3  0  0  0  0  0  0
  -26.0870  -26.7740   19.7190 C   0  0  0  0  0  3  0  0  0  0  0  0
  -24.8910  -27.5120   19.6970 C   0  0  0  0  0  3  0  0  0  0  0  0
  -23.6180  -29.6620   20.2630 C   0  0  0  0  0  2  0  0  0  0  0  0
  -24.6430  -30.9830   22.1750 N   0  0  0  0  0  0  0  0  0  0  0  0
  -23.4840  -32.0980   23.7720 O   0  0  0  0  0  0  0  0  0  0  0  0
  -22.7140  -29.3830   22.5900 C   0  0  0  0  0  0  0  0  0  0  0  0
  -21.3980  -29.1850   22.4130 N   0  0  0  0  0  0  0  0  0  0  0  0
  -23.3690  -28.7910   23.4520 O   0  0  0  0  0  0  0  0  0  0  0  0
  -20.9320  -29.7230   21.6950 H   0  0  0  0  0  0  0  0  0  0  0  0
  -18.0170  -27.9690   22.8040 C   0  0  0  0  0  0  0  0  0  0  0  0
  -20.5580  -28.2670   23.1800 C   0  0  0  0  0  3  0  0  0  0  0  0
  -20.6980  -26.8170   22.6630 C   0  0  0  0  0  2  0  0  0  0  0  0
  -19.6480  -26.4470   21.6110 C   0  0  0  0  0  2  0  0  0  0  0  0
  -18.2370  -26.5980   22.1860 C   0  0  0  0  0  2  0  0  0  0  0  0
  -19.1080  -28.7590   23.2530 C   0  0  0  0  0  0  0  0  0  0  0  0
  -18.8520  -30.0400   23.7900 C   0  0  0  0  0  3  0  0  0  0  0  0
  -17.5360  -30.5330   23.8790 C   0  0  0  0  0  3  0  0  0  0  0  0
  -16.4590  -29.7460   23.4390 C   0  0  0  0  0  3  0  0  0  0  0  0
  -16.7000  -28.4640   22.9100 C   0  0  0  0  0  3  0  0  0  0  0  0
  -25.8520  -32.4390   23.8970 C   0  0  0  0  0  3  0  0  0  0  0  0
  -26.3570  -31.6700   25.1790 C   0  0  1  0  0  0  0  0  0  0  0  0
  -25.2520  -31.4270   26.2320 C   0  0  0  0  0  1  0  0  0  0  0  0
  -26.9530  -30.2970   24.7860 C   0  0  0  0  0  1  0  0  0  0  0  0
  -27.4960  -32.4740   25.8530 C   0  0  0  0  0  1  0  0  0  0  0  0
  -25.5390  -33.8370   24.2160 N   0  0  0  0  0  0  0  0  0  0  0  0
  -25.8810  -34.8860   23.4550 C   0  0  0  0  0  0  0  0  0  0  0  0
  -26.5650  -34.7770   22.4320 O   0  0  0  0  0  0  0  0  0  0  0  0
  -24.9340  -33.9950   25.0090 H   0  0  0  0  0  0  0  0  0  0  0  0
  -24.1560  -36.6740   23.0660 C   0  0  0  0  0  1  0  0  0  0  0  0
  -25.3860  -36.2760   23.8980 C   0  0  0  0  0  3  0  0  0  0  0  0
  -27.5070  -37.1640   24.7600 C   0  0  0  0  0  1  0  0  0  0  0  0
  -26.4210  -37.3290   23.7960 N   0  0  0  0  0  0  0  0  0  0  0  0
  -26.0110  -38.2510   23.9360 H   0  0  0  0  0  0  0  0  0  0  0  0
  1  3  1  0
  2  1  2  0
  2  5  1  0
  3  6  2  0
  4  6  1  0
  5  4  2  0
  6  8  1  0
  8  7  1  0
  9 21  1  0
 10 15  1  0
 11 12  1  0
 11 10  1  0
 13 12  1  0
 13 25  1  0
 13 14  1  0
 15  9  1  0
 15 14  1  0
 16  9  2  0
 18 17  1  0
 19 21  1  0
 19 20  1  0
 20  8  1  0
 20 17  1  0
 21 18  1  0
 22 23  2  0
 23 42  1  0
 24 23  1  0
 24 27  1  0
 25 22  1  0
 25 26  1  0
 26 24  2  0
 27 28  1  0
 28 29  2  0
 30 33  1  0
 30 29  1  0
 31 30  2  0
 32 31  1  0
 32 27  2  0
 33 34  1  0
 34 39  2  0
 34 35  1  0
 35 36  2  0
 36 37  1  0
 37 41  1  0
 38 37  2  0
 39 38  1  0
 40 39  1  0
 42 43  1  0
 43 46  1  0
 43 45  1  0
 44 42  2  0
 47 48  1  0
 47 22  1  0
 49 47  1  0
 50  5  1  0
 50 52  1  0
 51 52  1  0
 51 55  1  0
 52 54  1  0
 53 51  2  0
 55 56  1  0
 56 58  1  0
 57 68  2  0
 58 63  1  0
 59 67  1  0
 59 69  1  0
 60 62  1  0
 61 67  1  0
 62 63  2  0
 62 61  1  0
 64 58  2  0
 65 64  1  0
 65 60  2  0
 66 60  1  0
 66 59  1  0
 67 57  1  0
 69 71  2  0
 70 69  1  0
 72 70  1  0
 73 82  2  0
 73 78  1  0
 74 70  1  0
 74 78  1  0
 75 74  1  0
 76 77  1  0
 76 75  1  0
 77 73  1  0
 78 79  2  0
 79 80  1  0
 81 80  2  0
 82 81  1  0
 83 57  1  0
 83 88  1  0
 83 84  1  0
 84 87  1  1
 84 85  1  0
 86 84  1  0
 88 91  1  0
 89 93  1  0
 89 88  1  0
 90 89  2  0
 93 92  1  0
 95 93  1  0
 95 96  1  0
 95 94  1  0
M  ISO  4   9 100  21 100  55 101  56 101
M  END
>  <TORSDO>  (95) 
F 20

>  <SCORE>  (95) 
-12.786

>  <name>  (95) 
94

>  <ligand_id>  (95) 
94

>  <original_smiles>  (95) 
[H]c1c([H])c(N(C([H])([H])[H])C2([H])C([H])([H])N(C(=O)N3C([H])([H])C([H])([H])C([H])([H])C([H])(n4nc(-c5c([H])c([H])c(Oc6c([H])c([H])c(F)c([H])c6F)c([H])c5[H])c(C(=O)N([H])[H])c4N([H])[H])C3([H])[H])C([H])([H])C2([H])[H])c([H])c(C([H])([H])N([H])C(=O)C([H])([H])Oc2c([H])c([H])c3c(c2[H])C([H])([H])N(C(=O)C([H])(N([H])C(=O)C([H])(N([H])C([H])([H])[H])C([H])([H])[H])C(C([H])([H])[H])(C([H])([H])[H])C([H])([H])[H])C([H])(C(=O)N([H])C2([H])c4c([H])c([H])c([H])c([H])c4C([H])([H])C([H])([H])C2([H])[H])C3([H])[H])c1[H]

>  <smiles>  (95) 
[H]c1c([H])c(N(C([H])([H])[H])C2([H])C([H])([H])N(C(=O)N3C([H])([H])C([H])([H])C([H])([H])C([H])(n4nc(-c5c([H])c([H])c(Oc6c([H])c([H])c(F)c([H])c6F)c([H])c5[H])c(C(=O)N([H])[H])c4N([H])[H])C3([H])[H])C([H])([H])C2([H])[H])c([H])c(C([H])([H])N([H])C(=O)C([H])([H])Oc2c([H])c([H])c3c(c2[H])C([H])([H])N(C(=O)C([H])(N([H])C(=O)C([H])(N([H])C([H])([H])[H])C([H])([H])[H])C(C([H])([H])[H])(C([H])([H])[H])C([H])([H])[H])C([H])(C(=O)N([H])C2([H])c4c([H])c([H])c([H])c([H])c4C([H])([H])C([H])([H])C2([H])[H])C3([H])[H])c1[H]

$$$$
95:0:0
     RDKit          3D

105114  0  0  1  0  0  0  0  0999 V2000
  -28.4100  -26.3100   18.3200 C   0  0  0  0  0  0  0  0  0  0  0  0
  -28.0050  -25.9710   17.0890 N   0  0  0  0  0  0  0  0  0  0  0  0
  -28.3050  -27.4500   18.7780 O   0  0  0  0  0  0  0  0  0  0  0  0
  -28.1330  -25.0100   16.7990 H   0  0  0  0  0  0  0  0  0  0  0  0
  -28.0630  -24.4190   21.2480 C   0  0  0  0  0  2  0  0  0  0  0  0
  -28.0230  -24.2290   19.7340 C   0  0  0  0  0  2  0  0  0  0  0  0
  -29.4750  -24.9340   21.4910 C   0  0  0  0  0  2  0  0  0  0  0  0
  -29.0710  -25.2090   19.1630 C   0  0  0  0  0  3  0  0  0  0  0  0
  -29.7920  -25.7960   20.3260 N   0  0  2  0  0  4  0  0  0  0  0  0
  -29.3060  -26.6760   20.4580 H   0  0  0  0  0  0  0  0  0  0  0  0
  -31.9210  -26.6720   21.4020 C   0  0  0  0  0  1  0  0  0  0  0  0
  -31.2560  -26.0800   20.1360 C   0  0  0  0  0  3  0  0  0  0  0  0
  -31.4930  -23.4730   20.0370 C   0  0  0  0  0  1  0  0  0  0  0  0
  -32.0660  -24.8430   19.6430 C   0  0  0  0  0  3  0  0  0  0  0  0
  -32.2220  -24.9030   18.2230 O   0  0  0  0  0  0  0  0  0  0  0  0
  -37.4140  -29.5390   19.6320 C   0  0  0  0  0  0  0  0  0  0  0  0
  -32.9590  -25.9770   17.7910 C   0  0  0  0  0  0  0  0  0  0  0  0
  -35.9810  -30.0810   17.6860 C   0  0  0  0  0  3  0  0  0  0  0  0
  -34.4240  -28.2140   16.9080 C   0  0  0  0  0  0  0  0  0  0  0  0
  -36.3530  -27.6560   18.4030 C   0  0  0  0  0  2  0  0  0  0  0  0
  -34.9720  -27.3510   17.8650 C   0  0  0  0  0  0  0  0  0  0  0  0
  -34.2440  -26.2320   18.3140 C   0  0  0  0  0  3  0  0  0  0  0  0
  -32.4170  -26.8400   16.8190 C   0  0  0  0  0  3  0  0  0  0  0  0
  -33.1420  -27.9660   16.3820 C   0  0  0  0  0  3  0  0  0  0  0  0
  -35.2720  -29.3930   16.4870 C   0  0  0  0  0  2  0  0  0  0  0  0
  -36.5970  -29.0980   18.6340 N   0  0  0  0  0  0  0  0  0  0  0  0
  -37.6910  -30.7410   19.7460 O   0  0  0  0  0  0  0  0  0  0  0  0
  -34.9760  -31.0380   18.3660 C   0  0  0  0  0  0  0  0  0  0  0  0
  -34.4630  -32.0110   17.5980 N   0  0  0  0  0  0  0  0  0  0  0  0
  -34.6510  -30.8800   19.5460 O   0  0  0  0  0  0  0  0  0  0  0  0
  -34.7880  -32.0800   16.6430 H   0  0  0  0  0  0  0  0  0  0  0  0
  -32.6110  -34.9060   16.4890 C   0  0  0  0  0  0  0  0  0  0  0  0
  -33.4700  -33.0030   18.0110 C   0  0  0  0  0  3  0  0  0  0  0  0
  -32.0380  -32.4260   17.9270 C   0  0  0  0  0  2  0  0  0  0  0  0
  -31.3490  -32.7140   16.5890 C   0  0  0  0  0  2  0  0  0  0  0  0
  -31.2590  -34.2240   16.3470 C   0  0  0  0  0  2  0  0  0  0  0  0
  -33.6530  -34.3250   17.2590 C   0  0  0  0  0  0  0  0  0  0  0  0
  -34.9000  -34.9830   17.3310 C   0  0  0  0  0  3  0  0  0  0  0  0
  -35.1140  -36.1980   16.6550 C   0  0  0  0  0  3  0  0  0  0  0  0
  -34.0730  -36.7780   15.9080 C   0  0  0  0  0  3  0  0  0  0  0  0
  -32.8250  -36.1350   15.8300 C   0  0  0  0  0  3  0  0  0  0  0  0
  -38.0530  -28.5570   20.6620 C   0  0  0  0  0  3  0  0  0  0  0  0
  -39.4690  -28.9200   20.7960 N   0  0  0  0  0  0  0  0  0  0  0  0
  -40.4640  -28.3790   20.0800 C   0  0  0  0  0  0  0  0  0  0  0  0
  -40.2880  -27.4570   19.2780 O   0  0  0  0  0  0  0  0  0  0  0  0
  -39.6760  -29.7090   21.3920 H   0  0  0  0  0  0  0  0  0  0  0  0
  -42.2900  -29.7660   19.0490 C   0  0  0  0  0  1  0  0  0  0  0  0
  -41.8790  -28.9520   20.2850 C   0  0  0  0  0  3  0  0  0  0  0  0
  -42.8000  -27.3440   21.8980 C   0  0  0  0  0  1  0  0  0  0  0  0
  -42.8980  -27.9160   20.5580 N   0  0  0  0  0  0  0  0  0  0  0  0
  -43.8340  -28.2920   20.4390 H   0  0  0  0  0  0  0  0  0  0  0  0
  -37.3330  -28.5740   22.0660 C   0  0  1  0  0  0  0  0  0  0  0  0
  -37.7170  -29.7910   22.9390 C   0  0  0  0  0  1  0  0  0  0  0  0
  -35.7970  -28.5810   21.8920 C   0  0  0  0  0  1  0  0  0  0  0  0
  -37.6930  -27.2930   22.8550 C   0  0  0  0  0  1  0  0  0  0  0  0
  -27.4690  -26.8850   16.0870 C   0  0  0  0  0  2  0  0  0  0  0  0
  -26.8140  -26.7670   13.6420 C   0  0  0  0  0  3  0  0  0  0  0  0
  -28.1650  -25.5430   12.0240 C   0  0  0  0  0  3  0  0  0  0  0  0
  -28.8390  -25.6100   14.3660 C   0  0  0  0  0  3  0  0  0  0  0  0
  -27.0420  -26.3500   12.3110 C   0  0  0  0  0  0  0  0  0  0  0  0
  -27.7150  -26.4090   14.6660 C   0  0  0  0  0  0  0  0  0  0  0  0
  -29.0600  -25.1540   13.0490 C   0  0  0  0  0  0  0  0  0  0  0  0
  -31.3980  -24.7690   12.3050 C   0  0  0  0  0  0  0  0  0  0  0  0
  -33.6850  -24.0820   11.6730 C   0  0  0  0  0  2  0  0  0  0  0  0
  -33.7380  -23.5540   10.2270 C   0  0  0  0  0  2  0  0  0  0  0  0
  -33.3980  -22.0520   10.1810 C   0  0  0  0  0  2  0  0  0  0  0  0
  -32.1010  -21.7120   10.9620 C   0  0  0  0  0  3  0  0  0  0  0  0
  -32.1270  -22.3490   12.3690 C   0  0  0  0  0  2  0  0  0  0  0  0
  -32.3480  -23.8010   12.2180 N   0  0  0  0  0  0  0  0  0  0  0  0
  -31.6070  -25.9410   11.9720 O   0  0  0  0  0  0  0  0  0  0  0  0
  -30.2100  -24.3600   12.7830 N   0  0  0  0  0  0  0  0  0  0  0  0
  -30.1160  -23.3650   12.9130 H   0  0  0  0  0  0  0  0  0  0  0  0
  -30.7190  -19.5420   10.8140 C   0  0  0  0  0  0  0  0  0  0  0  0
  -31.0720  -18.2250   10.9330 C   0  0  0  0  0  0  0  0  0  0  0  0
  -32.4730  -18.2130   11.2120 C   0  0  0  0  0  0  0  0  0  0  0  0
  -31.8820  -20.2670   11.0280 N   0  0  0  0  0  0  0  0  0  0  0  0
  -32.9310  -19.4550   11.3180 N   0  0  0  0  0  0  0  0  0  0  0  0
  -33.4170  -17.0950   11.3250 C   0  0  0  0  0  0  0  0  0  0  0  0
  -33.6460  -16.4470   12.5580 C   0  0  0  0  0  3  0  0  0  0  0  0
  -34.5440  -15.3600   12.6400 C   0  0  0  0  0  3  0  0  0  0  0  0
  -35.2210  -14.9100   11.4810 C   0  0  0  0  0  0  0  0  0  0  0  0
  -35.0060  -15.5750   10.2600 C   0  0  0  0  0  3  0  0  0  0  0  0
  -34.1150  -16.6580   10.1820 C   0  0  0  0  0  3  0  0  0  0  0  0
  -36.1300  -13.8810   11.4700 O   0  0  0  0  0  0  0  0  0  0  0  0
  -35.7320  -12.5690   11.4290 C   0  0  0  0  0  0  0  0  0  0  0  0
  -35.3620  -11.9400   10.2200 C   0  0  0  0  0  3  0  0  0  0  0  0
  -35.0260  -10.5710   10.2130 C   0  0  0  0  0  3  0  0  0  0  0  0
  -35.0670   -9.8290   11.4090 C   0  0  0  0  0  0  0  0  0  0  0  0
  -35.4420  -10.4520   12.6130 C   0  0  0  0  0  3  0  0  0  0  0  0
  -35.7750  -11.8180   12.6210 C   0  0  0  0  0  0  0  0  0  0  0  0
  -36.1550  -12.4080   13.7800 F   0  0  0  0  0  0  0  0  0  0  0  0
  -34.7520   -8.5130   11.4010 F   0  0  0  0  0  0  0  0  0  0  0  0
  -30.1830  -17.0370   10.7060 C   0  0  0  0  0  0  0  0  0  0  0  0
  -30.1610  -16.0980   11.6470 N   0  0  0  0  0  0  0  0  0  0  0  0
  -29.4630  -16.9560    9.7120 O   0  0  0  0  0  0  0  0  0  0  0  0
  -30.7350  -16.1730   12.4730 H   0  0  0  0  0  0  0  0  0  0  0  0
  -29.5600  -15.2920   11.5380 H   0  0  0  0  0  0  0  0  0  0  0  0
  -29.5170  -20.1810   10.5280 N   0  0  0  0  0  0  0  0  0  0  0  0
  -28.6690  -19.6670   10.3120 H   0  0  0  0  0  0  0  0  0  0  0  0
  -29.4070  -21.1830   10.4280 H   0  0  0  0  0  0  0  0  0  0  0  0
  -26.0850  -26.7130   11.2130 C   0  0  0  0  0  0  0  0  0  0  0  0
  -25.2420  -27.7060   11.4650 N   0  0  0  0  0  0  0  0  0  0  0  0
  -26.1190  -26.1540   10.1180 O   0  0  0  0  0  0  0  0  0  0  0  0
  -25.2770  -28.1850   12.3510 H   0  0  0  0  0  0  0  0  0  0  0  0
  -24.5820  -28.0030   10.7620 H   0  0  0  0  0  0  0  0  0  0  0  0
  1  3  2  0
  2  1  1  0
  4  2  1  0
  5  7  1  0
  6  5  1  0
  8  1  1  0
  8  6  1  0
  8  9  1  0
  9 10  1  1
  9  7  1  0
 12  9  1  0
 12 11  1  0
 14 13  1  0
 14 12  1  0
 15 14  1  0
 16 27  2  0
 17 15  1  0
 17 22  1  0
 18 28  1  0
 18 26  1  0
 19 21  1  0
 20 26  1  0
 21 22  2  0
 21 20  1  0
 23 17  2  0
 24 23  1  0
 24 19  2  0
 25 19  1  0
 25 18  1  0
 26 16  1  0
 28 30  2  0
 29 28  1  0
 31 29  1  0
 32 37  1  0
 33 29  1  0
 34 33  1  0
 35 34  1  0
 36 32  1  0
 36 35  1  0
 37 38  2  0
 37 33  1  0
 39 38  1  0
 40 39  2  0
 41 40  1  0
 41 32  2  0
 42 16  1  0
 42 43  1  0
 42 52  1  0
 43 46  1  0
 44 48  1  0
 44 43  1  0
 45 44  2  0
 48 47  1  0
 48 50  1  0
 50 49  1  0
 51 50  1  0
 52 55  1  1
 52 53  1  0
 54 52  1  0
 56  2  1  0
 57 61  1  0
 58 60  1  0
 58 62  2  0
 59 61  2  0
 60 57  2  0
 61 56  1  0
 62 59  1  0
 63 71  1  0
 64 69  1  0
 65 64  1  0
 66 65  1  0
 67 66  1  0
 67 76  1  0
 67 68  1  0
 69 63  1  0
 69 68  1  0
 70 63  2  0
 71 72  1  0
 71 62  1  0
 73 74  2  0
 73 76  1  0
 74 75  1  0
 75 77  2  0
 75 78  1  0
 76 77  1  0
 78 79  1  0
 79 80  2  0
 81 80  1  0
 82 81  2  0
 83 82  1  0
 83 78  2  0
 84 81  1  0
 85 84  1  0
 85 90  1  0
 86 85  2  0
 87 86  1  0
 87 88  2  0
 88 89  1  0
 89 90  2  0
 90 91  1  0
 92 88  1  0
 93 74  1  0
 93 94  1  0
 94 96  1  0
 95 93  2  0
 97 94  1  0
 98 73  1  0
 99 98  1  0
100 98  1  0
101102  1  0
101 60  1  0
102104  1  0
103101  2  0
105102  1  0
M  ISO  4  14 101  15 101  63 100  71 100
M  END
>  <TORSDO>  (96) 
F 22

>  <SCORE>  (96) 
-4.254

>  <name>  (96) 
95

>  <ligand_id>  (96) 
95

>  <original_smiles>  (96) 
[H]c1c([H])c([H])c2c(c1[H])C([H])([H])C([H])([H])C([H])([H])C2([H])N([H])C(=O)C1([H])N(C(=O)C([H])(N([H])C(=O)C([H])(N([H])C([H])([H])[H])C([H])([H])[H])C(C([H])([H])[H])(C([H])([H])[H])C([H])([H])[H])C([H])([H])c2c([H])c(OC([H])(C([H])([H])[H])C([H])(C([H])([H])[H])[N+]3([H])C([H])([H])C([H])([H])C([H])([H])C3([H])C(=O)N([H])C([H])([H])c3c([H])c(C(=O)N([H])[H])c([H])c(N([H])C(=O)N4C([H])([H])C([H])([H])C([H])([H])C([H])(n5nc(-c6c([H])c([H])c(Oc7c([H])c([H])c(F)c([H])c7F)c([H])c6[H])c(C(=O)N([H])[H])c5N([H])[H])C4([H])[H])c3[H])c([H])c([H])c2C1([H])[H]

>  <smiles>  (96) 
[H]c1c([H])c([H])c2c(c1[H])C([H])([H])C([H])([H])C([H])([H])C2([H])N([H])C(=O)C1([H])N(C(=O)C([H])(N([H])C(=O)C([H])(N([H])C([H])([H])[H])C([H])([H])[H])C(C([H])([H])[H])(C([H])([H])[H])C([H])([H])[H])C([H])([H])c2c([H])c(OC([H])(C([H])([H])[H])C([H])(C([H])([H])[H])[N+]3([H])C([H])([H])C([H])([H])C([H])([H])C3([H])C(=O)N([H])C([H])([H])c3c([H])c(C(=O)N([H])[H])c([H])c(N([H])C(=O)N4C([H])([H])C([H])([H])C([H])([H])C([H])(n5nc(-c6c([H])c([H])c(Oc7c([H])c([H])c(F)c([H])c7F)c([H])c6[H])c(C(=O)N([H])[H])c5N([H])[H])C4([H])[H])c3[H])c([H])c([H])c2C1([H])[H]

$$$$
96:0:0
     RDKit          3D

102111  0  0  1  0  0  0  0  0999 V2000
  -28.3760  -22.1450   22.2500 C   0  0  0  0  0  2  0  0  0  0  0  0
  -27.6770  -23.4640   22.5680 C   0  0  0  0  0  2  0  0  0  0  0  0
  -29.6350  -24.2960   23.7910 C   0  0  0  0  0  2  0  0  0  0  0  0
  -29.5590  -21.7910   23.2050 C   0  0  0  0  0  3  0  0  0  0  0  0
  -28.7710  -24.5340   22.5370 C   0  0  0  0  0  3  0  0  0  0  0  0
  -30.7670  -22.6460   25.2030 C   0  0  0  0  0  1  0  0  0  0  0  0
  -30.2660  -22.9500   23.8390 N   0  0  2  0  0  4  0  0  0  0  0  0
  -31.0820  -22.9960   23.2350 H   0  0  0  0  0  0  0  0  0  0  0  0
  -28.5120  -26.6340   21.2800 C   0  0  0  0  0  0  0  0  0  0  0  0
  -27.8590  -26.6200   23.6260 C   0  0  0  0  0  1  0  0  0  0  0  0
  -28.2640  -25.9130   22.4010 N   0  0  0  0  0  0  0  0  0  0  0  0
  -28.8630  -27.8190   21.3400 O   0  0  0  0  0  0  0  0  0  0  0  0
  -28.2350  -25.9960   19.8950 C   0  0  0  0  0  2  0  0  0  0  0  0
  -27.8760  -26.9800   18.9200 O   0  0  0  0  0  0  0  0  0  0  0  0
  -24.5520  -31.6850   23.0320 C   0  0  0  0  0  0  0  0  0  0  0  0
  -26.7030  -27.6530   19.1690 C   0  0  0  0  0  0  0  0  0  0  0  0
  -23.1070  -30.4710   21.4210 C   0  0  0  0  0  3  0  0  0  0  0  0
  -24.3370  -29.0920   19.6640 C   0  0  0  0  0  0  0  0  0  0  0  0
  -25.5840  -30.8630   20.9270 C   0  0  0  0  0  2  0  0  0  0  0  0
  -25.5610  -29.5760   20.1360 C   0  0  0  0  0  0  0  0  0  0  0  0
  -26.7480  -28.8750   19.8670 C   0  0  0  0  0  3  0  0  0  0  0  0
  -25.4660  -27.1530   18.7150 C   0  0  0  0  0  3  0  0  0  0  0  0
  -24.2800  -27.8790   18.9490 C   0  0  0  0  0  3  0  0  0  0  0  0
  -23.1220  -29.9430   19.9590 C   0  0  0  0  0  2  0  0  0  0  0  0
  -24.4390  -31.0150   21.8500 N   0  0  0  0  0  0  0  0  0  0  0  0
  -23.5600  -31.8970   23.7420 O   0  0  0  0  0  0  0  0  0  0  0  0
  -22.5750  -29.3550   22.3480 C   0  0  0  0  0  0  0  0  0  0  0  0
  -21.2540  -29.1200   22.2960 N   0  0  0  0  0  0  0  0  0  0  0  0
  -23.3390  -28.7110   23.0700 O   0  0  0  0  0  0  0  0  0  0  0  0
  -20.6930  -29.7030   21.6900 H   0  0  0  0  0  0  0  0  0  0  0  0
  -18.0110  -27.6090   22.7800 C   0  0  0  0  0  0  0  0  0  0  0  0
  -20.5340  -28.0940   23.0470 C   0  0  0  0  0  3  0  0  0  0  0  0
  -20.7650  -26.6940   22.4320 C   0  0  0  0  0  2  0  0  0  0  0  0
  -19.6880  -26.2940   21.4170 C   0  0  0  0  0  2  0  0  0  0  0  0
  -18.3060  -26.2940   22.0780 C   0  0  0  0  0  2  0  0  0  0  0  0
  -19.0570  -28.4600   23.2220 C   0  0  0  0  0  0  0  0  0  0  0  0
  -18.7300  -29.6820   23.8470 C   0  0  0  0  0  3  0  0  0  0  0  0
  -17.3870  -30.0630   24.0290 C   0  0  0  0  0  3  0  0  0  0  0  0
  -16.3540  -29.2120   23.6020 C   0  0  0  0  0  3  0  0  0  0  0  0
  -16.6650  -27.9850   22.9860 C   0  0  0  0  0  3  0  0  0  0  0  0
  -25.9240  -32.2360   23.5340 C   0  0  0  0  0  3  0  0  0  0  0  0
  -26.6030  -31.3250   24.6300 C   0  0  1  0  0  0  0  0  0  0  0  0
  -25.6690  -30.9770   25.8110 C   0  0  0  0  0  1  0  0  0  0  0  0
  -27.0910  -29.9940   24.0100 C   0  0  0  0  0  1  0  0  0  0  0  0
  -27.8510  -32.0330   25.2080 C   0  0  0  0  0  1  0  0  0  0  0  0
  -25.6890  -33.5890   24.0540 N   0  0  0  0  0  0  0  0  0  0  0  0
  -25.9720  -34.7180   23.3900 C   0  0  0  0  0  0  0  0  0  0  0  0
  -26.5290  -34.7280   22.2890 O   0  0  0  0  0  0  0  0  0  0  0  0
  -25.1850  -33.6610   24.9240 H   0  0  0  0  0  0  0  0  0  0  0  0
  -24.2660  -36.5690   23.4240 C   0  0  0  0  0  1  0  0  0  0  0  0
  -25.5720  -36.0520   24.0480 C   0  0  0  0  0  3  0  0  0  0  0  0
  -27.8030  -36.7970   24.7510 C   0  0  0  0  0  1  0  0  0  0  0  0
  -26.6160  -37.0950   23.9540 N   0  0  0  0  0  0  0  0  0  0  0  0
  -26.2500  -37.9910   24.2590 H   0  0  0  0  0  0  0  0  0  0  0  0
  -30.6320  -21.0770   22.3720 C   0  0  0  0  0  0  0  0  0  0  0  0
  -30.5260  -19.7480   22.2130 N   0  0  0  0  0  0  0  0  0  0  0  0
  -31.5280  -21.7710   21.8790 O   0  0  0  0  0  0  0  0  0  0  0  0
  -29.7320  -19.3240   22.6740 H   0  0  0  0  0  0  0  0  0  0  0  0
  -33.2060  -18.3450   19.9420 C   0  0  0  0  0  3  0  0  0  0  0  0
  -32.5130  -19.2580   20.7580 C   0  0  0  0  0  3  0  0  0  0  0  0
  -32.7110  -17.0440   19.7540 C   0  0  0  0  0  3  0  0  0  0  0  0
  -30.8300  -17.5610   21.2190 C   0  0  0  0  0  3  0  0  0  0  0  0
  -31.3040  -18.8780   21.3930 C   0  0  0  0  0  0  0  0  0  0  0  0
  -31.5160  -16.6480   20.3890 C   0  0  0  0  0  0  0  0  0  0  0  0
  -31.4140  -14.3340   19.4850 C   0  0  0  0  0  0  0  0  0  0  0  0
  -31.0250  -11.9680   18.8900 C   0  0  0  0  0  2  0  0  0  0  0  0
  -29.9950  -11.8400   17.7510 C   0  0  0  0  0  2  0  0  0  0  0  0
  -28.5590  -11.8220   18.3080 C   0  0  0  0  0  2  0  0  0  0  0  0
  -28.2940  -12.9860   19.2970 C   0  0  0  0  0  3  0  0  0  0  0  0
  -29.4170  -13.0610   20.3530 C   0  0  0  0  0  2  0  0  0  0  0  0
  -30.7120  -13.1840   19.6530 N   0  0  0  0  0  0  0  0  0  0  0  0
  -32.3630  -14.4430   18.7020 O   0  0  0  0  0  0  0  0  0  0  0  0
  -31.0000  -15.3350   20.2770 N   0  0  0  0  0  0  0  0  0  0  0  0
  -30.1710  -15.1300   20.8100 H   0  0  0  0  0  0  0  0  0  0  0  0
  -26.1120  -13.8670   20.3490 C   0  0  0  0  0  0  0  0  0  0  0  0
  -24.9880  -13.2230   20.7990 C   0  0  0  0  0  0  0  0  0  0  0  0
  -25.2290  -11.8300   20.6070 C   0  0  0  0  0  0  0  0  0  0  0  0
  -26.9760  -12.8700   19.9220 N   0  0  0  0  0  0  0  0  0  0  0  0
  -26.4510  -11.6340   20.1280 N   0  0  0  0  0  0  0  0  0  0  0  0
  -24.3470  -10.6710   20.7970 C   0  0  0  0  0  0  0  0  0  0  0  0
  -24.6880   -9.6170   21.6730 C   0  0  0  0  0  3  0  0  0  0  0  0
  -23.8130   -8.5230   21.8520 C   0  0  0  0  0  3  0  0  0  0  0  0
  -22.5820   -8.4770   21.1560 C   0  0  0  0  0  0  0  0  0  0  0  0
  -22.2570   -9.5190   20.2690 C   0  0  0  0  0  3  0  0  0  0  0  0
  -23.1320  -10.6030   20.0860 C   0  0  0  0  0  3  0  0  0  0  0  0
  -21.6820   -7.4420   21.2470 O   0  0  0  0  0  0  0  0  0  0  0  0
  -21.5260   -6.7260   22.4070 C   0  0  0  0  0  0  0  0  0  0  0  0
  -21.1470   -7.3450   23.6190 C   0  0  0  0  0  3  0  0  0  0  0  0
  -20.9280   -6.5620   24.7710 C   0  0  0  0  0  3  0  0  0  0  0  0
  -21.0770   -5.1630   24.7110 C   0  0  0  0  0  0  0  0  0  0  0  0
  -21.4470   -4.5450   23.5040 C   0  0  0  0  0  3  0  0  0  0  0  0
  -21.6670   -5.3240   22.3550 C   0  0  0  0  0  0  0  0  0  0  0  0
  -22.0040   -4.7220   21.1890 F   0  0  0  0  0  0  0  0  0  0  0  0
  -20.8590   -4.4100   25.8150 F   0  0  0  0  0  0  0  0  0  0  0  0
  -23.7230  -13.8680   21.2900 C   0  0  0  0  0  0  0  0  0  0  0  0
  -23.0280  -13.2230   22.2220 N   0  0  0  0  0  0  0  0  0  0  0  0
  -23.3700  -14.9740   20.8850 O   0  0  0  0  0  0  0  0  0  0  0  0
  -23.3270  -12.3240   22.5690 H   0  0  0  0  0  0  0  0  0  0  0  0
  -22.1850  -13.6360   22.5930 H   0  0  0  0  0  0  0  0  0  0  0  0
  -26.4640  -15.2090   20.2550 N   0  0  0  0  0  0  0  0  0  0  0  0
  -25.8260  -15.9580   20.4960 H   0  0  0  0  0  0  0  0  0  0  0  0
  -27.3310  -15.5450   19.8480 H   0  0  0  0  0  0  0  0  0  0  0  0
  1  2  1  0
  1  4  1  0
  3  7  1  0
  4 55  1  0
  4  7  1  0
  5 11  1  0
  5  2  1  0
  5  3  1  0
  7  6  1  0
  7  8  1  6
  9 12  2  0
  9 11  1  0
 11 10  1  0
 13  9  1  0
 14 16  1  0
 14 13  1  0
 15 26  2  0
 16 21  1  0
 17 25  1  0
 17 27  1  0
 18 24  1  0
 18 20  1  0
 19 25  1  0
 20 19  1  0
 21 20  2  0
 22 23  1  0
 22 16  2  0
 23 18  2  0
 24 17  1  0
 25 15  1  0
 27 29  2  0
 28 27  1  0
 30 28  1  0
 31 40  2  0
 31 36  1  0
 32 28  1  0
 32 36  1  0
 33 32  1  0
 34 35  1  0
 34 33  1  0
 35 31  1  0
 36 37  2  0
 37 38  1  0
 39 38  2  0
 40 39  1  0
 41 15  1  0
 41 46  1  0
 41 42  1  0
 42 45  1  1
 42 43  1  0
 44 42  1  0
 46 49  1  0
 47 51  1  0
 47 46  1  0
 48 47  2  0
 51 50  1  0
 53 51  1  0
 53 54  1  0
 53 52  1  0
 56 55  1  0
 56 58  1  0
 57 55  2  0
 59 60  1  0
 60 63  2  0
 61 59  2  0
 61 64  1  0
 62 63  1  0
 63 56  1  0
 64 62  2  0
 65 71  1  0
 65 73  1  0
 66 71  1  0
 67 68  1  0
 67 66  1  0
 69 68  1  0
 69 78  1  0
 69 70  1  0
 71 70  1  0
 72 65  2  0
 73 64  1  0
 73 74  1  0
 75 76  2  0
 76 95  1  0
 77 80  1  0
 77 76  1  0
 78 79  1  0
 78 75  1  0
 79 77  2  0
 80 81  1  0
 81 82  2  0
 83 86  1  0
 83 82  1  0
 84 83  2  0
 85 84  1  0
 85 80  2  0
 86 87  1  0
 87 88  1  0
 88 89  2  0
 90 89  1  0
 90 94  1  0
 91 90  2  0
 92 87  2  0
 92 91  1  0
 93 92  1  0
 95 96  1  0
 96 98  1  0
 96 99  1  0
 97 95  2  0
100 75  1  0
100101  1  0
102100  1  0
M  ISO  4  13 101  14 101  65 100  73 100
M  END
>  <TORSDO>  (97) 
F 20

>  <SCORE>  (97) 
-11.338

>  <name>  (97) 
96

>  <ligand_id>  (97) 
96

>  <original_smiles>  (97) 
[H]c1c([H])c(N([H])C(=O)N2C([H])([H])C([H])([H])C([H])([H])C([H])(n3nc(-c4c([H])c([H])c(Oc5c([H])c([H])c(F)c([H])c5F)c([H])c4[H])c(C(=O)N([H])[H])c3N([H])[H])C2([H])[H])c([H])c(N([H])C(=O)C2([H])C([H])([H])C([H])([H])C([H])(N(C(=O)C([H])([H])Oc3c([H])c([H])c4c(c3[H])C([H])([H])N(C(=O)C([H])(N([H])C(=O)C([H])(N([H])C([H])([H])[H])C([H])([H])[H])C(C([H])([H])[H])(C([H])([H])[H])C([H])([H])[H])C([H])(C(=O)N([H])C3([H])c5c([H])c([H])c([H])c([H])c5C([H])([H])C([H])([H])C3([H])[H])C4([H])[H])C([H])([H])[H])C([H])([H])[N+]2([H])C([H])([H])[H])c1[H]

>  <smiles>  (97) 
[H]c1c([H])c(N([H])C(=O)N2C([H])([H])C([H])([H])C([H])([H])C([H])(n3nc(-c4c([H])c([H])c(Oc5c([H])c([H])c(F)c([H])c5F)c([H])c4[H])c(C(=O)N([H])[H])c3N([H])[H])C2([H])[H])c([H])c(N([H])C(=O)C2([H])C([H])([H])C([H])([H])C([H])(N(C(=O)C([H])([H])Oc3c([H])c([H])c4c(c3[H])C([H])([H])N(C(=O)C([H])(N([H])C(=O)C([H])(N([H])C([H])([H])[H])C([H])([H])[H])C(C([H])([H])[H])(C([H])([H])[H])C([H])([H])[H])C([H])(C(=O)N([H])C3([H])c5c([H])c([H])c([H])c([H])c5C([H])([H])C([H])([H])C3([H])[H])C4([H])[H])C([H])([H])[H])C([H])([H])[N+]2([H])C([H])([H])[H])c1[H]

$$$$
97:0:0
     RDKit          3D

 94103  0  0  1  0  0  0  0  0999 V2000
  -28.9420  -22.5650   20.7980 C   0  0  0  0  0  2  0  0  0  0  0  0
  -30.0850  -21.4790   20.6970 C   0  0  0  0  0  0  0  0  0  0  0  0
  -31.2690  -17.8150   21.3940 C   0  0  0  0  0  2  0  0  0  0  0  0
  -28.6730  -19.4110   20.3140 C   0  0  0  0  0  2  0  0  0  0  0  0
  -29.5500  -18.1360   20.1400 C   0  0  0  0  0  3  0  0  0  0  0  0
  -30.7670  -19.0100   20.5220 C   0  0  0  0  0  3  0  0  0  0  0  0
  -29.8940  -17.1250   21.2810 C   0  0  0  0  0  3  0  0  0  0  0  0
  -29.8230  -20.0890   20.9120 N   0  0  0  0  0  0  0  0  0  0  0  0
  -31.2250  -21.8470   20.4130 O   0  0  0  0  0  0  0  0  0  0  0  0
  -30.5900  -14.6400   20.4980 C   0  0  0  0  0  0  0  0  0  0  0  0
  -30.3890  -12.4290   19.3700 C   0  0  0  0  0  2  0  0  0  0  0  0
  -29.4470  -12.5610   18.1490 C   0  0  0  0  0  2  0  0  0  0  0  0
  -27.9710  -12.3870   18.5720 C   0  0  0  0  0  2  0  0  0  0  0  0
  -27.6040  -13.2470   19.8100 C   0  0  0  0  0  3  0  0  0  0  0  0
  -28.6520  -13.0620   20.9320 C   0  0  0  0  0  2  0  0  0  0  0  0
  -29.9660  -13.4260   20.3730 N   0  0  0  0  0  0  0  0  0  0  0  0
  -31.7280  -14.8340   20.0680 O   0  0  0  0  0  0  0  0  0  0  0  0
  -29.7990  -15.6430   20.9970 N   0  0  0  0  0  0  0  0  0  0  0  0
  -28.9040  -15.2660   21.2750 H   0  0  0  0  0  0  0  0  0  0  0  0
  -25.2050  -13.8620   20.5130 C   0  0  0  0  0  0  0  0  0  0  0  0
  -24.1320  -13.0940   20.8740 C   0  0  0  0  0  0  0  0  0  0  0  0
  -24.5890  -11.7410   20.8460 C   0  0  0  0  0  0  0  0  0  0  0  0
  -26.2460  -12.9750   20.2800 N   0  0  0  0  0  0  0  0  0  0  0  0
  -25.8780  -11.6940   20.5380 N   0  0  0  0  0  0  0  0  0  0  0  0
  -23.8600  -10.4810   21.0360 C   0  0  0  0  0  0  0  0  0  0  0  0
  -24.2810   -9.5140   21.9760 C   0  0  0  0  0  3  0  0  0  0  0  0
  -23.5500   -8.3190   22.1510 C   0  0  0  0  0  3  0  0  0  0  0  0
  -22.3850   -8.0810   21.3850 C   0  0  0  0  0  0  0  0  0  0  0  0
  -21.9820   -9.0380   20.4350 C   0  0  0  0  0  3  0  0  0  0  0  0
  -22.7140  -10.2240   20.2580 C   0  0  0  0  0  3  0  0  0  0  0  0
  -21.6310   -6.9360   21.4670 O   0  0  0  0  0  0  0  0  0  0  0  0
  -21.5630   -6.2010   22.6230 C   0  0  0  0  0  0  0  0  0  0  0  0
  -21.0970   -6.7570   23.8330 C   0  0  0  0  0  3  0  0  0  0  0  0
  -20.9760   -5.9460   24.9800 C   0  0  0  0  0  3  0  0  0  0  0  0
  -21.3130   -4.5810   24.9150 C   0  0  0  0  0  0  0  0  0  0  0  0
  -21.7740   -4.0250   23.7090 C   0  0  0  0  0  3  0  0  0  0  0  0
  -21.8950   -4.8320   22.5650 C   0  0  0  0  0  0  0  0  0  0  0  0
  -22.3200   -4.2870   21.4000 F   0  0  0  0  0  0  0  0  0  0  0  0
  -21.1910   -3.8000   26.0140 F   0  0  0  0  0  0  0  0  0  0  0  0
  -22.7350  -13.5770   21.1390 C   0  0  0  0  0  0  0  0  0  0  0  0
  -21.9960  -12.8880   22.0020 N   0  0  0  0  0  0  0  0  0  0  0  0
  -22.3040  -14.6050   20.6150 O   0  0  0  0  0  0  0  0  0  0  0  0
  -22.3550  -12.0640   22.4600 H   0  0  0  0  0  0  0  0  0  0  0  0
  -21.0560  -13.1970   22.2120 H   0  0  0  0  0  0  0  0  0  0  0  0
  -25.3700  -15.2350   20.3420 N   0  0  0  0  0  0  0  0  0  0  0  0
  -24.5940  -15.8790   20.4410 H   0  0  0  0  0  0  0  0  0  0  0  0
  -26.2120  -15.6790   19.9950 H   0  0  0  0  0  0  0  0  0  0  0  0
  -29.2940  -24.1230   20.5740 C   0  0  0  0  0  3  0  0  0  0  0  0
  -30.0470  -24.7210   21.7030 N   0  0  0  0  0  4  0  0  0  0  0  0
  -29.5490  -24.6480   22.5740 H   0  0  0  0  0  0  0  0  0  0  0  0
  -30.1780  -25.7050   21.5260 H   0  0  0  0  0  0  0  0  0  0  0  0
  -30.9630  -24.3190   21.8070 H   0  0  0  0  0  0  0  0  0  0  0  0
  -28.0690  -25.0710   20.2580 C   0  0  0  0  0  2  0  0  0  0  0  0
  -28.3170  -26.5270   20.2620 O   0  0  0  0  0  0  0  0  0  0  0  0
  -24.6180  -31.9200   23.2620 C   0  0  0  0  0  0  0  0  0  0  0  0
  -27.1970  -27.3650   20.2020 C   0  0  0  0  0  0  0  0  0  0  0  0
  -23.4040  -30.5330   21.6210 C   0  0  0  0  0  3  0  0  0  0  0  0
  -24.8420  -28.9870   20.1850 C   0  0  0  0  0  0  0  0  0  0  0  0
  -25.9460  -30.8390   21.4400 C   0  0  0  0  0  2  0  0  0  0  0  0
  -26.0150  -29.4670   20.7850 C   0  0  0  0  0  0  0  0  0  0  0  0
  -27.1940  -28.6690   20.7820 C   0  0  0  0  0  3  0  0  0  0  0  0
  -25.9970  -26.9310   19.5840 C   0  0  0  0  0  3  0  0  0  0  0  0
  -24.8380  -27.7270   19.5720 C   0  0  0  0  0  3  0  0  0  0  0  0
  -23.6120  -29.8660   20.2370 C   0  0  0  0  0  2  0  0  0  0  0  0
  -24.6750  -31.1130   22.1630 N   0  0  0  0  0  0  0  0  0  0  0  0
  -23.5380  -32.2020   23.7990 O   0  0  0  0  0  0  0  0  0  0  0  0
  -22.7400  -29.5140   22.5760 C   0  0  0  0  0  0  0  0  0  0  0  0
  -21.4130  -29.3400   22.4470 N   0  0  0  0  0  0  0  0  0  0  0  0
  -23.4150  -28.8850   23.3960 O   0  0  0  0  0  0  0  0  0  0  0  0
  -20.9290  -29.8950   21.7550 H   0  0  0  0  0  0  0  0  0  0  0  0
  -18.0290  -28.1700   22.9520 C   0  0  0  0  0  0  0  0  0  0  0  0
  -20.5890  -28.4100   23.2200 C   0  0  0  0  0  3  0  0  0  0  0  0
  -20.6810  -26.9780   22.6420 C   0  0  0  0  0  2  0  0  0  0  0  0
  -19.5750  -26.6640   21.6290 C   0  0  0  0  0  2  0  0  0  0  0  0
  -18.1950  -26.8200   22.2750 C   0  0  0  0  0  2  0  0  0  0  0  0
  -19.1540  -28.9230   23.3830 C   0  0  0  0  0  0  0  0  0  0  0  0
  -18.9460  -30.1860   23.9780 C   0  0  0  0  0  3  0  0  0  0  0  0
  -17.6450  -30.6970   24.1440 C   0  0  0  0  0  3  0  0  0  0  0  0
  -16.5350  -29.9400   23.7290 C   0  0  0  0  0  3  0  0  0  0  0  0
  -16.7270  -28.6800   23.1390 C   0  0  0  0  0  3  0  0  0  0  0  0
  -25.9050  -32.5420   23.8840 C   0  0  0  0  0  3  0  0  0  0  0  0
  -26.4190  -31.7650   25.1570 C   0  0  1  0  0  0  0  0  0  0  0  0
  -25.3230  -31.5310   26.2240 C   0  0  0  0  0  1  0  0  0  0  0  0
  -26.9960  -30.3860   24.7640 C   0  0  0  0  0  1  0  0  0  0  0  0
  -27.5780  -32.5520   25.8160 C   0  0  0  0  0  1  0  0  0  0  0  0
  -25.6010  -33.9410   24.2190 N   0  0  0  0  0  0  0  0  0  0  0  0
  -25.9170  -34.9930   23.4540 C   0  0  0  0  0  0  0  0  0  0  0  0
  -26.5630  -34.8890   22.4080 O   0  0  0  0  0  0  0  0  0  0  0  0
  -25.0160  -34.0940   25.0280 H   0  0  0  0  0  0  0  0  0  0  0  0
  -24.1710  -36.7770   23.1500 C   0  0  0  0  0  1  0  0  0  0  0  0
  -25.4410  -36.3820   23.9210 C   0  0  0  0  0  3  0  0  0  0  0  0
  -27.5990  -37.2770   24.6780 C   0  0  0  0  0  1  0  0  0  0  0  0
  -26.4670  -37.4380   23.7690 N   0  0  0  0  0  0  0  0  0  0  0  0
  -26.0640  -38.3580   23.9220 H   0  0  0  0  0  0  0  0  0  0  0  0
  2  1  1  0
  2  8  1  0
  4  8  1  0
  5  4  1  0
  5  6  1  0
  5  7  1  0
  6  8  1  0
  6  3  1  0
  7 18  1  0
  7  3  1  0
  9  2  2  0
 10 18  1  0
 11 16  1  0
 12 13  1  0
 12 11  1  0
 14 13  1  0
 14 23  1  0
 14 15  1  0
 16 10  1  0
 16 15  1  0
 17 10  2  0
 18 19  1  0
 20 21  2  0
 21 40  1  0
 22 21  1  0
 22 25  1  0
 23 20  1  0
 23 24  1  0
 24 22  2  0
 25 26  1  0
 26 27  2  0
 28 31  1  0
 28 27  1  0
 29 28  2  0
 30 29  1  0
 30 25  2  0
 31 32  1  0
 32 33  1  0
 33 34  2  0
 35 34  1  0
 35 39  1  0
 36 35  2  0
 37 32  2  0
 37 36  1  0
 38 37  1  0
 40 41  1  0
 41 44  1  0
 41 43  1  0
 42 40  2  0
 45 46  1  0
 45 20  1  0
 47 45  1  0
 48 53  1  0
 48  1  1  0
 48 49  1  0
 49 52  1  0
 49 50  1  0
 51 49  1  0
 53 54  1  0
 55 66  2  0
 56 54  1  0
 56 61  1  0
 57 65  1  0
 57 67  1  0
 58 64  1  0
 58 60  1  0
 59 65  1  0
 60 59  1  0
 61 60  2  0
 62 56  2  0
 63 62  1  0
 63 58  2  0
 64 57  1  0
 65 55  1  0
 67 69  2  0
 68 67  1  0
 70 68  1  0
 71 80  2  0
 71 76  1  0
 72 68  1  0
 72 76  1  0
 73 72  1  0
 74 75  1  0
 74 73  1  0
 75 71  1  0
 76 77  2  0
 77 78  1  0
 79 78  2  0
 80 79  1  0
 81 55  1  0
 81 86  1  0
 81 82  1  0
 82 85  1  1
 82 83  1  0
 84 82  1  0
 86 89  1  0
 87 91  1  0
 87 86  1  0
 88 87  2  0
 91 90  1  0
 93 91  1  0
 93 94  1  0
 93 92  1  0
M  ISO  4  10 100  18 100  53 101  54 101
M  END
>  <TORSDO>  (98) 
F 20

>  <SCORE>  (98) 
-14.400

>  <name>  (98) 
97

>  <ligand_id>  (98) 
97

>  <original_smiles>  (98) 
[H]c1c([H])c([H])c2c(c1[H])C([H])([H])C([H])([H])C([H])([H])C2([H])N([H])C(=O)C1([H])N(C(=O)C([H])(N([H])C(=O)C([H])(N([H])C([H])([H])[H])C([H])([H])[H])C(C([H])([H])[H])(C([H])([H])[H])C([H])([H])[H])C([H])([H])c2c([H])c(OC([H])([H])C([H])(C([H])([H])C(=O)N3C([H])([H])C4([H])C([H])(N([H])C(=O)N5C([H])([H])C([H])([H])C([H])([H])C([H])(n6nc(-c7c([H])c([H])c(Oc8c([H])c([H])c(F)c([H])c8F)c([H])c7[H])c(C(=O)N([H])[H])c6N([H])[H])C5([H])[H])C([H])([H])C34[H])[N+]([H])([H])[H])c([H])c([H])c2C1([H])[H]

>  <smiles>  (98) 
[H]c1c([H])c([H])c2c(c1[H])C([H])([H])C([H])([H])C([H])([H])C2([H])N([H])C(=O)C1([H])N(C(=O)C([H])(N([H])C(=O)C([H])(N([H])C([H])([H])[H])C([H])([H])[H])C(C([H])([H])[H])(C([H])([H])[H])C([H])([H])[H])C([H])([H])c2c([H])c(OC([H])([H])C([H])(C([H])([H])C(=O)N3C([H])([H])C4([H])C([H])(N([H])C(=O)N5C([H])([H])C([H])([H])C([H])([H])C([H])(n6nc(-c7c([H])c([H])c(Oc8c([H])c([H])c(F)c([H])c8F)c([H])c7[H])c(C(=O)N([H])[H])c6N([H])[H])C5([H])[H])C([H])([H])C34[H])[N+]([H])([H])[H])c([H])c([H])c2C1([H])[H]

$$$$
98:0:0
     RDKit          3D

 98107  0  0  1  0  0  0  0  0999 V2000
  -30.5900  -21.4360   19.1550 C   0  0  0  0  0  2  0  0  0  0  0  0
  -30.4190  -22.9350   19.6170 C   0  0  0  0  0  2  0  0  0  0  0  0
  -29.4310  -20.5570   19.7210 C   0  0  0  0  0  3  0  0  0  0  0  0
  -28.9030  -23.2090   19.7280 C   0  0  0  0  0  3  0  0  0  0  0  0
  -27.0810  -21.4460   19.7510 C   0  0  0  0  0  1  0  0  0  0  0  0
  -28.4690  -21.7430   20.1670 N   0  0  1  0  0  4  0  0  0  0  0  0
  -28.4720  -21.7110   21.1750 H   0  0  0  0  0  0  0  0  0  0  0  0
  -31.0840  -19.6060   23.0010 C   0  0  0  0  0  3  0  0  0  0  0  0
  -31.4400  -18.2650   23.0040 C   0  0  0  0  0  3  0  0  0  0  0  0
  -30.3870  -20.1200   21.9080 C   0  0  0  0  0  3  0  0  0  0  0  0
  -31.0430  -17.4340   21.9520 C   0  0  0  0  0  3  0  0  0  0  0  0
  -29.9840  -19.3740   20.7640 C   0  0  0  0  0  0  0  0  0  0  0  0
  -30.2990  -17.8450   20.8030 C   0  0  0  0  0  0  0  0  0  0  0  0
  -30.6420  -15.2510   19.9300 C   0  0  0  0  0  0  0  0  0  0  0  0
  -30.4330  -12.9010   18.9350 C   0  0  0  0  0  2  0  0  0  0  0  0
  -29.4230  -12.8050   17.7710 C   0  0  0  0  0  2  0  0  0  0  0  0
  -27.9990  -12.5680   18.3060 C   0  0  0  0  0  2  0  0  0  0  0  0
  -27.6560  -13.4960   19.5000 C   0  0  0  0  0  3  0  0  0  0  0  0
  -28.7860  -13.5640   20.5460 C   0  0  0  0  0  2  0  0  0  0  0  0
  -29.9880  -14.0130   19.8310 N   0  0  0  0  0  0  0  0  0  0  0  0
  -31.8520  -15.2210   19.6750 O   0  0  0  0  0  0  0  0  0  0  0  0
  -29.9610  -16.5340   20.0280 N   0  0  0  0  0  0  0  0  0  0  0  0
  -28.9900  -16.4710   19.7580 H   0  0  0  0  0  0  0  0  0  0  0  0
  -25.3470  -14.0550   20.4400 C   0  0  0  0  0  0  0  0  0  0  0  0
  -24.3030  -13.2760   20.8490 C   0  0  0  0  0  0  0  0  0  0  0  0
  -24.7500  -11.9230   20.7370 C   0  0  0  0  0  0  0  0  0  0  0  0
  -26.3610  -13.1800   20.0930 N   0  0  0  0  0  0  0  0  0  0  0  0
  -26.0190  -11.8890   20.3400 N   0  0  0  0  0  0  0  0  0  0  0  0
  -24.0210  -10.6620   20.9270 C   0  0  0  0  0  0  0  0  0  0  0  0
  -24.4760   -9.6720   21.8260 C   0  0  0  0  0  3  0  0  0  0  0  0
  -23.7430   -8.4790   22.0080 C   0  0  0  0  0  3  0  0  0  0  0  0
  -22.5420   -8.2670   21.2890 C   0  0  0  0  0  0  0  0  0  0  0  0
  -22.1080   -9.2440   20.3780 C   0  0  0  0  0  3  0  0  0  0  0  0
  -22.8410  -10.4290   20.1940 C   0  0  0  0  0  3  0  0  0  0  0  0
  -21.7800   -7.1260   21.3800 O   0  0  0  0  0  0  0  0  0  0  0  0
  -21.7450   -6.3740   22.5270 C   0  0  0  0  0  0  0  0  0  0  0  0
  -21.3080   -6.9120   23.7570 C   0  0  0  0  0  3  0  0  0  0  0  0
  -21.2190   -6.0870   24.8960 C   0  0  0  0  0  3  0  0  0  0  0  0
  -21.5590   -4.7240   24.8060 C   0  0  0  0  0  0  0  0  0  0  0  0
  -21.9880   -4.1850   23.5800 C   0  0  0  0  0  3  0  0  0  0  0  0
  -22.0780   -5.0060   22.4440 C   0  0  0  0  0  0  0  0  0  0  0  0
  -22.4720   -4.4770   21.2620 F   0  0  0  0  0  0  0  0  0  0  0  0
  -21.4660   -3.9300   25.8970 F   0  0  0  0  0  0  0  0  0  0  0  0
  -22.9310  -13.7550   21.2250 C   0  0  0  0  0  0  0  0  0  0  0  0
  -22.2540  -13.0380   22.1120 N   0  0  0  0  0  0  0  0  0  0  0  0
  -22.4750  -14.8030   20.7670 O   0  0  0  0  0  0  0  0  0  0  0  0
  -22.6390  -12.1900   22.5000 H   0  0  0  0  0  0  0  0  0  0  0  0
  -21.3380  -13.3420   22.4090 H   0  0  0  0  0  0  0  0  0  0  0  0
  -25.5090  -15.4310   20.3040 N   0  0  0  0  0  0  0  0  0  0  0  0
  -24.7470  -16.0780   20.4860 H   0  0  0  0  0  0  0  0  0  0  0  0
  -26.3320  -15.8840   19.9300 H   0  0  0  0  0  0  0  0  0  0  0  0
  -28.3210  -24.6790   20.4690 C   0  0  0  0  0  3  0  0  0  0  0  0
  -28.4740  -26.2340   20.0910 O   0  0  0  0  0  0  0  0  0  0  0  0
  -24.6350  -31.8710   23.1590 C   0  0  0  0  0  0  0  0  0  0  0  0
  -27.3930  -27.2180   20.0940 C   0  0  0  0  0  0  0  0  0  0  0  0
  -23.5040  -30.4540   21.4940 C   0  0  0  0  0  3  0  0  0  0  0  0
  -25.0160  -28.9300   20.0710 C   0  0  0  0  0  0  0  0  0  0  0  0
  -26.0560  -30.7820   21.3690 C   0  0  0  0  0  2  0  0  0  0  0  0
  -26.1820  -29.3950   20.6970 C   0  0  0  0  0  0  0  0  0  0  0  0
  -27.3720  -28.5600   20.6810 C   0  0  0  0  0  3  0  0  0  0  0  0
  -26.1930  -26.8710   19.4370 C   0  0  0  0  0  3  0  0  0  0  0  0
  -25.0370  -27.6840   19.4270 C   0  0  0  0  0  3  0  0  0  0  0  0
  -23.7630  -29.7960   20.1160 C   0  0  0  0  0  2  0  0  0  0  0  0
  -24.7520  -31.0600   22.0630 N   0  0  0  0  0  0  0  0  0  0  0  0
  -23.5300  -32.1200   23.6690 O   0  0  0  0  0  0  0  0  0  0  0  0
  -22.8350  -29.4220   22.4390 C   0  0  0  0  0  0  0  0  0  0  0  0
  -21.5130  -29.2130   22.2870 N   0  0  0  0  0  0  0  0  0  0  0  0
  -23.5100  -28.8120   23.2720 O   0  0  0  0  0  0  0  0  0  0  0  0
  -21.0230  -29.7640   21.5940 H   0  0  0  0  0  0  0  0  0  0  0  0
  -18.1680  -27.8760   22.7140 C   0  0  0  0  0  0  0  0  0  0  0  0
  -20.7100  -28.2380   23.0320 C   0  0  0  0  0  3  0  0  0  0  0  0
  -20.8800  -26.8130   22.4540 C   0  0  0  0  0  2  0  0  0  0  0  0
  -19.8130  -26.4550   21.4140 C   0  0  0  0  0  2  0  0  0  0  0  0
  -18.4110  -26.5400   22.0300 C   0  0  0  0  0  2  0  0  0  0  0  0
  -19.2480  -28.6790   23.1680 C   0  0  0  0  0  0  0  0  0  0  0  0
  -18.9680  -29.9240   23.7720 C   0  0  0  0  0  3  0  0  0  0  0  0
  -17.6430  -30.3730   23.9190 C   0  0  0  0  0  3  0  0  0  0  0  0
  -16.5760  -29.5690   23.4780 C   0  0  0  0  0  3  0  0  0  0  0  0
  -16.8390  -28.3220   22.8830 C   0  0  0  0  0  3  0  0  0  0  0  0
  -25.8790  -32.5420   23.8160 C   0  0  0  0  0  3  0  0  0  0  0  0
  -26.3730  -31.7940   25.1160 C   0  0  1  0  0  0  0  0  0  0  0  0
  -25.2510  -31.5390   26.1510 C   0  0  0  0  0  1  0  0  0  0  0  0
  -26.9990  -30.4240   24.7590 C   0  0  0  0  0  1  0  0  0  0  0  0
  -27.4840  -32.6210   25.8030 C   0  0  0  0  0  1  0  0  0  0  0  0
  -25.5220  -33.9360   24.1360 N   0  0  0  0  0  0  0  0  0  0  0  0
  -25.8560  -35.0020   23.3980 C   0  0  0  0  0  0  0  0  0  0  0  0
  -26.5600  -34.9180   22.3870 O   0  0  0  0  0  0  0  0  0  0  0  0
  -24.8970  -34.0710   24.9150 H   0  0  0  0  0  0  0  0  0  0  0  0
  -24.1110  -36.7740   22.9990 C   0  0  0  0  0  1  0  0  0  0  0  0
  -25.3310  -36.3790   23.8470 C   0  0  0  0  0  3  0  0  0  0  0  0
  -27.4150  -37.3010   24.7620 C   0  0  0  0  0  1  0  0  0  0  0  0
  -26.3500  -37.4500   23.7750 N   0  0  0  0  0  0  0  0  0  0  0  0
  -25.9220  -38.3640   23.9060 H   0  0  0  0  0  0  0  0  0  0  0  0
  -28.7840  -24.6190   21.9450 C   0  0  0  0  0  2  0  0  0  0  0  0
  -28.8240  -25.8030   24.1330 C   0  0  0  0  0  1  0  0  0  0  0  0
  -28.3170  -25.7710   22.7470 N   0  0  0  0  0  4  0  0  0  0  0  0
  -28.6330  -26.6080   22.2750 H   0  0  0  0  0  0  0  0  0  0  0  0
  -27.3100  -25.7970   22.7770 H   0  0  0  0  0  0  0  0  0  0  0  0
  1  2  1  0
  1  3  1  0
  2  4  1  0
  3  6  1  0
  3 12  1  0
  4  6  1  0
  4 52  1  0
  5  6  1  0
  6  7  1  1
  8  9  1  0
 10  8  2  0
 11  9  2  0
 12 13  2  0
 12 10  1  0
 13 11  1  0
 14 22  1  0
 15 20  1  0
 16 17  1  0
 16 15  1  0
 18 17  1  0
 18 27  1  0
 18 19  1  0
 20 14  1  0
 20 19  1  0
 21 14  2  0
 22 13  1  0
 23 22  1  0
 24 25  2  0
 25 44  1  0
 26 25  1  0
 26 29  1  0
 27 28  1  0
 27 24  1  0
 28 26  2  0
 29 30  1  0
 30 31  2  0
 32 35  1  0
 32 31  1  0
 33 32  2  0
 34 33  1  0
 34 29  2  0
 35 36  1  0
 36 37  1  0
 37 38  2  0
 39 38  1  0
 39 43  1  0
 40 39  2  0
 41 36  2  0
 41 40  1  0
 42 41  1  0
 44 45  1  0
 45 48  1  0
 45 47  1  0
 46 44  2  0
 49 24  1  0
 49 50  1  0
 51 49  1  0
 52 94  1  0
 53 55  1  0
 53 52  1  0
 54 65  2  0
 55 60  1  0
 56 64  1  0
 56 66  1  0
 57 63  1  0
 57 59  1  0
 58 64  1  0
 59 58  1  0
 60 59  2  0
 61 55  2  0
 62 61  1  0
 62 57  2  0
 63 56  1  0
 64 54  1  0
 66 68  2  0
 67 66  1  0
 69 67  1  0
 70 79  2  0
 70 75  1  0
 71 67  1  0
 71 75  1  0
 72 71  1  0
 73 74  1  0
 73 72  1  0
 74 70  1  0
 75 76  2  0
 76 77  1  0
 78 77  2  0
 79 78  1  0
 80 54  1  0
 80 85  1  0
 80 81  1  0
 81 84  1  1
 81 82  1  0
 83 81  1  0
 85 88  1  0
 86 90  1  0
 86 85  1  0
 87 86  2  0
 90 89  1  0
 92 90  1  0
 92 93  1  0
 92 91  1  0
 94 96  1  0
 96 98  1  0
 96 95  1  0
 97 96  1  0
M  ISO  4  14 100  22 100  52 101  53 101
M  END
>  <TORSDO>  (99) 
F 20

>  <SCORE>  (99) 
-13.550

>  <name>  (99) 
98

>  <ligand_id>  (99) 
98

>  <original_smiles>  (99) 
[H]c1c([H])c([H])c(C2([H])C([H])([H])C([H])([H])C([H])(C([H])(Oc3c([H])c([H])c4c(c3[H])C([H])([H])N(C(=O)C([H])(N([H])C(=O)C([H])(N([H])C([H])([H])[H])C([H])([H])[H])C(C([H])([H])[H])(C([H])([H])[H])C([H])([H])[H])C([H])(C(=O)N([H])C3([H])c5c([H])c([H])c([H])c([H])c5C([H])([H])C([H])([H])C3([H])[H])C4([H])[H])C([H])([H])[N+]([H])([H])C([H])([H])[H])[N+]2([H])C([H])([H])[H])c(N([H])C(=O)N2C([H])([H])C([H])([H])C([H])([H])C([H])(n3nc(-c4c([H])c([H])c(Oc5c([H])c([H])c(F)c([H])c5F)c([H])c4[H])c(C(=O)N([H])[H])c3N([H])[H])C2([H])[H])c1[H]

>  <smiles>  (99) 
[H]c1c([H])c([H])c(C2([H])C([H])([H])C([H])([H])C([H])(C([H])(Oc3c([H])c([H])c4c(c3[H])C([H])([H])N(C(=O)C([H])(N([H])C(=O)C([H])(N([H])C([H])([H])[H])C([H])([H])[H])C(C([H])([H])[H])(C([H])([H])[H])C([H])([H])[H])C([H])(C(=O)N([H])C3([H])c5c([H])c([H])c([H])c([H])c5C([H])([H])C([H])([H])C3([H])[H])C4([H])[H])C([H])([H])[N+]([H])([H])C([H])([H])[H])[N+]2([H])C([H])([H])[H])c(N([H])C(=O)N2C([H])([H])C([H])([H])C([H])([H])C([H])(n3nc(-c4c([H])c([H])c(Oc5c([H])c([H])c(F)c([H])c5F)c([H])c4[H])c(C(=O)N([H])[H])c3N([H])[H])C2([H])[H])c1[H]

$$$$
99:0:0
     RDKit          3D

 89 97  0  0  1  0  0  0  0  0999 V2000
  -29.0220  -23.3550   20.2500 C   0  0  0  0  0  0  0  0  0  0  0  0
  -29.1760  -20.7980   18.4630 C   0  0  0  0  0  2  0  0  0  0  0  0
  -27.9040  -21.4760   18.9920 C   0  0  0  0  0  2  0  0  0  0  0  0
  -29.6420  -20.6540   19.9120 C   0  0  0  0  0  3  0  0  0  0  0  0
  -28.6920  -21.8880   20.1510 N   0  0  0  0  0  0  0  0  0  0  0  0
  -30.1960  -23.6570   20.4760 O   0  0  0  0  0  0  0  0  0  0  0  0
  -29.9800  -19.1340   21.9950 C   0  0  0  0  0  1  0  0  0  0  0  0
  -29.4860  -19.0890   20.5440 C   0  0  0  0  0  3  0  0  0  0  0  0
  -30.1760  -17.7100   19.8260 C   0  0  0  0  0  2  0  0  0  0  0  0
  -30.6690  -15.0030   19.9370 C   0  0  0  0  0  0  0  0  0  0  0  0
  -30.4870  -12.6760   18.9540 C   0  0  0  0  0  2  0  0  0  0  0  0
  -29.4840  -12.6720   17.7770 C   0  0  0  0  0  2  0  0  0  0  0  0
  -28.0480  -12.4560   18.2840 C   0  0  0  0  0  2  0  0  0  0  0  0
  -27.7180  -13.3390   19.5160 C   0  0  0  0  0  3  0  0  0  0  0  0
  -28.8370  -13.3120   20.5810 C   0  0  0  0  0  2  0  0  0  0  0  0
  -30.0730  -13.7410   19.9150 N   0  0  0  0  0  0  0  0  0  0  0  0
  -31.8290  -15.0800   19.5190 O   0  0  0  0  0  0  0  0  0  0  0  0
  -29.9270  -16.1890   20.2130 N   0  0  0  0  0  0  0  0  0  0  0  0
  -29.0140  -16.0080   20.6060 H   0  0  0  0  0  0  0  0  0  0  0  0
  -25.3770  -13.8960   20.3880 C   0  0  0  0  0  0  0  0  0  0  0  0
  -24.3320  -13.1090   20.7910 C   0  0  0  0  0  0  0  0  0  0  0  0
  -24.7940  -11.7610   20.6970 C   0  0  0  0  0  0  0  0  0  0  0  0
  -26.4070  -13.0270   20.0720 N   0  0  0  0  0  0  0  0  0  0  0  0
  -26.0680  -11.7350   20.3190 N   0  0  0  0  0  0  0  0  0  0  0  0
  -24.0770  -10.4920   20.8880 C   0  0  0  0  0  0  0  0  0  0  0  0
  -24.4950   -9.5420   21.8470 C   0  0  0  0  0  3  0  0  0  0  0  0
  -23.7760   -8.3410   22.0270 C   0  0  0  0  0  3  0  0  0  0  0  0
  -22.6250   -8.0800   21.2450 C   0  0  0  0  0  0  0  0  0  0  0  0
  -22.2290   -9.0180   20.2730 C   0  0  0  0  0  3  0  0  0  0  0  0
  -22.9480  -10.2110   20.0930 C   0  0  0  0  0  3  0  0  0  0  0  0
  -21.8800   -6.9290   21.3290 O   0  0  0  0  0  0  0  0  0  0  0  0
  -21.7290   -6.2560   22.5150 C   0  0  0  0  0  0  0  0  0  0  0  0
  -21.1560   -6.8670   23.6510 C   0  0  0  0  0  3  0  0  0  0  0  0
  -20.9550   -6.1200   24.8280 C   0  0  0  0  0  3  0  0  0  0  0  0
  -21.3200   -4.7620   24.8690 C   0  0  0  0  0  0  0  0  0  0  0  0
  -21.8850   -4.1470   23.7380 C   0  0  0  0  0  3  0  0  0  0  0  0
  -22.0860   -4.8920   22.5630 C   0  0  0  0  0  0  0  0  0  0  0  0
  -22.6120   -4.2920   21.4690 F   0  0  0  0  0  0  0  0  0  0  0  0
  -21.1210   -4.0410   25.9960 F   0  0  0  0  0  0  0  0  0  0  0  0
  -22.9520  -13.5770   21.1510 C   0  0  0  0  0  0  0  0  0  0  0  0
  -22.2740  -12.8550   22.0360 N   0  0  0  0  0  0  0  0  0  0  0  0
  -22.4870  -14.6160   20.6870 O   0  0  0  0  0  0  0  0  0  0  0  0
  -22.6720  -12.0150   22.4300 H   0  0  0  0  0  0  0  0  0  0  0  0
  -21.3490  -13.1430   22.3230 H   0  0  0  0  0  0  0  0  0  0  0  0
  -25.5330  -15.2710   20.2370 N   0  0  0  0  0  0  0  0  0  0  0  0
  -24.7730  -15.9230   20.3980 H   0  0  0  0  0  0  0  0  0  0  0  0
  -26.3500  -15.7090   19.8330 H   0  0  0  0  0  0  0  0  0  0  0  0
  -27.9360  -24.6050   20.0340 C   0  0  0  0  0  2  0  0  0  0  0  0
  -28.2630  -26.1270   20.2450 O   0  0  0  0  0  0  0  0  0  0  0  0
  -24.6410  -31.8710   23.1930 C   0  0  0  0  0  0  0  0  0  0  0  0
  -27.2230  -27.1340   20.1700 C   0  0  0  0  0  0  0  0  0  0  0  0
  -23.4450  -30.4630   21.5670 C   0  0  0  0  0  3  0  0  0  0  0  0
  -24.8950  -28.8910   20.1420 C   0  0  0  0  0  0  0  0  0  0  0  0
  -26.0010  -30.7300   21.3960 C   0  0  0  0  0  2  0  0  0  0  0  0
  -26.0770  -29.3360   20.7450 C   0  0  0  0  0  0  0  0  0  0  0  0
  -27.2430  -28.4760   20.7400 C   0  0  0  0  0  3  0  0  0  0  0  0
  -26.0120  -26.8040   19.5210 C   0  0  0  0  0  3  0  0  0  0  0  0
  -24.8760  -27.6410   19.5120 C   0  0  0  0  0  3  0  0  0  0  0  0
  -23.6650  -29.7850   20.1890 C   0  0  0  0  0  2  0  0  0  0  0  0
  -24.7160  -31.0440   22.1060 N   0  0  0  0  0  0  0  0  0  0  0  0
  -23.5530  -32.1530   23.7210 O   0  0  0  0  0  0  0  0  0  0  0  0
  -22.7730  -29.4540   22.5320 C   0  0  0  0  0  0  0  0  0  0  0  0
  -21.4430  -29.2850   22.4160 N   0  0  0  0  0  0  0  0  0  0  0  0
  -23.4500  -28.8270   23.3520 O   0  0  0  0  0  0  0  0  0  0  0  0
  -20.9520  -29.8380   21.7280 H   0  0  0  0  0  0  0  0  0  0  0  0
  -18.0650  -28.0890   22.9490 C   0  0  0  0  0  0  0  0  0  0  0  0
  -20.6270  -28.3520   23.1960 C   0  0  0  0  0  3  0  0  0  0  0  0
  -20.7240  -26.9190   22.6240 C   0  0  0  0  0  2  0  0  0  0  0  0
  -19.6140  -26.5930   21.6180 C   0  0  0  0  0  2  0  0  0  0  0  0
  -18.2370  -26.7390   22.2720 C   0  0  0  0  0  2  0  0  0  0  0  0
  -19.1870  -28.8540   23.3680 C   0  0  0  0  0  0  0  0  0  0  0  0
  -18.9720  -30.1150   23.9640 C   0  0  0  0  0  3  0  0  0  0  0  0
  -17.6690  -30.6160   24.1400 C   0  0  0  0  0  3  0  0  0  0  0  0
  -16.5610  -29.8500   23.7360 C   0  0  0  0  0  3  0  0  0  0  0  0
  -16.7600  -28.5870   23.1490 C   0  0  0  0  0  3  0  0  0  0  0  0
  -25.9160  -32.5170   23.8150 C   0  0  0  0  0  3  0  0  0  0  0  0
  -26.4470  -31.7440   25.0850 C   0  0  1  0  0  0  0  0  0  0  0  0
  -25.3600  -31.4830   26.1540 C   0  0  0  0  0  1  0  0  0  0  0  0
  -27.0460  -30.3750   24.6870 C   0  0  0  0  0  1  0  0  0  0  0  0
  -27.5860  -32.5500   25.7510 C   0  0  0  0  0  1  0  0  0  0  0  0
  -25.5870  -33.9100   24.1630 N   0  0  0  0  0  0  0  0  0  0  0  0
  -25.9110  -34.9800   23.4260 C   0  0  0  0  0  0  0  0  0  0  0  0
  -26.5830  -34.9020   22.3950 O   0  0  0  0  0  0  0  0  0  0  0  0
  -24.9850  -34.0450   24.9620 H   0  0  0  0  0  0  0  0  0  0  0  0
  -24.1800  -36.7750   23.0850 C   0  0  0  0  0  1  0  0  0  0  0  0
  -25.4090  -36.3560   23.9070 C   0  0  0  0  0  3  0  0  0  0  0  0
  -27.5230  -37.2370   24.7970 C   0  0  0  0  0  1  0  0  0  0  0  0
  -26.4380  -37.4180   23.8370 N   0  0  0  0  0  0  0  0  0  0  0  0
  -26.0230  -38.3330   23.9950 H   0  0  0  0  0  0  0  0  0  0  0  0
  1  6  2  0
  2  3  1  0
  2  4  1  0
  3  5  1  0
  4  5  1  0
  4  8  1  0
  5  1  1  0
  8  7  1  0
  9 18  1  0
  9  8  1  0
 10 18  1  0
 11 16  1  0
 12 13  1  0
 12 11  1  0
 14 13  1  0
 14 23  1  0
 14 15  1  0
 16 10  1  0
 16 15  1  0
 17 10  2  0
 18 19  1  0
 20 21  2  0
 21 40  1  0
 22 21  1  0
 22 25  1  0
 23 24  1  0
 23 20  1  0
 24 22  2  0
 25 26  1  0
 26 27  2  0
 28 31  1  0
 28 27  1  0
 29 28  2  0
 30 29  1  0
 30 25  2  0
 31 32  1  0
 32 37  2  0
 32 33  1  0
 33 34  2  0
 34 35  1  0
 35 39  1  0
 36 35  2  0
 37 36  1  0
 38 37  1  0
 40 41  1  0
 41 44  1  0
 41 43  1  0
 42 40  2  0
 45 20  1  0
 45 46  1  0
 47 45  1  0
 48 49  1  0
 48  1  1  0
 50 61  2  0
 51 49  1  0
 51 56  1  0
 52 60  1  0
 52 62  1  0
 53 59  1  0
 53 55  1  0
 54 60  1  0
 55 54  1  0
 56 55  2  0
 57 51  2  0
 58 57  1  0
 58 53  2  0
 59 52  1  0
 60 50  1  0
 62 64  2  0
 63 62  1  0
 65 63  1  0
 66 75  2  0
 66 71  1  0
 67 63  1  0
 67 71  1  0
 68 67  1  0
 69 70  1  0
 69 68  1  0
 70 66  1  0
 71 72  2  0
 72 73  1  0
 74 73  2  0
 75 74  1  0
 76 50  1  0
 76 81  1  0
 76 77  1  0
 77 80  1  1
 77 78  1  0
 79 77  1  0
 81 84  1  0
 82 86  1  0
 82 81  1  0
 83 82  2  0
 86 85  1  0
 88 86  1  0
 88 89  1  0
 88 87  1  0
M  ISO  4  10 100  18 100  48 101  49 101
M  END
>  <TORSDO>  (100) 
F 19

>  <SCORE>  (100) 
-14.395

>  <name>  (100) 
99

>  <ligand_id>  (100) 
99

>  <original_smiles>  (100) 
[H]c1c([H])c([H])c2c(c1[H])C([H])([H])C([H])([H])C([H])([H])C2([H])N([H])C(=O)C1([H])N(C(=O)C([H])(N([H])C(=O)C([H])(N([H])C([H])([H])[H])C([H])([H])[H])C(C([H])([H])[H])(C([H])([H])[H])C([H])([H])[H])C([H])([H])c2c([H])c(OC([H])([H])C(=O)N3C([H])([H])C([H])([H])C3([H])C([H])(C([H])([H])[H])C([H])([H])N([H])C(=O)N3C([H])([H])C([H])([H])C([H])([H])C([H])(n4nc(-c5c([H])c([H])c(Oc6c([H])c([H])c(F)c([H])c6F)c([H])c5[H])c(C(=O)N([H])[H])c4N([H])[H])C3([H])[H])c([H])c([H])c2C1([H])[H]

>  <smiles>  (100) 
[H]c1c([H])c([H])c2c(c1[H])C([H])([H])C([H])([H])C([H])([H])C2([H])N([H])C(=O)C1([H])N(C(=O)C([H])(N([H])C(=O)C([H])(N([H])C([H])([H])[H])C([H])([H])[H])C(C([H])([H])[H])(C([H])([H])[H])C([H])([H])[H])C([H])([H])c2c([H])c(OC([H])([H])C(=O)N3C([H])([H])C([H])([H])C3([H])C([H])(C([H])([H])[H])C([H])([H])N([H])C(=O)N3C([H])([H])C([H])([H])C([H])([H])C([H])(n4nc(-c5c([H])c([H])c(Oc6c([H])c([H])c(F)c([H])c6F)c([H])c5[H])c(C(=O)N([H])[H])c4N([H])[H])C3([H])[H])c([H])c([H])c2C1([H])[H]

$$$$
