0:0:0
     RDKit          3D

 95104  0  0  1  0  0  0  0  0999 V2000
  -28.3590  -17.5550   17.8260 C   0  0  0  0  0  3  0  0  0  0  0  0
  -28.0580  -18.9200   17.8010 C   0  0  0  0  0  3  0  0  0  0  0  0
  -29.0700  -17.0230   18.9110 C   0  0  0  0  0  3  0  0  0  0  0  0
  -28.4810  -19.7690   18.8500 C   0  0  0  0  0  0  0  0  0  0  0  0
  -29.2220  -19.2480   19.9470 C   0  0  0  0  0  0  0  0  0  0  0  0
  -29.4920  -17.8380   19.9930 C   0  0  0  0  0  0  0  0  0  0  0  0
  -28.0620  -21.2300   18.7680 C   0  0  0  0  0  2  0  0  0  0  0  0
  -29.6330  -20.2050   21.0860 C   0  0  0  0  0  2  0  0  0  0  0  0
  -29.2230  -22.2320   18.7120 C   0  0  0  0  0  2  0  0  0  0  0  0
  -30.4960  -21.4410   20.7070 C   0  0  0  0  0  2  0  0  0  0  0  0
  -29.7550  -22.5620   20.0550 N   0  0  1  0  0  4  0  0  0  0  0  0
  -28.9510  -22.7320   20.6370 H   0  0  0  0  0  0  0  0  0  0  0  0
  -30.2100  -17.1620   21.1820 C   0  0  0  0  0  2  0  0  0  0  0  0
  -30.8030  -14.7390   20.7880 C   0  0  0  0  0  0  0  0  0  0  0  0
  -30.5870  -12.6010   19.5850 C   0  0  0  0  0  2  0  0  0  0  0  0
  -29.6710  -12.8390   18.3670 C   0  0  0  0  0  2  0  0  0  0  0  0
  -28.1890  -12.6620   18.7510 C   0  0  0  0  0  2  0  0  0  0  0  0
  -27.8060  -13.4490   20.0360 C   0  0  0  0  0  3  0  0  0  0  0  0
  -28.8420  -13.1990   21.1580 C   0  0  0  0  0  2  0  0  0  0  0  0
  -30.1760  -13.5380   20.6350 N   0  0  0  0  0  0  0  0  0  0  0  0
  -31.9250  -14.9790   20.3350 O   0  0  0  0  0  0  0  0  0  0  0  0
  -30.0200  -15.7070   21.2860 N   0  0  0  0  0  0  0  0  0  0  0  0
  -29.1300  -15.4070   21.6500 H   0  0  0  0  0  0  0  0  0  0  0  0
  -25.3750  -14.0070   20.6870 C   0  0  0  0  0  0  0  0  0  0  0  0
  -24.3140  -13.2100   21.0240 C   0  0  0  0  0  0  0  0  0  0  0  0
  -24.8030  -11.8690   20.9880 C   0  0  0  0  0  0  0  0  0  0  0  0
  -26.4450  -13.1480   20.4740 N   0  0  0  0  0  0  0  0  0  0  0  0
  -26.1000  -11.8580   20.7100 N   0  0  0  0  0  0  0  0  0  0  0  0
  -24.0970  -10.5910   21.1400 C   0  0  0  0  0  0  0  0  0  0  0  0
  -24.5020   -9.6350   22.0980 C   0  0  0  0  0  3  0  0  0  0  0  0
  -23.7970   -8.4190   22.2410 C   0  0  0  0  0  3  0  0  0  0  0  0
  -22.6720   -8.1520   21.4230 C   0  0  0  0  0  0  0  0  0  0  0  0
  -22.2890   -9.0960   20.4540 C   0  0  0  0  0  3  0  0  0  0  0  0
  -22.9950  -10.3020   20.3100 C   0  0  0  0  0  3  0  0  0  0  0  0
  -21.9380   -6.9920   21.4760 O   0  0  0  0  0  0  0  0  0  0  0  0
  -21.8100   -6.2720   22.6370 C   0  0  0  0  0  0  0  0  0  0  0  0
  -21.2060   -6.8190   23.7900 C   0  0  0  0  0  3  0  0  0  0  0  0
  -21.0300   -6.0230   24.9390 C   0  0  0  0  0  3  0  0  0  0  0  0
  -21.4510   -4.6780   24.9340 C   0  0  0  0  0  0  0  0  0  0  0  0
  -22.0430   -4.1290   23.7850 C   0  0  0  0  0  3  0  0  0  0  0  0
  -22.2200   -4.9240   22.6390 C   0  0  0  0  0  0  0  0  0  0  0  0
  -22.7750   -4.3830   21.5270 F   0  0  0  0  0  0  0  0  0  0  0  0
  -21.2740   -3.9100   26.0350 F   0  0  0  0  0  0  0  0  0  0  0  0
  -22.9000  -13.6560   21.2650 C   0  0  0  0  0  0  0  0  0  0  0  0
  -22.1580  -12.9310   22.0940 N   0  0  0  0  0  0  0  0  0  0  0  0
  -22.4610  -14.6860   20.7550 O   0  0  0  0  0  0  0  0  0  0  0  0
  -22.5230  -12.1000   22.5380 H   0  0  0  0  0  0  0  0  0  0  0  0
  -21.2080  -13.2120   22.2910 H   0  0  0  0  0  0  0  0  0  0  0  0
  -25.5140  -15.3830   20.5240 N   0  0  0  0  0  0  0  0  0  0  0  0
  -24.7270  -16.0130   20.6220 H   0  0  0  0  0  0  0  0  0  0  0  0
  -26.3450  -15.8400   20.1700 H   0  0  0  0  0  0  0  0  0  0  0  0
  -30.5110  -23.8540   20.0540 C   0  0  0  0  0  2  0  0  0  0  0  0
  -29.8580  -24.9420   20.9380 C   0  0  0  0  0  2  0  0  0  0  0  0
  -28.5230  -25.5200   20.4060 C   0  0  0  0  0  2  0  0  0  0  0  0
  -28.5910  -26.9550   20.3680 O   0  0  0  0  0  0  0  0  0  0  0  0
  -24.6190  -32.0310   23.3440 C   0  0  0  0  0  0  0  0  0  0  0  0
  -27.3980  -27.6450   20.3160 C   0  0  0  0  0  0  0  0  0  0  0  0
  -23.4640  -30.6030   21.6930 C   0  0  0  0  0  3  0  0  0  0  0  0
  -24.9690  -29.0970   20.2900 C   0  0  0  0  0  0  0  0  0  0  0  0
  -25.9860  -31.0150   21.5290 C   0  0  0  0  0  2  0  0  0  0  0  0
  -26.1080  -29.6510   20.8850 C   0  0  0  0  0  0  0  0  0  0  0  0
  -27.3260  -28.9370   20.8860 C   0  0  0  0  0  3  0  0  0  0  0  0
  -26.2400  -27.1060   19.7090 C   0  0  0  0  0  3  0  0  0  0  0  0
  -25.0320  -27.8250   19.6960 C   0  0  0  0  0  3  0  0  0  0  0  0
  -23.7060  -29.9280   20.3180 C   0  0  0  0  0  2  0  0  0  0  0  0
  -24.7060  -31.2310   22.2460 N   0  0  0  0  0  0  0  0  0  0  0  0
  -23.5260  -32.2800   23.8700 O   0  0  0  0  0  0  0  0  0  0  0  0
  -22.8250  -29.5670   22.6440 C   0  0  0  0  0  0  0  0  0  0  0  0
  -21.5140  -29.3270   22.4750 N   0  0  0  0  0  0  0  0  0  0  0  0
  -23.5060  -28.9800   23.4890 O   0  0  0  0  0  0  0  0  0  0  0  0
  -21.0260  -29.8470   21.7580 H   0  0  0  0  0  0  0  0  0  0  0  0
  -18.1750  -28.0110   22.8770 C   0  0  0  0  0  0  0  0  0  0  0  0
  -20.7090  -28.3660   23.2300 C   0  0  0  0  0  3  0  0  0  0  0  0
  -20.8870  -26.9350   22.6750 C   0  0  0  0  0  2  0  0  0  0  0  0
  -19.8330  -26.5610   21.6300 C   0  0  0  0  0  2  0  0  0  0  0  0
  -18.4260  -26.6620   22.2250 C   0  0  0  0  0  2  0  0  0  0  0  0
  -19.2490  -28.8180   23.3350 C   0  0  0  0  0  0  0  0  0  0  0  0
  -18.9640  -30.0800   23.9020 C   0  0  0  0  0  3  0  0  0  0  0  0
  -17.6370  -30.5360   24.0160 C   0  0  0  0  0  3  0  0  0  0  0  0
  -16.5760  -29.7260   23.5760 C   0  0  0  0  0  3  0  0  0  0  0  0
  -16.8460  -28.4650   23.0130 C   0  0  0  0  0  3  0  0  0  0  0  0
  -25.8840  -32.6910   23.9740 C   0  0  0  0  0  3  0  0  0  0  0  0
  -26.3750  -31.9670   25.2890 C   0  0  1  0  0  0  0  0  0  0  0  0
  -25.2520  -31.7370   26.3270 C   0  0  0  0  0  1  0  0  0  0  0  0
  -26.9990  -30.5910   24.9580 C   0  0  0  0  0  1  0  0  0  0  0  0
  -27.4850  -32.8080   25.9640 C   0  0  0  0  0  1  0  0  0  0  0  0
  -25.5590  -34.0960   24.2470 N   0  0  0  0  0  0  0  0  0  0  0  0
  -25.9020  -35.1220   23.4590 C   0  0  0  0  0  0  0  0  0  0  0  0
  -26.6000  -34.9890   22.4500 O   0  0  0  0  0  0  0  0  0  0  0  0
  -24.9520  -34.2750   25.0340 H   0  0  0  0  0  0  0  0  0  0  0  0
  -24.1860  -36.8930   22.9840 C   0  0  0  0  0  1  0  0  0  0  0  0
  -25.3960  -36.5210   23.8550 C   0  0  0  0  0  3  0  0  0  0  0  0
  -27.4870  -37.4500   24.7490 C   0  0  0  0  0  1  0  0  0  0  0  0
  -26.4300  -37.5740   23.7480 N   0  0  0  0  0  0  0  0  0  0  0  0
  -26.0120  -38.4960   23.8470 H   0  0  0  0  0  0  0  0  0  0  0  0
  1  3  1  0
  2  1  2  0
  2  4  1  0
  3  6  2  0
  4  5  2  0
  5  6  1  0
  5  8  1  0
  6 13  1  0
  7  4  1  0
  9  7  1  0
  9 11  1  0
 10  8  1  0
 11 12  1  1
 11 10  1  0
 13 22  1  0
 14 22  1  0
 15 20  1  0
 16 17  1  0
 16 15  1  0
 18 17  1  0
 18 27  1  0
 18 19  1  0
 20 14  1  0
 20 19  1  0
 21 14  2  0
 22 23  1  0
 24 25  2  0
 25 44  1  0
 26 25  1  0
 26 29  1  0
 27 24  1  0
 27 28  1  0
 28 26  2  0
 29 30  1  0
 30 31  2  0
 32 35  1  0
 32 31  1  0
 33 32  2  0
 34 33  1  0
 34 29  2  0
 35 36  1  0
 36 41  2  0
 36 37  1  0
 37 38  2  0
 39 38  1  0
 39 43  1  0
 40 39  2  0
 41 40  1  0
 42 41  1  0
 44 45  1  0
 45 48  1  0
 45 47  1  0
 46 44  2  0
 49 50  1  0
 49 24  1  0
 51 49  1  0
 52 11  1  0
 52 53  1  0
 54 53  1  0
 55 54  1  0
 56 67  2  0
 57 55  1  0
 57 62  1  0
 58 66  1  0
 58 68  1  0
 59 65  1  0
 59 61  1  0
 60 66  1  0
 61 62  2  0
 61 60  1  0
 63 57  2  0
 64 63  1  0
 64 59  2  0
 65 58  1  0
 66 56  1  0
 68 70  2  0
 69 68  1  0
 71 69  1  0
 72 81  2  0
 72 77  1  0
 73 69  1  0
 73 77  1  0
 74 73  1  0
 75 76  1  0
 75 74  1  0
 76 72  1  0
 77 78  2  0
 78 79  1  0
 80 79  2  0
 81 80  1  0
 82 56  1  0
 82 87  1  0
 82 83  1  0
 83 86  1  1
 83 84  1  0
 85 83  1  0
 87 90  1  0
 88 92  1  0
 88 87  1  0
 89 88  2  0
 92 91  1  0
 94 95  1  0
 94 92  1  0
 94 93  1  0
M  ISO  4  14 100  22 100  54 101  55 101
M  END
>  <TORSDO>  (1) 
F 20

>  <SCORE>  (1) 
-13.863

>  <name>  (1) 
0

>  <ligand_id>  (1) 
0

>  <original_smiles>  (1) 
[H]c1c([H])c([H])c2c(c1[H])C([H])([H])C([H])([H])C([H])([H])C2([H])N([H])C(=O)C1([H])N(C(=O)C([H])(N([H])C(=O)C([H])(N([H])C([H])([H])[H])C([H])([H])[H])C(C([H])([H])[H])(C([H])([H])[H])C([H])([H])[H])C([H])([H])c2c([H])c(OC([H])([H])C([H])([H])C([H])([H])[N+]3([H])C([H])([H])C([H])([H])c4c([H])c([H])c([H])c(C([H])([H])N([H])C(=O)N5C([H])([H])C([H])([H])C([H])([H])C([H])(n6nc(-c7c([H])c([H])c(Oc8c([H])c([H])c(F)c([H])c8F)c([H])c7[H])c(C(=O)N([H])[H])c6N([H])[H])C5([H])[H])c4C([H])([H])C3([H])[H])c([H])c([H])c2C1([H])[H]

>  <smiles>  (1) 
[H]c1c([H])c([H])c2c(c1[H])C([H])([H])C([H])([H])C([H])([H])C2([H])N([H])C(=O)C1([H])N(C(=O)C([H])(N([H])C(=O)C([H])(N([H])C([H])([H])[H])C([H])([H])[H])C(C([H])([H])[H])(C([H])([H])[H])C([H])([H])[H])C([H])([H])c2c([H])c(OC([H])([H])C([H])([H])C([H])([H])[N+]3([H])C([H])([H])C([H])([H])c4c([H])c([H])c([H])c(C([H])([H])N([H])C(=O)N5C([H])([H])C([H])([H])C([H])([H])C([H])(n6nc(-c7c([H])c([H])c(Oc8c([H])c([H])c(F)c([H])c8F)c([H])c7[H])c(C(=O)N([H])[H])c6N([H])[H])C5([H])[H])c4C([H])([H])C3([H])[H])c([H])c([H])c2C1([H])[H]

$$$$
1:0:0
     RDKit          3D

 94103  0  0  1  0  0  0  0  0999 V2000
  -30.1560  -22.2480   21.2120 C   0  0  0  0  0  0  0  0  0  0  0  0
  -29.8610  -23.2640   20.3790 N   0  0  0  0  0  0  0  0  0  0  0  0
  -29.7390  -22.2140   22.3700 O   0  0  0  0  0  0  0  0  0  0  0  0
  -30.2040  -23.1580   19.4320 H   0  0  0  0  0  0  0  0  0  0  0  0
  -32.0800  -21.6350   19.5700 C   0  0  0  0  0  2  0  0  0  0  0  0
  -32.5600  -21.6250   20.9940 C   0  0  0  0  0  2  0  0  0  0  0  0
  -31.1250  -21.2050   20.6840 C   0  0  1  0  0  0  0  0  0  0  0  0
  -30.6880  -14.4830   20.3690 C   0  0  0  0  0  0  0  0  0  0  0  0
  -30.3620  -12.3300   19.2100 C   0  0  0  0  0  2  0  0  0  0  0  0
  -29.4230  -12.5530   18.0080 C   0  0  0  0  0  2  0  0  0  0  0  0
  -27.9480  -12.4220   18.4360 C   0  0  0  0  0  2  0  0  0  0  0  0
  -27.6180  -13.2470   19.7090 C   0  0  0  0  0  3  0  0  0  0  0  0
  -28.6750  -13.0190   20.8140 C   0  0  0  0  0  2  0  0  0  0  0  0
  -30.0000  -13.3150   20.2430 N   0  0  0  0  0  0  0  0  0  0  0  0
  -31.8250  -14.6110   19.9020 O   0  0  0  0  0  0  0  0  0  0  0  0
  -29.4750  -19.2170   21.0510 C   0  0  0  0  0  3  0  0  0  0  0  0
  -29.2460  -17.8220   21.0990 C   0  0  0  0  0  3  0  0  0  0  0  0
  -31.7660  -18.7250   20.6040 C   0  0  0  0  0  3  0  0  0  0  0  0
  -30.7740  -19.7120   20.7900 C   0  0  0  0  0  0  0  0  0  0  0  0
  -30.3060  -16.9140   20.8770 C   0  0  0  0  0  0  0  0  0  0  0  0
  -31.5480  -17.3940   20.6530 N   0  0  0  0  0  0  0  0  0  0  0  0
  -29.9910  -15.5180   20.8920 N   0  0  0  0  0  0  0  0  0  0  0  0
  -29.0630  -15.2830   21.2030 H   0  0  0  0  0  0  0  0  0  0  0  0
  -25.2160  -13.8500   20.4060 C   0  0  0  0  0  0  0  0  0  0  0  0
  -24.1510  -13.0760   20.7830 C   0  0  0  0  0  0  0  0  0  0  0  0
  -24.6190  -11.7270   20.7710 C   0  0  0  0  0  0  0  0  0  0  0  0
  -26.2660  -12.9710   20.1890 N   0  0  0  0  0  0  0  0  0  0  0  0
  -25.9100  -11.6900   20.4660 N   0  0  0  0  0  0  0  0  0  0  0  0
  -23.8970  -10.4640   20.9750 C   0  0  0  0  0  0  0  0  0  0  0  0
  -24.3330   -9.5100   21.9220 C   0  0  0  0  0  3  0  0  0  0  0  0
  -23.6130   -8.3110   22.1120 C   0  0  0  0  0  3  0  0  0  0  0  0
  -22.4440   -8.0570   21.3560 C   0  0  0  0  0  0  0  0  0  0  0  0
  -22.0280   -8.9980   20.3990 C   0  0  0  0  0  3  0  0  0  0  0  0
  -22.7490  -10.1900   20.2060 C   0  0  0  0  0  3  0  0  0  0  0  0
  -21.6950   -6.9090   21.4570 O   0  0  0  0  0  0  0  0  0  0  0  0
  -21.6480   -6.1800   22.6190 C   0  0  0  0  0  0  0  0  0  0  0  0
  -21.2040   -6.7440   23.8350 C   0  0  0  0  0  3  0  0  0  0  0  0
  -21.1040   -5.9410   24.9880 C   0  0  0  0  0  3  0  0  0  0  0  0
  -21.4370   -4.5740   24.9260 C   0  0  0  0  0  0  0  0  0  0  0  0
  -21.8730   -4.0100   23.7150 C   0  0  0  0  0  3  0  0  0  0  0  0
  -21.9740   -4.8110   22.5640 C   0  0  0  0  0  0  0  0  0  0  0  0
  -22.3750   -4.2570   21.3940 F   0  0  0  0  0  0  0  0  0  0  0  0
  -21.3340   -3.8000   26.0320 F   0  0  0  0  0  0  0  0  0  0  0  0
  -22.7510  -13.5500   21.0460 C   0  0  0  0  0  0  0  0  0  0  0  0
  -22.0240  -12.8620   21.9180 N   0  0  0  0  0  0  0  0  0  0  0  0
  -22.3090  -14.5660   20.5100 O   0  0  0  0  0  0  0  0  0  0  0  0
  -22.3930  -12.0400   22.3730 H   0  0  0  0  0  0  0  0  0  0  0  0
  -21.0830  -13.1600   22.1340 H   0  0  0  0  0  0  0  0  0  0  0  0
  -25.3740  -15.2180   20.2070 N   0  0  0  0  0  0  0  0  0  0  0  0
  -24.5980  -15.8660   20.2950 H   0  0  0  0  0  0  0  0  0  0  0  0
  -26.2070  -15.6500   19.8280 H   0  0  0  0  0  0  0  0  0  0  0  0
  -29.5340  -24.6390   20.7930 C   0  0  0  0  0  2  0  0  0  0  0  0
  -28.3390  -25.2720   20.0470 C   0  0  0  0  0  2  0  0  0  0  0  0
  -28.3910  -26.7030   20.1870 O   0  0  0  0  0  0  0  0  0  0  0  0
  -24.5690  -31.8690   23.2280 C   0  0  0  0  0  0  0  0  0  0  0  0
  -27.2110  -27.4230   20.1460 C   0  0  0  0  0  0  0  0  0  0  0  0
  -23.3650  -30.4780   21.5750 C   0  0  0  0  0  3  0  0  0  0  0  0
  -24.8210  -28.9430   20.1460 C   0  0  0  0  0  0  0  0  0  0  0  0
  -25.8930  -30.8290   21.3870 C   0  0  0  0  0  2  0  0  0  0  0  0
  -25.9760  -29.4600   20.7410 C   0  0  0  0  0  0  0  0  0  0  0  0
  -27.1750  -28.7090   20.7330 C   0  0  0  0  0  3  0  0  0  0  0  0
  -26.0370  -26.9240   19.5360 C   0  0  0  0  0  3  0  0  0  0  0  0
  -24.8460  -27.6770   19.5370 C   0  0  0  0  0  3  0  0  0  0  0  0
  -23.5780  -29.8040   20.1920 C   0  0  0  0  0  2  0  0  0  0  0  0
  -24.6280  -31.0720   22.1220 N   0  0  0  0  0  0  0  0  0  0  0  0
  -23.4860  -32.1420   23.7640 O   0  0  0  0  0  0  0  0  0  0  0  0
  -22.7080  -29.4530   22.5270 C   0  0  0  0  0  0  0  0  0  0  0  0
  -21.3820  -29.2810   22.3960 N   0  0  0  0  0  0  0  0  0  0  0  0
  -23.3860  -28.8170   23.3370 O   0  0  0  0  0  0  0  0  0  0  0  0
  -20.8970  -29.8460   21.7140 H   0  0  0  0  0  0  0  0  0  0  0  0
  -17.9950  -28.1320   22.9000 C   0  0  0  0  0  0  0  0  0  0  0  0
  -20.5570  -28.3440   23.1590 C   0  0  0  0  0  3  0  0  0  0  0  0
  -20.6340  -26.9220   22.5590 C   0  0  0  0  0  2  0  0  0  0  0  0
  -19.5200  -26.6330   21.5470 C   0  0  0  0  0  2  0  0  0  0  0  0
  -18.1450  -26.7900   22.2030 C   0  0  0  0  0  2  0  0  0  0  0  0
  -19.1280  -28.8690   23.3340 C   0  0  0  0  0  0  0  0  0  0  0  0
  -18.9340  -30.1270   23.9450 C   0  0  0  0  0  3  0  0  0  0  0  0
  -17.6390  -30.6470   24.1270 C   0  0  0  0  0  3  0  0  0  0  0  0
  -16.5190  -29.9050   23.7110 C   0  0  0  0  0  3  0  0  0  0  0  0
  -16.6980  -28.6500   23.1030 C   0  0  0  0  0  3  0  0  0  0  0  0
  -25.8540  -32.4920   23.8560 C   0  0  0  0  0  3  0  0  0  0  0  0
  -26.3620  -31.7160   25.1330 C   0  0  1  0  0  0  0  0  0  0  0  0
  -25.2620  -31.4810   26.1940 C   0  0  0  0  0  1  0  0  0  0  0  0
  -26.9410  -30.3380   24.7380 C   0  0  0  0  0  1  0  0  0  0  0  0
  -27.5130  -32.5040   25.8030 C   0  0  0  0  0  1  0  0  0  0  0  0
  -25.5520  -33.8910   24.1850 N   0  0  0  0  0  0  0  0  0  0  0  0
  -25.8940  -34.9400   23.4270 C   0  0  0  0  0  0  0  0  0  0  0  0
  -26.5670  -34.8340   22.3970 O   0  0  0  0  0  0  0  0  0  0  0  0
  -24.9560  -34.0510   24.9840 H   0  0  0  0  0  0  0  0  0  0  0  0
  -24.1760  -36.7400   23.0620 C   0  0  0  0  0  1  0  0  0  0  0  0
  -25.4100  -36.3320   23.8810 C   0  0  0  0  0  3  0  0  0  0  0  0
  -27.5420  -37.2060   24.7280 C   0  0  0  0  0  1  0  0  0  0  0  0
  -26.4490  -37.3790   23.7740 N   0  0  0  0  0  0  0  0  0  0  0  0
  -26.0480  -38.3010   23.9180 H   0  0  0  0  0  0  0  0  0  0  0  0
  1  3  2  0
  2 52  1  0
  2  1  1  0
  4  2  1  0
  5  7  1  0
  5  6  1  0
  7 19  1  0
  7  6  1  0
  7  1  1  1
  8 22  1  0
  9 14  1  0
 10 11  1  0
 10  9  1  0
 12 11  1  0
 12 27  1  0
 12 13  1  0
 14  8  1  0
 14 13  1  0
 15  8  2  0
 16 17  1  0
 18 21  2  0
 18 19  1  0
 19 16  2  0
 20 22  1  0
 20 17  2  0
 21 20  1  0
 22 23  1  0
 24 25  2  0
 25 44  1  0
 26 25  1  0
 26 29  1  0
 27 24  1  0
 27 28  1  0
 28 26  2  0
 29 30  1  0
 30 31  2  0
 32 35  1  0
 32 31  1  0
 33 32  2  0
 34 33  1  0
 34 29  2  0
 35 36  1  0
 36 37  1  0
 37 38  2  0
 39 38  1  0
 39 43  1  0
 40 39  2  0
 41 36  2  0
 41 40  1  0
 42 41  1  0
 44 45  1  0
 45 48  1  0
 45 47  1  0
 46 44  2  0
 49 50  1  0
 49 24  1  0
 51 49  1  0
 53 54  1  0
 53 52  1  0
 55 66  2  0
 56 54  1  0
 56 61  1  0
 57 65  1  0
 57 67  1  0
 58 64  1  0
 58 60  1  0
 59 65  1  0
 60 59  1  0
 61 60  2  0
 62 63  1  0
 62 56  2  0
 63 58  2  0
 64 57  1  0
 65 55  1  0
 67 69  2  0
 68 67  1  0
 70 68  1  0
 71 80  2  0
 71 76  1  0
 72 68  1  0
 72 76  1  0
 73 72  1  0
 74 75  1  0
 74 73  1  0
 75 71  1  0
 76 77  2  0
 77 78  1  0
 79 78  2  0
 80 79  1  0
 81 55  1  0
 81 86  1  0
 81 82  1  0
 82 85  1  1
 82 83  1  0
 84 82  1  0
 86 89  1  0
 87 91  1  0
 87 86  1  0
 88 87  2  0
 91 90  1  0
 93 91  1  0
 93 94  1  0
 93 92  1  0
M  ISO  4   8 100  22 100  53 101  54 101
M  END
>  <TORSDO>  (2) 
F 19

>  <SCORE>  (2) 
-14.149

>  <name>  (2) 
1

>  <ligand_id>  (2) 
1

>  <original_smiles>  (2) 
[H]c1nc(N([H])C(=O)N2C([H])([H])C([H])([H])C([H])([H])C([H])(n3nc(-c4c([H])c([H])c(Oc5c([H])c([H])c(F)c([H])c5F)c([H])c4[H])c(C(=O)N([H])[H])c3N([H])[H])C2([H])[H])c([H])c([H])c1C1(C(=O)N([H])C([H])([H])C([H])([H])Oc2c([H])c([H])c3c(c2[H])C([H])([H])N(C(=O)C([H])(N([H])C(=O)C([H])(N([H])C([H])([H])[H])C([H])([H])[H])C(C([H])([H])[H])(C([H])([H])[H])C([H])([H])[H])C([H])(C(=O)N([H])C2([H])c4c([H])c([H])c([H])c([H])c4C([H])([H])C([H])([H])C2([H])[H])C3([H])[H])C([H])([H])C1([H])[H]

>  <smiles>  (2) 
[H]c1nc(N([H])C(=O)N2C([H])([H])C([H])([H])C([H])([H])C([H])(n3nc(-c4c([H])c([H])c(Oc5c([H])c([H])c(F)c([H])c5F)c([H])c4[H])c(C(=O)N([H])[H])c3N([H])[H])C2([H])[H])c([H])c([H])c1C1(C(=O)N([H])C([H])([H])C([H])([H])Oc2c([H])c([H])c3c(c2[H])C([H])([H])N(C(=O)C([H])(N([H])C(=O)C([H])(N([H])C([H])([H])[H])C([H])([H])[H])C(C([H])([H])[H])(C([H])([H])[H])C([H])([H])[H])C([H])(C(=O)N([H])C2([H])c4c([H])c([H])c([H])c([H])c4C([H])([H])C([H])([H])C2([H])[H])C3([H])[H])C([H])([H])C1([H])[H]

$$$$
2:0:0
     RDKit          3D

 97105  0  0  1  0  0  0  0  0999 V2000
  -29.9450  -20.7210   21.4700 C   0  0  0  0  0  3  0  0  0  0  0  0
  -30.9210  -20.4520   19.2820 C   0  0  0  0  0  3  0  0  0  0  0  0
  -29.6270  -19.3340   21.4760 C   0  0  0  0  0  3  0  0  0  0  0  0
  -30.5630  -19.0750   19.2680 C   0  0  0  0  0  3  0  0  0  0  0  0
  -30.5930  -21.3130   20.3630 C   0  0  0  0  0  0  0  0  0  0  0  0
  -29.8910  -18.4850   20.3640 C   0  0  0  0  0  0  0  0  0  0  0  0
  -31.1570  -22.7330   20.4170 C   0  0  0  0  0  0  0  0  0  0  0  0
  -30.4260  -23.8690   20.5890 N   0  0  0  0  0  0  0  0  0  0  0  0
  -32.3810  -22.8400   20.3300 O   0  0  0  0  0  0  0  0  0  0  0  0
  -31.0050  -24.6910   20.7090 H   0  0  0  0  0  0  0  0  0  0  0  0
  -29.0040  -24.1960   20.3760 C   0  0  0  0  0  2  0  0  0  0  0  0
  -28.5150  -25.5300   21.0640 C   0  0  0  0  0  2  0  0  0  0  0  0
  -28.6330  -26.8000   20.3530 O   0  0  0  0  0  0  0  0  0  0  0  0
  -24.6260  -31.9650   23.3220 C   0  0  0  0  0  0  0  0  0  0  0  0
  -27.4750  -27.5700   20.3060 C   0  0  0  0  0  0  0  0  0  0  0  0
  -23.5040  -30.5440   21.6380 C   0  0  0  0  0  3  0  0  0  0  0  0
  -25.0400  -29.0480   20.2440 C   0  0  0  0  0  0  0  0  0  0  0  0
  -26.0290  -30.9550   21.5210 C   0  0  0  0  0  2  0  0  0  0  0  0
  -26.1710  -29.5900   20.8680 C   0  0  0  0  0  0  0  0  0  0  0  0
  -27.3920  -28.8640   20.8880 C   0  0  0  0  0  3  0  0  0  0  0  0
  -26.3250  -27.0610   19.6640 C   0  0  0  0  0  3  0  0  0  0  0  0
  -25.1160  -27.7850   19.6360 C   0  0  0  0  0  3  0  0  0  0  0  0
  -23.7700  -29.8740   20.2630 C   0  0  0  0  0  2  0  0  0  0  0  0
  -24.7350  -31.1710   22.2180 N   0  0  0  0  0  0  0  0  0  0  0  0
  -23.5240  -32.2090   23.8320 O   0  0  0  0  0  0  0  0  0  0  0  0
  -22.8480  -29.5050   22.5760 C   0  0  0  0  0  0  0  0  0  0  0  0
  -21.5310  -29.2930   22.4120 N   0  0  0  0  0  0  0  0  0  0  0  0
  -23.5240  -28.8910   23.4050 O   0  0  0  0  0  0  0  0  0  0  0  0
  -21.0480  -29.8380   21.7100 H   0  0  0  0  0  0  0  0  0  0  0  0
  -18.1650  -28.0520   22.8490 C   0  0  0  0  0  0  0  0  0  0  0  0
  -20.7160  -28.3330   23.1560 C   0  0  0  0  0  3  0  0  0  0  0  0
  -20.8410  -26.9150   22.5520 C   0  0  0  0  0  2  0  0  0  0  0  0
  -19.7540  -26.6010   21.5180 C   0  0  0  0  0  2  0  0  0  0  0  0
  -18.3630  -26.7190   22.1480 C   0  0  0  0  0  2  0  0  0  0  0  0
  -19.2700  -28.8170   23.3060 C   0  0  0  0  0  0  0  0  0  0  0  0
  -19.0310  -30.0680   23.9190 C   0  0  0  0  0  3  0  0  0  0  0  0
  -17.7190  -30.5500   24.0810 C   0  0  0  0  0  3  0  0  0  0  0  0
  -16.6280  -29.7820   23.6400 C   0  0  0  0  0  3  0  0  0  0  0  0
  -16.8520  -28.5340   23.0300 C   0  0  0  0  0  3  0  0  0  0  0  0
  -25.8780  -32.6220   23.9810 C   0  0  0  0  0  3  0  0  0  0  0  0
  -25.5460  -34.0270   24.2570 N   0  0  0  0  0  0  0  0  0  0  0  0
  -25.9120  -35.0600   23.4870 C   0  0  0  0  0  0  0  0  0  0  0  0
  -26.6310  -34.9340   22.4930 O   0  0  0  0  0  0  0  0  0  0  0  0
  -24.9120  -34.1990   25.0240 H   0  0  0  0  0  0  0  0  0  0  0  0
  -24.1990  -36.8310   22.9920 C   0  0  0  0  0  1  0  0  0  0  0  0
  -25.3940  -36.4560   23.8830 C   0  0  0  0  0  3  0  0  0  0  0  0
  -27.4690  -37.3750   24.8180 C   0  0  0  0  0  1  0  0  0  0  0  0
  -26.4290  -37.5110   23.8020 N   0  0  0  0  0  0  0  0  0  0  0  0
  -26.0130  -38.4340   23.8950 H   0  0  0  0  0  0  0  0  0  0  0  0
  -26.3420  -31.8910   25.2990 C   0  0  1  0  0  0  0  0  0  0  0  0
  -25.1990  -31.6620   26.3160 C   0  0  0  0  0  1  0  0  0  0  0  0
  -26.9680  -30.5150   24.9720 C   0  0  0  0  0  1  0  0  0  0  0  0
  -27.4470  -32.7200   25.9970 C   0  0  0  0  0  1  0  0  0  0  0  0
  -29.1750  -17.0950   20.2670 C   0  0  0  0  0  3  0  0  0  0  0  0
  -30.5640  -14.8660   19.9960 C   0  0  0  0  0  0  0  0  0  0  0  0
  -30.3430  -12.5920   19.0120 C   0  0  0  0  0  2  0  0  0  0  0  0
  -29.3310  -12.6350   17.8470 C   0  0  0  0  0  2  0  0  0  0  0  0
  -27.8850  -12.4600   18.3580 C   0  0  0  0  0  2  0  0  0  0  0  0
  -27.5620  -13.3510   19.5840 C   0  0  0  0  0  3  0  0  0  0  0  0
  -28.6900  -13.3070   20.6380 C   0  0  0  0  0  2  0  0  0  0  0  0
  -29.9460  -13.6470   19.9540 N   0  0  0  0  0  0  0  0  0  0  0  0
  -31.7760  -14.9860   19.8230 O   0  0  0  0  0  0  0  0  0  0  0  0
  -29.7740  -15.8990   19.5830 N   0  0  0  0  0  0  0  0  0  0  0  0
  -29.0930  -15.5120   18.9510 H   0  0  0  0  0  0  0  0  0  0  0  0
  -25.2180  -13.9260   20.4740 C   0  0  0  0  0  0  0  0  0  0  0  0
  -24.1610  -13.1410   20.8440 C   0  0  0  0  0  0  0  0  0  0  0  0
  -24.6260  -11.7970   20.7490 C   0  0  0  0  0  0  0  0  0  0  0  0
  -26.2490  -13.0580   20.1490 N   0  0  0  0  0  0  0  0  0  0  0  0
  -25.9000  -11.7690   20.3790 N   0  0  0  0  0  0  0  0  0  0  0  0
  -23.9110  -10.5350   20.9420 C   0  0  0  0  0  0  0  0  0  0  0  0
  -24.3730   -9.5610   21.8530 C   0  0  0  0  0  3  0  0  0  0  0  0
  -23.6560   -8.3610   22.0390 C   0  0  0  0  0  3  0  0  0  0  0  0
  -22.4650   -8.1280   21.3100 C   0  0  0  0  0  0  0  0  0  0  0  0
  -22.0220   -9.0910   20.3870 C   0  0  0  0  0  3  0  0  0  0  0  0
  -22.7400  -10.2840   20.2000 C   0  0  0  0  0  3  0  0  0  0  0  0
  -21.7180   -6.9810   21.4030 O   0  0  0  0  0  0  0  0  0  0  0  0
  -21.6780   -6.2400   22.5560 C   0  0  0  0  0  0  0  0  0  0  0  0
  -21.2020   -6.7810   23.7710 C   0  0  0  0  0  3  0  0  0  0  0  0
  -21.1150   -5.9670   24.9170 C   0  0  0  0  0  3  0  0  0  0  0  0
  -21.4920   -4.6120   24.8480 C   0  0  0  0  0  0  0  0  0  0  0  0
  -21.9650   -4.0710   23.6390 C   0  0  0  0  0  3  0  0  0  0  0  0
  -22.0540   -4.8840   22.4960 C   0  0  0  0  0  0  0  0  0  0  0  0
  -22.4910   -4.3550   21.3270 F   0  0  0  0  0  0  0  0  0  0  0  0
  -21.3990   -3.8260   25.9460 F   0  0  0  0  0  0  0  0  0  0  0  0
  -22.7840  -13.6180   21.1980 C   0  0  0  0  0  0  0  0  0  0  0  0
  -22.0990  -12.9090   22.0880 N   0  0  0  0  0  0  0  0  0  0  0  0
  -22.3340  -14.6600   20.7260 O   0  0  0  0  0  0  0  0  0  0  0  0
  -22.4840  -12.0710   22.4950 H   0  0  0  0  0  0  0  0  0  0  0  0
  -21.1750  -13.2090   22.3670 H   0  0  0  0  0  0  0  0  0  0  0  0
  -25.3740  -15.3000   20.4140 N   0  0  0  0  0  0  0  0  0  0  0  0
  -24.4880  -15.7430   20.6400 H   0  0  0  0  0  0  0  0  0  0  0  0
  -26.0170  -15.5130   21.1680 H   0  0  0  0  0  0  0  0  0  0  0  0
  -27.9050  -17.4130   19.4300 C   0  0  0  0  0  2  0  0  0  0  0  0
  -27.0170  -18.4280   20.0210 N   0  0  0  0  0  4  0  0  0  0  0  0
  -26.2220  -18.5590   19.4210 H   0  0  0  0  0  0  0  0  0  0  0  0
  -27.5130  -19.2970   20.1000 H   0  0  0  0  0  0  0  0  0  0  0  0
  -26.6850  -18.1480   20.9250 H   0  0  0  0  0  0  0  0  0  0  0  0
  1  3  1  0
  2  5  1  0
  4  2  2  0
  4  6  1  0
  5  7  1  0
  5  1  2  0
  6  3  2  0
  7  8  1  0
  8 10  1  0
  9  7  2  0
 11  8  1  0
 11 12  1  0
 13 12  1  0
 14 25  2  0
 15 13  1  0
 15 20  1  0
 16 24  1  0
 16 26  1  0
 17 23  1  0
 17 19  1  0
 18 24  1  0
 19 20  2  0
 19 18  1  0
 21 15  2  0
 22 21  1  0
 22 17  2  0
 23 16  1  0
 24 14  1  0
 26 28  2  0
 27 26  1  0
 29 27  1  0
 30 39  2  0
 30 35  1  0
 31 27  1  0
 31 35  1  0
 32 31  1  0
 33 34  1  0
 33 32  1  0
 34 30  1  0
 35 36  2  0
 36 37  1  0
 38 37  2  0
 39 38  1  0
 40 14  1  0
 40 41  1  0
 40 50  1  0
 41 44  1  0
 42 46  1  0
 42 41  1  0
 43 42  2  0
 46 45  1  0
 48 46  1  0
 48 49  1  0
 48 47  1  0
 50 53  1  1
 50 51  1  0
 52 50  1  0
 54 93  1  0
 54  6  1  0
 56 61  1  0
 57 58  1  0
 57 56  1  0
 59 58  1  0
 59 68  1  0
 59 60  1  0
 61 55  1  0
 61 60  1  0
 62 55  2  0
 63 55  1  0
 63 54  1  0
 64 63  1  0
 65 66  2  0
 66 85  1  0
 67 66  1  0
 67 70  1  0
 68 69  1  0
 68 65  1  0
 69 67  2  0
 70 71  1  0
 71 72  2  0
 73 76  1  0
 73 72  1  0
 74 73  2  0
 75 74  1  0
 75 70  2  0
 76 77  1  0
 77 78  1  0
 78 79  2  0
 80 79  1  0
 80 84  1  0
 81 80  2  0
 82 77  2  0
 82 81  1  0
 83 82  1  0
 85 86  1  0
 86 89  1  0
 86 88  1  0
 87 85  2  0
 90 65  1  0
 90 91  1  0
 90 92  1  0
 93 94  1  0
 94 96  1  0
 94 97  1  0
 95 94  1  0
M  ISO  4  12 101  13 101  55 100  63 100
M  END
>  <TORSDO>  (3) 
F 22

>  <SCORE>  (3) 
-13.434

>  <name>  (3) 
2

>  <ligand_id>  (3) 
2

>  <original_smiles>  (3) 
[H]c1c([H])c([H])c2c(c1[H])C([H])([H])C([H])([H])C([H])([H])C2([H])N([H])C(=O)C1([H])N(C(=O)C([H])(N([H])C(=O)C([H])(N([H])C([H])([H])[H])C([H])([H])[H])C(C([H])([H])[H])(C([H])([H])[H])C([H])([H])[H])C([H])([H])c2c([H])c(OC([H])([H])C([H])([H])N([H])C(=O)c3c([H])c([H])c(C([H])(N([H])C(=O)N4C([H])([H])C([H])([H])C([H])([H])C([H])(n5nc(-c6c([H])c([H])c(Oc7c([H])c([H])c(F)c([H])c7F)c([H])c6[H])c(C(=O)N([H])[H])c5N([H])[H])C4([H])[H])C([H])([H])[N+]([H])([H])[H])c([H])c3[H])c([H])c([H])c2C1([H])[H]

>  <smiles>  (3) 
[H]c1c([H])c([H])c2c(c1[H])C([H])([H])C([H])([H])C([H])([H])C2([H])N([H])C(=O)C1([H])N(C(=O)C([H])(N([H])C(=O)C([H])(N([H])C([H])([H])[H])C([H])([H])[H])C(C([H])([H])[H])(C([H])([H])[H])C([H])([H])[H])C([H])([H])c2c([H])c(OC([H])([H])C([H])([H])N([H])C(=O)c3c([H])c([H])c(C([H])(N([H])C(=O)N4C([H])([H])C([H])([H])C([H])([H])C([H])(n5nc(-c6c([H])c([H])c(Oc7c([H])c([H])c(F)c([H])c7F)c([H])c6[H])c(C(=O)N([H])[H])c5N([H])[H])C4([H])[H])C([H])([H])[N+]([H])([H])[H])c([H])c3[H])c([H])c([H])c2C1([H])[H]

$$$$
3:0:0
     RDKit          3D

104113  0  0  1  0  0  0  0  0999 V2000
  -30.8890  -21.7020   22.5310 C   0  0  0  0  0  2  0  0  0  0  0  0
  -32.2820  -21.3190   21.9940 C   0  0  0  0  0  2  0  0  0  0  0  0
  -31.1010  -19.8360   20.3790 C   0  0  0  0  0  0  0  0  0  0  0  0
  -32.2010  -20.4570   20.8160 N   0  0  0  0  0  0  0  0  0  0  0  0
  -30.0350  -19.8500   21.0000 O   0  0  0  0  0  0  0  0  0  0  0  0
  -33.0450  -20.3460   20.2670 H   0  0  0  0  0  0  0  0  0  0  0  0
  -31.7770  -17.8790   16.3710 C   0  0  0  0  0  0  0  0  0  0  0  0
  -31.9990  -17.1740   14.0150 C   0  0  0  0  0  2  0  0  0  0  0  0
  -33.4750  -17.2660   13.5780 C   0  0  0  0  0  2  0  0  0  0  0  0
  -33.8310  -18.6920   13.1080 C   0  0  0  0  0  2  0  0  0  0  0  0
  -33.3500  -19.7880   14.0970 C   0  0  0  0  0  3  0  0  0  0  0  0
  -31.8740  -19.5440   14.4730 C   0  0  0  0  0  2  0  0  0  0  0  0
  -31.7750  -18.1940   15.0490 N   0  0  0  0  0  0  0  0  0  0  0  0
  -31.7260  -16.7100   16.7720 O   0  0  0  0  0  0  0  0  0  0  0  0
  -33.8250  -19.6800   18.7390 C   0  0  0  0  0  2  0  0  0  0  0  0
  -33.3830  -21.1520   18.5550 C   0  0  0  0  0  2  0  0  0  0  0  0
  -31.2140  -19.1020   19.0330 C   0  0  0  0  0  3  0  0  0  0  0  0
  -32.6370  -18.7100   18.5880 C   0  0  0  0  0  3  0  0  0  0  0  0
  -31.2530  -19.9610   17.7530 C   0  0  0  0  0  3  0  0  0  0  0  0
  -32.0820  -21.2820   17.7090 C   0  0  0  0  0  3  0  0  0  0  0  0
  -32.1160  -18.8840   17.2190 N   0  0  0  0  0  0  0  0  0  0  0  0
  -34.7430  -21.8260   13.3610 C   0  0  0  0  0  0  0  0  0  0  0  0
  -34.3900  -23.0080   12.7670 C   0  0  0  0  0  0  0  0  0  0  0  0
  -32.9710  -22.9610   12.6090 C   0  0  0  0  0  0  0  0  0  0  0  0
  -33.5600  -21.1280   13.5530 N   0  0  0  0  0  0  0  0  0  0  0  0
  -32.4850  -21.8460   13.1400 N   0  0  0  0  0  0  0  0  0  0  0  0
  -32.0530  -23.8860   11.9340 C   0  0  0  0  0  0  0  0  0  0  0  0
  -30.7750  -24.1750   12.4620 C   0  0  0  0  0  3  0  0  0  0  0  0
  -29.9180  -25.0820   11.8040 C   0  0  0  0  0  3  0  0  0  0  0  0
  -30.3360  -25.7140   10.6080 C   0  0  0  0  0  0  0  0  0  0  0  0
  -31.6000  -25.4050   10.0740 C   0  0  0  0  0  3  0  0  0  0  0  0
  -32.4490  -24.4960   10.7280 C   0  0  0  0  0  3  0  0  0  0  0  0
  -29.5590  -26.5890    9.8870 O   0  0  0  0  0  0  0  0  0  0  0  0
  -28.4680  -27.2080   10.4420 C   0  0  0  0  0  0  0  0  0  0  0  0
  -28.5570  -27.9360   11.6490 C   0  0  0  0  0  3  0  0  0  0  0  0
  -27.4260  -28.6160   12.1460 C   0  0  0  0  0  3  0  0  0  0  0  0
  -26.2110  -28.5740   11.4370 C   0  0  0  0  0  0  0  0  0  0  0  0
  -26.1210  -27.8530   10.2330 C   0  0  0  0  0  3  0  0  0  0  0  0
  -27.2490  -27.1750    9.7350 C   0  0  0  0  0  0  0  0  0  0  0  0
  -27.1620  -26.4990    8.5640 F   0  0  0  0  0  0  0  0  0  0  0  0
  -25.1270  -29.2330   11.9100 F   0  0  0  0  0  0  0  0  0  0  0  0
  -35.3240  -24.0780   12.2780 C   0  0  0  0  0  0  0  0  0  0  0  0
  -34.8790  -25.3290   12.2790 N   0  0  0  0  0  0  0  0  0  0  0  0
  -36.4760  -23.8140   11.9360 O   0  0  0  0  0  0  0  0  0  0  0  0
  -33.9420  -25.5530   12.5800 H   0  0  0  0  0  0  0  0  0  0  0  0
  -35.4860  -26.0770   11.9730 H   0  0  0  0  0  0  0  0  0  0  0  0
  -35.9670  -21.2800   13.7360 N   0  0  0  0  0  0  0  0  0  0  0  0
  -36.8340  -21.7230   13.4490 H   0  0  0  0  0  0  0  0  0  0  0  0
  -36.0850  -20.3060   13.9830 H   0  0  0  0  0  0  0  0  0  0  0  0
  -30.3820  -23.0310   17.1330 C   0  0  0  0  0  1  0  0  0  0  0  0
  -31.2940  -22.4570   18.1440 N   0  0  0  0  0  4  0  0  0  0  0  0
  -31.9340  -23.1840   18.4240 H   0  0  0  0  0  0  0  0  0  0  0  0
  -30.7610  -22.1850   18.9650 H   0  0  0  0  0  0  0  0  0  0  0  0
  -30.1470  -22.7010   21.6190 C   0  0  0  0  0  2  0  0  0  0  0  0
  -27.8250  -22.9860   21.4200 C   0  0  0  0  0  1  0  0  0  0  0  0
  -28.9830  -23.3490   22.2420 N   0  0  0  0  0  0  0  0  0  0  0  0
  -29.2000  -24.8060   22.3000 C   0  0  0  0  0  2  0  0  0  0  0  0
  -30.6620  -25.3160   22.4280 C   0  0  0  0  0  3  0  0  0  0  0  0
  -30.7180  -26.7330   22.0070 N   0  0  0  0  0  4  0  0  0  0  0  0
  -30.4190  -26.8510   21.0550 H   0  0  0  0  0  0  0  0  0  0  0  0
  -31.6700  -27.0530   22.0730 H   0  0  0  0  0  0  0  0  0  0  0  0
  -30.1500  -27.3150   22.5990 H   0  0  0  0  0  0  0  0  0  0  0  0
  -31.7100  -24.4970   21.6410 C   0  0  0  0  0  2  0  0  0  0  0  0
  -32.9540  -25.1400   21.9070 O   0  0  0  0  0  0  0  0  0  0  0  0
  -37.0260  -26.6240   16.2740 C   0  0  0  0  0  0  0  0  0  0  0  0
  -34.0380  -24.7910   21.1440 C   0  0  0  0  0  0  0  0  0  0  0  0
  -37.6020  -24.5500   17.4980 C   0  0  0  0  0  3  0  0  0  0  0  0
  -36.4070  -24.2140   19.7250 C   0  0  0  0  0  0  0  0  0  0  0  0
  -36.4570  -26.4950   18.6940 C   0  0  0  0  0  2  0  0  0  0  0  0
  -35.8070  -25.4720   19.6010 C   0  0  0  0  0  0  0  0  0  0  0  0
  -34.6290  -25.7680   20.3160 C   0  0  0  0  0  3  0  0  0  0  0  0
  -34.6380  -23.5180   21.2510 C   0  0  0  0  0  3  0  0  0  0  0  0
  -35.8250  -23.2290   20.5450 C   0  0  0  0  0  3  0  0  0  0  0  0
  -37.6830  -23.9900   18.9450 C   0  0  0  0  0  2  0  0  0  0  0  0
  -36.9980  -25.9210   17.4420 N   0  0  0  0  0  0  0  0  0  0  0  0
  -37.5820  -26.1670   15.2650 O   0  0  0  0  0  0  0  0  0  0  0  0
  -36.8600  -23.5190   16.6180 C   0  0  0  0  0  0  0  0  0  0  0  0
  -37.4610  -22.3280   16.4600 N   0  0  0  0  0  0  0  0  0  0  0  0
  -35.7630  -23.7840   16.1210 O   0  0  0  0  0  0  0  0  0  0  0  0
  -38.3620  -22.1930   16.8970 H   0  0  0  0  0  0  0  0  0  0  0  0
  -37.7560  -18.7600   15.9980 C   0  0  0  0  0  0  0  0  0  0  0  0
  -36.9330  -21.1910   15.7080 C   0  0  0  0  0  3  0  0  0  0  0  0
  -35.5940  -20.7040   16.3090 C   0  0  0  0  0  2  0  0  0  0  0  0
  -35.7680  -19.5770   17.3330 C   0  0  0  0  0  2  0  0  0  0  0  0
  -36.4620  -18.3720   16.6930 C   0  0  0  0  0  2  0  0  0  0  0  0
  -37.9830  -20.0880   15.5490 C   0  0  0  0  0  0  0  0  0  0  0  0
  -39.2170  -20.4030   14.9410 C   0  0  0  0  0  3  0  0  0  0  0  0
  -40.2110  -19.4190   14.7750 C   0  0  0  0  0  3  0  0  0  0  0  0
  -39.9740  -18.1020   15.2060 C   0  0  0  0  0  3  0  0  0  0  0  0
  -38.7470  -17.7740   15.8120 C   0  0  0  0  0  3  0  0  0  0  0  0
  -36.3850  -28.0420   16.1550 C   0  0  0  0  0  3  0  0  0  0  0  0
  -35.3540  -28.1610   14.9650 C   0  0  1  0  0  0  0  0  0  0  0  0
  -35.9180  -27.6890   13.6060 C   0  0  0  0  0  1  0  0  0  0  0  0
  -34.0820  -27.3330   15.2650 C   0  0  0  0  0  1  0  0  0  0  0  0
  -34.9000  -29.6310   14.8100 C   0  0  0  0  0  1  0  0  0  0  0  0
  -37.4780  -29.0090   15.9950 N   0  0  0  0  0  0  0  0  0  0  0  0
  -37.8130  -29.9340   16.9050 C   0  0  0  0  0  0  0  0  0  0  0  0
  -37.1780  -30.1080   17.9480 O   0  0  0  0  0  0  0  0  0  0  0  0
  -38.0750  -28.8880   15.1900 H   0  0  0  0  0  0  0  0  0  0  0  0
  -40.2320  -30.3240   17.4670 C   0  0  0  0  0  1  0  0  0  0  0  0
  -39.0500  -30.8030   16.6090 C   0  0  0  0  0  3  0  0  0  0  0  0
  -37.8730  -32.8370   15.8960 C   0  0  0  0  0  1  0  0  0  0  0  0
  -38.8230  -32.2470   16.8360 N   0  0  0  0  0  0  0  0  0  0  0  0
  -39.6960  -32.7630   16.7670 H   0  0  0  0  0  0  0  0  0  0  0  0
  2  1  1  0
  3  4  1  0
  3  5  2  0
  4  2  1  0
  6  4  1  0
  7 14  2  0
  7 21  1  0
  8 13  1  0
  9  8  1  0
 10  9  1  0
 11 10  1  0
 11 12  1  0
 12 13  1  0
 13  7  1  0
 16 15  1  0
 17  3  1  0
 18 15  1  0
 18 17  1  0
 19 21  1  0
 19 17  1  0
 20 19  1  0
 20 51  1  0
 20 16  1  0
 21 18  1  0
 22 25  1  0
 22 47  1  0
 23 22  2  0
 24 23  1  0
 24 26  2  0
 25 11  1  0
 26 25  1  0
 27 28  1  0
 27 24  1  0
 29 28  2  0
 30 29  1  0
 31 30  2  0
 31 32  1  0
 32 27  2  0
 33 34  1  0
 33 30  1  0
 34 35  1  0
 35 36  2  0
 37 41  1  0
 37 36  1  0
 38 37  2  0
 39 38  1  0
 39 34  2  0
 40 39  1  0
 42 43  1  0
 42 23  1  0
 43 45  1  0
 44 42  2  0
 46 43  1  0
 47 49  1  0
 48 47  1  0
 50 51  1  0
 51 52  1  0
 51 53  1  0
 54 56  1  0
 54  1  1  0
 55 56  1  0
 56 57  1  0
 57 58  1  0
 58 63  1  0
 59 61  1  0
 59 58  1  0
 59 62  1  0
 60 59  1  0
 63 64  1  0
 65 75  1  0
 66 72  1  0
 66 64  1  0
 67 77  1  0
 67 74  1  0
 68 73  1  0
 69 70  1  0
 70 68  2  0
 70 71  1  0
 71 66  2  0
 73 72  2  0
 74 68  1  0
 75 67  1  0
 75 69  1  0
 76 65  2  0
 78 77  1  0
 78 80  1  0
 79 77  2  0
 81 85  1  0
 82 83  1  0
 82 78  1  0
 83 84  1  0
 85 84  1  0
 86 82  1  0
 86 81  2  0
 87 86  1  0
 88 87  2  0
 88 89  1  0
 89 90  2  0
 90 81  1  0
 91 65  1  0
 92 94  1  1
 92 91  1  0
 93 92  1  0
 95 92  1  0
 96 91  1  0
 96 97  1  0
 97 98  2  0
 99 96  1  0
101103  1  0
101 97  1  0
101100  1  0
102103  1  0
104103  1  0
M  ISO  4   7 100  21 100  63 101  64 101
M  END
>  <TORSDO>  (4) 
F 25

>  <SCORE>  (4) 
2.694

>  <name>  (4) 
3

>  <ligand_id>  (4) 
3

>  <original_smiles>  (4) 
[H]c1c([H])c([H])c2c(c1[H])C([H])([H])C([H])([H])C([H])([H])C2([H])N([H])C(=O)C1([H])N(C(=O)C([H])(N([H])C(=O)C([H])(N([H])C([H])([H])[H])C([H])([H])[H])C(C([H])([H])[H])(C([H])([H])[H])C([H])([H])[H])C([H])([H])c2c([H])c(OC([H])([H])C([H])(C([H])([H])N(C([H])([H])[H])C([H])([H])C([H])([H])C([H])([H])N([H])C(=O)C3([H])C4([H])N(C(=O)N5C([H])([H])C([H])([H])C([H])([H])C([H])(n6nc(-c7c([H])c([H])c(Oc8c([H])c([H])c(F)c([H])c8F)c([H])c7[H])c(C(=O)N([H])[H])c6N([H])[H])C5([H])[H])C3([H])C([H])([N+]([H])([H])C([H])([H])[H])C([H])([H])C4([H])[H])[N+]([H])([H])[H])c([H])c([H])c2C1([H])[H]

>  <smiles>  (4) 
[H]c1c([H])c([H])c2c(c1[H])C([H])([H])C([H])([H])C([H])([H])C2([H])N([H])C(=O)C1([H])N(C(=O)C([H])(N([H])C(=O)C([H])(N([H])C([H])([H])[H])C([H])([H])[H])C(C([H])([H])[H])(C([H])([H])[H])C([H])([H])[H])C([H])([H])c2c([H])c(OC([H])([H])C([H])(C([H])([H])N(C([H])([H])[H])C([H])([H])C([H])([H])C([H])([H])N([H])C(=O)C3([H])C4([H])N(C(=O)N5C([H])([H])C([H])([H])C([H])([H])C([H])(n6nc(-c7c([H])c([H])c(Oc8c([H])c([H])c(F)c([H])c8F)c([H])c7[H])c(C(=O)N([H])[H])c6N([H])[H])C5([H])[H])C3([H])C([H])([N+]([H])([H])C([H])([H])[H])C([H])([H])C4([H])[H])[N+]([H])([H])[H])c([H])c([H])c2C1([H])[H]

$$$$
4:0:0
     RDKit          3D

 99108  0  0  1  0  0  0  0  0999 V2000
  -30.6660  -14.4590   20.6770 C   0  0  0  0  0  0  0  0  0  0  0  0
  -30.4290  -12.3220   19.4290 C   0  0  0  0  0  2  0  0  0  0  0  0
  -29.4920  -12.5190   18.2150 C   0  0  0  0  0  2  0  0  0  0  0  0
  -28.0050  -12.3870   18.6100 C   0  0  0  0  0  2  0  0  0  0  0  0
  -27.6640  -13.1730   19.9030 C   0  0  0  0  0  3  0  0  0  0  0  0
  -28.7010  -12.8220   20.9900 C   0  0  0  0  0  2  0  0  0  0  0  0
  -30.0120  -13.2640   20.4950 N   0  0  0  0  0  0  0  0  0  0  0  0
  -31.7570  -14.6550   20.1260 O   0  0  0  0  0  0  0  0  0  0  0  0
  -27.7150  -17.9030   22.0060 C   0  0  0  0  0  0  0  0  0  0  0  0
  -28.8840  -15.5560   22.2160 C   0  0  0  0  0  2  0  0  0  0  0  0
  -30.5590  -16.8870   21.2060 C   0  0  0  0  0  2  0  0  0  0  0  0
  -28.7200  -16.9960   22.7310 C   0  0  0  0  0  3  0  0  0  0  0  0
  -29.6220  -19.1780   22.2230 C   0  0  0  0  0  3  0  0  0  0  0  0
  -30.0260  -17.6900   22.4180 C   0  0  0  0  0  3  0  0  0  0  0  0
  -28.2540  -19.0960   21.6990 N   0  0  0  0  0  0  0  0  0  0  0  0
  -30.0370  -15.5120   21.3050 N   0  0  0  0  0  0  0  0  0  0  0  0
  -26.5390  -17.5910   21.8310 O   0  0  0  0  0  0  0  0  0  0  0  0
  -25.2530  -13.8030   20.5560 C   0  0  0  0  0  0  0  0  0  0  0  0
  -24.1760  -13.0390   20.9140 C   0  0  0  0  0  0  0  0  0  0  0  0
  -24.6280  -11.6860   20.8740 C   0  0  0  0  0  0  0  0  0  0  0  0
  -26.2970  -12.9150   20.3440 N   0  0  0  0  0  0  0  0  0  0  0  0
  -25.9190  -11.6370   20.5780 N   0  0  0  0  0  0  0  0  0  0  0  0
  -23.8960  -10.4280   21.0460 C   0  0  0  0  0  0  0  0  0  0  0  0
  -24.3550   -9.4200   21.9210 C   0  0  0  0  0  3  0  0  0  0  0  0
  -23.6260   -8.2220   22.0740 C   0  0  0  0  0  3  0  0  0  0  0  0
  -22.4250   -8.0240   21.3540 C   0  0  0  0  0  0  0  0  0  0  0  0
  -21.9870   -9.0200   20.4640 C   0  0  0  0  0  3  0  0  0  0  0  0
  -22.7160  -10.2110   20.3080 C   0  0  0  0  0  3  0  0  0  0  0  0
  -21.6640   -6.8820   21.4230 O   0  0  0  0  0  0  0  0  0  0  0  0
  -21.6840   -6.0720   22.5300 C   0  0  0  0  0  0  0  0  0  0  0  0
  -21.4010   -6.5630   23.8230 C   0  0  0  0  0  3  0  0  0  0  0  0
  -21.3660   -5.6790   24.9190 C   0  0  0  0  0  3  0  0  0  0  0  0
  -21.6060   -4.3050   24.7250 C   0  0  0  0  0  0  0  0  0  0  0  0
  -21.8820   -3.8140   23.4360 C   0  0  0  0  0  3  0  0  0  0  0  0
  -21.9190   -4.6950   22.3420 C   0  0  0  0  0  0  0  0  0  0  0  0
  -22.1670   -4.2130   21.1000 F   0  0  0  0  0  0  0  0  0  0  0  0
  -21.5630   -3.4530   25.7760 F   0  0  0  0  0  0  0  0  0  0  0  0
  -22.7820  -13.5220   21.1900 C   0  0  0  0  0  0  0  0  0  0  0  0
  -22.0460  -12.8190   22.0460 N   0  0  0  0  0  0  0  0  0  0  0  0
  -22.3530  -14.5570   20.6800 O   0  0  0  0  0  0  0  0  0  0  0  0
  -22.4000  -11.9790   22.4790 H   0  0  0  0  0  0  0  0  0  0  0  0
  -21.1100  -13.1260   22.2730 H   0  0  0  0  0  0  0  0  0  0  0  0
  -25.4240  -15.1710   20.3750 N   0  0  0  0  0  0  0  0  0  0  0  0
  -24.6910  -15.8330   20.6010 H   0  0  0  0  0  0  0  0  0  0  0  0
  -26.3100  -15.6230   20.1890 H   0  0  0  0  0  0  0  0  0  0  0  0
  -30.5810  -19.9830   21.3340 C   0  0  0  0  0  0  0  0  0  0  0  0
  -31.2710  -20.9550   21.9270 N   0  0  0  0  0  0  0  0  0  0  0  0
  -30.6670  -19.7920   20.1250 O   0  0  0  0  0  0  0  0  0  0  0  0
  -31.1700  -21.1200   22.9170 H   0  0  0  0  0  0  0  0  0  0  0  0
  -31.8530  -21.5820   21.3900 H   0  0  0  0  0  0  0  0  0  0  0  0
  -27.4740  -20.3140   21.4040 C   0  0  0  0  0  2  0  0  0  0  0  0
  -27.3130  -20.6400   19.8990 C   0  0  0  0  0  2  0  0  0  0  0  0
  -27.3870  -23.1460   19.6630 C   0  0  0  0  0  0  0  0  0  0  0  0
  -27.9490  -21.9280   19.5860 N   0  0  0  0  0  0  0  0  0  0  0  0
  -26.1840  -23.3040   19.8780 O   0  0  0  0  0  0  0  0  0  0  0  0
  -28.9360  -21.8960   19.3630 H   0  0  0  0  0  0  0  0  0  0  0  0
  -28.2970  -24.3690   19.4420 C   0  0  0  0  0  2  0  0  0  0  0  0
  -28.2560  -25.4040   20.5900 C   0  0  0  0  0  2  0  0  0  0  0  0
  -28.3970  -26.7440   20.1090 O   0  0  0  0  0  0  0  0  0  0  0  0
  -24.6120  -31.8760   23.2130 C   0  0  0  0  0  0  0  0  0  0  0  0
  -27.2310  -27.4740   20.0880 C   0  0  0  0  0  0  0  0  0  0  0  0
  -23.3980  -30.5030   21.5430 C   0  0  0  0  0  3  0  0  0  0  0  0
  -24.8430  -28.9730   20.1160 C   0  0  0  0  0  0  0  0  0  0  0  0
  -25.9210  -30.8560   21.3590 C   0  0  0  0  0  2  0  0  0  0  0  0
  -26.0030  -29.4950   20.7040 C   0  0  0  0  0  0  0  0  0  0  0  0
  -27.2070  -28.7560   20.6760 C   0  0  0  0  0  3  0  0  0  0  0  0
  -26.0520  -26.9590   19.5040 C   0  0  0  0  0  3  0  0  0  0  0  0
  -24.8630  -27.7030   19.5140 C   0  0  0  0  0  3  0  0  0  0  0  0
  -23.6070  -29.8370   20.1590 C   0  0  0  0  0  2  0  0  0  0  0  0
  -24.6590  -31.0920   22.0980 N   0  0  0  0  0  0  0  0  0  0  0  0
  -23.5330  -32.1440   23.7570 O   0  0  0  0  0  0  0  0  0  0  0  0
  -22.7390  -29.4760   22.4930 C   0  0  0  0  0  0  0  0  0  0  0  0
  -21.4140  -29.3040   22.3560 N   0  0  0  0  0  0  0  0  0  0  0  0
  -23.4140  -28.8380   23.3080 O   0  0  0  0  0  0  0  0  0  0  0  0
  -20.9390  -29.8290   21.6370 H   0  0  0  0  0  0  0  0  0  0  0  0
  -18.0240  -28.1570   22.8500 C   0  0  0  0  0  0  0  0  0  0  0  0
  -20.5870  -28.3780   23.1310 C   0  0  0  0  0  3  0  0  0  0  0  0
  -20.6720  -26.9420   22.5650 C   0  0  0  0  0  2  0  0  0  0  0  0
  -19.5730  -26.6230   21.5480 C   0  0  0  0  0  2  0  0  0  0  0  0
  -18.1880  -26.7970   22.1850 C   0  0  0  0  0  2  0  0  0  0  0  0
  -19.1520  -28.8960   23.2920 C   0  0  0  0  0  0  0  0  0  0  0  0
  -18.9510  -30.1540   23.8970 C   0  0  0  0  0  3  0  0  0  0  0  0
  -17.6570  -30.6770   24.0590 C   0  0  0  0  0  3  0  0  0  0  0  0
  -16.5390  -29.9400   23.6330 C   0  0  0  0  0  3  0  0  0  0  0  0
  -16.7260  -28.6760   23.0390 C   0  0  0  0  0  3  0  0  0  0  0  0
  -25.9040  -32.4830   23.8420 C   0  0  0  0  0  3  0  0  0  0  0  0
  -25.5910  -33.8630   24.2340 N   0  0  0  0  0  0  0  0  0  0  0  0
  -25.9030  -34.9490   23.5120 C   0  0  0  0  0  0  0  0  0  0  0  0
  -26.5570  -34.8940   22.4670 O   0  0  0  0  0  0  0  0  0  0  0  0
  -25.0070  -33.9770   25.0470 H   0  0  0  0  0  0  0  0  0  0  0  0
  -24.1480  -36.7330   23.2650 C   0  0  0  0  0  1  0  0  0  0  0  0
  -25.4100  -36.3110   24.0350 C   0  0  0  0  0  3  0  0  0  0  0  0
  -27.5560  -37.1820   24.8460 C   0  0  0  0  0  1  0  0  0  0  0  0
  -26.4280  -37.3800   23.9390 N   0  0  0  0  0  0  0  0  0  0  0  0
  -26.0180  -38.2860   24.1420 H   0  0  0  0  0  0  0  0  0  0  0  0
  -26.4480  -31.6600   25.0740 C   0  0  1  0  0  0  0  0  0  0  0  0
  -25.3780  -31.3720   26.1530 C   0  0  0  0  0  1  0  0  0  0  0  0
  -27.0310  -30.3040   24.6070 C   0  0  0  0  0  1  0  0  0  0  0  0
  -27.6050  -32.4280   25.7500 C   0  0  0  0  0  1  0  0  0  0  0  0
  1 16  1  0
  2  7  1  0
  3  4  1  0
  3  2  1  0
  5  4  1  0
  5 21  1  0
  5  6  1  0
  7  1  1  0
  7  6  1  0
  8  1  2  0
  9 12  1  0
 11 16  1  0
 12 10  1  0
 13 46  1  0
 13 14  1  0
 14 11  1  0
 14 12  1  0
 15  9  1  0
 15 13  1  0
 16 10  1  0
 17  9  2  0
 18 19  2  0
 19 38  1  0
 20 19  1  0
 20 23  1  0
 21 18  1  0
 21 22  1  0
 22 20  2  0
 23 24  1  0
 24 25  2  0
 26 29  1  0
 26 25  1  0
 27 26  2  0
 28 27  1  0
 28 23  2  0
 29 30  1  0
 30 31  1  0
 31 32  2  0
 33 32  1  0
 33 37  1  0
 34 33  2  0
 35 30  2  0
 35 34  1  0
 36 35  1  0
 38 39  1  0
 39 42  1  0
 39 41  1  0
 40 38  2  0
 43 18  1  0
 43 44  1  0
 45 43  1  0
 46 47  1  0
 47 49  1  0
 48 46  2  0
 50 47  1  0
 51 15  1  0
 52 51  1  0
 53 55  2  0
 54 53  1  0
 54 52  1  0
 56 54  1  0
 57 53  1  0
 57 58  1  0
 59 58  1  0
 60 71  2  0
 61 59  1  0
 61 66  1  0
 62 70  1  0
 62 72  1  0
 63 69  1  0
 63 65  1  0
 64 70  1  0
 65 64  1  0
 66 65  2  0
 67 68  1  0
 67 61  2  0
 68 63  2  0
 69 62  1  0
 70 60  1  0
 72 74  2  0
 73 72  1  0
 75 73  1  0
 76 85  2  0
 76 81  1  0
 77 73  1  0
 77 81  1  0
 78 77  1  0
 79 80  1  0
 79 78  1  0
 80 76  1  0
 81 82  2  0
 82 83  1  0
 84 83  2  0
 85 84  1  0
 86 60  1  0
 86 87  1  0
 86 96  1  0
 87 90  1  0
 88 92  1  0
 88 87  1  0
 89 88  2  0
 92 91  1  0
 94 92  1  0
 94 95  1  0
 94 93  1  0
 96 99  1  1
 96 97  1  0
 98 96  1  0
M  ISO  4   1 100  16 100  58 101  59 101
M  END
>  <TORSDO>  (5) 
F 21

>  <SCORE>  (5) 
3.388

>  <name>  (5) 
4

>  <ligand_id>  (5) 
4

>  <original_smiles>  (5) 
[H]c1c([H])c([H])c2c(c1[H])C([H])([H])C([H])([H])C([H])([H])C2([H])N([H])C(=O)C1([H])N(C(=O)C([H])(N([H])C(=O)C([H])(N([H])C([H])([H])[H])C([H])([H])[H])C(C([H])([H])[H])(C([H])([H])[H])C([H])([H])[H])C([H])([H])c2c([H])c(OC([H])([H])C([H])([H])C(=O)N([H])C([H])([H])C([H])([H])N3C(=O)C4([H])C([H])([H])N(C(=O)N5C([H])([H])C([H])([H])C([H])([H])C([H])(n6nc(-c7c([H])c([H])c(Oc8c([H])c([H])c(F)c([H])c8F)c([H])c7[H])c(C(=O)N([H])[H])c6N([H])[H])C5([H])[H])C([H])([H])C4([H])C3([H])C(=O)N([H])[H])c([H])c([H])c2C1([H])[H]

>  <smiles>  (5) 
[H]c1c([H])c([H])c2c(c1[H])C([H])([H])C([H])([H])C([H])([H])C2([H])N([H])C(=O)C1([H])N(C(=O)C([H])(N([H])C(=O)C([H])(N([H])C([H])([H])[H])C([H])([H])[H])C(C([H])([H])[H])(C([H])([H])[H])C([H])([H])[H])C([H])([H])c2c([H])c(OC([H])([H])C([H])([H])C(=O)N([H])C([H])([H])C([H])([H])N3C(=O)C4([H])C([H])([H])N(C(=O)N5C([H])([H])C([H])([H])C([H])([H])C([H])(n6nc(-c7c([H])c([H])c(Oc8c([H])c([H])c(F)c([H])c8F)c([H])c7[H])c(C(=O)N([H])[H])c6N([H])[H])C5([H])[H])C([H])([H])C4([H])C3([H])C(=O)N([H])[H])c([H])c([H])c2C1([H])[H]

$$$$
5:0:0
     RDKit          3D

 98108  0  0  1  0  0  0  0  0999 V2000
  -26.5110  -20.5960   19.9010 C   0  0  0  0  0  2  0  0  0  0  0  0
  -27.9200  -21.0850   19.6670 C   0  0  0  0  0  3  0  0  0  0  0  0
  -27.3840  -19.9270   18.8610 C   0  0  0  0  0  3  0  0  0  0  0  0
  -28.1790  -22.4210   19.0070 C   0  0  0  0  0  2  0  0  0  0  0  0
  -28.9570  -24.6420   19.7570 C   0  0  0  0  0  0  0  0  0  0  0  0
  -28.2780  -23.5130   19.9590 N   0  0  0  0  0  0  0  0  0  0  0  0
  -29.5920  -24.8640   18.7220 O   0  0  0  0  0  0  0  0  0  0  0  0
  -27.7800  -23.4160   20.8360 H   0  0  0  0  0  0  0  0  0  0  0  0
  -28.8910  -25.6760   20.8790 C   0  0  0  0  0  2  0  0  0  0  0  0
  -28.8640  -26.9850   20.3240 O   0  0  0  0  0  0  0  0  0  0  0  0
  -24.7500  -31.8790   23.3250 C   0  0  0  0  0  0  0  0  0  0  0  0
  -27.6380  -27.5980   20.3010 C   0  0  0  0  0  0  0  0  0  0  0  0
  -23.6280  -30.4350   21.6540 C   0  0  0  0  0  3  0  0  0  0  0  0
  -25.1700  -28.9590   20.2620 C   0  0  0  0  0  0  0  0  0  0  0  0
  -26.1330  -30.9100   21.4990 C   0  0  0  0  0  2  0  0  0  0  0  0
  -26.2890  -29.5490   20.8650 C   0  0  0  0  0  0  0  0  0  0  0  0
  -27.5250  -28.8750   20.8770 C   0  0  0  0  0  3  0  0  0  0  0  0
  -26.5040  -27.0040   19.7020 C   0  0  0  0  0  3  0  0  0  0  0  0
  -25.2690  -27.6810   19.6810 C   0  0  0  0  0  3  0  0  0  0  0  0
  -23.8900  -29.7610   20.2810 C   0  0  0  0  0  2  0  0  0  0  0  0
  -24.8540  -31.0890   22.2200 N   0  0  0  0  0  0  0  0  0  0  0  0
  -23.6490  -32.1090   23.8470 O   0  0  0  0  0  0  0  0  0  0  0  0
  -23.0010  -29.3880   22.6030 C   0  0  0  0  0  0  0  0  0  0  0  0
  -21.7030  -29.1100   22.4070 N   0  0  0  0  0  0  0  0  0  0  0  0
  -23.6810  -28.8270   23.4660 O   0  0  0  0  0  0  0  0  0  0  0  0
  -21.2170  -29.6200   21.6820 H   0  0  0  0  0  0  0  0  0  0  0  0
  -18.4030  -27.6780   22.7180 C   0  0  0  0  0  0  0  0  0  0  0  0
  -20.9100  -28.1340   23.1490 C   0  0  0  0  0  3  0  0  0  0  0  0
  -21.1580  -26.7010   22.6220 C   0  0  0  0  0  2  0  0  0  0  0  0
  -20.1540  -26.2730   21.5460 C   0  0  0  0  0  2  0  0  0  0  0  0
  -18.7240  -26.3300   22.0940 C   0  0  0  0  0  2  0  0  0  0  0  0
  -19.4300  -28.5310   23.1980 C   0  0  0  0  0  0  0  0  0  0  0  0
  -19.0810  -29.7880   23.7360 C   0  0  0  0  0  3  0  0  0  0  0  0
  -17.7360  -30.1970   23.7980 C   0  0  0  0  0  3  0  0  0  0  0  0
  -16.7220  -29.3410   23.3360 C   0  0  0  0  0  3  0  0  0  0  0  0
  -17.0540  -28.0840   22.8020 C   0  0  0  0  0  3  0  0  0  0  0  0
  -26.0010  -32.5530   23.9690 C   0  0  0  0  0  3  0  0  0  0  0  0
  -25.6490  -33.9470   24.2660 N   0  0  0  0  0  0  0  0  0  0  0  0
  -25.9720  -34.9930   23.4910 C   0  0  0  0  0  0  0  0  0  0  0  0
  -26.6710  -34.8870   22.4800 O   0  0  0  0  0  0  0  0  0  0  0  0
  -25.0290  -34.1010   25.0470 H   0  0  0  0  0  0  0  0  0  0  0  0
  -24.2020  -36.7250   23.0600 C   0  0  0  0  0  1  0  0  0  0  0  0
  -25.4370  -36.3760   23.9060 C   0  0  0  0  0  3  0  0  0  0  0  0
  -27.5320  -37.3380   24.7500 C   0  0  0  0  0  1  0  0  0  0  0  0
  -26.4410  -37.4540   23.7860 N   0  0  0  0  0  0  0  0  0  0  0  0
  -26.0070  -38.3650   23.9060 H   0  0  0  0  0  0  0  0  0  0  0  0
  -26.5070  -31.8130   25.2690 C   0  0  1  0  0  0  0  0  0  0  0  0
  -25.3820  -31.5000   26.2810 C   0  0  0  0  0  1  0  0  0  0  0  0
  -27.1980  -30.4790   24.9010 C   0  0  0  0  0  1  0  0  0  0  0  0
  -27.5670  -32.6800   25.9880 C   0  0  0  0  0  1  0  0  0  0  0  0
  -27.9450  -18.5330   19.0840 C   0  0  0  0  0  2  0  0  0  0  0  0
  -29.3990  -18.4500   18.7770 N   0  0  1  0  0  4  0  0  0  0  0  0
  -29.8430  -18.9310   19.5440 H   0  0  0  0  0  0  0  0  0  0  0  0
  -31.3170  -14.2470   20.7750 C   0  0  0  0  0  0  0  0  0  0  0  0
  -30.8040  -12.2330   19.5220 C   0  0  0  0  0  2  0  0  0  0  0  0
  -29.9420  -12.6240   18.3010 C   0  0  0  0  0  2  0  0  0  0  0  0
  -28.4510  -12.5840   18.6700 C   0  0  0  0  0  2  0  0  0  0  0  0
  -28.1210  -13.3550   19.9710 C   0  0  0  0  0  3  0  0  0  0  0  0
  -29.1230  -13.0410   21.1080 C   0  0  0  0  0  2  0  0  0  0  0  0
  -30.4870  -13.1920   20.5830 N   0  0  0  0  0  0  0  0  0  0  0  0
  -32.5210  -14.1000   20.9540 O   0  0  0  0  0  0  0  0  0  0  0  0
  -31.4300  -17.0170   18.3310 C   0  0  0  0  0  2  0  0  0  0  0  0
  -31.9320  -15.6750   18.8610 C   0  0  0  0  0  2  0  0  0  0  0  0
  -30.0850  -16.3770   20.1840 C   0  0  0  0  0  2  0  0  0  0  0  0
  -29.9820  -17.0710   18.8090 C   0  0  0  0  0  3  0  0  0  0  0  0
  -31.0080  -15.2670   19.9380 N   0  0  0  0  0  0  0  0  0  0  0  0
  -25.7210  -14.0790   20.5420 C   0  0  0  0  0  0  0  0  0  0  0  0
  -24.5950  -13.3570   20.8290 C   0  0  0  0  0  0  0  0  0  0  0  0
  -24.9990  -11.9870   20.8440 C   0  0  0  0  0  0  0  0  0  0  0  0
  -26.7370  -13.1500   20.3850 N   0  0  0  0  0  0  0  0  0  0  0  0
  -26.3050  -11.8900   20.6360 N   0  0  0  0  0  0  0  0  0  0  0  0
  -24.2110  -10.7570   20.9770 C   0  0  0  0  0  0  0  0  0  0  0  0
  -24.5690   -9.7470   21.8970 C   0  0  0  0  0  3  0  0  0  0  0  0
  -23.7820   -8.5810   22.0170 C   0  0  0  0  0  3  0  0  0  0  0  0
  -22.6260   -8.4180   21.2180 C   0  0  0  0  0  0  0  0  0  0  0  0
  -22.2910   -9.4160   20.2860 C   0  0  0  0  0  3  0  0  0  0  0  0
  -23.0760  -10.5730   20.1630 C   0  0  0  0  0  3  0  0  0  0  0  0
  -21.8160   -7.3100   21.2530 O   0  0  0  0  0  0  0  0  0  0  0  0
  -21.7080   -6.5350   22.3800 C   0  0  0  0  0  0  0  0  0  0  0  0
  -21.3280   -7.0800   23.6260 C   0  0  0  0  0  3  0  0  0  0  0  0
  -21.1560   -6.2340   24.7410 C   0  0  0  0  0  3  0  0  0  0  0  0
  -21.3570   -4.8460   24.6120 C   0  0  0  0  0  0  0  0  0  0  0  0
  -21.7310   -4.3020   23.3710 C   0  0  0  0  0  3  0  0  0  0  0  0
  -21.9040   -5.1450   22.2590 C   0  0  0  0  0  0  0  0  0  0  0  0
  -22.2440   -4.6130   21.0600 F   0  0  0  0  0  0  0  0  0  0  0  0
  -21.1860   -4.0330   25.6810 F   0  0  0  0  0  0  0  0  0  0  0  0
  -23.2010  -13.8920   20.9850 C   0  0  0  0  0  0  0  0  0  0  0  0
  -22.3860  -13.2490   21.8150 N   0  0  0  0  0  0  0  0  0  0  0  0
  -22.8420  -14.9180   20.4050 O   0  0  0  0  0  0  0  0  0  0  0  0
  -22.6870  -12.4170   22.3030 H   0  0  0  0  0  0  0  0  0  0  0  0
  -21.4470  -13.5920   21.9630 H   0  0  0  0  0  0  0  0  0  0  0  0
  -25.9610  -15.4410   20.3810 N   0  0  0  0  0  0  0  0  0  0  0  0
  -25.2340  -16.1380   20.5040 H   0  0  0  0  0  0  0  0  0  0  0  0
  -26.8750  -15.8370   20.2300 H   0  0  0  0  0  0  0  0  0  0  0  0
  -29.8040  -19.2240   17.5620 C   0  0  0  0  0  2  0  0  0  0  0  0
  -28.3340  -19.8690   15.4500 C   0  0  0  0  0  2  0  0  0  0  0  0
  -29.6170  -19.2750   14.9400 C   0  0  0  0  0  2  0  0  0  0  0  0
  -29.0670  -18.8330   16.2810 C   0  0  0  0  0  3  0  0  0  0  0  0
  2  4  1  0
  2  1  1  0
  3 51  1  0
  3  2  1  0
  3  1  1  0
  4  6  1  0
  5  6  1  0
  5  9  1  0
  6  8  1  0
  7  5  2  0
 10  9  1  0
 11 22  2  0
 12 10  1  0
 12 17  1  0
 13 21  1  0
 13 23  1  0
 14 20  1  0
 14 16  1  0
 15 21  1  0
 16 17  2  0
 16 15  1  0
 18 12  2  0
 19 18  1  0
 19 14  2  0
 20 13  1  0
 21 11  1  0
 23 25  2  0
 24 23  1  0
 26 24  1  0
 27 36  2  0
 27 32  1  0
 28 24  1  0
 28 32  1  0
 29 28  1  0
 30 31  1  0
 30 29  1  0
 31 27  1  0
 32 33  2  0
 33 34  1  0
 35 34  2  0
 36 35  1  0
 37 11  1  0
 37 38  1  0
 37 47  1  0
 38 41  1  0
 39 43  1  0
 39 38  1  0
 40 39  2  0
 43 42  1  0
 45 46  1  0
 45 43  1  0
 45 44  1  0
 47 50  1  1
 47 48  1  0
 49 47  1  0
 52 51  1  0
 52 53  1  1
 54 61  2  0
 55 60  1  0
 56 57  1  0
 56 55  1  0
 58 57  1  0
 58 70  1  0
 58 59  1  0
 60 54  1  0
 60 59  1  0
 62 65  1  0
 62 63  1  0
 63 66  1  0
 65 52  1  0
 65 64  1  0
 66 64  1  0
 66 54  1  0
 67 68  2  0
 68 69  1  0
 68 87  1  0
 69 72  1  0
 70 67  1  0
 70 71  1  0
 71 69  2  0
 72 73  1  0
 73 74  2  0
 75 78  1  0
 75 74  1  0
 76 75  2  0
 77 76  1  0
 77 72  2  0
 78 79  1  0
 79 80  1  0
 80 81  2  0
 82 81  1  0
 82 86  1  0
 83 82  2  0
 84 79  2  0
 84 83  1  0
 85 84  1  0
 87 88  1  0
 88 91  1  0
 88 90  1  0
 89 87  2  0
 92 93  1  0
 92 67  1  0
 94 92  1  0
 95 52  1  0
 96 98  1  0
 97 96  1  0
 97 98  1  0
 98 95  1  0
M  ISO  4   9 101  10 101  54 100  66 100
M  END
>  <TORSDO>  (6) 
F 23

>  <SCORE>  (6) 
-11.236

>  <name>  (6) 
5

>  <ligand_id>  (6) 
5

>  <original_smiles>  (6) 
[H]c1c([H])c([H])c2c(c1[H])C([H])([H])C([H])([H])C([H])([H])C2([H])N([H])C(=O)C1([H])N(C(=O)C([H])(N([H])C(=O)C([H])(N([H])C([H])([H])[H])C([H])([H])[H])C(C([H])([H])[H])(C([H])([H])[H])C([H])([H])[H])C([H])([H])c2c([H])c(OC([H])([H])C(=O)N([H])C([H])([H])C3([H])C([H])([H])C3([H])C([H])([H])[N+]([H])(C([H])([H])C3([H])C([H])([H])C3([H])[H])C3([H])C([H])([H])N(C(=O)N4C([H])([H])C([H])([H])C([H])([H])C([H])(n5nc(-c6c([H])c([H])c(Oc7c([H])c([H])c(F)c([H])c7F)c([H])c6[H])c(C(=O)N([H])[H])c5N([H])[H])C4([H])[H])C([H])([H])C3([H])[H])c([H])c([H])c2C1([H])[H]

>  <smiles>  (6) 
[H]c1c([H])c([H])c2c(c1[H])C([H])([H])C([H])([H])C([H])([H])C2([H])N([H])C(=O)C1([H])N(C(=O)C([H])(N([H])C(=O)C([H])(N([H])C([H])([H])[H])C([H])([H])[H])C(C([H])([H])[H])(C([H])([H])[H])C([H])([H])[H])C([H])([H])c2c([H])c(OC([H])([H])C(=O)N([H])C([H])([H])C3([H])C([H])([H])C3([H])C([H])([H])[N+]([H])(C([H])([H])C3([H])C([H])([H])C3([H])[H])C3([H])C([H])([H])N(C(=O)N4C([H])([H])C([H])([H])C([H])([H])C([H])(n5nc(-c6c([H])c([H])c(Oc7c([H])c([H])c(F)c([H])c7F)c([H])c6[H])c(C(=O)N([H])[H])c5N([H])[H])C4([H])[H])C([H])([H])C3([H])[H])c([H])c([H])c2C1([H])[H]

$$$$
6:0:0
     RDKit          3D

 97106  0  0  1  0  0  0  0  0999 V2000
  -29.3650  -20.6070   20.2660 C   0  0  0  0  0  2  0  0  0  0  0  0
  -31.1770  -21.4240   21.7920 C   0  0  0  0  0  2  0  0  0  0  0  0
  -29.3400  -22.0020   19.6030 C   0  0  0  0  0  2  0  0  0  0  0  0
  -31.1330  -22.7820   21.0700 C   0  0  0  0  0  2  0  0  0  0  0  0
  -30.7400  -20.2510   20.8820 C   0  0  0  0  0  3  0  0  0  0  0  0
  -29.7780  -23.0710   20.5390 N   0  0  1  0  0  4  0  0  0  0  0  0
  -29.1560  -23.0460   21.3330 H   0  0  0  0  0  0  0  0  0  0  0  0
  -31.8090  -17.4320   23.3050 C   0  0  0  0  0  3  0  0  0  0  0  0
  -31.7200  -18.6720   22.6480 C   0  0  0  0  0  3  0  0  0  0  0  0
  -31.0010  -16.3590   22.8950 C   0  0  0  0  0  3  0  0  0  0  0  0
  -29.9790  -17.7900   21.1960 C   0  0  0  0  0  3  0  0  0  0  0  0
  -30.7910  -18.8830   21.5980 C   0  0  0  0  0  0  0  0  0  0  0  0
  -30.1080  -16.5270   21.8190 C   0  0  0  0  0  0  0  0  0  0  0  0
  -29.8370  -14.6760   20.2900 C   0  0  0  0  0  0  0  0  0  0  0  0
  -29.5660  -12.6550   18.9070 C   0  0  0  0  0  2  0  0  0  0  0  0
  -28.5000  -12.8660   17.8180 C   0  0  0  0  0  2  0  0  0  0  0  0
  -27.0970  -12.5340   18.3590 C   0  0  0  0  0  2  0  0  0  0  0  0
  -26.8020  -13.2180   19.7200 C   0  0  0  0  0  3  0  0  0  0  0  0
  -27.9720  -13.0170   20.7100 C   0  0  0  0  0  2  0  0  0  0  0  0
  -29.2100  -13.4920   20.0650 N   0  0  0  0  0  0  0  0  0  0  0  0
  -30.7670  -15.0810   19.5840 O   0  0  0  0  0  0  0  0  0  0  0  0
  -29.3980  -15.4010   21.3310 N   0  0  0  0  0  0  0  0  0  0  0  0
  -28.6070  -15.0620   21.8560 H   0  0  0  0  0  0  0  0  0  0  0  0
  -24.3940  -13.4830   20.5940 C   0  0  0  0  0  0  0  0  0  0  0  0
  -23.4670  -12.5680   21.0140 C   0  0  0  0  0  0  0  0  0  0  0  0
  -24.1030  -11.2920   20.9240 C   0  0  0  0  0  0  0  0  0  0  0  0
  -25.5320  -12.7560   20.2790 N   0  0  0  0  0  0  0  0  0  0  0  0
  -25.3620  -11.4320   20.5300 N   0  0  0  0  0  0  0  0  0  0  0  0
  -23.5680   -9.9410   21.1360 C   0  0  0  0  0  0  0  0  0  0  0  0
  -24.0720   -9.0980   22.1520 C   0  0  0  0  0  3  0  0  0  0  0  0
  -23.5300   -7.8100   22.3480 C   0  0  0  0  0  3  0  0  0  0  0  0
  -22.4710   -7.3530   21.5280 C   0  0  0  0  0  0  0  0  0  0  0  0
  -21.9890   -8.1860   20.5040 C   0  0  0  0  0  3  0  0  0  0  0  0
  -22.5330   -9.4660   20.3060 C   0  0  0  0  0  3  0  0  0  0  0  0
  -21.9000   -6.1070   21.6280 O   0  0  0  0  0  0  0  0  0  0  0  0
  -21.7880   -5.4610   22.8320 C   0  0  0  0  0  0  0  0  0  0  0  0
  -21.0710   -6.0200   23.9120 C   0  0  0  0  0  3  0  0  0  0  0  0
  -20.9220   -5.2920   25.1100 C   0  0  0  0  0  3  0  0  0  0  0  0
  -21.4790   -4.0040   25.2270 C   0  0  0  0  0  0  0  0  0  0  0  0
  -22.1890   -3.4440   24.1510 C   0  0  0  0  0  3  0  0  0  0  0  0
  -22.3410   -4.1700   22.9560 C   0  0  0  0  0  0  0  0  0  0  0  0
  -23.0070   -3.6170   21.9140 F   0  0  0  0  0  0  0  0  0  0  0  0
  -21.3300   -3.3010   26.3740 F   0  0  0  0  0  0  0  0  0  0  0  0
  -22.0410  -12.8470   21.3910 C   0  0  0  0  0  0  0  0  0  0  0  0
  -21.4940  -12.0830   22.3310 N   0  0  0  0  0  0  0  0  0  0  0  0
  -21.4170  -13.7800   20.8860 O   0  0  0  0  0  0  0  0  0  0  0  0
  -22.0150  -11.3330   22.7610 H   0  0  0  0  0  0  0  0  0  0  0  0
  -20.5440  -12.2530   22.6260 H   0  0  0  0  0  0  0  0  0  0  0  0
  -24.3610  -14.8650   20.4360 N   0  0  0  0  0  0  0  0  0  0  0  0
  -23.5250  -15.4120   20.6150 H   0  0  0  0  0  0  0  0  0  0  0  0
  -25.1300  -15.4220   20.0850 H   0  0  0  0  0  0  0  0  0  0  0  0
  -29.6430  -24.4510   19.9860 C   0  0  0  0  0  2  0  0  0  0  0  0
  -29.1750  -25.3630   22.3150 C   0  0  0  0  0  1  0  0  0  0  0  0
  -27.2500  -24.8560   20.7820 C   0  0  0  0  0  1  0  0  0  0  0  0
  -28.7100  -25.3580   20.8390 C   0  0  2  0  0  0  0  0  0  0  0  0
  -28.7740  -26.8230   20.3160 C   0  0  0  0  0  2  0  0  0  0  0  0
  -27.9530  -27.0280   19.1610 O   0  0  0  0  0  0  0  0  0  0  0  0
  -24.5410  -31.8420   23.1660 C   0  0  0  0  0  0  0  0  0  0  0  0
  -26.8300  -27.8000   19.3650 C   0  0  0  0  0  0  0  0  0  0  0  0
  -23.1680  -30.6650   21.4740 C   0  0  0  0  0  3  0  0  0  0  0  0
  -24.4670  -29.2980   19.7530 C   0  0  0  0  0  0  0  0  0  0  0  0
  -25.6690  -31.0300   21.1000 C   0  0  0  0  0  2  0  0  0  0  0  0
  -25.6760  -29.7430   20.3010 C   0  0  0  0  0  0  0  0  0  0  0  0
  -26.8620  -29.0030   20.1070 C   0  0  0  0  0  3  0  0  0  0  0  0
  -25.6120  -27.3710   18.8030 C   0  0  0  0  0  3  0  0  0  0  0  0
  -24.4270  -28.1110   18.9980 C   0  0  0  0  0  3  0  0  0  0  0  0
  -23.2460  -30.1530   20.0090 C   0  0  0  0  0  2  0  0  0  0  0  0
  -24.4830  -31.1860   21.9730 N   0  0  0  0  0  0  0  0  0  0  0  0
  -23.5180  -32.0600   23.8280 O   0  0  0  0  0  0  0  0  0  0  0  0
  -22.5800  -29.5440   22.3590 C   0  0  0  0  0  0  0  0  0  0  0  0
  -21.2520  -29.3570   22.2820 N   0  0  0  0  0  0  0  0  0  0  0  0
  -23.3110  -28.8480   23.0700 O   0  0  0  0  0  0  0  0  0  0  0  0
  -20.7230  -29.9750   21.6830 H   0  0  0  0  0  0  0  0  0  0  0  0
  -17.9240  -28.0550   22.7970 C   0  0  0  0  0  0  0  0  0  0  0  0
  -20.4850  -28.3340   22.9910 C   0  0  0  0  0  3  0  0  0  0  0  0
  -20.5860  -26.9680   22.2760 C   0  0  0  0  0  2  0  0  0  0  0  0
  -19.4480  -26.7220   21.2790 C   0  0  0  0  0  2  0  0  0  0  0  0
  -18.0920  -26.7800   21.9890 C   0  0  0  0  0  2  0  0  0  0  0  0
  -19.0470  -28.7940   23.2540 C   0  0  0  0  0  0  0  0  0  0  0  0
  -18.8340  -29.9930   23.9680 C   0  0  0  0  0  3  0  0  0  0  0  0
  -17.5280  -30.4510   24.2310 C   0  0  0  0  0  3  0  0  0  0  0  0
  -16.4200  -29.7070   23.7900 C   0  0  0  0  0  3  0  0  0  0  0  0
  -16.6190  -28.5100   23.0780 C   0  0  0  0  0  3  0  0  0  0  0  0
  -25.8910  -32.3730   23.7430 C   0  0  0  0  0  3  0  0  0  0  0  0
  -26.4920  -31.4480   24.8710 C   0  0  1  0  0  0  0  0  0  0  0  0
  -25.4800  -31.0830   25.9830 C   0  0  0  0  0  1  0  0  0  0  0  0
  -27.0230  -30.1290   24.2630 C   0  0  0  0  0  1  0  0  0  0  0  0
  -27.7010  -32.1470   25.5350 C   0  0  0  0  0  1  0  0  0  0  0  0
  -25.6490  -33.7290   24.2550 N   0  0  0  0  0  0  0  0  0  0  0  0
  -25.9790  -34.8540   23.6080 C   0  0  0  0  0  0  0  0  0  0  0  0
  -26.5950  -34.8570   22.5380 O   0  0  0  0  0  0  0  0  0  0  0  0
  -25.1060  -33.8030   25.1030 H   0  0  0  0  0  0  0  0  0  0  0  0
  -24.3090  -36.7300   23.5490 C   0  0  0  0  0  1  0  0  0  0  0  0
  -25.5630  -36.1890   24.2520 C   0  0  0  0  0  3  0  0  0  0  0  0
  -27.7570  -36.9000   25.0970 C   0  0  0  0  0  1  0  0  0  0  0  0
  -26.6290  -37.2140   24.2230 N   0  0  0  0  0  0  0  0  0  0  0  0
  -26.2620  -38.1230   24.4940 H   0  0  0  0  0  0  0  0  0  0  0  0
  1  5  1  0
  3  1  1  0
  3  6  1  0
  4  2  1  0
  5 12  1  0
  5  2  1  0
  6  4  1  0
  6  7  1  1
  9  8  2  0
 10  8  1  0
 11 12  2  0
 11 13  1  0
 12  9  1  0
 13 10  2  0
 14 22  1  0
 15 20  1  0
 16 17  1  0
 16 15  1  0
 18 17  1  0
 18 27  1  0
 18 19  1  0
 20 14  1  0
 20 19  1  0
 21 14  2  0
 22 13  1  0
 22 23  1  0
 24 25  2  0
 25 44  1  0
 26 25  1  0
 26 29  1  0
 27 28  1  0
 27 24  1  0
 28 26  2  0
 29 30  1  0
 30 31  2  0
 32 35  1  0
 32 31  1  0
 33 32  2  0
 34 33  1  0
 34 29  2  0
 35 36  1  0
 36 41  2  0
 36 37  1  0
 37 38  2  0
 38 39  1  0
 39 43  1  0
 40 39  2  0
 41 40  1  0
 42 41  1  0
 44 45  1  0
 45 48  1  0
 45 47  1  0
 46 44  2  0
 49 24  1  0
 49 50  1  0
 51 49  1  0
 52  6  1  0
 52 55  1  0
 55 54  1  1
 55 53  1  0
 56 55  1  0
 57 59  1  0
 57 56  1  0
 58 69  2  0
 59 64  1  0
 60 68  1  0
 60 70  1  0
 61 67  1  0
 61 63  1  0
 62 68  1  0
 63 62  1  0
 64 63  2  0
 65 66  1  0
 65 59  2  0
 66 61  2  0
 67 60  1  0
 68 58  1  0
 70 72  2  0
 71 70  1  0
 73 71  1  0
 74 83  2  0
 74 79  1  0
 75 71  1  0
 75 79  1  0
 76 75  1  0
 77 78  1  0
 77 76  1  0
 78 74  1  0
 79 80  2  0
 80 81  1  0
 82 81  2  0
 83 82  1  0
 84 58  1  0
 84 89  1  0
 84 85  1  0
 85 88  1  1
 85 86  1  0
 87 85  1  0
 89 92  1  0
 90 94  1  0
 90 89  1  0
 91 90  2  0
 94 93  1  0
 96 94  1  0
 96 97  1  0
 96 95  1  0
M  ISO  4  14 100  22 100  56 101  57 101
M  END
>  <TORSDO>  (7) 
F 20

>  <SCORE>  (7) 
-9.233

>  <name>  (7) 
6

>  <ligand_id>  (7) 
6

>  <original_smiles>  (7) 
[H]c1c([H])c([H])c2c(c1[H])C([H])([H])C([H])([H])C([H])([H])C2([H])N([H])C(=O)C1([H])N(C(=O)C([H])(N([H])C(=O)C([H])(N([H])C([H])([H])[H])C([H])([H])[H])C(C([H])([H])[H])(C([H])([H])[H])C([H])([H])[H])C([H])([H])c2c([H])c(OC([H])([H])C(C([H])([H])[H])(C([H])([H])[H])C([H])([H])[N+]3([H])C([H])([H])C([H])([H])C([H])(c4c([H])c([H])c([H])c(N([H])C(=O)N5C([H])([H])C([H])([H])C([H])([H])C([H])(n6nc(-c7c([H])c([H])c(Oc8c([H])c([H])c(F)c([H])c8F)c([H])c7[H])c(C(=O)N([H])[H])c6N([H])[H])C5([H])[H])c4[H])C([H])([H])C3([H])[H])c([H])c([H])c2C1([H])[H]

>  <smiles>  (7) 
[H]c1c([H])c([H])c2c(c1[H])C([H])([H])C([H])([H])C([H])([H])C2([H])N([H])C(=O)C1([H])N(C(=O)C([H])(N([H])C(=O)C([H])(N([H])C([H])([H])[H])C([H])([H])[H])C(C([H])([H])[H])(C([H])([H])[H])C([H])([H])[H])C([H])([H])c2c([H])c(OC([H])([H])C(C([H])([H])[H])(C([H])([H])[H])C([H])([H])[N+]3([H])C([H])([H])C([H])([H])C([H])(c4c([H])c([H])c([H])c(N([H])C(=O)N5C([H])([H])C([H])([H])C([H])([H])C([H])(n6nc(-c7c([H])c([H])c(Oc8c([H])c([H])c(F)c([H])c8F)c([H])c7[H])c(C(=O)N([H])[H])c6N([H])[H])C5([H])[H])c4[H])C([H])([H])C3([H])[H])c([H])c([H])c2C1([H])[H]

$$$$
7:0:0
     RDKit          3D

 99107  0  0  1  0  0  0  0  0999 V2000
  -31.2820  -20.2970   19.5540 C   0  0  0  0  0  2  0  0  0  0  0  0
  -29.9360  -20.6420   20.1140 C   0  0  0  0  0  3  0  0  0  0  0  0
  -30.6840  -19.3790   20.6120 C   0  0  0  0  0  3  0  0  0  0  0  0
  -29.7830  -21.9470   20.9120 C   0  0  0  0  0  2  0  0  0  0  0  0
  -29.2690  -24.4020   20.5660 C   0  0  0  0  0  0  0  0  0  0  0  0
  -29.3210  -23.1200   20.1440 N   0  0  0  0  0  0  0  0  0  0  0  0
  -29.7120  -24.7470   21.6650 O   0  0  0  0  0  0  0  0  0  0  0  0
  -28.9520  -22.9420   19.2200 H   0  0  0  0  0  0  0  0  0  0  0  0
  -28.5950  -25.4320   19.6220 C   0  0  0  0  0  2  0  0  0  0  0  0
  -28.4490  -26.7400   20.2360 O   0  0  0  0  0  0  0  0  0  0  0  0
  -24.5900  -31.9270   23.2580 C   0  0  0  0  0  0  0  0  0  0  0  0
  -27.2540  -27.4510   20.1860 C   0  0  0  0  0  0  0  0  0  0  0  0
  -23.3910  -30.5240   21.6130 C   0  0  0  0  0  3  0  0  0  0  0  0
  -24.8500  -28.9800   20.1980 C   0  0  0  0  0  0  0  0  0  0  0  0
  -25.9240  -30.8680   21.4320 C   0  0  0  0  0  2  0  0  0  0  0  0
  -26.0070  -29.4950   20.7920 C   0  0  0  0  0  0  0  0  0  0  0  0
  -27.2050  -28.7360   20.7850 C   0  0  0  0  0  3  0  0  0  0  0  0
  -26.0670  -26.9640   19.5810 C   0  0  0  0  0  3  0  0  0  0  0  0
  -24.8760  -27.7130   19.5950 C   0  0  0  0  0  3  0  0  0  0  0  0
  -23.6080  -29.8420   20.2370 C   0  0  0  0  0  2  0  0  0  0  0  0
  -24.6530  -31.1230   22.1580 N   0  0  0  0  0  0  0  0  0  0  0  0
  -23.5060  -32.2010   23.7920 O   0  0  0  0  0  0  0  0  0  0  0  0
  -22.7350  -29.5050   22.5730 C   0  0  0  0  0  0  0  0  0  0  0  0
  -21.4110  -29.3210   22.4400 N   0  0  0  0  0  0  0  0  0  0  0  0
  -23.4140  -28.8810   23.3930 O   0  0  0  0  0  0  0  0  0  0  0  0
  -20.9240  -29.8780   21.7510 H   0  0  0  0  0  0  0  0  0  0  0  0
  -18.0340  -28.1250   22.9250 C   0  0  0  0  0  0  0  0  0  0  0  0
  -20.5910  -28.3840   23.2070 C   0  0  0  0  0  3  0  0  0  0  0  0
  -20.6950  -26.9520   22.6350 C   0  0  0  0  0  2  0  0  0  0  0  0
  -19.5970  -26.6260   21.6160 C   0  0  0  0  0  2  0  0  0  0  0  0
  -18.2130  -26.7730   22.2540 C   0  0  0  0  0  2  0  0  0  0  0  0
  -19.1510  -28.8870   23.3590 C   0  0  0  0  0  0  0  0  0  0  0  0
  -18.9300  -30.1520   23.9460 C   0  0  0  0  0  3  0  0  0  0  0  0
  -17.6240  -30.6550   24.1060 C   0  0  0  0  0  3  0  0  0  0  0  0
  -16.5220  -29.8890   23.6870 C   0  0  0  0  0  3  0  0  0  0  0  0
  -16.7280  -28.6260   23.1030 C   0  0  0  0  0  3  0  0  0  0  0  0
  -25.8720  -32.5590   23.8820 C   0  0  0  0  0  3  0  0  0  0  0  0
  -25.5640  -33.9600   24.2000 N   0  0  0  0  0  0  0  0  0  0  0  0
  -25.9030  -35.0060   23.4370 C   0  0  0  0  0  0  0  0  0  0  0  0
  -26.5810  -34.8950   22.4120 O   0  0  0  0  0  0  0  0  0  0  0  0
  -24.9610  -34.1190   24.9950 H   0  0  0  0  0  0  0  0  0  0  0  0
  -24.1830  -36.8030   23.0550 C   0  0  0  0  0  1  0  0  0  0  0  0
  -25.4140  -36.3990   23.8820 C   0  0  0  0  0  3  0  0  0  0  0  0
  -27.5420  -37.2830   24.7290 C   0  0  0  0  0  1  0  0  0  0  0  0
  -26.4500  -37.4490   23.7740 N   0  0  0  0  0  0  0  0  0  0  0  0
  -26.0460  -38.3710   23.9110 H   0  0  0  0  0  0  0  0  0  0  0  0
  -26.3810  -31.7960   25.1660 C   0  0  1  0  0  0  0  0  0  0  0  0
  -25.2830  -31.5670   26.2310 C   0  0  0  0  0  1  0  0  0  0  0  0
  -26.9650  -30.4150   24.7860 C   0  0  0  0  0  1  0  0  0  0  0  0
  -27.5280  -32.5940   25.8310 C   0  0  0  0  0  1  0  0  0  0  0  0
  -30.2450  -17.9380   20.2360 C   0  0  0  0  0  3  0  0  0  0  0  0
  -30.6220  -17.5650   17.7580 C   0  0  0  0  0  0  0  0  0  0  0  0
  -31.3910  -17.0280   16.8190 N   0  0  0  0  0  4  0  0  0  0  0  0
  -29.5180  -18.2110   17.3890 N   0  0  0  0  0  0  0  0  0  0  0  0
  -30.9650  -17.4390   19.0480 N   0  0  0  0  0  0  0  0  0  0  0  0
  -31.1680  -17.0910   15.8360 H   0  0  0  0  0  0  0  0  0  0  0  0
  -32.2240  -16.5040   17.0520 H   0  0  0  0  0  0  0  0  0  0  0  0
  -29.2830  -18.3590   16.4170 H   0  0  0  0  0  0  0  0  0  0  0  0
  -28.8880  -18.5970   18.0720 H   0  0  0  0  0  0  0  0  0  0  0  0
  -31.8180  -16.9380   19.2680 H   0  0  0  0  0  0  0  0  0  0  0  0
  -30.4370  -16.9120   21.3960 C   0  0  0  0  0  2  0  0  0  0  0  0
  -30.6670  -14.5370   20.5440 C   0  0  0  0  0  0  0  0  0  0  0  0
  -30.3730  -12.3910   19.3540 C   0  0  0  0  0  2  0  0  0  0  0  0
  -29.4390  -12.5950   18.1430 C   0  0  0  0  0  2  0  0  0  0  0  0
  -27.9600  -12.4620   18.5610 C   0  0  0  0  0  2  0  0  0  0  0  0
  -27.6150  -13.2960   19.8220 C   0  0  0  0  0  3  0  0  0  0  0  0
  -28.6570  -13.0610   20.9380 C   0  0  0  0  0  2  0  0  0  0  0  0
  -29.9890  -13.3680   20.3850 N   0  0  0  0  0  0  0  0  0  0  0  0
  -31.8020  -14.7260   20.0970 O   0  0  0  0  0  0  0  0  0  0  0  0
  -29.9690  -15.5430   21.1040 N   0  0  0  0  0  0  0  0  0  0  0  0
  -29.0280  -15.3250   21.3910 H   0  0  0  0  0  0  0  0  0  0  0  0
  -25.2100  -13.9210   20.4900 C   0  0  0  0  0  0  0  0  0  0  0  0
  -24.1320  -13.1570   20.8480 C   0  0  0  0  0  0  0  0  0  0  0  0
  -24.5870  -11.8040   20.8350 C   0  0  0  0  0  0  0  0  0  0  0  0
  -26.2550  -13.0340   20.2850 N   0  0  0  0  0  0  0  0  0  0  0  0
  -25.8820  -11.7540   20.5510 N   0  0  0  0  0  0  0  0  0  0  0  0
  -23.8530  -10.5460   21.0270 C   0  0  0  0  0  0  0  0  0  0  0  0
  -24.2760   -9.5820   21.9680 C   0  0  0  0  0  3  0  0  0  0  0  0
  -23.5470   -8.3880   22.1490 C   0  0  0  0  0  3  0  0  0  0  0  0
  -22.3790   -8.1480   21.3860 C   0  0  0  0  0  0  0  0  0  0  0  0
  -21.9750   -9.1010   20.4340 C   0  0  0  0  0  3  0  0  0  0  0  0
  -22.7050  -10.2860   20.2540 C   0  0  0  0  0  3  0  0  0  0  0  0
  -21.6230   -7.0050   21.4730 O   0  0  0  0  0  0  0  0  0  0  0  0
  -21.5690   -6.2630   22.6250 C   0  0  0  0  0  0  0  0  0  0  0  0
  -21.1470   -6.8220   23.8520 C   0  0  0  0  0  3  0  0  0  0  0  0
  -21.0430   -6.0070   24.9970 C   0  0  0  0  0  3  0  0  0  0  0  0
  -21.3460   -4.6370   24.9170 C   0  0  0  0  0  0  0  0  0  0  0  0
  -21.7570   -4.0760   23.6940 C   0  0  0  0  0  3  0  0  0  0  0  0
  -21.8670   -4.8870   22.5510 C   0  0  0  0  0  0  0  0  0  0  0  0
  -22.2450   -4.3400   21.3710 F   0  0  0  0  0  0  0  0  0  0  0  0
  -21.2370   -3.8510   26.0130 F   0  0  0  0  0  0  0  0  0  0  0  0
  -22.7330  -13.6410   21.0940 C   0  0  0  0  0  0  0  0  0  0  0  0
  -21.9880  -12.9570   21.9540 N   0  0  0  0  0  0  0  0  0  0  0  0
  -22.3070  -14.6640   20.5580 O   0  0  0  0  0  0  0  0  0  0  0  0
  -22.3430  -12.1290   22.4100 H   0  0  0  0  0  0  0  0  0  0  0  0
  -21.0470  -13.2630   22.1580 H   0  0  0  0  0  0  0  0  0  0  0  0
  -25.3840  -15.2890   20.3010 N   0  0  0  0  0  0  0  0  0  0  0  0
  -24.6170  -15.9460   20.3870 H   0  0  0  0  0  0  0  0  0  0  0  0
  -26.2370  -15.7170   19.9620 H   0  0  0  0  0  0  0  0  0  0  0  0
  1  2  1  0
  1  3  1  0
  2  3  1  0
  2  4  1  0
  3 51  1  0
  5  7  2  0
  6  5  1  0
  6  4  1  0
  8  6  1  0
  9 10  1  0
  9  5  1  0
 11 22  2  0
 12 10  1  0
 12 17  1  0
 13 21  1  0
 13 23  1  0
 14 20  1  0
 14 16  1  0
 15 21  1  0
 16 15  1  0
 17 16  2  0
 18 19  1  0
 18 12  2  0
 19 14  2  0
 20 13  1  0
 21 11  1  0
 23 25  2  0
 24 23  1  0
 26 24  1  0
 27 36  2  0
 27 32  1  0
 28 24  1  0
 28 32  1  0
 29 28  1  0
 30 31  1  0
 30 29  1  0
 31 27  1  0
 32 33  2  0
 33 34  1  0
 35 34  2  0
 36 35  1  0
 37 11  1  0
 37 38  1  0
 37 47  1  0
 38 41  1  0
 39 43  1  0
 39 38  1  0
 40 39  2  0
 43 42  1  0
 45 43  1  0
 45 46  1  0
 45 44  1  0
 47 50  1  1
 47 48  1  0
 49 47  1  0
 51 61  1  0
 52 55  1  0
 53 57  1  0
 53 52  2  0
 54 52  1  0
 54 59  1  0
 55 60  1  0
 55 51  1  0
 56 53  1  0
 58 54  1  0
 62 70  1  0
 63 68  1  0
 64 65  1  0
 64 63  1  0
 66 65  1  0
 66 75  1  0
 66 67  1  0
 68 62  1  0
 68 67  1  0
 69 62  2  0
 70 71  1  0
 70 61  1  0
 72 73  2  0
 73 92  1  0
 74 73  1  0
 74 77  1  0
 75 72  1  0
 75 76  1  0
 76 74  2  0
 77 78  1  0
 78 79  2  0
 80 83  1  0
 80 79  1  0
 81 80  2  0
 82 81  1  0
 82 77  2  0
 83 84  1  0
 84 85  1  0
 85 86  2  0
 87 86  1  0
 87 91  1  0
 88 87  2  0
 89 84  2  0
 89 88  1  0
 90 89  1  0
 92 93  1  0
 93 96  1  0
 93 95  1  0
 94 92  2  0
 97 98  1  0
 97 72  1  0
 99 97  1  0
M  ISO  4   9 101  10 101  62 100  70 100
M  END
>  <TORSDO>  (8) 
F 22

>  <SCORE>  (8) 
-13.481

>  <name>  (8) 
7

>  <ligand_id>  (8) 
7

>  <original_smiles>  (8) 
[H]c1c([H])c([H])c2c(c1[H])C([H])([H])C([H])([H])C([H])([H])C2([H])N([H])C(=O)C1([H])N(C(=O)C([H])(N([H])C(=O)C([H])(N([H])C([H])([H])[H])C([H])([H])[H])C(C([H])([H])[H])(C([H])([H])[H])C([H])([H])[H])C([H])([H])c2c([H])c(OC([H])([H])C(=O)N([H])C([H])([H])C3([H])C([H])([H])C3([H])C([H])(N([H])C(N([H])[H])=[N+]([H])[H])C([H])([H])N([H])C(=O)N3C([H])([H])C([H])([H])C([H])([H])C([H])(n4nc(-c5c([H])c([H])c(Oc6c([H])c([H])c(F)c([H])c6F)c([H])c5[H])c(C(=O)N([H])[H])c4N([H])[H])C3([H])[H])c([H])c([H])c2C1([H])[H]

>  <smiles>  (8) 
[H]c1c([H])c([H])c2c(c1[H])C([H])([H])C([H])([H])C([H])([H])C2([H])N([H])C(=O)C1([H])N(C(=O)C([H])(N([H])C(=O)C([H])(N([H])C([H])([H])[H])C([H])([H])[H])C(C([H])([H])[H])(C([H])([H])[H])C([H])([H])[H])C([H])([H])c2c([H])c(OC([H])([H])C(=O)N([H])C([H])([H])C3([H])C([H])([H])C3([H])C([H])(N([H])C(N([H])[H])=[N+]([H])[H])C([H])([H])N([H])C(=O)N3C([H])([H])C([H])([H])C([H])([H])C([H])(n4nc(-c5c([H])c([H])c(Oc6c([H])c([H])c(F)c([H])c6F)c([H])c5[H])c(C(=O)N([H])[H])c4N([H])[H])C3([H])[H])c([H])c([H])c2C1([H])[H]

$$$$
8:0:0
     RDKit          3D

 96104  0  0  1  0  0  0  0  0999 V2000
  -31.1790  -19.2280   19.6900 C   0  0  0  0  0  3  0  0  0  0  0  0
  -31.1130  -17.8070   19.7700 C   0  0  0  0  0  3  0  0  0  0  0  0
  -28.8410  -19.3910   20.1790 C   0  0  0  0  0  3  0  0  0  0  0  0
  -28.7460  -17.9580   20.2610 C   0  0  0  0  0  0  0  0  0  0  0  0
  -30.0520  -20.0680   19.8970 C   0  0  0  0  0  0  0  0  0  0  0  0
  -29.9060  -17.1200   20.0730 C   0  0  0  0  0  0  0  0  0  0  0  0
  -30.5310  -14.6060   19.6320 C   0  0  0  0  0  0  0  0  0  0  0  0
  -30.1780  -12.3980   18.5370 C   0  0  0  0  0  2  0  0  0  0  0  0
  -29.1260  -12.5770   17.4200 C   0  0  0  0  0  2  0  0  0  0  0  0
  -27.6970  -12.4300   17.9820 C   0  0  0  0  0  2  0  0  0  0  0  0
  -27.4740  -13.2620   19.2720 C   0  0  0  0  0  3  0  0  0  0  0  0
  -28.6300  -13.0570   20.2780 C   0  0  0  0  0  2  0  0  0  0  0  0
  -29.8880  -13.3930   19.5900 N   0  0  0  0  0  0  0  0  0  0  0  0
  -31.6400  -14.7540   19.1100 O   0  0  0  0  0  0  0  0  0  0  0  0
  -29.8110  -15.6490   20.1560 N   0  0  0  0  0  0  0  0  0  0  0  0
  -28.9980  -15.3280   20.6640 H   0  0  0  0  0  0  0  0  0  0  0  0
  -25.1520  -13.8760   20.1870 C   0  0  0  0  0  0  0  0  0  0  0  0
  -24.1180  -13.1100   20.6550 C   0  0  0  0  0  0  0  0  0  0  0  0
  -24.5710  -11.7570   20.5940 C   0  0  0  0  0  0  0  0  0  0  0  0
  -26.1710  -12.9900   19.8730 N   0  0  0  0  0  0  0  0  0  0  0  0
  -25.8310  -11.7100   20.1760 N   0  0  0  0  0  0  0  0  0  0  0  0
  -23.8590  -10.4990   20.8540 C   0  0  0  0  0  0  0  0  0  0  0  0
  -24.3230   -9.5720   21.8120 C   0  0  0  0  0  3  0  0  0  0  0  0
  -23.6100   -8.3780   22.0580 C   0  0  0  0  0  3  0  0  0  0  0  0
  -22.4180   -8.1040   21.3450 C   0  0  0  0  0  0  0  0  0  0  0  0
  -21.9730   -9.0200   20.3770 C   0  0  0  0  0  3  0  0  0  0  0  0
  -22.6860  -10.2040   20.1300 C   0  0  0  0  0  3  0  0  0  0  0  0
  -21.6740   -6.9590   21.5000 O   0  0  0  0  0  0  0  0  0  0  0  0
  -21.6130   -6.2950   22.6990 C   0  0  0  0  0  0  0  0  0  0  0  0
  -21.1590   -6.9270   23.8770 C   0  0  0  0  0  3  0  0  0  0  0  0
  -21.0460   -6.1890   25.0720 C   0  0  0  0  0  3  0  0  0  0  0  0
  -21.3780   -4.8210   25.0910 C   0  0  0  0  0  0  0  0  0  0  0  0
  -21.8270   -4.1900   23.9180 C   0  0  0  0  0  3  0  0  0  0  0  0
  -21.9410   -4.9250   22.7240 C   0  0  0  0  0  0  0  0  0  0  0  0
  -22.3530   -4.3060   21.5910 F   0  0  0  0  0  0  0  0  0  0  0  0
  -21.2620   -4.1100   26.2370 F   0  0  0  0  0  0  0  0  0  0  0  0
  -22.7530  -13.5960   21.0450 C   0  0  0  0  0  0  0  0  0  0  0  0
  -22.1010  -12.9120   21.9790 N   0  0  0  0  0  0  0  0  0  0  0  0
  -22.2740  -14.6180   20.5560 O   0  0  0  0  0  0  0  0  0  0  0  0
  -22.5030  -12.0860   22.3960 H   0  0  0  0  0  0  0  0  0  0  0  0
  -21.1890  -13.2210   22.2820 H   0  0  0  0  0  0  0  0  0  0  0  0
  -25.3010  -15.2430   19.9790 N   0  0  0  0  0  0  0  0  0  0  0  0
  -24.5500  -15.9000   20.1540 H   0  0  0  0  0  0  0  0  0  0  0  0
  -26.1230  -15.6790   19.5860 H   0  0  0  0  0  0  0  0  0  0  0  0
  -27.4000  -17.3670   20.6120 C   0  0  0  0  0  0  0  0  0  0  0  0
  -26.3370  -17.9710   20.0960 N   0  0  0  0  0  0  0  0  0  0  0  0
  -27.2890  -16.3500   21.2960 O   0  0  0  0  0  0  0  0  0  0  0  0
  -26.4490  -18.7780   19.5020 H   0  0  0  0  0  0  0  0  0  0  0  0
  -25.4140  -17.6090   20.2800 H   0  0  0  0  0  0  0  0  0  0  0  0
  -30.2360  -21.6330   19.9770 C   0  0  0  0  0  2  0  0  0  0  0  0
  -29.2430  -23.9840   19.8750 C   0  0  0  0  0  0  0  0  0  0  0  0
  -29.1330  -22.6210   19.7160 N   0  0  0  0  0  0  0  0  0  0  0  0
  -30.2740  -24.4780   20.3380 O   0  0  0  0  0  0  0  0  0  0  0  0
  -28.2710  -22.2590   19.3340 H   0  0  0  0  0  0  0  0  0  0  0  0
  -28.0700  -24.9500   19.4470 C   0  0  0  0  0  2  0  0  0  0  0  0
  -28.2820  -26.4040   19.6730 O   0  0  0  0  0  0  0  0  0  0  0  0
  -24.5160  -31.5910   23.0000 C   0  0  0  0  0  0  0  0  0  0  0  0
  -27.1450  -27.2330   19.6800 C   0  0  0  0  0  0  0  0  0  0  0  0
  -23.3000  -30.2430   21.3280 C   0  0  0  0  0  3  0  0  0  0  0  0
  -24.7460  -28.7920   19.8000 C   0  0  0  0  0  0  0  0  0  0  0  0
  -25.8270  -30.6240   21.0990 C   0  0  0  0  0  2  0  0  0  0  0  0
  -25.9200  -29.2790   20.3890 C   0  0  0  0  0  0  0  0  0  0  0  0
  -27.1220  -28.5120   20.3190 C   0  0  0  0  0  3  0  0  0  0  0  0
  -25.9420  -26.8030   19.0700 C   0  0  0  0  0  3  0  0  0  0  0  0
  -24.7600  -27.5590   19.1320 C   0  0  0  0  0  3  0  0  0  0  0  0
  -23.4940  -29.6360   19.9140 C   0  0  0  0  0  2  0  0  0  0  0  0
  -24.5680  -30.8340   21.8660 N   0  0  0  0  0  0  0  0  0  0  0  0
  -23.4400  -31.8220   23.5720 O   0  0  0  0  0  0  0  0  0  0  0  0
  -22.6820  -29.1690   22.2550 C   0  0  0  0  0  0  0  0  0  0  0  0
  -21.3520  -28.9890   22.1700 N   0  0  0  0  0  0  0  0  0  0  0  0
  -23.3940  -28.5050   23.0120 O   0  0  0  0  0  0  0  0  0  0  0  0
  -20.8360  -29.5790   21.5320 H   0  0  0  0  0  0  0  0  0  0  0  0
  -18.0030  -27.7440   22.7290 C   0  0  0  0  0  0  0  0  0  0  0  0
  -20.5680  -28.0070   22.9190 C   0  0  0  0  0  3  0  0  0  0  0  0
  -20.6560  -26.6080   22.2660 C   0  0  0  0  0  2  0  0  0  0  0  0
  -19.5200  -26.3310   21.2770 C   0  0  0  0  0  2  0  0  0  0  0  0
  -18.1620  -26.4330   21.9780 C   0  0  0  0  0  2  0  0  0  0  0  0
  -19.1320  -28.4900   23.1570 C   0  0  0  0  0  0  0  0  0  0  0  0
  -18.9280  -29.7200   23.8230 C   0  0  0  0  0  3  0  0  0  0  0  0
  -17.6280  -30.2020   24.0620 C   0  0  0  0  0  3  0  0  0  0  0  0
  -16.5130  -29.4520   23.6490 C   0  0  0  0  0  3  0  0  0  0  0  0
  -16.7020  -28.2240   22.9890 C   0  0  0  0  0  3  0  0  0  0  0  0
  -25.8000  -32.2210   23.6200 C   0  0  0  0  0  3  0  0  0  0  0  0
  -26.3650  -31.4000   24.8450 C   0  0  1  0  0  0  0  0  0  0  0  0
  -25.3080  -31.1000   25.9330 C   0  0  0  0  0  1  0  0  0  0  0  0
  -26.9530  -30.0490   24.3740 C   0  0  0  0  0  1  0  0  0  0  0  0
  -27.5250  -32.1800   25.5070 C   0  0  0  0  0  1  0  0  0  0  0  0
  -25.4700  -33.5940   24.0260 N   0  0  0  0  0  0  0  0  0  0  0  0
  -25.7940  -34.6920   23.3320 C   0  0  0  0  0  0  0  0  0  0  0  0
  -26.4740  -34.6560   22.3020 O   0  0  0  0  0  0  0  0  0  0  0  0
  -24.8660  -33.6950   24.8290 H   0  0  0  0  0  0  0  0  0  0  0  0
  -24.0440  -36.4810   23.0670 C   0  0  0  0  0  1  0  0  0  0  0  0
  -25.2860  -36.0470   23.8630 C   0  0  0  0  0  3  0  0  0  0  0  0
  -27.4030  -36.9130   24.7560 C   0  0  0  0  0  1  0  0  0  0  0  0
  -26.3050  -37.1180   23.8150 N   0  0  0  0  0  0  0  0  0  0  0  0
  -25.8860  -38.0230   24.0080 H   0  0  0  0  0  0  0  0  0  0  0  0
  1  2  2  0
  1  5  1  0
  2  6  1  0
  3  4  1  0
  4 45  1  0
  5 50  1  0
  5  3  2  0
  6 15  1  0
  6  4  2  0
  7 15  1  0
  8 13  1  0
  9 10  1  0
  9  8  1  0
 11 10  1  0
 11 20  1  0
 11 12  1  0
 13  7  1  0
 13 12  1  0
 14  7  2  0
 15 16  1  0
 17 18  2  0
 18 37  1  0
 19 18  1  0
 19 22  1  0
 20 21  1  0
 20 17  1  0
 21 19  2  0
 22 23  1  0
 23 24  2  0
 25 28  1  0
 25 24  1  0
 26 25  2  0
 27 26  1  0
 27 22  2  0
 28 29  1  0
 29 34  2  0
 29 30  1  0
 30 31  2  0
 31 32  1  0
 32 36  1  0
 33 32  2  0
 34 33  1  0
 35 34  1  0
 37 38  1  0
 38 41  1  0
 38 40  1  0
 39 37  2  0
 42 43  1  0
 42 17  1  0
 44 42  1  0
 45 47  2  0
 46 49  1  0
 46 45  1  0
 48 46  1  0
 51 53  2  0
 52 51  1  0
 52 50  1  0
 54 52  1  0
 55 56  1  0
 55 51  1  0
 56 58  1  0
 57 68  2  0
 58 63  1  0
 59 67  1  0
 59 69  1  0
 60 66  1  0
 60 62  1  0
 61 67  1  0
 62 61  1  0
 63 62  2  0
 64 65  1  0
 64 58  2  0
 65 60  2  0
 66 59  1  0
 67 57  1  0
 69 71  2  0
 70 69  1  0
 72 70  1  0
 73 82  2  0
 73 78  1  0
 74 70  1  0
 74 78  1  0
 75 74  1  0
 76 77  1  0
 76 75  1  0
 77 73  1  0
 78 79  2  0
 79 80  1  0
 81 80  2  0
 82 81  1  0
 83 57  1  0
 83 88  1  0
 83 84  1  0
 84 87  1  1
 84 85  1  0
 86 84  1  0
 88 91  1  0
 89 93  1  0
 89 88  1  0
 90 89  2  0
 93 92  1  0
 95 93  1  0
 95 96  1  0
 95 94  1  0
M  ISO  4   7 100  15 100  55 101  56 101
M  END
>  <TORSDO>  (9) 
F 20

>  <SCORE>  (9) 
-12.115

>  <name>  (9) 
8

>  <ligand_id>  (9) 
8

>  <original_smiles>  (9) 
[H]c1c([H])c([H])c2c(c1[H])C([H])([H])C([H])([H])C([H])([H])C2([H])N([H])C(=O)C1([H])N(C(=O)C([H])(N([H])C(=O)C([H])(N([H])C([H])([H])[H])C([H])([H])[H])C(C([H])([H])[H])(C([H])([H])[H])C([H])([H])[H])C([H])([H])c2c([H])c(OC([H])([H])C(=O)N([H])C([H])([H])c3c([H])c([H])c(N([H])C(=O)N4C([H])([H])C([H])([H])C([H])([H])C([H])(n5nc(-c6c([H])c([H])c(Oc7c([H])c([H])c(F)c([H])c7F)c([H])c6[H])c(C(=O)N([H])[H])c5N([H])[H])C4([H])[H])c(C(=O)N([H])[H])c3[H])c([H])c([H])c2C1([H])[H]

>  <smiles>  (9) 
[H]c1c([H])c([H])c2c(c1[H])C([H])([H])C([H])([H])C([H])([H])C2([H])N([H])C(=O)C1([H])N(C(=O)C([H])(N([H])C(=O)C([H])(N([H])C([H])([H])[H])C([H])([H])[H])C(C([H])([H])[H])(C([H])([H])[H])C([H])([H])[H])C([H])([H])c2c([H])c(OC([H])([H])C(=O)N([H])C([H])([H])c3c([H])c([H])c(N([H])C(=O)N4C([H])([H])C([H])([H])C([H])([H])C([H])(n5nc(-c6c([H])c([H])c(Oc7c([H])c([H])c(F)c([H])c7F)c([H])c6[H])c(C(=O)N([H])[H])c5N([H])[H])C4([H])[H])c(C(=O)N([H])[H])c3[H])c([H])c([H])c2C1([H])[H]

$$$$
9:0:0
     RDKit          3D

 90 98  0  0  1  0  0  0  0  0999 V2000
  -29.6390  -21.2590   21.7230 C   0  0  0  0  0  2  0  0  0  0  0  0
  -28.9760  -22.6920   21.8480 C   0  0  0  0  0  2  0  0  0  0  0  0
  -28.9670  -20.5800   20.4960 C   0  0  0  0  0  3  0  0  0  0  0  0
  -28.6100  -23.1170   20.4000 C   0  0  0  0  0  3  0  0  0  0  0  0
  -28.8580  -21.8220   19.5720 N   0  0  0  0  0  4  0  0  0  0  0  0
  -28.1390  -21.6580   18.8860 H   0  0  0  0  0  0  0  0  0  0  0  0
  -29.7340  -21.9190   19.0820 H   0  0  0  0  0  0  0  0  0  0  0  0
  -29.5330  -19.0860   19.8760 C   0  0  0  0  0  0  0  0  0  0  0  0
  -29.6010  -18.9830   18.6430 O   0  0  0  0  0  0  0  0  0  0  0  0
  -29.9570  -17.7110   20.7120 C   0  0  0  0  0  2  0  0  0  0  0  0
  -30.4870  -15.0130   20.3050 C   0  0  0  0  0  0  0  0  0  0  0  0
  -30.3750  -12.6560   19.3530 C   0  0  0  0  0  2  0  0  0  0  0  0
  -29.4420  -12.6320   18.1220 C   0  0  0  0  0  2  0  0  0  0  0  0
  -27.9590  -12.4720   18.5390 C   0  0  0  0  0  2  0  0  0  0  0  0
  -27.5690  -13.3330   19.7690 C   0  0  0  0  0  3  0  0  0  0  0  0
  -28.6450  -13.3220   20.8690 C   0  0  0  0  0  2  0  0  0  0  0  0
  -29.8950  -13.7620   20.2280 N   0  0  0  0  0  0  0  0  0  0  0  0
  -31.7130  -15.0540   20.1820 O   0  0  0  0  0  0  0  0  0  0  0  0
  -29.7000  -16.1980   20.2830 N   0  0  0  0  0  0  0  0  0  0  0  0
  -28.7070  -16.0330   20.1080 H   0  0  0  0  0  0  0  0  0  0  0  0
  -25.1930  -13.8900   20.5320 C   0  0  0  0  0  0  0  0  0  0  0  0
  -24.1350  -13.1090   20.9110 C   0  0  0  0  0  0  0  0  0  0  0  0
  -24.6050  -11.7610   20.8720 C   0  0  0  0  0  0  0  0  0  0  0  0
  -26.2390  -13.0190   20.2830 N   0  0  0  0  0  0  0  0  0  0  0  0
  -25.8950  -11.7310   20.5500 N   0  0  0  0  0  0  0  0  0  0  0  0
  -23.8810  -10.4960   21.0660 C   0  0  0  0  0  0  0  0  0  0  0  0
  -24.3260   -9.5230   21.9860 C   0  0  0  0  0  3  0  0  0  0  0  0
  -23.6000   -8.3250   22.1690 C   0  0  0  0  0  3  0  0  0  0  0  0
  -22.4140   -8.0960   21.4310 C   0  0  0  0  0  0  0  0  0  0  0  0
  -21.9850   -9.0620   20.5030 C   0  0  0  0  0  3  0  0  0  0  0  0
  -22.7110  -10.2490   20.3200 C   0  0  0  0  0  3  0  0  0  0  0  0
  -21.6560   -6.9520   21.5260 O   0  0  0  0  0  0  0  0  0  0  0  0
  -21.6400   -6.1910   22.6670 C   0  0  0  0  0  0  0  0  0  0  0  0
  -21.2620   -6.7310   23.9160 C   0  0  0  0  0  3  0  0  0  0  0  0
  -21.1890   -5.8970   25.0500 C   0  0  0  0  0  3  0  0  0  0  0  0
  -21.4880   -4.5260   24.9370 C   0  0  0  0  0  0  0  0  0  0  0  0
  -21.8570   -3.9860   23.6920 C   0  0  0  0  0  3  0  0  0  0  0  0
  -21.9290   -4.8160   22.5610 C   0  0  0  0  0  0  0  0  0  0  0  0
  -22.2670   -4.2870   21.3590 F   0  0  0  0  0  0  0  0  0  0  0  0
  -21.4120   -3.7230   26.0240 F   0  0  0  0  0  0  0  0  0  0  0  0
  -22.7390  -13.5850   21.1900 C   0  0  0  0  0  0  0  0  0  0  0  0
  -22.0190  -12.8860   22.0610 N   0  0  0  0  0  0  0  0  0  0  0  0
  -22.2950  -14.6080   20.6700 O   0  0  0  0  0  0  0  0  0  0  0  0
  -22.3870  -12.0560   22.4970 H   0  0  0  0  0  0  0  0  0  0  0  0
  -21.0830  -13.1900   22.2930 H   0  0  0  0  0  0  0  0  0  0  0  0
  -25.3480  -15.2610   20.3510 N   0  0  0  0  0  0  0  0  0  0  0  0
  -24.5720  -15.9070   20.4510 H   0  0  0  0  0  0  0  0  0  0  0  0
  -26.1850  -15.7030   19.9990 H   0  0  0  0  0  0  0  0  0  0  0  0
  -27.9870  -24.6370   19.8770 C   0  0  0  0  0  2  0  0  0  0  0  0
  -28.2100  -26.1340   20.2980 O   0  0  0  0  0  0  0  0  0  0  0  0
  -24.6280  -31.9050   23.2550 C   0  0  0  0  0  0  0  0  0  0  0  0
  -27.1750  -27.1520   20.2040 C   0  0  0  0  0  0  0  0  0  0  0  0
  -23.4190  -30.5070   21.6290 C   0  0  0  0  0  3  0  0  0  0  0  0
  -24.8550  -28.9290   20.1890 C   0  0  0  0  0  0  0  0  0  0  0  0
  -25.9770  -30.7480   21.4610 C   0  0  0  0  0  2  0  0  0  0  0  0
  -26.0390  -29.3530   20.8090 C   0  0  0  0  0  0  0  0  0  0  0  0
  -27.1930  -28.4780   20.8080 C   0  0  0  0  0  3  0  0  0  0  0  0
  -25.9710  -26.8530   19.5210 C   0  0  0  0  0  3  0  0  0  0  0  0
  -24.8390  -27.6880   19.5350 C   0  0  0  0  0  3  0  0  0  0  0  0
  -23.6290  -29.8200   20.2510 C   0  0  0  0  0  2  0  0  0  0  0  0
  -24.6960  -31.0750   22.1670 N   0  0  0  0  0  0  0  0  0  0  0  0
  -23.5420  -32.2000   23.7780 O   0  0  0  0  0  0  0  0  0  0  0  0
  -22.7400  -29.5030   22.5910 C   0  0  0  0  0  0  0  0  0  0  0  0
  -21.4070  -29.3480   22.4750 N   0  0  0  0  0  0  0  0  0  0  0  0
  -23.4100  -28.8630   23.4040 O   0  0  0  0  0  0  0  0  0  0  0  0
  -20.9190  -29.9300   21.8090 H   0  0  0  0  0  0  0  0  0  0  0  0
  -18.0220  -28.1640   22.9630 C   0  0  0  0  0  0  0  0  0  0  0  0
  -20.5810  -28.4150   23.2460 C   0  0  0  0  0  3  0  0  0  0  0  0
  -20.6700  -26.9780   22.6750 C   0  0  0  0  0  2  0  0  0  0  0  0
  -19.5850  -26.6880   21.6320 C   0  0  0  0  0  2  0  0  0  0  0  0
  -18.1960  -26.8150   22.2800 C   0  0  0  0  0  2  0  0  0  0  0  0
  -19.1430  -28.9260   23.3930 C   0  0  0  0  0  0  0  0  0  0  0  0
  -18.9300  -30.1940   23.9720 C   0  0  0  0  0  3  0  0  0  0  0  0
  -17.6280  -30.7000   24.1300 C   0  0  0  0  0  3  0  0  0  0  0  0
  -16.5230  -29.9370   23.7270 C   0  0  0  0  0  3  0  0  0  0  0  0
  -16.7200  -28.6670   23.1490 C   0  0  0  0  0  3  0  0  0  0  0  0
  -25.9100  -32.5350   23.8790 C   0  0  0  0  0  3  0  0  0  0  0  0
  -26.4170  -31.7650   25.1610 C   0  0  1  0  0  0  0  0  0  0  0  0
  -25.3150  -31.5390   26.2260 C   0  0  0  0  0  1  0  0  0  0  0  0
  -26.9910  -30.3810   24.7810 C   0  0  0  0  0  1  0  0  0  0  0  0
  -27.5680  -32.5540   25.8270 C   0  0  0  0  0  1  0  0  0  0  0  0
  -25.6030  -33.9360   24.2100 N   0  0  0  0  0  0  0  0  0  0  0  0
  -25.9270  -34.9910   23.4530 C   0  0  0  0  0  0  0  0  0  0  0  0
  -26.5820  -34.8900   22.4090 O   0  0  0  0  0  0  0  0  0  0  0  0
  -25.0270  -34.0940   25.0270 H   0  0  0  0  0  0  0  0  0  0  0  0
  -24.1910  -36.7870   23.1350 C   0  0  0  0  0  1  0  0  0  0  0  0
  -25.4510  -36.3800   23.9200 C   0  0  0  0  0  3  0  0  0  0  0  0
  -27.6020  -37.2660   24.7070 C   0  0  0  0  0  1  0  0  0  0  0  0
  -26.4820  -37.4340   23.7840 N   0  0  0  0  0  0  0  0  0  0  0  0
  -26.0790  -38.3550   23.9380 H   0  0  0  0  0  0  0  0  0  0  0  0
  1  2  1  0
  3  8  1  0
  3  1  1  0
  4 49  1  0
  4  2  1  0
  5  4  1  0
  5  3  1  0
  6  5  1  0
  7  5  1  0
  8 10  1  0
  9  8  2  0
 12 17  1  0
 13 14  1  0
 13 12  1  0
 15 14  1  0
 15 24  1  0
 15 16  1  0
 17 11  1  0
 17 16  1  0
 18 11  2  0
 19 11  1  0
 19 10  1  0
 20 19  1  0
 21 22  2  0
 22 41  1  0
 23 22  1  0
 23 26  1  0
 24 21  1  0
 24 25  1  0
 25 23  2  0
 26 27  1  0
 27 28  2  0
 29 32  1  0
 29 28  1  0
 30 29  2  0
 31 30  1  0
 31 26  2  0
 32 33  1  0
 33 34  1  0
 34 35  2  0
 36 35  1  0
 36 40  1  0
 37 36  2  0
 38 33  2  0
 38 37  1  0
 39 38  1  0
 41 42  1  0
 42 45  1  0
 42 44  1  0
 43 41  2  0
 46 47  1  0
 46 21  1  0
 48 46  1  0
 49 50  1  0
 51 62  2  0
 52 50  1  0
 52 57  1  0
 53 61  1  0
 53 63  1  0
 54 60  1  0
 54 56  1  0
 55 61  1  0
 56 55  1  0
 57 56  2  0
 58 59  1  0
 58 52  2  0
 59 54  2  0
 60 53  1  0
 61 51  1  0
 63 65  2  0
 64 63  1  0
 66 64  1  0
 67 76  2  0
 67 72  1  0
 68 64  1  0
 68 72  1  0
 69 68  1  0
 70 71  1  0
 70 69  1  0
 71 67  1  0
 72 73  2  0
 73 74  1  0
 75 74  2  0
 76 75  1  0
 77 51  1  0
 77 82  1  0
 77 78  1  0
 78 81  1  1
 78 79  1  0
 80 78  1  0
 82 85  1  0
 83 87  1  0
 83 82  1  0
 84 83  2  0
 87 86  1  0
 89 87  1  0
 89 90  1  0
 89 88  1  0
M  ISO  4  11 100  19 100  49 101  50 101
M  END
>  <TORSDO>  (10) 
F 19

>  <SCORE>  (10) 
-15.302

>  <name>  (10) 
9

>  <ligand_id>  (10) 
9

>  <original_smiles>  (10) 
[H]c1c([H])c([H])c2c(c1[H])C([H])([H])C([H])([H])C([H])([H])C2([H])N([H])C(=O)C1([H])N(C(=O)C([H])(N([H])C(=O)C([H])(N([H])C([H])([H])[H])C([H])([H])[H])C(C([H])([H])[H])(C([H])([H])[H])C([H])([H])[H])C([H])([H])c2c([H])c(OC([H])([H])C3([H])C([H])([H])C([H])([H])C([H])(C(=O)C([H])([H])N([H])C(=O)N4C([H])([H])C([H])([H])C([H])([H])C([H])(n5nc(-c6c([H])c([H])c(Oc7c([H])c([H])c(F)c([H])c7F)c([H])c6[H])c(C(=O)N([H])[H])c5N([H])[H])C4([H])[H])[N+]3([H])[H])c([H])c([H])c2C1([H])[H]

>  <smiles>  (10) 
[H]c1c([H])c([H])c2c(c1[H])C([H])([H])C([H])([H])C([H])([H])C2([H])N([H])C(=O)C1([H])N(C(=O)C([H])(N([H])C(=O)C([H])(N([H])C([H])([H])[H])C([H])([H])[H])C(C([H])([H])[H])(C([H])([H])[H])C([H])([H])[H])C([H])([H])c2c([H])c(OC([H])([H])C3([H])C([H])([H])C([H])([H])C([H])(C(=O)C([H])([H])N([H])C(=O)N4C([H])([H])C([H])([H])C([H])([H])C([H])(n5nc(-c6c([H])c([H])c(Oc7c([H])c([H])c(F)c([H])c7F)c([H])c6[H])c(C(=O)N([H])[H])c5N([H])[H])C4([H])[H])[N+]3([H])[H])c([H])c([H])c2C1([H])[H]

$$$$
10:0:0
     RDKit          3D

 93101  0  0  1  0  0  0  0  0999 V2000
  -29.3180  -22.6020   21.6330 C   0  0  0  0  0  3  0  0  0  0  0  0
  -28.7680  -21.1280   19.8240 C   0  0  0  0  0  3  0  0  0  0  0  0
  -29.9180  -21.4720   22.2630 C   0  0  0  0  0  0  0  0  0  0  0  0
  -28.6980  -22.5810   20.3760 C   0  0  0  0  0  0  0  0  0  0  0  0
  -29.3950  -19.8300   20.4160 C   0  0  0  0  0  0  0  0  0  0  0  0
  -29.9740  -20.1450   21.6880 C   0  0  0  0  0  0  0  0  0  0  0  0
  -30.7700  -19.0690   22.4340 C   0  0  0  0  0  1  0  0  0  0  0  0
  -30.5680  -21.7810   23.5870 C   0  0  0  0  0  0  0  0  0  0  0  0
  -30.0710  -21.1710   24.6510 N   0  0  0  0  0  0  0  0  0  0  0  0
  -31.4870  -22.5920   23.6670 O   0  0  0  0  0  0  0  0  0  0  0  0
  -29.2750  -20.5570   24.5520 H   0  0  0  0  0  0  0  0  0  0  0  0
  -30.4670  -21.3330   25.5660 H   0  0  0  0  0  0  0  0  0  0  0  0
  -29.7020  -18.2210   19.7200 C   0  0  0  0  0  2  0  0  0  0  0  0
  -30.4260  -15.2980   19.8830 C   0  0  0  0  0  0  0  0  0  0  0  0
  -30.3340  -12.8550   18.9510 C   0  0  0  0  0  2  0  0  0  0  0  0
  -29.3420  -12.6820   17.7700 C   0  0  0  0  0  2  0  0  0  0  0  0
  -27.9130  -12.4110   18.2870 C   0  0  0  0  0  2  0  0  0  0  0  0
  -27.5490  -13.3310   19.4830 C   0  0  0  0  0  3  0  0  0  0  0  0
  -28.6720  -13.4410   20.5390 C   0  0  0  0  0  2  0  0  0  0  0  0
  -29.8610  -13.9800   19.8550 N   0  0  0  0  0  0  0  0  0  0  0  0
  -31.5970  -15.2950   19.4750 O   0  0  0  0  0  0  0  0  0  0  0  0
  -29.7060  -16.5840   20.1780 N   0  0  0  0  0  0  0  0  0  0  0  0
  -28.8190  -16.3520   20.6020 H   0  0  0  0  0  0  0  0  0  0  0  0
  -25.2450  -13.8700   20.4270 C   0  0  0  0  0  0  0  0  0  0  0  0
  -24.2060  -13.0860   20.8480 C   0  0  0  0  0  0  0  0  0  0  0  0
  -24.6620  -11.7360   20.7430 C   0  0  0  0  0  0  0  0  0  0  0  0
  -26.2600  -13.0000   20.0750 N   0  0  0  0  0  0  0  0  0  0  0  0
  -25.9270  -11.7060   20.3310 N   0  0  0  0  0  0  0  0  0  0  0  0
  -23.9400  -10.4710   20.9450 C   0  0  0  0  0  0  0  0  0  0  0  0
  -24.3920   -9.4970   21.8620 C   0  0  0  0  0  3  0  0  0  0  0  0
  -23.6630   -8.3030   22.0570 C   0  0  0  0  0  3  0  0  0  0  0  0
  -22.4680   -8.0740   21.3340 C   0  0  0  0  0  0  0  0  0  0  0  0
  -22.0350   -9.0350   20.4040 C   0  0  0  0  0  3  0  0  0  0  0  0
  -22.7660  -10.2190   20.2070 C   0  0  0  0  0  3  0  0  0  0  0  0
  -21.7140   -6.9290   21.4340 O   0  0  0  0  0  0  0  0  0  0  0  0
  -21.6580   -6.2050   22.5970 C   0  0  0  0  0  0  0  0  0  0  0  0
  -21.2100   -6.7730   23.8090 C   0  0  0  0  0  3  0  0  0  0  0  0
  -21.0990   -5.9720   24.9630 C   0  0  0  0  0  3  0  0  0  0  0  0
  -21.4320   -4.6060   24.9090 C   0  0  0  0  0  0  0  0  0  0  0  0
  -21.8780   -4.0380   23.7030 C   0  0  0  0  0  3  0  0  0  0  0  0
  -21.9850   -4.8350   22.5480 C   0  0  0  0  0  0  0  0  0  0  0  0
  -22.3940   -4.2760   21.3830 F   0  0  0  0  0  0  0  0  0  0  0  0
  -21.3210   -3.8360   26.0160 F   0  0  0  0  0  0  0  0  0  0  0  0
  -22.8350  -13.5640   21.2300 C   0  0  0  0  0  0  0  0  0  0  0  0
  -22.1570  -12.8470   22.1200 N   0  0  0  0  0  0  0  0  0  0  0  0
  -22.3720  -14.6090   20.7740 O   0  0  0  0  0  0  0  0  0  0  0  0
  -22.5410  -12.0040   22.5190 H   0  0  0  0  0  0  0  0  0  0  0  0
  -21.2410  -13.1530   22.4140 H   0  0  0  0  0  0  0  0  0  0  0  0
  -25.4020  -15.2460   20.2850 N   0  0  0  0  0  0  0  0  0  0  0  0
  -24.6590  -15.8990   20.5100 H   0  0  0  0  0  0  0  0  0  0  0  0
  -26.2120  -15.6950   19.8780 H   0  0  0  0  0  0  0  0  0  0  0  0
  -27.9560  -24.1030   19.8630 C   0  0  0  0  0  2  0  0  0  0  0  0
  -28.1800  -25.7030   20.2890 O   0  0  0  0  0  0  0  0  0  0  0  0
  -24.6480  -31.7370   23.2350 C   0  0  0  0  0  0  0  0  0  0  0  0
  -27.2020  -26.8420   20.1940 C   0  0  0  0  0  0  0  0  0  0  0  0
  -23.4710  -30.3630   21.5710 C   0  0  0  0  0  3  0  0  0  0  0  0
  -24.9300  -28.7690   20.1390 C   0  0  0  0  0  0  0  0  0  0  0  0
  -26.0420  -30.5500   21.4630 C   0  0  0  0  0  2  0  0  0  0  0  0
  -26.1110  -29.1450   20.7870 C   0  0  0  0  0  0  0  0  0  0  0  0
  -27.2390  -28.2030   20.7940 C   0  0  0  0  0  3  0  0  0  0  0  0
  -25.9970  -26.6340   19.4880 C   0  0  0  0  0  3  0  0  0  0  0  0
  -24.9020  -27.5370   19.4660 C   0  0  0  0  0  3  0  0  0  0  0  0
  -23.7180  -29.7000   20.1850 C   0  0  0  0  0  2  0  0  0  0  0  0
  -24.7420  -30.9130   22.1430 N   0  0  0  0  0  0  0  0  0  0  0  0
  -23.5500  -32.0270   23.7430 O   0  0  0  0  0  0  0  0  0  0  0  0
  -22.7600  -29.3570   22.5160 C   0  0  0  0  0  0  0  0  0  0  0  0
  -21.4330  -29.1980   22.3730 N   0  0  0  0  0  0  0  0  0  0  0  0
  -23.4130  -28.7240   23.3500 O   0  0  0  0  0  0  0  0  0  0  0  0
  -20.9620  -29.7610   21.6800 H   0  0  0  0  0  0  0  0  0  0  0  0
  -18.0350  -27.9990   22.8250 C   0  0  0  0  0  0  0  0  0  0  0  0
  -20.5930  -28.2530   23.1180 C   0  0  0  0  0  3  0  0  0  0  0  0
  -20.6970  -26.8290   22.5220 C   0  0  0  0  0  2  0  0  0  0  0  0
  -19.6040  -26.5250   21.4930 C   0  0  0  0  0  2  0  0  0  0  0  0
  -18.2160  -26.6620   22.1260 C   0  0  0  0  0  2  0  0  0  0  0  0
  -19.1510  -28.7530   23.2760 C   0  0  0  0  0  0  0  0  0  0  0  0
  -18.9270  -30.0030   23.8930 C   0  0  0  0  0  3  0  0  0  0  0  0
  -17.6210  -30.4980   24.0600 C   0  0  0  0  0  3  0  0  0  0  0  0
  -16.5180  -29.7420   23.6230 C   0  0  0  0  0  3  0  0  0  0  0  0
  -16.7270  -28.4920   23.0120 C   0  0  0  0  0  3  0  0  0  0  0  0
  -25.9080  -32.3710   23.8960 C   0  0  0  0  0  3  0  0  0  0  0  0
  -26.3690  -31.6140   25.2030 C   0  0  1  0  0  0  0  0  0  0  0  0
  -25.2330  -31.4090   26.2360 C   0  0  0  0  0  1  0  0  0  0  0  0
  -26.9480  -30.2240   24.8600 C   0  0  0  0  0  1  0  0  0  0  0  0
  -27.5080  -32.4020   25.8920 C   0  0  0  0  0  1  0  0  0  0  0  0
  -25.6000  -33.7770   24.2110 N   0  0  0  0  0  0  0  0  0  0  0  0
  -25.9380  -34.8290   23.4520 C   0  0  0  0  0  0  0  0  0  0  0  0
  -26.6050  -34.7160   22.4210 O   0  0  0  0  0  0  0  0  0  0  0  0
  -24.9990  -33.9360   25.0060 H   0  0  0  0  0  0  0  0  0  0  0  0
  -24.2090  -36.6320   23.1190 C   0  0  0  0  0  1  0  0  0  0  0  0
  -25.4650  -36.2260   23.9070 C   0  0  0  0  0  3  0  0  0  0  0  0
  -27.6150  -37.1230   24.6860 C   0  0  0  0  0  1  0  0  0  0  0  0
  -26.4980  -37.2760   23.7580 N   0  0  0  0  0  0  0  0  0  0  0  0
  -26.0970  -38.2010   23.8920 H   0  0  0  0  0  0  0  0  0  0  0  0
  1  3  1  0
  2  4  1  0
  2  5  2  0
  3  8  1  0
  4  1  2  0
  5  6  1  0
  6  3  2  0
  6  7  1  0
  8 10  2  0
  8  9  1  0
  9 12  1  0
 11  9  1  0
 13 22  1  0
 13  5  1  0
 14 22  1  0
 15 20  1  0
 16 17  1  0
 16 15  1  0
 18 17  1  0
 18 27  1  0
 18 19  1  0
 20 14  1  0
 20 19  1  0
 21 14  2  0
 22 23  1  0
 24 25  2  0
 25 44  1  0
 26 25  1  0
 26 29  1  0
 27 28  1  0
 27 24  1  0
 28 26  2  0
 29 30  1  0
 30 31  2  0
 32 35  1  0
 32 31  1  0
 33 32  2  0
 34 33  1  0
 34 29  2  0
 35 36  1  0
 36 37  1  0
 37 38  2  0
 39 38  1  0
 39 43  1  0
 40 39  2  0
 41 36  2  0
 41 40  1  0
 42 41  1  0
 44 45  1  0
 45 48  1  0
 45 47  1  0
 46 44  2  0
 49 24  1  0
 49 50  1  0
 51 49  1  0
 52 53  1  0
 52  4  1  0
 54 65  2  0
 55 53  1  0
 55 60  1  0
 56 64  1  0
 56 66  1  0
 57 63  1  0
 57 59  1  0
 58 64  1  0
 59 60  2  0
 59 58  1  0
 61 55  2  0
 62 61  1  0
 62 57  2  0
 63 56  1  0
 64 54  1  0
 66 68  2  0
 67 66  1  0
 69 67  1  0
 70 79  2  0
 70 75  1  0
 71 67  1  0
 71 75  1  0
 72 71  1  0
 73 74  1  0
 73 72  1  0
 74 70  1  0
 75 76  2  0
 76 77  1  0
 78 77  2  0
 79 78  1  0
 80 54  1  0
 80 85  1  0
 80 81  1  0
 81 84  1  1
 81 82  1  0
 83 81  1  0
 85 88  1  0
 86 90  1  0
 86 85  1  0
 87 86  2  0
 90 89  1  0
 92 93  1  0
 92 90  1  0
 92 91  1  0
M  ISO  4  14 100  22 100  52 101  53 101
M  END
>  <TORSDO>  (11) 
F 19

>  <SCORE>  (11) 
-15.428

>  <name>  (11) 
10

>  <ligand_id>  (11) 
10

>  <original_smiles>  (11) 
[H]c1c([H])c([H])c2c(c1[H])C([H])([H])C([H])([H])C([H])([H])C2([H])N([H])C(=O)C1([H])N(C(=O)C([H])(N([H])C(=O)C([H])(N([H])C([H])([H])[H])C([H])([H])[H])C(C([H])([H])[H])(C([H])([H])[H])C([H])([H])[H])C([H])([H])c2c([H])c(OC([H])([H])c3c([H])c(C(=O)N([H])[H])c(C([H])([H])[H])c(C([H])([H])N([H])C(=O)N4C([H])([H])C([H])([H])C([H])([H])C([H])(n5nc(-c6c([H])c([H])c(Oc7c([H])c([H])c(F)c([H])c7F)c([H])c6[H])c(C(=O)N([H])[H])c5N([H])[H])C4([H])[H])c3[H])c([H])c([H])c2C1([H])[H]

>  <smiles>  (11) 
[H]c1c([H])c([H])c2c(c1[H])C([H])([H])C([H])([H])C([H])([H])C2([H])N([H])C(=O)C1([H])N(C(=O)C([H])(N([H])C(=O)C([H])(N([H])C([H])([H])[H])C([H])([H])[H])C(C([H])([H])[H])(C([H])([H])[H])C([H])([H])[H])C([H])([H])c2c([H])c(OC([H])([H])c3c([H])c(C(=O)N([H])[H])c(C([H])([H])[H])c(C([H])([H])N([H])C(=O)N4C([H])([H])C([H])([H])C([H])([H])C([H])(n5nc(-c6c([H])c([H])c(Oc7c([H])c([H])c(F)c([H])c7F)c([H])c6[H])c(C(=O)N([H])[H])c5N([H])[H])C4([H])[H])c3[H])c([H])c([H])c2C1([H])[H]

$$$$
11:0:0
     RDKit          3D

 94103  0  0  1  0  0  0  0  0999 V2000
  -28.7010  -19.4210   20.7730 C   0  0  0  0  0  3  0  0  0  0  0  0
  -28.7220  -17.9950   20.7840 C   0  0  0  0  0  3  0  0  0  0  0  0
  -31.0390  -18.0070   20.1780 C   0  0  0  0  0  3  0  0  0  0  0  0
  -29.8510  -20.1990   20.4770 C   0  0  0  0  0  0  0  0  0  0  0  0
  -31.0370  -19.4450   20.1670 C   0  0  0  0  0  0  0  0  0  0  0  0
  -29.8890  -17.2370   20.4990 C   0  0  0  0  0  0  0  0  0  0  0  0
  -30.6130  -14.7400   20.1230 C   0  0  0  0  0  0  0  0  0  0  0  0
  -30.3620  -12.5280   19.0030 C   0  0  0  0  0  2  0  0  0  0  0  0
  -29.3520  -12.6870   17.8420 C   0  0  0  0  0  2  0  0  0  0  0  0
  -27.9020  -12.5240   18.3400 C   0  0  0  0  0  2  0  0  0  0  0  0
  -27.6120  -13.3450   19.6240 C   0  0  0  0  0  3  0  0  0  0  0  0
  -28.7260  -13.1420   20.6760 C   0  0  0  0  0  2  0  0  0  0  0  0
  -30.0040  -13.5110   20.0460 N   0  0  0  0  0  0  0  0  0  0  0  0
  -31.7490  -14.9180   19.6760 O   0  0  0  0  0  0  0  0  0  0  0  0
  -29.8140  -15.7690   20.5660 N   0  0  0  0  0  0  0  0  0  0  0  0
  -28.9360  -15.4220   20.9210 H   0  0  0  0  0  0  0  0  0  0  0  0
  -25.2580  -13.9340   20.4670 C   0  0  0  0  0  0  0  0  0  0  0  0
  -24.2080  -13.1570   20.8770 C   0  0  0  0  0  0  0  0  0  0  0  0
  -24.6630  -11.8050   20.7900 C   0  0  0  0  0  0  0  0  0  0  0  0
  -26.2870  -13.0570   20.1660 N   0  0  0  0  0  0  0  0  0  0  0  0
  -25.9370  -11.7700   20.4180 N   0  0  0  0  0  0  0  0  0  0  0  0
  -23.9420  -10.5400   20.9830 C   0  0  0  0  0  0  0  0  0  0  0  0
  -24.3890   -9.5680   21.9040 C   0  0  0  0  0  3  0  0  0  0  0  0
  -23.6670   -8.3680   22.0860 C   0  0  0  0  0  3  0  0  0  0  0  0
  -22.4860   -8.1320   21.3440 C   0  0  0  0  0  0  0  0  0  0  0  0
  -22.0580   -9.0930   20.4110 C   0  0  0  0  0  3  0  0  0  0  0  0
  -22.7800  -10.2840   20.2280 C   0  0  0  0  0  3  0  0  0  0  0  0
  -21.7350   -6.9850   21.4350 O   0  0  0  0  0  0  0  0  0  0  0  0
  -21.6590   -6.2660   22.6010 C   0  0  0  0  0  0  0  0  0  0  0  0
  -21.1400   -6.8240   23.7900 C   0  0  0  0  0  3  0  0  0  0  0  0
  -21.0160   -6.0270   24.9460 C   0  0  0  0  0  3  0  0  0  0  0  0
  -21.4010   -4.6740   24.9140 C   0  0  0  0  0  0  0  0  0  0  0  0
  -21.9130   -4.1150   23.7300 C   0  0  0  0  0  3  0  0  0  0  0  0
  -22.0400   -4.9080   22.5760 C   0  0  0  0  0  0  0  0  0  0  0  0
  -22.5130   -4.3590   21.4310 F   0  0  0  0  0  0  0  0  0  0  0  0
  -21.2750   -3.9060   26.0220 F   0  0  0  0  0  0  0  0  0  0  0  0
  -22.8280  -13.6310   21.2280 C   0  0  0  0  0  0  0  0  0  0  0  0
  -22.1440  -12.9180   22.1170 N   0  0  0  0  0  0  0  0  0  0  0  0
  -22.3690  -14.6670   20.7530 O   0  0  0  0  0  0  0  0  0  0  0  0
  -22.5320  -12.0790   22.5230 H   0  0  0  0  0  0  0  0  0  0  0  0
  -21.2200  -13.2150   22.3940 H   0  0  0  0  0  0  0  0  0  0  0  0
  -25.4140  -15.3070   20.3010 N   0  0  0  0  0  0  0  0  0  0  0  0
  -24.6270  -15.9390   20.4020 H   0  0  0  0  0  0  0  0  0  0  0  0
  -26.1960  -15.7270   19.8150 H   0  0  0  0  0  0  0  0  0  0  0  0
  -32.3540  -20.1590   19.8560 C   0  0  1  0  0  0  0  0  0  0  0  0
  -33.3100  -19.3060   19.4840 F   0  0  0  0  0  0  0  0  0  0  0  0
  -32.1990  -21.0330   18.8640 F   0  0  0  0  0  0  0  0  0  0  0  0
  -32.7850  -20.8050   20.9400 F   0  0  0  0  0  0  0  0  0  0  0  0
  -28.6910  -22.6490   21.2410 C   0  0  0  0  0  2  0  0  0  0  0  0
  -29.7020  -22.8380   19.4580 C   0  0  0  0  0  2  0  0  0  0  0  0
  -29.8260  -21.7840   20.6050 C   0  0  0  0  0  3  0  0  0  0  0  0
  -29.1610  -23.9220   20.4550 C   0  0  0  0  0  3  0  0  0  0  0  0
  -28.1410  -25.0660   20.0150 C   0  0  0  0  0  2  0  0  0  0  0  0
  -28.3580  -26.5070   20.3290 O   0  0  0  0  0  0  0  0  0  0  0  0
  -24.6260  -31.9180   23.3380 C   0  0  0  0  0  0  0  0  0  0  0  0
  -27.2480  -27.3760   20.2560 C   0  0  0  0  0  0  0  0  0  0  0  0
  -23.4290  -30.5320   21.6830 C   0  0  0  0  0  3  0  0  0  0  0  0
  -24.8840  -29.0000   20.2430 C   0  0  0  0  0  0  0  0  0  0  0  0
  -25.9690  -30.8500   21.5140 C   0  0  0  0  0  2  0  0  0  0  0  0
  -26.0500  -29.4770   20.8550 C   0  0  0  0  0  0  0  0  0  0  0  0
  -27.2330  -28.6760   20.8550 C   0  0  0  0  0  3  0  0  0  0  0  0
  -26.0610  -26.9690   19.6010 C   0  0  0  0  0  3  0  0  0  0  0  0
  -24.8930  -27.7520   19.6060 C   0  0  0  0  0  3  0  0  0  0  0  0
  -23.6440  -29.8700   20.2980 C   0  0  0  0  0  2  0  0  0  0  0  0
  -24.6930  -31.1170   22.2350 N   0  0  0  0  0  0  0  0  0  0  0  0
  -23.5410  -32.1930   23.8700 O   0  0  0  0  0  0  0  0  0  0  0  0
  -22.7640  -29.5070   22.6330 C   0  0  0  0  0  0  0  0  0  0  0  0
  -21.4430  -29.3140   22.4890 N   0  0  0  0  0  0  0  0  0  0  0  0
  -23.4390  -28.8870   23.4600 O   0  0  0  0  0  0  0  0  0  0  0  0
  -20.9590  -29.8670   21.7950 H   0  0  0  0  0  0  0  0  0  0  0  0
  -18.0660  -28.1000   22.9570 C   0  0  0  0  0  0  0  0  0  0  0  0
  -20.6220  -28.3690   23.2490 C   0  0  0  0  0  3  0  0  0  0  0  0
  -20.7340  -26.9400   22.6680 C   0  0  0  0  0  2  0  0  0  0  0  0
  -19.6420  -26.6180   21.6440 C   0  0  0  0  0  2  0  0  0  0  0  0
  -18.2540  -26.7550   22.2760 C   0  0  0  0  0  2  0  0  0  0  0  0
  -19.1780  -28.8650   23.3990 C   0  0  0  0  0  0  0  0  0  0  0  0
  -18.9480  -30.1260   23.9910 C   0  0  0  0  0  3  0  0  0  0  0  0
  -17.6400  -30.6180   24.1510 C   0  0  0  0  0  3  0  0  0  0  0  0
  -16.5420  -29.8500   23.7250 C   0  0  0  0  0  3  0  0  0  0  0  0
  -16.7560  -28.5930   23.1330 C   0  0  0  0  0  3  0  0  0  0  0  0
  -25.9080  -32.5460   23.9680 C   0  0  0  0  0  3  0  0  0  0  0  0
  -26.4030  -31.7830   25.2560 C   0  0  1  0  0  0  0  0  0  0  0  0
  -25.2940  -31.5590   26.3110 C   0  0  0  0  0  1  0  0  0  0  0  0
  -26.9870  -30.4010   24.8850 C   0  0  0  0  0  1  0  0  0  0  0  0
  -27.5470  -32.5780   25.9280 C   0  0  0  0  0  1  0  0  0  0  0  0
  -25.6060  -33.9500   24.2820 N   0  0  0  0  0  0  0  0  0  0  0  0
  -25.9160  -34.9910   23.4990 C   0  0  0  0  0  0  0  0  0  0  0  0
  -26.5610  -34.8710   22.4520 O   0  0  0  0  0  0  0  0  0  0  0  0
  -25.0350  -34.1180   25.0980 H   0  0  0  0  0  0  0  0  0  0  0  0
  -24.1680  -36.7690   23.1730 C   0  0  0  0  0  1  0  0  0  0  0  0
  -25.4400  -36.3860   23.9470 C   0  0  0  0  0  3  0  0  0  0  0  0
  -27.5910  -37.3050   24.6910 C   0  0  0  0  0  1  0  0  0  0  0  0
  -26.4630  -37.4400   23.7730 N   0  0  0  0  0  0  0  0  0  0  0  0
  -26.0570  -38.3630   23.9060 H   0  0  0  0  0  0  0  0  0  0  0  0
  1  2  1  0
  3  6  1  0
  4  1  2  0
  5  3  2  0
  5  4  1  0
  6 15  1  0
  6  2  2  0
  7 15  1  0
  8 13  1  0
  9 10  1  0
  9  8  1  0
 11 10  1  0
 11 20  1  0
 11 12  1  0
 13  7  1  0
 13 12  1  0
 14  7  2  0
 15 16  1  0
 17 18  2  0
 18 37  1  0
 19 18  1  0
 19 22  1  0
 20 21  1  0
 20 17  1  0
 21 19  2  0
 22 23  1  0
 23 24  2  0
 25 28  1  0
 25 24  1  0
 26 25  2  0
 27 26  1  0
 27 22  2  0
 28 29  1  0
 29 30  1  0
 30 31  2  0
 32 31  1  0
 32 36  1  0
 33 32  2  0
 34 29  2  0
 34 33  1  0
 35 34  1  0
 37 38  1  0
 38 41  1  0
 38 40  1  0
 39 37  2  0
 42 43  1  0
 42 17  1  0
 44 42  1  0
 45  5  1  0
 45 48  1  1
 46 45  1  0
 47 45  1  0
 50 52  1  0
 50 51  1  0
 51  4  1  0
 51 49  1  0
 52 53  1  0
 52 49  1  0
 53 54  1  0
 55 66  2  0
 56 54  1  0
 56 61  1  0
 57 65  1  0
 57 67  1  0
 58 64  1  0
 58 60  1  0
 59 65  1  0
 60 61  2  0
 60 59  1  0
 62 63  1  0
 62 56  2  0
 63 58  2  0
 64 57  1  0
 65 55  1  0
 67 69  2  0
 68 67  1  0
 70 68  1  0
 71 80  2  0
 71 76  1  0
 72 68  1  0
 72 76  1  0
 73 72  1  0
 74 75  1  0
 74 73  1  0
 75 71  1  0
 76 77  2  0
 77 78  1  0
 79 78  2  0
 80 79  1  0
 81 55  1  0
 81 86  1  0
 81 82  1  0
 82 85  1  1
 82 83  1  0
 84 82  1  0
 86 89  1  0
 87 91  1  0
 87 86  1  0
 88 87  2  0
 91 90  1  0
 93 94  1  0
 93 91  1  0
 93 92  1  0
M  ISO  4   7 100  15 100  53 101  54 101
M  END
>  <TORSDO>  (12) 
F 19

>  <SCORE>  (12) 
-14.246

>  <name>  (12) 
11

>  <ligand_id>  (12) 
11

>  <original_smiles>  (12) 
[H]c1c([H])c([H])c2c(c1[H])C([H])([H])C([H])([H])C([H])([H])C2([H])N([H])C(=O)C1([H])N(C(=O)C([H])(N([H])C(=O)C([H])(N([H])C([H])([H])[H])C([H])([H])[H])C(C([H])([H])[H])(C([H])([H])[H])C([H])([H])[H])C([H])([H])c2c([H])c(OC([H])([H])C3([H])C([H])([H])C([H])(c4c([H])c([H])c(N([H])C(=O)N5C([H])([H])C([H])([H])C([H])([H])C([H])(n6nc(-c7c([H])c([H])c(Oc8c([H])c([H])c(F)c([H])c8F)c([H])c7[H])c(C(=O)N([H])[H])c6N([H])[H])C5([H])[H])c([H])c4C(F)(F)F)C3([H])[H])c([H])c([H])c2C1([H])[H]

>  <smiles>  (12) 
[H]c1c([H])c([H])c2c(c1[H])C([H])([H])C([H])([H])C([H])([H])C2([H])N([H])C(=O)C1([H])N(C(=O)C([H])(N([H])C(=O)C([H])(N([H])C([H])([H])[H])C([H])([H])[H])C(C([H])([H])[H])(C([H])([H])[H])C([H])([H])[H])C([H])([H])c2c([H])c(OC([H])([H])C3([H])C([H])([H])C([H])(c4c([H])c([H])c(N([H])C(=O)N5C([H])([H])C([H])([H])C([H])([H])C([H])(n6nc(-c7c([H])c([H])c(Oc8c([H])c([H])c(F)c([H])c8F)c([H])c7[H])c(C(=O)N([H])[H])c6N([H])[H])C5([H])[H])c([H])c4C(F)(F)F)C3([H])[H])c([H])c([H])c2C1([H])[H]

$$$$
12:0:0
     RDKit          3D

 96104  0  0  1  0  0  0  0  0999 V2000
  -30.4450  -18.1870   19.5410 C   0  0  0  0  0  3  0  0  0  0  0  0
  -30.2490  -19.6120   19.3450 C   0  0  0  0  0  3  0  0  0  0  0  0
  -27.9270  -19.3770   19.6130 C   0  0  0  0  0  3  0  0  0  0  0  0
  -28.0870  -17.9260   19.7710 C   0  0  0  0  0  0  0  0  0  0  0  0
  -29.3840  -17.2480   19.7410 C   0  0  0  0  0  0  0  0  0  0  0  0
  -28.9880  -20.3010   19.3580 C   0  0  0  0  0  0  0  0  0  0  0  0
  -30.3210  -14.6780   19.2440 C   0  0  0  0  0  0  0  0  0  0  0  0
  -30.1250  -12.3460   18.2770 C   0  0  0  0  0  2  0  0  0  0  0  0
  -28.9090  -12.2920   17.3220 C   0  0  0  0  0  2  0  0  0  0  0  0
  -27.6130  -11.9880   18.0980 C   0  0  0  0  0  2  0  0  0  0  0  0
  -27.4760  -12.8500   19.3810 C   0  0  0  0  0  3  0  0  0  0  0  0
  -28.7830  -12.8690   20.2040 C   0  0  0  0  0  2  0  0  0  0  0  0
  -29.8470  -13.3710   19.3210 N   0  0  0  0  0  0  0  0  0  0  0  0
  -31.3550  -14.8830   18.5980 O   0  0  0  0  0  0  0  0  0  0  0  0
  -29.5410  -15.7180   19.7990 N   0  0  0  0  0  0  0  0  0  0  0  0
  -28.8560  -15.3100   20.4230 H   0  0  0  0  0  0  0  0  0  0  0  0
  -25.5020  -13.2610   20.9630 C   0  0  0  0  0  0  0  0  0  0  0  0
  -24.5170  -12.4400   21.4400 C   0  0  0  0  0  0  0  0  0  0  0  0
  -24.7960  -11.1420   20.9140 C   0  0  0  0  0  0  0  0  0  0  0  0
  -26.3210  -12.4600   20.1850 N   0  0  0  0  0  0  0  0  0  0  0  0
  -25.9220  -11.1620   20.2090 N   0  0  0  0  0  0  0  0  0  0  0  0
  -24.0240   -9.8960   20.9950 C   0  0  0  0  0  0  0  0  0  0  0  0
  -24.5680   -8.7250   21.5660 C   0  0  0  0  0  3  0  0  0  0  0  0
  -23.7990   -7.5440   21.6520 C   0  0  0  0  0  3  0  0  0  0  0  0
  -22.4690   -7.5270   21.1670 C   0  0  0  0  0  0  0  0  0  0  0  0
  -21.9390   -8.6890   20.5790 C   0  0  0  0  0  3  0  0  0  0  0  0
  -22.7090   -9.8620   20.4900 C   0  0  0  0  0  3  0  0  0  0  0  0
  -21.6560   -6.4190   21.1830 O   0  0  0  0  0  0  0  0  0  0  0  0
  -21.7360   -5.4830   22.1820 C   0  0  0  0  0  0  0  0  0  0  0  0
  -21.5610   -5.8250   23.5400 C   0  0  0  0  0  3  0  0  0  0  0  0
  -21.5810   -4.8200   24.5270 C   0  0  0  0  0  3  0  0  0  0  0  0
  -21.7670   -3.4730   24.1590 C   0  0  0  0  0  0  0  0  0  0  0  0
  -21.9370   -3.1310   22.8070 C   0  0  0  0  0  3  0  0  0  0  0  0
  -21.9180   -4.1330   21.8210 C   0  0  0  0  0  0  0  0  0  0  0  0
  -22.0610   -3.7930   20.5170 F   0  0  0  0  0  0  0  0  0  0  0  0
  -21.7800   -2.5060   25.1060 F   0  0  0  0  0  0  0  0  0  0  0  0
  -23.3300  -12.8580   22.2570 C   0  0  0  0  0  0  0  0  0  0  0  0
  -22.8440  -11.9790   23.1270 N   0  0  0  0  0  0  0  0  0  0  0  0
  -22.8550  -13.9900   22.1630 O   0  0  0  0  0  0  0  0  0  0  0  0
  -23.2470  -11.0590   23.2200 H   0  0  0  0  0  0  0  0  0  0  0  0
  -22.0580  -12.2320   23.7090 H   0  0  0  0  0  0  0  0  0  0  0  0
  -25.7570  -14.6210   21.1080 N   0  0  0  0  0  0  0  0  0  0  0  0
  -25.1440  -15.2300   21.6370 H   0  0  0  0  0  0  0  0  0  0  0  0
  -26.5390  -15.1080   20.6920 H   0  0  0  0  0  0  0  0  0  0  0  0
  -26.8330  -17.0990   19.9080 C   0  0  0  0  0  0  0  0  0  0  0  0
  -26.8500  -15.8760   20.0980 O   0  0  0  0  0  0  0  0  0  0  0  0
  -25.4590  -17.7890   19.8560 C   0  0  0  0  0  2  0  0  0  0  0  0
  -24.3320  -16.9470   19.2020 C   0  0  0  0  0  2  0  0  0  0  0  0
  -22.9450  -16.1720   21.1120 C   0  0  0  0  0  1  0  0  0  0  0  0
  -23.3080  -14.7010   19.1790 C   0  0  0  0  0  1  0  0  0  0  0  0
  -23.8620  -15.7920   20.0130 N   0  0  1  0  0  4  0  0  0  0  0  0
  -24.6980  -15.4060   20.4400 H   0  0  0  0  0  0  0  0  0  0  0  0
  -28.9060  -21.7210   19.0020 O   0  0  0  0  0  0  0  0  0  0  0  0
  -28.2690  -22.9320   19.7010 C   0  0  0  0  0  2  0  0  0  0  0  0
  -27.8420  -24.3520   18.8920 C   0  0  0  0  0  2  0  0  0  0  0  0
  -28.0730  -25.8480   19.2750 O   0  0  0  0  0  0  0  0  0  0  0  0
  -24.7390  -31.3800   22.7930 C   0  0  0  0  0  0  0  0  0  0  0  0
  -27.0330  -26.8490   19.2970 C   0  0  0  0  0  0  0  0  0  0  0  0
  -23.4160  -30.1290   21.1320 C   0  0  0  0  0  3  0  0  0  0  0  0
  -24.7450  -28.6360   19.5160 C   0  0  0  0  0  0  0  0  0  0  0  0
  -25.9620  -30.3550   20.8410 C   0  0  0  0  0  2  0  0  0  0  0  0
  -25.9640  -29.0120   20.0910 C   0  0  0  0  0  0  0  0  0  0  0  0
  -27.1040  -28.1340   19.9720 C   0  0  0  0  0  3  0  0  0  0  0  0
  -25.7920  -26.5900   18.6690 C   0  0  0  0  0  3  0  0  0  0  0  0
  -24.6710  -27.4390   18.7900 C   0  0  0  0  0  3  0  0  0  0  0  0
  -23.5410  -29.5480   19.6980 C   0  0  0  0  0  2  0  0  0  0  0  0
  -24.7280  -30.6390   21.6430 N   0  0  0  0  0  0  0  0  0  0  0  0
  -23.6930  -31.6490   23.4010 O   0  0  0  0  0  0  0  0  0  0  0  0
  -22.7700  -29.0680   22.0580 C   0  0  0  0  0  0  0  0  0  0  0  0
  -21.4320  -28.9400   22.0060 N   0  0  0  0  0  0  0  0  0  0  0  0
  -23.4730  -28.3640   22.7880 O   0  0  0  0  0  0  0  0  0  0  0  0
  -20.9210  -29.5590   21.3920 H   0  0  0  0  0  0  0  0  0  0  0  0
  -18.0560  -27.7870   22.6300 C   0  0  0  0  0  0  0  0  0  0  0  0
  -20.6330  -27.9710   22.7590 C   0  0  0  0  0  3  0  0  0  0  0  0
  -20.6610  -26.5810   22.0810 C   0  0  0  0  0  2  0  0  0  0  0  0
  -19.4940  -26.3570   21.1160 C   0  0  0  0  0  2  0  0  0  0  0  0
  -18.1560  -26.4860   21.8500 C   0  0  0  0  0  2  0  0  0  0  0  0
  -19.2180  -28.4920   23.0420 C   0  0  0  0  0  0  0  0  0  0  0  0
  -19.0680  -29.7120   23.7360 C   0  0  0  0  0  3  0  0  0  0  0  0
  -17.7880  -30.2280   24.0180 C   0  0  0  0  0  3  0  0  0  0  0  0
  -16.6420  -29.5190   23.6190 C   0  0  0  0  0  3  0  0  0  0  0  0
  -16.7770  -28.3000   22.9310 C   0  0  0  0  0  3  0  0  0  0  0  0
  -26.0670  -31.9440   23.3860 C   0  0  0  0  0  3  0  0  0  0  0  0
  -25.7880  -33.2940   23.9010 N   0  0  0  0  0  0  0  0  0  0  0  0
  -26.1170  -34.4330   23.2770 C   0  0  0  0  0  0  0  0  0  0  0  0
  -26.7560  -34.4540   22.2220 O   0  0  0  0  0  0  0  0  0  0  0  0
  -25.2170  -33.3510   24.7320 H   0  0  0  0  0  0  0  0  0  0  0  0
  -24.4180  -36.2880   23.2120 C   0  0  0  0  0  1  0  0  0  0  0  0
  -25.6710  -35.7580   23.9270 C   0  0  0  0  0  3  0  0  0  0  0  0
  -27.8430  -36.4940   24.8070 C   0  0  0  0  0  1  0  0  0  0  0  0
  -26.7210  -36.8000   23.9230 N   0  0  0  0  0  0  0  0  0  0  0  0
  -26.3360  -37.6990   24.1990 H   0  0  0  0  0  0  0  0  0  0  0  0
  -26.6700  -31.0360   24.5270 C   0  0  1  0  0  0  0  0  0  0  0  0
  -25.6600  -30.6840   25.6430 C   0  0  0  0  0  1  0  0  0  0  0  0
  -27.2090  -29.7070   23.9480 C   0  0  0  0  0  1  0  0  0  0  0  0
  -27.8770  -31.7490   25.1820 C   0  0  0  0  0  1  0  0  0  0  0  0
  1  5  1  0
  2  6  1  0
  2  1  2  0
  3  4  1  0
  4 45  1  0
  5  4  2  0
  5 15  1  0
  6  3  2  0
  7 13  1  0
  7 15  1  0
  8 13  1  0
  9 10  1  0
  9  8  1  0
 11 10  1  0
 11 20  1  0
 11 12  1  0
 13 12  1  0
 14  7  2  0
 15 16  1  0
 17 42  1  0
 17 18  2  0
 18 37  1  0
 19 22  1  0
 19 18  1  0
 20 21  1  0
 20 17  1  0
 21 19  2  0
 22 23  1  0
 23 24  2  0
 25 28  1  0
 25 24  1  0
 26 25  2  0
 27 26  1  0
 27 22  2  0
 28 29  1  0
 29 30  1  0
 30 31  2  0
 32 31  1  0
 32 36  1  0
 33 32  2  0
 34 29  2  0
 34 33  1  0
 35 34  1  0
 37 38  1  0
 38 40  1  0
 38 41  1  0
 39 37  2  0
 42 43  1  0
 44 42  1  0
 45 46  2  0
 47 45  1  0
 48 47  1  0
 48 51  1  0
 50 51  1  0
 51 52  1  1
 51 49  1  0
 53  6  1  0
 53 54  1  0
 55 56  1  0
 55 54  1  0
 56 58  1  0
 57 68  2  0
 58 63  1  0
 59 67  1  0
 59 69  1  0
 60 66  1  0
 60 62  1  0
 61 67  1  0
 62 61  1  0
 63 62  2  0
 64 65  1  0
 64 58  2  0
 65 60  2  0
 66 59  1  0
 67 57  1  0
 69 71  2  0
 70 69  1  0
 72 70  1  0
 73 82  2  0
 73 78  1  0
 74 70  1  0
 74 78  1  0
 75 74  1  0
 76 77  1  0
 76 75  1  0
 77 73  1  0
 78 79  2  0
 79 80  1  0
 81 80  2  0
 82 81  1  0
 83 57  1  0
 83 84  1  0
 83 93  1  0
 84 87  1  0
 85 84  1  0
 85 89  1  0
 86 85  2  0
 89 88  1  0
 91 89  1  0
 91 92  1  0
 91 90  1  0
 93 96  1  1
 93 94  1  0
 95 93  1  0
M  ISO  4   7 100  15 100  55 101  56 101
M  END
>  <TORSDO>  (13) 
F 23

>  <SCORE>  (13) 
-2.232

>  <name>  (13) 
12

>  <ligand_id>  (13) 
12

>  <original_smiles>  (13) 
[H]c1c([H])c([H])c2c(c1[H])C([H])([H])C([H])([H])C([H])([H])C2([H])N([H])C(=O)C1([H])N(C(=O)C([H])(N([H])C(=O)C([H])(N([H])C([H])([H])[H])C([H])([H])[H])C(C([H])([H])[H])(C([H])([H])[H])C([H])([H])[H])C([H])([H])c2c([H])c(OC([H])([H])C([H])([H])Oc3c([H])c([H])c(N([H])C(=O)N4C([H])([H])C([H])([H])C([H])([H])C([H])(n5nc(-c6c([H])c([H])c(Oc7c([H])c([H])c(F)c([H])c7F)c([H])c6[H])c(C(=O)N([H])[H])c5N([H])[H])C4([H])[H])c(C(=O)C([H])([H])C([H])([H])[N+]([H])(C([H])([H])[H])C([H])([H])[H])c3[H])c([H])c([H])c2C1([H])[H]

>  <smiles>  (13) 
[H]c1c([H])c([H])c2c(c1[H])C([H])([H])C([H])([H])C([H])([H])C2([H])N([H])C(=O)C1([H])N(C(=O)C([H])(N([H])C(=O)C([H])(N([H])C([H])([H])[H])C([H])([H])[H])C(C([H])([H])[H])(C([H])([H])[H])C([H])([H])[H])C([H])([H])c2c([H])c(OC([H])([H])C([H])([H])Oc3c([H])c([H])c(N([H])C(=O)N4C([H])([H])C([H])([H])C([H])([H])C([H])(n5nc(-c6c([H])c([H])c(Oc7c([H])c([H])c(F)c([H])c7F)c([H])c6[H])c(C(=O)N([H])[H])c5N([H])[H])C4([H])[H])c(C(=O)C([H])([H])C([H])([H])[N+]([H])(C([H])([H])[H])C([H])([H])[H])c3[H])c([H])c([H])c2C1([H])[H]

$$$$
13:0:0
     RDKit          3D

101109  0  0  1  0  0  0  0  0999 V2000
  -27.1570  -20.5430   20.0020 C   0  0  0  0  0  2  0  0  0  0  0  0
  -29.9050  -18.5560   18.2320 C   0  0  0  0  0  3  0  0  0  0  0  0
  -28.9600  -19.5510   18.5310 C   0  0  0  0  0  3  0  0  0  0  0  0
  -29.4610  -17.4620   20.3720 C   0  0  0  0  0  0  0  0  0  0  0  0
  -30.1530  -17.4840   19.1190 C   0  0  0  0  0  0  0  0  0  0  0  0
  -28.2030  -19.4730   19.7130 C   0  0  0  0  0  0  0  0  0  0  0  0
  -28.4580  -18.4330   20.6330 C   0  0  0  0  0  0  0  0  0  0  0  0
  -27.7280  -18.3800   21.7740 F   0  0  0  0  0  0  0  0  0  0  0  0
  -29.7300  -16.4640   21.4450 C   0  0  0  0  0  0  0  0  0  0  0  0
  -30.4210  -16.9940   22.6940 C   0  0  0  0  0  1  0  0  0  0  0  0
  -29.4730  -15.2620   21.3730 O   0  0  0  0  0  0  0  0  0  0  0  0
  -32.6300  -16.8190   18.8940 C   0  0  0  0  0  1  0  0  0  0  0  0
  -31.1650  -16.4260   18.6500 C   0  0  0  0  0  3  0  0  0  0  0  0
  -31.3730  -13.9330   18.7400 C   0  0  0  0  0  0  0  0  0  0  0  0
  -31.2070  -11.4710   18.7950 C   0  0  0  0  0  2  0  0  0  0  0  0
  -30.1690  -10.9530   17.7830 C   0  0  0  0  0  2  0  0  0  0  0  0
  -28.7560  -10.9560   18.3950 C   0  0  0  0  0  2  0  0  0  0  0  0
  -28.4010  -12.3050   19.0720 C   0  0  0  0  0  3  0  0  0  0  0  0
  -29.5400  -12.7470   20.0160 C   0  0  0  0  0  2  0  0  0  0  0  0
  -30.7960  -12.8110   19.2450 N   0  0  0  0  0  0  0  0  0  0  0  0
  -32.3060  -13.9040   17.9330 O   0  0  0  0  0  0  0  0  0  0  0  0
  -30.8650  -15.0930   19.1750 N   0  0  0  0  0  0  0  0  0  0  0  0
  -30.1360  -15.0500   19.8770 H   0  0  0  0  0  0  0  0  0  0  0  0
  -26.2930  -13.2460   20.2180 C   0  0  0  0  0  0  0  0  0  0  0  0
  -25.1830  -12.6300   20.7320 C   0  0  0  0  0  0  0  0  0  0  0  0
  -25.3920  -11.2270   20.5570 C   0  0  0  0  0  0  0  0  0  0  0  0
  -27.1180  -12.2260   19.7680 N   0  0  0  0  0  0  0  0  0  0  0  0
  -26.5870  -11.0040   20.0270 N   0  0  0  0  0  0  0  0  0  0  0  0
  -24.5010  -10.0880   20.8120 C   0  0  0  0  0  0  0  0  0  0  0  0
  -24.8360   -9.0860   21.7510 C   0  0  0  0  0  3  0  0  0  0  0  0
  -23.9560   -8.0080   21.9930 C   0  0  0  0  0  3  0  0  0  0  0  0
  -22.7240   -7.9280   21.2990 C   0  0  0  0  0  0  0  0  0  0  0  0
  -22.4080   -8.9160   20.3470 C   0  0  0  0  0  3  0  0  0  0  0  0
  -23.2870   -9.9840   20.1030 C   0  0  0  0  0  3  0  0  0  0  0  0
  -21.8200   -6.9050   21.4480 O   0  0  0  0  0  0  0  0  0  0  0  0
  -21.6290   -6.2850   22.6570 C   0  0  0  0  0  0  0  0  0  0  0  0
  -21.2230   -7.0010   23.8050 C   0  0  0  0  0  3  0  0  0  0  0  0
  -20.9720   -6.3150   25.0110 C   0  0  0  0  0  3  0  0  0  0  0  0
  -21.1140   -4.9160   25.0680 C   0  0  0  0  0  0  0  0  0  0  0  0
  -21.5110   -4.2010   23.9230 C   0  0  0  0  0  3  0  0  0  0  0  0
  -21.7640   -4.8830   22.7210 C   0  0  0  0  0  0  0  0  0  0  0  0
  -22.1280   -4.1880   21.6170 F   0  0  0  0  0  0  0  0  0  0  0  0
  -20.8630   -4.2540   26.2220 F   0  0  0  0  0  0  0  0  0  0  0  0
  -23.9510  -13.3030   21.2690 C   0  0  0  0  0  0  0  0  0  0  0  0
  -23.2910  -12.6830   22.2410 N   0  0  0  0  0  0  0  0  0  0  0  0
  -23.5940  -14.4070   20.8600 O   0  0  0  0  0  0  0  0  0  0  0  0
  -23.5950  -11.7850   22.5870 H   0  0  0  0  0  0  0  0  0  0  0  0
  -22.4710  -13.1140   22.6460 H   0  0  0  0  0  0  0  0  0  0  0  0
  -26.6640  -14.5810   20.0740 N   0  0  0  0  0  0  0  0  0  0  0  0
  -26.0640  -15.3480   20.3500 H   0  0  0  0  0  0  0  0  0  0  0  0
  -27.5230  -14.8870   19.6340 H   0  0  0  0  0  0  0  0  0  0  0  0
  -26.2530  -20.7260   18.8440 N   0  0  0  0  0  4  0  0  0  0  0  0
  -25.5210  -20.0390   18.9130 H   0  0  0  0  0  0  0  0  0  0  0  0
  -26.7680  -20.5430   18.0020 H   0  0  0  0  0  0  0  0  0  0  0  0
  -25.6250  -22.0580   18.7000 C   0  0  0  0  0  2  0  0  0  0  0  0
  -26.6000  -23.0970   18.1060 C   0  0  0  0  0  2  0  0  0  0  0  0
  -27.4160  -23.6990   19.1510 N   0  0  0  0  0  0  0  0  0  0  0  0
  -26.8170  -24.2600   19.7520 H   0  0  0  0  0  0  0  0  0  0  0  0
  -28.4240  -24.5770   18.5680 C   0  0  0  0  0  2  0  0  0  0  0  0
  -28.9000  -25.5920   19.6210 C   0  0  0  0  0  2  0  0  0  0  0  0
  -28.7410  -26.9230   19.1450 O   0  0  0  0  0  0  0  0  0  0  0  0
  -24.6770  -31.2820   22.9710 C   0  0  0  0  0  0  0  0  0  0  0  0
  -27.4930  -27.4780   19.2880 C   0  0  0  0  0  0  0  0  0  0  0  0
  -23.4890  -29.9580   21.2470 C   0  0  0  0  0  3  0  0  0  0  0  0
  -24.9740  -28.7200   19.5850 C   0  0  0  0  0  0  0  0  0  0  0  0
  -25.9490  -30.5740   20.9500 C   0  0  0  0  0  2  0  0  0  0  0  0
  -26.1120  -29.2890   20.1700 C   0  0  0  0  0  0  0  0  0  0  0  0
  -27.3700  -28.6710   20.0260 C   0  0  0  0  0  3  0  0  0  0  0  0
  -26.3430  -26.9200   18.6850 C   0  0  0  0  0  3  0  0  0  0  0  0
  -25.0850  -27.5340   18.8360 C   0  0  0  0  0  3  0  0  0  0  0  0
  -23.6650  -29.4440   19.7930 C   0  0  0  0  0  2  0  0  0  0  0  0
  -24.7260  -30.6110   21.7840 N   0  0  0  0  0  0  0  0  0  0  0  0
  -23.6140  -31.4010   23.5960 O   0  0  0  0  0  0  0  0  0  0  0  0
  -22.9850  -28.7890   22.1220 C   0  0  0  0  0  0  0  0  0  0  0  0
  -21.7030  -28.4250   21.9520 N   0  0  0  0  0  0  0  0  0  0  0  0
  -23.7450  -28.2150   22.9070 O   0  0  0  0  0  0  0  0  0  0  0  0
  -21.1460  -28.9530   21.2960 H   0  0  0  0  0  0  0  0  0  0  0  0
  -18.5830  -26.6170   22.1630 C   0  0  0  0  0  0  0  0  0  0  0  0
  -21.0260  -27.3210   22.6270 C   0  0  0  0  0  3  0  0  0  0  0  0
  -21.4290  -25.9600   22.0150 C   0  0  0  0  0  2  0  0  0  0  0  0
  -20.4700  -25.4770   20.9220 C   0  0  0  0  0  2  0  0  0  0  0  0
  -19.0470  -25.3480   21.4670 C   0  0  0  0  0  2  0  0  0  0  0  0
  -19.5130  -27.5510   22.6940 C   0  0  0  0  0  0  0  0  0  0  0  0
  -19.0300  -28.7310   23.2980 C   0  0  0  0  0  3  0  0  0  0  0  0
  -17.6470  -28.9860   23.3800 C   0  0  0  0  0  3  0  0  0  0  0  0
  -16.7310  -28.0500   22.8660 C   0  0  0  0  0  3  0  0  0  0  0  0
  -17.1980  -26.8690   22.2640 C   0  0  0  0  0  3  0  0  0  0  0  0
  -25.9440  -31.9520   23.5860 C   0  0  0  0  0  3  0  0  0  0  0  0
  -26.5720  -31.1230   24.7730 C   0  0  1  0  0  0  0  0  0  0  0  0
  -25.5490  -30.7190   25.8600 C   0  0  0  0  0  1  0  0  0  0  0  0
  -27.2300  -29.8280   24.2410 C   0  0  0  0  0  1  0  0  0  0  0  0
  -27.6950  -31.9420   25.4510 C   0  0  0  0  0  1  0  0  0  0  0  0
  -25.5610  -33.2980   24.0350 N   0  0  0  0  0  0  0  0  0  0  0  0
  -25.7940  -34.4230   23.3460 C   0  0  0  0  0  0  0  0  0  0  0  0
  -26.4270  -34.4390   22.2870 O   0  0  0  0  0  0  0  0  0  0  0  0
  -24.9910  -33.3540   24.8670 H   0  0  0  0  0  0  0  0  0  0  0  0
  -23.9340  -36.1070   23.1950 C   0  0  0  0  0  1  0  0  0  0  0  0
  -25.2360  -35.7360   23.9230 C   0  0  0  0  0  3  0  0  0  0  0  0
  -27.3420  -36.7100   24.7240 C   0  0  0  0  0  1  0  0  0  0  0  0
  -26.1880  -36.8650   23.8420 N   0  0  0  0  0  0  0  0  0  0  0  0
  -25.7290  -37.7400   24.0740 H   0  0  0  0  0  0  0  0  0  0  0  0
  2  3  2  0
  2  5  1  0
  3  6  1  0
  4  7  1  0
  4  9  1  0
  5  4  2  0
  6  1  1  0
  6  7  2  0
  7  8  1  0
  9 10  1  0
 11  9  2  0
 13 12  1  0
 13  5  1  0
 13 22  1  0
 14 22  1  0
 14 20  1  0
 15 20  1  0
 16 17  1  0
 16 15  1  0
 18 17  1  0
 18 27  1  0
 18 19  1  0
 20 19  1  0
 21 14  2  0
 22 23  1  0
 24 25  2  0
 25 44  1  0
 26 25  1  0
 26 29  1  0
 27 28  1  0
 27 24  1  0
 28 26  2  0
 29 30  1  0
 30 31  2  0
 32 35  1  0
 32 31  1  0
 33 32  2  0
 34 33  1  0
 34 29  2  0
 35 36  1  0
 36 41  2  0
 36 37  1  0
 37 38  2  0
 38 39  1  0
 39 43  1  0
 40 39  2  0
 41 40  1  0
 42 41  1  0
 44 45  1  0
 45 47  1  0
 45 48  1  0
 46 44  2  0
 49 24  1  0
 49 50  1  0
 51 49  1  0
 52 53  1  0
 52  1  1  0
 54 52  1  0
 55 52  1  0
 56 55  1  0
 56 57  1  0
 57 58  1  0
 59 57  1  0
 59 60  1  0
 61 63  1  0
 61 60  1  0
 62 73  2  0
 63 68  1  0
 64 72  1  0
 64 74  1  0
 65 71  1  0
 65 67  1  0
 66 72  1  0
 67 66  1  0
 68 67  2  0
 69 70  1  0
 69 63  2  0
 70 65  2  0
 71 64  1  0
 72 62  1  0
 74 76  2  0
 75 74  1  0
 77 75  1  0
 78 87  2  0
 78 83  1  0
 79 75  1  0
 79 83  1  0
 80 79  1  0
 81 82  1  0
 81 80  1  0
 82 78  1  0
 83 84  2  0
 84 85  1  0
 86 85  2  0
 87 86  1  0
 88 62  1  0
 88 93  1  0
 88 89  1  0
 89 92  1  1
 89 90  1  0
 91 89  1  0
 93 96  1  0
 94 98  1  0
 94 93  1  0
 95 94  2  0
 98 97  1  0
100 98  1  0
100101  1  0
100 99  1  0
M  ISO  4  14 100  22 100  60 101  61 101
M  END
>  <TORSDO>  (14) 
F 25

>  <SCORE>  (14) 
-7.615

>  <name>  (14) 
13

>  <ligand_id>  (14) 
13

>  <original_smiles>  (14) 
[H]c1c([H])c([H])c2c(c1[H])C([H])([H])C([H])([H])C([H])([H])C2([H])N([H])C(=O)C1([H])N(C(=O)C([H])(N([H])C(=O)C([H])(N([H])C([H])([H])[H])C([H])([H])[H])C(C([H])([H])[H])(C([H])([H])[H])C([H])([H])[H])C([H])([H])c2c([H])c(OC([H])([H])C([H])([H])N([H])C([H])([H])C([H])([H])[N+]([H])([H])C([H])([H])c3c([H])c([H])c(C([H])(N([H])C(=O)N4C([H])([H])C([H])([H])C([H])([H])C([H])(n5nc(-c6c([H])c([H])c(Oc7c([H])c([H])c(F)c([H])c7F)c([H])c6[H])c(C(=O)N([H])[H])c5N([H])[H])C4([H])[H])C([H])([H])[H])c(C(=O)C([H])([H])[H])c3F)c([H])c([H])c2C1([H])[H]

>  <smiles>  (14) 
[H]c1c([H])c([H])c2c(c1[H])C([H])([H])C([H])([H])C([H])([H])C2([H])N([H])C(=O)C1([H])N(C(=O)C([H])(N([H])C(=O)C([H])(N([H])C([H])([H])[H])C([H])([H])[H])C(C([H])([H])[H])(C([H])([H])[H])C([H])([H])[H])C([H])([H])c2c([H])c(OC([H])([H])C([H])([H])N([H])C([H])([H])C([H])([H])[N+]([H])([H])C([H])([H])c3c([H])c([H])c(C([H])(N([H])C(=O)N4C([H])([H])C([H])([H])C([H])([H])C([H])(n5nc(-c6c([H])c([H])c(Oc7c([H])c([H])c(F)c([H])c7F)c([H])c6[H])c(C(=O)N([H])[H])c5N([H])[H])C4([H])[H])C([H])([H])[H])c(C(=O)C([H])([H])[H])c3F)c([H])c([H])c2C1([H])[H]

$$$$
14:0:0
     RDKit          3D

 98107  0  0  1  0  0  0  0  0999 V2000
  -30.5480  -22.9530   18.7160 C   0  0  0  0  0  2  0  0  0  0  0  0
  -29.6380  -21.7900   19.0890 C   0  0  0  0  0  2  0  0  0  0  0  0
  -30.7260  -23.7510   20.0110 C   0  0  0  0  0  2  0  0  0  0  0  0
  -29.4600  -21.8910   20.6090 C   0  0  0  0  0  3  0  0  0  0  0  0
  -29.6320  -23.3370   20.9050 N   0  0  0  0  0  0  0  0  0  0  0  0
  -27.1690  -23.6710   21.2990 C   0  0  0  0  0  1  0  0  0  0  0  0
  -28.4600  -24.2170   20.6550 C   0  0  0  0  0  3  0  0  0  0  0  0
  -28.7300  -25.6640   21.1810 C   0  0  0  0  0  2  0  0  0  0  0  0
  -28.5790  -26.6510   20.1570 O   0  0  0  0  0  0  0  0  0  0  0  0
  -24.5480  -31.6830   23.1920 C   0  0  0  0  0  0  0  0  0  0  0  0
  -27.3910  -27.3360   20.1730 C   0  0  0  0  0  0  0  0  0  0  0  0
  -23.4190  -30.2470   21.5220 C   0  0  0  0  0  3  0  0  0  0  0  0
  -24.9490  -28.7510   20.1330 C   0  0  0  0  0  0  0  0  0  0  0  0
  -25.9330  -30.6850   21.3760 C   0  0  0  0  0  2  0  0  0  0  0  0
  -26.0750  -29.3160   20.7460 C   0  0  0  0  0  0  0  0  0  0  0  0
  -27.3000  -28.6140   20.7670 C   0  0  0  0  0  3  0  0  0  0  0  0
  -26.2550  -26.7790   19.5540 C   0  0  0  0  0  3  0  0  0  0  0  0
  -25.0320  -27.4790   19.5360 C   0  0  0  0  0  3  0  0  0  0  0  0
  -23.6780  -29.5700   20.1490 C   0  0  0  0  0  2  0  0  0  0  0  0
  -24.6490  -30.8870   22.0900 N   0  0  0  0  0  0  0  0  0  0  0  0
  -23.4490  -31.9230   23.7100 O   0  0  0  0  0  0  0  0  0  0  0  0
  -22.7780  -29.2080   22.4700 C   0  0  0  0  0  0  0  0  0  0  0  0
  -21.4630  -28.9860   22.3130 N   0  0  0  0  0  0  0  0  0  0  0  0
  -23.4620  -28.6030   23.3000 O   0  0  0  0  0  0  0  0  0  0  0  0
  -20.9720  -29.5280   21.6140 H   0  0  0  0  0  0  0  0  0  0  0  0
  -18.1160  -27.6920   22.7280 C   0  0  0  0  0  0  0  0  0  0  0  0
  -20.6570  -28.0250   23.0630 C   0  0  0  0  0  3  0  0  0  0  0  0
  -20.8160  -26.5970   22.4900 C   0  0  0  0  0  2  0  0  0  0  0  0
  -19.7490  -26.2430   21.4490 C   0  0  0  0  0  2  0  0  0  0  0  0
  -18.3480  -26.3470   22.0580 C   0  0  0  0  0  2  0  0  0  0  0  0
  -19.2000  -28.4860   23.1850 C   0  0  0  0  0  0  0  0  0  0  0  0
  -18.9300  -29.7430   23.7680 C   0  0  0  0  0  3  0  0  0  0  0  0
  -17.6090  -30.2070   23.9000 C   0  0  0  0  0  3  0  0  0  0  0  0
  -16.5380  -29.4100   23.4610 C   0  0  0  0  0  3  0  0  0  0  0  0
  -16.7920  -28.1540   22.8810 C   0  0  0  0  0  3  0  0  0  0  0  0
  -25.8030  -32.3510   23.8380 C   0  0  0  0  0  3  0  0  0  0  0  0
  -25.4490  -33.7390   24.1580 N   0  0  0  0  0  0  0  0  0  0  0  0
  -25.7570  -34.7970   23.3950 C   0  0  0  0  0  0  0  0  0  0  0  0
  -26.4390  -34.7080   22.3710 O   0  0  0  0  0  0  0  0  0  0  0  0
  -24.8420  -33.8810   24.9530 H   0  0  0  0  0  0  0  0  0  0  0  0
  -23.9680  -36.5240   23.0250 C   0  0  0  0  0  1  0  0  0  0  0  0
  -25.2230  -36.1720   23.8400 C   0  0  0  0  0  3  0  0  0  0  0  0
  -27.3280  -37.1360   24.6560 C   0  0  0  0  0  1  0  0  0  0  0  0
  -26.2190  -37.2580   23.7130 N   0  0  0  0  0  0  0  0  0  0  0  0
  -25.7840  -38.1660   23.8510 H   0  0  0  0  0  0  0  0  0  0  0  0
  -26.3160  -31.5930   25.1250 C   0  0  1  0  0  0  0  0  0  0  0  0
  -25.2090  -31.3240   26.1710 C   0  0  0  0  0  1  0  0  0  0  0  0
  -26.9450  -30.2320   24.7430 C   0  0  0  0  0  1  0  0  0  0  0  0
  -27.4320  -32.4180   25.8090 C   0  0  0  0  0  1  0  0  0  0  0  0
  -30.5030  -21.0460   21.4100 C   0  0  0  0  0  3  0  0  0  0  0  0
  -31.5690  -18.7430   21.0810 C   0  0  0  0  0  3  0  0  0  0  0  0
  -29.1530  -18.8520   21.3120 C   0  0  0  0  0  3  0  0  0  0  0  0
  -31.5030  -17.3360   20.9830 C   0  0  0  0  0  3  0  0  0  0  0  0
  -29.0870  -17.4450   21.2220 C   0  0  0  0  0  3  0  0  0  0  0  0
  -30.3980  -19.5200   21.2470 C   0  0  0  0  0  0  0  0  0  0  0  0
  -30.2560  -16.6720   21.0470 C   0  0  0  0  0  0  0  0  0  0  0  0
  -30.7420  -14.3550   20.2110 C   0  0  0  0  0  0  0  0  0  0  0  0
  -30.3780  -12.2620   18.9480 C   0  0  0  0  0  2  0  0  0  0  0  0
  -29.3910  -12.5310   17.7940 C   0  0  0  0  0  2  0  0  0  0  0  0
  -27.9300  -12.4030   18.2720 C   0  0  0  0  0  2  0  0  0  0  0  0
  -27.6580  -13.1910   19.5800 C   0  0  0  0  0  3  0  0  0  0  0  0
  -28.7430  -12.8760   20.6340 C   0  0  0  0  0  2  0  0  0  0  0  0
  -30.0580  -13.1910   20.0430 N   0  0  0  0  0  0  0  0  0  0  0  0
  -31.8140  -14.5890   19.6430 O   0  0  0  0  0  0  0  0  0  0  0  0
  -30.1100  -15.2530   20.9890 N   0  0  0  0  0  0  0  0  0  0  0  0
  -29.2560  -14.8920   21.3880 H   0  0  0  0  0  0  0  0  0  0  0  0
  -25.2860  -13.8220   20.3600 C   0  0  0  0  0  0  0  0  0  0  0  0
  -24.2210  -13.0600   20.7590 C   0  0  0  0  0  0  0  0  0  0  0  0
  -24.6660  -11.7040   20.7050 C   0  0  0  0  0  0  0  0  0  0  0  0
  -26.3140  -12.9310   20.0930 N   0  0  0  0  0  0  0  0  0  0  0  0
  -25.9450  -11.6510   20.3560 N   0  0  0  0  0  0  0  0  0  0  0  0
  -23.9330  -10.4480   20.9130 C   0  0  0  0  0  0  0  0  0  0  0  0
  -24.3640   -9.4880   21.8550 C   0  0  0  0  0  3  0  0  0  0  0  0
  -23.6330   -8.2970   22.0490 C   0  0  0  0  0  3  0  0  0  0  0  0
  -22.4570   -8.0560   21.3000 C   0  0  0  0  0  0  0  0  0  0  0  0
  -22.0450   -9.0040   20.3470 C   0  0  0  0  0  3  0  0  0  0  0  0
  -22.7750  -10.1880   20.1510 C   0  0  0  0  0  3  0  0  0  0  0  0
  -21.6980   -6.9140   21.4010 O   0  0  0  0  0  0  0  0  0  0  0  0
  -21.6160   -6.2070   22.5740 C   0  0  0  0  0  0  0  0  0  0  0  0
  -21.1620   -6.8000   23.7730 C   0  0  0  0  0  3  0  0  0  0  0  0
  -21.0280   -6.0180   24.9380 C   0  0  0  0  0  3  0  0  0  0  0  0
  -21.3370   -4.6450   24.9040 C   0  0  0  0  0  0  0  0  0  0  0  0
  -21.7840   -4.0520   23.7100 C   0  0  0  0  0  3  0  0  0  0  0  0
  -21.9200   -4.8310   22.5480 C   0  0  0  0  0  0  0  0  0  0  0  0
  -22.3310   -4.2500   21.3950 F   0  0  0  0  0  0  0  0  0  0  0  0
  -21.2010   -3.8920   26.0210 F   0  0  0  0  0  0  0  0  0  0  0  0
  -22.8370  -13.5510   21.0770 C   0  0  0  0  0  0  0  0  0  0  0  0
  -22.1310  -12.8640   21.9670 N   0  0  0  0  0  0  0  0  0  0  0  0
  -22.3930  -14.5800   20.5710 O   0  0  0  0  0  0  0  0  0  0  0  0
  -22.5030  -12.0320   22.4000 H   0  0  0  0  0  0  0  0  0  0  0  0
  -21.2040  -13.1770   22.2210 H   0  0  0  0  0  0  0  0  0  0  0  0
  -25.4620  -15.1910   20.1830 N   0  0  0  0  0  0  0  0  0  0  0  0
  -24.7040  -15.8540   20.3110 H   0  0  0  0  0  0  0  0  0  0  0  0
  -26.2960  -15.6130   19.7950 H   0  0  0  0  0  0  0  0  0  0  0  0
  -30.4150  -21.3980   22.8290 N   0  0  0  0  0  4  0  0  0  0  0  0
  -29.5460  -21.0900   23.2220 H   0  0  0  0  0  0  0  0  0  0  0  0
  -30.4520  -22.4030   22.8770 H   0  0  0  0  0  0  0  0  0  0  0  0
  -31.1800  -21.0030   23.3430 H   0  0  0  0  0  0  0  0  0  0  0  0
  1  2  1  0
  1  3  1  0
  2  4  1  0
  3  5  1  0
  4  5  1  0
  4 50  1  0
  7  5  1  0
  7  8  1  0
  7  6  1  0
  9 11  1  0
  9  8  1  0
 10 21  2  0
 11 16  1  0
 12 20  1  0
 12 22  1  0
 13 19  1  0
 13 15  1  0
 14 20  1  0
 15 16  2  0
 15 14  1  0
 17 11  2  0
 18 17  1  0
 18 13  2  0
 19 12  1  0
 20 10  1  0
 22 24  2  0
 23 22  1  0
 25 23  1  0
 26 35  2  0
 26 31  1  0
 27 23  1  0
 27 31  1  0
 28 27  1  0
 29 30  1  0
 29 28  1  0
 30 26  1  0
 31 32  2  0
 32 33  1  0
 34 33  2  0
 35 34  1  0
 36 10  1  0
 36 37  1  0
 36 46  1  0
 37 40  1  0
 38 42  1  0
 38 37  1  0
 39 38  2  0
 42 41  1  0
 44 42  1  0
 44 45  1  0
 44 43  1  0
 46 49  1  1
 46 47  1  0
 48 46  1  0
 50 95  1  0
 51 55  1  0
 53 56  1  0
 53 51  2  0
 54 52  1  0
 55 52  2  0
 55 50  1  0
 56 54  2  0
 57 65  1  0
 58 63  1  0
 59 60  1  0
 59 58  1  0
 61 60  1  0
 61 70  1  0
 61 62  1  0
 63 57  1  0
 63 62  1  0
 64 57  2  0
 65 56  1  0
 65 66  1  0
 67 68  2  0
 68 87  1  0
 69 68  1  0
 69 72  1  0
 70 71  1  0
 70 67  1  0
 71 69  2  0
 72 73  1  0
 73 74  2  0
 75 78  1  0
 75 74  1  0
 76 75  2  0
 77 76  1  0
 77 72  2  0
 78 79  1  0
 79 80  1  0
 80 81  2  0
 82 81  1  0
 82 86  1  0
 83 82  2  0
 84 79  2  0
 84 83  1  0
 85 84  1  0
 87 88  1  0
 88 91  1  0
 88 90  1  0
 89 87  2  0
 92 93  1  0
 92 67  1  0
 94 92  1  0
 95 97  1  0
 95 96  1  0
 95 98  1  0
M  ISO  4   8 101   9 101  57 100  65 100
M  END
>  <TORSDO>  (15) 
F 21

>  <SCORE>  (15) 
-13.194

>  <name>  (15) 
14

>  <ligand_id>  (15) 
14

>  <original_smiles>  (15) 
[H]c1c([H])c([H])c2c(c1[H])C([H])([H])C([H])([H])C([H])([H])C2([H])N([H])C(=O)C1([H])N(C(=O)C([H])(N([H])C(=O)C([H])(N([H])C([H])([H])[H])C([H])([H])[H])C(C([H])([H])[H])(C([H])([H])[H])C([H])([H])[H])C([H])([H])c2c([H])c(OC([H])([H])C([H])(N3C([H])([H])C([H])([H])C([H])([H])C3([H])C([H])(c3c([H])c([H])c(N([H])C(=O)N4C([H])([H])C([H])([H])C([H])([H])C([H])(n5nc(-c6c([H])c([H])c(Oc7c([H])c([H])c(F)c([H])c7F)c([H])c6[H])c(C(=O)N([H])[H])c5N([H])[H])C4([H])[H])c([H])c3[H])[N+]([H])([H])[H])C([H])([H])[H])c([H])c([H])c2C1([H])[H]

>  <smiles>  (15) 
[H]c1c([H])c([H])c2c(c1[H])C([H])([H])C([H])([H])C([H])([H])C2([H])N([H])C(=O)C1([H])N(C(=O)C([H])(N([H])C(=O)C([H])(N([H])C([H])([H])[H])C([H])([H])[H])C(C([H])([H])[H])(C([H])([H])[H])C([H])([H])[H])C([H])([H])c2c([H])c(OC([H])([H])C([H])(N3C([H])([H])C([H])([H])C([H])([H])C3([H])C([H])(c3c([H])c([H])c(N([H])C(=O)N4C([H])([H])C([H])([H])C([H])([H])C([H])(n5nc(-c6c([H])c([H])c(Oc7c([H])c([H])c(F)c([H])c7F)c([H])c6[H])c(C(=O)N([H])[H])c5N([H])[H])C4([H])[H])c([H])c3[H])[N+]([H])([H])[H])C([H])([H])[H])c([H])c([H])c2C1([H])[H]

$$$$
15:0:0
     RDKit          3D

 93101  0  0  1  0  0  0  0  0999 V2000
  -29.8190  -22.4650   18.5810 C   0  0  0  0  0  1  0  0  0  0  0  0
  -27.5060  -21.9210   19.3540 C   0  0  0  0  0  1  0  0  0  0  0  0
  -28.9130  -22.3440   19.8240 C   0  0  1  0  0  0  0  0  0  0  0  0
  -30.6300  -21.5780   21.6310 C   0  0  0  0  0  1  0  0  0  0  0  0
  -29.4550  -21.1130   20.7490 C   0  0  0  0  0  3  0  0  0  0  0  0
  -29.4500  -18.4950   20.3390 C   0  0  0  0  0  0  0  0  0  0  0  0
  -29.8890  -19.7890   20.1130 N   0  0  0  0  0  0  0  0  0  0  0  0
  -28.3010  -18.2890   20.7290 O   0  0  0  0  0  0  0  0  0  0  0  0
  -30.8040  -19.8320   19.6860 H   0  0  0  0  0  0  0  0  0  0  0  0
  -30.6940  -14.6410   19.9400 C   0  0  0  0  0  0  0  0  0  0  0  0
  -30.3860  -12.3680   18.9370 C   0  0  0  0  0  2  0  0  0  0  0  0
  -29.3710  -12.4320   17.7740 C   0  0  0  0  0  2  0  0  0  0  0  0
  -27.9320  -12.2740   18.3000 C   0  0  0  0  0  2  0  0  0  0  0  0
  -27.6430  -13.1760   19.5290 C   0  0  0  0  0  3  0  0  0  0  0  0
  -28.7710  -13.0880   20.5820 C   0  0  0  0  0  2  0  0  0  0  0  0
  -30.0300  -13.4320   19.9050 N   0  0  0  0  0  0  0  0  0  0  0  0
  -31.7970  -14.7430   19.3940 O   0  0  0  0  0  0  0  0  0  0  0  0
  -31.1990  -17.1190   21.5660 C   0  0  0  0  0  2  0  0  0  0  0  0
  -30.2280  -15.9850   21.9030 C   0  0  0  0  0  2  0  0  0  0  0  0
  -30.4660  -17.2500   20.2300 C   0  0  0  0  0  3  0  0  0  0  0  0
  -30.0650  -15.7720   20.4560 N   0  0  0  0  0  0  0  0  0  0  0  0
  -25.3220  -13.7820   20.4390 C   0  0  0  0  0  0  0  0  0  0  0  0
  -24.2730  -13.0130   20.8640 C   0  0  0  0  0  0  0  0  0  0  0  0
  -24.7080  -11.6560   20.7610 C   0  0  0  0  0  0  0  0  0  0  0  0
  -26.3320  -12.8940   20.1050 N   0  0  0  0  0  0  0  0  0  0  0  0
  -25.9730  -11.6080   20.3590 N   0  0  0  0  0  0  0  0  0  0  0  0
  -23.9750  -10.4000   20.9660 C   0  0  0  0  0  0  0  0  0  0  0  0
  -24.4330   -9.4150   21.8680 C   0  0  0  0  0  3  0  0  0  0  0  0
  -23.6990   -8.2260   22.0650 C   0  0  0  0  0  3  0  0  0  0  0  0
  -22.4910   -8.0130   21.3600 C   0  0  0  0  0  0  0  0  0  0  0  0
  -22.0510   -8.9860   20.4460 C   0  0  0  0  0  3  0  0  0  0  0  0
  -22.7850  -10.1670   20.2470 C   0  0  0  0  0  3  0  0  0  0  0  0
  -21.7250   -6.8770   21.4680 O   0  0  0  0  0  0  0  0  0  0  0  0
  -21.6890   -6.1410   22.6240 C   0  0  0  0  0  0  0  0  0  0  0  0
  -21.2850   -6.7030   23.8550 C   0  0  0  0  0  3  0  0  0  0  0  0
  -21.1960   -5.8920   25.0040 C   0  0  0  0  0  3  0  0  0  0  0  0
  -21.5000   -4.5200   24.9240 C   0  0  0  0  0  0  0  0  0  0  0  0
  -21.8940   -3.9570   23.6990 C   0  0  0  0  0  3  0  0  0  0  0  0
  -21.9870   -4.7640   22.5510 C   0  0  0  0  0  0  0  0  0  0  0  0
  -22.3480   -4.2120   21.3680 F   0  0  0  0  0  0  0  0  0  0  0  0
  -21.4070   -3.7400   26.0260 F   0  0  0  0  0  0  0  0  0  0  0  0
  -22.9070  -13.5040   21.2510 C   0  0  0  0  0  0  0  0  0  0  0  0
  -22.2340  -12.7960   22.1520 N   0  0  0  0  0  0  0  0  0  0  0  0
  -22.4470  -14.5470   20.7890 O   0  0  0  0  0  0  0  0  0  0  0  0
  -22.6190  -11.9500   22.5450 H   0  0  0  0  0  0  0  0  0  0  0  0
  -21.3200  -13.1040   22.4530 H   0  0  0  0  0  0  0  0  0  0  0  0
  -25.4950  -15.1540   20.2870 N   0  0  0  0  0  0  0  0  0  0  0  0
  -24.7610  -15.8210   20.5000 H   0  0  0  0  0  0  0  0  0  0  0  0
  -26.3360  -15.5930   19.9310 H   0  0  0  0  0  0  0  0  0  0  0  0
  -28.8230  -23.8300   20.5100 C   0  0  0  0  0  2  0  0  0  0  0  0
  -28.0500  -24.9110   19.7900 N   0  0  0  0  0  0  0  0  0  0  0  0
  -27.0600  -24.7410   19.9320 H   0  0  0  0  0  0  0  0  0  0  0  0
  -28.3010  -26.3230   20.3210 O   0  0  0  0  0  0  0  0  0  0  0  0
  -24.6250  -31.8440   23.2680 C   0  0  0  0  0  0  0  0  0  0  0  0
  -27.1960  -27.2070   20.2440 C   0  0  0  0  0  0  0  0  0  0  0  0
  -23.4140  -30.4480   21.6320 C   0  0  0  0  0  3  0  0  0  0  0  0
  -24.8550  -28.8770   20.2140 C   0  0  0  0  0  0  0  0  0  0  0  0
  -25.9610  -30.7270   21.4640 C   0  0  0  0  0  2  0  0  0  0  0  0
  -26.0260  -29.3410   20.8260 C   0  0  0  0  0  0  0  0  0  0  0  0
  -27.1920  -28.5130   20.8410 C   0  0  0  0  0  3  0  0  0  0  0  0
  -26.0070  -26.8210   19.5810 C   0  0  0  0  0  3  0  0  0  0  0  0
  -24.8510  -27.6240   19.5860 C   0  0  0  0  0  3  0  0  0  0  0  0
  -23.6290  -29.7660   20.2550 C   0  0  0  0  0  2  0  0  0  0  0  0
  -24.6850  -31.0270   22.1760 N   0  0  0  0  0  0  0  0  0  0  0  0
  -23.5430  -32.1360   23.7990 O   0  0  0  0  0  0  0  0  0  0  0  0
  -22.7370  -29.4430   22.5950 C   0  0  0  0  0  0  0  0  0  0  0  0
  -21.4110  -29.2720   22.4630 N   0  0  0  0  0  0  0  0  0  0  0  0
  -23.4060  -28.8220   23.4260 O   0  0  0  0  0  0  0  0  0  0  0  0
  -20.9290  -29.8240   21.7690 H   0  0  0  0  0  0  0  0  0  0  0  0
  -18.0260  -28.0920   22.9490 C   0  0  0  0  0  0  0  0  0  0  0  0
  -20.5820  -28.3460   23.2380 C   0  0  0  0  0  3  0  0  0  0  0  0
  -20.6830  -26.9070   22.6800 C   0  0  0  0  0  2  0  0  0  0  0  0
  -19.5880  -26.5750   21.6600 C   0  0  0  0  0  2  0  0  0  0  0  0
  -18.2020  -26.7340   22.2910 C   0  0  0  0  0  2  0  0  0  0  0  0
  -19.1430  -28.8540   23.3800 C   0  0  0  0  0  0  0  0  0  0  0  0
  -18.9240  -30.1230   23.9580 C   0  0  0  0  0  3  0  0  0  0  0  0
  -17.6210  -30.6310   24.1090 C   0  0  0  0  0  3  0  0  0  0  0  0
  -16.5160  -29.8650   23.6940 C   0  0  0  0  0  3  0  0  0  0  0  0
  -16.7200  -28.5970   23.1200 C   0  0  0  0  0  3  0  0  0  0  0  0
  -25.9120  -32.4690   23.8870 C   0  0  0  0  0  3  0  0  0  0  0  0
  -26.4070  -31.7170   25.1840 C   0  0  1  0  0  0  0  0  0  0  0  0
  -25.3000  -31.5140   26.2460 C   0  0  0  0  0  1  0  0  0  0  0  0
  -26.9750  -30.3240   24.8300 C   0  0  0  0  0  1  0  0  0  0  0  0
  -27.5640  -32.5070   25.8400 C   0  0  0  0  0  1  0  0  0  0  0  0
  -25.6240  -33.8800   24.1890 N   0  0  0  0  0  0  0  0  0  0  0  0
  -25.9580  -34.9110   23.4010 C   0  0  0  0  0  0  0  0  0  0  0  0
  -26.6130  -34.7750   22.3640 O   0  0  0  0  0  0  0  0  0  0  0  0
  -25.0430  -34.0600   24.9950 H   0  0  0  0  0  0  0  0  0  0  0  0
  -24.2400  -36.7120   23.0340 C   0  0  0  0  0  1  0  0  0  0  0  0
  -25.4920  -36.3170   23.8320 C   0  0  0  0  0  3  0  0  0  0  0  0
  -27.6480  -37.2050   24.6020 C   0  0  0  0  0  1  0  0  0  0  0  0
  -26.5330  -37.3570   23.6710 N   0  0  0  0  0  0  0  0  0  0  0  0
  -26.1380  -38.2850   23.7980 H   0  0  0  0  0  0  0  0  0  0  0  0
  3  1  1  6
  2  3  1  0
  3 50  1  0
  3  5  1  0
  5  4  1  0
  6  8  2  0
  7  6  1  0
  7  5  1  0
  9  7  1  0
 10 21  1  0
 11 16  1  0
 12 13  1  0
 12 11  1  0
 14 13  1  0
 14 25  1  0
 14 15  1  0
 16 10  1  0
 16 15  1  0
 17 10  2  0
 18 19  1  0
 20  6  1  0
 20 21  1  0
 20 18  1  0
 21 19  1  0
 22 23  2  0
 23 42  1  0
 24 23  1  0
 24 27  1  0
 25 26  1  0
 25 22  1  0
 26 24  2  0
 27 28  1  0
 28 29  2  0
 30 33  1  0
 30 29  1  0
 31 30  2  0
 32 31  1  0
 32 27  2  0
 33 34  1  0
 34 35  1  0
 35 36  2  0
 37 36  1  0
 37 41  1  0
 38 37  2  0
 39 34  2  0
 39 38  1  0
 40 39  1  0
 42 43  1  0
 43 46  1  0
 43 45  1  0
 44 42  2  0
 47 22  1  0
 47 48  1  0
 49 47  1  0
 51 52  1  0
 51 53  1  0
 51 50  1  0
 54 65  2  0
 55 53  1  0
 55 60  1  0
 56 64  1  0
 56 66  1  0
 57 63  1  0
 57 59  1  0
 58 64  1  0
 59 60  2  0
 59 58  1  0
 61 62  1  0
 61 55  2  0
 62 57  2  0
 63 56  1  0
 64 54  1  0
 66 68  2  0
 67 66  1  0
 69 67  1  0
 70 79  2  0
 70 75  1  0
 71 67  1  0
 71 75  1  0
 72 71  1  0
 73 74  1  0
 73 72  1  0
 74 70  1  0
 75 76  2  0
 76 77  1  0
 78 77  2  0
 79 78  1  0
 80 54  1  0
 80 85  1  0
 80 81  1  0
 81 84  1  1
 81 82  1  0
 83 81  1  0
 85 88  1  0
 86 90  1  0
 86 85  1  0
 87 86  2  0
 90 89  1  0
 92 93  1  0
 92 90  1  0
 92 91  1  0
M  ISO  4  10 100  21 100  51 101  53 101
M  END
>  <TORSDO>  (16) 
F 20

>  <SCORE>  (16) 
-13.731

>  <name>  (16) 
15

>  <ligand_id>  (16) 
15

>  <original_smiles>  (16) 
[H]c1c([H])c([H])c2c(c1[H])C([H])([H])C([H])([H])C([H])([H])C2([H])N([H])C(=O)C1([H])N(C(=O)C([H])(N([H])C(=O)C([H])(N([H])C([H])([H])[H])C([H])([H])[H])C(C([H])([H])[H])(C([H])([H])[H])C([H])([H])[H])C([H])([H])c2c([H])c(ON([H])C([H])([H])C(C([H])([H])[H])(C([H])([H])[H])C([H])(N([H])C(=O)C3([H])N(C(=O)N4C([H])([H])C([H])([H])C([H])([H])C([H])(n5nc(-c6c([H])c([H])c(Oc7c([H])c([H])c(F)c([H])c7F)c([H])c6[H])c(C(=O)N([H])[H])c5N([H])[H])C4([H])[H])C([H])([H])C3([H])[H])C([H])([H])[H])c([H])c([H])c2C1([H])[H]

>  <smiles>  (16) 
[H]c1c([H])c([H])c2c(c1[H])C([H])([H])C([H])([H])C([H])([H])C2([H])N([H])C(=O)C1([H])N(C(=O)C([H])(N([H])C(=O)C([H])(N([H])C([H])([H])[H])C([H])([H])[H])C(C([H])([H])[H])(C([H])([H])[H])C([H])([H])[H])C([H])([H])c2c([H])c(ON([H])C([H])([H])C(C([H])([H])[H])(C([H])([H])[H])C([H])(N([H])C(=O)C3([H])N(C(=O)N4C([H])([H])C([H])([H])C([H])([H])C([H])(n5nc(-c6c([H])c([H])c(Oc7c([H])c([H])c(F)c([H])c7F)c([H])c6[H])c(C(=O)N([H])[H])c5N([H])[H])C4([H])[H])C([H])([H])C3([H])[H])C([H])([H])[H])c([H])c([H])c2C1([H])[H]

$$$$
17:0:0
     RDKit          3D

 92100  0  0  1  0  0  0  0  0999 V2000
  -29.1870  -23.0490   20.1410 C   0  0  0  0  0  3  0  0  0  0  0  0
  -30.4090  -20.5200   20.4310 C   0  0  0  0  0  3  0  0  0  0  0  0
  -30.5760  -19.0450   20.4450 C   0  0  0  0  0  3  0  0  0  0  0  0
  -28.1450  -20.3160   20.0870 C   0  0  0  0  0  3  0  0  0  0  0  0
  -29.1900  -21.3090   20.2450 C   0  0  0  0  0  0  0  0  0  0  0  0
  -28.2980  -18.8360   20.1180 C   0  0  0  0  0  0  0  0  0  0  0  0
  -29.5290  -18.0550   20.2870 C   0  0  0  0  0  0  0  0  0  0  0  0
  -27.0210  -18.0400   19.9510 C   0  0  0  0  0  1  0  0  0  0  0  0
  -30.4190  -15.2610   20.1710 C   0  0  0  0  0  0  0  0  0  0  0  0
  -30.3930  -12.8430   19.2520 C   0  0  0  0  0  2  0  0  0  0  0  0
  -29.4280  -12.6850   18.0500 C   0  0  0  0  0  2  0  0  0  0  0  0
  -27.9900  -12.4100   18.5290 C   0  0  0  0  0  2  0  0  0  0  0  0
  -27.5780  -13.3440   19.6930 C   0  0  0  0  0  3  0  0  0  0  0  0
  -28.6640  -13.4460   20.7870 C   0  0  0  0  0  2  0  0  0  0  0  0
  -29.8820  -13.9490   20.1310 N   0  0  0  0  0  0  0  0  0  0  0  0
  -31.6250  -15.3230   19.8930 O   0  0  0  0  0  0  0  0  0  0  0  0
  -29.5660  -16.4470   20.3250 N   0  0  0  0  0  0  0  0  0  0  0  0
  -28.6340  -16.0950   20.4730 H   0  0  0  0  0  0  0  0  0  0  0  0
  -25.2260  -13.8760   20.5340 C   0  0  0  0  0  0  0  0  0  0  0  0
  -24.1810  -13.0890   20.9240 C   0  0  0  0  0  0  0  0  0  0  0  0
  -24.6510  -11.7430   20.8430 C   0  0  0  0  0  0  0  0  0  0  0  0
  -26.2650  -13.0140   20.2360 N   0  0  0  0  0  0  0  0  0  0  0  0
  -25.9320  -11.7210   20.4880 N   0  0  0  0  0  0  0  0  0  0  0  0
  -23.9330  -10.4760   21.0220 C   0  0  0  0  0  0  0  0  0  0  0  0
  -24.3660   -9.5060   21.9530 C   0  0  0  0  0  3  0  0  0  0  0  0
  -23.6440   -8.3050   22.1230 C   0  0  0  0  0  3  0  0  0  0  0  0
  -22.4760   -8.0650   21.3610 C   0  0  0  0  0  0  0  0  0  0  0  0
  -22.0620   -9.0240   20.4180 C   0  0  0  0  0  3  0  0  0  0  0  0
  -22.7860  -10.2160   20.2470 C   0  0  0  0  0  3  0  0  0  0  0  0
  -21.7260   -6.9170   21.4390 O   0  0  0  0  0  0  0  0  0  0  0  0
  -21.6330   -6.1970   22.6040 C   0  0  0  0  0  0  0  0  0  0  0  0
  -21.1110   -6.7620   23.7880 C   0  0  0  0  0  3  0  0  0  0  0  0
  -20.9680   -5.9670   24.9440 C   0  0  0  0  0  3  0  0  0  0  0  0
  -21.3380   -4.6100   24.9150 C   0  0  0  0  0  0  0  0  0  0  0  0
  -21.8530   -4.0440   23.7350 C   0  0  0  0  0  3  0  0  0  0  0  0
  -21.9970   -4.8360   22.5820 C   0  0  0  0  0  0  0  0  0  0  0  0
  -22.4740   -4.2820   21.4410 F   0  0  0  0  0  0  0  0  0  0  0  0
  -21.1930   -3.8430   26.0210 F   0  0  0  0  0  0  0  0  0  0  0  0
  -22.7920  -13.5570   21.2480 C   0  0  0  0  0  0  0  0  0  0  0  0
  -22.0950  -12.8450   22.1250 N   0  0  0  0  0  0  0  0  0  0  0  0
  -22.3370  -14.5910   20.7590 O   0  0  0  0  0  0  0  0  0  0  0  0
  -22.4790  -12.0090   22.5410 H   0  0  0  0  0  0  0  0  0  0  0  0
  -21.1650  -13.1390   22.3860 H   0  0  0  0  0  0  0  0  0  0  0  0
  -25.3660  -15.2480   20.3740 N   0  0  0  0  0  0  0  0  0  0  0  0
  -24.5730  -15.8700   20.4880 H   0  0  0  0  0  0  0  0  0  0  0  0
  -26.1460  -15.6810   19.9020 H   0  0  0  0  0  0  0  0  0  0  0  0
  -29.9300  -23.3350   18.9020 N   0  0  0  0  0  4  0  0  0  0  0  0
  -29.3760  -23.1060   18.0950 H   0  0  0  0  0  0  0  0  0  0  0  0
  -30.7800  -22.8050   18.8640 H   0  0  0  0  0  0  0  0  0  0  0  0
  -30.1640  -24.3120   18.8580 H   0  0  0  0  0  0  0  0  0  0  0  0
  -28.0130  -24.3700   20.2660 C   0  0  0  0  0  2  0  0  0  0  0  0
  -28.2320  -25.9900   20.2430 O   0  0  0  0  0  0  0  0  0  0  0  0
  -24.6560  -31.8790   23.2500 C   0  0  0  0  0  0  0  0  0  0  0  0
  -27.1940  -27.0450   20.2100 C   0  0  0  0  0  0  0  0  0  0  0  0
  -23.4490  -30.4920   21.6130 C   0  0  0  0  0  3  0  0  0  0  0  0
  -24.8870  -28.8940   20.1800 C   0  0  0  0  0  0  0  0  0  0  0  0
  -26.0120  -30.7120   21.4490 C   0  0  0  0  0  2  0  0  0  0  0  0
  -26.0770  -29.3080   20.7920 C   0  0  0  0  0  0  0  0  0  0  0  0
  -27.2270  -28.4050   20.7790 C   0  0  0  0  0  3  0  0  0  0  0  0
  -25.9710  -26.7690   19.5570 C   0  0  0  0  0  3  0  0  0  0  0  0
  -24.8550  -27.6430   19.5440 C   0  0  0  0  0  3  0  0  0  0  0  0
  -23.6690  -29.8130   20.2330 C   0  0  0  0  0  2  0  0  0  0  0  0
  -24.7270  -31.0520   22.1580 N   0  0  0  0  0  0  0  0  0  0  0  0
  -23.5710  -32.1680   23.7790 O   0  0  0  0  0  0  0  0  0  0  0  0
  -22.7590  -29.4930   22.5770 C   0  0  0  0  0  0  0  0  0  0  0  0
  -21.4300  -29.3250   22.4510 N   0  0  0  0  0  0  0  0  0  0  0  0
  -23.4270  -28.8680   23.4060 O   0  0  0  0  0  0  0  0  0  0  0  0
  -20.9450  -29.8800   21.7610 H   0  0  0  0  0  0  0  0  0  0  0  0
  -18.0480  -28.1170   22.9610 C   0  0  0  0  0  0  0  0  0  0  0  0
  -20.6080  -28.3870   23.2230 C   0  0  0  0  0  3  0  0  0  0  0  0
  -20.7110  -26.9540   22.6480 C   0  0  0  0  0  2  0  0  0  0  0  0
  -19.6080  -26.6310   21.6340 C   0  0  0  0  0  2  0  0  0  0  0  0
  -18.2270  -26.7710   22.2800 C   0  0  0  0  0  2  0  0  0  0  0  0
  -19.1660  -28.8840   23.3890 C   0  0  0  0  0  0  0  0  0  0  0  0
  -18.9420  -30.1420   23.9890 C   0  0  0  0  0  3  0  0  0  0  0  0
  -17.6350  -30.6360   24.1620 C   0  0  0  0  0  3  0  0  0  0  0  0
  -16.5340  -29.8670   23.7470 C   0  0  0  0  0  3  0  0  0  0  0  0
  -16.7400  -28.6110   23.1530 C   0  0  0  0  0  3  0  0  0  0  0  0
  -25.9330  -32.5140   23.8790 C   0  0  0  0  0  3  0  0  0  0  0  0
  -26.4430  -31.7410   25.1590 C   0  0  1  0  0  0  0  0  0  0  0  0
  -25.3460  -31.5080   26.2250 C   0  0  0  0  0  1  0  0  0  0  0  0
  -27.0230  -30.3610   24.7770 C   0  0  0  0  0  1  0  0  0  0  0  0
  -27.5940  -32.5320   25.8230 C   0  0  0  0  0  1  0  0  0  0  0  0
  -25.6220  -33.9120   24.2210 N   0  0  0  0  0  0  0  0  0  0  0  0
  -25.9150  -34.9720   23.4560 C   0  0  0  0  0  0  0  0  0  0  0  0
  -26.5390  -34.8760   22.3960 O   0  0  0  0  0  0  0  0  0  0  0  0
  -25.0600  -34.0590   25.0470 H   0  0  0  0  0  0  0  0  0  0  0  0
  -24.1500  -36.7520   23.2100 C   0  0  0  0  0  1  0  0  0  0  0  0
  -25.4430  -36.3580   23.9410 C   0  0  0  0  0  3  0  0  0  0  0  0
  -27.6110  -37.2760   24.6440 C   0  0  0  0  0  1  0  0  0  0  0  0
  -26.4560  -37.4220   23.7630 N   0  0  0  0  0  0  0  0  0  0  0  0
  -26.0480  -38.3390   23.9260 H   0  0  0  0  0  0  0  0  0  0  0  0
  1  5  1  0
  1 51  1  0
  2  3  1  0
  4  6  2  0
  4  5  1  0
  5  2  2  0
  6  7  1  0
  7 17  1  0
  7  3  2  0
  8  6  1  0
  9 17  1  0
 10 15  1  0
 11 12  1  0
 11 10  1  0
 13 12  1  0
 13 22  1  0
 13 14  1  0
 15  9  1  0
 15 14  1  0
 16  9  2  0
 17 18  1  0
 19 20  2  0
 20 39  1  0
 21 20  1  0
 21 24  1  0
 22 23  1  0
 22 19  1  0
 23 21  2  0
 24 25  1  0
 25 26  2  0
 27 30  1  0
 27 26  1  0
 28 27  2  0
 29 28  1  0
 29 24  2  0
 30 31  1  0
 31 32  1  0
 32 33  2  0
 34 33  1  0
 34 38  1  0
 35 34  2  0
 36 31  2  0
 36 35  1  0
 37 36  1  0
 39 40  1  0
 40 43  1  0
 40 42  1  0
 41 39  2  0
 44 45  1  0
 44 19  1  0
 46 44  1  0
 47  1  1  0
 48 47  1  0
 49 47  1  0
 50 47  1  0
 52 51  1  0
 53 64  2  0
 54 52  1  0
 54 59  1  0
 55 63  1  0
 55 65  1  0
 56 62  1  0
 56 58  1  0
 57 63  1  0
 58 57  1  0
 59 58  2  0
 60 54  2  0
 61 60  1  0
 61 56  2  0
 62 55  1  0
 63 53  1  0
 65 67  2  0
 66 65  1  0
 68 66  1  0
 69 78  2  0
 69 74  1  0
 70 66  1  0
 70 74  1  0
 71 70  1  0
 72 73  1  0
 72 71  1  0
 73 69  1  0
 74 75  2  0
 75 76  1  0
 77 76  2  0
 78 77  1  0
 79 53  1  0
 79 84  1  0
 79 80  1  0
 80 83  1  1
 80 81  1  0
 82 80  1  0
 84 87  1  0
 85 89  1  0
 85 84  1  0
 86 85  2  0
 89 88  1  0
 91 92  1  0
 91 89  1  0
 91 90  1  0
M  ISO  4   9 100  17 100  51 101  52 101
M  END
>  <TORSDO>  (17) 
F 19

>  <SCORE>  (17) 
-15.919

>  <name>  (17) 
17

>  <ligand_id>  (17) 
17

>  <original_smiles>  (17) 
[H]c1c([H])c([H])c2c(c1[H])C([H])([H])C([H])([H])C([H])([H])C2([H])N([H])C(=O)C1([H])N(C(=O)C([H])(N([H])C(=O)C([H])(N([H])C([H])([H])[H])C([H])([H])[H])C(C([H])([H])[H])(C([H])([H])[H])C([H])([H])[H])C([H])([H])c2c([H])c(OC([H])([H])C([H])(c3c([H])c([H])c(N([H])C(=O)N4C([H])([H])C([H])([H])C([H])([H])C([H])(n5nc(-c6c([H])c([H])c(Oc7c([H])c([H])c(F)c([H])c7F)c([H])c6[H])c(C(=O)N([H])[H])c5N([H])[H])C4([H])[H])c(C([H])([H])[H])c3[H])[N+]([H])([H])[H])c([H])c([H])c2C1([H])[H]

>  <smiles>  (17) 
[H]c1c([H])c([H])c2c(c1[H])C([H])([H])C([H])([H])C([H])([H])C2([H])N([H])C(=O)C1([H])N(C(=O)C([H])(N([H])C(=O)C([H])(N([H])C([H])([H])[H])C([H])([H])[H])C(C([H])([H])[H])(C([H])([H])[H])C([H])([H])[H])C([H])([H])c2c([H])c(OC([H])([H])C([H])(c3c([H])c([H])c(N([H])C(=O)N4C([H])([H])C([H])([H])C([H])([H])C([H])(n5nc(-c6c([H])c([H])c(Oc7c([H])c([H])c(F)c([H])c7F)c([H])c6[H])c(C(=O)N([H])[H])c5N([H])[H])C4([H])[H])c(C([H])([H])[H])c3[H])[N+]([H])([H])[H])c([H])c([H])c2C1([H])[H]

$$$$
18:0:0
     RDKit          3D

 93101  0  0  1  0  0  0  0  0999 V2000
  -28.9020  -22.8470   19.6160 C   0  0  0  0  0  0  0  0  0  0  0  0
  -29.1260  -21.7130   20.3180 N   0  0  0  0  0  0  0  0  0  0  0  0
  -28.9640  -22.8560   18.3830 O   0  0  0  0  0  0  0  0  0  0  0  0
  -29.0320  -21.7450   21.3240 H   0  0  0  0  0  0  0  0  0  0  0  0
  -29.3780  -20.3900   19.6990 C   0  0  0  0  0  2  0  0  0  0  0  0
  -31.1540  -18.5570   22.6070 C   0  0  0  0  0  3  0  0  0  0  0  0
  -30.6450  -19.5740   21.7760 C   0  0  0  0  0  3  0  0  0  0  0  0
  -30.9760  -17.2030   22.2690 C   0  0  0  0  0  3  0  0  0  0  0  0
  -29.9450  -19.2580   20.5910 C   0  0  0  0  0  0  0  0  0  0  0  0
  -29.7930  -17.8780   20.2330 C   0  0  0  0  0  0  0  0  0  0  0  0
  -30.2990  -16.8480   21.0840 C   0  0  0  0  0  0  0  0  0  0  0  0
  -29.0660  -17.5020   18.9440 C   0  0  0  0  0  1  0  0  0  0  0  0
  -30.6830  -14.4860   20.2980 C   0  0  0  0  0  0  0  0  0  0  0  0
  -30.3640  -12.3270   19.1290 C   0  0  0  0  0  2  0  0  0  0  0  0
  -29.3930  -12.5230   17.9450 C   0  0  0  0  0  2  0  0  0  0  0  0
  -27.9290  -12.3830   18.4070 C   0  0  0  0  0  2  0  0  0  0  0  0
  -27.6190  -13.2390   19.6630 C   0  0  0  0  0  3  0  0  0  0  0  0
  -28.6900  -13.0070   20.7530 C   0  0  0  0  0  2  0  0  0  0  0  0
  -30.0090  -13.3080   20.1670 N   0  0  0  0  0  0  0  0  0  0  0  0
  -31.7950  -14.6800   19.8010 O   0  0  0  0  0  0  0  0  0  0  0  0
  -29.9720  -15.4670   20.8930 N   0  0  0  0  0  0  0  0  0  0  0  0
  -29.0670  -15.1840   21.2320 H   0  0  0  0  0  0  0  0  0  0  0  0
  -25.2510  -13.8920   20.4320 C   0  0  0  0  0  0  0  0  0  0  0  0
  -24.1730  -13.1400   20.8130 C   0  0  0  0  0  0  0  0  0  0  0  0
  -24.6100  -11.7800   20.7760 C   0  0  0  0  0  0  0  0  0  0  0  0
  -26.2720  -12.9920   20.1710 N   0  0  0  0  0  0  0  0  0  0  0  0
  -25.8920  -11.7170   20.4400 N   0  0  0  0  0  0  0  0  0  0  0  0
  -23.8650  -10.5320   20.9870 C   0  0  0  0  0  0  0  0  0  0  0  0
  -24.3040   -9.5580   21.9100 C   0  0  0  0  0  3  0  0  0  0  0  0
  -23.5650   -8.3730   22.1040 C   0  0  0  0  0  3  0  0  0  0  0  0
  -22.3720   -8.1530   21.3760 C   0  0  0  0  0  0  0  0  0  0  0  0
  -21.9510   -9.1170   20.4420 C   0  0  0  0  0  3  0  0  0  0  0  0
  -22.6910  -10.2940   20.2450 C   0  0  0  0  0  3  0  0  0  0  0  0
  -21.6030   -7.0190   21.4840 O   0  0  0  0  0  0  0  0  0  0  0  0
  -21.5750   -6.2730   22.6340 C   0  0  0  0  0  0  0  0  0  0  0  0
  -21.1940   -6.8320   23.8740 C   0  0  0  0  0  3  0  0  0  0  0  0
  -21.1110   -6.0140   25.0190 C   0  0  0  0  0  3  0  0  0  0  0  0
  -21.3970   -4.6380   24.9240 C   0  0  0  0  0  0  0  0  0  0  0  0
  -21.7690   -4.0780   23.6900 C   0  0  0  0  0  3  0  0  0  0  0  0
  -21.8540   -4.8940   22.5460 C   0  0  0  0  0  0  0  0  0  0  0  0
  -22.1940   -4.3460   21.3550 F   0  0  0  0  0  0  0  0  0  0  0  0
  -21.3070   -3.8500   26.0210 F   0  0  0  0  0  0  0  0  0  0  0  0
  -22.7910  -13.6450   21.1130 C   0  0  0  0  0  0  0  0  0  0  0  0
  -22.0670  -12.9660   21.9960 N   0  0  0  0  0  0  0  0  0  0  0  0
  -22.3640  -14.6790   20.6010 O   0  0  0  0  0  0  0  0  0  0  0  0
  -22.4240  -12.1280   22.4290 H   0  0  0  0  0  0  0  0  0  0  0  0
  -21.1430  -13.2930   22.2440 H   0  0  0  0  0  0  0  0  0  0  0  0
  -25.4470  -15.2610   20.2760 N   0  0  0  0  0  0  0  0  0  0  0  0
  -24.7240  -15.9420   20.4810 H   0  0  0  0  0  0  0  0  0  0  0  0
  -26.3310  -15.6860   20.0260 H   0  0  0  0  0  0  0  0  0  0  0  0
  -28.5440  -24.1520   20.3740 C   0  0  0  0  0  2  0  0  0  0  0  0
  -28.6300  -25.4560   19.5140 C   0  0  0  0  0  2  0  0  0  0  0  0
  -28.4340  -26.6940   20.2330 O   0  0  0  0  0  0  0  0  0  0  0  0
  -24.5970  -31.8910   23.2380 C   0  0  0  0  0  0  0  0  0  0  0  0
  -27.2380  -27.3980   20.1940 C   0  0  0  0  0  0  0  0  0  0  0  0
  -23.3920  -30.4830   21.6010 C   0  0  0  0  0  3  0  0  0  0  0  0
  -24.8440  -28.9290   20.1900 C   0  0  0  0  0  0  0  0  0  0  0  0
  -25.9180  -30.8330   21.4010 C   0  0  0  0  0  2  0  0  0  0  0  0
  -26.0030  -29.4510   20.7770 C   0  0  0  0  0  0  0  0  0  0  0  0
  -27.1960  -28.6900   20.7770 C   0  0  0  0  0  3  0  0  0  0  0  0
  -26.0510  -26.8920   19.6120 C   0  0  0  0  0  3  0  0  0  0  0  0
  -24.8650  -27.6500   19.6090 C   0  0  0  0  0  3  0  0  0  0  0  0
  -23.6050  -29.7980   20.2250 C   0  0  0  0  0  2  0  0  0  0  0  0
  -24.6540  -31.0850   22.1400 N   0  0  0  0  0  0  0  0  0  0  0  0
  -23.5140  -32.1700   23.7740 O   0  0  0  0  0  0  0  0  0  0  0  0
  -22.7350  -29.4690   22.5660 C   0  0  0  0  0  0  0  0  0  0  0  0
  -21.4100  -29.2890   22.4350 N   0  0  0  0  0  0  0  0  0  0  0  0
  -23.4130  -28.8490   23.3910 O   0  0  0  0  0  0  0  0  0  0  0  0
  -20.9260  -29.8430   21.7420 H   0  0  0  0  0  0  0  0  0  0  0  0
  -18.0340  -28.0920   22.9100 C   0  0  0  0  0  0  0  0  0  0  0  0
  -20.5880  -28.3570   23.2050 C   0  0  0  0  0  3  0  0  0  0  0  0
  -20.6990  -26.9210   22.6410 C   0  0  0  0  0  2  0  0  0  0  0  0
  -19.6050  -26.5890   21.6200 C   0  0  0  0  0  2  0  0  0  0  0  0
  -18.2180  -26.7370   22.2500 C   0  0  0  0  0  2  0  0  0  0  0  0
  -19.1460  -28.8590   23.3450 C   0  0  0  0  0  0  0  0  0  0  0  0
  -18.9220  -30.1270   23.9230 C   0  0  0  0  0  3  0  0  0  0  0  0
  -17.6150  -30.6270   24.0730 C   0  0  0  0  0  3  0  0  0  0  0  0
  -16.5150  -29.8570   23.6540 C   0  0  0  0  0  3  0  0  0  0  0  0
  -16.7260  -28.5920   23.0790 C   0  0  0  0  0  3  0  0  0  0  0  0
  -25.8830  -32.5210   23.8580 C   0  0  0  0  0  3  0  0  0  0  0  0
  -26.4030  -31.7480   25.1300 C   0  0  1  0  0  0  0  0  0  0  0  0
  -25.3140  -31.5100   26.2020 C   0  0  0  0  0  1  0  0  0  0  0  0
  -26.9830  -30.3700   24.7290 C   0  0  0  0  0  1  0  0  0  0  0  0
  -27.5560  -32.5380   25.7920 C   0  0  0  0  0  1  0  0  0  0  0  0
  -25.5760  -33.9190   24.1910 N   0  0  0  0  0  0  0  0  0  0  0  0
  -25.9050  -34.9720   23.4330 C   0  0  0  0  0  0  0  0  0  0  0  0
  -26.5740  -34.8690   22.3990 O   0  0  0  0  0  0  0  0  0  0  0  0
  -24.9840  -34.0730   24.9960 H   0  0  0  0  0  0  0  0  0  0  0  0
  -24.1770  -36.7640   23.0740 C   0  0  0  0  0  1  0  0  0  0  0  0
  -25.4160  -36.3610   23.8890 C   0  0  0  0  0  3  0  0  0  0  0  0
  -27.5540  -37.2440   24.7160 C   0  0  0  0  0  1  0  0  0  0  0  0
  -26.4490  -37.4150   23.7780 N   0  0  0  0  0  0  0  0  0  0  0  0
  -26.0430  -38.3330   23.9300 H   0  0  0  0  0  0  0  0  0  0  0  0
  1  2  1  0
  1 51  1  0
  2  4  1  0
  3  1  2  0
  5  2  1  0
  5  9  1  0
  7  6  2  0
  8  6  1  0
  9  7  1  0
 10  9  2  0
 10 11  1  0
 11  8  2  0
 12 10  1  0
 13 21  1  0
 14 19  1  0
 15 16  1  0
 15 14  1  0
 17 16  1  0
 17 26  1  0
 17 18  1  0
 19 13  1  0
 19 18  1  0
 20 13  2  0
 21 11  1  0
 21 22  1  0
 23 24  2  0
 24 43  1  0
 25 24  1  0
 25 28  1  0
 26 23  1  0
 26 27  1  0
 27 25  2  0
 28 29  1  0
 29 30  2  0
 31 34  1  0
 31 30  1  0
 32 31  2  0
 33 32  1  0
 33 28  2  0
 34 35  1  0
 35 36  1  0
 36 37  2  0
 38 37  1  0
 38 42  1  0
 39 38  2  0
 40 35  2  0
 40 39  1  0
 41 40  1  0
 43 44  1  0
 44 47  1  0
 44 46  1  0
 45 43  2  0
 48 23  1  0
 48 49  1  0
 50 48  1  0
 52 53  1  0
 52 51  1  0
 54 65  2  0
 55 53  1  0
 55 60  1  0
 56 64  1  0
 56 66  1  0
 57 63  1  0
 57 59  1  0
 58 64  1  0
 59 60  2  0
 59 58  1  0
 61 55  2  0
 62 61  1  0
 62 57  2  0
 63 56  1  0
 64 54  1  0
 66 68  2  0
 67 66  1  0
 69 67  1  0
 70 79  2  0
 70 75  1  0
 71 67  1  0
 71 75  1  0
 72 71  1  0
 73 74  1  0
 73 72  1  0
 74 70  1  0
 75 76  2  0
 76 77  1  0
 78 77  2  0
 79 78  1  0
 80 54  1  0
 80 85  1  0
 80 81  1  0
 81 84  1  1
 81 82  1  0
 83 81  1  0
 85 88  1  0
 86 90  1  0
 86 85  1  0
 87 86  2  0
 90 89  1  0
 92 90  1  0
 92 93  1  0
 92 91  1  0
M  ISO  4  13 100  21 100  52 101  53 101
M  END
>  <TORSDO>  (18) 
F 20

>  <SCORE>  (18) 
-13.821

>  <name>  (18) 
18

>  <ligand_id>  (18) 
18

>  <original_smiles>  (18) 
[H]c1c([H])c(N([H])C(=O)N2C([H])([H])C([H])([H])C([H])([H])C([H])(n3nc(-c4c([H])c([H])c(Oc5c([H])c([H])c(F)c([H])c5F)c([H])c4[H])c(C(=O)N([H])[H])c3N([H])[H])C2([H])[H])c(C([H])([H])[H])c(C([H])([H])N([H])C(=O)C([H])([H])C([H])([H])Oc2c([H])c([H])c3c(c2[H])C([H])([H])N(C(=O)C([H])(N([H])C(=O)C([H])(N([H])C([H])([H])[H])C([H])([H])[H])C(C([H])([H])[H])(C([H])([H])[H])C([H])([H])[H])C([H])(C(=O)N([H])C2([H])c4c([H])c([H])c([H])c([H])c4C([H])([H])C([H])([H])C2([H])[H])C3([H])[H])c1[H]

>  <smiles>  (18) 
[H]c1c([H])c(N([H])C(=O)N2C([H])([H])C([H])([H])C([H])([H])C([H])(n3nc(-c4c([H])c([H])c(Oc5c([H])c([H])c(F)c([H])c5F)c([H])c4[H])c(C(=O)N([H])[H])c3N([H])[H])C2([H])[H])c(C([H])([H])[H])c(C([H])([H])N([H])C(=O)C([H])([H])C([H])([H])Oc2c([H])c([H])c3c(c2[H])C([H])([H])N(C(=O)C([H])(N([H])C(=O)C([H])(N([H])C([H])([H])[H])C([H])([H])[H])C(C([H])([H])[H])(C([H])([H])[H])C([H])([H])[H])C([H])(C(=O)N([H])C2([H])c4c([H])c([H])c([H])c([H])c4C([H])([H])C([H])([H])C2([H])[H])C3([H])[H])c1[H]

$$$$
19:0:0
     RDKit          3D

 90 98  0  0  1  0  0  0  0  0999 V2000
  -31.1550  -22.4010   20.7130 C   0  0  0  0  0  3  0  0  0  0  0  0
  -30.7710  -21.0420   20.5800 C   0  0  0  0  0  3  0  0  0  0  0  0
  -30.2550  -23.4870   20.5570 C   0  0  0  0  0  3  0  0  0  0  0  0
  -28.5370  -21.8360   20.1200 C   0  0  0  0  0  3  0  0  0  0  0  0
  -29.4420  -20.6550   20.2890 C   0  0  0  0  0  0  0  0  0  0  0  0
  -28.8950  -23.2830   20.2510 C   0  0  0  0  0  0  0  0  0  0  0  0
  -29.1240  -19.0560   20.1310 C   0  0  0  0  0  0  0  0  0  0  0  0
  -28.0250  -18.7540   19.6630 O   0  0  0  0  0  0  0  0  0  0  0  0
  -30.5560  -17.9110   22.0360 C   0  0  0  0  0  1  0  0  0  0  0  0
  -30.1240  -17.7430   20.5660 C   0  0  0  0  0  3  0  0  0  0  0  0
  -30.5160  -15.0030   20.2650 C   0  0  0  0  0  0  0  0  0  0  0  0
  -30.3920  -12.6370   19.3450 C   0  0  0  0  0  2  0  0  0  0  0  0
  -29.4570  -12.5710   18.1170 C   0  0  0  0  0  2  0  0  0  0  0  0
  -27.9930  -12.3660   18.5530 C   0  0  0  0  0  2  0  0  0  0  0  0
  -27.5840  -13.3030   19.7210 C   0  0  0  0  0  3  0  0  0  0  0  0
  -28.6450  -13.3380   20.8410 C   0  0  0  0  0  2  0  0  0  0  0  0
  -29.9090  -13.7470   20.2160 N   0  0  0  0  0  0  0  0  0  0  0  0
  -31.7280  -15.0430   20.0330 O   0  0  0  0  0  0  0  0  0  0  0  0
  -29.7500  -16.2040   20.3830 N   0  0  0  0  0  0  0  0  0  0  0  0
  -28.7560  -16.0360   20.4310 H   0  0  0  0  0  0  0  0  0  0  0  0
  -25.2140  -13.8890   20.4820 C   0  0  0  0  0  0  0  0  0  0  0  0
  -24.1490  -13.1200   20.8600 C   0  0  0  0  0  0  0  0  0  0  0  0
  -24.6050  -11.7650   20.8240 C   0  0  0  0  0  0  0  0  0  0  0  0
  -26.2500  -13.0060   20.2330 N   0  0  0  0  0  0  0  0  0  0  0  0
  -25.8940  -11.7230   20.5070 N   0  0  0  0  0  0  0  0  0  0  0  0
  -23.8690  -10.5080   21.0140 C   0  0  0  0  0  0  0  0  0  0  0  0
  -24.2930   -9.5390   21.9520 C   0  0  0  0  0  3  0  0  0  0  0  0
  -23.5570   -8.3480   22.1330 C   0  0  0  0  0  3  0  0  0  0  0  0
  -22.3830   -8.1170   21.3750 C   0  0  0  0  0  0  0  0  0  0  0  0
  -21.9800   -9.0740   20.4270 C   0  0  0  0  0  3  0  0  0  0  0  0
  -22.7160  -10.2550   20.2440 C   0  0  0  0  0  3  0  0  0  0  0  0
  -21.6190   -6.9770   21.4630 O   0  0  0  0  0  0  0  0  0  0  0  0
  -21.5530   -6.2430   22.6200 C   0  0  0  0  0  0  0  0  0  0  0  0
  -21.1090   -6.8080   23.8360 C   0  0  0  0  0  3  0  0  0  0  0  0
  -20.9920   -6.0010   24.9850 C   0  0  0  0  0  3  0  0  0  0  0  0
  -21.3070   -4.6300   24.9180 C   0  0  0  0  0  0  0  0  0  0  0  0
  -21.7440   -4.0650   23.7080 C   0  0  0  0  0  3  0  0  0  0  0  0
  -21.8640   -4.8700   22.5600 C   0  0  0  0  0  0  0  0  0  0  0  0
  -22.2650   -4.3170   21.3900 F   0  0  0  0  0  0  0  0  0  0  0  0
  -21.1870   -3.8510   26.0190 F   0  0  0  0  0  0  0  0  0  0  0  0
  -22.7560  -13.6050   21.1340 C   0  0  0  0  0  0  0  0  0  0  0  0
  -22.0220  -12.9200   22.0050 N   0  0  0  0  0  0  0  0  0  0  0  0
  -22.3200  -14.6290   20.6080 O   0  0  0  0  0  0  0  0  0  0  0  0
  -22.3820  -12.0930   22.4560 H   0  0  0  0  0  0  0  0  0  0  0  0
  -21.0880  -13.2320   22.2280 H   0  0  0  0  0  0  0  0  0  0  0  0
  -25.3770  -15.2600   20.3020 N   0  0  0  0  0  0  0  0  0  0  0  0
  -24.6000  -15.9040   20.4030 H   0  0  0  0  0  0  0  0  0  0  0  0
  -26.2050  -15.7020   19.9240 H   0  0  0  0  0  0  0  0  0  0  0  0
  -27.9080  -24.6050   20.0480 C   0  0  0  0  0  2  0  0  0  0  0  0
  -28.2330  -26.1220   20.2920 O   0  0  0  0  0  0  0  0  0  0  0  0
  -24.6430  -31.8970   23.2520 C   0  0  0  0  0  0  0  0  0  0  0  0
  -27.1970  -27.1380   20.2260 C   0  0  0  0  0  0  0  0  0  0  0  0
  -23.4380  -30.5050   21.6140 C   0  0  0  0  0  3  0  0  0  0  0  0
  -24.8780  -28.9140   20.1970 C   0  0  0  0  0  0  0  0  0  0  0  0
  -25.9960  -30.7420   21.4590 C   0  0  0  0  0  2  0  0  0  0  0  0
  -26.0620  -29.3470   20.8070 C   0  0  0  0  0  0  0  0  0  0  0  0
  -27.2210  -28.4760   20.8060 C   0  0  0  0  0  3  0  0  0  0  0  0
  -25.9830  -26.8160   19.5760 C   0  0  0  0  0  3  0  0  0  0  0  0
  -24.8540  -27.6630   19.5650 C   0  0  0  0  0  3  0  0  0  0  0  0
  -23.6570  -29.8210   20.2390 C   0  0  0  0  0  2  0  0  0  0  0  0
  -24.7130  -31.0710   22.1630 N   0  0  0  0  0  0  0  0  0  0  0  0
  -23.5580  -32.1920   23.7760 O   0  0  0  0  0  0  0  0  0  0  0  0
  -22.7470  -29.5090   22.5790 C   0  0  0  0  0  0  0  0  0  0  0  0
  -21.4180  -29.3450   22.4480 N   0  0  0  0  0  0  0  0  0  0  0  0
  -23.4110  -28.8820   23.4080 O   0  0  0  0  0  0  0  0  0  0  0  0
  -20.9380  -29.9020   21.7540 H   0  0  0  0  0  0  0  0  0  0  0  0
  -18.0270  -28.1660   22.9440 C   0  0  0  0  0  0  0  0  0  0  0  0
  -20.5860  -28.4180   23.2210 C   0  0  0  0  0  3  0  0  0  0  0  0
  -20.6830  -26.9820   22.6560 C   0  0  0  0  0  2  0  0  0  0  0  0
  -19.5850  -26.6580   21.6380 C   0  0  0  0  0  2  0  0  0  0  0  0
  -18.2010  -26.8130   22.2750 C   0  0  0  0  0  2  0  0  0  0  0  0
  -19.1480  -28.9270   23.3730 C   0  0  0  0  0  0  0  0  0  0  0  0
  -18.9310  -30.1930   23.9610 C   0  0  0  0  0  3  0  0  0  0  0  0
  -17.6280  -30.6980   24.1230 C   0  0  0  0  0  3  0  0  0  0  0  0
  -16.5220  -29.9360   23.7090 C   0  0  0  0  0  3  0  0  0  0  0  0
  -16.7220  -28.6720   23.1250 C   0  0  0  0  0  3  0  0  0  0  0  0
  -25.9240  -32.5260   23.8800 C   0  0  0  0  0  3  0  0  0  0  0  0
  -26.4270  -31.7550   25.1630 C   0  0  1  0  0  0  0  0  0  0  0  0
  -25.3280  -31.5290   26.2280 C   0  0  0  0  0  1  0  0  0  0  0  0
  -27.0030  -30.3720   24.7860 C   0  0  0  0  0  1  0  0  0  0  0  0
  -27.5800  -32.5440   25.8290 C   0  0  0  0  0  1  0  0  0  0  0  0
  -25.6190  -33.9270   24.2140 N   0  0  0  0  0  0  0  0  0  0  0  0
  -25.9320  -34.9810   23.4490 C   0  0  0  0  0  0  0  0  0  0  0  0
  -26.5740  -34.8780   22.4010 O   0  0  0  0  0  0  0  0  0  0  0  0
  -25.0430  -34.0810   25.0290 H   0  0  0  0  0  0  0  0  0  0  0  0
  -24.1820  -36.7700   23.1610 C   0  0  0  0  0  1  0  0  0  0  0  0
  -25.4580  -36.3720   23.9200 C   0  0  0  0  0  3  0  0  0  0  0  0
  -27.6210  -37.2740   24.6560 C   0  0  0  0  0  1  0  0  0  0  0  0
  -26.4810  -37.4300   23.7560 N   0  0  0  0  0  0  0  0  0  0  0  0
  -26.0750  -38.3480   23.9130 H   0  0  0  0  0  0  0  0  0  0  0  0
  2  1  1  0
  3  1  2  0
  4  6  2  0
  4  5  1  0
  5  2  2  0
  6  3  1  0
  7  5  1  0
  7 10  1  0
  8  7  2  0
 10  9  1  0
 11 19  1  0
 12 17  1  0
 13 14  1  0
 13 12  1  0
 15 14  1  0
 15 24  1  0
 15 16  1  0
 17 11  1  0
 17 16  1  0
 18 11  2  0
 19 20  1  0
 19 10  1  0
 21 22  2  0
 22 41  1  0
 23 22  1  0
 23 26  1  0
 24 21  1  0
 24 25  1  0
 25 23  2  0
 26 27  1  0
 27 28  2  0
 29 32  1  0
 29 28  1  0
 30 29  2  0
 31 30  1  0
 31 26  2  0
 32 33  1  0
 33 34  1  0
 34 35  2  0
 36 35  1  0
 36 40  1  0
 37 36  2  0
 38 33  2  0
 38 37  1  0
 39 38  1  0
 41 42  1  0
 42 45  1  0
 42 44  1  0
 43 41  2  0
 46 47  1  0
 46 21  1  0
 48 46  1  0
 49  6  1  0
 49 50  1  0
 51 62  2  0
 52 50  1  0
 52 57  1  0
 53 61  1  0
 53 63  1  0
 54 60  1  0
 54 56  1  0
 55 61  1  0
 56 55  1  0
 57 56  2  0
 58 52  2  0
 59 58  1  0
 59 54  2  0
 60 53  1  0
 61 51  1  0
 63 65  2  0
 64 63  1  0
 66 64  1  0
 67 76  2  0
 67 72  1  0
 68 64  1  0
 68 72  1  0
 69 68  1  0
 70 71  1  0
 70 69  1  0
 71 67  1  0
 72 73  2  0
 73 74  1  0
 75 74  2  0
 76 75  1  0
 77 51  1  0
 77 82  1  0
 77 78  1  0
 78 81  1  1
 78 79  1  0
 80 78  1  0
 82 85  1  0
 83 87  1  0
 83 82  1  0
 84 83  2  0
 87 86  1  0
 89 90  1  0
 89 87  1  0
 89 88  1  0
M  ISO  4  11 100  19 100  49 101  50 101
M  END
>  <TORSDO>  (19) 
F 19

>  <SCORE>  (19) 
-14.638

>  <name>  (19) 
19

>  <ligand_id>  (19) 
19

>  <original_smiles>  (19) 
[H]c1c([H])c(C(=O)C([H])(N([H])C(=O)N2C([H])([H])C([H])([H])C([H])([H])C([H])(n3nc(-c4c([H])c([H])c(Oc5c([H])c([H])c(F)c([H])c5F)c([H])c4[H])c(C(=O)N([H])[H])c3N([H])[H])C2([H])[H])C([H])([H])[H])c([H])c(C([H])([H])Oc2c([H])c([H])c3c(c2[H])C([H])([H])N(C(=O)C([H])(N([H])C(=O)C([H])(N([H])C([H])([H])[H])C([H])([H])[H])C(C([H])([H])[H])(C([H])([H])[H])C([H])([H])[H])C([H])(C(=O)N([H])C2([H])c4c([H])c([H])c([H])c([H])c4C([H])([H])C([H])([H])C2([H])[H])C3([H])[H])c1[H]

>  <smiles>  (19) 
[H]c1c([H])c(C(=O)C([H])(N([H])C(=O)N2C([H])([H])C([H])([H])C([H])([H])C([H])(n3nc(-c4c([H])c([H])c(Oc5c([H])c([H])c(F)c([H])c5F)c([H])c4[H])c(C(=O)N([H])[H])c3N([H])[H])C2([H])[H])C([H])([H])[H])c([H])c(C([H])([H])Oc2c([H])c([H])c3c(c2[H])C([H])([H])N(C(=O)C([H])(N([H])C(=O)C([H])(N([H])C([H])([H])[H])C([H])([H])[H])C(C([H])([H])[H])(C([H])([H])[H])C([H])([H])[H])C([H])(C(=O)N([H])C2([H])c4c([H])c([H])c([H])c([H])c4C([H])([H])C([H])([H])C2([H])[H])C3([H])[H])c1[H]

$$$$
21:0:0
     RDKit          3D

 93101  0  0  1  0  0  0  0  0999 V2000
  -29.1860  -22.6340   20.3070 N   0  0  0  0  0  4  0  0  0  0  0  0
  -28.4260  -22.3420   20.8990 H   0  0  0  0  0  0  0  0  0  0  0  0
  -28.8920  -22.4590   19.3570 H   0  0  0  0  0  0  0  0  0  0  0  0
  -29.6490  -24.4820   21.9810 C   0  0  0  0  0  1  0  0  0  0  0  0
  -29.4000  -24.1410   20.4920 C   0  0  0  0  0  3  0  0  0  0  0  0
  -28.2370  -25.0780   19.9220 C   0  0  0  0  0  2  0  0  0  0  0  0
  -28.3570  -26.5380   20.1280 O   0  0  0  0  0  0  0  0  0  0  0  0
  -24.4910  -31.7870   23.1860 C   0  0  0  0  0  0  0  0  0  0  0  0
  -27.2000  -27.3330   20.0790 C   0  0  0  0  0  0  0  0  0  0  0  0
  -23.3140  -30.3930   21.5220 C   0  0  0  0  0  3  0  0  0  0  0  0
  -24.7960  -28.8840   20.0860 C   0  0  0  0  0  0  0  0  0  0  0  0
  -25.8470  -30.7580   21.3540 C   0  0  0  0  0  2  0  0  0  0  0  0
  -25.9520  -29.3940   20.6880 C   0  0  0  0  0  0  0  0  0  0  0  0
  -27.1560  -28.6300   20.6730 C   0  0  0  0  0  3  0  0  0  0  0  0
  -26.0170  -26.8690   19.4580 C   0  0  0  0  0  3  0  0  0  0  0  0
  -24.8290  -27.6250   19.4670 C   0  0  0  0  0  3  0  0  0  0  0  0
  -23.5430  -29.7320   20.1360 C   0  0  0  0  0  2  0  0  0  0  0  0
  -24.5690  -30.9970   22.0760 N   0  0  0  0  0  0  0  0  0  0  0  0
  -23.4010  -32.0440   23.7180 O   0  0  0  0  0  0  0  0  0  0  0  0
  -22.6630  -29.3550   22.4660 C   0  0  0  0  0  0  0  0  0  0  0  0
  -21.3440  -29.1420   22.3130 N   0  0  0  0  0  0  0  0  0  0  0  0
  -23.3440  -28.7390   23.2900 O   0  0  0  0  0  0  0  0  0  0  0  0
  -20.8540  -29.6920   21.6220 H   0  0  0  0  0  0  0  0  0  0  0  0
  -17.9940  -27.8480   22.7320 C   0  0  0  0  0  0  0  0  0  0  0  0
  -20.5360  -28.1820   23.0640 C   0  0  0  0  0  3  0  0  0  0  0  0
  -20.6940  -26.7530   22.4930 C   0  0  0  0  0  2  0  0  0  0  0  0
  -19.6270  -26.4000   21.4500 C   0  0  0  0  0  2  0  0  0  0  0  0
  -18.2270  -26.5050   22.0620 C   0  0  0  0  0  2  0  0  0  0  0  0
  -19.0790  -28.6430   23.1870 C   0  0  0  0  0  0  0  0  0  0  0  0
  -18.8070  -29.9000   23.7710 C   0  0  0  0  0  3  0  0  0  0  0  0
  -17.4830  -30.3600   23.9050 C   0  0  0  0  0  3  0  0  0  0  0  0
  -16.4130  -29.5610   23.4670 C   0  0  0  0  0  3  0  0  0  0  0  0
  -16.6700  -28.3060   22.8850 C   0  0  0  0  0  3  0  0  0  0  0  0
  -25.7630  -32.4300   23.8230 C   0  0  0  0  0  3  0  0  0  0  0  0
  -26.2720  -31.6640   25.1070 C   0  0  1  0  0  0  0  0  0  0  0  0
  -25.1700  -31.4150   26.1630 C   0  0  0  0  0  1  0  0  0  0  0  0
  -26.8750  -30.2920   24.7250 C   0  0  0  0  0  1  0  0  0  0  0  0
  -27.4110  -32.4670   25.7800 C   0  0  0  0  0  1  0  0  0  0  0  0
  -25.4390  -33.8250   24.1500 N   0  0  0  0  0  0  0  0  0  0  0  0
  -25.7540  -34.8790   23.3840 C   0  0  0  0  0  0  0  0  0  0  0  0
  -26.4180  -34.7780   22.3490 O   0  0  0  0  0  0  0  0  0  0  0  0
  -24.8550  -33.9780   24.9590 H   0  0  0  0  0  0  0  0  0  0  0  0
  -23.9910  -36.6390   23.0450 C   0  0  0  0  0  1  0  0  0  0  0  0
  -25.2520  -36.2630   23.8380 C   0  0  0  0  0  3  0  0  0  0  0  0
  -27.3850  -37.1900   24.6260 C   0  0  0  0  0  1  0  0  0  0  0  0
  -26.2660  -37.3330   23.6990 N   0  0  0  0  0  0  0  0  0  0  0  0
  -25.8460  -38.2470   23.8460 H   0  0  0  0  0  0  0  0  0  0  0  0
  -30.3660  -21.7180   20.5780 C   0  0  0  0  0  2  0  0  0  0  0  0
  -31.3860  -19.3170   20.4850 C   0  0  0  0  0  3  0  0  0  0  0  0
  -31.3130  -17.8900   20.5080 C   0  0  0  0  0  3  0  0  0  0  0  0
  -28.9910  -19.4720   20.4170 C   0  0  0  0  0  3  0  0  0  0  0  0
  -30.2310  -20.1520   20.4510 C   0  0  0  0  0  0  0  0  0  0  0  0
  -28.9100  -18.0480   20.4460 C   0  0  0  0  0  0  0  0  0  0  0  0
  -30.0670  -17.2070   20.4950 C   0  0  0  0  0  0  0  0  0  0  0  0
  -27.5310  -17.4260   20.3890 C   0  0  0  0  0  1  0  0  0  0  0  0
  -30.6340  -14.6880   20.0810 C   0  0  0  0  0  0  0  0  0  0  0  0
  -30.3300  -12.4960   18.9500 C   0  0  0  0  0  2  0  0  0  0  0  0
  -29.3380  -12.6750   17.7800 C   0  0  0  0  0  2  0  0  0  0  0  0
  -27.8780  -12.5330   18.2560 C   0  0  0  0  0  2  0  0  0  0  0  0
  -27.5780  -13.3410   19.5470 C   0  0  0  0  0  3  0  0  0  0  0  0
  -28.6860  -13.1370   20.6070 C   0  0  0  0  0  2  0  0  0  0  0  0
  -29.9770  -13.4830   19.9900 N   0  0  0  0  0  0  0  0  0  0  0  0
  -31.7730  -14.8260   19.6300 O   0  0  0  0  0  0  0  0  0  0  0  0
  -29.8930  -15.7460   20.5430 N   0  0  0  0  0  0  0  0  0  0  0  0
  -28.9940  -15.4560   20.8890 H   0  0  0  0  0  0  0  0  0  0  0  0
  -25.1950  -13.9190   20.3300 C   0  0  0  0  0  0  0  0  0  0  0  0
  -24.1490  -13.1470   20.7500 C   0  0  0  0  0  0  0  0  0  0  0  0
  -24.6200  -11.8000   20.7080 C   0  0  0  0  0  0  0  0  0  0  0  0
  -26.2440  -13.0510   20.0740 N   0  0  0  0  0  0  0  0  0  0  0  0
  -25.9010  -11.7670   20.3560 N   0  0  0  0  0  0  0  0  0  0  0  0
  -23.9070  -10.5380   20.9240 C   0  0  0  0  0  0  0  0  0  0  0  0
  -24.3450   -9.5980   21.8810 C   0  0  0  0  0  3  0  0  0  0  0  0
  -23.6280   -8.3980   22.0860 C   0  0  0  0  0  3  0  0  0  0  0  0
  -22.4590   -8.1340   21.3330 C   0  0  0  0  0  0  0  0  0  0  0  0
  -22.0420   -9.0630   20.3650 C   0  0  0  0  0  3  0  0  0  0  0  0
  -22.7600  -10.2520   20.1570 C   0  0  0  0  0  3  0  0  0  0  0  0
  -21.7140   -6.9840   21.4450 O   0  0  0  0  0  0  0  0  0  0  0  0
  -21.6350   -6.2900   22.6270 C   0  0  0  0  0  0  0  0  0  0  0  0
  -21.1610   -6.8910   23.8120 C   0  0  0  0  0  3  0  0  0  0  0  0
  -21.0300   -6.1250   24.9880 C   0  0  0  0  0  3  0  0  0  0  0  0
  -21.3620   -4.7580   24.9780 C   0  0  0  0  0  0  0  0  0  0  0  0
  -21.8290   -4.1550   23.7960 C   0  0  0  0  0  3  0  0  0  0  0  0
  -21.9640   -4.9190   22.6230 C   0  0  0  0  0  0  0  0  0  0  0  0
  -22.3930   -4.3280   21.4820 F   0  0  0  0  0  0  0  0  0  0  0  0
  -21.2290   -4.0200   26.1040 F   0  0  0  0  0  0  0  0  0  0  0  0
  -22.7600  -13.6250   21.0620 C   0  0  0  0  0  0  0  0  0  0  0  0
  -22.0650  -12.9400   21.9640 N   0  0  0  0  0  0  0  0  0  0  0  0
  -22.3000  -14.6410   20.5440 O   0  0  0  0  0  0  0  0  0  0  0  0
  -22.4500  -12.1190   22.4100 H   0  0  0  0  0  0  0  0  0  0  0  0
  -21.1320  -13.2350   22.2080 H   0  0  0  0  0  0  0  0  0  0  0  0
  -25.3210  -15.2820   20.1160 N   0  0  0  0  0  0  0  0  0  0  0  0
  -24.5340  -15.9160   20.2010 H   0  0  0  0  0  0  0  0  0  0  0  0
  -26.1230  -15.7030   19.6700 H   0  0  0  0  0  0  0  0  0  0  0  0
  1  5  1  0
  1 48  1  0
  1  2  1  0
  3  1  1  0
  5  4  1  0
  6  7  1  0
  6  5  1  0
  8 19  2  0
  9  7  1  0
  9 14  1  0
 10 18  1  0
 10 20  1  0
 11 17  1  0
 11 13  1  0
 12 18  1  0
 13 12  1  0
 14 13  2  0
 15 16  1  0
 15  9  2  0
 16 11  2  0
 17 10  1  0
 18  8  1  0
 20 22  2  0
 21 20  1  0
 23 21  1  0
 24 33  2  0
 24 29  1  0
 25 21  1  0
 25 29  1  0
 26 25  1  0
 27 28  1  0
 27 26  1  0
 28 24  1  0
 29 30  2  0
 30 31  1  0
 32 31  2  0
 33 32  1  0
 34  8  1  0
 34 39  1  0
 34 35  1  0
 35 38  1  1
 35 36  1  0
 37 35  1  0
 39 42  1  0
 40 44  1  0
 40 39  1  0
 41 40  2  0
 44 43  1  0
 46 44  1  0
 46 47  1  0
 46 45  1  0
 49 50  1  0
 51 53  2  0
 51 52  1  0
 52 49  2  0
 52 48  1  0
 53 54  1  0
 54 50  2  0
 54 64  1  0
 55 53  1  0
 56 64  1  0
 57 62  1  0
 58 59  1  0
 58 57  1  0
 60 59  1  0
 60 69  1  0
 60 61  1  0
 62 56  1  0
 62 61  1  0
 63 56  2  0
 64 65  1  0
 66 67  2  0
 67 86  1  0
 68 67  1  0
 68 71  1  0
 69 66  1  0
 69 70  1  0
 70 68  2  0
 71 72  1  0
 72 73  2  0
 74 77  1  0
 74 73  1  0
 75 74  2  0
 76 75  1  0
 76 71  2  0
 77 78  1  0
 78 79  1  0
 79 80  2  0
 81 80  1  0
 81 85  1  0
 82 81  2  0
 83 78  2  0
 83 82  1  0
 84 83  1  0
 86 87  1  0
 87 90  1  0
 87 89  1  0
 88 86  2  0
 91 92  1  0
 91 66  1  0
 93 91  1  0
M  ISO  4   6 101   7 101  56 100  64 100
M  END
>  <TORSDO>  (20) 
F 20

>  <SCORE>  (20) 
-13.801

>  <name>  (20) 
21

>  <ligand_id>  (20) 
21

>  <original_smiles>  (20) 
[H]c1c([H])c([H])c2c(c1[H])C([H])([H])C([H])([H])C([H])([H])C2([H])N([H])C(=O)C1([H])N(C(=O)C([H])(N([H])C(=O)C([H])(N([H])C([H])([H])[H])C([H])([H])[H])C(C([H])([H])[H])(C([H])([H])[H])C([H])([H])[H])C([H])([H])c2c([H])c(OC([H])([H])C([H])(C([H])([H])[H])[N+]([H])([H])C([H])([H])c3c([H])c([H])c(N([H])C(=O)N4C([H])([H])C([H])([H])C([H])([H])C([H])(n5nc(-c6c([H])c([H])c(Oc7c([H])c([H])c(F)c([H])c7F)c([H])c6[H])c(C(=O)N([H])[H])c5N([H])[H])C4([H])[H])c(C([H])([H])[H])c3[H])c([H])c([H])c2C1([H])[H]

>  <smiles>  (20) 
[H]c1c([H])c([H])c2c(c1[H])C([H])([H])C([H])([H])C([H])([H])C2([H])N([H])C(=O)C1([H])N(C(=O)C([H])(N([H])C(=O)C([H])(N([H])C([H])([H])[H])C([H])([H])[H])C(C([H])([H])[H])(C([H])([H])[H])C([H])([H])[H])C([H])([H])c2c([H])c(OC([H])([H])C([H])(C([H])([H])[H])[N+]([H])([H])C([H])([H])c3c([H])c([H])c(N([H])C(=O)N4C([H])([H])C([H])([H])C([H])([H])C([H])(n5nc(-c6c([H])c([H])c(Oc7c([H])c([H])c(F)c([H])c7F)c([H])c6[H])c(C(=O)N([H])[H])c5N([H])[H])C4([H])[H])c(C([H])([H])[H])c3[H])c([H])c([H])c2C1([H])[H]

$$$$
22:0:0
     RDKit          3D

 94103  0  0  1  0  0  0  0  0999 V2000
  -27.6900  -22.1980   19.6100 C   0  0  0  0  0  0  0  0  0  0  0  0
  -28.0980  -21.0840   18.9770 N   0  0  0  0  0  0  0  0  0  0  0  0
  -26.9140  -22.2060   20.5690 O   0  0  0  0  0  0  0  0  0  0  0  0
  -28.7590  -21.2600   18.2350 H   0  0  0  0  0  0  0  0  0  0  0  0
  -26.5950  -17.7640   19.9470 C   0  0  0  0  0  3  0  0  0  0  0  0
  -27.7660  -16.9950   20.1090 C   0  0  0  0  0  3  0  0  0  0  0  0
  -26.6760  -19.1250   19.5820 C   0  0  0  0  0  3  0  0  0  0  0  0
  -29.1060  -18.9370   19.4940 C   0  0  0  0  0  3  0  0  0  0  0  0
  -29.0320  -17.5800   19.8820 C   0  0  0  0  0  0  0  0  0  0  0  0
  -27.9400  -19.7250   19.3690 C   0  0  0  0  0  0  0  0  0  0  0  0
  -30.3250  -16.7910   20.0710 C   0  0  0  0  0  2  0  0  0  0  0  0
  -30.9100  -14.3820   20.1790 C   0  0  0  0  0  0  0  0  0  0  0  0
  -30.7110  -12.0430   19.4310 C   0  0  0  0  0  2  0  0  0  0  0  0
  -29.7980  -12.0310   18.1870 C   0  0  0  0  0  2  0  0  0  0  0  0
  -28.3140  -11.9270   18.6010 C   0  0  0  0  0  2  0  0  0  0  0  0
  -27.9290  -12.9550   19.6990 C   0  0  0  0  0  3  0  0  0  0  0  0
  -28.9630  -12.9320   20.8480 C   0  0  0  0  0  2  0  0  0  0  0  0
  -30.2980  -13.1730   20.2700 N   0  0  0  0  0  0  0  0  0  0  0  0
  -32.0240  -14.5480   19.6640 O   0  0  0  0  0  0  0  0  0  0  0  0
  -30.1300  -15.4160   20.5110 N   0  0  0  0  0  0  0  0  0  0  0  0
  -29.2420  -15.1960   20.9320 H   0  0  0  0  0  0  0  0  0  0  0  0
  -25.5670  -13.6510   20.4520 C   0  0  0  0  0  0  0  0  0  0  0  0
  -24.4790  -12.9180   20.8410 C   0  0  0  0  0  0  0  0  0  0  0  0
  -24.8860  -11.5490   20.7930 C   0  0  0  0  0  0  0  0  0  0  0  0
  -26.5740  -12.7320   20.1950 N   0  0  0  0  0  0  0  0  0  0  0  0
  -26.1690  -11.4610   20.4550 N   0  0  0  0  0  0  0  0  0  0  0  0
  -24.1160  -10.3150   20.9940 C   0  0  0  0  0  0  0  0  0  0  0  0
  -24.4430   -9.3980   22.0180 C   0  0  0  0  0  3  0  0  0  0  0  0
  -23.6780   -8.2270   22.2020 C   0  0  0  0  0  3  0  0  0  0  0  0
  -22.5700   -7.9650   21.3590 C   0  0  0  0  0  0  0  0  0  0  0  0
  -22.2640   -8.8680   20.3260 C   0  0  0  0  0  3  0  0  0  0  0  0
  -23.0300  -10.0310   20.1420 C   0  0  0  0  0  3  0  0  0  0  0  0
  -21.7860   -6.8410   21.4470 O   0  0  0  0  0  0  0  0  0  0  0  0
  -21.5140   -6.2450   22.6530 C   0  0  0  0  0  0  0  0  0  0  0  0
  -20.8780   -6.9440   23.7020 C   0  0  0  0  0  3  0  0  0  0  0  0
  -20.5530   -6.2740   24.9000 C   0  0  0  0  0  3  0  0  0  0  0  0
  -20.8560   -4.9070   25.0470 C   0  0  0  0  0  0  0  0  0  0  0  0
  -21.4860   -4.2090   24.0020 C   0  0  0  0  0  3  0  0  0  0  0  0
  -21.8120   -4.8760   22.8080 C   0  0  0  0  0  0  0  0  0  0  0  0
  -22.3990   -4.1960   21.7950 F   0  0  0  0  0  0  0  0  0  0  0  0
  -20.5380   -4.2610   26.1920 F   0  0  0  0  0  0  0  0  0  0  0  0
  -23.1070  -13.4450   21.1500 C   0  0  0  0  0  0  0  0  0  0  0  0
  -22.3820  -12.7830   22.0450 N   0  0  0  0  0  0  0  0  0  0  0  0
  -22.6880  -14.4790   20.6320 O   0  0  0  0  0  0  0  0  0  0  0  0
  -22.7330  -11.9470   22.4870 H   0  0  0  0  0  0  0  0  0  0  0  0
  -21.4620  -13.1200   22.2940 H   0  0  0  0  0  0  0  0  0  0  0  0
  -25.7780  -15.0160   20.2770 N   0  0  0  0  0  0  0  0  0  0  0  0
  -25.0370  -15.6960   20.4020 H   0  0  0  0  0  0  0  0  0  0  0  0
  -26.6500  -15.4310   19.9740 H   0  0  0  0  0  0  0  0  0  0  0  0
  -29.6920  -23.5200   18.7010 C   0  0  0  0  0  2  0  0  0  0  0  0
  -28.2090  -23.4660   19.0010 C   0  0  0  0  0  3  0  0  0  0  0  0
  -29.1370  -24.3470   19.8360 C   0  0  0  0  0  3  0  0  0  0  0  0
  -29.2690  -25.8560   19.6860 C   0  0  0  0  0  2  0  0  0  0  0  0
  -28.7540  -26.5730   20.8090 O   0  0  0  0  0  0  0  0  0  0  0  0
  -24.6340  -31.7410   23.4110 C   0  0  0  0  0  0  0  0  0  0  0  0
  -27.5430  -27.2240   20.6990 C   0  0  0  0  0  0  0  0  0  0  0  0
  -23.5540  -30.2500   21.7570 C   0  0  0  0  0  3  0  0  0  0  0  0
  -25.1190  -28.6710   20.5040 C   0  0  0  0  0  0  0  0  0  0  0  0
  -26.0800  -30.6430   21.7040 C   0  0  0  0  0  2  0  0  0  0  0  0
  -26.2240  -29.2440   21.1420 C   0  0  0  0  0  0  0  0  0  0  0  0
  -27.4340  -28.5220   21.2470 C   0  0  0  0  0  3  0  0  0  0  0  0
  -26.4110  -26.6520   20.0750 C   0  0  0  0  0  3  0  0  0  0  0  0
  -25.2040  -27.3700   19.9750 C   0  0  0  0  0  3  0  0  0  0  0  0
  -23.8640  -29.5110   20.4270 C   0  0  0  0  0  2  0  0  0  0  0  0
  -24.7710  -30.8960   22.3500 N   0  0  0  0  0  0  0  0  0  0  0  0
  -23.5180  -32.0200   23.8680 O   0  0  0  0  0  0  0  0  0  0  0  0
  -22.8570  -29.2610   22.7190 C   0  0  0  0  0  0  0  0  0  0  0  0
  -21.5480  -29.0440   22.5110 N   0  0  0  0  0  0  0  0  0  0  0  0
  -23.4950  -28.6880   23.6070 O   0  0  0  0  0  0  0  0  0  0  0  0
  -21.0870  -29.5720   21.7840 H   0  0  0  0  0  0  0  0  0  0  0  0
  -18.1700  -27.8080   22.8140 C   0  0  0  0  0  0  0  0  0  0  0  0
  -20.6960  -28.1230   23.2620 C   0  0  0  0  0  3  0  0  0  0  0  0
  -20.8630  -26.6710   22.7600 C   0  0  0  0  0  2  0  0  0  0  0  0
  -19.8440  -26.2820   21.6810 C   0  0  0  0  0  2  0  0  0  0  0  0
  -18.4140  -26.4350   22.2110 C   0  0  0  0  0  2  0  0  0  0  0  0
  -19.2420  -28.6080   23.2900 C   0  0  0  0  0  0  0  0  0  0  0  0
  -18.9640  -29.8910   23.8050 C   0  0  0  0  0  3  0  0  0  0  0  0
  -17.6440  -30.3790   23.8520 C   0  0  0  0  0  3  0  0  0  0  0  0
  -16.5840  -29.5770   23.3950 C   0  0  0  0  0  3  0  0  0  0  0  0
  -16.8460  -28.2940   22.8840 C   0  0  0  0  0  3  0  0  0  0  0  0
  -25.8720  -32.4170   24.0840 C   0  0  0  0  0  3  0  0  0  0  0  0
  -26.3030  -31.7190   25.4320 C   0  0  1  0  0  0  0  0  0  0  0  0
  -25.1320  -31.4990   26.4170 C   0  0  0  0  0  1  0  0  0  0  0  0
  -26.9530  -30.3440   25.1510 C   0  0  0  0  0  1  0  0  0  0  0  0
  -27.3730  -32.5780   26.1470 C   0  0  0  0  0  1  0  0  0  0  0  0
  -25.5350  -33.8270   24.3110 N   0  0  0  0  0  0  0  0  0  0  0  0
  -25.9090  -34.8350   23.5130 C   0  0  0  0  0  0  0  0  0  0  0  0
  -26.6430  -34.6790   22.5330 O   0  0  0  0  0  0  0  0  0  0  0  0
  -24.8900  -34.0220   25.0610 H   0  0  0  0  0  0  0  0  0  0  0  0
  -24.1960  -36.5870   22.9410 C   0  0  0  0  0  1  0  0  0  0  0  0
  -25.3830  -36.2430   23.8540 C   0  0  0  0  0  3  0  0  0  0  0  0
  -27.4540  -37.1950   24.7670 C   0  0  0  0  0  1  0  0  0  0  0  0
  -26.4130  -37.2990   23.7480 N   0  0  0  0  0  0  0  0  0  0  0  0
  -25.9930  -38.2220   23.8160 H   0  0  0  0  0  0  0  0  0  0  0  0
  1  3  2  0
  2 10  1  0
  2  1  1  0
  4  2  1  0
  5  6  1  0
  7  5  2  0
  8  9  1  0
  9 11  1  0
  9  6  2  0
 10  8  2  0
 10  7  1  0
 11 20  1  0
 12 18  1  0
 12 20  1  0
 13 18  1  0
 14 15  1  0
 14 13  1  0
 16 15  1  0
 16 25  1  0
 16 17  1  0
 18 17  1  0
 19 12  2  0
 20 21  1  0
 22 23  2  0
 23 42  1  0
 24 23  1  0
 24 27  1  0
 25 22  1  0
 25 26  1  0
 26 24  2  0
 27 28  1  0
 28 29  2  0
 30 33  1  0
 30 29  1  0
 31 30  2  0
 32 31  1  0
 32 27  2  0
 33 34  1  0
 34 39  2  0
 34 35  1  0
 35 36  2  0
 36 37  1  0
 37 41  1  0
 38 37  2  0
 39 38  1  0
 40 39  1  0
 42 43  1  0
 43 46  1  0
 43 45  1  0
 44 42  2  0
 47 48  1  0
 47 22  1  0
 49 47  1  0
 50 51  1  0
 50 52  1  0
 51  1  1  0
 51 52  1  0
 52 53  1  0
 53 54  1  0
 55 66  2  0
 56 54  1  0
 56 61  1  0
 57 65  1  0
 57 67  1  0
 58 60  1  0
 59 65  1  0
 60 61  2  0
 60 59  1  0
 62 56  2  0
 63 62  1  0
 63 58  2  0
 64 58  1  0
 64 57  1  0
 65 55  1  0
 67 69  2  0
 68 67  1  0
 70 68  1  0
 71 80  2  0
 71 76  1  0
 72 68  1  0
 72 76  1  0
 73 72  1  0
 74 75  1  0
 74 73  1  0
 75 71  1  0
 76 77  2  0
 77 78  1  0
 79 78  2  0
 80 79  1  0
 81 55  1  0
 81 86  1  0
 81 82  1  0
 82 85  1  1
 82 83  1  0
 84 82  1  0
 86 89  1  0
 87 91  1  0
 87 86  1  0
 88 87  2  0
 91 90  1  0
 93 94  1  0
 93 91  1  0
 93 92  1  0
M  ISO  4  12 100  20 100  53 101  54 101
M  END
>  <TORSDO>  (21) 
F 20

>  <SCORE>  (21) 
-12.598

>  <name>  (21) 
22

>  <ligand_id>  (21) 
22

>  <original_smiles>  (21) 
[H]c1c([H])c(N([H])C(=O)C2([H])C([H])([H])C2([H])C([H])([H])Oc2c([H])c([H])c3c(c2[H])C([H])([H])N(C(=O)C([H])(N([H])C(=O)C([H])(N([H])C([H])([H])[H])C([H])([H])[H])C(C([H])([H])[H])(C([H])([H])[H])C([H])([H])[H])C([H])(C(=O)N([H])C2([H])c4c([H])c([H])c([H])c([H])c4C([H])([H])C([H])([H])C2([H])[H])C3([H])[H])c([H])c(C([H])([H])N([H])C(=O)N2C([H])([H])C([H])([H])C([H])([H])C([H])(n3nc(-c4c([H])c([H])c(Oc5c([H])c([H])c(F)c([H])c5F)c([H])c4[H])c(C(=O)N([H])[H])c3N([H])[H])C2([H])[H])c1[H]

>  <smiles>  (21) 
[H]c1c([H])c(N([H])C(=O)C2([H])C([H])([H])C2([H])C([H])([H])Oc2c([H])c([H])c3c(c2[H])C([H])([H])N(C(=O)C([H])(N([H])C(=O)C([H])(N([H])C([H])([H])[H])C([H])([H])[H])C(C([H])([H])[H])(C([H])([H])[H])C([H])([H])[H])C([H])(C(=O)N([H])C2([H])c4c([H])c([H])c([H])c([H])c4C([H])([H])C([H])([H])C2([H])[H])C3([H])[H])c([H])c(C([H])([H])N([H])C(=O)N2C([H])([H])C([H])([H])C([H])([H])C([H])(n3nc(-c4c([H])c([H])c(Oc5c([H])c([H])c(F)c([H])c5F)c([H])c4[H])c(C(=O)N([H])[H])c3N([H])[H])C2([H])[H])c1[H]

$$$$
23:0:0
     RDKit          3D

 92101  0  0  1  0  0  0  0  0999 V2000
  -29.8470  -20.6120   19.6510 C   0  0  0  0  0  2  0  0  0  0  0  0
  -27.5070  -17.6680   20.7710 C   0  0  0  0  0  2  0  0  0  0  0  0
  -27.8540  -16.4960   19.8610 C   0  0  0  0  0  2  0  0  0  0  0  0
  -28.0920  -18.3790   18.5320 C   0  0  0  0  0  2  0  0  0  0  0  0
  -28.0730  -18.8510   19.9800 C   0  0  0  0  0  3  0  0  0  0  0  0
  -28.8700  -17.1140   18.8480 C   0  0  0  0  0  3  0  0  0  0  0  0
  -29.5830  -19.0230   20.2260 C   0  0  0  0  0  3  0  0  0  0  0  0
  -30.1960  -17.5400   19.5700 C   0  0  0  0  0  3  0  0  0  0  0  0
  -31.2260  -14.9180   19.9060 C   0  0  0  0  0  0  0  0  0  0  0  0
  -30.9840  -12.4970   19.1580 C   0  0  0  0  0  2  0  0  0  0  0  0
  -30.0490  -12.4220   17.9250 C   0  0  0  0  0  2  0  0  0  0  0  0
  -28.5760  -12.3150   18.3620 C   0  0  0  0  0  2  0  0  0  0  0  0
  -28.2220  -13.3350   19.4760 C   0  0  0  0  0  3  0  0  0  0  0  0
  -29.2810  -13.3630   20.6050 C   0  0  0  0  0  2  0  0  0  0  0  0
  -30.5830  -13.6740   19.9930 N   0  0  0  0  0  0  0  0  0  0  0  0
  -32.3650  -14.9210   19.4300 O   0  0  0  0  0  0  0  0  0  0  0  0
  -30.5650  -16.1350   20.2510 N   0  0  0  0  0  0  0  0  0  0  0  0
  -29.8180  -15.9020   20.8850 H   0  0  0  0  0  0  0  0  0  0  0  0
  -25.8810  -14.0780   20.2040 C   0  0  0  0  0  0  0  0  0  0  0  0
  -24.7770  -13.3970   20.6230 C   0  0  0  0  0  0  0  0  0  0  0  0
  -25.1410  -12.0160   20.5960 C   0  0  0  0  0  0  0  0  0  0  0  0
  -26.8680  -13.1340   19.9870 N   0  0  0  0  0  0  0  0  0  0  0  0
  -26.4250  -11.8820   20.2750 N   0  0  0  0  0  0  0  0  0  0  0  0
  -24.3170  -10.8210   20.7950 C   0  0  0  0  0  0  0  0  0  0  0  0
  -24.6920   -9.8100   21.7070 C   0  0  0  0  0  3  0  0  0  0  0  0
  -23.8690   -8.6790   21.8950 C   0  0  0  0  0  3  0  0  0  0  0  0
  -22.6580   -8.5540   21.1730 C   0  0  0  0  0  0  0  0  0  0  0  0
  -22.3010   -9.5530   20.2510 C   0  0  0  0  0  3  0  0  0  0  0  0
  -23.1240  -10.6750   20.0590 C   0  0  0  0  0  3  0  0  0  0  0  0
  -21.8070   -7.4780   21.2760 O   0  0  0  0  0  0  0  0  0  0  0  0
  -21.7400   -6.7220   22.4190 C   0  0  0  0  0  0  0  0  0  0  0  0
  -21.4200   -7.2910   23.6720 C   0  0  0  0  0  3  0  0  0  0  0  0
  -21.2950   -6.4660   24.8070 C   0  0  0  0  0  3  0  0  0  0  0  0
  -21.4780   -5.0760   24.6920 C   0  0  0  0  0  0  0  0  0  0  0  0
  -21.7920   -4.5070   23.4460 C   0  0  0  0  0  3  0  0  0  0  0  0
  -21.9200   -5.3280   22.3120 C   0  0  0  0  0  0  0  0  0  0  0  0
  -22.2010   -4.7730   21.1080 F   0  0  0  0  0  0  0  0  0  0  0  0
  -21.3490   -4.2830   25.7810 F   0  0  0  0  0  0  0  0  0  0  0  0
  -23.4300  -13.9890   20.9170 C   0  0  0  0  0  0  0  0  0  0  0  0
  -22.6710  -13.3710   21.8140 N   0  0  0  0  0  0  0  0  0  0  0  0
  -23.0650  -15.0400   20.3910 O   0  0  0  0  0  0  0  0  0  0  0  0
  -22.9800  -12.5220   22.2650 H   0  0  0  0  0  0  0  0  0  0  0  0
  -21.7670  -13.7510   22.0550 H   0  0  0  0  0  0  0  0  0  0  0  0
  -26.0990  -15.4190   19.9530 N   0  0  0  0  0  0  0  0  0  0  0  0
  -25.3550  -16.1030   20.0420 H   0  0  0  0  0  0  0  0  0  0  0  0
  -26.9590  -15.8100   19.5990 H   0  0  0  0  0  0  0  0  0  0  0  0
  -29.2410  -23.3200   19.9400 C   0  0  0  0  0  0  0  0  0  0  0  0
  -29.0550  -21.9160   20.1200 N   0  0  0  0  0  0  0  0  0  0  0  0
  -30.2900  -23.6970   19.4160 O   0  0  0  0  0  0  0  0  0  0  0  0
  -28.1810  -21.7020   20.5810 H   0  0  0  0  0  0  0  0  0  0  0  0
  -28.1370  -24.5030   20.3440 C   0  0  0  0  0  2  0  0  0  0  0  0
  -28.4190  -26.0420   20.2490 O   0  0  0  0  0  0  0  0  0  0  0  0
  -24.6670  -31.7020   23.1890 C   0  0  0  0  0  0  0  0  0  0  0  0
  -27.3450  -27.0120   20.2060 C   0  0  0  0  0  0  0  0  0  0  0  0
  -23.5070  -30.3030   21.5220 C   0  0  0  0  0  3  0  0  0  0  0  0
  -24.9960  -28.7380   20.1260 C   0  0  0  0  0  0  0  0  0  0  0  0
  -26.0630  -30.5880   21.4060 C   0  0  0  0  0  2  0  0  0  0  0  0
  -26.1610  -29.1960   20.7570 C   0  0  0  0  0  0  0  0  0  0  0  0
  -27.3360  -28.3500   20.7760 C   0  0  0  0  0  3  0  0  0  0  0  0
  -26.1530  -26.6600   19.5330 C   0  0  0  0  0  3  0  0  0  0  0  0
  -25.0060  -27.4830   19.4990 C   0  0  0  0  0  3  0  0  0  0  0  0
  -23.7600  -29.6260   20.1480 C   0  0  0  0  0  2  0  0  0  0  0  0
  -24.7640  -30.8860   22.0940 N   0  0  0  0  0  0  0  0  0  0  0  0
  -23.5690  -31.9790   23.6970 O   0  0  0  0  0  0  0  0  0  0  0  0
  -22.8140  -29.2920   22.4700 C   0  0  0  0  0  0  0  0  0  0  0  0
  -21.4840  -29.1380   22.3400 N   0  0  0  0  0  0  0  0  0  0  0  0
  -23.4780  -28.6470   23.2850 O   0  0  0  0  0  0  0  0  0  0  0  0
  -21.0060  -29.7050   21.6550 H   0  0  0  0  0  0  0  0  0  0  0  0
  -18.0910  -27.9870   22.8480 C   0  0  0  0  0  0  0  0  0  0  0  0
  -20.6550  -28.1970   23.0980 C   0  0  0  0  0  3  0  0  0  0  0  0
  -20.7260  -26.7780   22.4900 C   0  0  0  0  0  2  0  0  0  0  0  0
  -19.6100  -26.5010   21.4770 C   0  0  0  0  0  2  0  0  0  0  0  0
  -18.2390  -26.6500   22.1410 C   0  0  0  0  0  2  0  0  0  0  0  0
  -19.2260  -28.7190   23.2860 C   0  0  0  0  0  0  0  0  0  0  0  0
  -19.0340  -29.9690   23.9150 C   0  0  0  0  0  3  0  0  0  0  0  0
  -17.7390  -30.4860   24.1070 C   0  0  0  0  0  3  0  0  0  0  0  0
  -16.6190  -29.7520   23.6810 C   0  0  0  0  0  3  0  0  0  0  0  0
  -16.7950  -28.5030   23.0580 C   0  0  0  0  0  3  0  0  0  0  0  0
  -25.9290  -32.3430   23.8430 C   0  0  0  0  0  3  0  0  0  0  0  0
  -26.4100  -31.5830   25.1400 C   0  0  1  0  0  0  0  0  0  0  0  0
  -25.2870  -31.3480   26.1760 C   0  0  0  0  0  1  0  0  0  0  0  0
  -27.0110  -30.2040   24.7800 C   0  0  0  0  0  1  0  0  0  0  0  0
  -27.5370  -32.3880   25.8300 C   0  0  0  0  0  1  0  0  0  0  0  0
  -25.6070  -33.7440   24.1600 N   0  0  0  0  0  0  0  0  0  0  0  0
  -25.9720  -34.7990   23.4190 C   0  0  0  0  0  0  0  0  0  0  0  0
  -26.6800  -34.6960   22.4150 O   0  0  0  0  0  0  0  0  0  0  0  0
  -24.9830  -33.8990   24.9380 H   0  0  0  0  0  0  0  0  0  0  0  0
  -24.2610  -36.6000   23.0100 C   0  0  0  0  0  1  0  0  0  0  0  0
  -25.4730  -36.1900   23.8620 C   0  0  0  0  0  3  0  0  0  0  0  0
  -27.5800  -37.0710   24.7660 C   0  0  0  0  0  1  0  0  0  0  0  0
  -26.5110  -37.2410   23.7860 N   0  0  0  0  0  0  0  0  0  0  0  0
  -26.1020  -38.1620   23.9170 H   0  0  0  0  0  0  0  0  0  0  0  0
  1 48  1  0
  3  2  1  0
  5  4  1  0
  5  7  1  0
  5  2  1  0
  6  4  1  0
  6  8  1  0
  6  3  1  0
  7  1  1  0
  8  7  1  0
  8 17  1  0
  9 15  1  0
  9 17  1  0
 10 15  1  0
 11 12  1  0
 11 10  1  0
 13 12  1  0
 13 22  1  0
 13 14  1  0
 15 14  1  0
 16  9  2  0
 17 18  1  0
 19 20  2  0
 20 39  1  0
 21 20  1  0
 21 24  1  0
 22 19  1  0
 22 23  1  0
 23 21  2  0
 24 25  1  0
 25 26  2  0
 27 30  1  0
 27 26  1  0
 28 27  2  0
 29 28  1  0
 29 24  2  0
 30 31  1  0
 31 32  1  0
 32 33  2  0
 34 33  1  0
 34 38  1  0
 35 34  2  0
 36 31  2  0
 36 35  1  0
 37 36  1  0
 39 40  1  0
 40 43  1  0
 40 42  1  0
 41 39  2  0
 44 45  1  0
 44 19  1  0
 46 44  1  0
 47 48  1  0
 47 51  1  0
 48 50  1  0
 49 47  2  0
 52 51  1  0
 53 64  2  0
 54 52  1  0
 54 59  1  0
 55 63  1  0
 55 65  1  0
 56 62  1  0
 56 58  1  0
 57 63  1  0
 58 59  2  0
 58 57  1  0
 60 54  2  0
 61 60  1  0
 61 56  2  0
 62 55  1  0
 63 53  1  0
 65 67  2  0
 66 65  1  0
 68 66  1  0
 69 78  2  0
 69 74  1  0
 70 66  1  0
 70 74  1  0
 71 70  1  0
 72 73  1  0
 72 71  1  0
 73 69  1  0
 74 75  2  0
 75 76  1  0
 77 76  2  0
 78 77  1  0
 79 53  1  0
 79 84  1  0
 79 80  1  0
 80 83  1  1
 80 81  1  0
 82 80  1  0
 84 87  1  0
 85 89  1  0
 85 84  1  0
 86 85  2  0
 89 88  1  0
 91 89  1  0
 91 92  1  0
 91 90  1  0
M  ISO  4   9 100  17 100  51 101  52 101
M  END
>  <TORSDO>  (22) 
F 19

>  <SCORE>  (22) 
-14.135

>  <name>  (22) 
23

>  <ligand_id>  (22) 
23

>  <original_smiles>  (22) 
[H]c1c([H])c([H])c2c(c1[H])C([H])([H])C([H])([H])C([H])([H])C2([H])N([H])C(=O)C1([H])N(C(=O)C([H])(N([H])C(=O)C([H])(N([H])C([H])([H])[H])C([H])([H])[H])C(C([H])([H])[H])(C([H])([H])[H])C([H])([H])[H])C([H])([H])c2c([H])c(OC([H])([H])C(=O)N([H])C([H])([H])C3([H])C([H])(N([H])C(=O)N4C([H])([H])C([H])([H])C([H])([H])C([H])(n5nc(-c6c([H])c([H])c(Oc7c([H])c([H])c(F)c([H])c7F)c([H])c6[H])c(C(=O)N([H])[H])c5N([H])[H])C4([H])[H])C4([H])C([H])([H])C([H])([H])C3([H])C4([H])[H])c([H])c([H])c2C1([H])[H]

>  <smiles>  (22) 
[H]c1c([H])c([H])c2c(c1[H])C([H])([H])C([H])([H])C([H])([H])C2([H])N([H])C(=O)C1([H])N(C(=O)C([H])(N([H])C(=O)C([H])(N([H])C([H])([H])[H])C([H])([H])[H])C(C([H])([H])[H])(C([H])([H])[H])C([H])([H])[H])C([H])([H])c2c([H])c(OC([H])([H])C(=O)N([H])C([H])([H])C3([H])C([H])(N([H])C(=O)N4C([H])([H])C([H])([H])C([H])([H])C([H])(n5nc(-c6c([H])c([H])c(Oc7c([H])c([H])c(F)c([H])c7F)c([H])c6[H])c(C(=O)N([H])[H])c5N([H])[H])C4([H])[H])C4([H])C([H])([H])C([H])([H])C3([H])C4([H])[H])c([H])c([H])c2C1([H])[H]

$$$$
24:0:0
     RDKit          3D

 88 96  0  0  1  0  0  0  0  0999 V2000
  -28.7570  -22.6860   20.5660 C   0  0  0  0  0  0  0  0  0  0  0  0
  -27.6750  -19.6000   19.6840 C   0  0  0  0  0  2  0  0  0  0  0  0
  -28.1020  -20.8390   18.8640 C   0  0  0  0  0  2  0  0  0  0  0  0
  -28.9560  -19.6610   20.5280 C   0  0  0  0  0  3  0  0  0  0  0  0
  -28.9620  -21.2300   19.9670 N   0  0  0  0  0  0  0  0  0  0  0  0
  -29.1030  -22.7920   21.7450 O   0  0  0  0  0  0  0  0  0  0  0  0
  -30.4070  -15.4270   20.2170 C   0  0  0  0  0  0  0  0  0  0  0  0
  -30.4200  -12.9470   19.3830 C   0  0  0  0  0  2  0  0  0  0  0  0
  -29.5160  -12.6890   18.1500 C   0  0  0  0  0  2  0  0  0  0  0  0
  -28.0720  -12.3910   18.5860 C   0  0  0  0  0  2  0  0  0  0  0  0
  -27.5970  -13.3610   19.6950 C   0  0  0  0  0  3  0  0  0  0  0  0
  -28.6360  -13.5640   20.8210 C   0  0  0  0  0  2  0  0  0  0  0  0
  -29.8550  -14.1010   20.1910 N   0  0  0  0  0  0  0  0  0  0  0  0
  -31.6210  -15.3970   19.9600 O   0  0  0  0  0  0  0  0  0  0  0  0
  -29.9060  -18.1900   20.1650 C   0  0  0  0  0  0  0  0  0  0  0  0
  -29.6490  -16.7200   20.3640 N   0  0  0  0  0  0  0  0  0  0  0  0
  -30.9970  -18.4740   19.6620 O   0  0  0  0  0  0  0  0  0  0  0  0
  -28.7020  -16.5590   20.6680 H   0  0  0  0  0  0  0  0  0  0  0  0
  -25.2210  -13.8880   20.4430 C   0  0  0  0  0  0  0  0  0  0  0  0
  -24.1670  -13.1010   20.8150 C   0  0  0  0  0  0  0  0  0  0  0  0
  -24.6500  -11.7560   20.7910 C   0  0  0  0  0  0  0  0  0  0  0  0
  -26.2730  -13.0250   20.2040 N   0  0  0  0  0  0  0  0  0  0  0  0
  -25.9430  -11.7360   20.4830 N   0  0  0  0  0  0  0  0  0  0  0  0
  -23.9360  -10.4860   20.9840 C   0  0  0  0  0  0  0  0  0  0  0  0
  -24.3690   -9.5290   21.9270 C   0  0  0  0  0  3  0  0  0  0  0  0
  -23.6500   -8.3280   22.1110 C   0  0  0  0  0  3  0  0  0  0  0  0
  -22.4840   -8.0740   21.3500 C   0  0  0  0  0  0  0  0  0  0  0  0
  -22.0700   -9.0210   20.3970 C   0  0  0  0  0  3  0  0  0  0  0  0
  -22.7880  -10.2130   20.2120 C   0  0  0  0  0  3  0  0  0  0  0  0
  -21.7380   -6.9240   21.4420 O   0  0  0  0  0  0  0  0  0  0  0  0
  -21.6790   -6.1930   22.6010 C   0  0  0  0  0  0  0  0  0  0  0  0
  -21.2170   -6.7540   23.8120 C   0  0  0  0  0  3  0  0  0  0  0  0
  -21.1060   -5.9490   24.9630 C   0  0  0  0  0  3  0  0  0  0  0  0
  -21.4500   -4.5850   24.9050 C   0  0  0  0  0  0  0  0  0  0  0  0
  -21.9060   -4.0240   23.7000 C   0  0  0  0  0  3  0  0  0  0  0  0
  -22.0180   -4.8260   22.5510 C   0  0  0  0  0  0  0  0  0  0  0  0
  -22.4370   -4.2770   21.3860 F   0  0  0  0  0  0  0  0  0  0  0  0
  -21.3370   -3.8090   26.0090 F   0  0  0  0  0  0  0  0  0  0  0  0
  -22.7650  -13.5650   21.0740 C   0  0  0  0  0  0  0  0  0  0  0  0
  -22.0380  -12.8700   21.9420 N   0  0  0  0  0  0  0  0  0  0  0  0
  -22.3200  -14.5810   20.5400 O   0  0  0  0  0  0  0  0  0  0  0  0
  -22.4120  -12.0500   22.3970 H   0  0  0  0  0  0  0  0  0  0  0  0
  -21.0970  -13.1620   22.1570 H   0  0  0  0  0  0  0  0  0  0  0  0
  -25.3660  -15.2600   20.2560 N   0  0  0  0  0  0  0  0  0  0  0  0
  -24.5820  -15.8970   20.3450 H   0  0  0  0  0  0  0  0  0  0  0  0
  -26.1900  -15.6980   19.8650 H   0  0  0  0  0  0  0  0  0  0  0  0
  -28.0330  -24.1780   19.8970 C   0  0  0  0  0  2  0  0  0  0  0  0
  -28.1780  -25.7920   20.3430 O   0  0  0  0  0  0  0  0  0  0  0  0
  -24.6260  -31.8600   23.2220 C   0  0  0  0  0  0  0  0  0  0  0  0
  -27.1880  -26.9260   20.2300 C   0  0  0  0  0  0  0  0  0  0  0  0
  -23.4380  -30.4590   21.5840 C   0  0  0  0  0  3  0  0  0  0  0  0
  -24.8930  -28.8430   20.1680 C   0  0  0  0  0  0  0  0  0  0  0  0
  -26.0080  -30.6540   21.4530 C   0  0  0  0  0  2  0  0  0  0  0  0
  -26.0800  -29.2380   20.7990 C   0  0  0  0  0  0  0  0  0  0  0  0
  -27.2160  -28.3000   20.8090 C   0  0  0  0  0  3  0  0  0  0  0  0
  -25.9760  -26.7040   19.5370 C   0  0  0  0  0  3  0  0  0  0  0  0
  -24.8700  -27.5990   19.5160 C   0  0  0  0  0  3  0  0  0  0  0  0
  -23.6760  -29.7700   20.2110 C   0  0  0  0  0  2  0  0  0  0  0  0
  -24.7130  -31.0210   22.1390 N   0  0  0  0  0  0  0  0  0  0  0  0
  -23.5340  -32.1530   23.7370 O   0  0  0  0  0  0  0  0  0  0  0  0
  -22.7360  -29.4700   22.5520 C   0  0  0  0  0  0  0  0  0  0  0  0
  -21.4050  -29.3120   22.4270 N   0  0  0  0  0  0  0  0  0  0  0  0
  -23.3980  -28.8460   23.3840 O   0  0  0  0  0  0  0  0  0  0  0  0
  -20.9230  -29.8680   21.7340 H   0  0  0  0  0  0  0  0  0  0  0  0
  -18.0170  -28.1130   22.9420 C   0  0  0  0  0  0  0  0  0  0  0  0
  -20.5790  -28.3770   23.1990 C   0  0  0  0  0  3  0  0  0  0  0  0
  -20.6770  -26.9440   22.6260 C   0  0  0  0  0  2  0  0  0  0  0  0
  -19.5720  -26.6230   21.6130 C   0  0  0  0  0  2  0  0  0  0  0  0
  -18.1930  -26.7660   22.2600 C   0  0  0  0  0  2  0  0  0  0  0  0
  -19.1370  -28.8760   23.3680 C   0  0  0  0  0  0  0  0  0  0  0  0
  -18.9180  -30.1340   23.9700 C   0  0  0  0  0  3  0  0  0  0  0  0
  -17.6120  -30.6310   24.1460 C   0  0  0  0  0  3  0  0  0  0  0  0
  -16.5080  -29.8660   23.7330 C   0  0  0  0  0  3  0  0  0  0  0  0
  -16.7110  -28.6080   23.1380 C   0  0  0  0  0  3  0  0  0  0  0  0
  -25.8930  -32.5070   23.8590 C   0  0  0  0  0  3  0  0  0  0  0  0
  -25.5770  -33.9120   24.1780 N   0  0  0  0  0  0  0  0  0  0  0  0
  -25.9120  -34.9670   23.4240 C   0  0  0  0  0  0  0  0  0  0  0  0
  -26.5830  -34.8600   22.3940 O   0  0  0  0  0  0  0  0  0  0  0  0
  -24.9790  -34.0670   24.9780 H   0  0  0  0  0  0  0  0  0  0  0  0
  -24.1900  -36.7710   23.0770 C   0  0  0  0  0  1  0  0  0  0  0  0
  -25.4340  -36.3610   23.8820 C   0  0  0  0  0  3  0  0  0  0  0  0
  -27.5720  -37.2460   24.7040 C   0  0  0  0  0  1  0  0  0  0  0  0
  -26.4700  -37.4110   23.7620 N   0  0  0  0  0  0  0  0  0  0  0  0
  -26.0660  -38.3330   23.9050 H   0  0  0  0  0  0  0  0  0  0  0  0
  -26.3840  -31.7550   25.1590 C   0  0  1  0  0  0  0  0  0  0  0  0
  -25.2730  -31.5430   26.2150 C   0  0  0  0  0  1  0  0  0  0  0  0
  -26.9660  -30.3670   24.8100 C   0  0  0  0  0  1  0  0  0  0  0  0
  -27.5290  -32.5550   25.8250 C   0  0  0  0  0  1  0  0  0  0  0  0
  1  6  2  0
  2  4  1  0
  3  2  1  0
  3  5  1  0
  4 15  1  0
  5  4  1  0
  5  1  1  0
  7 16  1  0
  8 13  1  0
  9 10  1  0
  9  8  1  0
 11 10  1  0
 11 22  1  0
 11 12  1  0
 13  7  1  0
 13 12  1  0
 14  7  2  0
 15 16  1  0
 16 18  1  0
 17 15  2  0
 19 20  2  0
 20 39  1  0
 21 20  1  0
 21 24  1  0
 22 19  1  0
 22 23  1  0
 23 21  2  0
 24 25  1  0
 25 26  2  0
 27 30  1  0
 27 26  1  0
 28 27  2  0
 29 28  1  0
 29 24  2  0
 30 31  1  0
 31 32  1  0
 32 33  2  0
 34 33  1  0
 34 38  1  0
 35 34  2  0
 36 31  2  0
 36 35  1  0
 37 36  1  0
 39 40  1  0
 40 43  1  0
 40 42  1  0
 41 39  2  0
 44 45  1  0
 44 19  1  0
 46 44  1  0
 47 48  1  0
 47  1  1  0
 49 60  2  0
 50 48  1  0
 50 55  1  0
 51 59  1  0
 51 61  1  0
 52 58  1  0
 52 54  1  0
 53 59  1  0
 54 55  2  0
 54 53  1  0
 56 50  2  0
 57 56  1  0
 57 52  2  0
 58 51  1  0
 59 49  1  0
 61 63  2  0
 62 61  1  0
 64 62  1  0
 65 74  2  0
 65 70  1  0
 66 62  1  0
 66 70  1  0
 67 66  1  0
 68 69  1  0
 68 67  1  0
 69 65  1  0
 70 71  2  0
 71 72  1  0
 73 72  2  0
 74 73  1  0
 75 49  1  0
 75 76  1  0
 75 85  1  0
 76 79  1  0
 77 81  1  0
 77 76  1  0
 78 77  2  0
 81 80  1  0
 83 81  1  0
 83 84  1  0
 83 82  1  0
 85 88  1  1
 85 86  1  0
 87 85  1  0
M  ISO  4   7 100  16 100  47 101  48 101
M  END
>  <TORSDO>  (23) 
F 17

>  <SCORE>  (23) 
-16.633

>  <name>  (23) 
24

>  <ligand_id>  (23) 
24

>  <original_smiles>  (23) 
[H]c1c([H])c([H])c2c(c1[H])C([H])([H])C([H])([H])C([H])([H])C2([H])N([H])C(=O)C1([H])N(C(=O)C([H])(N([H])C(=O)C([H])(N([H])C([H])([H])[H])C([H])([H])[H])C(C([H])([H])[H])(C([H])([H])[H])C([H])([H])[H])C([H])([H])c2c([H])c(OC([H])([H])C(=O)N3C([H])([H])C([H])([H])C3([H])C(=O)N([H])C(=O)N3C([H])([H])C([H])([H])C([H])([H])C([H])(n4nc(-c5c([H])c([H])c(Oc6c([H])c([H])c(F)c([H])c6F)c([H])c5[H])c(C(=O)N([H])[H])c4N([H])[H])C3([H])[H])c([H])c([H])c2C1([H])[H]

>  <smiles>  (23) 
[H]c1c([H])c([H])c2c(c1[H])C([H])([H])C([H])([H])C([H])([H])C2([H])N([H])C(=O)C1([H])N(C(=O)C([H])(N([H])C(=O)C([H])(N([H])C([H])([H])[H])C([H])([H])[H])C(C([H])([H])[H])(C([H])([H])[H])C([H])([H])[H])C([H])([H])c2c([H])c(OC([H])([H])C(=O)N3C([H])([H])C([H])([H])C3([H])C(=O)N([H])C(=O)N3C([H])([H])C([H])([H])C([H])([H])C([H])(n4nc(-c5c([H])c([H])c(Oc6c([H])c([H])c(F)c([H])c6F)c([H])c5[H])c(C(=O)N([H])[H])c4N([H])[H])C3([H])[H])c([H])c([H])c2C1([H])[H]

$$$$
25:0:0
     RDKit          3D

 87 95  0  0  1  0  0  0  0  0999 V2000
  -28.3430  -20.3520   20.7730 C   0  0  0  0  0  3  0  0  0  0  0  0
  -30.2020  -20.9310   19.5460 C   0  0  0  0  0  3  0  0  0  0  0  0
  -27.9200  -21.7790   20.7390 C   0  0  0  0  0  3  0  0  0  0  0  0
  -29.7780  -22.3530   19.5100 C   0  0  0  0  0  3  0  0  0  0  0  0
  -29.5340  -19.7860   20.1610 C   0  0  0  0  0  0  0  0  0  0  0  0
  -28.5900  -22.9230   20.1160 C   0  0  0  0  0  0  0  0  0  0  0  0
  -30.2450  -18.2000   20.1870 C   0  0  0  0  0  2  0  0  0  0  0  0
  -30.5290  -15.3550   20.1680 C   0  0  0  0  0  0  0  0  0  0  0  0
  -30.4510  -12.9400   19.2640 C   0  0  0  0  0  2  0  0  0  0  0  0
  -29.5010  -12.7760   18.0520 C   0  0  0  0  0  2  0  0  0  0  0  0
  -28.0610  -12.5130   18.5250 C   0  0  0  0  0  2  0  0  0  0  0  0
  -27.6440  -13.4600   19.6780 C   0  0  0  0  0  3  0  0  0  0  0  0
  -28.7200  -13.5800   20.7780 C   0  0  0  0  0  2  0  0  0  0  0  0
  -29.9420  -14.0670   20.1200 N   0  0  0  0  0  0  0  0  0  0  0  0
  -31.7390  -15.3570   19.9040 O   0  0  0  0  0  0  0  0  0  0  0  0
  -29.7970  -16.6240   20.3000 N   0  0  0  0  0  0  0  0  0  0  0  0
  -28.8100  -16.4950   20.4660 H   0  0  0  0  0  0  0  0  0  0  0  0
  -25.2930  -14.0040   20.5030 C   0  0  0  0  0  0  0  0  0  0  0  0
  -24.2410  -13.2200   20.8860 C   0  0  0  0  0  0  0  0  0  0  0  0
  -24.7090  -11.8700   20.8170 C   0  0  0  0  0  0  0  0  0  0  0  0
  -26.3300  -13.1360   20.2160 N   0  0  0  0  0  0  0  0  0  0  0  0
  -25.9930  -11.8450   20.4720 N   0  0  0  0  0  0  0  0  0  0  0  0
  -23.9870  -10.6030   21.0000 C   0  0  0  0  0  0  0  0  0  0  0  0
  -24.4180   -9.6360   21.9340 C   0  0  0  0  0  3  0  0  0  0  0  0
  -23.6950   -8.4360   22.1060 C   0  0  0  0  0  3  0  0  0  0  0  0
  -22.5270   -8.1960   21.3440 C   0  0  0  0  0  0  0  0  0  0  0  0
  -22.1150   -9.1520   20.3990 C   0  0  0  0  0  3  0  0  0  0  0  0
  -22.8400  -10.3430   20.2250 C   0  0  0  0  0  3  0  0  0  0  0  0
  -21.7730   -7.0490   21.4270 O   0  0  0  0  0  0  0  0  0  0  0  0
  -21.6850   -6.3290   22.5910 C   0  0  0  0  0  0  0  0  0  0  0  0
  -21.1370   -6.8810   23.7690 C   0  0  0  0  0  3  0  0  0  0  0  0
  -21.0010   -6.0840   24.9240 C   0  0  0  0  0  3  0  0  0  0  0  0
  -21.4010   -4.7350   24.9000 C   0  0  0  0  0  0  0  0  0  0  0  0
  -21.9410   -4.1810   23.7260 C   0  0  0  0  0  3  0  0  0  0  0  0
  -22.0800   -4.9760   22.5730 C   0  0  0  0  0  0  0  0  0  0  0  0
  -22.5810   -4.4310   21.4390 F   0  0  0  0  0  0  0  0  0  0  0  0
  -21.2630   -3.9660   26.0050 F   0  0  0  0  0  0  0  0  0  0  0  0
  -22.8510  -13.6890   21.1970 C   0  0  0  0  0  0  0  0  0  0  0  0
  -22.1460  -12.9780   22.0690 N   0  0  0  0  0  0  0  0  0  0  0  0
  -22.4010  -14.7220   20.7020 O   0  0  0  0  0  0  0  0  0  0  0  0
  -22.5260  -12.1440   22.4900 H   0  0  0  0  0  0  0  0  0  0  0  0
  -21.2140  -13.2750   22.3220 H   0  0  0  0  0  0  0  0  0  0  0  0
  -25.4470  -15.3790   20.3460 N   0  0  0  0  0  0  0  0  0  0  0  0
  -24.6770  -16.0250   20.4830 H   0  0  0  0  0  0  0  0  0  0  0  0
  -26.2740  -15.8250   19.9720 H   0  0  0  0  0  0  0  0  0  0  0  0
  -27.8620  -24.4830   19.8860 C   0  0  0  0  0  2  0  0  0  0  0  0
  -28.2330  -26.0370   20.1780 O   0  0  0  0  0  0  0  0  0  0  0  0
  -24.6920  -31.9260   23.2300 C   0  0  0  0  0  0  0  0  0  0  0  0
  -27.2340  -27.1330   20.1210 C   0  0  0  0  0  0  0  0  0  0  0  0
  -23.4840  -30.5440   21.5900 C   0  0  0  0  0  3  0  0  0  0  0  0
  -24.9230  -28.9780   20.1270 C   0  0  0  0  0  0  0  0  0  0  0  0
  -26.0450  -30.7820   21.4120 C   0  0  0  0  0  2  0  0  0  0  0  0
  -26.1150  -29.3860   20.7380 C   0  0  0  0  0  0  0  0  0  0  0  0
  -27.2660  -28.4830   20.7160 C   0  0  0  0  0  3  0  0  0  0  0  0
  -26.0130  -26.8730   19.4600 C   0  0  0  0  0  3  0  0  0  0  0  0
  -24.8940  -27.7400   19.4670 C   0  0  0  0  0  3  0  0  0  0  0  0
  -23.6980  -29.8840   20.2010 C   0  0  0  0  0  2  0  0  0  0  0  0
  -24.7610  -31.1090   22.1310 N   0  0  0  0  0  0  0  0  0  0  0  0
  -23.6080  -32.2010   23.7700 O   0  0  0  0  0  0  0  0  0  0  0  0
  -22.8100  -29.5280   22.5500 C   0  0  0  0  0  0  0  0  0  0  0  0
  -21.4850  -29.3350   22.4190 N   0  0  0  0  0  0  0  0  0  0  0  0
  -23.4870  -28.9170   23.3810 O   0  0  0  0  0  0  0  0  0  0  0  0
  -20.9910  -29.8800   21.7270 H   0  0  0  0  0  0  0  0  0  0  0  0
  -18.1240  -28.0690   22.9290 C   0  0  0  0  0  0  0  0  0  0  0  0
  -20.6790  -28.3800   23.1880 C   0  0  0  0  0  3  0  0  0  0  0  0
  -20.8050  -26.9520   22.6080 C   0  0  0  0  0  2  0  0  0  0  0  0
  -19.7070  -26.6140   21.5940 C   0  0  0  0  0  2  0  0  0  0  0  0
  -18.3240  -26.7280   22.2430 C   0  0  0  0  0  2  0  0  0  0  0  0
  -19.2290  -28.8510   23.3590 C   0  0  0  0  0  0  0  0  0  0  0  0
  -18.9860  -30.1030   23.9630 C   0  0  0  0  0  3  0  0  0  0  0  0
  -17.6710  -30.5750   24.1380 C   0  0  0  0  0  3  0  0  0  0  0  0
  -16.5810  -29.7910   23.7240 C   0  0  0  0  0  3  0  0  0  0  0  0
  -16.8080  -28.5400   23.1250 C   0  0  0  0  0  3  0  0  0  0  0  0
  -25.9680  -32.5680   23.8520 C   0  0  0  0  0  3  0  0  0  0  0  0
  -25.6500  -33.9640   24.1980 N   0  0  0  0  0  0  0  0  0  0  0  0
  -25.9410  -35.0280   23.4380 C   0  0  0  0  0  0  0  0  0  0  0  0
  -26.5700  -34.9390   22.3810 O   0  0  0  0  0  0  0  0  0  0  0  0
  -25.0870  -34.1050   25.0250 H   0  0  0  0  0  0  0  0  0  0  0  0
  -24.1820  -36.8090   23.1780 C   0  0  0  0  0  1  0  0  0  0  0  0
  -25.4620  -36.4100   23.9280 C   0  0  0  0  0  3  0  0  0  0  0  0
  -27.6120  -37.3250   24.6820 C   0  0  0  0  0  1  0  0  0  0  0  0
  -26.4770  -37.4760   23.7750 N   0  0  0  0  0  0  0  0  0  0  0  0
  -26.0640  -38.3910   23.9330 H   0  0  0  0  0  0  0  0  0  0  0  0
  -26.4890  -31.7970   25.1280 C   0  0  1  0  0  0  0  0  0  0  0  0
  -25.3970  -31.5480   26.1950 C   0  0  0  0  0  1  0  0  0  0  0  0
  -27.0830  -30.4240   24.7400 C   0  0  0  0  0  1  0  0  0  0  0  0
  -27.6310  -32.5980   25.7940 C   0  0  0  0  0  1  0  0  0  0  0  0
  2  5  1  0
  3  1  1  0
  4  2  2  0
  4  6  1  0
  5  7  1  0
  5  1  2  0
  6  3  2  0
  7 16  1  0
  8 16  1  0
  9 14  1  0
 10 11  1  0
 10  9  1  0
 12 11  1  0
 12 21  1  0
 12 13  1  0
 14  8  1  0
 14 13  1  0
 15  8  2  0
 16 17  1  0
 18 19  2  0
 19 38  1  0
 20 19  1  0
 20 23  1  0
 21 22  1  0
 21 18  1  0
 22 20  2  0
 23 24  1  0
 24 25  2  0
 26 29  1  0
 26 25  1  0
 27 26  2  0
 28 27  1  0
 28 23  2  0
 29 30  1  0
 30 31  1  0
 31 32  2  0
 33 32  1  0
 33 37  1  0
 34 33  2  0
 35 30  2  0
 35 34  1  0
 36 35  1  0
 38 39  1  0
 39 42  1  0
 39 41  1  0
 40 38  2  0
 43 44  1  0
 43 18  1  0
 45 43  1  0
 46  6  1  0
 46 47  1  0
 48 59  2  0
 49 47  1  0
 49 54  1  0
 50 58  1  0
 50 60  1  0
 51 57  1  0
 51 53  1  0
 52 58  1  0
 53 52  1  0
 54 53  2  0
 55 56  1  0
 55 49  2  0
 56 51  2  0
 57 50  1  0
 58 48  1  0
 60 62  2  0
 61 60  1  0
 63 61  1  0
 64 73  2  0
 64 69  1  0
 65 61  1  0
 65 69  1  0
 66 65  1  0
 67 68  1  0
 67 66  1  0
 68 64  1  0
 69 70  2  0
 70 71  1  0
 72 71  2  0
 73 72  1  0
 74 48  1  0
 74 75  1  0
 74 84  1  0
 75 78  1  0
 76 80  1  0
 76 75  1  0
 77 76  2  0
 80 79  1  0
 82 80  1  0
 82 83  1  0
 82 81  1  0
 84 87  1  1
 84 85  1  0
 86 84  1  0
M  ISO  4   8 100  16 100  46 101  47 101
M  END
>  <TORSDO>  (24) 
F 18

>  <SCORE>  (24) 
-15.768

>  <name>  (24) 
25

>  <ligand_id>  (24) 
25

>  <original_smiles>  (24) 
[H]c1c([H])c([H])c2c(c1[H])C([H])([H])C([H])([H])C([H])([H])C2([H])N([H])C(=O)C1([H])N(C(=O)C([H])(N([H])C(=O)C([H])(N([H])C([H])([H])[H])C([H])([H])[H])C(C([H])([H])[H])(C([H])([H])[H])C([H])([H])[H])C([H])([H])c2c([H])c(OC([H])([H])c3c([H])c([H])c(C([H])([H])N([H])C(=O)N4C([H])([H])C([H])([H])C([H])([H])C([H])(n5nc(-c6c([H])c([H])c(Oc7c([H])c([H])c(F)c([H])c7F)c([H])c6[H])c(C(=O)N([H])[H])c5N([H])[H])C4([H])[H])c([H])c3[H])c([H])c([H])c2C1([H])[H]

>  <smiles>  (24) 
[H]c1c([H])c([H])c2c(c1[H])C([H])([H])C([H])([H])C([H])([H])C2([H])N([H])C(=O)C1([H])N(C(=O)C([H])(N([H])C(=O)C([H])(N([H])C([H])([H])[H])C([H])([H])[H])C(C([H])([H])[H])(C([H])([H])[H])C([H])([H])[H])C([H])([H])c2c([H])c(OC([H])([H])c3c([H])c([H])c(C([H])([H])N([H])C(=O)N4C([H])([H])C([H])([H])C([H])([H])C([H])(n5nc(-c6c([H])c([H])c(Oc7c([H])c([H])c(F)c([H])c7F)c([H])c6[H])c(C(=O)N([H])[H])c5N([H])[H])C4([H])[H])c([H])c3[H])c([H])c([H])c2C1([H])[H]

$$$$
26:0:0
     RDKit          3D

 96106  0  0  1  0  0  0  0  0999 V2000
  -31.7030  -20.1650   19.8090 C   0  0  0  0  0  2  0  0  0  0  0  0
  -29.6230  -19.3650   18.7440 C   0  0  0  0  0  2  0  0  0  0  0  0
  -30.5530  -20.6060   18.8740 C   0  0  2  0  0  0  0  0  0  0  0  0
  -30.4370  -20.0810   20.7200 C   0  0  2  0  0  0  0  0  0  0  0  0
  -30.2790  -21.5690   20.0740 C   0  0  0  0  0  3  0  0  0  0  0  0
  -29.6840  -18.7800   20.1810 C   0  0  1  0  0  0  0  0  0  0  0  0
  -28.3490  -18.6530   20.7880 N   0  0  0  0  0  4  0  0  0  0  0  0
  -27.8830  -19.5410   20.8110 H   0  0  0  0  0  0  0  0  0  0  0  0
  -28.4290  -18.3230   21.7340 H   0  0  0  0  0  0  0  0  0  0  0  0
  -27.7770  -18.0100   20.2740 H   0  0  0  0  0  0  0  0  0  0  0  0
  -29.1280  -23.8740   20.2420 C   0  0  0  0  0  0  0  0  0  0  0  0
  -29.0600  -22.4910   20.0210 N   0  0  0  0  0  0  0  0  0  0  0  0
  -30.1260  -24.3620   20.7810 O   0  0  0  0  0  0  0  0  0  0  0  0
  -28.2160  -22.1440   19.5870 H   0  0  0  0  0  0  0  0  0  0  0  0
  -27.9920  -24.9120   19.8030 C   0  0  0  0  0  2  0  0  0  0  0  0
  -28.2490  -26.3860   20.0370 O   0  0  0  0  0  0  0  0  0  0  0  0
  -24.5740  -31.8300   23.1460 C   0  0  0  0  0  0  0  0  0  0  0  0
  -27.1560  -27.2860   19.9930 C   0  0  0  0  0  0  0  0  0  0  0  0
  -23.3610  -30.4650   21.4870 C   0  0  0  0  0  3  0  0  0  0  0  0
  -24.8040  -28.9420   20.0190 C   0  0  0  0  0  0  0  0  0  0  0  0
  -25.9040  -30.7740   21.2980 C   0  0  0  0  0  2  0  0  0  0  0  0
  -25.9800  -29.4050   20.6210 C   0  0  0  0  0  0  0  0  0  0  0  0
  -27.1600  -28.5910   20.5940 C   0  0  0  0  0  3  0  0  0  0  0  0
  -25.9530  -26.8940   19.3610 C   0  0  0  0  0  3  0  0  0  0  0  0
  -24.7960  -27.6950   19.3780 C   0  0  0  0  0  3  0  0  0  0  0  0
  -23.5690  -29.8190   20.0930 C   0  0  0  0  0  2  0  0  0  0  0  0
  -24.6330  -31.0400   22.0340 N   0  0  0  0  0  0  0  0  0  0  0  0
  -23.4930  -32.0980   23.6910 O   0  0  0  0  0  0  0  0  0  0  0  0
  -22.7020  -29.4300   22.4310 C   0  0  0  0  0  0  0  0  0  0  0  0
  -21.3730  -29.2600   22.3140 N   0  0  0  0  0  0  0  0  0  0  0  0
  -23.3850  -28.7840   23.2300 O   0  0  0  0  0  0  0  0  0  0  0  0
  -20.8800  -29.8330   21.6440 H   0  0  0  0  0  0  0  0  0  0  0  0
  -17.9940  -28.0790   22.8360 C   0  0  0  0  0  0  0  0  0  0  0  0
  -20.5580  -28.3090   23.0720 C   0  0  0  0  0  3  0  0  0  0  0  0
  -20.6390  -26.8930   22.4570 C   0  0  0  0  0  2  0  0  0  0  0  0
  -19.5190  -26.6070   21.4520 C   0  0  0  0  0  2  0  0  0  0  0  0
  -18.1480  -26.7460   22.1220 C   0  0  0  0  0  2  0  0  0  0  0  0
  -19.1250  -28.8190   23.2680 C   0  0  0  0  0  0  0  0  0  0  0  0
  -18.9270  -30.0670   23.8980 C   0  0  0  0  0  3  0  0  0  0  0  0
  -17.6300  -30.5740   24.0980 C   0  0  0  0  0  3  0  0  0  0  0  0
  -16.5130  -29.8300   23.6830 C   0  0  0  0  0  3  0  0  0  0  0  0
  -16.6960  -28.5840   23.0570 C   0  0  0  0  0  3  0  0  0  0  0  0
  -25.8580  -32.4530   23.7730 C   0  0  0  0  0  3  0  0  0  0  0  0
  -26.3770  -31.6610   25.0370 C   0  0  1  0  0  0  0  0  0  0  0  0
  -25.2870  -31.4090   26.1030 C   0  0  0  0  0  1  0  0  0  0  0  0
  -26.9560  -30.2880   24.6240 C   0  0  0  0  0  1  0  0  0  0  0  0
  -27.5320  -32.4440   25.7060 C   0  0  0  0  0  1  0  0  0  0  0  0
  -25.5510  -33.8460   24.1270 N   0  0  0  0  0  0  0  0  0  0  0  0
  -25.8620  -34.9100   23.3740 C   0  0  0  0  0  0  0  0  0  0  0  0
  -26.5070  -34.8210   22.3270 O   0  0  0  0  0  0  0  0  0  0  0  0
  -24.9750  -33.9890   24.9430 H   0  0  0  0  0  0  0  0  0  0  0  0
  -24.1100  -36.6930   23.1000 C   0  0  0  0  0  1  0  0  0  0  0  0
  -25.3830  -36.2910   23.8620 C   0  0  0  0  0  3  0  0  0  0  0  0
  -27.5370  -37.1860   24.6260 C   0  0  0  0  0  1  0  0  0  0  0  0
  -26.4020  -37.3540   23.7230 N   0  0  0  0  0  0  0  0  0  0  0  0
  -25.9940  -38.2690   23.8930 H   0  0  0  0  0  0  0  0  0  0  0  0
  -31.4050  -17.4050   21.6000 C   0  0  0  0  0  1  0  0  0  0  0  0
  -30.5070  -17.3430   20.3410 C   0  0  0  0  0  3  0  0  0  0  0  0
  -30.5080  -14.7590   19.9660 C   0  0  0  0  0  0  0  0  0  0  0  0
  -30.1780  -12.5060   18.9360 C   0  0  0  0  0  2  0  0  0  0  0  0
  -29.1750  -12.6020   17.7670 C   0  0  0  0  0  2  0  0  0  0  0  0
  -27.7340  -12.4300   18.2830 C   0  0  0  0  0  2  0  0  0  0  0  0
  -27.4400  -13.3040   19.5320 C   0  0  0  0  0  3  0  0  0  0  0  0
  -28.5650  -13.2180   20.5860 C   0  0  0  0  0  2  0  0  0  0  0  0
  -29.8220  -13.5630   19.9130 N   0  0  0  0  0  0  0  0  0  0  0  0
  -31.6660  -14.8010   19.5450 O   0  0  0  0  0  0  0  0  0  0  0  0
  -29.8610  -15.9440   20.3100 N   0  0  0  0  0  0  0  0  0  0  0  0
  -28.8950  -15.8570   20.5820 H   0  0  0  0  0  0  0  0  0  0  0  0
  -25.1050  -13.8860   20.4150 C   0  0  0  0  0  0  0  0  0  0  0  0
  -24.0590  -13.1100   20.8340 C   0  0  0  0  0  0  0  0  0  0  0  0
  -24.5130  -11.7580   20.7480 C   0  0  0  0  0  0  0  0  0  0  0  0
  -26.1290  -13.0090   20.0990 N   0  0  0  0  0  0  0  0  0  0  0  0
  -25.7830  -11.7210   20.3640 N   0  0  0  0  0  0  0  0  0  0  0  0
  -23.7910  -10.4960   20.9540 C   0  0  0  0  0  0  0  0  0  0  0  0
  -24.2490   -9.5240   21.8720 C   0  0  0  0  0  3  0  0  0  0  0  0
  -23.5250   -8.3270   22.0680 C   0  0  0  0  0  3  0  0  0  0  0  0
  -22.3300   -8.0930   21.3460 C   0  0  0  0  0  0  0  0  0  0  0  0
  -21.8920   -9.0540   20.4180 C   0  0  0  0  0  3  0  0  0  0  0  0
  -22.6150  -10.2420   20.2200 C   0  0  0  0  0  3  0  0  0  0  0  0
  -21.5770   -6.9500   21.4530 O   0  0  0  0  0  0  0  0  0  0  0  0
  -21.5430   -6.2160   22.6110 C   0  0  0  0  0  0  0  0  0  0  0  0
  -21.1190   -6.7760   23.8360 C   0  0  0  0  0  3  0  0  0  0  0  0
  -21.0320   -5.9680   24.9870 C   0  0  0  0  0  3  0  0  0  0  0  0
  -21.3590   -4.6010   24.9150 C   0  0  0  0  0  0  0  0  0  0  0  0
  -21.7760   -4.0400   23.6950 C   0  0  0  0  0  3  0  0  0  0  0  0
  -21.8650   -4.8450   22.5460 C   0  0  0  0  0  0  0  0  0  0  0  0
  -22.2460   -4.2950   21.3680 F   0  0  0  0  0  0  0  0  0  0  0  0
  -21.2690   -3.8220   26.0180 F   0  0  0  0  0  0  0  0  0  0  0  0
  -22.6830  -13.5890   21.1940 C   0  0  0  0  0  0  0  0  0  0  0  0
  -22.0020  -12.8780   22.0850 N   0  0  0  0  0  0  0  0  0  0  0  0
  -22.2240  -14.6270   20.7200 O   0  0  0  0  0  0  0  0  0  0  0  0
  -22.3890  -12.0380   22.4870 H   0  0  0  0  0  0  0  0  0  0  0  0
  -21.0810  -13.1790   22.3690 H   0  0  0  0  0  0  0  0  0  0  0  0
  -25.2650  -15.2590   20.2490 N   0  0  0  0  0  0  0  0  0  0  0  0
  -24.4880  -15.9000   20.3750 H   0  0  0  0  0  0  0  0  0  0  0  0
  -26.0460  -15.6750   19.7600 H   0  0  0  0  0  0  0  0  0  0  0  0
  2  6  1  0
  3  2  1  1
  3  1  1  0
  3  5  1  0
  3  4  1  0
  4  1  1  1
  5 12  1  0
  5  4  1  0
  6 58  1  6
  6  4  1  0
  6  7  1  0
  7  8  1  0
  7  9  1  0
 10  7  1  0
 11 13  2  0
 12 11  1  0
 14 12  1  0
 15 16  1  0
 15 11  1  0
 17 28  2  0
 18 16  1  0
 18 23  1  0
 19 27  1  0
 19 29  1  0
 20 26  1  0
 20 22  1  0
 21 27  1  0
 22 21  1  0
 23 22  2  0
 24 25  1  0
 24 18  2  0
 25 20  2  0
 26 19  1  0
 27 17  1  0
 29 31  2  0
 30 29  1  0
 32 30  1  0
 33 42  2  0
 33 38  1  0
 34 30  1  0
 34 38  1  0
 35 34  1  0
 36 37  1  0
 36 35  1  0
 37 33  1  0
 38 39  2  0
 39 40  1  0
 41 40  2  0
 42 41  1  0
 43 17  1  0
 43 48  1  0
 43 44  1  0
 44 47  1  1
 44 45  1  0
 46 44  1  0
 48 51  1  0
 49 53  1  0
 49 48  1  0
 50 49  2  0
 53 52  1  0
 55 53  1  0
 55 56  1  0
 55 54  1  0
 58 57  1  0
 59 67  1  0
 60 65  1  0
 61 62  1  0
 61 60  1  0
 63 62  1  0
 63 72  1  0
 63 64  1  0
 65 59  1  0
 65 64  1  0
 66 59  2  0
 67 58  1  0
 67 68  1  0
 69 70  2  0
 70 89  1  0
 71 70  1  0
 71 74  1  0
 72 73  1  0
 72 69  1  0
 73 71  2  0
 74 75  1  0
 75 76  2  0
 77 80  1  0
 77 76  1  0
 78 77  2  0
 79 78  1  0
 79 74  2  0
 80 81  1  0
 81 82  1  0
 82 83  2  0
 84 83  1  0
 84 88  1  0
 85 84  2  0
 86 81  2  0
 86 85  1  0
 87 86  1  0
 89 90  1  0
 90 93  1  0
 90 92  1  0
 91 89  2  0
 94 95  1  0
 94 69  1  0
 96 94  1  0
M  ISO  4  15 101  16 101  59 100  67 100
M  END
>  <TORSDO>  (25) 
F 20

>  <SCORE>  (25) 
-14.029

>  <name>  (25) 
26

>  <ligand_id>  (25) 
26

>  <original_smiles>  (25) 
[H]c1c([H])c([H])c2c(c1[H])C([H])([H])C([H])([H])C([H])([H])C2([H])N([H])C(=O)C1([H])N(C(=O)C([H])(N([H])C(=O)C([H])(N([H])C([H])([H])[H])C([H])([H])[H])C(C([H])([H])[H])(C([H])([H])[H])C([H])([H])[H])C([H])([H])c2c([H])c(OC([H])([H])C(=O)N([H])C3([H])C4([H])C([H])([H])C3([H])C(C([H])(N([H])C(=O)N3C([H])([H])C([H])([H])C([H])([H])C([H])(n5nc(-c6c([H])c([H])c(Oc7c([H])c([H])c(F)c([H])c7F)c([H])c6[H])c(C(=O)N([H])[H])c5N([H])[H])C3([H])[H])C([H])([H])[H])([N+]([H])([H])[H])C4([H])[H])c([H])c([H])c2C1([H])[H]

>  <smiles>  (25) 
[H]c1c([H])c([H])c2c(c1[H])C([H])([H])C([H])([H])C([H])([H])C2([H])N([H])C(=O)C1([H])N(C(=O)C([H])(N([H])C(=O)C([H])(N([H])C([H])([H])[H])C([H])([H])[H])C(C([H])([H])[H])(C([H])([H])[H])C([H])([H])[H])C([H])([H])c2c([H])c(OC([H])([H])C(=O)N([H])C3([H])C4([H])C([H])([H])C3([H])C(C([H])(N([H])C(=O)N3C([H])([H])C([H])([H])C([H])([H])C([H])(n5nc(-c6c([H])c([H])c(Oc7c([H])c([H])c(F)c([H])c7F)c([H])c6[H])c(C(=O)N([H])[H])c5N([H])[H])C3([H])[H])C([H])([H])[H])([N+]([H])([H])[H])C4([H])[H])c([H])c([H])c2C1([H])[H]

$$$$
27:0:0
     RDKit          3D

 92101  0  0  1  0  0  0  0  0999 V2000
  -29.0630  -19.8720   19.9760 C   0  0  0  0  0  3  0  0  0  0  0  0
  -28.7210  -21.3320   19.6570 C   0  0  0  0  0  3  0  0  0  0  0  0
  -31.2420  -20.3500   19.9400 C   0  0  0  0  0  0  0  0  0  0  0  0
  -30.3650  -19.1620   20.1650 C   0  0  0  0  0  0  0  0  0  0  0  0
  -30.9080  -21.8290   19.6210 C   0  0  0  0  0  0  0  0  0  0  0  0
  -29.5910  -22.5170   19.4170 C   0  0  0  0  0  0  0  0  0  0  0  0
  -32.1020  -22.7740   19.4680 C   0  0  0  0  0  1  0  0  0  0  0  0
  -28.3590  -25.2770   18.4500 C   0  0  0  0  0  0  0  0  0  0  0  0
  -27.7400  -27.3020   16.8220 C   0  0  0  0  0  2  0  0  0  0  0  0
  -28.1730  -27.1410   15.3350 C   0  0  0  0  0  2  0  0  0  0  0  0
  -29.6240  -27.6030   15.1300 C   0  0  0  0  0  2  0  0  0  0  0  0
  -30.5350  -27.1020   16.2740 C   0  0  0  0  0  3  0  0  0  0  0  0
  -29.9320  -27.3020   17.6870 C   0  0  0  0  0  2  0  0  0  0  0  0
  -28.6780  -26.5140   17.7400 N   0  0  0  0  0  0  0  0  0  0  0  0
  -27.1250  -25.2360   18.6230 O   0  0  0  0  0  0  0  0  0  0  0  0
  -29.3190  -24.1170   18.8290 N   0  0  0  0  0  0  0  0  0  0  0  0
  -30.2270  -24.5260   18.6650 H   0  0  0  0  0  0  0  0  0  0  0  0
  -33.0180  -26.8600   15.7990 C   0  0  0  0  0  0  0  0  0  0  0  0
  -34.0460  -27.7570   15.7340 C   0  0  0  0  0  0  0  0  0  0  0  0
  -33.4890  -29.0260   16.0870 C   0  0  0  0  0  0  0  0  0  0  0  0
  -31.9030  -27.5890   16.1670 N   0  0  0  0  0  0  0  0  0  0  0  0
  -32.2050  -28.8920   16.4070 N   0  0  0  0  0  0  0  0  0  0  0  0
  -34.0960  -30.3640   16.0740 C   0  0  0  0  0  0  0  0  0  0  0  0
  -34.0470  -31.2110   17.2030 C   0  0  0  0  0  3  0  0  0  0  0  0
  -34.6610  -32.4820   17.1740 C   0  0  0  0  0  3  0  0  0  0  0  0
  -35.3360  -32.9180   16.0090 C   0  0  0  0  0  0  0  0  0  0  0  0
  -35.3640  -32.0800   14.8800 C   0  0  0  0  0  3  0  0  0  0  0  0
  -34.7480  -30.8180   14.9090 C   0  0  0  0  0  3  0  0  0  0  0  0
  -35.9370  -34.1470   15.8790 O   0  0  0  0  0  0  0  0  0  0  0  0
  -36.3860  -34.8470   16.9710 C   0  0  0  0  0  0  0  0  0  0  0  0
  -37.3600  -34.3190   17.8460 C   0  0  0  0  0  3  0  0  0  0  0  0
  -37.8440  -35.1000   18.9140 C   0  0  0  0  0  3  0  0  0  0  0  0
  -37.3640  -36.4100   19.1040 C   0  0  0  0  0  0  0  0  0  0  0  0
  -36.3980  -36.9390   18.2310 C   0  0  0  0  0  3  0  0  0  0  0  0
  -35.9140  -36.1600   17.1650 C   0  0  0  0  0  0  0  0  0  0  0  0
  -34.9990  -36.6840   16.3130 F   0  0  0  0  0  0  0  0  0  0  0  0
  -37.8340  -37.1620   20.1260 F   0  0  0  0  0  0  0  0  0  0  0  0
  -35.4430  -27.4680   15.2690 C   0  0  0  0  0  0  0  0  0  0  0  0
  -36.4320  -28.1420   15.8440 N   0  0  0  0  0  0  0  0  0  0  0  0
  -35.6660  -26.6000   14.4250 O   0  0  0  0  0  0  0  0  0  0  0  0
  -36.2480  -28.8380   16.5500 H   0  0  0  0  0  0  0  0  0  0  0  0
  -37.3880  -27.9560   15.5730 H   0  0  0  0  0  0  0  0  0  0  0  0
  -32.9290  -25.4950   15.5450 N   0  0  0  0  0  0  0  0  0  0  0  0
  -33.7180  -24.9650   15.1900 H   0  0  0  0  0  0  0  0  0  0  0  0
  -32.0650  -24.9690   15.5350 H   0  0  0  0  0  0  0  0  0  0  0  0
  -32.6730  -19.9690   20.0160 C   0  0  0  0  0  0  0  0  0  0  0  0
  -33.1930  -19.5000   21.0320 O   0  0  0  0  0  0  0  0  0  0  0  0
  -34.7640  -20.9490   18.8230 C   0  0  0  0  0  2  0  0  0  0  0  0
  -34.7750  -19.4620   18.5770 C   0  0  0  0  0  2  0  0  0  0  0  0
  -33.4540  -20.1890   18.7450 C   0  0  0  0  0  3  0  0  0  0  0  0
  -30.7860  -17.3360   20.1800 C   0  0  0  0  0  2  0  0  0  0  0  0
  -31.3930  -16.0260   21.1660 O   0  0  0  0  0  0  0  0  0  0  0  0
  -36.3840  -10.1100   20.7310 C   0  0  0  0  0  0  0  0  0  0  0  0
  -31.7850  -14.5640   20.8160 C   0  0  0  0  0  0  0  0  0  0  0  0
  -34.6200  -10.3340   19.0340 C   0  0  0  0  0  3  0  0  0  0  0  0
  -32.6140  -11.8930   19.6200 C   0  0  0  0  0  0  0  0  0  0  0  0
  -34.1660  -11.1980   21.4260 C   0  0  0  0  0  2  0  0  0  0  0  0
  -33.1410  -12.2560   20.8660 C   0  0  0  0  0  0  0  0  0  0  0  0
  -32.7080  -13.5530   21.4580 C   0  0  0  0  0  3  0  0  0  0  0  0
  -31.2610  -13.9880   19.6310 C   0  0  0  0  0  3  0  0  0  0  0  0
  -31.6530  -12.7450   19.0480 C   0  0  0  0  0  3  0  0  0  0  0  0
  -33.0910  -10.6060   18.9300 C   0  0  0  0  0  2  0  0  0  0  0  0
  -35.1120  -10.5440   20.4340 N   0  0  0  0  0  0  0  0  0  0  0  0
  -37.1130   -9.5750   19.8780 O   0  0  0  0  0  0  0  0  0  0  0  0
  -35.3810  -11.1930   17.9870 C   0  0  0  0  0  0  0  0  0  0  0  0
  -35.4550  -10.7340   16.7220 N   0  0  0  0  0  0  0  0  0  0  0  0
  -35.8780  -12.2710   18.3210 O   0  0  0  0  0  0  0  0  0  0  0  0
  -35.0410   -9.8340   16.5170 H   0  0  0  0  0  0  0  0  0  0  0  0
  -36.2030  -10.5310   13.1720 C   0  0  0  0  0  0  0  0  0  0  0  0
  -36.0610  -11.4450   15.5900 C   0  0  0  0  0  3  0  0  0  0  0  0
  -35.0920  -12.5050   15.0160 C   0  0  0  0  0  2  0  0  0  0  0  0
  -34.2440  -11.9810   13.8520 C   0  0  0  0  0  2  0  0  0  0  0  0
  -35.1400  -11.5110   12.7040 C   0  0  0  0  0  2  0  0  0  0  0  0
  -36.6230  -10.4880   14.5290 C   0  0  0  0  0  0  0  0  0  0  0  0
  -37.5940   -9.5380   14.9120 C   0  0  0  0  0  3  0  0  0  0  0  0
  -38.1390   -8.6430   13.9720 C   0  0  0  0  0  3  0  0  0  0  0  0
  -37.7250   -8.6970   12.6290 C   0  0  0  0  0  3  0  0  0  0  0  0
  -36.7640   -9.6430   12.2310 C   0  0  0  0  0  3  0  0  0  0  0  0
  -36.9870  -10.2520   22.1620 C   0  0  0  0  0  3  0  0  0  0  0  0
  -37.9020  -11.5290   22.3220 C   0  0  1  0  0  0  0  0  0  0  0  0
  -38.9900  -11.6570   21.2310 C   0  0  0  0  0  1  0  0  0  0  0  0
  -37.0600  -12.8240   22.2940 C   0  0  0  0  0  1  0  0  0  0  0  0
  -38.6080  -11.4970   23.6990 C   0  0  0  0  0  1  0  0  0  0  0  0
  -37.7700   -9.0360   22.4550 N   0  0  0  0  0  0  0  0  0  0  0  0
  -37.3410   -7.9970   23.1840 C   0  0  0  0  0  0  0  0  0  0  0  0
  -36.2370   -7.9840   23.7330 O   0  0  0  0  0  0  0  0  0  0  0  0
  -38.6620   -8.9560   21.9910 H   0  0  0  0  0  0  0  0  0  0  0  0
  -37.8640   -5.6780   22.3460 C   0  0  0  0  0  1  0  0  0  0  0  0
  -38.2820   -6.7820   23.3310 C   0  0  0  0  0  3  0  0  0  0  0  0
  -38.9660   -7.1110   25.6690 C   0  0  0  0  0  1  0  0  0  0  0  0
  -38.3220   -6.2260   24.7030 N   0  0  0  0  0  0  0  0  0  0  0  0
  -38.8090   -5.3340   24.7160 H   0  0  0  0  0  0  0  0  0  0  0  0
  1  4  1  0
  2  1  2  0
  3 46  1  0
  3  4  2  0
  4 51  1  0
  5  3  1  0
  6  5  2  0
  6  2  1  0
  7  5  1  0
  8 15  2  0
  8 16  1  0
  9 14  1  0
 10  9  1  0
 11 10  1  0
 12 11  1  0
 12 13  1  0
 13 14  1  0
 14  8  1  0
 16  6  1  0
 17 16  1  0
 18 21  1  0
 19 18  2  0
 19 20  1  0
 20 22  2  0
 21 12  1  0
 21 22  1  0
 23 20  1  0
 23 24  1  0
 25 24  2  0
 26 25  1  0
 27 28  1  0
 27 26  2  0
 28 23  2  0
 29 26  1  0
 29 30  1  0
 30 35  2  0
 30 31  1  0
 31 32  2  0
 32 33  1  0
 33 37  1  0
 34 33  2  0
 35 34  1  0
 36 35  1  0
 38 19  1  0
 38 39  1  0
 39 41  1  0
 40 38  2  0
 42 39  1  0
 43 18  1  0
 44 43  1  0
 45 43  1  0
 46 47  2  0
 49 50  1  0
 49 48  1  0
 50 48  1  0
 50 46  1  0
 51 52  1  0
 54 52  1  0
 54 59  1  0
 55 65  1  0
 55 63  1  0
 56 58  1  0
 58 57  1  0
 58 59  2  0
 60 54  2  0
 61 56  2  0
 61 60  1  0
 62 55  1  0
 62 56  1  0
 63 53  1  0
 63 57  1  0
 64 53  2  0
 65 67  2  0
 66 65  1  0
 68 66  1  0
 69 74  1  0
 70 66  1  0
 71 70  1  0
 72 71  1  0
 73 69  1  0
 73 72  1  0
 74 75  2  0
 74 70  1  0
 76 75  1  0
 77 76  2  0
 78 77  1  0
 78 69  2  0
 79 53  1  0
 79 80  1  0
 79 84  1  0
 80 83  1  1
 81 80  1  0
 82 80  1  0
 84 85  1  0
 85 89  1  0
 85 86  2  0
 87 84  1  0
 89 88  1  0
 89 91  1  0
 91 92  1  0
 91 90  1  0
M  ISO  4   8 100  16 100  51 101  52 101
M  END
>  <TORSDO>  (26) 
F 19

>  <SCORE>  (26) 
-4.332

>  <name>  (26) 
27

>  <ligand_id>  (26) 
27

>  <original_smiles>  (26) 
[H]c1c([H])c([H])c2c(c1[H])C([H])([H])C([H])([H])C([H])([H])C2([H])N([H])C(=O)C1([H])N(C(=O)C([H])(N([H])C(=O)C([H])(N([H])C([H])([H])[H])C([H])([H])[H])C(C([H])([H])[H])(C([H])([H])[H])C([H])([H])[H])C([H])([H])c2c([H])c(OC([H])([H])c3c([H])c([H])c(N([H])C(=O)N4C([H])([H])C([H])([H])C([H])([H])C([H])(n5nc(-c6c([H])c([H])c(Oc7c([H])c([H])c(F)c([H])c7F)c([H])c6[H])c(C(=O)N([H])[H])c5N([H])[H])C4([H])[H])c(C([H])([H])[H])c3C(=O)C3([H])C([H])([H])C3([H])[H])c([H])c([H])c2C1([H])[H]

>  <smiles>  (26) 
[H]c1c([H])c([H])c2c(c1[H])C([H])([H])C([H])([H])C([H])([H])C2([H])N([H])C(=O)C1([H])N(C(=O)C([H])(N([H])C(=O)C([H])(N([H])C([H])([H])[H])C([H])([H])[H])C(C([H])([H])[H])(C([H])([H])[H])C([H])([H])[H])C([H])([H])c2c([H])c(OC([H])([H])c3c([H])c([H])c(N([H])C(=O)N4C([H])([H])C([H])([H])C([H])([H])C([H])(n5nc(-c6c([H])c([H])c(Oc7c([H])c([H])c(F)c([H])c7F)c([H])c6[H])c(C(=O)N([H])[H])c5N([H])[H])C4([H])[H])c(C([H])([H])[H])c3C(=O)C3([H])C([H])([H])C3([H])[H])c([H])c([H])c2C1([H])[H]

$$$$
28:0:0
     RDKit          3D

 96105  0  0  1  0  0  0  0  0999 V2000
  -31.2070  -23.0090   20.4220 C   0  0  0  0  0  0  0  0  0  0  0  0
  -31.5260  -21.7600   20.0600 N   0  0  0  0  0  0  0  0  0  0  0  0
  -31.5730  -23.4930   21.4950 O   0  0  0  0  0  0  0  0  0  0  0  0
  -31.3110  -21.4750   19.1150 H   0  0  0  0  0  0  0  0  0  0  0  0
  -30.9080  -25.0540   18.8810 C   0  0  0  0  0  2  0  0  0  0  0  0
  -30.3600  -23.7590   19.4360 C   0  0  0  0  0  3  0  0  0  0  0  0
  -29.7900  -25.0980   19.8890 C   0  0  0  0  0  3  0  0  0  0  0  0
  -28.4070  -25.5780   19.4920 C   0  0  0  0  0  2  0  0  0  0  0  0
  -28.3120  -26.9160   19.9730 O   0  0  0  0  0  0  0  0  0  0  0  0
  -24.4980  -31.9460   23.1860 C   0  0  0  0  0  0  0  0  0  0  0  0
  -27.0950  -27.5600   20.0000 C   0  0  0  0  0  0  0  0  0  0  0  0
  -23.2570  -30.5590   21.5540 C   0  0  0  0  0  3  0  0  0  0  0  0
  -24.6810  -29.0310   20.0910 C   0  0  0  0  0  0  0  0  0  0  0  0
  -25.7730  -30.9310   21.3020 C   0  0  0  0  0  2  0  0  0  0  0  0
  -25.8460  -29.5660   20.6510 C   0  0  0  0  0  0  0  0  0  0  0  0
  -27.0510  -28.8330   20.6080 C   0  0  0  0  0  3  0  0  0  0  0  0
  -25.9090  -27.0260   19.4470 C   0  0  0  0  0  3  0  0  0  0  0  0
  -24.7060  -27.7550   19.4940 C   0  0  0  0  0  3  0  0  0  0  0  0
  -23.4350  -29.8820   20.1670 C   0  0  0  0  0  2  0  0  0  0  0  0
  -24.5290  -31.1590   22.0720 N   0  0  0  0  0  0  0  0  0  0  0  0
  -23.4300  -32.2110   23.7530 O   0  0  0  0  0  0  0  0  0  0  0  0
  -22.6270  -29.5290   22.5200 C   0  0  0  0  0  0  0  0  0  0  0  0
  -21.3030  -29.3370   22.4030 N   0  0  0  0  0  0  0  0  0  0  0  0
  -23.3240  -28.9060   23.3250 O   0  0  0  0  0  0  0  0  0  0  0  0
  -20.8010  -29.8930   21.7260 H   0  0  0  0  0  0  0  0  0  0  0  0
  -17.9490  -28.1020   22.9260 C   0  0  0  0  0  0  0  0  0  0  0  0
  -20.5050  -28.3880   23.1800 C   0  0  0  0  0  3  0  0  0  0  0  0
  -20.6180  -26.9580   22.6020 C   0  0  0  0  0  2  0  0  0  0  0  0
  -19.5130  -26.6250   21.5940 C   0  0  0  0  0  2  0  0  0  0  0  0
  -18.1340  -26.7560   22.2460 C   0  0  0  0  0  2  0  0  0  0  0  0
  -19.0630  -28.8750   23.3490 C   0  0  0  0  0  0  0  0  0  0  0  0
  -18.8350  -30.1370   23.9420 C   0  0  0  0  0  3  0  0  0  0  0  0
  -17.5270  -30.6250   24.1150 C   0  0  0  0  0  3  0  0  0  0  0  0
  -16.4290  -29.8490   23.7100 C   0  0  0  0  0  3  0  0  0  0  0  0
  -16.6390  -28.5890   23.1220 C   0  0  0  0  0  3  0  0  0  0  0  0
  -25.7990  -32.5690   23.7840 C   0  0  0  0  0  3  0  0  0  0  0  0
  -26.3440  -31.7910   25.0420 C   0  0  1  0  0  0  0  0  0  0  0  0
  -25.2750  -31.5490   26.1340 C   0  0  0  0  0  1  0  0  0  0  0  0
  -26.9150  -30.4140   24.6270 C   0  0  0  0  0  1  0  0  0  0  0  0
  -27.5100  -32.5800   25.6840 C   0  0  0  0  0  1  0  0  0  0  0  0
  -25.5010  -33.9660   24.1260 N   0  0  0  0  0  0  0  0  0  0  0  0
  -25.8280  -35.0210   23.3680 C   0  0  0  0  0  0  0  0  0  0  0  0
  -26.4810  -34.9220   22.3260 O   0  0  0  0  0  0  0  0  0  0  0  0
  -24.9190  -34.1190   24.9360 H   0  0  0  0  0  0  0  0  0  0  0  0
  -24.1030  -36.8210   23.0440 C   0  0  0  0  0  1  0  0  0  0  0  0
  -25.3510  -36.4090   23.8400 C   0  0  0  0  0  3  0  0  0  0  0  0
  -27.4980  -37.2790   24.6530 C   0  0  0  0  0  1  0  0  0  0  0  0
  -26.3860  -37.4580   23.7230 N   0  0  0  0  0  0  0  0  0  0  0  0
  -25.9850  -38.3790   23.8810 H   0  0  0  0  0  0  0  0  0  0  0  0
  -32.1650  -20.7610   20.9180 C   0  0  0  0  0  2  0  0  0  0  0  0
  -31.6500  -18.5540   22.0550 C   0  0  0  0  0  3  0  0  0  0  0  0
  -30.6660  -18.9450   19.8650 C   0  0  0  0  0  3  0  0  0  0  0  0
  -31.4660  -19.3990   20.9380 C   0  0  0  0  0  0  0  0  0  0  0  0
  -31.0760  -17.2670   22.0960 C   0  0  0  0  0  0  0  0  0  0  0  0
  -30.1080  -17.6490   19.8780 C   0  0  0  0  0  0  0  0  0  0  0  0
  -30.3430  -16.7880   20.9820 C   0  0  0  0  0  0  0  0  0  0  0  0
  -31.2660  -16.4010   23.3270 C   0  0  0  0  0  1  0  0  0  0  0  0
  -29.2720  -17.1910   18.6940 C   0  0  0  0  0  1  0  0  0  0  0  0
  -30.4210  -14.5190   20.1400 C   0  0  0  0  0  0  0  0  0  0  0  0
  -30.0100  -12.4490   18.8800 C   0  0  0  0  0  2  0  0  0  0  0  0
  -29.0070  -12.7220   17.7420 C   0  0  0  0  0  2  0  0  0  0  0  0
  -27.5590  -12.5620   18.2410 C   0  0  0  0  0  2  0  0  0  0  0  0
  -27.2950  -13.3400   19.5590 C   0  0  0  0  0  3  0  0  0  0  0  0
  -28.4040  -13.0650   20.5990 C   0  0  0  0  0  2  0  0  0  0  0  0
  -29.7060  -13.3750   19.9810 N   0  0  0  0  0  0  0  0  0  0  0  0
  -31.4690  -14.7430   19.5250 O   0  0  0  0  0  0  0  0  0  0  0  0
  -29.8910  -15.4430   20.9580 N   0  0  0  0  0  0  0  0  0  0  0  0
  -29.0610  -15.1990   21.4770 H   0  0  0  0  0  0  0  0  0  0  0  0
  -24.9160  -13.9130   20.3740 C   0  0  0  0  0  0  0  0  0  0  0  0
  -23.8800  -13.1270   20.8030 C   0  0  0  0  0  0  0  0  0  0  0  0
  -24.3660  -11.7840   20.7690 C   0  0  0  0  0  0  0  0  0  0  0  0
  -25.9670  -13.0490   20.1020 N   0  0  0  0  0  0  0  0  0  0  0  0
  -25.6380  -11.7640   20.3940 N   0  0  0  0  0  0  0  0  0  0  0  0
  -23.6740  -10.5100   21.0120 C   0  0  0  0  0  0  0  0  0  0  0  0
  -24.1540   -9.5740   21.9550 C   0  0  0  0  0  3  0  0  0  0  0  0
  -23.4610   -8.3660   22.1850 C   0  0  0  0  0  3  0  0  0  0  0  0
  -22.2720   -8.0830   21.4710 C   0  0  0  0  0  0  0  0  0  0  0  0
  -21.8120   -9.0060   20.5160 C   0  0  0  0  0  3  0  0  0  0  0  0
  -22.5070  -10.2070   20.2850 C   0  0  0  0  0  3  0  0  0  0  0  0
  -21.5510   -6.9210   21.6070 O   0  0  0  0  0  0  0  0  0  0  0  0
  -21.5570   -6.2030   22.7770 C   0  0  0  0  0  0  0  0  0  0  0  0
  -21.1600   -6.7730   24.0050 C   0  0  0  0  0  3  0  0  0  0  0  0
  -21.1100   -5.9760   25.1670 C   0  0  0  0  0  3  0  0  0  0  0  0
  -21.4540   -4.6140   25.1010 C   0  0  0  0  0  0  0  0  0  0  0  0
  -21.8500   -4.0440   23.8790 C   0  0  0  0  0  3  0  0  0  0  0  0
  -21.9010   -4.8370   22.7190 C   0  0  0  0  0  0  0  0  0  0  0  0
  -22.2600   -4.2800   21.5380 F   0  0  0  0  0  0  0  0  0  0  0  0
  -21.4010   -3.8480   26.2160 F   0  0  0  0  0  0  0  0  0  0  0  0
  -22.4870  -13.5830   21.1340 C   0  0  0  0  0  0  0  0  0  0  0  0
  -21.8050  -12.8930   22.0410 N   0  0  0  0  0  0  0  0  0  0  0  0
  -22.0080  -14.5930   20.6150 O   0  0  0  0  0  0  0  0  0  0  0  0
  -22.1970  -12.0850   22.4970 H   0  0  0  0  0  0  0  0  0  0  0  0
  -20.8700  -13.1940   22.2880 H   0  0  0  0  0  0  0  0  0  0  0  0
  -25.0470  -15.2810   20.1740 N   0  0  0  0  0  0  0  0  0  0  0  0
  -24.2710  -15.9190   20.2960 H   0  0  0  0  0  0  0  0  0  0  0  0
  -25.8660  -15.7340   19.7900 H   0  0  0  0  0  0  0  0  0  0  0  0
  1  3  2  0
  2  1  1  0
  2 50  1  0
  4  2  1  0
  5  6  1  0
  5  7  1  0
  6  7  1  0
  6  1  1  0
  7  8  1  0
  8  9  1  0
  9 11  1  0
 10 21  2  0
 11 16  1  0
 12 20  1  0
 12 22  1  0
 13 19  1  0
 13 15  1  0
 14 20  1  0
 15 14  1  0
 16 15  2  0
 17 18  1  0
 17 11  2  0
 18 13  2  0
 19 12  1  0
 20 10  1  0
 22 24  2  0
 23 22  1  0
 25 23  1  0
 26 35  2  0
 26 31  1  0
 27 23  1  0
 27 31  1  0
 28 27  1  0
 29 30  1  0
 29 28  1  0
 30 26  1  0
 31 32  2  0
 32 33  1  0
 34 33  2  0
 35 34  1  0
 36 10  1  0
 36 41  1  0
 36 37  1  0
 37 40  1  1
 37 38  1  0
 39 37  1  0
 41 44  1  0
 42 46  1  0
 42 41  1  0
 43 42  2  0
 46 45  1  0
 48 46  1  0
 48 49  1  0
 48 47  1  0
 50 53  1  0
 51 54  1  0
 52 55  2  0
 52 53  1  0
 53 51  2  0
 54 57  1  0
 55 56  1  0
 56 54  2  0
 58 55  1  0
 59 67  1  0
 60 65  1  0
 61 62  1  0
 61 60  1  0
 63 62  1  0
 63 72  1  0
 63 64  1  0
 65 59  1  0
 65 64  1  0
 66 59  2  0
 67 56  1  0
 67 68  1  0
 69 70  2  0
 70 89  1  0
 71 70  1  0
 71 74  1  0
 72 69  1  0
 72 73  1  0
 73 71  2  0
 74 75  1  0
 75 76  2  0
 77 80  1  0
 77 76  1  0
 78 77  2  0
 79 78  1  0
 79 74  2  0
 80 81  1  0
 81 82  1  0
 82 83  2  0
 84 83  1  0
 84 88  1  0
 85 84  2  0
 86 81  2  0
 86 85  1  0
 87 86  1  0
 89 90  1  0
 90 93  1  0
 90 92  1  0
 91 89  2  0
 94 95  1  0
 94 69  1  0
 96 94  1  0
M  ISO  4   8 101   9 101  59 100  67 100
M  END
>  <TORSDO>  (27) 
F 20

>  <SCORE>  (27) 
-11.741

>  <name>  (27) 
28

>  <ligand_id>  (27) 
28

>  <original_smiles>  (27) 
[H]c1c([H])c([H])c2c(c1[H])C([H])([H])C([H])([H])C([H])([H])C2([H])N([H])C(=O)C1([H])N(C(=O)C([H])(N([H])C(=O)C([H])(N([H])C([H])([H])[H])C([H])([H])[H])C(C([H])([H])[H])(C([H])([H])[H])C([H])([H])[H])C([H])([H])c2c([H])c(OC([H])([H])C3([H])C([H])([H])C3([H])C(=O)N([H])C([H])([H])c3c([H])c(C([H])([H])[H])c(N([H])C(=O)N4C([H])([H])C([H])([H])C([H])([H])C([H])(n5nc(-c6c([H])c([H])c(Oc7c([H])c([H])c(F)c([H])c7F)c([H])c6[H])c(C(=O)N([H])[H])c5N([H])[H])C4([H])[H])c(C([H])([H])[H])c3[H])c([H])c([H])c2C1([H])[H]

>  <smiles>  (27) 
[H]c1c([H])c([H])c2c(c1[H])C([H])([H])C([H])([H])C([H])([H])C2([H])N([H])C(=O)C1([H])N(C(=O)C([H])(N([H])C(=O)C([H])(N([H])C([H])([H])[H])C([H])([H])[H])C(C([H])([H])[H])(C([H])([H])[H])C([H])([H])[H])C([H])([H])c2c([H])c(OC([H])([H])C3([H])C([H])([H])C3([H])C(=O)N([H])C([H])([H])c3c([H])c(C([H])([H])[H])c(N([H])C(=O)N4C([H])([H])C([H])([H])C([H])([H])C([H])(n5nc(-c6c([H])c([H])c(Oc7c([H])c([H])c(F)c([H])c7F)c([H])c6[H])c(C(=O)N([H])[H])c5N([H])[H])C4([H])[H])c(C([H])([H])[H])c3[H])c([H])c([H])c2C1([H])[H]

$$$$
29:0:0
     RDKit          3D

 94103  0  0  1  0  0  0  0  0999 V2000
  -28.1050  -19.2510   20.8650 C   0  0  0  0  0  3  0  0  0  0  0  0
  -29.9490  -20.1920   22.4370 C   0  0  0  0  0  2  0  0  0  0  0  0
  -28.7670  -20.5150   21.4830 C   0  0  0  0  0  3  0  0  0  0  0  0
  -30.2330  -18.2880   20.8590 C   0  0  0  0  0  3  0  0  0  0  0  0
  -30.6840  -19.7860   21.1240 C   0  0  0  0  0  3  0  0  0  0  0  0
  -29.8970  -21.0820   20.5940 C   0  0  0  0  0  3  0  0  0  0  0  0
  -28.8080  -18.2360   20.4980 N   0  0  0  0  0  0  0  0  0  0  0  0
  -31.3440  -14.8940   19.4450 C   0  0  0  0  0  0  0  0  0  0  0  0
  -30.9200  -12.6330   18.4950 C   0  0  0  0  0  2  0  0  0  0  0  0
  -29.8340  -12.7470   17.4040 C   0  0  0  0  0  2  0  0  0  0  0  0
  -28.4330  -12.6130   18.0280 C   0  0  0  0  0  2  0  0  0  0  0  0
  -28.2450  -13.5360   19.2620 C   0  0  0  0  0  3  0  0  0  0  0  0
  -29.4370  -13.4220   20.2400 C   0  0  0  0  0  2  0  0  0  0  0  0
  -30.6720  -13.6990   19.4900 N   0  0  0  0  0  0  0  0  0  0  0  0
  -32.4030  -14.9870   18.8160 O   0  0  0  0  0  0  0  0  0  0  0  0
  -31.0430  -17.3050   19.9440 C   0  0  0  0  0  0  0  0  0  0  0  0
  -30.7300  -15.9720   20.0190 N   0  0  0  0  0  0  0  0  0  0  0  0
  -31.9270  -17.7740   19.2200 O   0  0  0  0  0  0  0  0  0  0  0  0
  -29.9170  -15.7690   20.5760 H   0  0  0  0  0  0  0  0  0  0  0  0
  -26.0610  -14.1930   20.4470 C   0  0  0  0  0  0  0  0  0  0  0  0
  -25.0060  -13.4500   20.8980 C   0  0  0  0  0  0  0  0  0  0  0  0
  -25.3350  -12.0860   20.6220 C   0  0  0  0  0  0  0  0  0  0  0  0
  -26.9720  -13.2850   19.9310 N   0  0  0  0  0  0  0  0  0  0  0  0
  -26.5480  -12.0050   20.0920 N   0  0  0  0  0  0  0  0  0  0  0  0
  -24.5380  -10.8610   20.7800 C   0  0  0  0  0  0  0  0  0  0  0  0
  -24.9390   -9.8270   21.6530 C   0  0  0  0  0  3  0  0  0  0  0  0
  -24.1480   -8.6670   21.8030 C   0  0  0  0  0  3  0  0  0  0  0  0
  -22.9380   -8.5360   21.0810 C   0  0  0  0  0  0  0  0  0  0  0  0
  -22.5530   -9.5590   20.1960 C   0  0  0  0  0  3  0  0  0  0  0  0
  -23.3460  -10.7090   20.0440 C   0  0  0  0  0  3  0  0  0  0  0  0
  -22.1200   -7.4350   21.1430 O   0  0  0  0  0  0  0  0  0  0  0  0
  -21.9280   -6.7450   22.3120 C   0  0  0  0  0  0  0  0  0  0  0  0
  -21.4040   -7.3660   23.4670 C   0  0  0  0  0  3  0  0  0  0  0  0
  -21.1600   -6.6040   24.6270 C   0  0  0  0  0  3  0  0  0  0  0  0
  -21.4280   -5.2220   24.6310 C   0  0  0  0  0  0  0  0  0  0  0  0
  -21.9440   -4.6000   23.4810 C   0  0  0  0  0  3  0  0  0  0  0  0
  -22.1910   -5.3600   22.3240 C   0  0  0  0  0  0  0  0  0  0  0  0
  -22.6690   -4.7530   21.2110 F   0  0  0  0  0  0  0  0  0  0  0  0
  -21.1850   -4.4880   25.7420 F   0  0  0  0  0  0  0  0  0  0  0  0
  -23.7180  -13.9780   21.4640 C   0  0  0  0  0  0  0  0  0  0  0  0
  -23.1000  -13.2350   22.3770 N   0  0  0  0  0  0  0  0  0  0  0  0
  -23.2800  -15.0800   21.1360 O   0  0  0  0  0  0  0  0  0  0  0  0
  -23.4730  -12.3420   22.6640 H   0  0  0  0  0  0  0  0  0  0  0  0
  -22.2420  -13.5610   22.7960 H   0  0  0  0  0  0  0  0  0  0  0  0
  -26.3150  -15.5610   20.4130 N   0  0  0  0  0  0  0  0  0  0  0  0
  -25.6330  -16.2410   20.7310 H   0  0  0  0  0  0  0  0  0  0  0  0
  -27.1490  -15.9880   20.0270 H   0  0  0  0  0  0  0  0  0  0  0  0
  -29.6450  -21.5760   19.1420 C   0  0  0  0  0  2  0  0  0  0  0  0
  -29.1850  -24.1300   18.8950 C   0  0  0  0  0  0  0  0  0  0  0  0
  -28.8270  -22.8250   19.0730 N   0  0  0  0  0  0  0  0  0  0  0  0
  -30.3600  -24.5040   18.9260 O   0  0  0  0  0  0  0  0  0  0  0  0
  -27.8290  -22.6650   19.0520 H   0  0  0  0  0  0  0  0  0  0  0  0
  -28.0280  -25.1380   18.5900 C   0  0  0  0  0  2  0  0  0  0  0  0
  -28.2800  -26.5740   18.7980 O   0  0  0  0  0  0  0  0  0  0  0  0
  -24.5490  -31.2350   22.7940 C   0  0  0  0  0  0  0  0  0  0  0  0
  -27.1320  -27.3690   18.9160 C   0  0  0  0  0  0  0  0  0  0  0  0
  -23.2950  -30.0490   21.0300 C   0  0  0  0  0  3  0  0  0  0  0  0
  -24.7070  -28.8260   19.2920 C   0  0  0  0  0  0  0  0  0  0  0  0
  -25.7980  -30.5280   20.7490 C   0  0  0  0  0  2  0  0  0  0  0  0
  -25.8910  -29.2770   19.8900 C   0  0  0  0  0  0  0  0  0  0  0  0
  -27.1070  -28.5600   19.6970 C   0  0  0  0  0  3  0  0  0  0  0  0
  -25.9210  -26.9820   18.2900 C   0  0  0  0  0  3  0  0  0  0  0  0
  -24.7220  -27.6840   18.4850 C   0  0  0  0  0  3  0  0  0  0  0  0
  -23.4420  -29.6150   19.5490 C   0  0  0  0  0  2  0  0  0  0  0  0
  -24.5680  -30.6130   21.5820 N   0  0  0  0  0  0  0  0  0  0  0  0
  -23.4930  -31.3710   23.4310 O   0  0  0  0  0  0  0  0  0  0  0  0
  -22.7420  -28.8610   21.8510 C   0  0  0  0  0  0  0  0  0  0  0  0
  -21.4230  -28.6210   21.7530 N   0  0  0  0  0  0  0  0  0  0  0  0
  -23.4940  -28.1640   22.5380 O   0  0  0  0  0  0  0  0  0  0  0  0
  -20.8690  -29.2460   21.1830 H   0  0  0  0  0  0  0  0  0  0  0  0
  -18.1580  -27.1140   22.1500 C   0  0  0  0  0  0  0  0  0  0  0  0
  -20.6970  -27.5320   22.4070 C   0  0  0  0  0  3  0  0  0  0  0  0
  -20.8900  -26.1980   21.6490 C   0  0  0  0  0  2  0  0  0  0  0  0
  -19.7870  -25.9210   20.6250 C   0  0  0  0  0  2  0  0  0  0  0  0
  -18.4160  -25.8800   21.3030 C   0  0  0  0  0  2  0  0  0  0  0  0
  -19.2290  -27.9000   22.6540 C   0  0  0  0  0  0  0  0  0  0  0  0
  -18.9330  -29.0570   23.4060 C   0  0  0  0  0  3  0  0  0  0  0  0
  -17.6000  -29.4340   23.6530 C   0  0  0  0  0  3  0  0  0  0  0  0
  -16.5450  -28.6440   23.1640 C   0  0  0  0  0  3  0  0  0  0  0  0
  -16.8250  -27.4840   22.4190 C   0  0  0  0  0  3  0  0  0  0  0  0
  -25.8440  -31.8270   23.4280 C   0  0  0  0  0  3  0  0  0  0  0  0
  -26.4460  -30.9180   24.5710 C   0  0  1  0  0  0  0  0  0  0  0  0
  -25.4200  -30.5280   25.6600 C   0  0  0  0  0  1  0  0  0  0  0  0
  -27.0310  -29.6120   23.9830 C   0  0  0  0  0  1  0  0  0  0  0  0
  -27.6190  -31.6540   25.2610 C   0  0  0  0  0  1  0  0  0  0  0  0
  -25.5160  -33.1610   23.9440 N   0  0  0  0  0  0  0  0  0  0  0  0
  -25.8010  -34.3110   23.3190 C   0  0  0  0  0  0  0  0  0  0  0  0
  -26.4430  -34.3570   22.2660 O   0  0  0  0  0  0  0  0  0  0  0  0
  -24.9440  -33.1950   24.7750 H   0  0  0  0  0  0  0  0  0  0  0  0
  -24.0220  -36.0850   23.2470 C   0  0  0  0  0  1  0  0  0  0  0  0
  -25.2970  -35.6150   23.9640 C   0  0  0  0  0  3  0  0  0  0  0  0
  -27.4350  -36.4470   24.8420 C   0  0  0  0  0  1  0  0  0  0  0  0
  -26.3010  -36.7030   23.9570 N   0  0  0  0  0  0  0  0  0  0  0  0
  -25.8780  -37.5860   24.2300 H   0  0  0  0  0  0  0  0  0  0  0  0
  3  1  1  0
  3  2  1  0
  4 16  1  0
  4  5  1  0
  5  2  1  0
  6 48  1  0
  6  5  1  0
  6  3  1  0
  7  4  1  0
  7  1  2  0
  8 14  1  0
  8 17  1  0
  9 14  1  0
 10 11  1  0
 10  9  1  0
 12 11  1  0
 12 23  1  0
 12 13  1  0
 14 13  1  0
 15  8  2  0
 16 17  1  0
 17 19  1  0
 18 16  2  0
 20 21  2  0
 21 40  1  0
 22 25  1  0
 22 21  1  0
 23 24  1  0
 23 20  1  0
 24 22  2  0
 25 26  1  0
 26 27  2  0
 28 31  1  0
 28 27  1  0
 29 28  2  0
 30 29  1  0
 30 25  2  0
 31 32  1  0
 32 37  2  0
 32 33  1  0
 33 34  2  0
 34 35  1  0
 35 39  1  0
 36 35  2  0
 37 36  1  0
 38 37  1  0
 40 41  1  0
 41 43  1  0
 41 44  1  0
 42 40  2  0
 45 20  1  0
 45 46  1  0
 47 45  1  0
 49 51  2  0
 49 50  1  0
 50 48  1  0
 52 50  1  0
 53 54  1  0
 53 49  1  0
 54 56  1  0
 55 66  2  0
 56 61  1  0
 57 65  1  0
 57 67  1  0
 58 64  1  0
 58 60  1  0
 59 65  1  0
 60 59  1  0
 61 60  2  0
 62 63  1  0
 62 56  2  0
 63 58  2  0
 64 57  1  0
 65 55  1  0
 67 69  2  0
 68 67  1  0
 70 68  1  0
 71 80  2  0
 71 76  1  0
 72 68  1  0
 72 76  1  0
 73 72  1  0
 74 75  1  0
 74 73  1  0
 75 71  1  0
 76 77  2  0
 77 78  1  0
 79 78  2  0
 80 79  1  0
 81 55  1  0
 81 86  1  0
 81 82  1  0
 82 85  1  1
 82 83  1  0
 84 82  1  0
 86 89  1  0
 87 86  1  0
 87 91  1  0
 88 87  2  0
 91 90  1  0
 93 91  1  0
 93 94  1  0
 93 92  1  0
M  ISO  4   8 100  17 100  53 101  54 101
M  END
>  <TORSDO>  (28) 
F 19

>  <SCORE>  (28) 
-9.642

>  <name>  (28) 
29

>  <ligand_id>  (28) 
29

>  <original_smiles>  (28) 
[H]C1=NC([H])(C(=O)N([H])C(=O)N2C([H])([H])C([H])([H])C([H])([H])C([H])(n3nc(-c4c([H])c([H])c(Oc5c([H])c([H])c(F)c([H])c5F)c([H])c4[H])c(C(=O)N([H])[H])c3N([H])[H])C2([H])[H])C2([H])C([H])([H])C1([H])C2([H])C([H])([H])N([H])C(=O)C([H])([H])Oc1c([H])c([H])c2c(c1[H])C([H])([H])N(C(=O)C([H])(N([H])C(=O)C([H])(N([H])C([H])([H])[H])C([H])([H])[H])C(C([H])([H])[H])(C([H])([H])[H])C([H])([H])[H])C([H])(C(=O)N([H])C1([H])c3c([H])c([H])c([H])c([H])c3C([H])([H])C([H])([H])C1([H])[H])C2([H])[H]

>  <smiles>  (28) 
[H]C1=NC([H])(C(=O)N([H])C(=O)N2C([H])([H])C([H])([H])C([H])([H])C([H])(n3nc(-c4c([H])c([H])c(Oc5c([H])c([H])c(F)c([H])c5F)c([H])c4[H])c(C(=O)N([H])[H])c3N([H])[H])C2([H])[H])C2([H])C([H])([H])C1([H])C2([H])C([H])([H])N([H])C(=O)C([H])([H])Oc1c([H])c([H])c2c(c1[H])C([H])([H])N(C(=O)C([H])(N([H])C(=O)C([H])(N([H])C([H])([H])[H])C([H])([H])[H])C(C([H])([H])[H])(C([H])([H])[H])C([H])([H])[H])C([H])(C(=O)N([H])C1([H])c3c([H])c([H])c([H])c([H])c3C([H])([H])C([H])([H])C1([H])[H])C2([H])[H]

$$$$
30:0:0
     RDKit          3D

 93101  0  0  1  0  0  0  0  0999 V2000
  -28.5690  -23.8210   20.0120 C   0  0  0  0  0  3  0  0  0  0  0  0
  -29.1350  -23.9590   18.6540 N   0  0  0  0  0  4  0  0  0  0  0  0
  -30.0930  -24.2640   18.6970 H   0  0  0  0  0  0  0  0  0  0  0  0
  -28.6200  -24.6350   18.1160 H   0  0  0  0  0  0  0  0  0  0  0  0
  -29.1010  -23.0780   18.1680 H   0  0  0  0  0  0  0  0  0  0  0  0
  -29.2570  -22.5540   20.7580 C   0  0  0  0  0  2  0  0  0  0  0  0
  -27.5880  -19.3910   19.1820 C   0  0  0  0  0  3  0  0  0  0  0  0
  -27.8900  -20.7300   19.5200 C   0  0  0  0  0  3  0  0  0  0  0  0
  -28.4000  -18.3210   19.6060 C   0  0  0  0  0  3  0  0  0  0  0  0
  -29.8500  -19.9300   20.7100 C   0  0  0  0  0  3  0  0  0  0  0  0
  -29.0190  -21.0500   20.3020 C   0  0  0  0  0  0  0  0  0  0  0  0
  -29.5570  -18.5460   20.3790 C   0  0  0  0  0  0  0  0  0  0  0  0
  -30.4540  -17.3140   20.8150 C   0  0  0  0  0  2  0  0  0  0  0  0
  -30.6400  -14.7300   20.4140 C   0  0  0  0  0  0  0  0  0  0  0  0
  -30.3670  -12.4770   19.3800 C   0  0  0  0  0  2  0  0  0  0  0  0
  -29.4350  -12.5690   18.1520 C   0  0  0  0  0  2  0  0  0  0  0  0
  -27.9610  -12.4150   18.5720 C   0  0  0  0  0  2  0  0  0  0  0  0
  -27.5900  -13.2980   19.7950 C   0  0  0  0  0  3  0  0  0  0  0  0
  -28.6510  -13.2170   20.9170 C   0  0  0  0  0  2  0  0  0  0  0  0
  -29.9590  -13.5360   20.3280 N   0  0  0  0  0  0  0  0  0  0  0  0
  -31.8170  -14.8000   20.0570 O   0  0  0  0  0  0  0  0  0  0  0  0
  -29.9440  -15.8820   20.7260 N   0  0  0  0  0  0  0  0  0  0  0  0
  -28.9790  -15.7470   20.9790 H   0  0  0  0  0  0  0  0  0  0  0  0
  -25.1980  -13.8950   20.5150 C   0  0  0  0  0  0  0  0  0  0  0  0
  -24.1270  -13.1210   20.8770 C   0  0  0  0  0  0  0  0  0  0  0  0
  -24.5880  -11.7700   20.8480 C   0  0  0  0  0  0  0  0  0  0  0  0
  -26.2420  -13.0130   20.2840 N   0  0  0  0  0  0  0  0  0  0  0  0
  -25.8820  -11.7300   20.5490 N   0  0  0  0  0  0  0  0  0  0  0  0
  -23.8580  -10.5080   21.0360 C   0  0  0  0  0  0  0  0  0  0  0  0
  -24.2810   -9.5340   21.9690 C   0  0  0  0  0  3  0  0  0  0  0  0
  -23.5420   -8.3440   22.1500 C   0  0  0  0  0  3  0  0  0  0  0  0
  -22.3690   -8.1160   21.3930 C   0  0  0  0  0  0  0  0  0  0  0  0
  -21.9630   -9.0760   20.4480 C   0  0  0  0  0  3  0  0  0  0  0  0
  -22.7020  -10.2580   20.2700 C   0  0  0  0  0  3  0  0  0  0  0  0
  -21.6070   -6.9750   21.4810 O   0  0  0  0  0  0  0  0  0  0  0  0
  -21.5520   -6.2320   22.6320 C   0  0  0  0  0  0  0  0  0  0  0  0
  -21.1210   -6.7880   23.8570 C   0  0  0  0  0  3  0  0  0  0  0  0
  -21.0130   -5.9710   25.0000 C   0  0  0  0  0  3  0  0  0  0  0  0
  -21.3280   -4.6020   24.9210 C   0  0  0  0  0  0  0  0  0  0  0  0
  -21.7530   -4.0460   23.7020 C   0  0  0  0  0  3  0  0  0  0  0  0
  -21.8600   -4.8580   22.5590 C   0  0  0  0  0  0  0  0  0  0  0  0
  -22.2480   -4.3140   21.3820 F   0  0  0  0  0  0  0  0  0  0  0  0
  -21.2180   -3.8150   26.0170 F   0  0  0  0  0  0  0  0  0  0  0  0
  -22.7290  -13.6020   21.1400 C   0  0  0  0  0  0  0  0  0  0  0  0
  -21.9980  -12.9140   22.0090 N   0  0  0  0  0  0  0  0  0  0  0  0
  -22.2960  -14.6230   20.6100 O   0  0  0  0  0  0  0  0  0  0  0  0
  -22.3660  -12.0950   22.4700 H   0  0  0  0  0  0  0  0  0  0  0  0
  -21.0580  -13.2190   22.2240 H   0  0  0  0  0  0  0  0  0  0  0  0
  -25.3670  -15.2650   20.3460 N   0  0  0  0  0  0  0  0  0  0  0  0
  -24.6080  -15.9250   20.4800 H   0  0  0  0  0  0  0  0  0  0  0  0
  -26.2430  -15.7150   20.1200 H   0  0  0  0  0  0  0  0  0  0  0  0
  -28.6110  -25.2450   20.7730 C   0  0  0  0  0  2  0  0  0  0  0  0
  -28.4170  -26.5460   20.0750 O   0  0  0  0  0  0  0  0  0  0  0  0
  -24.5990  -31.8750   23.2150 C   0  0  0  0  0  0  0  0  0  0  0  0
  -27.2480  -27.3170   20.1830 C   0  0  0  0  0  0  0  0  0  0  0  0
  -23.4030  -30.4670   21.5750 C   0  0  0  0  0  3  0  0  0  0  0  0
  -24.8640  -28.9070   20.1690 C   0  0  0  0  0  0  0  0  0  0  0  0
  -25.9390  -30.7990   21.3910 C   0  0  0  0  0  2  0  0  0  0  0  0
  -26.0260  -29.4130   20.7620 C   0  0  0  0  0  0  0  0  0  0  0  0
  -27.2210  -28.6310   20.7510 C   0  0  0  0  0  3  0  0  0  0  0  0
  -26.0560  -26.8540   19.5860 C   0  0  0  0  0  3  0  0  0  0  0  0
  -24.8790  -27.6320   19.5780 C   0  0  0  0  0  3  0  0  0  0  0  0
  -23.6210  -29.7790   20.2020 C   0  0  0  0  0  2  0  0  0  0  0  0
  -24.6660  -31.0650   22.1180 N   0  0  0  0  0  0  0  0  0  0  0  0
  -23.5120  -32.1490   23.7470 O   0  0  0  0  0  0  0  0  0  0  0  0
  -22.7410  -29.4540   22.5380 C   0  0  0  0  0  0  0  0  0  0  0  0
  -21.4140  -29.2820   22.4140 N   0  0  0  0  0  0  0  0  0  0  0  0
  -23.4190  -28.8260   23.3560 O   0  0  0  0  0  0  0  0  0  0  0  0
  -20.9230  -29.8390   21.7280 H   0  0  0  0  0  0  0  0  0  0  0  0
  -18.0330  -28.1040   22.9220 C   0  0  0  0  0  0  0  0  0  0  0  0
  -20.5940  -28.3440   23.1830 C   0  0  0  0  0  3  0  0  0  0  0  0
  -20.6850  -26.9160   22.5970 C   0  0  0  0  0  2  0  0  0  0  0  0
  -19.5750  -26.6080   21.5860 C   0  0  0  0  0  2  0  0  0  0  0  0
  -18.1980  -26.7560   22.2390 C   0  0  0  0  0  2  0  0  0  0  0  0
  -19.1580  -28.8550   23.3510 C   0  0  0  0  0  0  0  0  0  0  0  0
  -18.9510  -30.1150   23.9530 C   0  0  0  0  0  3  0  0  0  0  0  0
  -17.6510  -30.6240   24.1310 C   0  0  0  0  0  3  0  0  0  0  0  0
  -16.5380  -29.8680   23.7210 C   0  0  0  0  0  3  0  0  0  0  0  0
  -16.7310  -28.6100   23.1210 C   0  0  0  0  0  3  0  0  0  0  0  0
  -25.8760  -32.5140   23.8420 C   0  0  0  0  0  3  0  0  0  0  0  0
  -25.5590  -33.9110   24.1740 N   0  0  0  0  0  0  0  0  0  0  0  0
  -25.8910  -34.9670   23.4200 C   0  0  0  0  0  0  0  0  0  0  0  0
  -26.5630  -34.8680   22.3900 O   0  0  0  0  0  0  0  0  0  0  0  0
  -24.9600  -34.0630   24.9720 H   0  0  0  0  0  0  0  0  0  0  0  0
  -24.1600  -36.7600   23.0680 C   0  0  0  0  0  1  0  0  0  0  0  0
  -25.3980  -36.3530   23.8820 C   0  0  0  0  0  3  0  0  0  0  0  0
  -27.5250  -37.2440   24.7270 C   0  0  0  0  0  1  0  0  0  0  0  0
  -26.4280  -37.4090   23.7780 N   0  0  0  0  0  0  0  0  0  0  0  0
  -26.0160  -38.3270   23.9240 H   0  0  0  0  0  0  0  0  0  0  0  0
  -26.3940  -31.7430   25.1190 C   0  0  1  0  0  0  0  0  0  0  0  0
  -25.3020  -31.4980   26.1850 C   0  0  0  0  0  1  0  0  0  0  0  0
  -26.9830  -30.3690   24.7240 C   0  0  0  0  0  1  0  0  0  0  0  0
  -27.5390  -32.5410   25.7850 C   0  0  0  0  0  1  0  0  0  0  0  0
  1  6  1  0
  1 52  1  0
  2  3  1  0
  2  1  1  0
  4  2  1  0
  5  2  1  0
  7  8  2  0
  7  9  1  0
  8 11  1  0
  9 12  2  0
 11 10  2  0
 11  6  1  0
 12 10  1  0
 12 13  1  0
 14 22  1  0
 15 20  1  0
 16 17  1  0
 16 15  1  0
 18 17  1  0
 18 27  1  0
 18 19  1  0
 20 14  1  0
 20 19  1  0
 21 14  2  0
 22 13  1  0
 22 23  1  0
 24 25  2  0
 25 44  1  0
 26 25  1  0
 26 29  1  0
 27 24  1  0
 27 28  1  0
 28 26  2  0
 29 30  1  0
 30 31  2  0
 32 35  1  0
 32 31  1  0
 33 32  2  0
 34 33  1  0
 34 29  2  0
 35 36  1  0
 36 37  1  0
 37 38  2  0
 39 38  1  0
 39 43  1  0
 40 39  2  0
 41 36  2  0
 41 40  1  0
 42 41  1  0
 44 45  1  0
 45 48  1  0
 45 47  1  0
 46 44  2  0
 49 50  1  0
 49 24  1  0
 51 49  1  0
 53 55  1  0
 53 52  1  0
 54 65  2  0
 55 60  1  0
 56 64  1  0
 56 66  1  0
 57 63  1  0
 57 59  1  0
 58 64  1  0
 59 58  1  0
 60 59  2  0
 61 55  2  0
 62 61  1  0
 62 57  2  0
 63 56  1  0
 64 54  1  0
 66 68  2  0
 67 66  1  0
 69 67  1  0
 70 79  2  0
 70 75  1  0
 71 67  1  0
 71 75  1  0
 72 71  1  0
 73 74  1  0
 73 72  1  0
 74 70  1  0
 75 76  2  0
 76 77  1  0
 78 77  2  0
 79 78  1  0
 80 54  1  0
 80 81  1  0
 80 90  1  0
 81 84  1  0
 82 86  1  0
 82 81  1  0
 83 82  2  0
 86 85  1  0
 88 86  1  0
 88 89  1  0
 88 87  1  0
 90 93  1  1
 90 91  1  0
 92 90  1  0
M  ISO  4  14 100  22 100  52 101  53 101
M  END
>  <TORSDO>  (29) 
F 21

>  <SCORE>  (29) 
-13.775

>  <name>  (29) 
30

>  <ligand_id>  (29) 
30

>  <original_smiles>  (29) 
[H]c1c([H])c([H])c2c(c1[H])C([H])([H])C([H])([H])C([H])([H])C2([H])N([H])C(=O)C1([H])N(C(=O)C([H])(N([H])C(=O)C([H])(N([H])C([H])([H])[H])C([H])([H])[H])C(C([H])([H])[H])(C([H])([H])[H])C([H])([H])[H])C([H])([H])c2c([H])c(OC([H])([H])C([H])(C([H])([H])c3c([H])c([H])c([H])c(C([H])([H])N([H])C(=O)N4C([H])([H])C([H])([H])C([H])([H])C([H])(n5nc(-c6c([H])c([H])c(Oc7c([H])c([H])c(F)c([H])c7F)c([H])c6[H])c(C(=O)N([H])[H])c5N([H])[H])C4([H])[H])c3[H])[N+]([H])([H])[H])c([H])c([H])c2C1([H])[H]

>  <smiles>  (29) 
[H]c1c([H])c([H])c2c(c1[H])C([H])([H])C([H])([H])C([H])([H])C2([H])N([H])C(=O)C1([H])N(C(=O)C([H])(N([H])C(=O)C([H])(N([H])C([H])([H])[H])C([H])([H])[H])C(C([H])([H])[H])(C([H])([H])[H])C([H])([H])[H])C([H])([H])c2c([H])c(OC([H])([H])C([H])(C([H])([H])c3c([H])c([H])c([H])c(C([H])([H])N([H])C(=O)N4C([H])([H])C([H])([H])C([H])([H])C([H])(n5nc(-c6c([H])c([H])c(Oc7c([H])c([H])c(F)c([H])c7F)c([H])c6[H])c(C(=O)N([H])[H])c5N([H])[H])C4([H])[H])c3[H])[N+]([H])([H])[H])c([H])c([H])c2C1([H])[H]

$$$$
31:0:0
     RDKit          3D

 96105  0  0  1  0  0  0  0  0999 V2000
  -28.6320  -20.7550   20.5740 C   0  0  0  0  0  3  0  0  0  0  0  0
  -28.3960  -22.1440   20.4210 C   0  0  0  0  0  3  0  0  0  0  0  0
  -30.5310  -22.3710   19.3040 C   0  0  0  0  0  3  0  0  0  0  0  0
  -29.8150  -20.1490   20.0830 C   0  0  0  0  0  0  0  0  0  0  0  0
  -29.3460  -22.9730   19.7760 C   0  0  0  0  0  0  0  0  0  0  0  0
  -30.7690  -20.9860   19.4390 C   0  0  0  0  0  0  0  0  0  0  0  0
  -32.0550  -20.4270   18.8480 C   0  0  0  0  0  1  0  0  0  0  0  0
  -30.7110  -14.5180   20.1820 C   0  0  0  0  0  0  0  0  0  0  0  0
  -30.3510  -12.3610   19.0600 C   0  0  0  0  0  2  0  0  0  0  0  0
  -29.3780  -12.5830   17.8850 C   0  0  0  0  0  2  0  0  0  0  0  0
  -27.9180  -12.4500   18.3610 C   0  0  0  0  0  2  0  0  0  0  0  0
  -27.6210  -13.2720   19.6450 C   0  0  0  0  0  3  0  0  0  0  0  0
  -28.7160  -13.0730   20.7160 C   0  0  0  0  0  2  0  0  0  0  0  0
  -30.0120  -13.3560   20.0890 N   0  0  0  0  0  0  0  0  0  0  0  0
  -31.8910  -14.6110   19.8280 O   0  0  0  0  0  0  0  0  0  0  0  0
  -29.6850  -17.9400   21.5110 C   0  0  0  0  0  2  0  0  0  0  0  0
  -29.2780  -17.8430   19.1140 C   0  0  0  0  0  2  0  0  0  0  0  0
  -30.1750  -16.4620   21.5400 C   0  0  0  0  0  2  0  0  0  0  0  0
  -29.7740  -16.3850   19.0260 C   0  0  0  0  0  2  0  0  0  0  0  0
  -30.0400  -18.6220   20.1830 C   0  0  0  0  0  3  0  0  0  0  0  0
  -29.9710  -15.6550   20.3090 N   0  0  0  0  0  0  0  0  0  0  0  0
  -25.2490  -13.8650   20.4370 C   0  0  0  0  0  0  0  0  0  0  0  0
  -24.1940  -13.0870   20.8290 C   0  0  0  0  0  0  0  0  0  0  0  0
  -24.6580  -11.7370   20.7770 C   0  0  0  0  0  0  0  0  0  0  0  0
  -26.2880  -12.9880   20.1680 N   0  0  0  0  0  0  0  0  0  0  0  0
  -25.9400  -11.7030   20.4320 N   0  0  0  0  0  0  0  0  0  0  0  0
  -23.9410  -10.4710   20.9770 C   0  0  0  0  0  0  0  0  0  0  0  0
  -24.3920   -9.5050   21.9040 C   0  0  0  0  0  3  0  0  0  0  0  0
  -23.6750   -8.3050   22.0930 C   0  0  0  0  0  3  0  0  0  0  0  0
  -22.4930   -8.0610   21.3550 C   0  0  0  0  0  0  0  0  0  0  0  0
  -22.0600   -9.0150   20.4180 C   0  0  0  0  0  3  0  0  0  0  0  0
  -22.7780  -10.2070   20.2260 C   0  0  0  0  0  3  0  0  0  0  0  0
  -21.7460   -6.9110   21.4540 O   0  0  0  0  0  0  0  0  0  0  0  0
  -21.7020   -6.1780   22.6130 C   0  0  0  0  0  0  0  0  0  0  0  0
  -21.2620   -6.7380   23.8320 C   0  0  0  0  0  3  0  0  0  0  0  0
  -21.1680   -5.9300   24.9830 C   0  0  0  0  0  3  0  0  0  0  0  0
  -21.5030   -4.5640   24.9160 C   0  0  0  0  0  0  0  0  0  0  0  0
  -21.9360   -4.0050   23.7010 C   0  0  0  0  0  3  0  0  0  0  0  0
  -22.0320   -4.8100   22.5520 C   0  0  0  0  0  0  0  0  0  0  0  0
  -22.4300   -4.2600   21.3790 F   0  0  0  0  0  0  0  0  0  0  0  0
  -21.4050   -3.7870   26.0190 F   0  0  0  0  0  0  0  0  0  0  0  0
  -22.8050  -13.5590   21.1430 C   0  0  0  0  0  0  0  0  0  0  0  0
  -22.1030  -12.8540   22.0240 N   0  0  0  0  0  0  0  0  0  0  0  0
  -22.3490  -14.5870   20.6430 O   0  0  0  0  0  0  0  0  0  0  0  0
  -22.4840  -12.0210   22.4490 H   0  0  0  0  0  0  0  0  0  0  0  0
  -21.1720  -13.1510   22.2770 H   0  0  0  0  0  0  0  0  0  0  0  0
  -25.4070  -15.2370   20.2660 N   0  0  0  0  0  0  0  0  0  0  0  0
  -24.6500  -15.8940   20.4110 H   0  0  0  0  0  0  0  0  0  0  0  0
  -26.2640  -15.6790   19.9550 H   0  0  0  0  0  0  0  0  0  0  0  0
  -29.1160  -24.4710   19.4890 C   0  0  0  0  0  3  0  0  0  0  0  0
  -28.4650  -24.6100   18.1730 N   0  0  0  0  0  4  0  0  0  0  0  0
  -27.5530  -24.1890   18.1700 H   0  0  0  0  0  0  0  0  0  0  0  0
  -29.0190  -24.1590   17.4680 H   0  0  0  0  0  0  0  0  0  0  0  0
  -28.3810  -25.5820   17.9290 H   0  0  0  0  0  0  0  0  0  0  0  0
  -28.3710  -25.2950   20.5740 C   0  0  0  0  0  2  0  0  0  0  0  0
  -28.4490  -26.7120   20.2880 O   0  0  0  0  0  0  0  0  0  0  0  0
  -24.5860  -31.9020   23.2910 C   0  0  0  0  0  0  0  0  0  0  0  0
  -27.2710  -27.4360   20.2760 C   0  0  0  0  0  0  0  0  0  0  0  0
  -23.4020  -30.4870   21.6440 C   0  0  0  0  0  3  0  0  0  0  0  0
  -24.8750  -28.9460   20.2460 C   0  0  0  0  0  0  0  0  0  0  0  0
  -25.9290  -30.8520   21.4710 C   0  0  0  0  0  2  0  0  0  0  0  0
  -26.0270  -29.4760   20.8400 C   0  0  0  0  0  0  0  0  0  0  0  0
  -27.2300  -28.7310   20.8460 C   0  0  0  0  0  3  0  0  0  0  0  0
  -26.1010  -26.9250   19.6700 C   0  0  0  0  0  3  0  0  0  0  0  0
  -24.9080  -27.6710   19.6560 C   0  0  0  0  0  3  0  0  0  0  0  0
  -23.6280  -29.8010   20.2720 C   0  0  0  0  0  2  0  0  0  0  0  0
  -24.6570  -31.0960   22.1940 N   0  0  0  0  0  0  0  0  0  0  0  0
  -23.4980  -32.1730   23.8180 O   0  0  0  0  0  0  0  0  0  0  0  0
  -22.7440  -29.4690   22.6030 C   0  0  0  0  0  0  0  0  0  0  0  0
  -21.4200  -29.2870   22.4680 N   0  0  0  0  0  0  0  0  0  0  0  0
  -23.4220  -28.8440   23.4240 O   0  0  0  0  0  0  0  0  0  0  0  0
  -20.9350  -29.8430   21.7780 H   0  0  0  0  0  0  0  0  0  0  0  0
  -18.0400  -28.1030   22.9490 C   0  0  0  0  0  0  0  0  0  0  0  0
  -20.5970  -28.3520   23.2340 C   0  0  0  0  0  3  0  0  0  0  0  0
  -20.6970  -26.9210   22.6580 C   0  0  0  0  0  2  0  0  0  0  0  0
  -19.5990  -26.6030   21.6380 C   0  0  0  0  0  2  0  0  0  0  0  0
  -18.2150  -26.7530   22.2750 C   0  0  0  0  0  2  0  0  0  0  0  0
  -19.1590  -28.8610   23.3840 C   0  0  0  0  0  0  0  0  0  0  0  0
  -18.9430  -30.1260   23.9730 C   0  0  0  0  0  3  0  0  0  0  0  0
  -17.6390  -30.6340   24.1300 C   0  0  0  0  0  3  0  0  0  0  0  0
  -16.5340  -29.8730   23.7110 C   0  0  0  0  0  3  0  0  0  0  0  0
  -16.7350  -28.6100   23.1270 C   0  0  0  0  0  3  0  0  0  0  0  0
  -25.8620  -32.5400   23.9220 C   0  0  0  0  0  3  0  0  0  0  0  0
  -26.3640  -31.7840   25.2130 C   0  0  1  0  0  0  0  0  0  0  0  0
  -25.2560  -31.5570   26.2680 C   0  0  0  0  0  1  0  0  0  0  0  0
  -26.9530  -30.4030   24.8420 C   0  0  0  0  0  1  0  0  0  0  0  0
  -27.5040  -32.5860   25.8810 C   0  0  0  0  0  1  0  0  0  0  0  0
  -25.5510  -33.9420   24.2290 N   0  0  0  0  0  0  0  0  0  0  0  0
  -25.8930  -34.9840   23.4570 C   0  0  0  0  0  0  0  0  0  0  0  0
  -26.5750  -34.8650   22.4350 O   0  0  0  0  0  0  0  0  0  0  0  0
  -24.9450  -34.1080   25.0190 H   0  0  0  0  0  0  0  0  0  0  0  0
  -24.1680  -36.7700   23.0530 C   0  0  0  0  0  1  0  0  0  0  0  0
  -25.3980  -36.3780   23.8880 C   0  0  0  0  0  3  0  0  0  0  0  0
  -27.5210  -37.2740   24.7360 C   0  0  0  0  0  1  0  0  0  0  0  0
  -26.4320  -37.4300   23.7750 N   0  0  0  0  0  0  0  0  0  0  0  0
  -26.0240  -38.3520   23.9050 H   0  0  0  0  0  0  0  0  0  0  0  0
  2  1  1  0
  3  6  2  0
  3  5  1  0
  4  1  2  0
  5  2  2  0
  6  4  1  0
  7  6  1  0
  8 21  1  0
  9 14  1  0
 10 11  1  0
 10  9  1  0
 12 11  1  0
 12 25  1  0
 12 13  1  0
 14  8  1  0
 14 13  1  0
 15  8  2  0
 16 18  1  0
 17 20  1  0
 19 17  1  0
 19 21  1  0
 20  4  1  0
 20 16  1  0
 21 18  1  0
 22 23  2  0
 23 42  1  0
 24 23  1  0
 24 27  1  0
 25 26  1  0
 25 22  1  0
 26 24  2  0
 27 28  1  0
 28 29  2  0
 30 33  1  0
 30 29  1  0
 31 30  2  0
 32 31  1  0
 32 27  2  0
 33 34  1  0
 34 35  1  0
 35 36  2  0
 37 36  1  0
 37 41  1  0
 38 37  2  0
 39 34  2  0
 39 38  1  0
 40 39  1  0
 42 43  1  0
 43 46  1  0
 43 45  1  0
 44 42  2  0
 47 48  1  0
 47 22  1  0
 49 47  1  0
 50  5  1  0
 50 55  1  0
 51 50  1  0
 52 51  1  0
 53 51  1  0
 54 51  1  0
 56 55  1  0
 57 68  2  0
 58 56  1  0
 58 63  1  0
 59 67  1  0
 59 69  1  0
 60 66  1  0
 60 62  1  0
 61 67  1  0
 62 63  2  0
 62 61  1  0
 64 58  2  0
 65 64  1  0
 65 60  2  0
 66 59  1  0
 67 57  1  0
 69 71  2  0
 70 69  1  0
 72 70  1  0
 73 82  2  0
 73 78  1  0
 74 70  1  0
 74 78  1  0
 75 74  1  0
 76 77  1  0
 76 75  1  0
 77 73  1  0
 78 79  2  0
 79 80  1  0
 81 80  2  0
 82 81  1  0
 83 57  1  0
 83 88  1  0
 83 84  1  0
 84 87  1  1
 84 85  1  0
 86 84  1  0
 88 91  1  0
 89 93  1  0
 89 88  1  0
 90 89  2  0
 93 92  1  0
 95 93  1  0
 95 96  1  0
 95 94  1  0
M  ISO  4   8 100  21 100  55 101  56 101
M  END
>  <TORSDO>  (30) 
F 19

>  <SCORE>  (30) 
-14.469

>  <name>  (30) 
31

>  <ligand_id>  (30) 
31

>  <original_smiles>  (30) 
[H]c1c([H])c([H])c2c(c1[H])C([H])([H])C([H])([H])C([H])([H])C2([H])N([H])C(=O)C1([H])N(C(=O)C([H])(N([H])C(=O)C([H])(N([H])C([H])([H])[H])C([H])([H])[H])C(C([H])([H])[H])(C([H])([H])[H])C([H])([H])[H])C([H])([H])c2c([H])c(OC([H])([H])C([H])(c3c([H])c([H])c(C4([H])C([H])([H])C([H])([H])N(C(=O)N5C([H])([H])C([H])([H])C([H])([H])C([H])(n6nc(-c7c([H])c([H])c(Oc8c([H])c([H])c(F)c([H])c8F)c([H])c7[H])c(C(=O)N([H])[H])c6N([H])[H])C5([H])[H])C([H])([H])C4([H])[H])c(C([H])([H])[H])c3[H])[N+]([H])([H])[H])c([H])c([H])c2C1([H])[H]

>  <smiles>  (30) 
[H]c1c([H])c([H])c2c(c1[H])C([H])([H])C([H])([H])C([H])([H])C2([H])N([H])C(=O)C1([H])N(C(=O)C([H])(N([H])C(=O)C([H])(N([H])C([H])([H])[H])C([H])([H])[H])C(C([H])([H])[H])(C([H])([H])[H])C([H])([H])[H])C([H])([H])c2c([H])c(OC([H])([H])C([H])(c3c([H])c([H])c(C4([H])C([H])([H])C([H])([H])N(C(=O)N5C([H])([H])C([H])([H])C([H])([H])C([H])(n6nc(-c7c([H])c([H])c(Oc8c([H])c([H])c(F)c([H])c8F)c([H])c7[H])c(C(=O)N([H])[H])c6N([H])[H])C5([H])[H])C([H])([H])C4([H])[H])c(C([H])([H])[H])c3[H])[N+]([H])([H])[H])c([H])c([H])c2C1([H])[H]

$$$$
32:0:0
     RDKit          3D

 96104  0  0  1  0  0  0  0  0999 V2000
  -31.6710  -21.7250   20.7880 C   0  0  0  0  0  2  0  0  0  0  0  0
  -29.3330  -21.0190   20.1180 C   0  0  0  0  0  2  0  0  0  0  0  0
  -31.4850  -22.9780   19.9160 C   0  0  0  0  0  2  0  0  0  0  0  0
  -29.2240  -22.3550   19.3420 C   0  0  0  0  0  2  0  0  0  0  0  0
  -30.7930  -20.5340   20.3300 C   0  0  0  0  0  3  0  0  0  0  0  0
  -30.0650  -23.4060   19.9700 N   0  0  2  0  0  4  0  0  0  0  0  0
  -29.8330  -23.4260   20.9510 H   0  0  0  0  0  0  0  0  0  0  0  0
  -29.8220  -24.7980   19.4800 C   0  0  0  0  0  2  0  0  0  0  0  0
  -28.4470  -25.3660   19.9290 C   0  0  0  0  0  2  0  0  0  0  0  0
  -28.4510  -26.7940   20.1180 O   0  0  0  0  0  0  0  0  0  0  0  0
  -24.5770  -31.9540   23.2010 C   0  0  0  0  0  0  0  0  0  0  0  0
  -27.2390  -27.4690   20.1600 C   0  0  0  0  0  0  0  0  0  0  0  0
  -23.3690  -30.5190   21.5930 C   0  0  0  0  0  3  0  0  0  0  0  0
  -24.8190  -28.9560   20.1990 C   0  0  0  0  0  0  0  0  0  0  0  0
  -25.8920  -30.8840   21.3670 C   0  0  0  0  0  2  0  0  0  0  0  0
  -25.9820  -29.5010   20.7520 C   0  0  0  0  0  0  0  0  0  0  0  0
  -27.1920  -28.7680   20.7260 C   0  0  0  0  0  3  0  0  0  0  0  0
  -26.0390  -26.9300   19.6350 C   0  0  0  0  0  3  0  0  0  0  0  0
  -24.8400  -27.6640   19.6500 C   0  0  0  0  0  3  0  0  0  0  0  0
  -23.5700  -29.8090   20.2290 C   0  0  0  0  0  2  0  0  0  0  0  0
  -24.6320  -31.1340   22.1110 N   0  0  0  0  0  0  0  0  0  0  0  0
  -23.4970  -32.2310   23.7420 O   0  0  0  0  0  0  0  0  0  0  0  0
  -22.7270  -29.5140   22.5760 C   0  0  0  0  0  0  0  0  0  0  0  0
  -21.4130  -29.2840   22.4240 N   0  0  0  0  0  0  0  0  0  0  0  0
  -23.4110  -28.9380   23.4280 O   0  0  0  0  0  0  0  0  0  0  0  0
  -20.9230  -29.7980   21.7050 H   0  0  0  0  0  0  0  0  0  0  0  0
  -18.0810  -27.9550   22.8430 C   0  0  0  0  0  0  0  0  0  0  0  0
  -20.6090  -28.3480   23.2070 C   0  0  0  0  0  3  0  0  0  0  0  0
  -20.8040  -26.8980   22.7100 C   0  0  0  0  0  2  0  0  0  0  0  0
  -19.7640  -26.4710   21.6690 C   0  0  0  0  0  2  0  0  0  0  0  0
  -18.3490  -26.5830   22.2480 C   0  0  0  0  0  2  0  0  0  0  0  0
  -19.1430  -28.7900   23.2790 C   0  0  0  0  0  0  0  0  0  0  0  0
  -18.8430  -30.0700   23.7920 C   0  0  0  0  0  3  0  0  0  0  0  0
  -17.5110  -30.5170   23.8780 C   0  0  0  0  0  3  0  0  0  0  0  0
  -16.4620  -29.6800   23.4600 C   0  0  0  0  0  3  0  0  0  0  0  0
  -16.7470  -28.4020   22.9460 C   0  0  0  0  0  3  0  0  0  0  0  0
  -25.8620  -32.6010   23.8030 C   0  0  0  0  0  3  0  0  0  0  0  0
  -25.5360  -33.9890   24.1590 N   0  0  0  0  0  0  0  0  0  0  0  0
  -25.8410  -35.0590   23.4120 C   0  0  0  0  0  0  0  0  0  0  0  0
  -26.5040  -34.9830   22.3720 O   0  0  0  0  0  0  0  0  0  0  0  0
  -24.9530  -34.1210   24.9740 H   0  0  0  0  0  0  0  0  0  0  0  0
  -24.0730  -36.8160   23.1110 C   0  0  0  0  0  1  0  0  0  0  0  0
  -25.3360  -36.4320   23.8960 C   0  0  0  0  0  3  0  0  0  0  0  0
  -27.4680  -37.3480   24.6980 C   0  0  0  0  0  1  0  0  0  0  0  0
  -26.3460  -37.5050   23.7770 N   0  0  0  0  0  0  0  0  0  0  0  0
  -25.9250  -38.4160   23.9410 H   0  0  0  0  0  0  0  0  0  0  0  0
  -26.4230  -31.8210   25.0550 C   0  0  1  0  0  0  0  0  0  0  0  0
  -25.3530  -31.5230   26.1320 C   0  0  0  0  0  1  0  0  0  0  0  0
  -27.0420  -30.4740   24.6170 C   0  0  0  0  0  1  0  0  0  0  0  0
  -27.5580  -32.6370   25.7180 C   0  0  0  0  0  1  0  0  0  0  0  0
  -30.9440  -19.3470   21.3360 C   0  0  0  0  0  3  0  0  0  0  0  0
  -31.5660  -20.2200   23.6350 C   0  0  0  0  0  0  0  0  0  0  0  0
  -33.0380  -20.3860   23.2790 C   0  0  0  0  0  1  0  0  0  0  0  0
  -30.6970  -19.7850   22.7140 N   0  0  0  0  0  0  0  0  0  0  0  0
  -31.1840  -20.4880   24.7720 O   0  0  0  0  0  0  0  0  0  0  0  0
  -29.7440  -19.6970   23.0370 H   0  0  0  0  0  0  0  0  0  0  0  0
  -30.0930  -18.0820   21.0620 C   0  0  0  0  0  2  0  0  0  0  0  0
  -30.6690  -16.8710   21.8420 C   0  0  0  0  0  2  0  0  0  0  0  0
  -30.8740  -14.6780   20.6500 C   0  0  0  0  0  0  0  0  0  0  0  0
  -30.6140  -12.5960   19.3550 C   0  0  0  0  0  2  0  0  0  0  0  0
  -29.6930  -12.8640   18.1480 C   0  0  0  0  0  2  0  0  0  0  0  0
  -28.2100  -12.7050   18.5390 C   0  0  0  0  0  2  0  0  0  0  0  0
  -27.8490  -13.5000   19.8210 C   0  0  0  0  0  3  0  0  0  0  0  0
  -28.8680  -13.1950   20.9390 C   0  0  0  0  0  2  0  0  0  0  0  0
  -30.2130  -13.5130   20.4290 N   0  0  0  0  0  0  0  0  0  0  0  0
  -31.9750  -14.9410   20.1570 O   0  0  0  0  0  0  0  0  0  0  0  0
  -30.1960  -15.5640   21.3950 N   0  0  0  0  0  0  0  0  0  0  0  0
  -29.3030  -15.2500   21.7510 H   0  0  0  0  0  0  0  0  0  0  0  0
  -25.4230  -14.1100   20.4380 C   0  0  0  0  0  0  0  0  0  0  0  0
  -24.3520  -13.3370   20.7870 C   0  0  0  0  0  0  0  0  0  0  0  0
  -24.8220  -11.9880   20.7850 C   0  0  0  0  0  0  0  0  0  0  0  0
  -26.4820  -13.2320   20.2550 N   0  0  0  0  0  0  0  0  0  0  0  0
  -26.1220  -11.9520   20.5230 N   0  0  0  0  0  0  0  0  0  0  0  0
  -24.1050  -10.7240   20.9710 C   0  0  0  0  0  0  0  0  0  0  0  0
  -24.5030   -9.7870   21.9500 C   0  0  0  0  0  3  0  0  0  0  0  0
  -23.7860   -8.5840   22.1210 C   0  0  0  0  0  3  0  0  0  0  0  0
  -22.6560   -8.3100   21.3130 C   0  0  0  0  0  0  0  0  0  0  0  0
  -22.2810   -9.2350   20.3240 C   0  0  0  0  0  3  0  0  0  0  0  0
  -22.9980  -10.4300   20.1520 C   0  0  0  0  0  3  0  0  0  0  0  0
  -21.9140   -7.1570   21.3910 O   0  0  0  0  0  0  0  0  0  0  0  0
  -21.7870   -6.4580   22.5660 C   0  0  0  0  0  0  0  0  0  0  0  0
  -21.2440   -7.0480   23.7280 C   0  0  0  0  0  3  0  0  0  0  0  0
  -21.0610   -6.2730   24.8910 C   0  0  0  0  0  3  0  0  0  0  0  0
  -21.4190   -4.9110   24.8930 C   0  0  0  0  0  0  0  0  0  0  0  0
  -21.9580   -4.3240   23.7360 C   0  0  0  0  0  3  0  0  0  0  0  0
  -22.1390   -5.0950   22.5740 C   0  0  0  0  0  0  0  0  0  0  0  0
  -22.6360   -4.5150   21.4540 F   0  0  0  0  0  0  0  0  0  0  0  0
  -21.2380   -4.1650   26.0070 F   0  0  0  0  0  0  0  0  0  0  0  0
  -22.9410  -13.8040   21.0080 C   0  0  0  0  0  0  0  0  0  0  0  0
  -22.1980  -13.1210   21.8690 N   0  0  0  0  0  0  0  0  0  0  0  0
  -22.5080  -14.8120   20.4500 O   0  0  0  0  0  0  0  0  0  0  0  0
  -22.5610  -12.3100   22.3450 H   0  0  0  0  0  0  0  0  0  0  0  0
  -21.2510  -13.4180   22.0590 H   0  0  0  0  0  0  0  0  0  0  0  0
  -25.5820  -15.4810   20.2460 N   0  0  0  0  0  0  0  0  0  0  0  0
  -24.8080  -16.1310   20.3360 H   0  0  0  0  0  0  0  0  0  0  0  0
  -26.4420  -15.9270   19.9480 H   0  0  0  0  0  0  0  0  0  0  0  0
  2  5  1  0
  3  6  1  0
  3  1  1  0
  4  6  1  0
  4  2  1  0
  5  1  1  0
  5 51  1  0
  6  7  1  1
  8  9  1  0
  8  6  1  0
  9 10  1  0
 10 12  1  0
 11 22  2  0
 12 17  1  0
 13 21  1  0
 13 23  1  0
 14 20  1  0
 14 16  1  0
 15 21  1  0
 16 15  1  0
 17 16  2  0
 18 19  1  0
 18 12  2  0
 19 14  2  0
 20 13  1  0
 21 11  1  0
 23 25  2  0
 24 23  1  0
 26 24  1  0
 27 36  2  0
 27 32  1  0
 28 24  1  0
 28 32  1  0
 29 28  1  0
 30 31  1  0
 30 29  1  0
 31 27  1  0
 32 33  2  0
 33 34  1  0
 35 34  2  0
 36 35  1  0
 37 11  1  0
 37 38  1  0
 37 47  1  0
 38 41  1  0
 39 43  1  0
 39 38  1  0
 40 39  2  0
 43 42  1  0
 45 43  1  0
 45 46  1  0
 45 44  1  0
 47 50  1  1
 47 48  1  0
 49 47  1  0
 51 57  1  0
 51 54  1  0
 52 55  2  0
 53 52  1  0
 54 56  1  0
 54 52  1  0
 57 58  1  0
 59 67  1  0
 60 65  1  0
 61 62  1  0
 61 60  1  0
 63 62  1  0
 63 72  1  0
 63 64  1  0
 65 59  1  0
 65 64  1  0
 66 59  2  0
 67 68  1  0
 67 58  1  0
 69 70  2  0
 70 89  1  0
 71 70  1  0
 71 74  1  0
 72 69  1  0
 72 73  1  0
 73 71  2  0
 74 75  1  0
 75 76  2  0
 77 80  1  0
 77 76  1  0
 78 77  2  0
 79 78  1  0
 79 74  2  0
 80 81  1  0
 81 86  2  0
 81 82  1  0
 82 83  2  0
 83 84  1  0
 84 88  1  0
 85 84  2  0
 86 85  1  0
 87 86  1  0
 89 90  1  0
 90 93  1  0
 90 92  1  0
 91 89  2  0
 94 95  1  0
 94 69  1  0
 96 94  1  0
M  ISO  4   9 101  10 101  59 100  67 100
M  END
>  <TORSDO>  (31) 
F 22

>  <SCORE>  (31) 
-13.610

>  <name>  (31) 
32

>  <ligand_id>  (31) 
32

>  <original_smiles>  (31) 
[H]c1c([H])c([H])c2c(c1[H])C([H])([H])C([H])([H])C([H])([H])C2([H])N([H])C(=O)C1([H])N(C(=O)C([H])(N([H])C(=O)C([H])(N([H])C([H])([H])[H])C([H])([H])[H])C(C([H])([H])[H])(C([H])([H])[H])C([H])([H])[H])C([H])([H])c2c([H])c(OC([H])([H])C([H])([H])[N+]3([H])C([H])([H])C([H])([H])C([H])(C([H])(N([H])C(=O)C([H])([H])[H])C([H])([H])C([H])([H])N([H])C(=O)N4C([H])([H])C([H])([H])C([H])([H])C([H])(n5nc(-c6c([H])c([H])c(Oc7c([H])c([H])c(F)c([H])c7F)c([H])c6[H])c(C(=O)N([H])[H])c5N([H])[H])C4([H])[H])C([H])([H])C3([H])[H])c([H])c([H])c2C1([H])[H]

>  <smiles>  (31) 
[H]c1c([H])c([H])c2c(c1[H])C([H])([H])C([H])([H])C([H])([H])C2([H])N([H])C(=O)C1([H])N(C(=O)C([H])(N([H])C(=O)C([H])(N([H])C([H])([H])[H])C([H])([H])[H])C(C([H])([H])[H])(C([H])([H])[H])C([H])([H])[H])C([H])([H])c2c([H])c(OC([H])([H])C([H])([H])[N+]3([H])C([H])([H])C([H])([H])C([H])(C([H])(N([H])C(=O)C([H])([H])[H])C([H])([H])C([H])([H])N([H])C(=O)N4C([H])([H])C([H])([H])C([H])([H])C([H])(n5nc(-c6c([H])c([H])c(Oc7c([H])c([H])c(F)c([H])c7F)c([H])c6[H])c(C(=O)N([H])[H])c5N([H])[H])C4([H])[H])C([H])([H])C3([H])[H])c([H])c([H])c2C1([H])[H]

$$$$
33:0:0
     RDKit          3D

105101  0  0  1  0  0  0  0  0999 V2000
  -27.6110  -25.7690   19.9400 C   0  0  0  0  0 15  0  0  0  0  0  0
  -25.6150  -25.5780   23.8210 C   0  0  0  0  0  0  0  0  0  0  0  0
  -25.7230  -25.9700   22.4850 N   0  0  0  0  0  2  0  0  0  0  0  0
  -24.5290  -25.3210   24.3320 O   0  0  0  0  0  0  0  0  0  0  0  0
  -24.8130  -26.2240   22.1350 H   0  0  0  0  0  0  0  0  0  0  0  0
  -26.8510  -25.4990   24.5830 C   0  0  0  0  0  3  0  0  0  0  0  0
  -27.8850  -24.8040   24.0740 C   0  0  0  0  0  3  0  0  0  0  0  0
  -29.3060  -24.9630   24.5620 C   0  0  0  0  0  2  0  0  0  0  0  0
  -29.9850  -26.0450   23.7940 N   0  0  0  0  0  4  0  0  0  0  0  0
  -30.9200  -25.7090   23.6400 H   0  0  0  0  0  0  0  0  0  0  0  0
  -29.5740  -26.1420   22.8810 H   0  0  0  0  0  0  0  0  0  0  0  0
  -30.0950  -27.4720   24.5370 C   0  0  0  0  0  2  0  0  0  0  0  0
  -29.5660  -28.4940   23.7100 O   0  0  0  0  0  0  0  0  0  0  0  0
  -23.6430  -28.1270   27.8550 C   0  0  0  0  0  0  0  0  0  0  0  0
  -28.2300  -28.3650   23.5160 C   0  0  0  0  0  2  0  0  0  0  0  0
  -23.0680  -29.2970   25.7080 C   0  0  0  0  0  3  0  0  0  0  0  0
  -25.3390  -30.3150   24.2180 C   0  0  0  0  0  3  0  0  0  0  0  0
  -25.4040  -28.9290   26.4830 C   0  0  0  0  0  2  0  0  0  0  0  0
  -26.1220  -29.5530   25.3260 C   0  0  0  0  0  3  0  0  0  0  0  0
  -27.5630  -28.8130   25.0850 C   0  0  0  0  0  2  0  0  0  0  0  0
  -27.2570  -29.2020   22.0110 C   0  0  0  0  0  2  0  0  0  0  0  0
  -25.9210  -30.2910   22.6390 C   0  0  0  0  0  2  0  0  0  0  0  0
  -23.7720  -30.3940   24.7000 C   0  0  0  0  0  2  0  0  0  0  0  0
  -23.9760  -28.8940   26.7850 N   0  0  0  0  0  0  0  0  0  0  0  0
  -22.5810  -27.4650   27.9200 O   0  0  0  0  0  0  0  0  0  0  0  0
  -22.6270  -27.9510   25.1060 C   0  0  0  0  0  0  0  0  0  0  0  0
  -21.6300  -27.8980   24.2250 N   0  0  0  0  0  0  0  0  0  0  0  0
  -23.1730  -26.9150   25.5000 O   0  0  0  0  0  0  0  0  0  0  0  0
  -21.1470  -28.7410   23.9420 H   0  0  0  0  0  0  0  0  0  0  0  0
  -19.9330  -26.5550   21.3670 C   0  0  0  0  0  0  0  0  0  0  0  0
  -21.3570  -26.6650   23.4970 C   0  0  0  0  0  3  0  0  0  0  0  0
  -22.5550  -26.3370   22.5770 C   0  0  0  0  0  2  0  0  0  0  0  0
  -22.4230  -26.9570   21.1930 C   0  0  0  0  0  2  0  0  0  0  0  0
  -21.1760  -26.4130   20.5030 C   0  0  0  0  0  2  0  0  0  0  0  0
  -20.0170  -26.6920   22.7750 C   0  0  0  0  0  0  0  0  0  0  0  0
  -18.8360  -26.8510   23.5310 C   0  0  0  0  0  3  0  0  0  0  0  0
  -17.5810  -26.8730   22.8940 C   0  0  0  0  0  3  0  0  0  0  0  0
  -17.5000  -26.7230   21.4990 C   0  0  0  0  0  3  0  0  0  0  0  0
  -18.6720  -26.5610   20.7400 C   0  0  0  0  0  3  0  0  0  0  0  0
  -24.5240  -28.4050   29.1910 C   0  0  0  0  0  2  0  0  0  0  0  0
  -25.5850  -26.9420   29.0610 C   0  0  1  0  0  0  0  0  0  0  0  0
  -25.0240  -25.6790   28.2890 C   0  0  0  0  0  1  0  0  0  0  0  0
  -26.8360  -27.3400   28.2360 C   0  0  0  0  0  1  0  0  0  0  0  0
  -26.3410  -26.0920   30.2090 C   0  0  0  0  0  1  0  0  0  0  0  0
  -23.9290  -29.5760   30.9700 N   0  0  0  0  0  2  0  0  0  0  0  0
  -23.1660  -29.5350   32.1910 C   0  0  0  0  0  0  0  0  0  0  0  0
  -23.3430  -30.5400   32.7810 O   0  0  0  0  0  0  0  0  0  0  0  0
  -24.4020  -30.4710   30.9240 H   0  0  0  0  0  0  0  0  0  0  0  0
  -20.5980  -28.7750   32.8490 C   0  0  0  0  0  1  0  0  0  0  0  0
  -22.1170  -28.4760   32.9030 C   0  0  0  0  0  3  0  0  0  0  0  0
  -23.7420  -27.7100   34.6970 C   0  0  0  0  0  1  0  0  0  0  0  0
  -22.4410  -28.2530   34.3280 N   0  0  0  0  0  0  0  0  0  0  0  0
  -21.6870  -27.8140   34.8530 H   0  0  0  0  0  0  0  0  0  0  0  0
  -28.2930  -27.9060   19.8170 C   0  0  0  0  0 15  0  0  0  0  0  0
  -28.3120  -29.7780   20.8030 C   0  0  0  0  0  3  0  0  0  0  0  0
  -31.5430  -31.7690   24.3140 C   0  0  0  0  0 15  0  0  0  0  0  0
  -27.9810  -32.4840   25.3890 C   0  0  0  0  0 15  0  0  0  0  0  0
  -30.6490  -31.0480   22.5210 C   0  0  0  0  0  1  0  0  0  0  0  0
  -27.6210  -31.7260   23.2450 C   0  0  0  0  0 15  0  0  0  0  0  0
  -30.1800  -32.3580   26.0380 C   0  0  0  0  0  1  0  0  0  0  0  0
  -28.8530  -30.7640   22.0750 N   0  0  0  0  0  2  0  0  0  0  0  0
  -27.4140  -30.4160   20.2500 O   0  0  0  0  0  1  0  0  0  0  0  0
  -30.8470  -33.0090   27.2030 N   0  0  0  0  0  4  0  0  0  0  0  0
  -31.0630  -33.9700   26.9860 H   0  0  0  0  0  0  0  0  0  0  0  0
  -31.7000  -32.5340   27.4440 H   0  0  0  0  0  0  0  0  0  0  0  0
  -30.2440  -32.9940   28.0080 H   0  0  0  0  0  0  0  0  0  0  0  0
  -28.3470  -22.6840   19.6720 C   0  0  0  0  0 15  0  0  0  0  0  0
  -29.2530  -17.8170   19.7460 C   0  0  0  0  0  2  0  0  0  0  0  0
  -29.7910  -14.5940   19.0360 C   0  0  0  0  0  2  0  0  0  0  0  0
  -29.2150  -13.3150   18.1400 C   0  0  0  0  0  2  0  0  0  0  0  0
  -28.1330  -12.4490   18.7900 C   0  0  0  0  0  2  0  0  0  0  0  0
  -27.3750  -13.4410   19.6660 C   0  0  0  0  0  3  0  0  0  0  0  0
  -28.2420  -14.6500   20.4640 C   0  0  0  0  0  2  0  0  0  0  0  0
  -28.9400  -15.9750   19.6720 N   0  0  0  0  0  0  0  0  0  0  0  0
  -30.4750  -17.3090   19.6510 O   0  0  0  0  0  1  0  0  0  0  0  0
  -28.5930  -19.9430   19.7660 N   0  0  0  0  0  1  0  0  0  0  0  0
  -27.6100  -19.7120   19.8400 H   0  0  0  0  0  0  0  0  0  0  0  0
  -25.0470  -13.5650   20.5970 C   0  0  0  0  0  0  0  0  0  0  0  0
  -24.0600  -12.7130   20.9930 C   0  0  0  0  0  0  0  0  0  0  0  0
  -24.5910  -11.3890   20.8900 C   0  0  0  0  0  0  0  0  0  0  0  0
  -26.1640  -12.8240   20.3080 N   0  0  0  0  0  0  0  0  0  0  0  0
  -25.8880  -11.4710   20.4970 N   0  0  0  0  0  0  0  0  0  0  0  0
  -23.8730  -10.0960   21.0970 C   0  0  0  0  0  0  0  0  0  0  0  0
  -24.2840   -9.1410   22.0570 C   0  0  0  0  0  3  0  0  0  0  0  0
  -23.5420   -7.9530   22.2750 C   0  0  0  0  0  3  0  0  0  0  0  0
  -22.3620   -7.6980   21.5370 C   0  0  0  0  0  0  0  0  0  0  0  0
  -21.9540   -8.6410   20.5750 C   0  0  0  0  0  3  0  0  0  0  0  0
  -22.6990   -9.8180   20.3580 C   0  0  0  0  0  3  0  0  0  0  0  0
  -21.6000   -6.5540   21.6550 O   0  0  0  0  0  0  0  0  0  0  0  0
  -21.5030   -5.8610   22.8370 C   0  0  0  0  0  0  0  0  0  0  0  0
  -20.9770   -6.4550   24.0060 C   0  0  0  0  0  3  0  0  0  0  0  0
  -20.8270   -5.6900   25.1810 C   0  0  0  0  0  3  0  0  0  0  0  0
  -21.1970   -4.3300   25.1900 C   0  0  0  0  0  0  0  0  0  0  0  0
  -21.7130   -3.7360   24.0260 C   0  0  0  0  0  3  0  0  0  0  0  0
  -21.8610   -4.4960   22.8520 C   0  0  0  0  0  0  0  0  0  0  0  0
  -22.3360   -3.9070   21.7280 F   0  0  0  0  0  0  0  0  0  0  0  0
  -21.0520   -3.5950   26.3170 F   0  0  0  0  0  0  0  0  0  0  0  0
  -22.6640  -13.1370   21.3440 C   0  0  0  0  0  0  0  0  0  0  0  0
  -22.0110  -12.4310   22.2550 N   0  0  0  0  0  0  0  0  0  0  0  0
  -22.1700  -14.1530   20.8540 O   0  0  0  0  0  0  0  0  0  0  0  0
  -22.4260  -11.6110   22.6750 H   0  0  0  0  0  0  0  0  0  0  0  0
  -21.0820  -12.7110   22.5340 H   0  0  0  0  0  0  0  0  0  0  0  0
  -25.0780  -14.9390   20.4100 N   0  0  0  0  0  0  0  0  0  0  0  0
  -24.2600  -15.5230   20.5480 H   0  0  0  0  0  0  0  0  0  0  0  0
  -25.8760  -15.4420   20.0440 H   0  0  0  0  0  0  0  0  0  0  0  0
  2  4  2  0
  2  6  1  0
  3  2  1  0
  5  3  1  0
  7  8  1  0
  7  6  2  0
  9 12  1  0
  9  8  1  0
 10  9  1  0
 11  9  1  0
 13 12  1  0
 14 25  2  0
 14 40  1  0
 15 13  1  0
 15 20  1  0
 16 26  1  0
 16 24  1  0
 17 22  1  0
 17 23  1  0
 17 19  1  0
 18 24  1  0
 19 20  1  0
 19 18  1  0
 21 22  1  0
 23 16  1  0
 24 14  1  0
 26 28  2  0
 27 26  1  0
 29 27  1  0
 30 35  1  0
 31 27  1  0
 32 31  1  0
 33 32  1  0
 34 33  1  0
 34 30  1  0
 35 31  1  0
 35 36  2  0
 37 36  1  0
 38 37  2  0
 39 30  2  0
 39 38  1  0
 41 40  1  0
 41 44  1  1
 42 41  1  0
 43 41  1  0
 45 46  1  0
 46 47  2  0
 46 50  1  0
 48 45  1  0
 50 49  1  0
 50 52  1  0
 52 51  1  0
 52 53  1  0
 55 62  1  0
 55 21  1  0
 55 61  1  0
 60 63  1  0
 61 58  1  0
 63 65  1  0
 63 66  1  0
 64 63  1  0
 69 74  1  0
 70 71  1  0
 70 69  1  0
 72 71  1  0
 72 81  1  0
 72 73  1  0
 74 68  1  0
 74 73  1  0
 75 68  1  0
 76 77  1  0
 78 79  2  0
 79 98  1  0
 80 79  1  0
 80 83  1  0
 81 82  1  0
 81 78  1  0
 82 80  2  0
 83 84  1  0
 84 85  2  0
 86 89  1  0
 86 85  1  0
 87 86  2  0
 88 87  1  0
 88 83  2  0
 89 90  1  0
 90 95  2  0
 90 91  1  0
 91 92  2  0
 92 93  1  0
 93 97  1  0
 94 93  2  0
 95 94  1  0
 96 95  1  0
 98 99  1  0
 99102  1  0
 99101  1  0
100 98  2  0
103104  1  0
103 78  1  0
105103  1  0
M  ISO  4  12 101  13 101  68 100  76 100
M  END
>  <TORSDO>  (32) 
F 25

>  <SCORE>  (32) 
0.678

>  <name>  (32) 
33

>  <ligand_id>  (32) 
33

>  <original_smiles>  (32) 
[H]C(C(=O)N([H])C([H])(C([H])([H])C(=O)N1C([H])([H])C([H])([H])C([H])([N+]([H])([H])[H])C([H])([H])C1([H])[H])C([H])([H])N([H])C(=O)N1C([H])([H])C([H])([H])C([H])([H])C([H])(n2nc(-c3c([H])c([H])c(Oc4c([H])c([H])c(F)c([H])c4F)c([H])c3[H])c(C(=O)N([H])[H])c2N([H])[H])C1([H])[H])=C([H])C([H])([H])[N+]([H])([H])C([H])([H])Oc1c([H])c([H])c2c(c1[H])C([H])([H])N(C(=O)C([H])(N([H])C(=O)C([H])(N([H])C([H])([H])[H])C([H])([H])[H])C(C([H])([H])[H])(C([H])([H])[H])C([H])([H])[H])C([H])(C(=O)N([H])C1([H])c3c([H])c([H])c([H])c([H])c3C([H])([H])C([H])([H])C1([H])[H])C2([H])[H]

>  <smiles>  (32) 
[H]C(C(=O)N([H])C([H])(C([H])([H])C(=O)N1C([H])([H])C([H])([H])C([H])([N+]([H])([H])[H])C([H])([H])C1([H])[H])C([H])([H])N([H])C(=O)N1C([H])([H])C([H])([H])C([H])([H])C([H])(n2nc(-c3c([H])c([H])c(Oc4c([H])c([H])c(F)c([H])c4F)c([H])c3[H])c(C(=O)N([H])[H])c2N([H])[H])C1([H])[H])=C([H])C([H])([H])[N+]([H])([H])C([H])([H])Oc1c([H])c([H])c2c(c1[H])C([H])([H])N(C(=O)C([H])(N([H])C(=O)C([H])(N([H])C([H])([H])[H])C([H])([H])[H])C(C([H])([H])[H])(C([H])([H])[H])C([H])([H])[H])C([H])(C(=O)N([H])C1([H])c3c([H])c([H])c([H])c([H])c3C([H])([H])C([H])([H])C1([H])[H])C2([H])[H]

$$$$
34:0:0
     RDKit          3D

 92101  0  0  1  0  0  0  0  0999 V2000
  -28.3810  -21.5480   21.7760 C   0  0  0  0  0  0  0  0  0  0  0  0
  -29.9150  -19.3030   19.1730 C   0  0  0  0  0  0  0  0  0  0  0  0
  -27.3410  -22.6520   21.5390 C   0  0  0  0  0  2  0  0  0  0  0  0
  -26.8270  -22.4500   20.0960 C   0  0  0  0  0  2  0  0  0  0  0  0
  -28.4970  -20.7180   20.5270 C   0  0  0  0  0  3  0  0  0  0  0  0
  -29.2640  -21.9970   18.9860 C   0  0  0  0  0  3  0  0  0  0  0  0
  -27.8420  -21.5370   19.4130 C   0  0  0  0  0  3  0  0  0  0  0  0
  -29.7490  -20.6860   19.7530 N   0  0  0  0  0  0  0  0  0  0  0  0
  -28.9940  -21.4560   22.8440 O   0  0  0  0  0  0  0  0  0  0  0  0
  -29.5670  -19.1770   17.9950 O   0  0  0  0  0  0  0  0  0  0  0  0
  -30.5440  -17.9020   19.8710 C   0  0  0  0  0  2  0  0  0  0  0  0
  -30.2110  -16.5900   19.6930 N   0  0  0  0  0  2  0  0  0  0  0  0
  -31.0610  -15.3870   19.9100 C   0  0  0  0  0  0  0  0  0  0  0  0
  -30.9580  -12.9410   19.2550 C   0  0  0  0  0  2  0  0  0  0  0  0
  -30.0330  -12.7670   18.0260 C   0  0  0  0  0  2  0  0  0  0  0  0
  -28.5700  -12.5880   18.4710 C   0  0  0  0  0  2  0  0  0  0  0  0
  -28.1470  -13.6430   19.5240 C   0  0  0  0  0  3  0  0  0  0  0  0
  -29.1870  -13.7900   20.6480 C   0  0  0  0  0  2  0  0  0  0  0  0
  -30.4750  -14.1220   20.0270 N   0  0  0  0  0  0  0  0  0  0  0  0
  -32.2890  -15.3830   19.7820 O   0  0  0  0  0  0  0  0  0  0  0  0
  -25.8270  -14.3340   20.3460 C   0  0  0  0  0  0  0  0  0  0  0  0
  -24.7210  -13.6090   20.7030 C   0  0  0  0  0  0  0  0  0  0  0  0
  -25.1020  -12.2350   20.6110 C   0  0  0  0  0  0  0  0  0  0  0  0
  -26.8060  -13.4030   20.0440 N   0  0  0  0  0  0  0  0  0  0  0  0
  -26.3820  -12.1330   20.2740 N   0  0  0  0  0  0  0  0  0  0  0  0
  -24.3010  -11.0110   20.7630 C   0  0  0  0  0  0  0  0  0  0  0  0
  -24.7050   -9.9640   21.6200 C   0  0  0  0  0  3  0  0  0  0  0  0
  -23.9060   -8.8090   21.7640 C   0  0  0  0  0  3  0  0  0  0  0  0
  -22.6900   -8.6930   21.0500 C   0  0  0  0  0  0  0  0  0  0  0  0
  -22.3030   -9.7300   20.1820 C   0  0  0  0  0  3  0  0  0  0  0  0
  -23.1030  -10.8760   20.0360 C   0  0  0  0  0  3  0  0  0  0  0  0
  -21.8640   -7.5970   21.1080 O   0  0  0  0  0  0  0  0  0  0  0  0
  -21.6950   -6.8820   22.2660 C   0  0  0  0  0  0  0  0  0  0  0  0
  -21.2190   -7.4850   23.4500 C   0  0  0  0  0  3  0  0  0  0  0  0
  -20.9950   -6.7010   24.5980 C   0  0  0  0  0  3  0  0  0  0  0  0
  -21.2360   -5.3140   24.5630 C   0  0  0  0  0  0  0  0  0  0  0  0
  -21.7050   -4.7100   23.3820 C   0  0  0  0  0  3  0  0  0  0  0  0
  -21.9300   -5.4910   22.2360 C   0  0  0  0  0  0  0  0  0  0  0  0
  -22.3610   -4.9030   21.0930 F   0  0  0  0  0  0  0  0  0  0  0  0
  -21.0130   -4.5560   25.6620 F   0  0  0  0  0  0  0  0  0  0  0  0
  -23.3620  -14.1600   21.0150 C   0  0  0  0  0  0  0  0  0  0  0  0
  -22.6290  -13.5110   21.9140 N   0  0  0  0  0  0  0  0  0  0  0  0
  -22.9610  -15.2020   20.4980 O   0  0  0  0  0  0  0  0  0  0  0  0
  -22.9680  -12.6680   22.3530 H   0  0  0  0  0  0  0  0  0  0  0  0
  -21.7150  -13.8640   22.1650 H   0  0  0  0  0  0  0  0  0  0  0  0
  -26.0750  -15.6970   20.2250 N   0  0  0  0  0  0  0  0  0  0  0  0
  -25.3600  -16.3970   20.3830 H   0  0  0  0  0  0  0  0  0  0  0  0
  -26.9600  -16.0860   19.9200 H   0  0  0  0  0  0  0  0  0  0  0  0
  -29.6030  -23.6280   19.3230 C   0  0  0  0  0  0  0  0  0  0  0  0
  -30.5940  -23.9260   20.0000 O   0  0  0  0  0  0  0  0  0  0  0  0
  -28.6730  -24.9340   18.8180 C   0  0  0  0  0  2  0  0  0  0  0  0
  -28.7200  -26.3810   19.4360 O   0  0  0  0  0  0  0  0  0  0  0  0
  -24.5190  -31.3270   23.0330 C   0  0  0  0  0  0  0  0  0  0  0  0
  -27.5800  -27.2830   19.4590 C   0  0  0  0  0  0  0  0  0  0  0  0
  -23.4840  -30.0280   21.2150 C   0  0  0  0  0  3  0  0  0  0  0  0
  -25.0910  -28.8010   19.6300 C   0  0  0  0  0  0  0  0  0  0  0  0
  -26.0000  -30.5660   21.1280 C   0  0  0  0  0  2  0  0  0  0  0  0
  -26.2200  -29.2750   20.3070 C   0  0  0  0  0  0  0  0  0  0  0  0
  -27.4620  -28.5270   20.2120 C   0  0  0  0  0  3  0  0  0  0  0  0
  -26.4110  -26.9380   18.7420 C   0  0  0  0  0  3  0  0  0  0  0  0
  -25.1990  -27.6510   18.8380 C   0  0  0  0  0  3  0  0  0  0  0  0
  -23.7830  -29.5600   19.7670 C   0  0  0  0  0  2  0  0  0  0  0  0
  -24.6870  -30.6570   21.8510 N   0  0  0  0  0  0  0  0  0  0  0  0
  -23.4070  -31.4290   23.5720 O   0  0  0  0  0  0  0  0  0  0  0  0
  -22.9050  -28.8480   22.0380 C   0  0  0  0  0  0  0  0  0  0  0  0
  -21.5950  -28.5730   21.8860 N   0  0  0  0  0  0  0  0  0  0  0  0
  -23.6390  -28.1830   22.7760 O   0  0  0  0  0  0  0  0  0  0  0  0
  -21.0620  -29.1700   21.2680 H   0  0  0  0  0  0  0  0  0  0  0  0
  -18.3600  -26.9590   22.1310 C   0  0  0  0  0  0  0  0  0  0  0  0
  -20.8670  -27.4730   22.5240 C   0  0  0  0  0  3  0  0  0  0  0  0
  -21.1430  -26.1280   21.8110 C   0  0  0  0  0  2  0  0  0  0  0  0
  -20.1120  -25.7910   20.7280 C   0  0  0  0  0  2  0  0  0  0  0  0
  -18.7040  -25.7170   21.3250 C   0  0  0  0  0  2  0  0  0  0  0  0
  -19.3740  -27.7880   22.6840 C   0  0  0  0  0  0  0  0  0  0  0  0
  -18.9930  -28.9400   23.4110 C   0  0  0  0  0  3  0  0  0  0  0  0
  -17.6360  -29.2650   23.5850 C   0  0  0  0  0  3  0  0  0  0  0  0
  -16.6380  -28.4350   23.0450 C   0  0  0  0  0  3  0  0  0  0  0  0
  -17.0020  -27.2820   22.3230 C   0  0  0  0  0  3  0  0  0  0  0  0
  -25.7200  -32.0100   23.7550 C   0  0  0  0  0  3  0  0  0  0  0  0
  -26.1580  -31.2580   25.0730 C   0  0  1  0  0  0  0  0  0  0  0  0
  -24.9880  -30.9700   26.0430 C   0  0  0  0  0  1  0  0  0  0  0  0
  -26.8340  -29.9080   24.7400 C   0  0  0  0  0  1  0  0  0  0  0  0
  -27.2080  -32.1020   25.8340 C   0  0  0  0  0  1  0  0  0  0  0  0
  -25.3300  -33.3950   24.0610 N   0  0  0  0  0  0  0  0  0  0  0  0
  -25.6740  -34.4660   23.3330 C   0  0  0  0  0  0  0  0  0  0  0  0
  -26.4180  -34.3920   22.3510 O   0  0  0  0  0  0  0  0  0  0  0  0
  -24.6730  -33.5280   24.8170 H   0  0  0  0  0  0  0  0  0  0  0  0
  -23.9010  -36.1950   22.8760 C   0  0  0  0  0  1  0  0  0  0  0  0
  -25.1070  -35.8330   23.7580 C   0  0  0  0  0  3  0  0  0  0  0  0
  -27.1590  -36.7980   24.7070 C   0  0  0  0  0  1  0  0  0  0  0  0
  -26.1030  -36.9270   23.7060 N   0  0  0  0  0  0  0  0  0  0  0  0
  -25.6530  -37.8300   23.8340 H   0  0  0  0  0  0  0  0  0  0  0  0
  1  9  2  0
  2  8  1  0
  2 11  1  0
  3  1  1  0
  4  3  1  0
  5  1  1  0
  6 49  1  0
  6  7  1  0
  6  8  1  0
  7  4  1  0
  7  5  1  0
  8  5  1  0
 10  2  2  0
 12 11  1  0
 12 13  1  0
 13 19  1  0
 14 19  1  0
 15 16  1  0
 15 14  1  0
 17 16  1  0
 17 24  1  0
 17 18  1  0
 19 18  1  0
 20 13  2  0
 21 22  2  0
 22 41  1  0
 23 22  1  0
 23 26  1  0
 24 25  1  0
 24 21  1  0
 25 23  2  0
 26 27  1  0
 27 28  2  0
 29 32  1  0
 29 28  1  0
 30 29  2  0
 31 30  1  0
 31 26  2  0
 32 33  1  0
 33 34  1  0
 34 35  2  0
 36 35  1  0
 36 40  1  0
 37 36  2  0
 38 33  2  0
 38 37  1  0
 39 38  1  0
 41 42  1  0
 42 45  1  0
 42 44  1  0
 43 41  2  0
 46 21  1  0
 46 47  1  0
 48 46  1  0
 49 50  2  0
 51 49  1  0
 51 52  1  0
 52 54  1  0
 53 64  2  0
 54 59  1  0
 55 63  1  0
 55 65  1  0
 56 62  1  0
 56 58  1  0
 57 63  1  0
 58 57  1  0
 59 58  2  0
 60 61  1  0
 60 54  2  0
 61 56  2  0
 62 55  1  0
 63 53  1  0
 65 67  2  0
 66 65  1  0
 68 66  1  0
 69 78  2  0
 69 74  1  0
 70 66  1  0
 70 74  1  0
 71 70  1  0
 72 73  1  0
 72 71  1  0
 73 69  1  0
 74 75  2  0
 75 76  1  0
 77 76  2  0
 78 77  1  0
 79 53  1  0
 79 84  1  0
 79 80  1  0
 80 83  1  1
 80 81  1  0
 82 80  1  0
 84 87  1  0
 85 89  1  0
 85 84  1  0
 86 85  2  0
 89 88  1  0
 91 89  1  0
 91 92  1  0
 91 90  1  0
M  ISO  4  12 100  13 100  51 101  52 101
M  END
>  <TORSDO>  (33) 
F 19

>  <SCORE>  (33) 
-12.476

>  <name>  (33) 
34

>  <ligand_id>  (33) 
34

>  <original_smiles>  (33) 
[H]C(=NC(=O)N1C([H])([H])C([H])([H])C([H])([H])C([H])(n2nc(-c3c([H])c([H])c(Oc4c([H])c([H])c(F)c([H])c4F)c([H])c3[H])c(C(=O)N([H])[H])c2N([H])[H])C1([H])[H])C(=O)N1C([H])(C(=O)C([H])([H])Oc2c([H])c([H])c3c(c2[H])C([H])([H])N(C(=O)C([H])(N([H])C(=O)C([H])(N([H])C([H])([H])[H])C([H])([H])[H])C(C([H])([H])[H])(C([H])([H])[H])C([H])([H])[H])C([H])(C(=O)N([H])C2([H])c4c([H])c([H])c([H])c([H])c4C([H])([H])C([H])([H])C2([H])[H])C3([H])[H])C2([H])C1([H])C(=O)C([H])([H])C2([H])[H]

>  <smiles>  (33) 
[H]C(=NC(=O)N1C([H])([H])C([H])([H])C([H])([H])C([H])(n2nc(-c3c([H])c([H])c(Oc4c([H])c([H])c(F)c([H])c4F)c([H])c3[H])c(C(=O)N([H])[H])c2N([H])[H])C1([H])[H])C(=O)N1C([H])(C(=O)C([H])([H])Oc2c([H])c([H])c3c(c2[H])C([H])([H])N(C(=O)C([H])(N([H])C(=O)C([H])(N([H])C([H])([H])[H])C([H])([H])[H])C(C([H])([H])[H])(C([H])([H])[H])C([H])([H])[H])C([H])(C(=O)N([H])C2([H])c4c([H])c([H])c([H])c([H])c4C([H])([H])C([H])([H])C2([H])[H])C3([H])[H])C2([H])C1([H])C(=O)C([H])([H])C2([H])[H]

$$$$
35:0:0
     RDKit          3D

 94102  0  0  1  0  0  0  0  0999 V2000
  -29.2850  -22.7110   21.6720 C   0  0  0  0  0  3  0  0  0  0  0  0
  -29.8720  -21.5480   22.2470 C   0  0  0  0  0  3  0  0  0  0  0  0
  -28.9150  -21.3290   19.7390 C   0  0  0  0  0  3  0  0  0  0  0  0
  -28.7360  -22.7400   20.3760 C   0  0  0  0  0  0  0  0  0  0  0  0
  -30.0060  -20.2720   21.6160 C   0  0  0  0  0  0  0  0  0  0  0  0
  -29.5580  -20.0180   20.2910 C   0  0  0  0  0  0  0  0  0  0  0  0
  -30.6810  -19.1630   22.4050 C   0  0  0  0  0  1  0  0  0  0  0  0
  -27.8850  -24.2210   19.9060 C   0  0  0  0  0  2  0  0  0  0  0  0
  -28.0780  -25.8470   20.2270 O   0  0  0  0  0  0  0  0  0  0  0  0
  -24.5890  -31.9140   23.1370 C   0  0  0  0  0  0  0  0  0  0  0  0
  -27.0790  -26.9690   20.1260 C   0  0  0  0  0  0  0  0  0  0  0  0
  -23.3550  -30.4870   21.5560 C   0  0  0  0  0  3  0  0  0  0  0  0
  -24.7710  -28.8620   20.1120 C   0  0  0  0  0  0  0  0  0  0  0  0
  -25.9170  -30.6970   21.3350 C   0  0  0  0  0  2  0  0  0  0  0  0
  -25.9740  -29.2740   20.6990 C   0  0  0  0  0  0  0  0  0  0  0  0
  -27.1170  -28.3470   20.6840 C   0  0  0  0  0  3  0  0  0  0  0  0
  -25.8470  -26.7240   19.4770 C   0  0  0  0  0  3  0  0  0  0  0  0
  -24.7350  -27.6080   19.4790 C   0  0  0  0  0  3  0  0  0  0  0  0
  -23.5490  -29.7810   20.1840 C   0  0  0  0  0  2  0  0  0  0  0  0
  -24.6440  -31.0620   22.0610 N   0  0  0  0  0  0  0  0  0  0  0  0
  -23.5140  -32.2070   23.6860 O   0  0  0  0  0  0  0  0  0  0  0  0
  -22.6930  -29.5060   22.5590 C   0  0  0  0  0  0  0  0  0  0  0  0
  -21.3700  -29.2870   22.4380 N   0  0  0  0  0  0  0  0  0  0  0  0
  -23.3770  -28.9400   23.4150 O   0  0  0  0  0  0  0  0  0  0  0  0
  -20.8680  -29.7950   21.7230 H   0  0  0  0  0  0  0  0  0  0  0  0
  -18.0480  -27.9110   22.9380 C   0  0  0  0  0  0  0  0  0  0  0  0
  -20.5800  -28.3490   23.2440 C   0  0  0  0  0  3  0  0  0  0  0  0
  -20.7810  -26.8930   22.7600 C   0  0  0  0  0  2  0  0  0  0  0  0
  -19.7290  -26.4460   21.7410 C   0  0  0  0  0  2  0  0  0  0  0  0
  -18.3240  -26.5410   22.3430 C   0  0  0  0  0  2  0  0  0  0  0  0
  -19.1080  -28.7660   23.3460 C   0  0  0  0  0  0  0  0  0  0  0  0
  -18.7950  -30.0410   23.8660 C   0  0  0  0  0  3  0  0  0  0  0  0
  -17.4580  -30.4660   23.9790 C   0  0  0  0  0  3  0  0  0  0  0  0
  -16.4140  -29.6110   23.5840 C   0  0  0  0  0  3  0  0  0  0  0  0
  -16.7100  -28.3360   23.0700 C   0  0  0  0  0  3  0  0  0  0  0  0
  -25.8750  -32.5750   23.7210 C   0  0  0  0  0  3  0  0  0  0  0  0
  -25.5470  -33.9670   24.0800 N   0  0  0  0  0  0  0  0  0  0  0  0
  -25.8530  -35.0430   23.3430 C   0  0  0  0  0  0  0  0  0  0  0  0
  -26.5010  -34.9690   22.2960 O   0  0  0  0  0  0  0  0  0  0  0  0
  -24.9660  -34.0970   24.8950 H   0  0  0  0  0  0  0  0  0  0  0  0
  -24.1150  -36.8450   23.0560 C   0  0  0  0  0  1  0  0  0  0  0  0
  -25.3650  -36.4190   23.8420 C   0  0  0  0  0  3  0  0  0  0  0  0
  -27.4970  -37.3030   24.6870 C   0  0  0  0  0  1  0  0  0  0  0  0
  -26.3920  -37.4800   23.7470 N   0  0  0  0  0  0  0  0  0  0  0  0
  -25.9810  -38.3960   23.9090 H   0  0  0  0  0  0  0  0  0  0  0  0
  -26.4420  -31.8120   24.9820 C   0  0  1  0  0  0  0  0  0  0  0  0
  -25.3830  -31.5390   26.0770 C   0  0  0  0  0  1  0  0  0  0  0  0
  -27.0570  -30.4530   24.5770 C   0  0  0  0  0  1  0  0  0  0  0  0
  -27.5860  -32.6330   25.6210 C   0  0  0  0  0  1  0  0  0  0  0  0
  -29.9630  -18.4400   19.5730 C   0  0  0  0  0  0  0  0  0  0  0  0
  -30.6530  -15.5270   19.8290 C   0  0  0  0  0  0  0  0  0  0  0  0
  -30.6140  -13.0700   18.9490 C   0  0  0  0  0  2  0  0  0  0  0  0
  -29.6240  -12.8450   17.7770 C   0  0  0  0  0  2  0  0  0  0  0  0
  -28.2180  -12.5290   18.3110 C   0  0  0  0  0  2  0  0  0  0  0  0
  -27.8190  -13.4770   19.4680 C   0  0  0  0  0  3  0  0  0  0  0  0
  -28.9340  -13.6540   20.5230 C   0  0  0  0  0  2  0  0  0  0  0  0
  -30.1100  -14.2010   19.8240 N   0  0  0  0  0  0  0  0  0  0  0  0
  -31.8350  -15.5350   19.4560 O   0  0  0  0  0  0  0  0  0  0  0  0
  -29.9000  -16.8090   20.0440 N   0  0  0  0  0  4  0  0  0  0  0  0
  -28.9940  -16.6000   20.4370 H   0  0  0  0  0  0  0  0  0  0  0  0
  -25.5120  -13.9840   20.4220 C   0  0  0  0  0  0  0  0  0  0  0  0
  -24.4810  -13.1850   20.8330 C   0  0  0  0  0  0  0  0  0  0  0  0
  -24.9460  -11.8410   20.7040 C   0  0  0  0  0  0  0  0  0  0  0  0
  -26.5340  -13.1270   20.0600 N   0  0  0  0  0  0  0  0  0  0  0  0
  -26.2110  -11.8280   20.2960 N   0  0  0  0  0  0  0  0  0  0  0  0
  -24.2350  -10.5680   20.8860 C   0  0  0  0  0  0  0  0  0  0  0  0
  -24.6580   -9.6120   21.8350 C   0  0  0  0  0  3  0  0  0  0  0  0
  -23.9420   -8.4070   22.0080 C   0  0  0  0  0  3  0  0  0  0  0  0
  -22.7880   -8.1500   21.2290 C   0  0  0  0  0  0  0  0  0  0  0  0
  -22.3850   -9.0950   20.2690 C   0  0  0  0  0  3  0  0  0  0  0  0
  -23.1030  -10.2900   20.0950 C   0  0  0  0  0  3  0  0  0  0  0  0
  -22.0440   -6.9960   21.3100 O   0  0  0  0  0  0  0  0  0  0  0  0
  -21.8790   -6.3280   22.4960 C   0  0  0  0  0  0  0  0  0  0  0  0
  -21.2510   -6.9290   23.6090 C   0  0  0  0  0  3  0  0  0  0  0  0
  -21.0380   -6.1830   24.7850 C   0  0  0  0  0  3  0  0  0  0  0  0
  -21.4430   -4.8360   24.8480 C   0  0  0  0  0  0  0  0  0  0  0  0
  -22.0640   -4.2340   23.7400 C   0  0  0  0  0  3  0  0  0  0  0  0
  -22.2780   -4.9780   22.5660 C   0  0  0  0  0  0  0  0  0  0  0  0
  -22.8560   -4.3870   21.4930 F   0  0  0  0  0  0  0  0  0  0  0  0
  -21.2330   -4.1170   25.9770 F   0  0  0  0  0  0  0  0  0  0  0  0
  -23.1070  -13.6450   21.2220 C   0  0  0  0  0  0  0  0  0  0  0  0
  -22.4470  -12.9190   22.1180 N   0  0  0  0  0  0  0  0  0  0  0  0
  -22.6280  -14.6830   20.7670 O   0  0  0  0  0  0  0  0  0  0  0  0
  -22.8490  -12.0800   22.5090 H   0  0  0  0  0  0  0  0  0  0  0  0
  -21.5280  -13.2090   22.4200 H   0  0  0  0  0  0  0  0  0  0  0  0
  -25.6560  -15.3630   20.2960 N   0  0  0  0  0  0  0  0  0  0  0  0
  -24.8900  -15.9990   20.4860 H   0  0  0  0  0  0  0  0  0  0  0  0
  -26.4570  -15.8210   19.8850 H   0  0  0  0  0  0  0  0  0  0  0  0
  -29.4870  -18.4760   18.0960 C   0  0  0  0  0  2  0  0  0  0  0  0
  -30.5920  -18.7220   17.0370 C   0  0  0  0  0  2  0  0  0  0  0  0
  -31.0060  -20.1330   16.9070 N   0  0  0  0  0  4  0  0  0  0  0  0
  -30.2360  -20.7130   16.6250 H   0  0  0  0  0  0  0  0  0  0  0  0
  -31.7090  -20.2040   16.1910 H   0  0  0  0  0  0  0  0  0  0  0  0
  -31.4040  -20.4870   17.7580 H   0  0  0  0  0  0  0  0  0  0  0  0
  1  2  1  0
  3  6  2  0
  3  4  1  0
  4  1  2  0
  5  2  2  0
  5  7  1  0
  6  5  1  0
  8  9  1  0
  8  4  1  0
 10 21  2  0
 11  9  1  0
 11 16  1  0
 12 20  1  0
 12 22  1  0
 13 19  1  0
 13 15  1  0
 14 20  1  0
 15 14  1  0
 16 15  2  0
 17 18  1  0
 17 11  2  0
 18 13  2  0
 19 12  1  0
 20 10  1  0
 22 24  2  0
 23 22  1  0
 25 23  1  0
 26 35  2  0
 26 31  1  0
 27 23  1  0
 27 31  1  0
 28 27  1  0
 29 30  1  0
 29 28  1  0
 30 26  1  0
 31 32  2  0
 32 33  1  0
 34 33  2  0
 35 34  1  0
 36 10  1  0
 36 37  1  0
 36 46  1  0
 37 40  1  0
 38 42  1  0
 38 37  1  0
 39 38  2  0
 42 41  1  0
 44 42  1  0
 44 45  1  0
 44 43  1  0
 46 49  1  1
 46 47  1  0
 48 46  1  0
 50 59  2  0
 50  6  1  0
 51 59  1  0
 52 57  1  0
 53 54  1  0
 53 52  1  0
 55 54  1  0
 55 64  1  0
 55 56  1  0
 57 51  1  0
 57 56  1  0
 58 51  2  0
 59 60  1  0
 61 62  2  0
 62 81  1  0
 63 62  1  0
 63 66  1  0
 64 65  1  0
 64 61  1  0
 65 63  2  0
 66 67  1  0
 67 68  2  0
 69 72  1  0
 69 68  1  0
 70 69  2  0
 71 70  1  0
 71 66  2  0
 72 73  1  0
 73 78  2  0
 73 74  1  0
 74 75  2  0
 75 76  1  0
 76 80  1  0
 77 76  2  0
 78 77  1  0
 79 78  1  0
 81 82  1  0
 82 85  1  0
 82 84  1  0
 83 81  2  0
 86 61  1  0
 86 87  1  0
 88 86  1  0
 89 50  1  0
 90 89  1  0
 91 90  1  0
 91 94  1  0
 92 91  1  0
 93 91  1  0
M  ISO  4   8 101   9 101  51 100  59 100
M  END
>  <TORSDO>  (34) 
F 21

>  <SCORE>  (34) 
-15.175

>  <name>  (34) 
35

>  <ligand_id>  (34) 
35

>  <original_smiles>  (34) 
[H]c1c([H])c([H])c2c(c1[H])C([H])([H])C([H])([H])C([H])([H])C2([H])N([H])C(=O)C1([H])N(C(=O)C([H])(N([H])C(=O)C([H])(N([H])C([H])([H])[H])C([H])([H])[H])C(C([H])([H])[H])(C([H])([H])[H])C([H])([H])[H])C([H])([H])c2c([H])c(OC([H])([H])c3c([H])c([H])c(C([H])([H])[H])c(C([H])(N([H])C(=O)N4C([H])([H])C([H])([H])C([H])([H])C([H])(n5nc(-c6c([H])c([H])c(Oc7c([H])c([H])c(F)c([H])c7F)c([H])c6[H])c(C(=O)N([H])[H])c5N([H])[H])C4([H])[H])C([H])([H])C([H])([H])[N+]([H])([H])[H])c3[H])c([H])c([H])c2C1([H])[H]

>  <smiles>  (34) 
[H]c1c([H])c([H])c2c(c1[H])C([H])([H])C([H])([H])C([H])([H])C2([H])N([H])C(=O)C1([H])N(C(=O)C([H])(N([H])C(=O)C([H])(N([H])C([H])([H])[H])C([H])([H])[H])C(C([H])([H])[H])(C([H])([H])[H])C([H])([H])[H])C([H])([H])c2c([H])c(OC([H])([H])c3c([H])c([H])c(C([H])([H])[H])c(C([H])(N([H])C(=O)N4C([H])([H])C([H])([H])C([H])([H])C([H])(n5nc(-c6c([H])c([H])c(Oc7c([H])c([H])c(F)c([H])c7F)c([H])c6[H])c(C(=O)N([H])[H])c5N([H])[H])C4([H])[H])C([H])([H])C([H])([H])[N+]([H])([H])[H])c3[H])c([H])c([H])c2C1([H])[H]

$$$$
36:0:0
     RDKit          3D

 99107  0  0  1  0  0  0  0  0999 V2000
  -29.1540  -23.9100   20.2000 C   0  0  0  0  0  0  0  0  0  0  0  0
  -29.2960  -22.7280   20.9260 N   0  0  0  0  0  0  0  0  0  0  0  0
  -29.6050  -24.0060   19.0540 O   0  0  0  0  0  0  0  0  0  0  0  0
  -28.3620  -25.1620   20.7910 C   0  0  0  0  0  2  0  0  0  0  0  0
  -28.6220  -26.5060   20.2120 O   0  0  0  0  0  0  0  0  0  0  0  0
  -24.7370  -31.7650   23.2740 C   0  0  0  0  0  0  0  0  0  0  0  0
  -27.5040  -27.3510   20.1650 C   0  0  0  0  0  0  0  0  0  0  0  0
  -23.5890  -30.3610   21.6030 C   0  0  0  0  0  3  0  0  0  0  0  0
  -25.0930  -28.8810   20.1610 C   0  0  0  0  0  0  0  0  0  0  0  0
  -26.1180  -30.7580   21.4460 C   0  0  0  0  0  2  0  0  0  0  0  0
  -26.2430  -29.3940   20.7780 C   0  0  0  0  0  0  0  0  0  0  0  0
  -27.4520  -28.6380   20.7780 C   0  0  0  0  0  3  0  0  0  0  0  0
  -26.3460  -26.9000   19.4970 C   0  0  0  0  0  3  0  0  0  0  0  0
  -25.1480  -27.6370   19.5110 C   0  0  0  0  0  3  0  0  0  0  0  0
  -23.8310  -29.7190   20.2130 C   0  0  0  0  0  2  0  0  0  0  0  0
  -24.8330  -30.9780   22.1660 N   0  0  0  0  0  0  0  0  0  0  0  0
  -23.6440  -32.0020   23.8060 O   0  0  0  0  0  0  0  0  0  0  0  0
  -22.9530  -29.3050   22.5400 C   0  0  0  0  0  0  0  0  0  0  0  0
  -21.6460  -29.0490   22.3600 N   0  0  0  0  0  0  0  0  0  0  0  0
  -23.6360  -28.7220   23.3840 O   0  0  0  0  0  0  0  0  0  0  0  0
  -21.1520  -29.5790   21.6560 H   0  0  0  0  0  0  0  0  0  0  0  0
  -18.3430  -27.6090   22.6810 C   0  0  0  0  0  0  0  0  0  0  0  0
  -20.8510  -28.0690   23.1040 C   0  0  0  0  0  3  0  0  0  0  0  0
  -21.0990  -26.6390   22.5720 C   0  0  0  0  0  2  0  0  0  0  0  0
  -20.0920  -26.2110   21.5020 C   0  0  0  0  0  2  0  0  0  0  0  0
  -18.6630  -26.2630   22.0520 C   0  0  0  0  0  2  0  0  0  0  0  0
  -19.3710  -28.4650   23.1580 C   0  0  0  0  0  0  0  0  0  0  0  0
  -19.0200  -29.7210   23.7000 C   0  0  0  0  0  3  0  0  0  0  0  0
  -17.6730  -30.1220   23.7710 C   0  0  0  0  0  3  0  0  0  0  0  0
  -16.6600  -29.2660   23.3090 C   0  0  0  0  0  3  0  0  0  0  0  0
  -16.9940  -28.0130   22.7680 C   0  0  0  0  0  3  0  0  0  0  0  0
  -25.9980  -32.4250   23.9160 C   0  0  0  0  0  3  0  0  0  0  0  0
  -26.4940  -31.6810   25.2170 C   0  0  1  0  0  0  0  0  0  0  0  0
  -25.3790  -31.4430   26.2620 C   0  0  0  0  0  1  0  0  0  0  0  0
  -27.1060  -30.3070   24.8610 C   0  0  0  0  0  1  0  0  0  0  0  0
  -27.6180  -32.5010   25.8920 C   0  0  0  0  0  1  0  0  0  0  0  0
  -25.6640  -33.8250   24.2180 N   0  0  0  0  0  0  0  0  0  0  0  0
  -26.0070  -34.8710   23.4540 C   0  0  0  0  0  0  0  0  0  0  0  0
  -26.7070  -34.7590   22.4440 O   0  0  0  0  0  0  0  0  0  0  0  0
  -25.0470  -33.9850   25.0010 H   0  0  0  0  0  0  0  0  0  0  0  0
  -24.2630  -36.6300   23.0260 C   0  0  0  0  0  1  0  0  0  0  0  0
  -25.4900  -36.2590   23.8740 C   0  0  0  0  0  3  0  0  0  0  0  0
  -27.5950  -37.1820   24.7390 C   0  0  0  0  0  1  0  0  0  0  0  0
  -26.5120  -37.3230   23.7670 N   0  0  0  0  0  0  0  0  0  0  0  0
  -26.0940  -38.2410   23.8880 H   0  0  0  0  0  0  0  0  0  0  0  0
  -28.9570  -22.7040   22.3730 C   0  0  0  0  0  2  0  0  0  0  0  0
  -30.1470  -23.0870   23.2900 C   0  0  0  0  0  2  0  0  0  0  0  0
  -29.8060  -23.0300   24.7270 N   0  0  0  0  0  4  0  0  0  0  0  0
  -29.1720  -23.7650   24.9880 H   0  0  0  0  0  0  0  0  0  0  0  0
  -30.6370  -23.1360   25.2840 H   0  0  0  0  0  0  0  0  0  0  0  0
  -29.3890  -22.1490   24.9740 H   0  0  0  0  0  0  0  0  0  0  0  0
  -29.9500  -21.4350   20.4030 C   0  0  0  0  0  2  0  0  0  0  0  0
  -29.1350  -20.0370   20.5130 C   0  0  0  0  0  3  0  0  0  0  0  0
  -27.7610  -20.3210   20.0260 N   0  0  0  0  0  4  0  0  0  0  0  0
  -27.7720  -20.6100   19.0600 H   0  0  0  0  0  0  0  0  0  0  0  0
  -27.2950  -21.0350   20.5540 H   0  0  0  0  0  0  0  0  0  0  0  0
  -27.2060  -19.4850   20.0800 H   0  0  0  0  0  0  0  0  0  0  0  0
  -28.5210  -17.7270   19.3190 C   0  0  0  0  0  2  0  0  0  0  0  0
  -28.6540  -17.0030   20.6720 C   0  0  0  0  0  2  0  0  0  0  0  0
  -29.6700  -18.6550   19.8080 C   0  0  0  0  0  3  0  0  0  0  0  0
  -30.1510  -17.2360   20.5220 C   0  0  0  0  0  3  0  0  0  0  0  0
  -31.0970  -14.7700   20.1110 C   0  0  0  0  0  0  0  0  0  0  0  0
  -30.6450  -12.5380   19.0860 C   0  0  0  0  0  2  0  0  0  0  0  0
  -29.7050  -12.5660   17.8640 C   0  0  0  0  0  2  0  0  0  0  0  0
  -28.2370  -12.4530   18.3140 C   0  0  0  0  0  2  0  0  0  0  0  0
  -27.8910  -13.3870   19.5090 C   0  0  0  0  0  3  0  0  0  0  0  0
  -28.9840  -13.3760   20.6110 C   0  0  0  0  0  2  0  0  0  0  0  0
  -30.2620  -13.6800   19.9460 N   0  0  0  0  0  0  0  0  0  0  0  0
  -32.3090  -14.5560   20.0450 O   0  0  0  0  0  0  0  0  0  0  0  0
  -31.6100  -16.5980   18.6460 C   0  0  0  0  0  1  0  0  0  0  0  0
  -30.7120  -16.0490   19.6920 N   0  0  0  0  0  0  0  0  0  0  0  0
  -25.5250  -14.0090   20.2980 C   0  0  0  0  0  0  0  0  0  0  0  0
  -24.4630  -13.2510   20.7050 C   0  0  0  0  0  0  0  0  0  0  0  0
  -24.9130  -11.8960   20.6860 C   0  0  0  0  0  0  0  0  0  0  0  0
  -26.5570  -13.1210   20.0450 N   0  0  0  0  0  0  0  0  0  0  0  0
  -26.1960  -11.8430   20.3490 N   0  0  0  0  0  0  0  0  0  0  0  0
  -24.1710  -10.6440   20.8980 C   0  0  0  0  0  0  0  0  0  0  0  0
  -24.5920   -9.6890   21.8460 C   0  0  0  0  0  3  0  0  0  0  0  0
  -23.8510   -8.5040   22.0510 C   0  0  0  0  0  3  0  0  0  0  0  0
  -22.6720   -8.2640   21.3020 C   0  0  0  0  0  0  0  0  0  0  0  0
  -22.2680   -9.2130   20.3470 C   0  0  0  0  0  3  0  0  0  0  0  0
  -23.0090  -10.3910   20.1430 C   0  0  0  0  0  3  0  0  0  0  0  0
  -21.9030   -7.1280   21.4130 O   0  0  0  0  0  0  0  0  0  0  0  0
  -21.8320   -6.4180   22.5840 C   0  0  0  0  0  0  0  0  0  0  0  0
  -21.4100   -7.0150   23.7910 C   0  0  0  0  0  3  0  0  0  0  0  0
  -21.2910   -6.2300   24.9590 C   0  0  0  0  0  3  0  0  0  0  0  0
  -21.5730   -4.8520   24.9150 C   0  0  0  0  0  0  0  0  0  0  0  0
  -21.9780   -4.2560   23.7070 C   0  0  0  0  0  3  0  0  0  0  0  0
  -22.1070   -5.0360   22.5470 C   0  0  0  0  0  0  0  0  0  0  0  0
  -22.4770   -4.4510   21.3810 F   0  0  0  0  0  0  0  0  0  0  0  0
  -21.4520   -4.0970   26.0290 F   0  0  0  0  0  0  0  0  0  0  0  0
  -23.0780  -13.7470   20.9900 C   0  0  0  0  0  0  0  0  0  0  0  0
  -22.3580  -13.0860   21.8900 N   0  0  0  0  0  0  0  0  0  0  0  0
  -22.6420  -14.7620   20.4520 O   0  0  0  0  0  0  0  0  0  0  0  0
  -22.7300  -12.2680   22.3490 H   0  0  0  0  0  0  0  0  0  0  0  0
  -21.4270  -13.4050   22.1180 H   0  0  0  0  0  0  0  0  0  0  0  0
  -25.6850  -15.3770   20.0900 N   0  0  0  0  0  0  0  0  0  0  0  0
  -24.9040  -16.0160   20.2120 H   0  0  0  0  0  0  0  0  0  0  0  0
  -26.4850  -15.8160   19.6580 H   0  0  0  0  0  0  0  0  0  0  0  0
  1  4  1  0
  1  2  1  0
  2 46  1  0
  3  1  2  0
  5  4  1  0
  6 17  2  0
  7  5  1  0
  7 12  1  0
  8 16  1  0
  8 18  1  0
  9 15  1  0
  9 11  1  0
 10 16  1  0
 11 10  1  0
 12 11  2  0
 13 14  1  0
 13  7  2  0
 14  9  2  0
 15  8  1  0
 16  6  1  0
 18 20  2  0
 19 18  1  0
 21 19  1  0
 22 31  2  0
 22 27  1  0
 23 19  1  0
 23 27  1  0
 24 23  1  0
 25 26  1  0
 25 24  1  0
 26 22  1  0
 27 28  2  0
 28 29  1  0
 30 29  2  0
 31 30  1  0
 32  6  1  0
 32 37  1  0
 32 33  1  0
 33 36  1  1
 33 34  1  0
 35 33  1  0
 37 40  1  0
 38 42  1  0
 38 37  1  0
 39 38  2  0
 42 41  1  0
 44 42  1  0
 44 45  1  0
 44 43  1  0
 46 47  1  0
 47 48  1  0
 48 51  1  0
 48 49  1  0
 48 50  1  0
 52  2  1  0
 53 52  1  0
 54 57  1  0
 54 53  1  0
 54 56  1  0
 55 54  1  0
 58 60  1  0
 58 59  1  0
 60 53  1  0
 60 61  1  0
 61 71  1  0
 61 59  1  0
 63 68  1  0
 64 65  1  0
 64 63  1  0
 66 65  1  0
 66 75  1  0
 66 67  1  0
 68 62  1  0
 68 67  1  0
 69 62  2  0
 70 71  1  0
 71 62  1  0
 72 73  2  0
 73 92  1  0
 74 73  1  0
 74 77  1  0
 75 72  1  0
 75 76  1  0
 76 74  2  0
 77 78  1  0
 78 79  2  0
 80 83  1  0
 80 79  1  0
 81 80  2  0
 82 81  1  0
 82 77  2  0
 83 84  1  0
 84 85  1  0
 85 86  2  0
 87 86  1  0
 87 91  1  0
 88 87  2  0
 89 84  2  0
 89 88  1  0
 90 89  1  0
 92 93  1  0
 93 96  1  0
 93 95  1  0
 94 92  2  0
 97 98  1  0
 97 72  1  0
 99 97  1  0
M  ISO  4   4 101   5 101  62 100  71 100
M  END
>  <TORSDO>  (35) 
F 24

>  <SCORE>  (35) 
-12.799

>  <name>  (35) 
36

>  <ligand_id>  (35) 
36

>  <original_smiles>  (35) 
[H]c1c([H])c([H])c2c(c1[H])C([H])([H])C([H])([H])C([H])([H])C2([H])N([H])C(=O)C1([H])N(C(=O)C([H])(N([H])C(=O)C([H])(N([H])C([H])([H])[H])C([H])([H])[H])C(C([H])([H])[H])(C([H])([H])[H])C([H])([H])[H])C([H])([H])c2c([H])c(OC([H])([H])C(=O)N(C([H])([H])C([H])([H])[N+]([H])([H])[H])C([H])([H])C([H])(C3([H])C([H])([H])C([H])([H])C3([H])N(C(=O)N3C([H])([H])C([H])([H])C([H])([H])C([H])(n4nc(-c5c([H])c([H])c(Oc6c([H])c([H])c(F)c([H])c6F)c([H])c5[H])c(C(=O)N([H])[H])c4N([H])[H])C3([H])[H])C([H])([H])[H])[N+]([H])([H])[H])c([H])c([H])c2C1([H])[H]

>  <smiles>  (35) 
[H]c1c([H])c([H])c2c(c1[H])C([H])([H])C([H])([H])C([H])([H])C2([H])N([H])C(=O)C1([H])N(C(=O)C([H])(N([H])C(=O)C([H])(N([H])C([H])([H])[H])C([H])([H])[H])C(C([H])([H])[H])(C([H])([H])[H])C([H])([H])[H])C([H])([H])c2c([H])c(OC([H])([H])C(=O)N(C([H])([H])C([H])([H])[N+]([H])([H])[H])C([H])([H])C([H])(C3([H])C([H])([H])C([H])([H])C3([H])N(C(=O)N3C([H])([H])C([H])([H])C([H])([H])C([H])(n4nc(-c5c([H])c([H])c(Oc6c([H])c([H])c(F)c([H])c6F)c([H])c5[H])c(C(=O)N([H])[H])c4N([H])[H])C3([H])[H])C([H])([H])[H])[N+]([H])([H])[H])c([H])c([H])c2C1([H])[H]

$$$$
37:0:0
     RDKit          3D

 96 97  0  0  1  0  0  0  0  0999 V2000
  -21.3910  -28.1220   18.9260 C   0  0  0  0  0  0  0  0  0  0  0  0
  -21.6570  -26.9060   18.2600 N   0  0  0  0  0  0  0  0  0  0  0  0
  -21.3670  -29.1400   18.2320 O   0  0  0  0  0  0  0  0  0  0  0  0
  -21.4300  -26.1470   18.8880 H   0  0  0  0  0  0  0  0  0  0  0  0
  -24.0860  -26.9760   16.7430 C   0  0  0  0  0  2  0  0  0  0  0  0
  -23.5830  -25.1160   17.5500 C   0  0  0  0  0  2  0  0  0  0  0  0
  -25.0240  -25.8420   17.4060 C   0  0  0  0  0  3  0  0  0  0  0  0
  -22.6650  -26.3710   17.1550 C   0  0  0  0  0  3  0  0  0  0  0  0
  -26.6240  -25.7300   18.1540 C   0  0  0  0  0  2  0  0  0  0  0  0
  -27.5080  -26.5110   19.2380 O   0  0  0  0  0  0  0  0  0  0  0  0
  -24.7630  -31.7390   23.2610 C   0  0  0  0  0  0  0  0  0  0  0  0
  -27.1730  -27.8200   19.4700 C   0  0  0  0  0  0  0  0  0  0  0  0
  -24.2380  -29.5960   21.7930 C   0  0  0  0  0  3  0  0  0  0  0  0
  -25.3180  -29.7570   19.8370 C   0  0  0  0  0  0  0  0  0  0  0  0
  -26.3960  -30.8530   21.6900 C   0  0  0  0  0  2  0  0  0  0  0  0
  -26.4790  -29.8290   20.6040 C   0  0  0  0  0  0  0  0  0  0  0  0
  -27.4030  -28.7520   20.5290 C   0  0  0  0  0  3  0  0  0  0  0  0
  -26.3290  -28.2110   18.4740 C   0  0  0  0  0  3  0  0  0  0  0  0
  -25.2400  -28.9750   18.7490 C   0  0  0  0  0  3  0  0  0  0  0  0
  -24.0870  -30.2880   20.3890 C   0  0  0  0  0  2  0  0  0  0  0  0
  -25.1110  -30.7060   22.4050 N   0  0  0  0  0  0  0  0  0  0  0  0
  -23.5990  -32.0310   23.5840 O   0  0  0  0  0  0  0  0  0  0  0  0
  -24.5010  -27.6750   21.8760 C   0  0  0  0  0  2  0  0  0  0  0  0
  -22.5680  -26.1810   22.1890 N   0  0  0  0  0  2  0  0  0  0  0  0
  -25.3930  -27.9030   22.6980 O   0  0  0  0  0  1  0  0  0  0  0  0
  -22.8170  -25.2200   22.3660 H   0  0  0  0  0  0  0  0  0  0  0  0
  -18.3190  -27.9480   23.1380 C   0  0  0  0  0  0  0  0  0  0  0  0
  -20.9250  -26.8260   23.0250 C   0  0  0  0  0  2  0  0  0  0  0  0
  -20.1450  -25.7540   22.5270 C   0  0  0  0  0  2  0  0  0  0  0  0
  -19.0290  -26.1180   21.6220 C   0  0  0  0  0  2  0  0  0  0  0  0
  -17.9270  -26.6890   22.4640 C   0  0  0  0  0  2  0  0  0  0  0  0
  -19.7380  -28.2350   23.2930 C   0  0  0  0  0  0  0  0  0  0  0  0
  -19.7580  -29.6290   23.8220 C   0  0  0  0  0  3  0  0  0  0  0  0
  -18.5980  -30.4610   24.1640 C   0  0  0  0  0  3  0  0  0  0  0  0
  -17.2760  -29.9920   24.0530 C   0  0  0  0  0  3  0  0  0  0  0  0
  -17.1670  -28.7120   23.5240 C   0  0  0  0  0  3  0  0  0  0  0  0
  -25.9240  -32.5030   23.9900 C   0  0  0  0  0  3  0  0  0  0  0  0
  -25.5630  -33.9030   24.3100 N   0  0  0  0  0  0  0  0  0  0  0  0
  -26.0320  -34.9980   23.6850 C   0  0  0  0  0  0  0  0  0  0  0  0
  -26.8150  -34.9380   22.7340 O   0  0  0  0  0  0  0  0  0  0  0  0
  -24.8820  -34.0320   25.0430 H   0  0  0  0  0  0  0  0  0  0  0  0
  -24.4170  -36.8970   23.3000 C   0  0  0  0  0  1  0  0  0  0  0  0
  -25.5610  -36.3810   24.1890 C   0  0  0  0  0  3  0  0  0  0  0  0
  -27.6350  -37.1460   25.2720 C   0  0  0  0  0  1  0  0  0  0  0  0
  -26.6350  -37.4000   24.2390 N   0  0  0  0  0  0  0  0  0  0  0  0
  -26.2450  -38.3260   24.3950 H   0  0  0  0  0  0  0  0  0  0  0  0
  -26.3370  -31.7230   25.3010 C   0  0  1  0  0  0  0  0  0  0  0  0
  -25.1410  -31.4680   26.2490 C   0  0  0  0  0  1  0  0  0  0  0  0
  -26.9870  -30.3480   25.0070 C   0  0  0  0  0  1  0  0  0  0  0  0
  -27.4130  -32.5170   26.0710 C   0  0  0  0  0  1  0  0  0  0  0  0
  -21.2250  -28.3420   20.5860 C   0  0  0  0  0  2  0  0  0  0  0  0
  -23.2550  -26.4370   20.2270 C   0  0  0  0  0  1  0  0  0  0  0  0
  -23.3510  -27.4190   23.6520 C   0  0  0  0  0 15  0  0  0  0  0  0
  -24.4240  -25.0300   20.7040 C   0  0  0  0  0  2  0  0  0  0  0  0
  -24.7200  -25.5860   23.5100 C   0  0  0  0  0 15  0  0  0  0  0  0
  -22.4190  -27.7560   21.4890 C   0  0  0  0  0  2  0  0  0  0  0  0
  -25.2420  -24.1780   22.0500 C   0  0  0  0  0  1  0  0  0  0  0  0
  -26.7170  -21.8390   21.6600 C   0  0  0  0  0 15  0  0  0  0  0  0
  -28.8830  -17.7030   20.5530 C   0  0  0  0  0  2  0  0  0  0  0  0
  -30.1000  -14.8750   19.3830 C   0  0  0  0  0  2  0  0  0  0  0  0
  -29.7650  -13.6170   18.3330 C   0  0  0  0  0  2  0  0  0  0  0  0
  -28.6670  -12.6700   18.7990 C   0  0  0  0  0  2  0  0  0  0  0  0
  -27.8330  -13.6040   19.6650 C   0  0  0  0  0  3  0  0  0  0  0  0
  -28.5230  -14.5600   20.7560 C   0  0  0  0  0  2  0  0  0  0  0  0
  -28.9910  -15.9590   20.1800 N   0  0  0  0  0  0  0  0  0  0  0  0
  -30.1880  -17.5120   20.3320 O   0  0  0  0  0  1  0  0  0  0  0  0
  -27.7390  -19.4810   20.9960 N   0  0  0  0  0  1  0  0  0  0  0  0
  -28.6420  -19.9390   20.9380 H   0  0  0  0  0  0  0  0  0  0  0  0
  -25.5490  -13.8860   20.4440 C   0  0  0  0  0  0  0  0  0  0  0  0
  -24.5600  -13.0600   20.8490 C   0  0  0  0  0  0  0  0  0  0  0  0
  -25.0720  -11.7270   20.7410 C   0  0  0  0  0  0  0  0  0  0  0  0
  -26.6040  -13.0690   20.1490 N   0  0  0  0  0  0  0  0  0  0  0  0
  -26.3510  -11.7470   20.3530 N   0  0  0  0  0  0  0  0  0  0  0  0
  -24.3710  -10.4520   20.9320 C   0  0  0  0  0  0  0  0  0  0  0  0
  -24.7920   -9.5010   21.8870 C   0  0  0  0  0  3  0  0  0  0  0  0
  -24.0630   -8.3070   22.0750 C   0  0  0  0  0  3  0  0  0  0  0  0
  -22.8990   -8.0560   21.3100 C   0  0  0  0  0  0  0  0  0  0  0  0
  -22.4980   -8.9960   20.3440 C   0  0  0  0  0  3  0  0  0  0  0  0
  -23.2280  -10.1790   20.1540 C   0  0  0  0  0  3  0  0  0  0  0  0
  -22.1420   -6.9140   21.4050 O   0  0  0  0  0  0  0  0  0  0  0  0
  -21.9990   -6.2430   22.5920 C   0  0  0  0  0  0  0  0  0  0  0  0
  -21.4790   -6.8690   23.7450 C   0  0  0  0  0  3  0  0  0  0  0  0
  -21.2830   -6.1220   24.9240 C   0  0  0  0  0  3  0  0  0  0  0  0
  -21.5980   -4.7500   24.9500 C   0  0  0  0  0  0  0  0  0  0  0  0
  -22.1120   -4.1240   23.8010 C   0  0  0  0  0  3  0  0  0  0  0  0
  -22.3090   -4.8680   22.6240 C   0  0  0  0  0  0  0  0  0  0  0  0
  -22.7830   -4.2540   21.5130 F   0  0  0  0  0  0  0  0  0  0  0  0
  -21.4040   -4.0320   26.0800 F   0  0  0  0  0  0  0  0  0  0  0  0
  -23.1880  -13.5160   21.2190 C   0  0  0  0  0  0  0  0  0  0  0  0
  -22.5430  -12.8160   22.1410 N   0  0  0  0  0  0  0  0  0  0  0  0
  -22.7140  -14.5450   20.7360 O   0  0  0  0  0  0  0  0  0  0  0  0
  -22.9550  -11.9900   22.5510 H   0  0  0  0  0  0  0  0  0  0  0  0
  -21.6250  -13.1070   22.4420 H   0  0  0  0  0  0  0  0  0  0  0  0
  -25.6400  -15.2700   20.2860 N   0  0  0  0  0  0  0  0  0  0  0  0
  -24.8440  -15.8840   20.4260 H   0  0  0  0  0  0  0  0  0  0  0  0
  -26.4500  -15.7370   19.9030 H   0  0  0  0  0  0  0  0  0  0  0  0
  1 51  1  0
  2  4  1  0
  2  1  1  0
  3  1  2  0
  5  8  1  0
  5  7  1  0
  7  6  1  0
  7  9  1  0
  8  6  1  0
  8  2  1  0
  9 10  1  0
 10 12  1  0
 11 22  2  0
 12 17  1  0
 13 23  1  0
 13 21  1  0
 14 20  1  0
 14 16  1  0
 15 21  1  0
 16 15  1  0
 17 16  2  0
 18 19  1  0
 18 12  2  0
 19 14  2  0
 20 13  1  0
 21 11  1  0
 23 25  1  0
 24 26  1  0
 27 32  2  0
 27 36  1  0
 28 32  1  0
 29 28  1  0
 30 31  1  0
 30 29  1  0
 31 27  1  0
 32 33  1  0
 33 34  2  0
 35 34  1  0
 36 35  2  0
 37 11  1  0
 37 38  1  0
 37 47  1  0
 38 41  1  0
 39 43  1  0
 39 38  1  0
 40 39  2  0
 43 42  1  0
 43 45  1  0
 45 46  1  0
 45 44  1  0
 47 50  1  1
 47 48  1  0
 49 47  1  0
 51 56  1  0
 52 54  1  0
 54 57  1  0
 56 24  1  0
 60 65  1  0
 61 62  1  0
 61 60  1  0
 63 62  1  0
 63 72  1  0
 63 64  1  0
 65 59  1  0
 65 64  1  0
 66 59  1  0
 68 67  1  0
 69 70  2  0
 70 89  1  0
 71 70  1  0
 71 74  1  0
 72 73  1  0
 72 69  1  0
 73 71  2  0
 74 75  1  0
 75 76  2  0
 77 80  1  0
 77 76  1  0
 78 77  2  0
 79 78  1  0
 79 74  2  0
 80 81  1  0
 81 86  2  0
 81 82  1  0
 82 83  2  0
 83 84  1  0
 84 88  1  0
 85 84  2  0
 86 85  1  0
 87 86  1  0
 89 90  1  0
 90 93  1  0
 90 92  1  0
 91 89  2  0
 94 95  1  0
 94 69  1  0
 96 94  1  0
M  ISO  4   9 101  10 101  59 100  67 100
M  END
>  <TORSDO>  (36) 
F 21

>  <SCORE>  (36) 
-11.729

>  <name>  (36) 
37

>  <ligand_id>  (36) 
37

>  <original_smiles>  (36) 
[H]c1c([H])c([H])c2c(c1[H])C([H])([H])C([H])([H])C([H])([H])C2([H])N([H])C(=O)C1([H])N(C(=O)C([H])(N([H])C(=O)C([H])(N([H])C([H])([H])[H])C([H])([H])[H])C(C([H])([H])[H])(C([H])([H])[H])C([H])([H])[H])C([H])([H])c2c([H])c(OC([H])([H])C3([H])C([H])([H])C([H])(N([H])C(=O)C([H])([H])c4c([H])c([H])c(C([H])([H])N([H])C(=O)N5C([H])([H])C([H])([H])C([H])([H])C([H])(n6nc(-c7c([H])c([H])c(Oc8c([H])c([H])c(F)c([H])c8F)c([H])c7[H])c(C(=O)N([H])[H])c6N([H])[H])C5([H])[H])c([H])c4[H])C3([H])[H])c([H])c([H])c2C1([H])[H]

>  <smiles>  (36) 
[H]c1c([H])c([H])c2c(c1[H])C([H])([H])C([H])([H])C([H])([H])C2([H])N([H])C(=O)C1([H])N(C(=O)C([H])(N([H])C(=O)C([H])(N([H])C([H])([H])[H])C([H])([H])[H])C(C([H])([H])[H])(C([H])([H])[H])C([H])([H])[H])C([H])([H])c2c([H])c(OC([H])([H])C3([H])C([H])([H])C([H])(N([H])C(=O)C([H])([H])c4c([H])c([H])c(C([H])([H])N([H])C(=O)N5C([H])([H])C([H])([H])C([H])([H])C([H])(n6nc(-c7c([H])c([H])c(Oc8c([H])c([H])c(F)c([H])c8F)c([H])c7[H])c(C(=O)N([H])[H])c6N([H])[H])C5([H])[H])c([H])c4[H])C3([H])[H])c([H])c([H])c2C1([H])[H]

$$$$
38:0:0
     RDKit          3D

 99108  0  0  1  0  0  0  0  0999 V2000
  -30.2290  -21.1660   19.6530 C   0  0  0  0  0  2  0  0  0  0  0  0
  -30.2460  -21.4970   22.1620 C   0  0  0  0  0  2  0  0  0  0  0  0
  -30.4440  -22.6760   19.4810 C   0  0  0  0  0  2  0  0  0  0  0  0
  -30.4850  -22.9950   21.9230 C   0  0  0  0  0  2  0  0  0  0  0  0
  -30.7980  -20.6640   20.9920 C   0  0  0  0  0  3  0  0  0  0  0  0
  -29.8910  -23.4370   20.6330 N   0  0  1  0  0  4  0  0  0  0  0  0
  -28.9070  -23.2180   20.6910 H   0  0  0  0  0  0  0  0  0  0  0  0
  -31.5570  -18.3400   21.6210 C   0  0  0  0  0  3  0  0  0  0  0  0
  -31.3740  -16.9510   21.6350 C   0  0  0  0  0  3  0  0  0  0  0  0
  -29.2980  -18.6140   20.7620 C   0  0  0  0  0  3  0  0  0  0  0  0
  -29.0960  -17.2140   20.7550 C   0  0  0  0  0  0  0  0  0  0  0  0
  -30.5340  -19.1770   21.1470 C   0  0  0  0  0  0  0  0  0  0  0  0
  -30.1790  -16.3700   21.1470 C   0  0  0  0  0  0  0  0  0  0  0  0
  -30.4000  -14.2440   19.9350 C   0  0  0  0  0  0  0  0  0  0  0  0
  -29.9450  -12.2080   18.6300 C   0  0  0  0  0  2  0  0  0  0  0  0
  -28.8450  -12.4650   17.5830 C   0  0  0  0  0  2  0  0  0  0  0  0
  -27.4450  -12.2620   18.1930 C   0  0  0  0  0  2  0  0  0  0  0  0
  -27.2650  -13.0090   19.5410 C   0  0  0  0  0  3  0  0  0  0  0  0
  -28.4590  -12.7260   20.4820 C   0  0  0  0  0  2  0  0  0  0  0  0
  -29.7050  -13.0900   19.7810 N   0  0  0  0  0  0  0  0  0  0  0  0
  -31.2990  -14.5900   19.1600 O   0  0  0  0  0  0  0  0  0  0  0  0
  -30.0740  -14.9570   21.0240 N   0  0  0  0  0  0  0  0  0  0  0  0
  -29.3640  -14.5240   21.6010 H   0  0  0  0  0  0  0  0  0  0  0  0
  -24.9380  -13.4880   20.5410 C   0  0  0  0  0  0  0  0  0  0  0  0
  -23.9570  -12.6590   21.0140 C   0  0  0  0  0  0  0  0  0  0  0  0
  -24.4670  -11.3310   20.8800 C   0  0  0  0  0  0  0  0  0  0  0  0
  -25.9890  -12.6650   20.1670 N   0  0  0  0  0  0  0  0  0  0  0  0
  -25.7100  -11.3580   20.4180 N   0  0  0  0  0  0  0  0  0  0  0  0
  -23.8210  -10.0320   21.1110 C   0  0  0  0  0  0  0  0  0  0  0  0
  -24.3420   -9.1050   22.0410 C   0  0  0  0  0  3  0  0  0  0  0  0
  -23.6950   -7.8700   22.2590 C   0  0  0  0  0  3  0  0  0  0  0  0
  -22.5130   -7.5530   21.5470 C   0  0  0  0  0  0  0  0  0  0  0  0
  -22.0120   -8.4700   20.6060 C   0  0  0  0  0  3  0  0  0  0  0  0
  -22.6610   -9.6950   20.3870 C   0  0  0  0  0  3  0  0  0  0  0  0
  -21.8310   -6.3660   21.6750 O   0  0  0  0  0  0  0  0  0  0  0  0
  -21.7650   -5.7000   22.8730 C   0  0  0  0  0  0  0  0  0  0  0  0
  -21.2710   -6.3160   24.0420 C   0  0  0  0  0  3  0  0  0  0  0  0
  -21.1550   -5.5750   25.2340 C   0  0  0  0  0  3  0  0  0  0  0  0
  -21.5230   -4.2170   25.2580 C   0  0  0  0  0  0  0  0  0  0  0  0
  -22.0090   -3.5980   24.0920 C   0  0  0  0  0  3  0  0  0  0  0  0
  -22.1270   -4.3380   22.9030 C   0  0  0  0  0  0  0  0  0  0  0  0
  -22.5760   -3.7320   21.7760 F   0  0  0  0  0  0  0  0  0  0  0  0
  -21.4050   -3.5010   26.4000 F   0  0  0  0  0  0  0  0  0  0  0  0
  -22.5880  -13.0650   21.4780 C   0  0  0  0  0  0  0  0  0  0  0  0
  -22.0070  -12.3100   22.4040 N   0  0  0  0  0  0  0  0  0  0  0  0
  -22.0440  -14.0840   21.0540 O   0  0  0  0  0  0  0  0  0  0  0  0
  -22.4630  -11.4850   22.7670 H   0  0  0  0  0  0  0  0  0  0  0  0
  -21.0950  -12.5600   22.7570 H   0  0  0  0  0  0  0  0  0  0  0  0
  -25.0150  -14.8680   20.3760 N   0  0  0  0  0  0  0  0  0  0  0  0
  -24.2240  -15.4780   20.5460 H   0  0  0  0  0  0  0  0  0  0  0  0
  -25.8110  -15.3500   19.9780 H   0  0  0  0  0  0  0  0  0  0  0  0
  -27.7470  -16.6720   20.3470 C   0  0  0  0  0  0  0  0  0  0  0  0
  -27.0850  -17.3520   19.4200 N   0  0  0  0  0  0  0  0  0  0  0  0
  -27.2980  -15.6290   20.8200 O   0  0  0  0  0  0  0  0  0  0  0  0
  -27.4820  -18.1890   19.0190 H   0  0  0  0  0  0  0  0  0  0  0  0
  -26.1920  -17.0140   19.0920 H   0  0  0  0  0  0  0  0  0  0  0  0
  -29.9890  -24.9050   20.4400 C   0  0  0  0  0  2  0  0  0  0  0  0
  -28.7740  -25.4770   19.7000 C   0  0  0  0  0  2  0  0  0  0  0  0
  -28.7920  -26.8810   19.9210 O   0  0  0  0  0  0  0  0  0  0  0  0
  -24.7890  -31.6150   23.3390 C   0  0  0  0  0  0  0  0  0  0  0  0
  -27.5790  -27.5220   19.9530 C   0  0  0  0  0  0  0  0  0  0  0  0
  -23.6380  -30.3290   21.5650 C   0  0  0  0  0  3  0  0  0  0  0  0
  -25.1450  -28.9440   20.0470 C   0  0  0  0  0  0  0  0  0  0  0  0
  -26.1550  -30.7600   21.4420 C   0  0  0  0  0  2  0  0  0  0  0  0
  -26.2780  -29.4520   20.6940 C   0  0  0  0  0  0  0  0  0  0  0  0
  -27.4980  -28.7500   20.6390 C   0  0  0  0  0  3  0  0  0  0  0  0
  -26.4280  -27.0130   19.3110 C   0  0  0  0  0  3  0  0  0  0  0  0
  -25.2130  -27.7220   19.3530 C   0  0  0  0  0  3  0  0  0  0  0  0
  -23.8810  -29.7650   20.1380 C   0  0  0  0  0  2  0  0  0  0  0  0
  -24.8770  -30.9110   22.1750 N   0  0  0  0  0  0  0  0  0  0  0  0
  -23.6940  -31.8200   23.8810 O   0  0  0  0  0  0  0  0  0  0  0  0
  -22.9950  -29.2190   22.4260 C   0  0  0  0  0  0  0  0  0  0  0  0
  -21.6820  -29.0040   22.2380 N   0  0  0  0  0  0  0  0  0  0  0  0
  -23.6750  -28.5580   23.2170 O   0  0  0  0  0  0  0  0  0  0  0  0
  -21.1930  -29.5980   21.5830 H   0  0  0  0  0  0  0  0  0  0  0  0
  -18.3290  -27.6990   22.5450 C   0  0  0  0  0  0  0  0  0  0  0  0
  -20.8710  -27.9860   22.9060 C   0  0  0  0  0  3  0  0  0  0  0  0
  -21.0240  -26.6100   22.2180 C   0  0  0  0  0  2  0  0  0  0  0  0
  -19.9560  -26.3470   21.1530 C   0  0  0  0  0  2  0  0  0  0  0  0
  -18.5550  -26.4120   21.7700 C   0  0  0  0  0  2  0  0  0  0  0  0
  -19.4180  -28.4460   23.0650 C   0  0  0  0  0  0  0  0  0  0  0  0
  -19.1580  -29.6540   23.7480 C   0  0  0  0  0  3  0  0  0  0  0  0
  -17.8380  -30.1130   23.9180 C   0  0  0  0  0  3  0  0  0  0  0  0
  -16.7610  -29.3600   23.4180 C   0  0  0  0  0  3  0  0  0  0  0  0
  -17.0080  -28.1560   22.7360 C   0  0  0  0  0  3  0  0  0  0  0  0
  -26.0530  -32.2160   24.0310 C   0  0  0  0  0  3  0  0  0  0  0  0
  -26.5190  -31.3950   25.2950 C   0  0  1  0  0  0  0  0  0  0  0  0
  -25.3840  -31.1100   26.3040 C   0  0  0  0  0  1  0  0  0  0  0  0
  -27.1310  -30.0410   24.8650 C   0  0  0  0  0  1  0  0  0  0  0  0
  -27.6330  -32.1680   26.0400 C   0  0  0  0  0  1  0  0  0  0  0  0
  -25.7400  -33.6030   24.3980 N   0  0  0  0  0  0  0  0  0  0  0  0
  -26.0590  -34.6740   23.6610 C   0  0  0  0  0  0  0  0  0  0  0  0
  -26.7200  -34.5980   22.6220 O   0  0  0  0  0  0  0  0  0  0  0  0
  -25.1570  -33.7360   25.2120 H   0  0  0  0  0  0  0  0  0  0  0  0
  -24.3020  -36.4480   23.3770 C   0  0  0  0  0  1  0  0  0  0  0  0
  -25.5660  -36.0470   24.1540 C   0  0  0  0  0  3  0  0  0  0  0  0
  -27.7070  -36.9450   24.9550 C   0  0  0  0  0  1  0  0  0  0  0  0
  -26.5810  -37.1150   24.0390 N   0  0  0  0  0  0  0  0  0  0  0  0
  -26.1660  -38.0260   24.2140 H   0  0  0  0  0  0  0  0  0  0  0  0
  1  5  1  0
  3  1  1  0
  3  6  1  0
  4  2  1  0
  5 12  1  0
  5  2  1  0
  6  7  1  1
  6  4  1  0
  8  9  1  0
 10 12  1  0
 11 10  2  0
 11 13  1  0
 12  8  2  0
 13  9  2  0
 14 22  1  0
 15 20  1  0
 16 17  1  0
 16 15  1  0
 18 17  1  0
 18 27  1  0
 18 19  1  0
 20 14  1  0
 20 19  1  0
 21 14  2  0
 22 13  1  0
 22 23  1  0
 24 25  2  0
 25 44  1  0
 26 25  1  0
 26 29  1  0
 27 28  1  0
 27 24  1  0
 28 26  2  0
 29 30  1  0
 30 31  2  0
 32 35  1  0
 32 31  1  0
 33 32  2  0
 34 33  1  0
 34 29  2  0
 35 36  1  0
 36 41  2  0
 36 37  1  0
 37 38  2  0
 38 39  1  0
 39 43  1  0
 40 39  2  0
 41 40  1  0
 42 41  1  0
 44 45  1  0
 45 48  1  0
 45 47  1  0
 46 44  2  0
 49 24  1  0
 49 50  1  0
 51 49  1  0
 52 11  1  0
 52 54  2  0
 53 52  1  0
 55 53  1  0
 56 53  1  0
 57  6  1  0
 58 59  1  0
 58 57  1  0
 59 61  1  0
 60 71  2  0
 61 66  1  0
 62 70  1  0
 62 72  1  0
 63 69  1  0
 63 65  1  0
 64 70  1  0
 65 64  1  0
 66 65  2  0
 67 68  1  0
 67 61  2  0
 68 63  2  0
 69 62  1  0
 70 60  1  0
 72 74  2  0
 73 72  1  0
 75 73  1  0
 76 85  2  0
 76 81  1  0
 77 73  1  0
 77 81  1  0
 78 77  1  0
 79 80  1  0
 79 78  1  0
 80 76  1  0
 81 82  2  0
 82 83  1  0
 84 83  2  0
 85 84  1  0
 86 60  1  0
 86 91  1  0
 86 87  1  0
 87 90  1  1
 87 88  1  0
 89 87  1  0
 91 94  1  0
 92 96  1  0
 92 91  1  0
 93 92  2  0
 96 95  1  0
 98 96  1  0
 98 99  1  0
 98 97  1  0
M  ISO  4  14 100  22 100  58 101  59 101
M  END
>  <TORSDO>  (37) 
F 20

>  <SCORE>  (37) 
-12.563

>  <name>  (37) 
38

>  <ligand_id>  (37) 
38

>  <original_smiles>  (37) 
[H]c1c([H])c([H])c2c(c1[H])C([H])([H])C([H])([H])C([H])([H])C2([H])N([H])C(=O)C1([H])N(C(=O)C([H])(N([H])C(=O)C([H])(N([H])C([H])([H])[H])C([H])([H])[H])C(C([H])([H])[H])(C([H])([H])[H])C([H])([H])[H])C([H])([H])c2c([H])c(OC([H])([H])C([H])([H])[N+]3([H])C([H])([H])C([H])([H])C([H])(c4c([H])c([H])c(N([H])C(=O)N5C([H])([H])C([H])([H])C([H])([H])C([H])(n6nc(-c7c([H])c([H])c(Oc8c([H])c([H])c(F)c([H])c8F)c([H])c7[H])c(C(=O)N([H])[H])c6N([H])[H])C5([H])[H])c(C(=O)N([H])[H])c4[H])C([H])([H])C3([H])[H])c([H])c([H])c2C1([H])[H]

>  <smiles>  (37) 
[H]c1c([H])c([H])c2c(c1[H])C([H])([H])C([H])([H])C([H])([H])C2([H])N([H])C(=O)C1([H])N(C(=O)C([H])(N([H])C(=O)C([H])(N([H])C([H])([H])[H])C([H])([H])[H])C(C([H])([H])[H])(C([H])([H])[H])C([H])([H])[H])C([H])([H])c2c([H])c(OC([H])([H])C([H])([H])[N+]3([H])C([H])([H])C([H])([H])C([H])(c4c([H])c([H])c(N([H])C(=O)N5C([H])([H])C([H])([H])C([H])([H])C([H])(n6nc(-c7c([H])c([H])c(Oc8c([H])c([H])c(F)c([H])c8F)c([H])c7[H])c(C(=O)N([H])[H])c6N([H])[H])C5([H])[H])c(C(=O)N([H])[H])c4[H])C([H])([H])C3([H])[H])c([H])c([H])c2C1([H])[H]

$$$$
39:0:0
     RDKit          3D

 97105  0  0  1  0  0  0  0  0999 V2000
  -29.6670  -19.1500   21.6560 C   0  0  0  0  0  2  0  0  0  0  0  0
  -29.8060  -20.8050   21.6570 C   0  0  0  0  0  2  0  0  0  0  0  0
  -29.4830  -20.8160   19.3290 C   0  0  0  0  0  2  0  0  0  0  0  0
  -29.3020  -19.1650   19.3350 C   0  0  0  0  0  3  0  0  0  0  0  0
  -30.1140  -18.2400   20.3950 C   0  0  0  0  0  3  0  0  0  0  0  0
  -29.1400  -21.6730   20.5620 N   0  0  2  0  0  4  0  0  0  0  0  0
  -28.1430  -21.5810   20.6920 H   0  0  0  0  0  0  0  0  0  0  0  0
  -30.7060  -15.3980   20.1460 C   0  0  0  0  0  0  0  0  0  0  0  0
  -30.5930  -13.0780   19.0450 C   0  0  0  0  0  2  0  0  0  0  0  0
  -29.6270  -13.0640   17.8340 C   0  0  0  0  0  2  0  0  0  0  0  0
  -28.1820  -12.7990   18.2940 C   0  0  0  0  0  2  0  0  0  0  0  0
  -27.7990  -13.6450   19.5340 C   0  0  0  0  0  3  0  0  0  0  0  0
  -28.8860  -13.6200   20.6310 C   0  0  0  0  0  2  0  0  0  0  0  0
  -30.1210  -14.1220   20.0160 N   0  0  0  0  0  0  0  0  0  0  0  0
  -31.9040  -15.4530   19.8370 O   0  0  0  0  0  0  0  0  0  0  0  0
  -29.9310  -16.6020   20.4230 N   0  0  0  0  0  0  0  0  0  0  0  0
  -28.9870  -16.3390   20.6660 H   0  0  0  0  0  0  0  0  0  0  0  0
  -25.4180  -14.1610   20.2990 C   0  0  0  0  0  0  0  0  0  0  0  0
  -24.3770  -13.3620   20.6810 C   0  0  0  0  0  0  0  0  0  0  0  0
  -24.8740  -12.0230   20.6540 C   0  0  0  0  0  0  0  0  0  0  0  0
  -26.4790  -13.3080   20.0510 N   0  0  0  0  0  0  0  0  0  0  0  0
  -26.1630  -12.0170   20.3310 N   0  0  0  0  0  0  0  0  0  0  0  0
  -24.1780  -10.7460   20.8580 C   0  0  0  0  0  0  0  0  0  0  0  0
  -24.5860   -9.8310   21.8530 C   0  0  0  0  0  3  0  0  0  0  0  0
  -23.8870   -8.6190   22.0430 C   0  0  0  0  0  3  0  0  0  0  0  0
  -22.7610   -8.3140   21.2380 C   0  0  0  0  0  0  0  0  0  0  0  0
  -22.3730   -9.2180   20.2360 C   0  0  0  0  0  3  0  0  0  0  0  0
  -23.0750  -10.4210   20.0430 C   0  0  0  0  0  3  0  0  0  0  0  0
  -22.0410   -7.1490   21.3330 O   0  0  0  0  0  0  0  0  0  0  0  0
  -21.8930   -6.4880   22.5270 C   0  0  0  0  0  0  0  0  0  0  0  0
  -21.3380   -7.1180   23.6610 C   0  0  0  0  0  3  0  0  0  0  0  0
  -21.1380   -6.3820   24.8480 C   0  0  0  0  0  3  0  0  0  0  0  0
  -21.4820   -5.0190   24.8980 C   0  0  0  0  0  0  0  0  0  0  0  0
  -22.0330   -4.3900   23.7670 C   0  0  0  0  0  3  0  0  0  0  0  0
  -22.2340   -5.1220   22.5840 C   0  0  0  0  0  0  0  0  0  0  0  0
  -22.7420   -4.5050   21.4890 F   0  0  0  0  0  0  0  0  0  0  0  0
  -21.2850   -4.3100   26.0340 F   0  0  0  0  0  0  0  0  0  0  0  0
  -22.9700  -13.8100   20.9580 C   0  0  0  0  0  0  0  0  0  0  0  0
  -22.2770  -13.1270   21.8620 N   0  0  0  0  0  0  0  0  0  0  0  0
  -22.4970  -14.8020   20.4090 O   0  0  0  0  0  0  0  0  0  0  0  0
  -22.6700  -12.3240   22.3310 H   0  0  0  0  0  0  0  0  0  0  0  0
  -21.3360  -13.4120   22.0910 H   0  0  0  0  0  0  0  0  0  0  0  0
  -25.5480  -15.5340   20.1200 N   0  0  0  0  0  0  0  0  0  0  0  0
  -24.7650  -16.1670   20.2420 H   0  0  0  0  0  0  0  0  0  0  0  0
  -26.3860  -15.9990   19.8030 H   0  0  0  0  0  0  0  0  0  0  0  0
  -29.5370  -18.6490   17.9050 C   0  0  0  0  0  0  0  0  0  0  0  0
  -28.4650  -18.2450   17.2080 N   0  0  0  0  0  0  0  0  0  0  0  0
  -30.6790  -18.6210   17.4360 O   0  0  0  0  0  0  0  0  0  0  0  0
  -27.5380  -18.2900   17.6140 H   0  0  0  0  0  0  0  0  0  0  0  0
  -28.5930  -17.7570   15.9060 N   0  0  0  0  0  0  0  0  0  0  0  0
  -28.5130  -16.7390   15.9170 H   0  0  0  0  0  0  0  0  0  0  0  0
  -29.5280  -17.9890   15.5610 H   0  0  0  0  0  0  0  0  0  0  0  0
  -29.4250  -23.3040   20.4530 C   0  0  0  0  0  3  0  0  0  0  0  0
  -31.4760  -24.9130   20.5460 C   0  0  0  0  0  1  0  0  0  0  0  0
  -30.8290  -23.6080   21.0350 C   0  0  0  0  0  2  0  0  0  0  0  0
  -28.3490  -24.6540   20.7860 C   0  0  0  0  0  2  0  0  0  0  0  0
  -28.5330  -26.2440   20.5380 O   0  0  0  0  0  0  0  0  0  0  0  0
  -24.7450  -32.0130   23.4210 C   0  0  0  0  0  0  0  0  0  0  0  0
  -27.4720  -27.2590   20.4810 C   0  0  0  0  0  0  0  0  0  0  0  0
  -23.6200  -30.6040   21.7420 C   0  0  0  0  0  3  0  0  0  0  0  0
  -25.1350  -29.0420   20.3610 C   0  0  0  0  0  0  0  0  0  0  0  0
  -26.1790  -30.8860   21.6610 C   0  0  0  0  0  2  0  0  0  0  0  0
  -26.2920  -29.4860   21.0120 C   0  0  0  0  0  0  0  0  0  0  0  0
  -27.4610  -28.6150   21.0450 C   0  0  0  0  0  3  0  0  0  0  0  0
  -26.2840  -26.9430   19.7840 C   0  0  0  0  0  3  0  0  0  0  0  0
  -25.1500  -27.7880   19.7300 C   0  0  0  0  0  3  0  0  0  0  0  0
  -23.8970  -29.9310   20.3710 C   0  0  0  0  0  2  0  0  0  0  0  0
  -24.8670  -31.1930   22.3300 N   0  0  0  0  0  0  0  0  0  0  0  0
  -23.6380  -32.2790   23.9140 O   0  0  0  0  0  0  0  0  0  0  0  0
  -22.9230  -29.5890   22.6840 C   0  0  0  0  0  0  0  0  0  0  0  0
  -21.6020  -29.3930   22.5150 N   0  0  0  0  0  0  0  0  0  0  0  0
  -23.5760  -28.9750   23.5310 O   0  0  0  0  0  0  0  0  0  0  0  0
  -21.1280  -29.9400   21.8100 H   0  0  0  0  0  0  0  0  0  0  0  0
  -18.2260  -28.1400   22.9320 C   0  0  0  0  0  0  0  0  0  0  0  0
  -20.7750  -28.4380   23.2590 C   0  0  0  0  0  3  0  0  0  0  0  0
  -20.9100  -27.0120   22.6770 C   0  0  0  0  0  2  0  0  0  0  0  0
  -19.8360  -26.6820   21.6330 C   0  0  0  0  0  2  0  0  0  0  0  0
  -18.4380  -26.8000   22.2460 C   0  0  0  0  0  2  0  0  0  0  0  0
  -19.3230  -28.9150   23.3930 C   0  0  0  0  0  0  0  0  0  0  0  0
  -19.0690  -30.1670   23.9960 C   0  0  0  0  0  3  0  0  0  0  0  0
  -17.7520  -30.6440   24.1400 C   0  0  0  0  0  3  0  0  0  0  0  0
  -16.6700  -29.8650   23.6920 C   0  0  0  0  0  3  0  0  0  0  0  0
  -16.9080  -28.6140   23.0940 C   0  0  0  0  0  3  0  0  0  0  0  0
  -25.9910  -32.6720   24.0900 C   0  0  0  0  0  3  0  0  0  0  0  0
  -25.6450  -34.0690   24.4080 N   0  0  0  0  0  0  0  0  0  0  0  0
  -25.9860  -35.1300   23.6650 C   0  0  0  0  0  0  0  0  0  0  0  0
  -26.6890  -35.0380   22.6540 O   0  0  0  0  0  0  0  0  0  0  0  0
  -25.0260  -34.2120   25.1910 H   0  0  0  0  0  0  0  0  0  0  0  0
  -24.2500  -36.9090   23.2650 C   0  0  0  0  0  1  0  0  0  0  0  0
  -25.4710  -36.5130   24.1120 C   0  0  0  0  0  3  0  0  0  0  0  0
  -27.5690  -37.4230   25.0100 C   0  0  0  0  0  1  0  0  0  0  0  0
  -26.4950  -37.5790   24.0330 N   0  0  0  0  0  0  0  0  0  0  0  0
  -26.0740  -38.4940   24.1660 H   0  0  0  0  0  0  0  0  0  0  0  0
  -26.4640  -31.9180   25.3940 C   0  0  1  0  0  0  0  0  0  0  0  0
  -25.3240  -31.6370   26.3990 C   0  0  0  0  0  1  0  0  0  0  0  0
  -27.1190  -30.5630   25.0390 C   0  0  0  0  0  1  0  0  0  0  0  0
  -27.5450  -32.7540   26.1180 C   0  0  0  0  0  1  0  0  0  0  0  0
  1  2  1  0
  3  4  1  0
  3  6  1  0
  4 46  1  0
  4  5  1  0
  5 16  1  0
  5  1  1  0
  6  7  1  1
  6  2  1  0
  8 16  1  0
  9 14  1  0
 10 11  1  0
 10  9  1  0
 12 11  1  0
 12 21  1  0
 12 13  1  0
 14  8  1  0
 14 13  1  0
 15  8  2  0
 16 17  1  0
 18 19  2  0
 19 38  1  0
 20 19  1  0
 20 23  1  0
 21 18  1  0
 21 22  1  0
 22 20  2  0
 23 24  1  0
 24 25  2  0
 26 29  1  0
 26 25  1  0
 27 26  2  0
 28 27  1  0
 28 23  2  0
 29 30  1  0
 30 35  2  0
 30 31  1  0
 31 32  2  0
 32 33  1  0
 33 37  1  0
 34 33  2  0
 35 34  1  0
 36 35  1  0
 38 39  1  0
 39 42  1  0
 39 41  1  0
 40 38  2  0
 43 44  1  0
 43 18  1  0
 45 43  1  0
 47 49  1  0
 47 46  1  0
 48 46  2  0
 50 51  1  0
 50 47  1  0
 52 50  1  0
 53  6  1  0
 53 56  1  0
 53 55  1  0
 54 55  1  0
 57 56  1  0
 58 69  2  0
 59 57  1  0
 59 64  1  0
 60 68  1  0
 60 70  1  0
 61 67  1  0
 61 63  1  0
 62 68  1  0
 63 64  2  0
 63 62  1  0
 65 59  2  0
 66 65  1  0
 66 61  2  0
 67 60  1  0
 68 58  1  0
 70 72  2  0
 71 70  1  0
 73 71  1  0
 74 83  2  0
 74 79  1  0
 75 71  1  0
 75 79  1  0
 76 75  1  0
 77 78  1  0
 77 76  1  0
 78 74  1  0
 79 80  2  0
 80 81  1  0
 82 81  2  0
 83 82  1  0
 84 58  1  0
 84 85  1  0
 84 94  1  0
 85 88  1  0
 86 90  1  0
 86 85  1  0
 87 86  2  0
 90 89  1  0
 92 90  1  0
 92 93  1  0
 92 91  1  0
 94 97  1  1
 94 95  1  0
 96 94  1  0
M  ISO  4   8 100  16 100  56 101  57 101
M  END
>  <TORSDO>  (38) 
F 21

>  <SCORE>  (38) 
-12.644

>  <name>  (38) 
39

>  <ligand_id>  (38) 
39

>  <original_smiles>  (38) 
[H]c1c([H])c([H])c2c(c1[H])C([H])([H])C([H])([H])C([H])([H])C2([H])N([H])C(=O)C1([H])N(C(=O)C([H])(N([H])C(=O)C([H])(N([H])C([H])([H])[H])C([H])([H])[H])C(C([H])([H])[H])(C([H])([H])[H])C([H])([H])[H])C([H])([H])c2c([H])c(OC([H])([H])C([H])(C([H])([H])C([H])([H])[H])[N+]3([H])C([H])([H])C([H])([H])C([H])(N([H])C(=O)N4C([H])([H])C([H])([H])C([H])([H])C([H])(n5nc(-c6c([H])c([H])c(Oc7c([H])c([H])c(F)c([H])c7F)c([H])c6[H])c(C(=O)N([H])[H])c5N([H])[H])C4([H])[H])C([H])(C(=O)N([H])N([H])[H])C3([H])[H])c([H])c([H])c2C1([H])[H]

>  <smiles>  (38) 
[H]c1c([H])c([H])c2c(c1[H])C([H])([H])C([H])([H])C([H])([H])C2([H])N([H])C(=O)C1([H])N(C(=O)C([H])(N([H])C(=O)C([H])(N([H])C([H])([H])[H])C([H])([H])[H])C(C([H])([H])[H])(C([H])([H])[H])C([H])([H])[H])C([H])([H])c2c([H])c(OC([H])([H])C([H])(C([H])([H])C([H])([H])[H])[N+]3([H])C([H])([H])C([H])([H])C([H])(N([H])C(=O)N4C([H])([H])C([H])([H])C([H])([H])C([H])(n5nc(-c6c([H])c([H])c(Oc7c([H])c([H])c(F)c([H])c7F)c([H])c6[H])c(C(=O)N([H])[H])c5N([H])[H])C4([H])[H])C([H])(C(=O)N([H])N([H])[H])C3([H])[H])c([H])c([H])c2C1([H])[H]

$$$$
40:0:0
     RDKit          3D

 99108  0  0  1  0  0  0  0  0999 V2000
  -29.7580  -21.4730   17.2930 C   0  0  0  0  0  2  0  0  0  0  0  0
  -28.7450  -20.6820   18.0930 C   0  0  0  0  0  3  0  0  0  0  0  0
  -29.0990  -22.0930   18.5010 C   0  0  0  0  0  3  0  0  0  0  0  0
  -29.1200  -19.4450   20.2810 C   0  0  0  0  0  3  0  0  0  0  0  0
  -29.4570  -18.2930   21.0190 C   0  0  0  0  0  3  0  0  0  0  0  0
  -29.8540  -17.1080   18.9400 C   0  0  0  0  0  3  0  0  0  0  0  0
  -29.5260  -18.2540   18.1920 C   0  0  0  0  0  0  0  0  0  0  0  0
  -29.1510  -19.4490   18.8640 C   0  0  0  0  0  0  0  0  0  0  0  0
  -29.8420  -17.1150   20.3520 C   0  0  0  0  0  0  0  0  0  0  0  0
  -30.8970  -14.9500   20.5830 C   0  0  0  0  0  0  0  0  0  0  0  0
  -30.6490  -12.8540   19.3290 C   0  0  0  0  0  2  0  0  0  0  0  0
  -29.7240  -13.1180   18.1200 C   0  0  0  0  0  2  0  0  0  0  0  0
  -28.2390  -12.9870   18.5140 C   0  0  0  0  0  2  0  0  0  0  0  0
  -27.8810  -13.7480   19.8200 C   0  0  0  0  0  3  0  0  0  0  0  0
  -28.9140  -13.4380   20.9290 C   0  0  0  0  0  2  0  0  0  0  0  0
  -30.2540  -13.7660   20.4120 N   0  0  0  0  0  0  0  0  0  0  0  0
  -32.0290  -15.1860   20.1480 O   0  0  0  0  0  0  0  0  0  0  0  0
  -30.1330  -15.9320   21.0830 N   0  0  0  0  0  0  0  0  0  0  0  0
  -29.3750  -15.6060   21.6640 H   0  0  0  0  0  0  0  0  0  0  0  0
  -25.4490  -14.3160   20.4520 C   0  0  0  0  0  0  0  0  0  0  0  0
  -24.3820  -13.5240   20.7860 C   0  0  0  0  0  0  0  0  0  0  0  0
  -24.8670  -12.1810   20.7630 C   0  0  0  0  0  0  0  0  0  0  0  0
  -26.5160  -13.4540   20.2530 N   0  0  0  0  0  0  0  0  0  0  0  0
  -26.1670  -12.1650   20.4930 N   0  0  0  0  0  0  0  0  0  0  0  0
  -24.1600  -10.9030   20.9220 C   0  0  0  0  0  0  0  0  0  0  0  0
  -24.5870   -9.9360   21.8580 C   0  0  0  0  0  3  0  0  0  0  0  0
  -23.8820   -8.7220   22.0080 C   0  0  0  0  0  3  0  0  0  0  0  0
  -22.7340   -8.4680   21.2210 C   0  0  0  0  0  0  0  0  0  0  0  0
  -22.3270   -9.4240   20.2740 C   0  0  0  0  0  3  0  0  0  0  0  0
  -23.0330  -10.6290   20.1220 C   0  0  0  0  0  3  0  0  0  0  0  0
  -22.0010   -7.3070   21.2770 O   0  0  0  0  0  0  0  0  0  0  0  0
  -21.8910   -6.5820   22.4370 C   0  0  0  0  0  0  0  0  0  0  0  0
  -21.3530   -7.1420   23.6160 C   0  0  0  0  0  3  0  0  0  0  0  0
  -21.1940   -6.3410   24.7660 C   0  0  0  0  0  3  0  0  0  0  0  0
  -21.5630   -4.9830   24.7350 C   0  0  0  0  0  0  0  0  0  0  0  0
  -22.0940   -4.4230   23.5600 C   0  0  0  0  0  3  0  0  0  0  0  0
  -22.2550   -5.2210   22.4140 C   0  0  0  0  0  0  0  0  0  0  0  0
  -22.7480   -4.6720   21.2780 F   0  0  0  0  0  0  0  0  0  0  0  0
  -21.4040   -4.2110   25.8370 F   0  0  0  0  0  0  0  0  0  0  0  0
  -22.9680  -13.9740   21.0210 C   0  0  0  0  0  0  0  0  0  0  0  0
  -22.2420  -13.2870   21.8960 N   0  0  0  0  0  0  0  0  0  0  0  0
  -22.5130  -14.9700   20.4600 O   0  0  0  0  0  0  0  0  0  0  0  0
  -22.6240  -12.4820   22.3730 H   0  0  0  0  0  0  0  0  0  0  0  0
  -21.2930  -13.5710   22.0950 H   0  0  0  0  0  0  0  0  0  0  0  0
  -25.5960  -15.6890   20.2830 N   0  0  0  0  0  0  0  0  0  0  0  0
  -24.8180  -16.3350   20.3650 H   0  0  0  0  0  0  0  0  0  0  0  0
  -26.4520  -16.1360   19.9760 H   0  0  0  0  0  0  0  0  0  0  0  0
  -29.5360  -18.1260   16.6940 C   0  0  0  0  0  0  0  0  0  0  0  0
  -30.6790  -18.8140   14.6130 C   0  0  0  0  0  1  0  0  0  0  0  0
  -30.4840  -18.8150   16.0550 N   0  0  0  0  0  0  0  0  0  0  0  0
  -28.7400  -17.3810   16.1190 O   0  0  0  0  0  0  0  0  0  0  0  0
  -31.1090  -19.3720   16.6220 H   0  0  0  0  0  0  0  0  0  0  0  0
  -28.0570  -23.1830   18.3560 C   0  0  0  0  0  2  0  0  0  0  0  0
  -28.9590  -25.1430   19.5830 C   0  0  0  0  0  0  0  0  0  0  0  0
  -28.5700  -24.5410   18.4560 N   0  0  0  0  0  0  0  0  0  0  0  0
  -28.9370  -24.5850   20.6850 O   0  0  0  0  0  0  0  0  0  0  0  0
  -28.6130  -25.0810   17.6020 H   0  0  0  0  0  0  0  0  0  0  0  0
  -29.4270  -26.5950   19.4420 C   0  0  0  0  0  2  0  0  0  0  0  0
  -29.0180  -27.3750   20.5640 O   0  0  0  0  0  0  0  0  0  0  0  0
  -24.7720  -32.1520   23.6080 C   0  0  0  0  0  0  0  0  0  0  0  0
  -27.7800  -27.9740   20.5200 C   0  0  0  0  0  0  0  0  0  0  0  0
  -23.7070  -30.7380   21.8780 C   0  0  0  0  0  3  0  0  0  0  0  0
  -25.2960  -29.3170   20.4780 C   0  0  0  0  0  0  0  0  0  0  0  0
  -26.2130  -31.2350   21.7990 C   0  0  0  0  0  2  0  0  0  0  0  0
  -26.3930  -29.8890   21.1350 C   0  0  0  0  0  0  0  0  0  0  0  0
  -27.6290  -29.2150   21.1700 C   0  0  0  0  0  3  0  0  0  0  0  0
  -26.6630  -27.4010   19.8640 C   0  0  0  0  0  3  0  0  0  0  0  0
  -25.4240  -28.0680   19.8460 C   0  0  0  0  0  3  0  0  0  0  0  0
  -24.0070  -30.1050   20.4930 C   0  0  0  0  0  2  0  0  0  0  0  0
  -24.9110  -31.3900   22.4870 N   0  0  0  0  0  0  0  0  0  0  0  0
  -23.6570  -32.3550   24.1070 O   0  0  0  0  0  0  0  0  0  0  0  0
  -23.0710  -29.6590   22.7830 C   0  0  0  0  0  0  0  0  0  0  0  0
  -21.7750  -29.3850   22.5610 N   0  0  0  0  0  0  0  0  0  0  0  0
  -23.7420  -29.0710   23.6350 O   0  0  0  0  0  0  0  0  0  0  0  0
  -21.2960  -29.9150   21.8460 H   0  0  0  0  0  0  0  0  0  0  0  0
  -18.4690  -27.9490   22.8040 C   0  0  0  0  0  0  0  0  0  0  0  0
  -20.9750  -28.3810   23.2620 C   0  0  0  0  0  3  0  0  0  0  0  0
  -21.2220  -26.9700   22.6810 C   0  0  0  0  0  2  0  0  0  0  0  0
  -20.2190  -26.5840   21.5880 C   0  0  0  0  0  2  0  0  0  0  0  0
  -18.7870  -26.6250   22.1310 C   0  0  0  0  0  2  0  0  0  0  0  0
  -19.4970  -28.7810   23.3190 C   0  0  0  0  0  0  0  0  0  0  0  0
  -19.1500  -30.0190   23.9030 C   0  0  0  0  0  3  0  0  0  0  0  0
  -17.8060  -30.4270   23.9790 C   0  0  0  0  0  3  0  0  0  0  0  0
  -16.7900  -29.5910   23.4830 C   0  0  0  0  0  3  0  0  0  0  0  0
  -17.1220  -28.3550   22.9000 C   0  0  0  0  0  3  0  0  0  0  0  0
  -25.9990  -32.8260   24.3000 C   0  0  0  0  0  3  0  0  0  0  0  0
  -25.6670  -34.2410   24.5090 N   0  0  0  0  0  0  0  0  0  0  0  0
  -26.0540  -35.2390   23.7030 C   0  0  0  0  0  0  0  0  0  0  0  0
  -26.7980  -35.0680   22.7340 O   0  0  0  0  0  0  0  0  0  0  0  0
  -25.0220  -34.4490   25.2570 H   0  0  0  0  0  0  0  0  0  0  0  0
  -24.3450  -36.9810   23.1020 C   0  0  0  0  0  1  0  0  0  0  0  0
  -25.5300  -36.6530   24.0240 C   0  0  0  0  0  3  0  0  0  0  0  0
  -27.5940  -37.6150   24.9350 C   0  0  0  0  0  1  0  0  0  0  0  0
  -26.5630  -37.7040   23.9040 N   0  0  0  0  0  0  0  0  0  0  0  0
  -26.1450  -38.6290   23.9510 H   0  0  0  0  0  0  0  0  0  0  0  0
  -26.3990  -32.1410   25.6640 C   0  0  1  0  0  0  0  0  0  0  0  0
  -25.2030  -31.9040   26.6160 C   0  0  0  0  0  1  0  0  0  0  0  0
  -27.0790  -30.7760   25.4090 C   0  0  0  0  0  1  0  0  0  0  0  0
  -27.4320  -33.0210   26.4090 C   0  0  0  0  0  1  0  0  0  0  0  0
  1  2  1  0
  1  3  1  0
  2  3  1  0
  2  8  1  0
  3 53  1  0
  4  5  1  0
  6  9  1  0
  7  8  1  0
  7  6  2  0
  8  4  2  0
  9  5  2  0
  9 18  1  0
 10 18  1  0
 11 16  1  0
 12 13  1  0
 12 11  1  0
 14 13  1  0
 14 23  1  0
 14 15  1  0
 16 10  1  0
 16 15  1  0
 17 10  2  0
 18 19  1  0
 20 21  2  0
 21 40  1  0
 22 21  1  0
 22 25  1  0
 23 20  1  0
 23 24  1  0
 24 22  2  0
 25 26  1  0
 26 27  2  0
 28 31  1  0
 28 27  1  0
 29 28  2  0
 30 29  1  0
 30 25  2  0
 31 32  1  0
 32 33  1  0
 33 34  2  0
 35 34  1  0
 35 39  1  0
 36 35  2  0
 37 32  2  0
 37 36  1  0
 38 37  1  0
 40 41  1  0
 41 44  1  0
 41 43  1  0
 42 40  2  0
 45 46  1  0
 45 20  1  0
 47 45  1  0
 48  7  1  0
 49 50  1  0
 50 52  1  0
 50 48  1  0
 51 48  2  0
 53 55  1  0
 54 56  2  0
 55 54  1  0
 57 55  1  0
 58 54  1  0
 58 59  1  0
 60 71  2  0
 61 59  1  0
 61 66  1  0
 62 70  1  0
 62 72  1  0
 63 69  1  0
 63 65  1  0
 64 70  1  0
 65 66  2  0
 65 64  1  0
 67 61  2  0
 68 67  1  0
 68 63  2  0
 69 62  1  0
 70 60  1  0
 72 74  2  0
 73 72  1  0
 75 73  1  0
 76 85  2  0
 76 81  1  0
 77 73  1  0
 77 81  1  0
 78 77  1  0
 79 80  1  0
 79 78  1  0
 80 76  1  0
 81 82  2  0
 82 83  1  0
 84 83  2  0
 85 84  1  0
 86 60  1  0
 86 87  1  0
 86 96  1  0
 87 90  1  0
 88 92  1  0
 88 87  1  0
 89 88  2  0
 92 91  1  0
 94 95  1  0
 94 92  1  0
 94 93  1  0
 96 99  1  1
 96 97  1  0
 98 96  1  0
M  ISO  4  10 100  18 100  58 101  59 101
M  END
>  <TORSDO>  (39) 
F 21

>  <SCORE>  (39) 
-11.013

>  <name>  (39) 
40

>  <ligand_id>  (39) 
40

>  <original_smiles>  (39) 
[H]c1c([H])c([H])c2c(c1[H])C([H])([H])C([H])([H])C([H])([H])C2([H])N([H])C(=O)C1([H])N(C(=O)C([H])(N([H])C(=O)C([H])(N([H])C([H])([H])[H])C([H])([H])[H])C(C([H])([H])[H])(C([H])([H])[H])C([H])([H])[H])C([H])([H])c2c([H])c(OC([H])([H])C(=O)N([H])C([H])([H])C3([H])C([H])([H])C3([H])c3c([H])c([H])c(N([H])C(=O)N4C([H])([H])C([H])([H])C([H])([H])C([H])(n5nc(-c6c([H])c([H])c(Oc7c([H])c([H])c(F)c([H])c7F)c([H])c6[H])c(C(=O)N([H])[H])c5N([H])[H])C4([H])[H])c([H])c3C(=O)N([H])C([H])([H])[H])c([H])c([H])c2C1([H])[H]

>  <smiles>  (39) 
[H]c1c([H])c([H])c2c(c1[H])C([H])([H])C([H])([H])C([H])([H])C2([H])N([H])C(=O)C1([H])N(C(=O)C([H])(N([H])C(=O)C([H])(N([H])C([H])([H])[H])C([H])([H])[H])C(C([H])([H])[H])(C([H])([H])[H])C([H])([H])[H])C([H])([H])c2c([H])c(OC([H])([H])C(=O)N([H])C([H])([H])C3([H])C([H])([H])C3([H])c3c([H])c([H])c(N([H])C(=O)N4C([H])([H])C([H])([H])C([H])([H])C([H])(n5nc(-c6c([H])c([H])c(Oc7c([H])c([H])c(F)c([H])c7F)c([H])c6[H])c(C(=O)N([H])[H])c5N([H])[H])C4([H])[H])c([H])c3C(=O)N([H])C([H])([H])[H])c([H])c([H])c2C1([H])[H]

$$$$
41:0:0
     RDKit          3D

 94103  0  0  1  0  0  0  0  0999 V2000
  -28.8980  -21.0540   21.5980 C   0  0  0  0  0  2  0  0  0  0  0  0
  -28.7950  -20.5550   20.1790 C   0  0  0  0  0  3  0  0  0  0  0  0
  -29.5310  -21.8680   20.4860 C   0  0  0  0  0  3  0  0  0  0  0  0
  -30.4400  -18.0530   17.7910 C   0  0  0  0  0  3  0  0  0  0  0  0
  -30.5320  -16.8930   18.5740 C   0  0  0  0  0  3  0  0  0  0  0  0
  -29.6050  -18.1120   20.4720 C   0  0  0  0  0  3  0  0  0  0  0  0
  -29.4770  -19.2880   19.6780 C   0  0  0  0  0  0  0  0  0  0  0  0
  -29.8990  -19.2370   18.3250 C   0  0  0  0  0  0  0  0  0  0  0  0
  -30.1170  -16.9020   19.9280 C   0  0  0  0  0  0  0  0  0  0  0  0
  -29.7370  -20.4440   17.4160 C   0  0  0  0  0  1  0  0  0  0  0  0
  -30.8560  -14.6020   20.4260 C   0  0  0  0  0  0  0  0  0  0  0  0
  -30.5570  -12.4370   19.3300 C   0  0  0  0  0  2  0  0  0  0  0  0
  -29.6330  -12.6350   18.1090 C   0  0  0  0  0  2  0  0  0  0  0  0
  -28.1590  -12.4880   18.5280 C   0  0  0  0  0  2  0  0  0  0  0  0
  -27.7980  -13.3610   19.7610 C   0  0  0  0  0  3  0  0  0  0  0  0
  -28.8370  -13.1770   20.8940 C   0  0  0  0  0  2  0  0  0  0  0  0
  -30.1770  -13.4320   20.3410 N   0  0  0  0  0  0  0  0  0  0  0  0
  -32.0320  -14.7200   20.0700 O   0  0  0  0  0  0  0  0  0  0  0  0
  -30.1130  -15.6920   20.6960 N   0  0  0  0  0  0  0  0  0  0  0  0
  -29.2570  -15.5110   21.1980 H   0  0  0  0  0  0  0  0  0  0  0  0
  -25.3870  -13.9870   20.4200 C   0  0  0  0  0  0  0  0  0  0  0  0
  -24.3090  -13.2240   20.7780 C   0  0  0  0  0  0  0  0  0  0  0  0
  -24.7670  -11.8720   20.7890 C   0  0  0  0  0  0  0  0  0  0  0  0
  -26.4350  -13.1000   20.2270 N   0  0  0  0  0  0  0  0  0  0  0  0
  -26.0650  -11.8250   20.5110 N   0  0  0  0  0  0  0  0  0  0  0  0
  -24.0360  -10.6150   20.9850 C   0  0  0  0  0  0  0  0  0  0  0  0
  -24.4540   -9.6610   21.9400 C   0  0  0  0  0  3  0  0  0  0  0  0
  -23.7230   -8.4670   22.1230 C   0  0  0  0  0  3  0  0  0  0  0  0
  -22.5630   -8.2190   21.3510 C   0  0  0  0  0  0  0  0  0  0  0  0
  -22.1650   -9.1620   20.3860 C   0  0  0  0  0  3  0  0  0  0  0  0
  -22.8970  -10.3470   20.2000 C   0  0  0  0  0  3  0  0  0  0  0  0
  -21.8060   -7.0750   21.4410 O   0  0  0  0  0  0  0  0  0  0  0  0
  -21.7430   -6.3420   22.5990 C   0  0  0  0  0  0  0  0  0  0  0  0
  -21.2870   -6.9050   23.8130 C   0  0  0  0  0  3  0  0  0  0  0  0
  -21.1670   -6.0980   24.9620 C   0  0  0  0  0  3  0  0  0  0  0  0
  -21.4980   -4.7310   24.9020 C   0  0  0  0  0  0  0  0  0  0  0  0
  -21.9500   -4.1690   23.6960 C   0  0  0  0  0  3  0  0  0  0  0  0
  -22.0660   -4.9710   22.5470 C   0  0  0  0  0  0  0  0  0  0  0  0
  -22.4810   -4.4180   21.3810 F   0  0  0  0  0  0  0  0  0  0  0  0
  -21.3770   -3.9570   26.0050 F   0  0  0  0  0  0  0  0  0  0  0  0
  -22.9070  -13.7110   21.0110 C   0  0  0  0  0  0  0  0  0  0  0  0
  -22.1570  -13.0340   21.8750 N   0  0  0  0  0  0  0  0  0  0  0  0
  -22.4800  -14.7240   20.4610 O   0  0  0  0  0  0  0  0  0  0  0  0
  -22.5120  -12.2160   22.3470 H   0  0  0  0  0  0  0  0  0  0  0  0
  -21.2150  -13.3420   22.0660 H   0  0  0  0  0  0  0  0  0  0  0  0
  -25.5560  -15.3550   20.2220 N   0  0  0  0  0  0  0  0  0  0  0  0
  -24.7800  -16.0040   20.2840 H   0  0  0  0  0  0  0  0  0  0  0  0
  -26.4180  -15.8000   19.9330 H   0  0  0  0  0  0  0  0  0  0  0  0
  -29.3380  -24.3660   20.3560 C   0  0  0  0  0  0  0  0  0  0  0  0
  -28.9170  -23.1120   20.0740 N   0  0  0  0  0  0  0  0  0  0  0  0
  -30.2350  -24.5930   21.1740 O   0  0  0  0  0  0  0  0  0  0  0  0
  -28.1730  -23.0400   19.3900 H   0  0  0  0  0  0  0  0  0  0  0  0
  -28.6950  -25.5250   19.5450 C   0  0  0  0  0  2  0  0  0  0  0  0
  -28.4980  -26.7500   20.3030 O   0  0  0  0  0  0  0  0  0  0  0  0
  -24.6060  -31.9460   23.2620 C   0  0  0  0  0  0  0  0  0  0  0  0
  -27.3100  -27.4740   20.2230 C   0  0  0  0  0  0  0  0  0  0  0  0
  -23.4280  -30.5240   21.6190 C   0  0  0  0  0  3  0  0  0  0  0  0
  -24.9010  -28.9960   20.2060 C   0  0  0  0  0  0  0  0  0  0  0  0
  -25.9600  -30.8920   21.4480 C   0  0  0  0  0  2  0  0  0  0  0  0
  -26.0580  -29.5290   20.7870 C   0  0  0  0  0  0  0  0  0  0  0  0
  -27.2630  -28.7840   20.7670 C   0  0  0  0  0  3  0  0  0  0  0  0
  -26.1120  -26.9540   19.6720 C   0  0  0  0  0  3  0  0  0  0  0  0
  -24.9260  -27.7110   19.6470 C   0  0  0  0  0  3  0  0  0  0  0  0
  -23.6490  -29.8450   20.2440 C   0  0  0  0  0  2  0  0  0  0  0  0
  -24.6820  -31.1390   22.1650 N   0  0  0  0  0  0  0  0  0  0  0  0
  -23.5160  -32.2150   23.7890 O   0  0  0  0  0  0  0  0  0  0  0  0
  -22.7780  -29.5020   22.5800 C   0  0  0  0  0  0  0  0  0  0  0  0
  -21.4580  -29.3030   22.4330 N   0  0  0  0  0  0  0  0  0  0  0  0
  -23.4580  -28.8890   23.4080 O   0  0  0  0  0  0  0  0  0  0  0  0
  -20.9800  -29.8480   21.7290 H   0  0  0  0  0  0  0  0  0  0  0  0
  -18.0870  -28.0780   22.9030 C   0  0  0  0  0  0  0  0  0  0  0  0
  -20.6380  -28.3600   23.1920 C   0  0  0  0  0  3  0  0  0  0  0  0
  -20.7610  -26.9330   22.6110 C   0  0  0  0  0  2  0  0  0  0  0  0
  -19.6670  -26.5990   21.5900 C   0  0  0  0  0  2  0  0  0  0  0  0
  -18.2810  -26.7310   22.2260 C   0  0  0  0  0  2  0  0  0  0  0  0
  -19.1960  -28.8510   23.3380 C   0  0  0  0  0  0  0  0  0  0  0  0
  -18.9610  -30.1130   23.9280 C   0  0  0  0  0  3  0  0  0  0  0  0
  -17.6500  -30.5990   24.0890 C   0  0  0  0  0  3  0  0  0  0  0  0
  -16.5570  -29.8230   23.6680 C   0  0  0  0  0  3  0  0  0  0  0  0
  -16.7750  -28.5650   23.0790 C   0  0  0  0  0  3  0  0  0  0  0  0
  -25.8830  -32.5900   23.8920 C   0  0  0  0  0  3  0  0  0  0  0  0
  -26.3760  -31.8430   25.1900 C   0  0  1  0  0  0  0  0  0  0  0  0
  -25.2610  -31.6280   26.2380 C   0  0  0  0  0  1  0  0  0  0  0  0
  -26.9670  -30.4580   24.8370 C   0  0  0  0  0  1  0  0  0  0  0  0
  -27.5150  -32.6500   25.8590 C   0  0  0  0  0  1  0  0  0  0  0  0
  -25.5680  -33.9900   24.2000 N   0  0  0  0  0  0  0  0  0  0  0  0
  -25.9000  -35.0340   23.4270 C   0  0  0  0  0  0  0  0  0  0  0  0
  -26.5810  -34.9170   22.4040 O   0  0  0  0  0  0  0  0  0  0  0  0
  -24.9870  -34.1540   25.0080 H   0  0  0  0  0  0  0  0  0  0  0  0
  -24.1720  -36.8080   23.0060 C   0  0  0  0  0  1  0  0  0  0  0  0
  -25.3950  -36.4240   23.8550 C   0  0  0  0  0  3  0  0  0  0  0  0
  -27.5060  -37.3250   24.7290 C   0  0  0  0  0  1  0  0  0  0  0  0
  -26.4280  -37.4800   23.7560 N   0  0  0  0  0  0  0  0  0  0  0  0
  -26.0190  -38.4020   23.8830 H   0  0  0  0  0  0  0  0  0  0  0  0
  2  7  1  0
  2  3  1  0
  2  1  1  0
  3 50  1  0
  3  1  1  0
  4  8  2  0
  4  5  1  0
  5  9  2  0
  7  6  2  0
  8  7  1  0
  9  6  1  0
  9 19  1  0
 10  8  1  0
 11 19  1  0
 12 17  1  0
 13 14  1  0
 13 12  1  0
 15 14  1  0
 15 24  1  0
 15 16  1  0
 17 11  1  0
 17 16  1  0
 18 11  2  0
 19 20  1  0
 21 22  2  0
 22 23  1  0
 22 41  1  0
 23 26  1  0
 24 21  1  0
 24 25  1  0
 25 23  2  0
 26 27  1  0
 27 28  2  0
 29 32  1  0
 29 28  1  0
 30 29  2  0
 31 30  1  0
 31 26  2  0
 32 33  1  0
 33 34  1  0
 34 35  2  0
 36 35  1  0
 36 40  1  0
 37 36  2  0
 38 33  2  0
 38 37  1  0
 39 38  1  0
 41 42  1  0
 42 45  1  0
 42 44  1  0
 43 41  2  0
 46 47  1  0
 46 21  1  0
 48 46  1  0
 49 51  2  0
 50 49  1  0
 52 50  1  0
 53 54  1  0
 53 49  1  0
 55 66  2  0
 56 54  1  0
 56 61  1  0
 57 65  1  0
 57 67  1  0
 58 64  1  0
 58 60  1  0
 59 65  1  0
 60 59  1  0
 61 60  2  0
 62 56  2  0
 63 62  1  0
 63 58  2  0
 64 57  1  0
 65 55  1  0
 67 69  2  0
 68 67  1  0
 70 68  1  0
 71 80  2  0
 71 76  1  0
 72 68  1  0
 72 76  1  0
 73 72  1  0
 74 75  1  0
 74 73  1  0
 75 71  1  0
 76 77  2  0
 77 78  1  0
 79 78  2  0
 80 79  1  0
 81 55  1  0
 81 86  1  0
 81 82  1  0
 82 85  1  1
 82 83  1  0
 84 82  1  0
 86 89  1  0
 87 91  1  0
 87 86  1  0
 88 87  2  0
 91 90  1  0
 93 91  1  0
 93 94  1  0
 93 92  1  0
M  ISO  4  11 100  19 100  53 101  54 101
M  END
>  <TORSDO>  (40) 
F 19

>  <SCORE>  (40) 
-14.265

>  <name>  (40) 
41

>  <ligand_id>  (40) 
41

>  <original_smiles>  (40) 
[H]c1c([H])c([H])c2c(c1[H])C([H])([H])C([H])([H])C([H])([H])C2([H])N([H])C(=O)C1([H])N(C(=O)C([H])(N([H])C(=O)C([H])(N([H])C([H])([H])[H])C([H])([H])[H])C(C([H])([H])[H])(C([H])([H])[H])C([H])([H])[H])C([H])([H])c2c([H])c(OC([H])([H])C(=O)N([H])C3([H])C([H])([H])C3([H])c3c([H])c(N([H])C(=O)N4C([H])([H])C([H])([H])C([H])([H])C([H])(n5nc(-c6c([H])c([H])c(Oc7c([H])c([H])c(F)c([H])c7F)c([H])c6[H])c(C(=O)N([H])[H])c5N([H])[H])C4([H])[H])c([H])c([H])c3C([H])([H])[H])c([H])c([H])c2C1([H])[H]

>  <smiles>  (40) 
[H]c1c([H])c([H])c2c(c1[H])C([H])([H])C([H])([H])C([H])([H])C2([H])N([H])C(=O)C1([H])N(C(=O)C([H])(N([H])C(=O)C([H])(N([H])C([H])([H])[H])C([H])([H])[H])C(C([H])([H])[H])(C([H])([H])[H])C([H])([H])[H])C([H])([H])c2c([H])c(OC([H])([H])C(=O)N([H])C3([H])C([H])([H])C3([H])c3c([H])c(N([H])C(=O)N4C([H])([H])C([H])([H])C([H])([H])C([H])(n5nc(-c6c([H])c([H])c(Oc7c([H])c([H])c(F)c([H])c7F)c([H])c6[H])c(C(=O)N([H])[H])c5N([H])[H])C4([H])[H])c([H])c([H])c3C([H])([H])[H])c([H])c([H])c2C1([H])[H]

$$$$
42:0:0
     RDKit          3D

 93101  0  0  1  0  0  0  0  0999 V2000
  -30.6560  -21.0240   20.0240 C   0  0  0  0  0  3  0  0  0  0  0  0
  -28.7210  -21.7600   20.9440 C   0  0  0  0  0  3  0  0  0  0  0  0
  -29.4190  -20.6200   20.5990 C   0  0  0  0  0  0  0  0  0  0  0  0
  -30.6660  -22.3950   20.0580 C   0  0  0  0  0  0  0  0  0  0  0  0
  -29.5010  -22.8860   20.6390 N   0  0  0  0  0  0  0  0  0  0  0  0
  -28.9620  -19.2860   20.7450 N   0  0  0  0  0  0  0  0  0  0  0  0
  -28.0130  -19.1970   21.1030 H   0  0  0  0  0  0  0  0  0  0  0  0
  -29.8540  -18.1810   21.1650 C   0  0  0  0  0  2  0  0  0  0  0  0
  -29.9690  -16.9990   20.1420 C   0  0  0  0  0  2  0  0  0  0  0  0
  -30.6210  -14.5550   20.3650 C   0  0  0  0  0  0  0  0  0  0  0  0
  -30.3540  -12.3560   19.2740 C   0  0  0  0  0  2  0  0  0  0  0  0
  -29.4120  -12.5460   18.0630 C   0  0  0  0  0  2  0  0  0  0  0  0
  -27.9380  -12.4070   18.4910 C   0  0  0  0  0  2  0  0  0  0  0  0
  -27.6000  -13.2470   19.7530 C   0  0  0  0  0  3  0  0  0  0  0  0
  -28.6570  -13.0470   20.8640 C   0  0  0  0  0  2  0  0  0  0  0  0
  -29.9770  -13.3540   20.2910 N   0  0  0  0  0  0  0  0  0  0  0  0
  -31.7660  -14.7130   19.9340 O   0  0  0  0  0  0  0  0  0  0  0  0
  -29.8480  -15.6230   20.6960 N   0  0  0  0  0  0  0  0  0  0  0  0
  -28.9450  -15.3880   21.0790 H   0  0  0  0  0  0  0  0  0  0  0  0
  -25.2020  -13.8590   20.4580 C   0  0  0  0  0  0  0  0  0  0  0  0
  -24.1330  -13.0910   20.8300 C   0  0  0  0  0  0  0  0  0  0  0  0
  -24.5920  -11.7380   20.8090 C   0  0  0  0  0  0  0  0  0  0  0  0
  -26.2470  -12.9750   20.2330 N   0  0  0  0  0  0  0  0  0  0  0  0
  -25.8830  -11.6950   20.5030 N   0  0  0  0  0  0  0  0  0  0  0  0
  -23.8640  -10.4780   21.0060 C   0  0  0  0  0  0  0  0  0  0  0  0
  -24.2960   -9.5140   21.9430 C   0  0  0  0  0  3  0  0  0  0  0  0
  -23.5690   -8.3190   22.1260 C   0  0  0  0  0  3  0  0  0  0  0  0
  -22.3940   -8.0790   21.3750 C   0  0  0  0  0  0  0  0  0  0  0  0
  -21.9800   -9.0320   20.4280 C   0  0  0  0  0  3  0  0  0  0  0  0
  -22.7090  -10.2190   20.2420 C   0  0  0  0  0  3  0  0  0  0  0  0
  -21.6380   -6.9360   21.4680 O   0  0  0  0  0  0  0  0  0  0  0  0
  -21.5930   -6.1940   22.6220 C   0  0  0  0  0  0  0  0  0  0  0  0
  -21.1760   -6.7520   23.8500 C   0  0  0  0  0  3  0  0  0  0  0  0
  -21.0790   -5.9380   24.9970 C   0  0  0  0  0  3  0  0  0  0  0  0
  -21.3890   -4.5670   24.9150 C   0  0  0  0  0  0  0  0  0  0  0  0
  -21.8000   -4.0090   23.6920 C   0  0  0  0  0  3  0  0  0  0  0  0
  -21.8980   -4.8210   22.5470 C   0  0  0  0  0  0  0  0  0  0  0  0
  -22.2740   -4.2740   21.3660 F   0  0  0  0  0  0  0  0  0  0  0  0
  -21.2880   -3.7820   26.0130 F   0  0  0  0  0  0  0  0  0  0  0  0
  -22.7360  -13.5730   21.0970 C   0  0  0  0  0  0  0  0  0  0  0  0
  -22.0060  -12.8830   21.9670 N   0  0  0  0  0  0  0  0  0  0  0  0
  -22.3020  -14.5960   20.5710 O   0  0  0  0  0  0  0  0  0  0  0  0
  -22.3690  -12.0560   22.4150 H   0  0  0  0  0  0  0  0  0  0  0  0
  -21.0690  -13.1890   22.1880 H   0  0  0  0  0  0  0  0  0  0  0  0
  -25.3700  -15.2280   20.2690 N   0  0  0  0  0  0  0  0  0  0  0  0
  -24.6030  -15.8840   20.3740 H   0  0  0  0  0  0  0  0  0  0  0  0
  -26.2160  -15.6630   19.9260 H   0  0  0  0  0  0  0  0  0  0  0  0
  -31.6380  -23.2510   19.6350 O   0  0  0  0  0  0  0  0  0  0  0  0
  -32.3430  -22.7300   19.2640 H   0  0  0  0  0  0  0  0  0  0  0  0
  -29.2120  -24.3150   20.9570 C   0  0  0  0  0  2  0  0  0  0  0  0
  -28.7220  -24.9450   18.4920 C   0  0  0  0  0  1  0  0  0  0  0  0
  -28.3280  -25.1480   19.9630 C   0  0  0  0  0  3  0  0  0  0  0  0
  -28.3730  -26.5850   20.2470 O   0  0  0  0  0  0  0  0  0  0  0  0
  -24.6050  -31.8750   23.2570 C   0  0  0  0  0  0  0  0  0  0  0  0
  -27.2150  -27.3620   20.1860 C   0  0  0  0  0  0  0  0  0  0  0  0
  -23.3910  -30.4760   21.6210 C   0  0  0  0  0  3  0  0  0  0  0  0
  -24.8350  -28.9300   20.1900 C   0  0  0  0  0  0  0  0  0  0  0  0
  -25.9230  -30.8080   21.4220 C   0  0  0  0  0  2  0  0  0  0  0  0
  -26.0010  -29.4330   20.7810 C   0  0  0  0  0  0  0  0  0  0  0  0
  -27.1910  -28.6570   20.7740 C   0  0  0  0  0  3  0  0  0  0  0  0
  -26.0280  -26.9020   19.5670 C   0  0  0  0  0  3  0  0  0  0  0  0
  -24.8480  -27.6680   19.5770 C   0  0  0  0  0  3  0  0  0  0  0  0
  -23.5960  -29.7980   20.2410 C   0  0  0  0  0  2  0  0  0  0  0  0
  -24.6590  -31.0690   22.1580 N   0  0  0  0  0  0  0  0  0  0  0  0
  -23.5250  -32.1530   23.7990 O   0  0  0  0  0  0  0  0  0  0  0  0
  -22.7360  -29.4590   22.5840 C   0  0  0  0  0  0  0  0  0  0  0  0
  -21.4110  -29.2760   22.4580 N   0  0  0  0  0  0  0  0  0  0  0  0
  -23.4180  -28.8360   23.4040 O   0  0  0  0  0  0  0  0  0  0  0  0
  -20.9220  -29.8310   21.7690 H   0  0  0  0  0  0  0  0  0  0  0  0
  -18.0370  -28.0760   22.9520 C   0  0  0  0  0  0  0  0  0  0  0  0
  -20.5930  -28.3410   23.2310 C   0  0  0  0  0  3  0  0  0  0  0  0
  -20.7020  -26.9080   22.6630 C   0  0  0  0  0  2  0  0  0  0  0  0
  -19.6040  -26.5770   21.6470 C   0  0  0  0  0  2  0  0  0  0  0  0
  -18.2190  -26.7230   22.2850 C   0  0  0  0  0  2  0  0  0  0  0  0
  -19.1530  -28.8420   23.3810 C   0  0  0  0  0  0  0  0  0  0  0  0
  -18.9300  -30.1090   23.9640 C   0  0  0  0  0  3  0  0  0  0  0  0
  -17.6230  -30.6090   24.1220 C   0  0  0  0  0  3  0  0  0  0  0  0
  -16.5220  -29.8390   23.7090 C   0  0  0  0  0  3  0  0  0  0  0  0
  -16.7290  -28.5750   23.1300 C   0  0  0  0  0  3  0  0  0  0  0  0
  -25.8940  -32.5050   23.8730 C   0  0  0  0  0  3  0  0  0  0  0  0
  -25.5910  -33.9050   24.1990 N   0  0  0  0  0  0  0  0  0  0  0  0
  -25.9220  -34.9530   23.4350 C   0  0  0  0  0  0  0  0  0  0  0  0
  -26.5880  -34.8440   22.4010 O   0  0  0  0  0  0  0  0  0  0  0  0
  -25.0020  -34.0640   25.0040 H   0  0  0  0  0  0  0  0  0  0  0  0
  -24.1980  -36.7490   23.0800 C   0  0  0  0  0  1  0  0  0  0  0  0
  -25.4410  -36.3440   23.8880 C   0  0  0  0  0  3  0  0  0  0  0  0
  -27.5810  -37.2260   24.7090 C   0  0  0  0  0  1  0  0  0  0  0  0
  -26.4760  -37.3950   23.7680 N   0  0  0  0  0  0  0  0  0  0  0  0
  -26.0730  -38.3160   23.9150 H   0  0  0  0  0  0  0  0  0  0  0  0
  -26.4130  -31.7350   25.1490 C   0  0  1  0  0  0  0  0  0  0  0  0
  -25.3220  -31.5030   26.2220 C   0  0  0  0  0  1  0  0  0  0  0  0
  -26.9890  -30.3550   24.7580 C   0  0  0  0  0  1  0  0  0  0  0  0
  -27.5680  -32.5260   25.8060 C   0  0  0  0  0  1  0  0  0  0  0  0
  1  4  2  0
  1  3  1  0
  3  6  1  0
  3  2  2  0
  4  5  1  0
  5  2  1  0
  5 50  1  0
  6  7  1  0
  6  8  1  0
  9 18  1  0
  9  8  1  0
 10 18  1  0
 11 16  1  0
 12 13  1  0
 12 11  1  0
 14 13  1  0
 14 23  1  0
 14 15  1  0
 16 10  1  0
 16 15  1  0
 17 10  2  0
 18 19  1  0
 20 21  2  0
 21 40  1  0
 22 21  1  0
 22 25  1  0
 23 20  1  0
 23 24  1  0
 24 22  2  0
 25 26  1  0
 26 27  2  0
 28 31  1  0
 28 27  1  0
 29 28  2  0
 30 29  1  0
 30 25  2  0
 31 32  1  0
 32 33  1  0
 33 34  2  0
 35 34  1  0
 35 39  1  0
 36 35  2  0
 37 32  2  0
 37 36  1  0
 38 37  1  0
 40 41  1  0
 41 44  1  0
 41 43  1  0
 42 40  2  0
 45 46  1  0
 45 20  1  0
 47 45  1  0
 48  4  1  0
 49 48  1  0
 52 51  1  0
 52 53  1  0
 52 50  1  0
 54 65  2  0
 55 53  1  0
 55 60  1  0
 56 64  1  0
 56 66  1  0
 57 63  1  0
 57 59  1  0
 58 64  1  0
 59 58  1  0
 60 59  2  0
 61 62  1  0
 61 55  2  0
 62 57  2  0
 63 56  1  0
 64 54  1  0
 66 68  2  0
 67 66  1  0
 69 67  1  0
 70 79  2  0
 70 75  1  0
 71 67  1  0
 71 75  1  0
 72 71  1  0
 73 74  1  0
 73 72  1  0
 74 70  1  0
 75 76  2  0
 76 77  1  0
 78 77  2  0
 79 78  1  0
 80 54  1  0
 80 81  1  0
 80 90  1  0
 81 84  1  0
 82 86  1  0
 82 81  1  0
 83 82  2  0
 86 85  1  0
 88 86  1  0
 88 89  1  0
 88 87  1  0
 90 93  1  1
 90 91  1  0
 92 90  1  0
M  ISO  4  10 100  18 100  52 101  53 101
M  END
>  <TORSDO>  (41) 
F 22

>  <SCORE>  (41) 
-13.352

>  <name>  (41) 
42

>  <ligand_id>  (41) 
42

>  <original_smiles>  (41) 
[H]Oc1c([H])c(N([H])C([H])([H])C([H])([H])N([H])C(=O)N2C([H])([H])C([H])([H])C([H])([H])C([H])(n3nc(-c4c([H])c([H])c(Oc5c([H])c([H])c(F)c([H])c5F)c([H])c4[H])c(C(=O)N([H])[H])c3N([H])[H])C2([H])[H])c([H])n1C([H])([H])C([H])(Oc1c([H])c([H])c2c(c1[H])C([H])([H])N(C(=O)C([H])(N([H])C(=O)C([H])(N([H])C([H])([H])[H])C([H])([H])[H])C(C([H])([H])[H])(C([H])([H])[H])C([H])([H])[H])C([H])(C(=O)N([H])C1([H])c3c([H])c([H])c([H])c([H])c3C([H])([H])C([H])([H])C1([H])[H])C2([H])[H])C([H])([H])[H]

>  <smiles>  (41) 
[H]Oc1c([H])c(N([H])C([H])([H])C([H])([H])N([H])C(=O)N2C([H])([H])C([H])([H])C([H])([H])C([H])(n3nc(-c4c([H])c([H])c(Oc5c([H])c([H])c(F)c([H])c5F)c([H])c4[H])c(C(=O)N([H])[H])c3N([H])[H])C2([H])[H])c([H])n1C([H])([H])C([H])(Oc1c([H])c([H])c2c(c1[H])C([H])([H])N(C(=O)C([H])(N([H])C(=O)C([H])(N([H])C([H])([H])[H])C([H])([H])[H])C(C([H])([H])[H])(C([H])([H])[H])C([H])([H])[H])C([H])(C(=O)N([H])C1([H])c3c([H])c([H])c([H])c([H])c3C([H])([H])C([H])([H])C1([H])[H])C2([H])[H])C([H])([H])[H]

$$$$
43:0:0
     RDKit          3D

 96105  0  0  1  0  0  0  0  0999 V2000
  -27.6700  -22.0390   21.2530 C   0  0  0  0  0  0  0  0  0  0  0  0
  -29.5310  -24.7150   19.6630 C   0  0  0  0  0  0  0  0  0  0  0  0
  -29.5990  -19.0790   20.6900 C   0  0  0  0  0  0  0  0  0  0  0  0
  -28.2990  -23.4120   21.4450 C   0  0  0  0  0  2  0  0  0  0  0  0
  -30.6490  -21.3990   20.4730 C   0  0  0  0  0  2  0  0  0  0  0  0
  -28.4930  -21.2810   20.2830 C   0  0  0  0  0  3  0  0  0  0  0  0
  -29.5640  -22.2400   19.7710 C   0  0  0  0  0  3  0  0  0  0  0  0
  -29.2730  -23.5720   20.3490 N   0  0  0  0  0  0  0  0  0  0  0  0
  -29.5760  -20.4770   20.8500 N   0  0  0  0  0  0  0  0  0  0  0  0
  -26.6530  -21.6930   21.8590 O   0  0  0  0  0  0  0  0  0  0  0  0
  -30.6270  -24.9000   19.1270 O   0  0  0  0  0  0  0  0  0  0  0  0
  -28.5610  -18.4680   20.4280 O   0  0  0  0  0  0  0  0  0  0  0  0
  -31.1470  -17.7690   22.2130 C   0  0  0  0  0  1  0  0  0  0  0  0
  -30.9380  -18.3010   20.7840 C   0  0  0  0  0  3  0  0  0  0  0  0
  -30.7520  -17.6370   18.2760 C   0  0  0  0  0  1  0  0  0  0  0  0
  -31.1630  -17.1900   19.6990 C   0  0  0  0  0  3  0  0  0  0  0  0
  -31.2460  -14.6940   19.6780 C   0  0  0  0  0  0  0  0  0  0  0  0
  -30.8920  -12.3650   18.9650 C   0  0  0  0  0  2  0  0  0  0  0  0
  -29.9190  -12.3430   17.7710 C   0  0  0  0  0  2  0  0  0  0  0  0
  -28.4630  -12.2690   18.2690 C   0  0  0  0  0  2  0  0  0  0  0  0
  -28.1500  -13.3150   19.3740 C   0  0  0  0  0  3  0  0  0  0  0  0
  -29.2510  -13.3460   20.4610 C   0  0  0  0  0  2  0  0  0  0  0  0
  -30.5470  -13.5320   19.7950 N   0  0  0  0  0  0  0  0  0  0  0  0
  -32.3570  -14.7380   19.1440 O   0  0  0  0  0  0  0  0  0  0  0  0
  -30.6170  -15.8410   20.0090 N   0  0  0  0  0  0  0  0  0  0  0  0
  -29.6920  -15.7760   20.4060 H   0  0  0  0  0  0  0  0  0  0  0  0
  -25.8580  -14.0350   20.2920 C   0  0  0  0  0  0  0  0  0  0  0  0
  -24.7740  -13.3170   20.7180 C   0  0  0  0  0  0  0  0  0  0  0  0
  -25.1420  -11.9410   20.6090 C   0  0  0  0  0  0  0  0  0  0  0  0
  -26.8240  -13.1010   19.9510 N   0  0  0  0  0  0  0  0  0  0  0  0
  -26.4000  -11.8340   20.1980 N   0  0  0  0  0  0  0  0  0  0  0  0
  -24.3500  -10.7210   20.8150 C   0  0  0  0  0  0  0  0  0  0  0  0
  -24.7430   -9.7370   21.7490 C   0  0  0  0  0  3  0  0  0  0  0  0
  -23.9570   -8.5810   21.9450 C   0  0  0  0  0  3  0  0  0  0  0  0
  -22.7620   -8.4020   21.2060 C   0  0  0  0  0  0  0  0  0  0  0  0
  -22.3880   -9.3740   20.2630 C   0  0  0  0  0  3  0  0  0  0  0  0
  -23.1740  -10.5220   20.0660 C   0  0  0  0  0  3  0  0  0  0  0  0
  -21.9490   -7.3000   21.3120 O   0  0  0  0  0  0  0  0  0  0  0  0
  -21.8050   -6.6210   22.4960 C   0  0  0  0  0  0  0  0  0  0  0  0
  -21.3310   -7.2560   23.6650 C   0  0  0  0  0  3  0  0  0  0  0  0
  -21.1320   -6.5050   24.8420 C   0  0  0  0  0  3  0  0  0  0  0  0
  -21.3950   -5.1230   24.8480 C   0  0  0  0  0  0  0  0  0  0  0  0
  -21.8600   -4.4870   23.6830 C   0  0  0  0  0  3  0  0  0  0  0  0
  -22.0610   -5.2350   22.5100 C   0  0  0  0  0  0  0  0  0  0  0  0
  -22.4900   -4.6150   21.3830 F   0  0  0  0  0  0  0  0  0  0  0  0
  -21.1960   -4.4000   25.9750 F   0  0  0  0  0  0  0  0  0  0  0  0
  -23.4350  -13.8710   21.1160 C   0  0  0  0  0  0  0  0  0  0  0  0
  -22.7360  -13.1980   22.0240 N   0  0  0  0  0  0  0  0  0  0  0  0
  -23.0220  -14.9360   20.6570 O   0  0  0  0  0  0  0  0  0  0  0  0
  -23.0850  -12.3370   22.4190 H   0  0  0  0  0  0  0  0  0  0  0  0
  -21.8410  -13.5510   22.3290 H   0  0  0  0  0  0  0  0  0  0  0  0
  -26.0990  -15.3990   20.1480 N   0  0  0  0  0  0  0  0  0  0  0  0
  -25.3930  -16.0980   20.3460 H   0  0  0  0  0  0  0  0  0  0  0  0
  -26.9670  -15.8010   19.8140 H   0  0  0  0  0  0  0  0  0  0  0  0
  -28.3580  -25.6680   19.3260 C   0  0  0  0  0  2  0  0  0  0  0  0
  -28.5160  -27.0270   19.8000 O   0  0  0  0  0  0  0  0  0  0  0  0
  -24.7960  -31.8890   23.4720 C   0  0  0  0  0  0  0  0  0  0  0  0
  -27.3590  -27.7990   19.8520 C   0  0  0  0  0  0  0  0  0  0  0  0
  -23.5480  -30.6610   21.7280 C   0  0  0  0  0  3  0  0  0  0  0  0
  -24.9640  -29.3080   20.1000 C   0  0  0  0  0  0  0  0  0  0  0  0
  -26.0700  -31.0500   21.4990 C   0  0  0  0  0  2  0  0  0  0  0  0
  -26.1410  -29.7570   20.7100 C   0  0  0  0  0  0  0  0  0  0  0  0
  -27.3390  -29.0090   20.5890 C   0  0  0  0  0  3  0  0  0  0  0  0
  -26.1620  -27.4000   19.2040 C   0  0  0  0  0  3  0  0  0  0  0  0
  -24.9710  -28.1290   19.3430 C   0  0  0  0  0  3  0  0  0  0  0  0
  -23.7200  -30.1460   20.2760 C   0  0  0  0  0  2  0  0  0  0  0  0
  -24.8250  -31.2100   22.2910 N   0  0  0  0  0  0  0  0  0  0  0  0
  -23.7300  -32.0910   24.0710 O   0  0  0  0  0  0  0  0  0  0  0  0
  -22.9330  -29.5340   22.5890 C   0  0  0  0  0  0  0  0  0  0  0  0
  -21.6270  -29.2810   22.4050 N   0  0  0  0  0  0  0  0  0  0  0  0
  -23.6290  -28.8940   23.3830 O   0  0  0  0  0  0  0  0  0  0  0  0
  -21.1230  -29.8560   21.7440 H   0  0  0  0  0  0  0  0  0  0  0  0
  -18.3500  -27.7720   22.6120 C   0  0  0  0  0  0  0  0  0  0  0  0
  -20.8470  -28.2450   23.0820 C   0  0  0  0  0  3  0  0  0  0  0  0
  -21.1210  -26.8530   22.4670 C   0  0  0  0  0  2  0  0  0  0  0  0
  -20.1280  -26.4730   21.3640 C   0  0  0  0  0  2  0  0  0  0  0  0
  -18.6960  -26.4700   21.9060 C   0  0  0  0  0  2  0  0  0  0  0  0
  -19.3610  -28.6120   23.1480 C   0  0  0  0  0  0  0  0  0  0  0  0
  -18.9860  -29.8270   23.7630 C   0  0  0  0  0  3  0  0  0  0  0  0
  -17.6320  -30.2050   23.8470 C   0  0  0  0  0  3  0  0  0  0  0  0
  -16.6350  -29.3620   23.3280 C   0  0  0  0  0  3  0  0  0  0  0  0
  -16.9940  -28.1470   22.7150 C   0  0  0  0  0  3  0  0  0  0  0  0
  -26.0970  -32.4630   24.1130 C   0  0  0  0  0  3  0  0  0  0  0  0
  -26.5980  -31.6280   25.3550 C   0  0  1  0  0  0  0  0  0  0  0  0
  -25.4950  -31.3510   26.4020 C   0  0  0  0  0  1  0  0  0  0  0  0
  -27.1710  -30.2640   24.9030 C   0  0  0  0  0  1  0  0  0  0  0  0
  -27.7500  -32.3790   26.0620 C   0  0  0  0  0  1  0  0  0  0  0  0
  -25.8230  -33.8540   24.4990 N   0  0  0  0  0  0  0  0  0  0  0  0
  -26.1750  -34.9260   23.7760 C   0  0  0  0  0  0  0  0  0  0  0  0
  -26.8370  -34.8460   22.7390 O   0  0  0  0  0  0  0  0  0  0  0  0
  -25.2410  -33.9910   25.3120 H   0  0  0  0  0  0  0  0  0  0  0  0
  -24.4820  -36.7650   23.4990 C   0  0  0  0  0  1  0  0  0  0  0  0
  -25.7200  -36.3060   24.2870 C   0  0  0  0  0  3  0  0  0  0  0  0
  -27.8780  -37.1170   25.1340 C   0  0  0  0  0  1  0  0  0  0  0  0
  -26.7740  -37.3420   24.2040 N   0  0  0  0  0  0  0  0  0  0  0  0
  -26.3870  -38.2630   24.3860 H   0  0  0  0  0  0  0  0  0  0  0  0
  1  4  1  0
  1 10  2  0
  2  8  1  0
  3 14  1  0
  3  9  1  0
  5  9  1  0
  6  9  1  0
  6  1  1  0
  7  6  1  0
  7  8  1  0
  7  5  1  0
  8  4  1  0
 11  2  2  0
 12  3  2  0
 14 13  1  0
 16 15  1  0
 16 25  1  0
 16 14  1  0
 17 23  1  0
 17 25  1  0
 18 23  1  0
 19 20  1  0
 19 18  1  0
 21 20  1  0
 21 30  1  0
 21 22  1  0
 23 22  1  0
 24 17  2  0
 25 26  1  0
 27 28  2  0
 28 47  1  0
 29 28  1  0
 29 32  1  0
 30 31  1  0
 30 27  1  0
 31 29  2  0
 32 33  1  0
 33 34  2  0
 35 38  1  0
 35 34  1  0
 36 35  2  0
 37 36  1  0
 37 32  2  0
 38 39  1  0
 39 44  2  0
 39 40  1  0
 40 41  2  0
 41 42  1  0
 42 46  1  0
 43 42  2  0
 44 43  1  0
 45 44  1  0
 47 48  1  0
 48 51  1  0
 48 50  1  0
 49 47  2  0
 52 27  1  0
 52 53  1  0
 54 52  1  0
 55  2  1  0
 55 56  1  0
 56 58  1  0
 57 68  2  0
 58 63  1  0
 59 67  1  0
 59 69  1  0
 60 66  1  0
 60 62  1  0
 61 67  1  0
 62 61  1  0
 63 62  2  0
 64 65  1  0
 64 58  2  0
 65 60  2  0
 66 59  1  0
 67 57  1  0
 69 71  2  0
 70 69  1  0
 72 70  1  0
 73 82  2  0
 73 78  1  0
 74 70  1  0
 74 78  1  0
 75 74  1  0
 76 77  1  0
 76 75  1  0
 77 73  1  0
 78 79  2  0
 79 80  1  0
 81 80  2  0
 82 81  1  0
 83 57  1  0
 83 88  1  0
 83 84  1  0
 84 87  1  1
 84 85  1  0
 86 84  1  0
 88 91  1  0
 89 93  1  0
 89 88  1  0
 90 89  2  0
 93 92  1  0
 95 93  1  0
 95 96  1  0
 95 94  1  0
M  ISO  4  17 100  25 100  55 101  56 101
M  END
>  <TORSDO>  (42) 
F 19

>  <SCORE>  (42) 
-12.432

>  <name>  (42) 
43

>  <ligand_id>  (42) 
43

>  <original_smiles>  (42) 
[H]c1c([H])c([H])c2c(c1[H])C([H])([H])C([H])([H])C([H])([H])C2([H])N([H])C(=O)C1([H])N(C(=O)C([H])(N([H])C(=O)C([H])(N([H])C([H])([H])[H])C([H])([H])[H])C(C([H])([H])[H])(C([H])([H])[H])C([H])([H])[H])C([H])([H])c2c([H])c(OC([H])([H])C(=O)N3C([H])([H])C(=O)C4([H])N(C(=O)C([H])(C([H])([H])[H])C([H])(N([H])C(=O)N5C([H])([H])C([H])([H])C([H])([H])C([H])(n6nc(-c7c([H])c([H])c(Oc8c([H])c([H])c(F)c([H])c8F)c([H])c7[H])c(C(=O)N([H])[H])c6N([H])[H])C5([H])[H])C([H])([H])[H])C([H])([H])C34[H])c([H])c([H])c2C1([H])[H]

>  <smiles>  (42) 
[H]c1c([H])c([H])c2c(c1[H])C([H])([H])C([H])([H])C([H])([H])C2([H])N([H])C(=O)C1([H])N(C(=O)C([H])(N([H])C(=O)C([H])(N([H])C([H])([H])[H])C([H])([H])[H])C(C([H])([H])[H])(C([H])([H])[H])C([H])([H])[H])C([H])([H])c2c([H])c(OC([H])([H])C(=O)N3C([H])([H])C(=O)C4([H])N(C(=O)C([H])(C([H])([H])[H])C([H])(N([H])C(=O)N5C([H])([H])C([H])([H])C([H])([H])C([H])(n6nc(-c7c([H])c([H])c(Oc8c([H])c([H])c(F)c([H])c8F)c([H])c7[H])c(C(=O)N([H])[H])c6N([H])[H])C5([H])[H])C([H])([H])[H])C([H])([H])C34[H])c([H])c([H])c2C1([H])[H]

$$$$
44:0:0
     RDKit          3D

 94103  0  0  1  0  0  0  0  0999 V2000
  -30.7700  -21.8020   22.0910 C   0  0  0  0  0  2  0  0  0  0  0  0
  -30.3400  -21.2530   20.7540 C   0  0  0  0  0  3  0  0  0  0  0  0
  -31.3830  -22.3810   20.8380 C   0  0  0  0  0  3  0  0  0  0  0  0
  -31.8040  -19.1260   20.6020 C   0  0  0  0  0  3  0  0  0  0  0  0
  -31.9490  -17.7150   20.6370 C   0  0  0  0  0  3  0  0  0  0  0  0
  -29.5410  -17.4890   20.7740 C   0  0  0  0  0  3  0  0  0  0  0  0
  -30.5280  -19.7410   20.6680 C   0  0  0  0  0  0  0  0  0  0  0  0
  -29.3940  -18.8920   20.7450 C   0  0  0  0  0  0  0  0  0  0  0  0
  -30.8110  -16.8780   20.7360 C   0  0  0  0  0  0  0  0  0  0  0  0
  -27.9880  -19.4670   20.8230 C   0  0  0  0  0  1  0  0  0  0  0  0
  -31.4510  -14.5170   20.0440 C   0  0  0  0  0  0  0  0  0  0  0  0
  -31.0860  -12.3420   18.9200 C   0  0  0  0  0  2  0  0  0  0  0  0
  -30.1040  -12.5480   17.7460 C   0  0  0  0  0  2  0  0  0  0  0  0
  -28.6380  -12.4720   18.2230 C   0  0  0  0  0  2  0  0  0  0  0  0
  -28.3730  -13.3410   19.4810 C   0  0  0  0  0  3  0  0  0  0  0  0
  -29.4490  -13.0670   20.5540 C   0  0  0  0  0  2  0  0  0  0  0  0
  -30.7710  -13.3380   19.9560 N   0  0  0  0  0  0  0  0  0  0  0  0
  -32.5260  -14.7190   19.4700 O   0  0  0  0  0  0  0  0  0  0  0  0
  -30.8180  -15.4470   20.7860 N   0  0  0  0  0  0  0  0  0  0  0  0
  -30.0550  -15.0510   21.3110 H   0  0  0  0  0  0  0  0  0  0  0  0
  -26.0370  -14.0720   20.2860 C   0  0  0  0  0  0  0  0  0  0  0  0
  -24.9400  -13.3530   20.6800 C   0  0  0  0  0  0  0  0  0  0  0  0
  -25.3210  -11.9780   20.6040 C   0  0  0  0  0  0  0  0  0  0  0  0
  -27.0220  -13.1370   20.0000 N   0  0  0  0  0  0  0  0  0  0  0  0
  -26.5940  -11.8730   20.2460 N   0  0  0  0  0  0  0  0  0  0  0  0
  -24.5320  -10.7560   20.7970 C   0  0  0  0  0  0  0  0  0  0  0  0
  -24.8730   -9.8060   21.7850 C   0  0  0  0  0  3  0  0  0  0  0  0
  -24.0890   -8.6450   21.9630 C   0  0  0  0  0  3  0  0  0  0  0  0
  -22.9490   -8.4280   21.1520 C   0  0  0  0  0  0  0  0  0  0  0  0
  -22.6290   -9.3660   20.1550 C   0  0  0  0  0  3  0  0  0  0  0  0
  -23.4140  -10.5170   19.9750 C   0  0  0  0  0  3  0  0  0  0  0  0
  -22.1440   -7.3180   21.2350 O   0  0  0  0  0  0  0  0  0  0  0  0
  -21.8630   -6.7220   22.4380 C   0  0  0  0  0  0  0  0  0  0  0  0
  -21.2800   -7.4380   23.5080 C   0  0  0  0  0  3  0  0  0  0  0  0
  -20.9440   -6.7700   24.7020 C   0  0  0  0  0  3  0  0  0  0  0  0
  -21.1790   -5.3890   24.8270 C   0  0  0  0  0  0  0  0  0  0  0  0
  -21.7540   -4.6730   23.7620 C   0  0  0  0  0  3  0  0  0  0  0  0
  -22.0910   -5.3380   22.5710 C   0  0  0  0  0  0  0  0  0  0  0  0
  -22.6260   -4.6380   21.5390 F   0  0  0  0  0  0  0  0  0  0  0  0
  -20.8490   -4.7450   25.9710 F   0  0  0  0  0  0  0  0  0  0  0  0
  -23.5840  -13.9020   21.0180 C   0  0  0  0  0  0  0  0  0  0  0  0
  -22.8730  -13.2590   21.9380 N   0  0  0  0  0  0  0  0  0  0  0  0
  -23.1650  -14.9360   20.4990 O   0  0  0  0  0  0  0  0  0  0  0  0
  -23.2260  -12.4230   22.3800 H   0  0  0  0  0  0  0  0  0  0  0  0
  -21.9640  -13.6090   22.2050 H   0  0  0  0  0  0  0  0  0  0  0  0
  -26.2750  -15.4350   20.1330 N   0  0  0  0  0  0  0  0  0  0  0  0
  -25.5540  -16.1300   20.2860 H   0  0  0  0  0  0  0  0  0  0  0  0
  -27.1420  -15.8310   19.7910 H   0  0  0  0  0  0  0  0  0  0  0  0
  -31.9700  -24.7530   21.1390 C   0  0  0  0  0  1  0  0  0  0  0  0
  -30.9130  -23.7990   20.7200 N   0  0  1  0  0  4  0  0  0  0  0  0
  -30.1750  -23.8880   21.4030 H   0  0  0  0  0  0  0  0  0  0  0  0
  -30.3130  -24.1980   19.4120 C   0  0  0  0  0  2  0  0  0  0  0  0
  -29.0070  -25.0270   19.5920 C   0  0  0  0  0  2  0  0  0  0  0  0
  -29.0590  -26.3680   19.0550 O   0  0  0  0  0  0  0  0  0  0  0  0
  -25.0010  -30.8240   22.9000 C   0  0  0  0  0  0  0  0  0  0  0  0
  -27.8770  -27.0780   19.1560 C   0  0  0  0  0  0  0  0  0  0  0  0
  -23.8850  -29.6950   21.0050 C   0  0  0  0  0  3  0  0  0  0  0  0
  -25.4280  -28.4870   19.3700 C   0  0  0  0  0  0  0  0  0  0  0  0
  -26.4000  -30.1660   20.9430 C   0  0  0  0  0  2  0  0  0  0  0  0
  -26.5540  -28.9340   20.0720 C   0  0  0  0  0  0  0  0  0  0  0  0
  -27.7840  -28.2400   19.9610 C   0  0  0  0  0  3  0  0  0  0  0  0
  -26.7330  -26.6620   18.4380 C   0  0  0  0  0  3  0  0  0  0  0  0
  -25.5130  -27.3510   18.5490 C   0  0  0  0  0  3  0  0  0  0  0  0
  -24.1500  -29.2810   19.5340 C   0  0  0  0  0  2  0  0  0  0  0  0
  -25.1120  -30.2330   21.6770 N   0  0  0  0  0  0  0  0  0  0  0  0
  -23.8990  -30.9600   23.4500 O   0  0  0  0  0  0  0  0  0  0  0  0
  -23.2540  -28.4980   21.7510 C   0  0  0  0  0  0  0  0  0  0  0  0
  -21.9350  -28.3120   21.5780 N   0  0  0  0  0  0  0  0  0  0  0  0
  -23.9470  -27.7460   22.4420 O   0  0  0  0  0  0  0  0  0  0  0  0
  -21.4350  -28.9770   21.0030 H   0  0  0  0  0  0  0  0  0  0  0  0
  -18.5800  -26.9910   21.8380 C   0  0  0  0  0  0  0  0  0  0  0  0
  -21.1350  -27.2290   22.1510 C   0  0  0  0  0  3  0  0  0  0  0  0
  -21.2560  -25.9410   21.3050 C   0  0  0  0  0  2  0  0  0  0  0  0
  -20.1540  -25.8070   20.2490 C   0  0  0  0  0  2  0  0  0  0  0  0
  -18.7730  -25.8030   20.9120 C   0  0  0  0  0  2  0  0  0  0  0  0
  -19.6900  -27.6700   22.4080 C   0  0  0  0  0  0  0  0  0  0  0  0
  -19.4570  -28.7910   23.2330 C   0  0  0  0  0  3  0  0  0  0  0  0
  -18.1470  -29.2320   23.4960 C   0  0  0  0  0  3  0  0  0  0  0  0
  -17.0510  -28.5460   22.9430 C   0  0  0  0  0  3  0  0  0  0  0  0
  -17.2690  -27.4270   22.1200 C   0  0  0  0  0  3  0  0  0  0  0  0
  -26.2490  -31.3780   23.6570 C   0  0  0  0  0  3  0  0  0  0  0  0
  -26.7810  -30.4020   24.7780 C   0  0  1  0  0  0  0  0  0  0  0  0
  -25.6830  -29.9240   25.7560 C   0  0  0  0  0  1  0  0  0  0  0  0
  -27.4310  -29.1480   24.1470 C   0  0  0  0  0  1  0  0  0  0  0  0
  -27.8850  -31.1050   25.6030 C   0  0  0  0  0  1  0  0  0  0  0  0
  -25.8770  -32.6770   24.2320 N   0  0  0  0  0  0  0  0  0  0  0  0
  -26.2140  -33.8630   23.7100 C   0  0  0  0  0  0  0  0  0  0  0  0
  -26.9420  -33.9790   22.7200 O   0  0  0  0  0  0  0  0  0  0  0  0
  -25.2340  -32.6600   25.0100 H   0  0  0  0  0  0  0  0  0  0  0  0
  -24.4550  -35.6570   23.5980 C   0  0  0  0  0  1  0  0  0  0  0  0
  -25.6550  -35.1250   24.3970 C   0  0  0  0  0  3  0  0  0  0  0  0
  -27.7030  -35.8690   25.5280 C   0  0  0  0  0  1  0  0  0  0  0  0
  -26.6590  -36.1980   24.5610 N   0  0  0  0  0  0  0  0  0  0  0  0
  -26.2160  -37.0640   24.8550 H   0  0  0  0  0  0  0  0  0  0  0  0
  2  7  1  0
  2  3  1  0
  2  1  1  0
  3 50  1  0
  3  1  1  0
  4  5  2  0
  4  7  1  0
  5  9  1  0
  7  8  2  0
  8  6  1  0
  8 10  1  0
  9  6  2  0
  9 19  1  0
 11 19  1  0
 12 17  1  0
 13 14  1  0
 13 12  1  0
 15 14  1  0
 15 24  1  0
 15 16  1  0
 17 11  1  0
 17 16  1  0
 18 11  2  0
 19 20  1  0
 21 22  2  0
 22 41  1  0
 23 22  1  0
 23 26  1  0
 24 25  1  0
 24 21  1  0
 25 23  2  0
 26 27  1  0
 27 28  2  0
 29 32  1  0
 29 28  1  0
 30 29  2  0
 31 30  1  0
 31 26  2  0
 32 33  1  0
 33 38  2  0
 33 34  1  0
 34 35  2  0
 35 36  1  0
 36 40  1  0
 37 36  2  0
 38 37  1  0
 39 38  1  0
 41 42  1  0
 42 45  1  0
 42 44  1  0
 43 41  2  0
 46 21  1  0
 46 47  1  0
 48 46  1  0
 50 49  1  0
 50 51  1  1
 52 53  1  0
 52 50  1  0
 54 56  1  0
 54 53  1  0
 55 66  2  0
 56 61  1  0
 57 65  1  0
 57 67  1  0
 58 64  1  0
 58 60  1  0
 59 65  1  0
 60 59  1  0
 61 60  2  0
 62 63  1  0
 62 56  2  0
 63 58  2  0
 64 57  1  0
 65 55  1  0
 67 69  2  0
 68 67  1  0
 70 68  1  0
 71 80  2  0
 71 76  1  0
 72 68  1  0
 72 76  1  0
 73 72  1  0
 74 75  1  0
 74 73  1  0
 75 71  1  0
 76 77  2  0
 77 78  1  0
 79 78  2  0
 80 79  1  0
 81 55  1  0
 81 86  1  0
 81 82  1  0
 82 85  1  1
 82 83  1  0
 84 82  1  0
 86 89  1  0
 87 86  1  0
 87 91  1  0
 88 87  2  0
 91 90  1  0
 91 93  1  0
 93 94  1  0
 93 92  1  0
M  ISO  4  11 100  19 100  53 101  54 101
M  END
>  <TORSDO>  (43) 
F 20

>  <SCORE>  (43) 
-9.817

>  <name>  (43) 
44

>  <ligand_id>  (43) 
44

>  <original_smiles>  (43) 
[H]c1c([H])c([H])c2c(c1[H])C([H])([H])C([H])([H])C([H])([H])C2([H])N([H])C(=O)C1([H])N(C(=O)C([H])(N([H])C(=O)C([H])(N([H])C([H])([H])[H])C([H])([H])[H])C(C([H])([H])[H])(C([H])([H])[H])C([H])([H])[H])C([H])([H])c2c([H])c(OC([H])([H])C([H])([H])[N+]([H])(C([H])([H])[H])C3([H])C([H])([H])C3([H])c3c([H])c([H])c(N([H])C(=O)N4C([H])([H])C([H])([H])C([H])([H])C([H])(n5nc(-c6c([H])c([H])c(Oc7c([H])c([H])c(F)c([H])c7F)c([H])c6[H])c(C(=O)N([H])[H])c5N([H])[H])C4([H])[H])c([H])c3C([H])([H])[H])c([H])c([H])c2C1([H])[H]

>  <smiles>  (43) 
[H]c1c([H])c([H])c2c(c1[H])C([H])([H])C([H])([H])C([H])([H])C2([H])N([H])C(=O)C1([H])N(C(=O)C([H])(N([H])C(=O)C([H])(N([H])C([H])([H])[H])C([H])([H])[H])C(C([H])([H])[H])(C([H])([H])[H])C([H])([H])[H])C([H])([H])c2c([H])c(OC([H])([H])C([H])([H])[N+]([H])(C([H])([H])[H])C3([H])C([H])([H])C3([H])c3c([H])c([H])c(N([H])C(=O)N4C([H])([H])C([H])([H])C([H])([H])C([H])(n5nc(-c6c([H])c([H])c(Oc7c([H])c([H])c(F)c([H])c7F)c([H])c6[H])c(C(=O)N([H])[H])c5N([H])[H])C4([H])[H])c([H])c3C([H])([H])[H])c([H])c([H])c2C1([H])[H]

$$$$
45:0:0
     RDKit          3D

 94102  0  0  1  0  0  0  0  0999 V2000
  -29.7490  -22.3730   21.4620 C   0  0  0  0  0  2  0  0  0  0  0  0
  -29.0730  -24.6550   20.6970 C   0  0  0  0  0  0  0  0  0  0  0  0
  -29.1780  -23.3290   20.5060 N   0  0  0  0  0  0  0  0  0  0  0  0
  -29.2820  -25.1820   21.7940 O   0  0  0  0  0  0  0  0  0  0  0  0
  -29.0060  -22.9720   19.5730 H   0  0  0  0  0  0  0  0  0  0  0  0
  -28.7510  -25.5180   19.4630 C   0  0  0  0  0  2  0  0  0  0  0  0
  -28.5990  -26.9030   19.8240 O   0  0  0  0  0  0  0  0  0  0  0  0
  -24.6290  -31.7940   23.1050 C   0  0  0  0  0  0  0  0  0  0  0  0
  -27.3640  -27.5220   19.8560 C   0  0  0  0  0  0  0  0  0  0  0  0
  -23.4430  -30.4090   21.4340 C   0  0  0  0  0  3  0  0  0  0  0  0
  -24.9190  -28.9570   19.9470 C   0  0  0  0  0  0  0  0  0  0  0  0
  -25.9560  -30.8440   21.2200 C   0  0  0  0  0  2  0  0  0  0  0  0
  -26.0680  -29.4980   20.5370 C   0  0  0  0  0  0  0  0  0  0  0  0
  -27.2870  -28.7850   20.4890 C   0  0  0  0  0  3  0  0  0  0  0  0
  -26.1880  -26.9910   19.2720 C   0  0  0  0  0  3  0  0  0  0  0  0
  -24.9750  -27.7020   19.3150 C   0  0  0  0  0  3  0  0  0  0  0  0
  -23.6530  -29.7780   20.0320 C   0  0  0  0  0  2  0  0  0  0  0  0
  -24.6950  -31.0290   21.9770 N   0  0  0  0  0  0  0  0  0  0  0  0
  -23.5470  -32.0170   23.6640 O   0  0  0  0  0  0  0  0  0  0  0  0
  -22.8350  -29.3390   22.3690 C   0  0  0  0  0  0  0  0  0  0  0  0
  -21.5140  -29.1260   22.2520 N   0  0  0  0  0  0  0  0  0  0  0  0
  -23.5480  -28.7050   23.1520 O   0  0  0  0  0  0  0  0  0  0  0  0
  -21.0010  -29.6930   21.5930 H   0  0  0  0  0  0  0  0  0  0  0  0
  -18.1750  -27.8500   22.7760 C   0  0  0  0  0  0  0  0  0  0  0  0
  -20.7330  -28.1420   23.0020 C   0  0  0  0  0  3  0  0  0  0  0  0
  -20.8470  -26.7390   22.3640 C   0  0  0  0  0  2  0  0  0  0  0  0
  -19.7270  -26.4370   21.3630 C   0  0  0  0  0  2  0  0  0  0  0  0
  -18.3580  -26.5330   22.0440 C   0  0  0  0  0  2  0  0  0  0  0  0
  -19.2900  -28.6140   23.2120 C   0  0  0  0  0  0  0  0  0  0  0  0
  -19.0640  -29.8500   23.8560 C   0  0  0  0  0  3  0  0  0  0  0  0
  -17.7560  -30.3210   24.0710 C   0  0  0  0  0  3  0  0  0  0  0  0
  -16.6550  -29.5530   23.6520 C   0  0  0  0  0  3  0  0  0  0  0  0
  -16.8660  -28.3210   23.0090 C   0  0  0  0  0  3  0  0  0  0  0  0
  -25.9040  -32.4400   23.7300 C   0  0  0  0  0  3  0  0  0  0  0  0
  -26.4480  -31.6580   24.9890 C   0  0  1  0  0  0  0  0  0  0  0  0
  -25.3680  -31.3760   26.0590 C   0  0  0  0  0  1  0  0  0  0  0  0
  -27.0620  -30.3030   24.5670 C   0  0  0  0  0  1  0  0  0  0  0  0
  -27.5810  -32.4690   25.6600 C   0  0  0  0  0  1  0  0  0  0  0  0
  -25.5670  -33.8250   24.0860 N   0  0  0  0  0  0  0  0  0  0  0  0
  -25.8950  -34.9000   23.3550 C   0  0  0  0  0  0  0  0  0  0  0  0
  -26.5840  -34.8300   22.3340 O   0  0  0  0  0  0  0  0  0  0  0  0
  -24.9550  -33.9510   24.8770 H   0  0  0  0  0  0  0  0  0  0  0  0
  -24.1510  -36.6760   22.9990 C   0  0  0  0  0  1  0  0  0  0  0  0
  -25.3760  -36.2690   23.8320 C   0  0  0  0  0  3  0  0  0  0  0  0
  -27.4730  -37.1640   24.7440 C   0  0  0  0  0  1  0  0  0  0  0  0
  -26.3980  -37.3370   23.7720 N   0  0  0  0  0  0  0  0  0  0  0  0
  -25.9750  -38.2490   23.9240 H   0  0  0  0  0  0  0  0  0  0  0  0
  -29.8510  -20.1560   22.5650 C   0  0  0  0  0  1  0  0  0  0  0  0
  -27.8420  -20.7280   21.1100 C   0  0  0  0  0  1  0  0  0  0  0  0
  -29.3780  -20.8560   21.2610 C   0  0  1  0  0  0  0  0  0  0  0  0
  -30.0510  -20.2840   19.9600 C   0  0  0  0  0  0  0  0  0  0  0  0
  -31.5280  -18.7870   18.7280 C   0  0  0  0  0  1  0  0  0  0  0  0
  -30.6140  -19.0430   19.8580 N   0  0  0  0  0  0  0  0  0  0  0  0
  -30.0970  -21.0390   18.9840 O   0  0  0  0  0  0  0  0  0  0  0  0
  -31.3110  -14.6870   20.2690 C   0  0  0  0  0  0  0  0  0  0  0  0
  -30.8610  -12.5380   19.1460 C   0  0  0  0  0  2  0  0  0  0  0  0
  -29.9620  -12.7510   17.9030 C   0  0  0  0  0  2  0  0  0  0  0  0
  -28.5110  -13.1770   18.2450 C   0  0  0  0  0  2  0  0  0  0  0  0
  -28.1940  -13.0440   19.7350 C   0  0  0  0  0  3  0  0  0  0  0  0
  -29.2400  -13.3970   20.7930 C   0  0  0  0  0  2  0  0  0  0  0  0
  -30.5480  -13.5710   20.1490 N   0  0  0  0  0  0  0  0  0  0  0  0
  -32.4720  -14.7500   19.8620 O   0  0  0  0  0  0  0  0  0  0  0  0
  -29.8540  -16.5750   19.7610 C   0  0  0  0  0  2  0  0  0  0  0  0
  -31.3210  -17.0120   21.2140 C   0  0  0  0  0  2  0  0  0  0  0  0
  -30.1810  -17.8210   20.5910 C   0  0  0  0  0  3  0  0  0  0  0  0
  -30.6660  -15.7900   20.7060 N   0  0  0  0  0  0  0  0  0  0  0  0
  -25.8490  -14.1390   20.3730 C   0  0  0  0  0  0  0  0  0  0  0  0
  -24.7020  -13.4660   20.7390 C   0  0  0  0  0  0  0  0  0  0  0  0
  -25.0320  -12.0840   20.6850 C   0  0  0  0  0  0  0  0  0  0  0  0
  -26.7980  -13.1340   20.1440 N   0  0  0  0  0  0  0  0  0  0  0  0
  -26.2850  -11.9190   20.3710 N   0  0  0  0  0  0  0  0  0  0  0  0
  -24.2540  -10.8680   20.8580 C   0  0  0  0  0  0  0  0  0  0  0  0
  -24.6500   -9.8790   21.7850 C   0  0  0  0  0  3  0  0  0  0  0  0
  -23.8950   -8.6990   21.9220 C   0  0  0  0  0  3  0  0  0  0  0  0
  -22.7370   -8.5080   21.1320 C   0  0  0  0  0  0  0  0  0  0  0  0
  -22.3700   -9.4820   20.1880 C   0  0  0  0  0  3  0  0  0  0  0  0
  -23.1260  -10.6550   20.0500 C   0  0  0  0  0  3  0  0  0  0  0  0
  -21.9440   -7.3900   21.1870 O   0  0  0  0  0  0  0  0  0  0  0  0
  -21.7930   -6.6820   22.3510 C   0  0  0  0  0  0  0  0  0  0  0  0
  -21.2820   -7.2720   23.5280 C   0  0  0  0  0  3  0  0  0  0  0  0
  -21.0830   -6.4830   24.6780 C   0  0  0  0  0  3  0  0  0  0  0  0
  -21.3840   -5.1090   24.6510 C   0  0  0  0  0  0  0  0  0  0  0  0
  -21.8880   -4.5220   23.4780 C   0  0  0  0  0  3  0  0  0  0  0  0
  -22.0920   -5.3060   22.3330 C   0  0  0  0  0  0  0  0  0  0  0  0
  -22.5630   -4.7360   21.1970 F   0  0  0  0  0  0  0  0  0  0  0  0
  -21.1790   -4.3480   25.7530 F   0  0  0  0  0  0  0  0  0  0  0  0
  -23.3450  -14.0350   21.0430 C   0  0  0  0  0  0  0  0  0  0  0  0
  -22.5830  -13.3690   21.9070 N   0  0  0  0  0  0  0  0  0  0  0  0
  -22.9690  -15.0940   20.5490 O   0  0  0  0  0  0  0  0  0  0  0  0
  -22.8920  -12.5080   22.3290 H   0  0  0  0  0  0  0  0  0  0  0  0
  -21.6710  -13.7330   22.1510 H   0  0  0  0  0  0  0  0  0  0  0  0
  -26.1450  -15.4930   20.2340 N   0  0  0  0  0  0  0  0  0  0  0  0
  -25.4720  -16.2380   20.3750 H   0  0  0  0  0  0  0  0  0  0  0  0
  -27.0720  -15.8280   20.0160 H   0  0  0  0  0  0  0  0  0  0  0  0
  2  4  2  0
  3  2  1  0
  3  1  1  0
  5  3  1  0
  6  7  1  0
  6  2  1  0
  7  9  1  0
  8 19  2  0
  9 14  1  0
 10 18  1  0
 10 20  1  0
 11 17  1  0
 11 13  1  0
 12 18  1  0
 13 12  1  0
 14 13  2  0
 15 16  1  0
 15  9  2  0
 16 11  2  0
 17 10  1  0
 18  8  1  0
 20 22  2  0
 21 20  1  0
 23 21  1  0
 24 33  2  0
 24 29  1  0
 25 21  1  0
 25 29  1  0
 26 25  1  0
 27 28  1  0
 27 26  1  0
 28 24  1  0
 29 30  2  0
 30 31  1  0
 32 31  2  0
 33 32  1  0
 34  8  1  0
 34 39  1  0
 34 35  1  0
 35 38  1  1
 35 36  1  0
 37 35  1  0
 39 42  1  0
 40 44  1  0
 40 39  1  0
 41 40  2  0
 44 43  1  0
 46 44  1  0
 46 47  1  0
 46 45  1  0
 50 49  1  6
 50  1  1  0
 50 48  1  0
 51 50  1  0
 52 53  1  0
 53 51  1  0
 54 51  2  0
 55 66  1  0
 56 61  1  0
 57 58  1  0
 57 56  1  0
 59 58  1  0
 59 70  1  0
 59 60  1  0
 61 55  1  0
 61 60  1  0
 62 55  2  0
 63 65  1  0
 63 66  1  0
 65 53  1  0
 65 64  1  0
 66 64  1  0
 67 68  2  0
 68 87  1  0
 69 68  1  0
 69 72  1  0
 70 71  1  0
 70 67  1  0
 71 69  2  0
 72 73  1  0
 73 74  2  0
 75 78  1  0
 75 74  1  0
 76 75  2  0
 77 76  1  0
 77 72  2  0
 78 79  1  0
 79 80  1  0
 80 81  2  0
 82 81  1  0
 82 86  1  0
 83 82  2  0
 84 79  2  0
 84 83  1  0
 85 84  1  0
 87 88  1  0
 88 91  1  0
 88 90  1  0
 89 87  2  0
 92 67  1  0
 92 93  1  0
 94 92  1  0
M  ISO  4   6 101   7 101  55 100  66 100
M  END
>  <TORSDO>  (44) 
F 20

>  <SCORE>  (44) 
-12.284

>  <name>  (44) 
45

>  <ligand_id>  (44) 
45

>  <original_smiles>  (44) 
[H]c1c([H])c([H])c2c(c1[H])C([H])([H])C([H])([H])C([H])([H])C2([H])N([H])C(=O)C1([H])N(C(=O)C([H])(N([H])C(=O)C([H])(N([H])C([H])([H])[H])C([H])([H])[H])C(C([H])([H])[H])(C([H])([H])[H])C([H])([H])[H])C([H])([H])c2c([H])c(OC([H])([H])C(=O)N([H])C([H])([H])C(C(=O)N(C([H])([H])[H])C3([H])C([H])([H])N(C(=O)N4C([H])([H])C([H])([H])C([H])([H])C([H])(n5nc(-c6c([H])c([H])c(Oc7c([H])c([H])c(F)c([H])c7F)c([H])c6[H])c(C(=O)N([H])[H])c5N([H])[H])C4([H])[H])C3([H])[H])(C([H])([H])[H])C([H])([H])[H])c([H])c([H])c2C1([H])[H]

>  <smiles>  (44) 
[H]c1c([H])c([H])c2c(c1[H])C([H])([H])C([H])([H])C([H])([H])C2([H])N([H])C(=O)C1([H])N(C(=O)C([H])(N([H])C(=O)C([H])(N([H])C([H])([H])[H])C([H])([H])[H])C(C([H])([H])[H])(C([H])([H])[H])C([H])([H])[H])C([H])([H])c2c([H])c(OC([H])([H])C(=O)N([H])C([H])([H])C(C(=O)N(C([H])([H])[H])C3([H])C([H])([H])N(C(=O)N4C([H])([H])C([H])([H])C([H])([H])C([H])(n5nc(-c6c([H])c([H])c(Oc7c([H])c([H])c(F)c([H])c7F)c([H])c6[H])c(C(=O)N([H])[H])c5N([H])[H])C4([H])[H])C3([H])[H])(C([H])([H])[H])C([H])([H])[H])c([H])c([H])c2C1([H])[H]

$$$$
46:0:0
     RDKit          3D

 93102  0  0  1  0  0  0  0  0999 V2000
  -30.4860  -18.2730   20.9870 C   0  0  0  0  0  3  0  0  0  0  0  0
  -28.1460  -19.1020   19.6990 C   0  0  0  0  0  3  0  0  0  0  0  0
  -30.1630  -19.6790   20.8520 C   0  0  0  0  0  0  0  0  0  0  0  0
  -28.9810  -20.1250   20.2160 C   0  0  0  0  0  0  0  0  0  0  0  0
  -29.6230  -17.2430   20.4870 C   0  0  0  0  0  0  0  0  0  0  0  0
  -28.4490  -17.7140   19.8380 C   0  0  0  0  0  0  0  0  0  0  0  0
  -29.4460  -24.1120   20.5440 C   0  0  0  0  0  0  0  0  0  0  0  0
  -31.0420  -20.7720   21.4340 C   0  0  0  0  0  2  0  0  0  0  0  0
  -28.5870  -21.6600   20.1180 C   0  0  0  0  0  2  0  0  0  0  0  0
  -30.9550  -22.1260   20.6670 C   0  0  0  0  0  2  0  0  0  0  0  0
  -29.5930  -22.7140   20.4950 N   0  0  0  0  0  0  0  0  0  0  0  0
  -30.4190  -24.8090   20.8560 O   0  0  0  0  0  0  0  0  0  0  0  0
  -27.5670  -16.8050   19.3610 F   0  0  0  0  0  0  0  0  0  0  0  0
  -30.5380  -14.7620   20.3670 C   0  0  0  0  0  0  0  0  0  0  0  0
  -30.3710  -12.5020   19.3020 C   0  0  0  0  0  2  0  0  0  0  0  0
  -29.4050  -12.6010   18.0990 C   0  0  0  0  0  2  0  0  0  0  0  0
  -27.9390  -12.4220   18.5460 C   0  0  0  0  0  2  0  0  0  0  0  0
  -27.5880  -13.2810   19.7890 C   0  0  0  0  0  3  0  0  0  0  0  0
  -28.6630  -13.1360   20.8900 C   0  0  0  0  0  2  0  0  0  0  0  0
  -29.9560  -13.5150   20.2970 N   0  0  0  0  0  0  0  0  0  0  0  0
  -31.6970  -14.9380   19.9750 O   0  0  0  0  0  0  0  0  0  0  0  0
  -29.7090  -15.7900   20.7630 N   0  0  0  0  0  0  0  0  0  0  0  0
  -28.8080  -15.4100   21.0110 H   0  0  0  0  0  0  0  0  0  0  0  0
  -25.2070  -13.8760   20.5460 C   0  0  0  0  0  0  0  0  0  0  0  0
  -24.1430  -13.1020   20.9220 C   0  0  0  0  0  0  0  0  0  0  0  0
  -24.6040  -11.7500   20.8760 C   0  0  0  0  0  0  0  0  0  0  0  0
  -26.2460  -12.9960   20.2900 N   0  0  0  0  0  0  0  0  0  0  0  0
  -25.8910  -11.7120   20.5510 N   0  0  0  0  0  0  0  0  0  0  0  0
  -23.8780  -10.4880   21.0650 C   0  0  0  0  0  0  0  0  0  0  0  0
  -24.3200   -9.5130   21.9870 C   0  0  0  0  0  3  0  0  0  0  0  0
  -23.5940   -8.3160   22.1640 C   0  0  0  0  0  3  0  0  0  0  0  0
  -22.4130   -8.0840   21.4180 C   0  0  0  0  0  0  0  0  0  0  0  0
  -21.9910   -9.0480   20.4860 C   0  0  0  0  0  3  0  0  0  0  0  0
  -22.7170  -10.2370   20.3070 C   0  0  0  0  0  3  0  0  0  0  0  0
  -21.6580   -6.9390   21.5060 O   0  0  0  0  0  0  0  0  0  0  0  0
  -21.6170   -6.1910   22.6550 C   0  0  0  0  0  0  0  0  0  0  0  0
  -21.1750   -6.7320   23.8820 C   0  0  0  0  0  3  0  0  0  0  0  0
  -21.0810   -5.9090   25.0220 C   0  0  0  0  0  3  0  0  0  0  0  0
  -21.4200   -4.5460   24.9360 C   0  0  0  0  0  0  0  0  0  0  0  0
  -21.8570   -4.0040   23.7150 C   0  0  0  0  0  3  0  0  0  0  0  0
  -21.9510   -4.8240   22.5770 C   0  0  0  0  0  0  0  0  0  0  0  0
  -22.3520   -4.2910   21.3970 F   0  0  0  0  0  0  0  0  0  0  0  0
  -21.3240   -3.7530   26.0290 F   0  0  0  0  0  0  0  0  0  0  0  0
  -22.7500  -13.5800   21.2130 C   0  0  0  0  0  0  0  0  0  0  0  0
  -22.0320  -12.8790   22.0840 N   0  0  0  0  0  0  0  0  0  0  0  0
  -22.3070  -14.6080   20.7040 O   0  0  0  0  0  0  0  0  0  0  0  0
  -22.4020  -12.0480   22.5190 H   0  0  0  0  0  0  0  0  0  0  0  0
  -21.0980  -13.1840   22.3220 H   0  0  0  0  0  0  0  0  0  0  0  0
  -25.3670  -15.2470   20.3800 N   0  0  0  0  0  0  0  0  0  0  0  0
  -24.5970  -15.8950   20.5020 H   0  0  0  0  0  0  0  0  0  0  0  0
  -26.1950  -15.6960   19.9980 H   0  0  0  0  0  0  0  0  0  0  0  0
  -28.1390  -24.9580   20.2120 C   0  0  0  0  0  2  0  0  0  0  0  0
  -28.3110  -26.4510   20.3270 O   0  0  0  0  0  0  0  0  0  0  0  0
  -24.5980  -31.9490   23.2500 C   0  0  0  0  0  0  0  0  0  0  0  0
  -27.1950  -27.3140   20.2630 C   0  0  0  0  0  0  0  0  0  0  0  0
  -23.3950  -30.5430   21.6170 C   0  0  0  0  0  3  0  0  0  0  0  0
  -24.8430  -28.9610   20.2180 C   0  0  0  0  0  0  0  0  0  0  0  0
  -25.9400  -30.8350   21.4470 C   0  0  0  0  0  2  0  0  0  0  0  0
  -26.0140  -29.4450   20.8140 C   0  0  0  0  0  0  0  0  0  0  0  0
  -27.1930  -28.6360   20.8220 C   0  0  0  0  0  3  0  0  0  0  0  0
  -25.9980  -26.8870   19.6460 C   0  0  0  0  0  3  0  0  0  0  0  0
  -24.8390  -27.6900   19.6230 C   0  0  0  0  0  3  0  0  0  0  0  0
  -23.6140  -29.8490   20.2460 C   0  0  0  0  0  2  0  0  0  0  0  0
  -24.6630  -31.1270   22.1610 N   0  0  0  0  0  0  0  0  0  0  0  0
  -23.5130  -32.2410   23.7740 O   0  0  0  0  0  0  0  0  0  0  0  0
  -22.7150  -29.5440   22.5840 C   0  0  0  0  0  0  0  0  0  0  0  0
  -21.3870  -29.3800   22.4540 N   0  0  0  0  0  0  0  0  0  0  0  0
  -23.3830  -28.9180   23.4120 O   0  0  0  0  0  0  0  0  0  0  0  0
  -20.9080  -29.9370   21.7610 H   0  0  0  0  0  0  0  0  0  0  0  0
  -17.9920  -28.2400   22.9670 C   0  0  0  0  0  0  0  0  0  0  0  0
  -20.5550  -28.4580   23.2290 C   0  0  0  0  0  3  0  0  0  0  0  0
  -20.6320  -27.0240   22.6570 C   0  0  0  0  0  2  0  0  0  0  0  0
  -19.5220  -26.7170   21.6460 C   0  0  0  0  0  2  0  0  0  0  0  0
  -18.1450  -26.8860   22.2940 C   0  0  0  0  0  2  0  0  0  0  0  0
  -19.1240  -28.9850   23.3920 C   0  0  0  0  0  0  0  0  0  0  0  0
  -18.9280  -30.2530   23.9810 C   0  0  0  0  0  3  0  0  0  0  0  0
  -17.6310  -30.7750   24.1500 C   0  0  0  0  0  3  0  0  0  0  0  0
  -16.5130  -30.0270   23.7400 C   0  0  0  0  0  3  0  0  0  0  0  0
  -16.6950  -28.7610   23.1550 C   0  0  0  0  0  3  0  0  0  0  0  0
  -25.8810  -32.5780   23.8750 C   0  0  0  0  0  3  0  0  0  0  0  0
  -25.5770  -33.9800   24.1990 N   0  0  0  0  0  0  0  0  0  0  0  0
  -25.9050  -35.0280   23.4310 C   0  0  0  0  0  0  0  0  0  0  0  0
  -26.5640  -34.9160   22.3950 O   0  0  0  0  0  0  0  0  0  0  0  0
  -24.9900  -34.1410   25.0040 H   0  0  0  0  0  0  0  0  0  0  0  0
  -24.1760  -36.8230   23.0890 C   0  0  0  0  0  1  0  0  0  0  0  0
  -25.4270  -36.4210   23.8850 C   0  0  0  0  0  3  0  0  0  0  0  0
  -27.5720  -37.3110   24.6830 C   0  0  0  0  0  1  0  0  0  0  0  0
  -26.4600  -37.4710   23.7500 N   0  0  0  0  0  0  0  0  0  0  0  0
  -26.0560  -38.3930   23.8950 H   0  0  0  0  0  0  0  0  0  0  0  0
  -26.3860  -31.8120   25.1590 C   0  0  1  0  0  0  0  0  0  0  0  0
  -25.2860  -31.5840   26.2230 C   0  0  0  0  0  1  0  0  0  0  0  0
  -26.9660  -30.4290   24.7780 C   0  0  0  0  0  1  0  0  0  0  0  0
  -27.5350  -32.6050   25.8250 C   0  0  0  0  0  1  0  0  0  0  0  0
  2  6  2  0
  2  4  1  0
  3  1  1  0
  3  8  1  0
  4  3  2  0
  5 22  1  0
  5  1  2  0
  6  5  1  0
  7 12  2  0
  9  4  1  0
  9 11  1  0
 10  8  1  0
 11  7  1  0
 11 10  1  0
 13  6  1  0
 14 22  1  0
 15 20  1  0
 16 17  1  0
 16 15  1  0
 18 17  1  0
 18 27  1  0
 18 19  1  0
 20 14  1  0
 20 19  1  0
 21 14  2  0
 22 23  1  0
 24 25  2  0
 25 44  1  0
 26 25  1  0
 26 29  1  0
 27 24  1  0
 27 28  1  0
 28 26  2  0
 29 30  1  0
 30 31  2  0
 32 35  1  0
 32 31  1  0
 33 32  2  0
 34 33  1  0
 34 29  2  0
 35 36  1  0
 36 37  1  0
 37 38  2  0
 39 38  1  0
 39 43  1  0
 40 39  2  0
 41 36  2  0
 41 40  1  0
 42 41  1  0
 44 45  1  0
 45 48  1  0
 45 47  1  0
 46 44  2  0
 49 50  1  0
 49 24  1  0
 51 49  1  0
 52 53  1  0
 52  7  1  0
 54 65  2  0
 55 53  1  0
 55 60  1  0
 56 64  1  0
 56 66  1  0
 57 63  1  0
 57 59  1  0
 58 64  1  0
 59 60  2  0
 59 58  1  0
 61 55  2  0
 62 61  1  0
 62 57  2  0
 63 56  1  0
 64 54  1  0
 66 68  2  0
 67 66  1  0
 69 67  1  0
 70 79  2  0
 70 75  1  0
 71 67  1  0
 71 75  1  0
 72 71  1  0
 73 74  1  0
 73 72  1  0
 74 70  1  0
 75 76  2  0
 76 77  1  0
 78 77  2  0
 79 78  1  0
 80 54  1  0
 80 81  1  0
 80 90  1  0
 81 84  1  0
 82 86  1  0
 82 81  1  0
 83 82  2  0
 86 85  1  0
 88 86  1  0
 88 89  1  0
 88 87  1  0
 90 93  1  1
 90 91  1  0
 92 90  1  0
M  ISO  4  14 100  22 100  52 101  53 101
M  END
>  <TORSDO>  (45) 
F 17

>  <SCORE>  (45) 
-15.695

>  <name>  (45) 
46

>  <ligand_id>  (45) 
46

>  <original_smiles>  (45) 
[H]c1c([H])c([H])c2c(c1[H])C([H])([H])C([H])([H])C([H])([H])C2([H])N([H])C(=O)C1([H])N(C(=O)C([H])(N([H])C(=O)C([H])(N([H])C([H])([H])[H])C([H])([H])[H])C(C([H])([H])[H])(C([H])([H])[H])C([H])([H])[H])C([H])([H])c2c([H])c(OC([H])([H])C(=O)N3C([H])([H])c4c([H])c(F)c(N([H])C(=O)N5C([H])([H])C([H])([H])C([H])([H])C([H])(n6nc(-c7c([H])c([H])c(Oc8c([H])c([H])c(F)c([H])c8F)c([H])c7[H])c(C(=O)N([H])[H])c6N([H])[H])C5([H])[H])c([H])c4C([H])([H])C3([H])[H])c([H])c([H])c2C1([H])[H]

>  <smiles>  (45) 
[H]c1c([H])c([H])c2c(c1[H])C([H])([H])C([H])([H])C([H])([H])C2([H])N([H])C(=O)C1([H])N(C(=O)C([H])(N([H])C(=O)C([H])(N([H])C([H])([H])[H])C([H])([H])[H])C(C([H])([H])[H])(C([H])([H])[H])C([H])([H])[H])C([H])([H])c2c([H])c(OC([H])([H])C(=O)N3C([H])([H])c4c([H])c(F)c(N([H])C(=O)N5C([H])([H])C([H])([H])C([H])([H])C([H])(n6nc(-c7c([H])c([H])c(Oc8c([H])c([H])c(F)c([H])c8F)c([H])c7[H])c(C(=O)N([H])[H])c6N([H])[H])C5([H])[H])c([H])c4C([H])([H])C3([H])[H])c([H])c([H])c2C1([H])[H]

$$$$
47:0:0
     RDKit          3D

 95104  0  0  1  0  0  0  0  0999 V2000
  -30.2740  -22.0800   21.1500 C   0  0  0  0  0  2  0  0  0  0  0  0
  -29.4460  -20.8170   21.3780 C   0  0  0  0  0  3  0  0  0  0  0  0
  -29.1720  -21.7890   20.1810 C   0  0  0  0  0  3  0  0  0  0  0  0
  -32.2000  -18.2030   22.1620 C   0  0  0  0  0  3  0  0  0  0  0  0
  -31.6830  -17.0150   21.6340 C   0  0  0  0  0  3  0  0  0  0  0  0
  -29.7010  -18.2310   20.9010 C   0  0  0  0  0  3  0  0  0  0  0  0
  -30.2170  -19.4690   21.4190 C   0  0  0  0  0  0  0  0  0  0  0  0
  -31.4680  -19.4020   22.1060 C   0  0  0  0  0  0  0  0  0  0  0  0
  -30.4160  -16.9900   21.0170 C   0  0  0  0  0  0  0  0  0  0  0  0
  -32.0640  -20.5840   22.8570 C   0  0  0  0  0  1  0  0  0  0  0  0
  -30.5470  -14.6580   20.0740 C   0  0  0  0  0  0  0  0  0  0  0  0
  -30.2020  -12.5000   18.9070 C   0  0  0  0  0  2  0  0  0  0  0  0
  -29.1880  -12.6960   17.7620 C   0  0  0  0  0  2  0  0  0  0  0  0
  -27.7440  -12.5290   18.2770 C   0  0  0  0  0  2  0  0  0  0  0  0
  -27.4720  -13.3310   19.5790 C   0  0  0  0  0  3  0  0  0  0  0  0
  -28.6010  -13.1330   20.6150 C   0  0  0  0  0  2  0  0  0  0  0  0
  -29.8690  -13.4780   19.9590 N   0  0  0  0  0  0  0  0  0  0  0  0
  -31.6560  -14.8130   19.5570 O   0  0  0  0  0  0  0  0  0  0  0  0
  -29.8670  -15.7140   20.6020 N   0  0  0  0  0  0  0  0  0  0  0  0
  -28.8880  -15.5590   20.7880 H   0  0  0  0  0  0  0  0  0  0  0  0
  -25.1160  -13.8710   20.4460 C   0  0  0  0  0  0  0  0  0  0  0  0
  -24.0880  -13.0730   20.8670 C   0  0  0  0  0  0  0  0  0  0  0  0
  -24.5720  -11.7310   20.7880 C   0  0  0  0  0  0  0  0  0  0  0  0
  -26.1600  -13.0160   20.1380 N   0  0  0  0  0  0  0  0  0  0  0  0
  -25.8420  -11.7220   20.4020 N   0  0  0  0  0  0  0  0  0  0  0  0
  -23.8840  -10.4520   21.0020 C   0  0  0  0  0  0  0  0  0  0  0  0
  -24.3490   -9.5110   21.9460 C   0  0  0  0  0  3  0  0  0  0  0  0
  -23.6590   -8.2960   22.1480 C   0  0  0  0  0  3  0  0  0  0  0  0
  -22.4890   -8.0130   21.4040 C   0  0  0  0  0  0  0  0  0  0  0  0
  -22.0430   -8.9430   20.4480 C   0  0  0  0  0  3  0  0  0  0  0  0
  -22.7340  -10.1490   20.2460 C   0  0  0  0  0  3  0  0  0  0  0  0
  -21.7670   -6.8500   21.5150 O   0  0  0  0  0  0  0  0  0  0  0  0
  -21.7050   -6.1490   22.6930 C   0  0  0  0  0  0  0  0  0  0  0  0
  -21.2200   -6.7340   23.8840 C   0  0  0  0  0  3  0  0  0  0  0  0
  -21.1090   -5.9580   25.0550 C   0  0  0  0  0  3  0  0  0  0  0  0
  -21.4730   -4.5980   25.0360 C   0  0  0  0  0  0  0  0  0  0  0  0
  -21.9520   -4.0130   23.8500 C   0  0  0  0  0  3  0  0  0  0  0  0
  -22.0640   -4.7870   22.6810 C   0  0  0  0  0  0  0  0  0  0  0  0
  -22.5060   -4.2120   21.5360 F   0  0  0  0  0  0  0  0  0  0  0  0
  -21.3600   -3.8500   26.1580 F   0  0  0  0  0  0  0  0  0  0  0  0
  -22.7010  -13.5170   21.2320 C   0  0  0  0  0  0  0  0  0  0  0  0
  -22.0380  -12.7910   22.1240 N   0  0  0  0  0  0  0  0  0  0  0  0
  -22.2140  -14.5430   20.7570 O   0  0  0  0  0  0  0  0  0  0  0  0
  -22.4470  -11.9580   22.5270 H   0  0  0  0  0  0  0  0  0  0  0  0
  -21.1090  -13.0650   22.4070 H   0  0  0  0  0  0  0  0  0  0  0  0
  -25.2460  -15.2480   20.2770 N   0  0  0  0  0  0  0  0  0  0  0  0
  -24.4790  -15.8920   20.4380 H   0  0  0  0  0  0  0  0  0  0  0  0
  -26.0650  -15.6970   19.8880 H   0  0  0  0  0  0  0  0  0  0  0  0
  -27.2360  -22.8400   21.4670 C   0  0  0  0  0  1  0  0  0  0  0  0
  -28.0870  -22.8520   20.2480 N   0  0  1  0  0  4  0  0  0  0  0  0
  -27.4380  -22.4630   19.5790 H   0  0  0  0  0  0  0  0  0  0  0  0
  -29.5790  -24.2810   18.7110 C   0  0  0  0  0  1  0  0  0  0  0  0
  -28.3350  -24.2290   19.6280 C   0  0  0  0  0  3  0  0  0  0  0  0
  -28.3020  -25.4740   20.6010 C   0  0  0  0  0  2  0  0  0  0  0  0
  -28.3630  -26.7930   19.9820 O   0  0  0  0  0  0  0  0  0  0  0  0
  -24.5900  -31.9570   23.2200 C   0  0  0  0  0  0  0  0  0  0  0  0
  -27.2060  -27.5550   20.0220 C   0  0  0  0  0  0  0  0  0  0  0  0
  -23.3700  -30.5740   21.5770 C   0  0  0  0  0  3  0  0  0  0  0  0
  -24.8100  -29.0730   20.0960 C   0  0  0  0  0  0  0  0  0  0  0  0
  -25.8930  -30.9490   21.3440 C   0  0  0  0  0  2  0  0  0  0  0  0
  -25.9780  -29.5900   20.6700 C   0  0  0  0  0  0  0  0  0  0  0  0
  -27.1830  -28.8430   20.6200 C   0  0  0  0  0  3  0  0  0  0  0  0
  -26.0190  -27.0630   19.4410 C   0  0  0  0  0  3  0  0  0  0  0  0
  -24.8270  -27.8140   19.4720 C   0  0  0  0  0  3  0  0  0  0  0  0
  -23.5610  -29.9230   20.1810 C   0  0  0  0  0  2  0  0  0  0  0  0
  -24.6380  -31.1730   22.1060 N   0  0  0  0  0  0  0  0  0  0  0  0
  -23.5150  -32.2140   23.7790 O   0  0  0  0  0  0  0  0  0  0  0  0
  -22.7400  -29.5310   22.5270 C   0  0  0  0  0  0  0  0  0  0  0  0
  -21.4180  -29.3300   22.4060 N   0  0  0  0  0  0  0  0  0  0  0  0
  -23.4370  -28.9060   23.3290 O   0  0  0  0  0  0  0  0  0  0  0  0
  -20.9160  -29.8910   21.7340 H   0  0  0  0  0  0  0  0  0  0  0  0
  -18.0670  -28.0610   22.8920 C   0  0  0  0  0  0  0  0  0  0  0  0
  -20.6190  -28.3680   23.1650 C   0  0  0  0  0  3  0  0  0  0  0  0
  -20.7490  -26.9430   22.5760 C   0  0  0  0  0  2  0  0  0  0  0  0
  -19.6550  -26.6090   21.5590 C   0  0  0  0  0  2  0  0  0  0  0  0
  -18.2710  -26.7200   22.2060 C   0  0  0  0  0  2  0  0  0  0  0  0
  -19.1710  -28.8420   23.3270 C   0  0  0  0  0  0  0  0  0  0  0  0
  -18.9290  -30.0960   23.9280 C   0  0  0  0  0  3  0  0  0  0  0  0
  -17.6160  -30.5710   24.0990 C   0  0  0  0  0  3  0  0  0  0  0  0
  -16.5260  -29.7880   23.6810 C   0  0  0  0  0  3  0  0  0  0  0  0
  -16.7520  -28.5340   23.0830 C   0  0  0  0  0  3  0  0  0  0  0  0
  -25.8790  -32.5900   23.8280 C   0  0  0  0  0  3  0  0  0  0  0  0
  -26.4060  -31.8200   25.1000 C   0  0  1  0  0  0  0  0  0  0  0  0
  -25.3230  -31.5760   26.1780 C   0  0  0  0  0  1  0  0  0  0  0  0
  -26.9870  -30.4430   24.6990 C   0  0  0  0  0  1  0  0  0  0  0  0
  -27.5590  -32.6160   25.7560 C   0  0  0  0  0  1  0  0  0  0  0  0
  -25.5720  -33.9880   24.1600 N   0  0  0  0  0  0  0  0  0  0  0  0
  -25.9070  -35.0400   23.4020 C   0  0  0  0  0  0  0  0  0  0  0  0
  -26.5800  -34.9360   22.3710 O   0  0  0  0  0  0  0  0  0  0  0  0
  -24.9700  -34.1410   24.9550 H   0  0  0  0  0  0  0  0  0  0  0  0
  -24.1880  -36.8390   23.0460 C   0  0  0  0  0  1  0  0  0  0  0  0
  -25.4270  -36.4320   23.8590 C   0  0  0  0  0  3  0  0  0  0  0  0
  -27.5640  -37.3040   24.6950 C   0  0  0  0  0  1  0  0  0  0  0  0
  -26.4650  -37.4790   23.7480 N   0  0  0  0  0  0  0  0  0  0  0  0
  -26.0640  -38.4010   23.9000 H   0  0  0  0  0  0  0  0  0  0  0  0
  1  2  1  0
  2  7  1  0
  3 50  1  0
  3  1  1  0
  3  2  1  0
  5  4  2  0
  6  9  2  0
  6  7  1  0
  7  8  2  0
  8  4  1  0
  8 10  1  0
  9  5  1  0
 11 19  1  0
 12 17  1  0
 13 14  1  0
 13 12  1  0
 15 14  1  0
 15 24  1  0
 15 16  1  0
 17 11  1  0
 17 16  1  0
 18 11  2  0
 19 20  1  0
 19  9  1  0
 21 22  2  0
 22 41  1  0
 23 22  1  0
 23 26  1  0
 24 25  1  0
 24 21  1  0
 25 23  2  0
 26 27  1  0
 27 28  2  0
 29 32  1  0
 29 28  1  0
 30 29  2  0
 31 30  1  0
 31 26  2  0
 32 33  1  0
 33 34  1  0
 34 35  2  0
 36 35  1  0
 36 40  1  0
 37 36  2  0
 38 33  2  0
 38 37  1  0
 39 38  1  0
 41 42  1  0
 42 45  1  0
 42 44  1  0
 43 41  2  0
 46 47  1  0
 46 21  1  0
 48 46  1  0
 50 49  1  0
 50 51  1  6
 53 52  1  0
 53 50  1  0
 53 54  1  0
 55 57  1  0
 55 54  1  0
 56 67  2  0
 57 62  1  0
 58 66  1  0
 58 68  1  0
 59 65  1  0
 59 61  1  0
 60 66  1  0
 61 60  1  0
 62 61  2  0
 63 64  1  0
 63 57  2  0
 64 59  2  0
 65 58  1  0
 66 56  1  0
 68 70  2  0
 69 68  1  0
 71 69  1  0
 72 81  2  0
 72 77  1  0
 73 69  1  0
 73 77  1  0
 74 73  1  0
 75 76  1  0
 75 74  1  0
 76 72  1  0
 77 78  2  0
 78 79  1  0
 80 79  2  0
 81 80  1  0
 82 56  1  0
 82 87  1  0
 82 83  1  0
 83 86  1  1
 83 84  1  0
 85 83  1  0
 87 90  1  0
 88 92  1  0
 88 87  1  0
 89 88  2  0
 92 91  1  0
 94 92  1  0
 94 95  1  0
 94 93  1  0
M  ISO  4  11 100  19 100  54 101  55 101
M  END
>  <TORSDO>  (46) 
F 20

>  <SCORE>  (46) 
-13.074

>  <name>  (46) 
47

>  <ligand_id>  (46) 
47

>  <original_smiles>  (46) 
[H]c1c([H])c([H])c2c(c1[H])C([H])([H])C([H])([H])C([H])([H])C2([H])N([H])C(=O)C1([H])N(C(=O)C([H])(N([H])C(=O)C([H])(N([H])C([H])([H])[H])C([H])([H])[H])C(C([H])([H])[H])(C([H])([H])[H])C([H])([H])[H])C([H])([H])c2c([H])c(OC([H])([H])C([H])(C([H])([H])[H])[N+]([H])(C([H])([H])[H])C3([H])C([H])([H])C3([H])c3c([H])c(N([H])C(=O)N4C([H])([H])C([H])([H])C([H])([H])C([H])(n5nc(-c6c([H])c([H])c(Oc7c([H])c([H])c(F)c([H])c7F)c([H])c6[H])c(C(=O)N([H])[H])c5N([H])[H])C4([H])[H])c([H])c([H])c3C([H])([H])[H])c([H])c([H])c2C1([H])[H]

>  <smiles>  (46) 
[H]c1c([H])c([H])c2c(c1[H])C([H])([H])C([H])([H])C([H])([H])C2([H])N([H])C(=O)C1([H])N(C(=O)C([H])(N([H])C(=O)C([H])(N([H])C([H])([H])[H])C([H])([H])[H])C(C([H])([H])[H])(C([H])([H])[H])C([H])([H])[H])C([H])([H])c2c([H])c(OC([H])([H])C([H])(C([H])([H])[H])[N+]([H])(C([H])([H])[H])C3([H])C([H])([H])C3([H])c3c([H])c(N([H])C(=O)N4C([H])([H])C([H])([H])C([H])([H])C([H])(n5nc(-c6c([H])c([H])c(Oc7c([H])c([H])c(F)c([H])c7F)c([H])c6[H])c(C(=O)N([H])[H])c5N([H])[H])C4([H])[H])c([H])c([H])c3C([H])([H])[H])c([H])c([H])c2C1([H])[H]

$$$$
48:0:0
     RDKit          3D

106109  0  0  1  0  0  0  0  0999 V2000
  -30.6660  -27.1030   19.0350 C   0  0  0  0  0  2  0  0  0  0  0  0
  -32.2040  -27.2690   19.1690 C   0  0  0  0  0  3  0  0  0  0  0  0
  -32.8000  -26.6650   20.4910 C   0  0  0  0  0  2  0  0  0  0  0  0
  -31.2020  -24.9200   21.5180 C   0  0  0  0  0  0  0  0  0  0  0  0
  -31.7950  -26.1490   21.5080 N   0  0  0  0  0  0  0  0  0  0  0  0
  -31.5830  -24.0390   20.7640 O   0  0  0  0  0  0  0  0  0  0  0  0
  -31.5190  -26.7420   22.2760 H   0  0  0  0  0  0  0  0  0  0  0  0
  -29.7650  -24.5490   22.2490 C   0  0  0  0  0  2  0  0  0  0  0  0
  -28.2820  -24.8320   21.5570 O   0  0  0  0  0  0  0  0  0  0  0  0
  -24.6170  -31.5390   22.8800 C   0  0  0  0  0  0  0  0  0  0  0  0
  -27.1040  -26.1870   20.1510 C   0  0  0  0  0  2  0  0  0  0  0  0
  -23.3820  -30.0440   21.2580 C   0  0  0  0  0  3  0  0  0  0  0  0
  -24.7070  -28.3130   19.7980 C   0  0  0  0  0  0  0  0  0  0  0  0
  -25.9510  -30.2190   21.0420 C   0  0  0  0  0  2  0  0  0  0  0  0
  -25.9000  -28.7940   20.2960 C   0  0  0  0  0  0  0  0  0  0  0  0
  -26.9500  -27.7290   20.2500 C   0  0  0  0  0  2  0  0  0  0  0  0
  -25.9760  -26.1060   19.3470 C   0  0  0  0  0  3  0  0  0  0  0  0
  -24.7890  -27.0160   19.1240 C   0  0  0  0  0  3  0  0  0  0  0  0
  -23.4190  -29.0610   20.0140 C   0  0  0  0  0  2  0  0  0  0  0  0
  -24.6770  -30.6750   21.7660 N   0  0  0  0  0  0  0  0  0  0  0  0
  -23.5500  -31.8580   23.4240 O   0  0  0  0  0  0  0  0  0  0  0  0
  -22.6810  -29.2240   22.3130 C   0  0  0  0  0  0  0  0  0  0  0  0
  -21.3450  -29.0720   22.2150 N   0  0  0  0  0  0  0  0  0  0  0  0
  -23.3670  -28.6940   23.1800 O   0  0  0  0  0  0  0  0  0  0  0  0
  -20.8790  -29.4080   21.3730 H   0  0  0  0  0  0  0  0  0  0  0  0
  -17.9390  -28.1740   22.8030 C   0  0  0  0  0  0  0  0  0  0  0  0
  -20.5040  -28.2740   23.1160 C   0  0  0  0  0  3  0  0  0  0  0  0
  -20.3870  -26.7750   22.7510 C   0  0  0  0  0  2  0  0  0  0  0  0
  -19.4480  -26.5400   21.5580 C   0  0  0  0  0  2  0  0  0  0  0  0
  -18.0170  -26.8890   21.9840 C   0  0  0  0  0  2  0  0  0  0  0  0
  -19.1020  -28.8520   23.2710 C   0  0  0  0  0  0  0  0  0  0  0  0
  -18.9590  -30.0840   23.9370 C   0  0  0  0  0  3  0  0  0  0  0  0
  -17.6840  -30.6340   24.1570 C   0  0  0  0  0  3  0  0  0  0  0  0
  -16.5380  -29.9390   23.7350 C   0  0  0  0  0  3  0  0  0  0  0  0
  -16.6630  -28.7110   23.0620 C   0  0  0  0  0  3  0  0  0  0  0  0
  -25.8720  -32.1980   23.5530 C   0  0  0  0  0  3  0  0  0  0  0  0
  -26.4250  -31.4860   24.8630 C   0  0  1  0  0  0  0  0  0  0  0  0
  -25.3080  -31.1660   25.8830 C   0  0  0  0  0  1  0  0  0  0  0  0
  -27.1930  -30.1870   24.5120 C   0  0  0  0  0  1  0  0  0  0  0  0
  -27.4660  -32.3880   25.5850 C   0  0  0  0  0  1  0  0  0  0  0  0
  -25.5190  -33.5900   23.9170 N   0  0  0  0  0  0  0  0  0  0  0  0
  -25.9030  -34.7190   23.2930 C   0  0  0  0  0  0  0  0  0  0  0  0
  -26.6240  -34.7040   22.2930 O   0  0  0  0  0  0  0  0  0  0  0  0
  -24.8170  -33.6400   24.6390 H   0  0  0  0  0  0  0  0  0  0  0  0
  -24.1290  -36.5060   23.1170 C   0  0  0  0  0  1  0  0  0  0  0  0
  -25.4000  -36.0660   23.8590 C   0  0  0  0  0  3  0  0  0  0  0  0
  -27.5230  -36.9840   24.7030 C   0  0  0  0  0  1  0  0  0  0  0  0
  -26.4010  -37.1550   23.7870 N   0  0  0  0  0  0  0  0  0  0  0  0
  -25.9650  -38.0520   23.9680 H   0  0  0  0  0  0  0  0  0  0  0  0
  -32.6800  -28.7840   18.9820 C   0  0  0  0  0  2  0  0  0  0  0  0
  -32.4580  -29.7180   20.1230 N   0  0  0  0  0  4  0  0  0  0  0  0
  -31.5000  -29.9730   20.2690 H   0  0  0  0  0  0  0  0  0  0  0  0
  -32.9010  -30.6050   19.9580 H   0  0  0  0  0  0  0  0  0  0  0  0
  -32.8770  -29.4130   20.9830 H   0  0  0  0  0  0  0  0  0  0  0  0
  -30.0690  -25.7900   18.9390 O   0  0  0  0  0  0  0  0  0  0  0  0
  -27.9210  -26.7860   22.8820 C   0  0  0  0  0  2  0  0  0  0  0  0
  -26.7710  -23.9840   21.5650 C   0  0  0  0  0  3  0  0  0  0  0  0
  -26.6370  -25.4330   22.7450 C   0  0  0  0  0  0  0  0  0  0  0  0
  -29.2520  -27.0060   21.5000 C   0  0  0  0  0  2  0  0  0  0  0  0
  -28.1610  -23.6120   20.3500 C   0  0  0  0  0  2  0  0  0  0  0  0
  -29.2180  -25.4080   20.0230 C   0  0  0  0  0  1  0  0  0  0  0  0
  -25.1960  -25.7170   23.3770 C   0  0  0  0  0  1  0  0  0  0  0  0
  -29.6260  -28.5150   21.6450 C   0  0  0  0  0  1  0  0  0  0  0  0
  -28.6630  -21.3400   19.9430 C   0  0  0  0  0  1  0  0  0  0  0  0
  -29.5460  -17.3100   20.2100 C   0  0  0  0  0  2  0  0  0  0  0  0
  -30.0710  -14.4490   19.4300 C   0  0  0  0  0  2  0  0  0  0  0  0
  -29.4580  -13.3540   18.4050 C   0  0  0  0  0  2  0  0  0  0  0  0
  -28.2160  -12.6290   18.9180 C   0  0  0  0  0  2  0  0  0  0  0  0
  -27.4730  -13.6400   19.7940 C   0  0  0  0  0  3  0  0  0  0  0  0
  -28.3200  -14.5740   20.7950 C   0  0  0  0  0  2  0  0  0  0  0  0
  -29.1930  -15.6940   20.0900 N   0  0  0  0  0  0  0  0  0  0  0  0
  -30.7840  -17.0290   20.1640 O   0  0  0  0  0  1  0  0  0  0  0  0
  -28.7950  -19.0810   20.2410 N   0  0  0  0  0  1  0  0  0  0  0  0
  -27.8260  -18.8350   20.3450 H   0  0  0  0  0  0  0  0  0  0  0  0
  -25.1080  -13.9200   20.5460 C   0  0  0  0  0  0  0  0  0  0  0  0
  -24.0890  -13.0830   20.8920 C   0  0  0  0  0  0  0  0  0  0  0  0
  -24.6240  -11.7580   20.8460 C   0  0  0  0  0  0  0  0  0  0  0  0
  -26.2110  -13.1270   20.3320 N   0  0  0  0  0  0  0  0  0  0  0  0
  -25.9310  -11.7990   20.5400 N   0  0  0  0  0  0  0  0  0  0  0  0
  -23.9250  -10.4680   21.0220 C   0  0  0  0  0  0  0  0  0  0  0  0
  -24.3260   -9.5180   21.9870 C   0  0  0  0  0  3  0  0  0  0  0  0
  -23.6060   -8.3130   22.1600 C   0  0  0  0  0  3  0  0  0  0  0  0
  -22.4630   -8.0430   21.3720 C   0  0  0  0  0  0  0  0  0  0  0  0
  -22.0750   -8.9830   20.4000 C   0  0  0  0  0  3  0  0  0  0  0  0
  -22.7970  -10.1770   20.2270 C   0  0  0  0  0  3  0  0  0  0  0  0
  -21.7220   -6.8860   21.4480 O   0  0  0  0  0  0  0  0  0  0  0  0
  -21.6220   -6.1700   22.6150 C   0  0  0  0  0  0  0  0  0  0  0  0
  -21.1310   -6.7460   23.8070 C   0  0  0  0  0  3  0  0  0  0  0  0
  -20.9870   -5.9560   24.9650 C   0  0  0  0  0  3  0  0  0  0  0  0
  -21.3210   -4.5880   24.9300 C   0  0  0  0  0  0  0  0  0  0  0  0
  -21.8030   -4.0120   23.7420 C   0  0  0  0  0  3  0  0  0  0  0  0
  -21.9510   -4.8000   22.5880 C   0  0  0  0  0  0  0  0  0  0  0  0
  -22.3970   -4.2360   21.4390 F   0  0  0  0  0  0  0  0  0  0  0  0
  -21.1720   -3.8240   26.0380 F   0  0  0  0  0  0  0  0  0  0  0  0
  -22.6740  -13.5120   21.1370 C   0  0  0  0  0  0  0  0  0  0  0  0
  -21.9620  -12.8080   22.0100 N   0  0  0  0  0  0  0  0  0  0  0  0
  -22.2090  -14.5170   20.6010 O   0  0  0  0  0  0  0  0  0  0  0  0
  -22.3520  -11.9970   22.4670 H   0  0  0  0  0  0  0  0  0  0  0  0
  -21.0130  -13.0790   22.2270 H   0  0  0  0  0  0  0  0  0  0  0  0
  -25.1820  -15.2930   20.3430 N   0  0  0  0  0  0  0  0  0  0  0  0
  -24.3730  -15.9040   20.4160 H   0  0  0  0  0  0  0  0  0  0  0  0
  -26.0160  -15.7640   20.0230 H   0  0  0  0  0  0  0  0  0  0  0  0
  -28.8130  -20.2070   17.7160 C   0  0  0  0  0  1  0  0  0  0  0  0
  -28.8820  -22.7180   17.7890 C   0  0  0  0  0  1  0  0  0  0  0  0
  -26.7420  -21.5490   17.9850 C   0  0  0  0  0  1  0  0  0  0  0  0
  -28.2620  -21.4470   18.4150 C   0  0  2  0  0  0  0  0  0  0  0  0
  1  2  1  0
  2 50  1  0
  2  3  1  0
  3  5  1  0
  4  8  1  0
  5  4  1  0
  5  7  1  0
  6  4  2  0
  9  8  1  0
 10 21  2  0
 11 16  1  0
 12 20  1  0
 12 22  1  0
 13 19  1  0
 13 15  2  0
 14 20  1  0
 15 14  1  0
 16 15  1  0
 17 11  1  0
 18 17  2  0
 18 13  1  0
 19 12  1  0
 20 10  1  0
 22 24  2  0
 23 22  1  0
 25 23  1  0
 26 35  2  0
 26 31  1  0
 27 23  1  0
 27 31  1  0
 28 27  1  0
 29 30  1  0
 29 28  1  0
 30 26  1  0
 31 32  2  0
 32 33  1  0
 34 33  2  0
 35 34  1  0
 36 10  1  0
 36 41  1  0
 36 37  1  0
 37 40  1  1
 37 38  1  0
 39 37  1  0
 41 44  1  0
 42 46  1  0
 42 41  1  0
 43 42  2  0
 46 45  1  0
 48 46  1  0
 48 49  1  0
 48 47  1  0
 50 51  1  0
 51 52  1  0
 51 54  1  0
 53 51  1  0
 55  1  1  0
 55 61  1  0
 57 58  2  0
 58 56  1  0
 58 62  1  0
 59 63  1  0
 59 56  1  0
 60  9  1  0
 60 57  1  0
 66 71  1  0
 67 68  1  0
 67 66  1  0
 69 68  1  0
 69 78  1  0
 69 70  1  0
 71 65  1  0
 71 70  1  0
 72 65  1  0
 73 74  1  0
 75 76  2  0
 76 95  1  0
 77 76  1  0
 77 80  1  0
 78 79  1  0
 78 75  1  0
 79 77  2  0
 80 81  1  0
 81 82  2  0
 83 86  1  0
 83 82  1  0
 84 83  2  0
 85 84  1  0
 85 80  2  0
 86 87  1  0
 87 88  1  0
 88 89  2  0
 90 89  1  0
 90 94  1  0
 91 90  2  0
 92 87  2  0
 92 91  1  0
 93 92  1  0
 95 96  1  0
 96 99  1  0
 96 98  1  0
 97 95  2  0
100101  1  0
100 75  1  0
102100  1  0
106103  1  6
104106  1  0
105106  1  0
106 64  1  0
M  ISO  4   8 101   9 101  65 100  73 100
M  END
>  <TORSDO>  (47) 
F 26

>  <SCORE>  (47) 
-13.803

>  <name>  (47) 
48

>  <ligand_id>  (47) 
48

>  <original_smiles>  (47) 
[H]c1c([H])c([H])c2c(c1[H])C([H])([H])C([H])([H])C([H])([H])C2([H])N([H])C(=O)C1([H])N(C(=O)C([H])(N([H])C(=O)C([H])(N([H])C([H])([H])[H])C([H])([H])[H])C(C([H])([H])[H])(C([H])([H])[H])C([H])([H])[H])C([H])([H])c2c([H])c(OC([H])([H])C(=O)N([H])C([H])([H])C([H])(C([H])([H])Oc3c(C([H])([H])[H])c([H])c(C([H])([H])[H])c([H])c3C([H])(N([H])C(=O)N3C([H])([H])C([H])([H])C([H])([H])C([H])(n4nc(-c5c([H])c([H])c(Oc6c([H])c([H])c(F)c([H])c6F)c([H])c5[H])c(C(=O)N([H])[H])c4N([H])[H])C3([H])[H])C(C([H])([H])[H])(C([H])([H])[H])C([H])([H])[H])C([H])([H])[N+]([H])([H])[H])c([H])c([H])c2C1([H])[H]

>  <smiles>  (47) 
[H]c1c([H])c([H])c2c(c1[H])C([H])([H])C([H])([H])C([H])([H])C2([H])N([H])C(=O)C1([H])N(C(=O)C([H])(N([H])C(=O)C([H])(N([H])C([H])([H])[H])C([H])([H])[H])C(C([H])([H])[H])(C([H])([H])[H])C([H])([H])[H])C([H])([H])c2c([H])c(OC([H])([H])C(=O)N([H])C([H])([H])C([H])(C([H])([H])Oc3c(C([H])([H])[H])c([H])c(C([H])([H])[H])c([H])c3C([H])(N([H])C(=O)N3C([H])([H])C([H])([H])C([H])([H])C([H])(n4nc(-c5c([H])c([H])c(Oc6c([H])c([H])c(F)c([H])c6F)c([H])c5[H])c(C(=O)N([H])[H])c4N([H])[H])C3([H])[H])C(C([H])([H])[H])(C([H])([H])[H])C([H])([H])[H])C([H])([H])[N+]([H])([H])[H])c([H])c([H])c2C1([H])[H]

$$$$
49:0:0
     RDKit          3D

 98107  0  0  1  0  0  0  0  0999 V2000
  -28.5320  -22.3930   21.6130 N   0  0  0  0  0  4  0  0  0  0  0  0
  -28.7730  -22.3580   22.5870 H   0  0  0  0  0  0  0  0  0  0  0  0
  -27.7040  -21.8270   21.5150 H   0  0  0  0  0  0  0  0  0  0  0  0
  -30.9760  -21.9420   21.3400 C   0  0  0  0  0  2  0  0  0  0  0  0
  -30.3070  -20.5910   21.5550 C   0  0  0  0  0  3  0  0  0  0  0  0
  -29.5880  -21.7210   20.7990 C   0  0  0  0  0  3  0  0  0  0  0  0
  -30.3840  -18.1100   20.8130 C   0  0  0  0  0  3  0  0  0  0  0  0
  -32.4240  -19.4390   20.8150 C   0  0  0  0  0  3  0  0  0  0  0  0
  -32.5220  -17.0810   20.2400 C   0  0  0  0  0  3  0  0  0  0  0  0
  -31.0260  -19.3660   21.0110 C   0  0  0  0  0  0  0  0  0  0  0  0
  -31.1220  -16.9560   20.4170 C   0  0  0  0  0  0  0  0  0  0  0  0
  -33.1670  -18.3130   20.4270 C   0  0  0  0  0  0  0  0  0  0  0  0
  -34.5090  -18.4090   20.2590 F   0  0  0  0  0  0  0  0  0  0  0  0
  -31.0540  -14.5770   19.7020 C   0  0  0  0  0  0  0  0  0  0  0  0
  -30.7370  -12.2450   18.9470 C   0  0  0  0  0  2  0  0  0  0  0  0
  -29.7540  -12.2000   17.7630 C   0  0  0  0  0  2  0  0  0  0  0  0
  -28.3060  -12.0890   18.2740 C   0  0  0  0  0  2  0  0  0  0  0  0
  -27.9790  -13.1310   19.3780 C   0  0  0  0  0  3  0  0  0  0  0  0
  -29.0820  -13.1730   20.4620 C   0  0  0  0  0  2  0  0  0  0  0  0
  -30.3720  -13.4000   19.7870 N   0  0  0  0  0  0  0  0  0  0  0  0
  -32.1080  -14.6670   19.0660 O   0  0  0  0  0  0  0  0  0  0  0  0
  -30.4870  -15.6750   20.2530 N   0  0  0  0  0  0  0  0  0  0  0  0
  -29.5400  -15.5770   20.5880 H   0  0  0  0  0  0  0  0  0  0  0  0
  -25.6720  -13.8110   20.2870 C   0  0  0  0  0  0  0  0  0  0  0  0
  -24.6030  -13.0720   20.7210 C   0  0  0  0  0  0  0  0  0  0  0  0
  -25.0020  -11.7050   20.6180 C   0  0  0  0  0  0  0  0  0  0  0  0
  -26.6570  -12.8960   19.9550 N   0  0  0  0  0  0  0  0  0  0  0  0
  -26.2610  -11.6210   20.2070 N   0  0  0  0  0  0  0  0  0  0  0  0
  -24.2370  -10.4680   20.8340 C   0  0  0  0  0  0  0  0  0  0  0  0
  -24.6270   -9.5160   21.8010 C   0  0  0  0  0  3  0  0  0  0  0  0
  -23.8650   -8.3450   22.0030 C   0  0  0  0  0  3  0  0  0  0  0  0
  -22.6980   -8.1180   21.2370 C   0  0  0  0  0  0  0  0  0  0  0  0
  -22.3250   -9.0580   20.2580 C   0  0  0  0  0  3  0  0  0  0  0  0
  -23.0880  -10.2200   20.0560 C   0  0  0  0  0  3  0  0  0  0  0  0
  -21.9100   -6.9980   21.3460 O   0  0  0  0  0  0  0  0  0  0  0  0
  -21.7470   -6.3450   22.5410 C   0  0  0  0  0  0  0  0  0  0  0  0
  -21.2330   -6.9980   23.6820 C   0  0  0  0  0  3  0  0  0  0  0  0
  -21.0170   -6.2730   24.8700 C   0  0  0  0  0  3  0  0  0  0  0  0
  -21.3070   -4.8950   24.9180 C   0  0  0  0  0  0  0  0  0  0  0  0
  -21.8140   -4.2420   23.7810 C   0  0  0  0  0  3  0  0  0  0  0  0
  -22.0300   -4.9650   22.5950 C   0  0  0  0  0  0  0  0  0  0  0  0
  -22.5000   -4.3270   21.4950 F   0  0  0  0  0  0  0  0  0  0  0  0
  -21.0920   -4.1960   26.0570 F   0  0  0  0  0  0  0  0  0  0  0  0
  -23.2540  -13.6000   21.1170 C   0  0  0  0  0  0  0  0  0  0  0  0
  -22.5750  -12.9190   22.0340 N   0  0  0  0  0  0  0  0  0  0  0  0
  -22.8150  -14.6490   20.6510 O   0  0  0  0  0  0  0  0  0  0  0  0
  -22.9430  -12.0680   22.4310 H   0  0  0  0  0  0  0  0  0  0  0  0
  -21.6730  -13.2520   22.3420 H   0  0  0  0  0  0  0  0  0  0  0  0
  -25.8800  -15.1780   20.1320 N   0  0  0  0  0  0  0  0  0  0  0  0
  -25.1510  -15.8590   20.3130 H   0  0  0  0  0  0  0  0  0  0  0  0
  -26.7200  -15.5900   19.7450 H   0  0  0  0  0  0  0  0  0  0  0  0
  -28.1030  -23.7870   21.2840 C   0  0  0  0  0  2  0  0  0  0  0  0
  -29.0920  -24.9360   21.6680 C   0  0  0  0  0  3  0  0  0  0  0  0
  -29.4790  -24.8820   23.0780 N   0  0  0  0  0  0  0  0  0  0  0  0
  -28.6860  -24.9660   23.7060 H   0  0  0  0  0  0  0  0  0  0  0  0
  -29.9820  -24.0440   23.3370 H   0  0  0  0  0  0  0  0  0  0  0  0
  -28.4960  -26.3730   21.5010 C   0  0  0  0  0  2  0  0  0  0  0  0
  -28.0850  -26.7480   20.1810 O   0  0  0  0  0  0  0  0  0  0  0  0
  -24.4980  -32.0640   23.3220 C   0  0  0  0  0  0  0  0  0  0  0  0
  -26.9820  -27.5750   20.1780 C   0  0  0  0  0  0  0  0  0  0  0  0
  -23.2230  -30.6840   21.7090 C   0  0  0  0  0  3  0  0  0  0  0  0
  -24.6170  -29.1220   20.2410 C   0  0  0  0  0  0  0  0  0  0  0  0
  -25.7460  -31.0010   21.4430 C   0  0  0  0  0  2  0  0  0  0  0  0
  -25.7960  -29.6260   20.8070 C   0  0  0  0  0  0  0  0  0  0  0  0
  -26.9820  -28.8560   20.7830 C   0  0  0  0  0  3  0  0  0  0  0  0
  -25.7970  -27.0940   19.5910 C   0  0  0  0  0  3  0  0  0  0  0  0
  -24.6130  -27.8550   19.6290 C   0  0  0  0  0  3  0  0  0  0  0  0
  -23.3850  -29.9990   20.3240 C   0  0  0  0  0  2  0  0  0  0  0  0
  -24.5100  -31.2620   22.2190 N   0  0  0  0  0  0  0  0  0  0  0  0
  -23.4370  -32.3570   23.8910 O   0  0  0  0  0  0  0  0  0  0  0  0
  -22.5760  -29.6780   22.6870 C   0  0  0  0  0  0  0  0  0  0  0  0
  -21.2570  -29.4700   22.5450 N   0  0  0  0  0  0  0  0  0  0  0  0
  -23.2590  -29.0840   23.5270 O   0  0  0  0  0  0  0  0  0  0  0  0
  -20.7710  -30.0060   21.8400 H   0  0  0  0  0  0  0  0  0  0  0  0
  -17.9100  -28.1710   22.9590 C   0  0  0  0  0  0  0  0  0  0  0  0
  -20.4420  -28.5360   23.3210 C   0  0  0  0  0  3  0  0  0  0  0  0
  -20.6200  -27.0870   22.8120 C   0  0  0  0  0  2  0  0  0  0  0  0
  -19.5730  -26.6800   21.7700 C   0  0  0  0  0  2  0  0  0  0  0  0
  -18.1620  -26.8010   22.3540 C   0  0  0  0  0  2  0  0  0  0  0  0
  -18.9820  -28.9920   23.3980 C   0  0  0  0  0  0  0  0  0  0  0  0
  -18.6950  -30.2720   23.9220 C   0  0  0  0  0  3  0  0  0  0  0  0
  -17.3670  -30.7320   24.0100 C   0  0  0  0  0  3  0  0  0  0  0  0
  -16.3090  -29.9070   23.5890 C   0  0  0  0  0  3  0  0  0  0  0  0
  -16.5810  -28.6290   23.0680 C   0  0  0  0  0  3  0  0  0  0  0  0
  -25.8110  -32.6650   23.9120 C   0  0  0  0  0  3  0  0  0  0  0  0
  -25.5450  -34.0710   24.2430 N   0  0  0  0  0  0  0  0  0  0  0  0
  -25.8920  -35.1110   23.4730 C   0  0  0  0  0  0  0  0  0  0  0  0
  -26.5430  -34.9870   22.4320 O   0  0  0  0  0  0  0  0  0  0  0  0
  -24.9660  -34.2430   25.0520 H   0  0  0  0  0  0  0  0  0  0  0  0
  -24.2000  -36.9400   23.1430 C   0  0  0  0  0  1  0  0  0  0  0  0
  -25.4470  -36.5130   23.9310 C   0  0  0  0  0  3  0  0  0  0  0  0
  -27.6210  -37.3480   24.7090 C   0  0  0  0  0  1  0  0  0  0  0  0
  -26.5030  -37.5400   23.7890 N   0  0  0  0  0  0  0  0  0  0  0  0
  -26.1230  -38.4690   23.9440 H   0  0  0  0  0  0  0  0  0  0  0  0
  -26.3420  -31.8820   25.1750 C   0  0  1  0  0  0  0  0  0  0  0  0
  -25.2620  -31.6400   26.2560 C   0  0  0  0  0  1  0  0  0  0  0  0
  -26.9120  -30.5070   24.7580 C   0  0  0  0  0  1  0  0  0  0  0  0
  -27.5070  -32.6640   25.8260 C   0  0  0  0  0  1  0  0  0  0  0  0
  1  2  1  0
  3  1  1  0
  4  5  1  0
  5 10  1  0
  6  4  1  0
  6  5  1  0
  6  1  1  0
  7 10  1  0
  8 10  2  0
  9 11  1  0
  9 12  2  0
 11  7  2  0
 12  8  1  0
 13 12  1  0
 14 20  1  0
 14 22  1  0
 15 20  1  0
 16 17  1  0
 16 15  1  0
 18 17  1  0
 18 27  1  0
 18 19  1  0
 20 19  1  0
 21 14  2  0
 22 11  1  0
 22 23  1  0
 24 25  2  0
 25 44  1  0
 26 25  1  0
 26 29  1  0
 27 28  1  0
 27 24  1  0
 28 26  2  0
 29 30  1  0
 30 31  2  0
 32 35  1  0
 32 31  1  0
 33 32  2  0
 34 33  1  0
 34 29  2  0
 35 36  1  0
 36 41  2  0
 36 37  1  0
 37 38  2  0
 38 39  1  0
 39 43  1  0
 40 39  2  0
 41 40  1  0
 42 41  1  0
 44 45  1  0
 45 48  1  0
 45 47  1  0
 46 44  2  0
 49 24  1  0
 49 50  1  0
 51 49  1  0
 52  1  1  0
 53 52  1  0
 53 54  1  0
 54 56  1  0
 54 55  1  0
 57 53  1  0
 58 57  1  0
 59 70  2  0
 60 58  1  0
 60 65  1  0
 61 69  1  0
 61 71  1  0
 62 68  1  0
 62 64  1  0
 63 69  1  0
 64 63  1  0
 65 64  2  0
 66 67  1  0
 66 60  2  0
 67 62  2  0
 68 61  1  0
 69 59  1  0
 71 73  2  0
 72 71  1  0
 74 72  1  0
 75 84  2  0
 75 80  1  0
 76 72  1  0
 76 80  1  0
 77 76  1  0
 78 79  1  0
 78 77  1  0
 79 75  1  0
 80 81  2  0
 81 82  1  0
 83 82  2  0
 84 83  1  0
 85 59  1  0
 85 86  1  0
 85 95  1  0
 86 89  1  0
 87 91  1  0
 87 86  1  0
 88 87  2  0
 91 90  1  0
 93 91  1  0
 93 94  1  0
 93 92  1  0
 95 98  1  1
 95 96  1  0
 97 95  1  0
M  ISO  4  14 100  22 100  57 101  58 101
M  END
>  <TORSDO>  (48) 
F 22

>  <SCORE>  (48) 
-13.199

>  <name>  (48) 
49

>  <ligand_id>  (48) 
49

>  <original_smiles>  (48) 
[H]c1c([H])c([H])c2c(c1[H])C([H])([H])C([H])([H])C([H])([H])C2([H])N([H])C(=O)C1([H])N(C(=O)C([H])(N([H])C(=O)C([H])(N([H])C([H])([H])[H])C([H])([H])[H])C(C([H])([H])[H])(C([H])([H])[H])C([H])([H])[H])C([H])([H])c2c([H])c(OC([H])([H])C([H])(N([H])[H])C([H])([H])[N+]([H])([H])C3([H])C([H])([H])C3([H])c3c([H])c(F)c([H])c(N([H])C(=O)N4C([H])([H])C([H])([H])C([H])([H])C([H])(n5nc(-c6c([H])c([H])c(Oc7c([H])c([H])c(F)c([H])c7F)c([H])c6[H])c(C(=O)N([H])[H])c5N([H])[H])C4([H])[H])c3[H])c([H])c([H])c2C1([H])[H]

>  <smiles>  (48) 
[H]c1c([H])c([H])c2c(c1[H])C([H])([H])C([H])([H])C([H])([H])C2([H])N([H])C(=O)C1([H])N(C(=O)C([H])(N([H])C(=O)C([H])(N([H])C([H])([H])[H])C([H])([H])[H])C(C([H])([H])[H])(C([H])([H])[H])C([H])([H])[H])C([H])([H])c2c([H])c(OC([H])([H])C([H])(N([H])[H])C([H])([H])[N+]([H])([H])C3([H])C([H])([H])C3([H])c3c([H])c(F)c([H])c(N([H])C(=O)N4C([H])([H])C([H])([H])C([H])([H])C([H])(n5nc(-c6c([H])c([H])c(Oc7c([H])c([H])c(F)c([H])c7F)c([H])c6[H])c(C(=O)N([H])[H])c5N([H])[H])C4([H])[H])c3[H])c([H])c([H])c2C1([H])[H]

$$$$
50:0:0
     RDKit          3D

105114  0  0  1  0  0  0  0  0999 V2000
  -32.1870  -21.9420   19.3950 C   0  0  0  0  0  2  0  0  0  0  0  0
  -31.2560  -23.1300   19.2110 C   0  0  0  0  0  2  0  0  0  0  0  0
  -30.9220  -21.0750   19.3430 C   0  0  0  0  0  3  0  0  0  0  0  0
  -30.1850  -22.2710   19.7160 N   0  0  2  0  0  4  0  0  0  0  0  0
  -30.1490  -22.2560   20.7260 H   0  0  0  0  0  0  0  0  0  0  0  0
  -30.8150  -20.0250   20.4640 C   0  0  0  0  0  0  0  0  0  0  0  0
  -32.6490  -18.7810   19.3770 C   0  0  0  0  0  1  0  0  0  0  0  0
  -31.5590  -18.9020   20.3630 N   0  0  0  0  0  0  0  0  0  0  0  0
  -30.0100  -20.2110   21.3830 O   0  0  0  0  0  0  0  0  0  0  0  0
  -30.7180  -14.5590   20.6980 C   0  0  0  0  0  0  0  0  0  0  0  0
  -30.3960  -12.4230   19.5430 C   0  0  0  0  0  2  0  0  0  0  0  0
  -29.5270  -12.6220   18.2880 C   0  0  0  0  0  2  0  0  0  0  0  0
  -28.0360  -12.5000   18.6460 C   0  0  0  0  0  2  0  0  0  0  0  0
  -27.6390  -13.3710   19.8680 C   0  0  0  0  0  3  0  0  0  0  0  0
  -28.6310  -13.1830   21.0390 C   0  0  0  0  0  2  0  0  0  0  0  0
  -29.9900  -13.4300   20.5320 N   0  0  0  0  0  0  0  0  0  0  0  0
  -31.8470  -14.7030   20.2160 O   0  0  0  0  0  0  0  0  0  0  0  0
  -30.1790  -16.8280   20.4010 C   0  0  0  0  0  2  0  0  0  0  0  0
  -30.4510  -16.0490   22.5990 C   0  0  0  0  0  2  0  0  0  0  0  0
  -31.2940  -17.6360   21.0680 C   0  0  0  0  0  3  0  0  0  0  0  0
  -30.7960  -17.5580   22.5120 C   0  0  0  0  0  3  0  0  0  0  0  0
  -30.0780  -15.6210   21.2310 N   0  0  0  0  0  0  0  0  0  0  0  0
  -25.1990  -13.9850   20.4170 C   0  0  0  0  0  0  0  0  0  0  0  0
  -24.1170  -13.2170   20.7550 C   0  0  0  0  0  0  0  0  0  0  0  0
  -24.5890  -11.8690   20.7990 C   0  0  0  0  0  0  0  0  0  0  0  0
  -26.2610  -13.1050   20.2790 N   0  0  0  0  0  0  0  0  0  0  0  0
  -25.8940  -11.8290   20.5650 N   0  0  0  0  0  0  0  0  0  0  0  0
  -23.8630  -10.6070   20.9940 C   0  0  0  0  0  0  0  0  0  0  0  0
  -24.2540   -9.6770   21.9820 C   0  0  0  0  0  3  0  0  0  0  0  0
  -23.5280   -8.4790   22.1640 C   0  0  0  0  0  3  0  0  0  0  0  0
  -22.3990   -8.2030   21.3580 C   0  0  0  0  0  0  0  0  0  0  0  0
  -22.0300   -9.1220   20.3590 C   0  0  0  0  0  3  0  0  0  0  0  0
  -22.7550  -10.3110   20.1740 C   0  0  0  0  0  3  0  0  0  0  0  0
  -21.6520   -7.0540   21.4450 O   0  0  0  0  0  0  0  0  0  0  0  0
  -21.5540   -6.3450   22.6160 C   0  0  0  0  0  0  0  0  0  0  0  0
  -21.0700   -6.9350   23.8040 C   0  0  0  0  0  3  0  0  0  0  0  0
  -20.9210   -6.1540   24.9680 C   0  0  0  0  0  3  0  0  0  0  0  0
  -21.2450   -4.7830   24.9430 C   0  0  0  0  0  0  0  0  0  0  0  0
  -21.7210   -4.1940   23.7600 C   0  0  0  0  0  3  0  0  0  0  0  0
  -21.8730   -4.9730   22.5980 C   0  0  0  0  0  0  0  0  0  0  0  0
  -22.3110   -4.3950   21.4540 F   0  0  0  0  0  0  0  0  0  0  0  0
  -21.0950   -4.0300   26.0570 F   0  0  0  0  0  0  0  0  0  0  0  0
  -22.7050  -13.6890   20.9350 C   0  0  0  0  0  0  0  0  0  0  0  0
  -21.9440  -13.0280   21.8010 N   0  0  0  0  0  0  0  0  0  0  0  0
  -22.2820  -14.6820   20.3440 O   0  0  0  0  0  0  0  0  0  0  0  0
  -22.2990  -12.2250   22.2990 H   0  0  0  0  0  0  0  0  0  0  0  0
  -20.9930  -13.3270   21.9680 H   0  0  0  0  0  0  0  0  0  0  0  0
  -25.3630  -15.3490   20.1950 N   0  0  0  0  0  0  0  0  0  0  0  0
  -24.5870  -16.0000   20.2280 H   0  0  0  0  0  0  0  0  0  0  0  0
  -26.2300  -15.7820   19.9010 H   0  0  0  0  0  0  0  0  0  0  0  0
  -31.7420  -18.0270   23.5430 N   0  0  0  0  0  4  0  0  0  0  0  0
  -32.6280  -17.5560   23.4790 H   0  0  0  0  0  0  0  0  0  0  0  0
  -31.3660  -17.8660   24.4600 H   0  0  0  0  0  0  0  0  0  0  0  0
  -31.9000  -19.0140   23.4530 H   0  0  0  0  0  0  0  0  0  0  0  0
  -28.8480  -22.4950   19.1240 C   0  0  0  0  0  2  0  0  0  0  0  0
  -28.4580  -23.8900   19.4920 C   0  0  0  0  0  0  0  0  0  0  0  0
  -28.3120  -24.7880   18.5090 N   0  0  0  0  0  4  0  0  0  0  0  0
  -28.3570  -24.1750   20.8130 N   0  0  0  0  0  0  0  0  0  0  0  0
  -28.3420  -24.5210   17.5350 H   0  0  0  0  0  0  0  0  0  0  0  0
  -28.2340  -25.7800   18.7180 H   0  0  0  0  0  0  0  0  0  0  0  0
  -28.1870  -23.3750   21.4060 H   0  0  0  0  0  0  0  0  0  0  0  0
  -28.6730  -25.1610   23.0130 C   0  0  0  0  0  1  0  0  0  0  0  0
  -28.2190  -25.4360   21.5690 C   0  0  0  0  0  3  0  0  0  0  0  0
  -29.0490  -26.5950   20.9730 C   0  0  0  0  0  2  0  0  0  0  0  0
  -28.4410  -27.1030   19.7940 O   0  0  0  0  0  0  0  0  0  0  0  0
  -24.7610  -32.0300   23.3740 C   0  0  0  0  0  0  0  0  0  0  0  0
  -27.2740  -27.7940   19.9640 C   0  0  0  0  0  0  0  0  0  0  0  0
  -23.4820  -30.7130   21.7180 C   0  0  0  0  0  3  0  0  0  0  0  0
  -24.8740  -29.2440   20.1700 C   0  0  0  0  0  0  0  0  0  0  0  0
  -25.9960  -31.0880   21.4310 C   0  0  0  0  0  2  0  0  0  0  0  0
  -26.0530  -29.7520   20.7330 C   0  0  0  0  0  0  0  0  0  0  0  0
  -27.2560  -29.0290   20.6370 C   0  0  0  0  0  3  0  0  0  0  0  0
  -26.0840  -27.2870   19.3990 C   0  0  0  0  0  3  0  0  0  0  0  0
  -24.8800  -28.0040   19.5070 C   0  0  0  0  0  3  0  0  0  0  0  0
  -23.6340  -30.0960   20.3020 C   0  0  0  0  0  2  0  0  0  0  0  0
  -24.7680  -31.2870   22.2340 N   0  0  0  0  0  0  0  0  0  0  0  0
  -23.7030  -32.2770   23.9680 O   0  0  0  0  0  0  0  0  0  0  0  0
  -22.8700  -29.6460   22.6530 C   0  0  0  0  0  0  0  0  0  0  0  0
  -21.5490  -29.4350   22.5320 N   0  0  0  0  0  0  0  0  0  0  0  0
  -23.5800  -29.0060   23.4340 O   0  0  0  0  0  0  0  0  0  0  0  0
  -21.0370  -30.0020   21.8700 H   0  0  0  0  0  0  0  0  0  0  0  0
  -18.2240  -28.0970   22.9620 C   0  0  0  0  0  0  0  0  0  0  0  0
  -20.7640  -28.4540   23.2790 C   0  0  0  0  0  3  0  0  0  0  0  0
  -20.9340  -27.0370   22.6860 C   0  0  0  0  0  2  0  0  0  0  0  0
  -19.8640  -26.6790   21.6520 C   0  0  0  0  0  2  0  0  0  0  0  0
  -18.4670  -26.7610   22.2760 C   0  0  0  0  0  2  0  0  0  0  0  0
  -19.3030  -28.8990   23.4190 C   0  0  0  0  0  0  0  0  0  0  0  0
  -19.0250  -30.1480   24.0160 C   0  0  0  0  0  3  0  0  0  0  0  0
  -17.6980  -30.5960   24.1630 C   0  0  0  0  0  3  0  0  0  0  0  0
  -16.6330  -29.7870   23.7270 C   0  0  0  0  0  3  0  0  0  0  0  0
  -16.8960  -28.5410   23.1310 C   0  0  0  0  0  3  0  0  0  0  0  0
  -26.0740  -32.6240   23.9710 C   0  0  0  0  0  3  0  0  0  0  0  0
  -25.8040  -34.0200   24.3420 N   0  0  0  0  0  0  0  0  0  0  0  0
  -26.1320  -35.0790   23.5920 C   0  0  0  0  0  0  0  0  0  0  0  0
  -26.7690  -34.9850   22.5390 O   0  0  0  0  0  0  0  0  0  0  0  0
  -25.2370  -34.1720   25.1640 H   0  0  0  0  0  0  0  0  0  0  0  0
  -24.4280  -36.9060   23.3150 C   0  0  0  0  0  1  0  0  0  0  0  0
  -25.6790  -36.4640   24.0900 C   0  0  0  0  0  3  0  0  0  0  0  0
  -27.8500  -37.2910   24.8900 C   0  0  0  0  0  1  0  0  0  0  0  0
  -26.7280  -37.5000   23.9740 N   0  0  0  0  0  0  0  0  0  0  0  0
  -26.3440  -38.4250   24.1490 H   0  0  0  0  0  0  0  0  0  0  0  0
  -26.6200  -31.8120   25.2090 C   0  0  1  0  0  0  0  0  0  0  0  0
  -25.5560  -31.5590   26.3020 C   0  0  0  0  0  1  0  0  0  0  0  0
  -27.1690  -30.4390   24.7590 C   0  0  0  0  0  1  0  0  0  0  0  0
  -27.8050  -32.5690   25.8540 C   0  0  0  0  0  1  0  0  0  0  0  0
  2  1  1  0
  2  4  1  0
  3  1  1  0
  3  4  1  0
  3  6  1  0
  4  5  1  1
  6  9  2  0
  7  8  1  0
  8  6  1  0
 10 22  1  0
 11 16  1  0
 12 13  1  0
 12 11  1  0
 14 13  1  0
 14 26  1  0
 14 15  1  0
 16 10  1  0
 16 15  1  0
 17 10  2  0
 18 20  1  0
 18 22  1  0
 20  8  1  0
 20 21  1  0
 21 19  1  0
 21 51  1  0
 22 19  1  0
 23 24  2  0
 24 25  1  0
 24 43  1  0
 25 28  1  0
 26 23  1  0
 26 27  1  0
 27 25  2  0
 28 29  1  0
 29 30  2  0
 31 34  1  0
 31 30  1  0
 32 31  2  0
 33 32  1  0
 33 28  2  0
 34 35  1  0
 35 36  1  0
 36 37  2  0
 38 37  1  0
 38 42  1  0
 39 38  2  0
 40 35  2  0
 40 39  1  0
 41 40  1  0
 43 44  1  0
 44 47  1  0
 44 46  1  0
 45 43  2  0
 48 49  1  0
 48 23  1  0
 50 48  1  0
 51 53  1  0
 52 51  1  0
 54 51  1  0
 55 56  1  0
 55  4  1  0
 56 58  1  0
 57 60  1  0
 57 56  2  0
 58 61  1  0
 58 63  1  0
 59 57  1  0
 63 62  1  0
 64 63  1  0
 65 67  1  0
 65 64  1  0
 66 77  2  0
 67 72  1  0
 68 76  1  0
 68 78  1  0
 69 75  1  0
 69 71  1  0
 70 76  1  0
 71 70  1  0
 72 71  2  0
 73 74  1  0
 73 67  2  0
 74 69  2  0
 75 68  1  0
 76 66  1  0
 78 80  2  0
 79 78  1  0
 81 79  1  0
 82 91  2  0
 82 87  1  0
 83 79  1  0
 83 87  1  0
 84 83  1  0
 85 86  1  0
 85 84  1  0
 86 82  1  0
 87 88  2  0
 88 89  1  0
 90 89  2  0
 91 90  1  0
 92 66  1  0
 92 93  1  0
 92102  1  0
 93 96  1  0
 94 98  1  0
 94 93  1  0
 95 94  2  0
 98 97  1  0
100 98  1  0
100101  1  0
100 99  1  0
102105  1  1
102103  1  0
104102  1  0
M  ISO  4  10 100  22 100  64 101  65 101
M  END
>  <TORSDO>  (49) 
F 22

>  <SCORE>  (49) 
-11.603

>  <name>  (49) 
50

>  <ligand_id>  (49) 
50

>  <original_smiles>  (49) 
[H]c1c([H])c([H])c2c(c1[H])C([H])([H])C([H])([H])C([H])([H])C2([H])N([H])C(=O)C1([H])N(C(=O)C([H])(N([H])C(=O)C([H])(N([H])C([H])([H])[H])C([H])([H])[H])C(C([H])([H])[H])(C([H])([H])[H])C([H])([H])[H])C([H])([H])c2c([H])c(OC([H])([H])C([H])([N+]([H])=C(N([H])[H])C([H])([H])[N+]3([H])C([H])([H])C([H])([H])C3([H])C(=O)N(C([H])([H])[H])C3([H])C([H])([H])N(C(=O)N4C([H])([H])C([H])([H])C([H])([H])C([H])(n5nc(-c6c([H])c([H])c(Oc7c([H])c([H])c(F)c([H])c7F)c([H])c6[H])c(C(=O)N([H])[H])c5N([H])[H])C4([H])[H])C([H])([H])C3([H])[N+]([H])([H])[H])C([H])([H])[H])c([H])c([H])c2C1([H])[H]

>  <smiles>  (49) 
[H]c1c([H])c([H])c2c(c1[H])C([H])([H])C([H])([H])C([H])([H])C2([H])N([H])C(=O)C1([H])N(C(=O)C([H])(N([H])C(=O)C([H])(N([H])C([H])([H])[H])C([H])([H])[H])C(C([H])([H])[H])(C([H])([H])[H])C([H])([H])[H])C([H])([H])c2c([H])c(OC([H])([H])C([H])([N+]([H])=C(N([H])[H])C([H])([H])[N+]3([H])C([H])([H])C([H])([H])C3([H])C(=O)N(C([H])([H])[H])C3([H])C([H])([H])N(C(=O)N4C([H])([H])C([H])([H])C([H])([H])C([H])(n5nc(-c6c([H])c([H])c(Oc7c([H])c([H])c(F)c([H])c7F)c([H])c6[H])c(C(=O)N([H])[H])c5N([H])[H])C4([H])[H])C([H])([H])C3([H])[N+]([H])([H])[H])C([H])([H])[H])c([H])c([H])c2C1([H])[H]

$$$$
51:0:0
     RDKit          3D

 97106  0  0  1  0  0  0  0  0999 V2000
  -28.5790  -23.2830   22.5880 C   0  0  0  0  0  3  0  0  0  0  0  0
  -29.1470  -22.0840   22.1230 C   0  0  0  0  0  3  0  0  0  0  0  0
  -28.3830  -24.3620   21.7110 C   0  0  0  0  0  3  0  0  0  0  0  0
  -29.4860  -21.9120   20.7640 C   0  0  0  0  0  0  0  0  0  0  0  0
  -28.7380  -24.2600   20.3490 C   0  0  0  0  0  0  0  0  0  0  0  0
  -29.2580  -23.0080   19.8620 C   0  0  0  0  0  0  0  0  0  0  0  0
  -29.5980  -22.8420   18.3830 C   0  0  0  0  0  1  0  0  0  0  0  0
  -30.1990  -20.5830   20.3720 C   0  0  0  0  0  2  0  0  0  0  0  0
  -29.4130  -19.3240   20.5750 N   0  0  0  0  0  4  0  0  0  0  0  0
  -28.8380  -19.4320   21.3920 H   0  0  0  0  0  0  0  0  0  0  0  0
  -28.7970  -19.2370   19.7830 H   0  0  0  0  0  0  0  0  0  0  0  0
  -30.7190  -14.5940   20.3120 C   0  0  0  0  0  0  0  0  0  0  0  0
  -30.3690  -12.4310   19.1610 C   0  0  0  0  0  2  0  0  0  0  0  0
  -29.4020  -12.6230   17.9750 C   0  0  0  0  0  2  0  0  0  0  0  0
  -27.9430  -12.4640   18.4400 C   0  0  0  0  0  2  0  0  0  0  0  0
  -27.6230  -13.3110   19.6990 C   0  0  0  0  0  3  0  0  0  0  0  0
  -28.7060  -13.1290   20.7890 C   0  0  0  0  0  2  0  0  0  0  0  0
  -30.0140  -13.4290   20.1890 N   0  0  0  0  0  0  0  0  0  0  0  0
  -31.8110  -14.7570   19.7620 O   0  0  0  0  0  0  0  0  0  0  0  0
  -30.9300  -16.2200   22.1130 C   0  0  0  0  0  2  0  0  0  0  0  0
  -29.4810  -16.7410   20.3220 C   0  0  0  0  0  2  0  0  0  0  0  0
  -30.5560  -17.7130   22.1780 C   0  0  0  0  0  3  0  0  0  0  0  0
  -30.2060  -18.0570   20.7300 C   0  0  0  0  0  3  0  0  0  0  0  0
  -30.1550  -15.6140   21.0140 N   0  0  0  0  0  0  0  0  0  0  0  0
  -25.2370  -13.9080   20.4550 C   0  0  0  0  0  0  0  0  0  0  0  0
  -24.1770  -13.1340   20.8390 C   0  0  0  0  0  0  0  0  0  0  0  0
  -24.6380  -11.7810   20.7940 C   0  0  0  0  0  0  0  0  0  0  0  0
  -26.2800  -13.0300   20.2020 N   0  0  0  0  0  0  0  0  0  0  0  0
  -25.9240  -11.7440   20.4620 N   0  0  0  0  0  0  0  0  0  0  0  0
  -23.9130  -10.5180   20.9880 C   0  0  0  0  0  0  0  0  0  0  0  0
  -24.3480   -9.5540   21.9240 C   0  0  0  0  0  3  0  0  0  0  0  0
  -23.6250   -8.3570   22.1070 C   0  0  0  0  0  3  0  0  0  0  0  0
  -22.4510   -8.1120   21.3530 C   0  0  0  0  0  0  0  0  0  0  0  0
  -22.0340   -9.0660   20.4080 C   0  0  0  0  0  3  0  0  0  0  0  0
  -22.7590  -10.2570   20.2230 C   0  0  0  0  0  3  0  0  0  0  0  0
  -21.6980   -6.9680   21.4490 O   0  0  0  0  0  0  0  0  0  0  0  0
  -21.6360   -6.2400   22.6110 C   0  0  0  0  0  0  0  0  0  0  0  0
  -21.1970   -6.8100   23.8250 C   0  0  0  0  0  3  0  0  0  0  0  0
  -21.0840   -6.0100   24.9790 C   0  0  0  0  0  3  0  0  0  0  0  0
  -21.3980   -4.6390   24.9180 C   0  0  0  0  0  0  0  0  0  0  0  0
  -21.8290   -4.0680   23.7080 C   0  0  0  0  0  3  0  0  0  0  0  0
  -21.9450   -4.8670   22.5560 C   0  0  0  0  0  0  0  0  0  0  0  0
  -22.3410   -4.3060   21.3890 F   0  0  0  0  0  0  0  0  0  0  0  0
  -21.2810   -3.8660   26.0240 F   0  0  0  0  0  0  0  0  0  0  0  0
  -22.7840  -13.6090   21.1360 C   0  0  0  0  0  0  0  0  0  0  0  0
  -22.0670  -12.9080   22.0070 N   0  0  0  0  0  0  0  0  0  0  0  0
  -22.3390  -14.6390   20.6310 O   0  0  0  0  0  0  0  0  0  0  0  0
  -22.4360  -12.0750   22.4410 H   0  0  0  0  0  0  0  0  0  0  0  0
  -21.1320  -13.2110   22.2430 H   0  0  0  0  0  0  0  0  0  0  0  0
  -25.3980  -15.2790   20.2730 N   0  0  0  0  0  0  0  0  0  0  0  0
  -24.6290  -15.9320   20.3840 H   0  0  0  0  0  0  0  0  0  0  0  0
  -26.2310  -15.7110   19.8950 H   0  0  0  0  0  0  0  0  0  0  0  0
  -31.6570  -18.4920   22.7160 N   0  0  0  0  0  0  0  0  0  0  0  0
  -31.3810  -19.4570   22.8680 H   0  0  0  0  0  0  0  0  0  0  0  0
  -31.8600  -18.1610   23.6530 H   0  0  0  0  0  0  0  0  0  0  0  0
  -28.5820  -25.5170   19.4590 C   0  0  0  0  0  2  0  0  0  0  0  0
  -28.3930  -26.7790   20.1550 O   0  0  0  0  0  0  0  0  0  0  0  0
  -24.5570  -31.9400   23.2480 C   0  0  0  0  0  0  0  0  0  0  0  0
  -27.1890  -27.4760   20.1440 C   0  0  0  0  0  0  0  0  0  0  0  0
  -23.3410  -30.5350   21.6210 C   0  0  0  0  0  3  0  0  0  0  0  0
  -24.7820  -29.0000   20.1770 C   0  0  0  0  0  0  0  0  0  0  0  0
  -25.8620  -30.8990   21.3880 C   0  0  0  0  0  2  0  0  0  0  0  0
  -25.9450  -29.5230   20.7510 C   0  0  0  0  0  0  0  0  0  0  0  0
  -27.1450  -28.7700   20.7280 C   0  0  0  0  0  3  0  0  0  0  0  0
  -25.9900  -26.9660   19.5880 C   0  0  0  0  0  3  0  0  0  0  0  0
  -24.8010  -27.7220   19.5930 C   0  0  0  0  0  3  0  0  0  0  0  0
  -23.5340  -29.8540   20.2390 C   0  0  0  0  0  2  0  0  0  0  0  0
  -24.6080  -31.1400   22.1440 N   0  0  0  0  0  0  0  0  0  0  0  0
  -23.4790  -32.2090   23.7990 O   0  0  0  0  0  0  0  0  0  0  0  0
  -22.7000  -29.5130   22.5870 C   0  0  0  0  0  0  0  0  0  0  0  0
  -21.3790  -29.3110   22.4550 N   0  0  0  0  0  0  0  0  0  0  0  0
  -23.3890  -28.9020   23.4080 O   0  0  0  0  0  0  0  0  0  0  0  0
  -20.8820  -29.8630   21.7700 H   0  0  0  0  0  0  0  0  0  0  0  0
  -18.0250  -28.0450   22.9220 C   0  0  0  0  0  0  0  0  0  0  0  0
  -20.5710  -28.3650   23.2280 C   0  0  0  0  0  3  0  0  0  0  0  0
  -20.7140  -26.9270   22.6770 C   0  0  0  0  0  2  0  0  0  0  0  0
  -19.6350  -26.5650   21.6510 C   0  0  0  0  0  2  0  0  0  0  0  0
  -18.2420  -26.6880   22.2730 C   0  0  0  0  0  2  0  0  0  0  0  0
  -19.1190  -28.8390   23.3560 C   0  0  0  0  0  0  0  0  0  0  0  0
  -18.8630  -30.1060   23.9200 C   0  0  0  0  0  3  0  0  0  0  0  0
  -17.5450  -30.5790   24.0610 C   0  0  0  0  0  3  0  0  0  0  0  0
  -16.4650  -29.7820   23.6430 C   0  0  0  0  0  3  0  0  0  0  0  0
  -16.7060  -28.5180   23.0780 C   0  0  0  0  0  3  0  0  0  0  0  0
  -25.8430  -32.5750   23.8600 C   0  0  0  0  0  3  0  0  0  0  0  0
  -26.3740  -31.8040   25.1310 C   0  0  1  0  0  0  0  0  0  0  0  0
  -25.2890  -31.5590   26.2060 C   0  0  0  0  0  1  0  0  0  0  0  0
  -26.9600  -30.4300   24.7270 C   0  0  0  0  0  1  0  0  0  0  0  0
  -27.5270  -32.6000   25.7830 C   0  0  0  0  0  1  0  0  0  0  0  0
  -25.5300  -33.9720   24.1930 N   0  0  0  0  0  0  0  0  0  0  0  0
  -25.8610  -35.0260   23.4360 C   0  0  0  0  0  0  0  0  0  0  0  0
  -26.5300  -34.9260   22.4040 O   0  0  0  0  0  0  0  0  0  0  0  0
  -24.9310  -34.1240   24.9920 H   0  0  0  0  0  0  0  0  0  0  0  0
  -24.1260  -36.8170   23.0900 C   0  0  0  0  0  1  0  0  0  0  0  0
  -25.3720  -36.4140   23.8970 C   0  0  0  0  0  3  0  0  0  0  0  0
  -27.5090  -37.3030   24.7150 C   0  0  0  0  0  1  0  0  0  0  0  0
  -26.4010  -37.4690   23.7780 N   0  0  0  0  0  0  0  0  0  0  0  0
  -25.9960  -38.3890   23.9250 H   0  0  0  0  0  0  0  0  0  0  0  0
  2  1  1  0
  3  1  2  0
  4  2  2  0
  5  3  1  0
  6  5  2  0
  6  4  1  0
  7  6  1  0
  8  9  1  0
  8  4  1  0
  9 10  1  0
 11  9  1  0
 12 24  1  0
 13 18  1  0
 14 15  1  0
 14 13  1  0
 16 15  1  0
 16 28  1  0
 16 17  1  0
 18 12  1  0
 18 17  1  0
 19 12  2  0
 20 22  1  0
 21 23  1  0
 21 24  1  0
 22 53  1  0
 23  9  1  0
 23 22  1  0
 24 20  1  0
 25 26  2  0
 26 45  1  0
 27 26  1  0
 27 30  1  0
 28 25  1  0
 28 29  1  0
 29 27  2  0
 30 31  1  0
 31 32  2  0
 33 36  1  0
 33 32  1  0
 34 33  2  0
 35 34  1  0
 35 30  2  0
 36 37  1  0
 37 38  1  0
 38 39  2  0
 40 39  1  0
 40 44  1  0
 41 40  2  0
 42 37  2  0
 42 41  1  0
 43 42  1  0
 45 46  1  0
 46 49  1  0
 46 48  1  0
 47 45  2  0
 50 51  1  0
 50 25  1  0
 52 50  1  0
 53 54  1  0
 53 55  1  0
 56 57  1  0
 56  5  1  0
 58 69  2  0
 59 57  1  0
 59 64  1  0
 60 68  1  0
 60 70  1  0
 61 67  1  0
 61 63  1  0
 62 68  1  0
 63 62  1  0
 64 63  2  0
 65 66  1  0
 65 59  2  0
 66 61  2  0
 67 60  1  0
 68 58  1  0
 70 72  2  0
 71 70  1  0
 73 71  1  0
 74 83  2  0
 74 79  1  0
 75 71  1  0
 75 79  1  0
 76 75  1  0
 77 78  1  0
 77 76  1  0
 78 74  1  0
 79 80  2  0
 80 81  1  0
 82 81  2  0
 83 82  1  0
 84 58  1  0
 84 89  1  0
 84 85  1  0
 85 88  1  1
 85 86  1  0
 87 85  1  0
 89 92  1  0
 90 94  1  0
 90 89  1  0
 91 90  2  0
 94 93  1  0
 96 94  1  0
 96 97  1  0
 96 95  1  0
M  ISO  4  12 100  24 100  56 101  57 101
M  END
>  <TORSDO>  (50) 
F 20

>  <SCORE>  (50) 
-13.889

>  <name>  (50) 
51

>  <ligand_id>  (50) 
51

>  <original_smiles>  (50) 
[H]c1c([H])c([H])c2c(c1[H])C([H])([H])C([H])([H])C([H])([H])C2([H])N([H])C(=O)C1([H])N(C(=O)C([H])(N([H])C(=O)C([H])(N([H])C([H])([H])[H])C([H])([H])[H])C(C([H])([H])[H])(C([H])([H])[H])C([H])([H])[H])C([H])([H])c2c([H])c(OC([H])([H])c3c([H])c([H])c([H])c(C([H])([H])[N+]([H])([H])C4([H])C([H])([H])N(C(=O)N5C([H])([H])C([H])([H])C([H])([H])C([H])(n6nc(-c7c([H])c([H])c(Oc8c([H])c([H])c(F)c([H])c8F)c([H])c7[H])c(C(=O)N([H])[H])c6N([H])[H])C5([H])[H])C([H])([H])C4([H])N([H])[H])c3C([H])([H])[H])c([H])c([H])c2C1([H])[H]

>  <smiles>  (50) 
[H]c1c([H])c([H])c2c(c1[H])C([H])([H])C([H])([H])C([H])([H])C2([H])N([H])C(=O)C1([H])N(C(=O)C([H])(N([H])C(=O)C([H])(N([H])C([H])([H])[H])C([H])([H])[H])C(C([H])([H])[H])(C([H])([H])[H])C([H])([H])[H])C([H])([H])c2c([H])c(OC([H])([H])c3c([H])c([H])c([H])c(C([H])([H])[N+]([H])([H])C4([H])C([H])([H])N(C(=O)N5C([H])([H])C([H])([H])C([H])([H])C([H])(n6nc(-c7c([H])c([H])c(Oc8c([H])c([H])c(F)c([H])c8F)c([H])c7[H])c(C(=O)N([H])[H])c6N([H])[H])C5([H])[H])C([H])([H])C4([H])N([H])[H])c3C([H])([H])[H])c([H])c([H])c2C1([H])[H]

$$$$
52:0:0
     RDKit          3D

100108  0  0  1  0  0  0  0  0999 V2000
  -29.9670  -19.4700   19.7760 C   0  0  0  0  0  2  0  0  0  0  0  0
  -31.4420  -18.5870   21.4510 C   0  0  0  0  0  2  0  0  0  0  0  0
  -31.2560  -18.6270   19.9360 C   0  0  0  0  0  3  0  0  0  0  0  0
  -29.9720  -20.5210   20.9220 C   0  0  0  0  0  3  0  0  0  0  0  0
  -31.0700  -20.0210   21.9020 C   0  0  0  0  0  3  0  0  0  0  0  0
  -30.6460  -20.0780   23.3110 N   0  0  0  0  0  4  0  0  0  0  0  0
  -29.8210  -19.5270   23.4710 H   0  0  0  0  0  0  0  0  0  0  0  0
  -30.4500  -21.0280   23.5740 H   0  0  0  0  0  0  0  0  0  0  0  0
  -31.3790  -19.7400   23.9090 H   0  0  0  0  0  0  0  0  0  0  0  0
  -29.2720  -22.8400   20.2040 C   0  0  0  0  0  0  0  0  0  0  0  0
  -30.2230  -21.9080   20.4470 N   0  0  0  0  0  0  0  0  0  0  0  0
  -28.0780  -22.5400   20.2480 O   0  0  0  0  0  0  0  0  0  0  0  0
  -31.1880  -22.2060   20.3680 H   0  0  0  0  0  0  0  0  0  0  0  0
  -29.6850  -24.3120   19.8940 C   0  0  0  0  0  2  0  0  0  0  0  0
  -28.4560  -25.2660   19.7710 C   0  0  0  0  0  2  0  0  0  0  0  0
  -28.6490  -26.7120   19.7440 O   0  0  0  0  0  0  0  0  0  0  0  0
  -24.6500  -31.6160   23.0890 C   0  0  0  0  0  0  0  0  0  0  0  0
  -27.4730  -27.4620   19.7340 C   0  0  0  0  0  0  0  0  0  0  0  0
  -23.4930  -30.2180   21.4130 C   0  0  0  0  0  3  0  0  0  0  0  0
  -25.0020  -28.8620   19.8690 C   0  0  0  0  0  0  0  0  0  0  0  0
  -25.9930  -30.7390   21.1760 C   0  0  0  0  0  2  0  0  0  0  0  0
  -26.1470  -29.4090   20.4590 C   0  0  0  0  0  0  0  0  0  0  0  0
  -27.3870  -28.7190   20.3890 C   0  0  0  0  0  3  0  0  0  0  0  0
  -26.3030  -26.9660   19.1050 C   0  0  0  0  0  3  0  0  0  0  0  0
  -25.0770  -27.6430   19.1830 C   0  0  0  0  0  3  0  0  0  0  0  0
  -23.7080  -29.6350   19.9920 C   0  0  0  0  0  2  0  0  0  0  0  0
  -24.7320  -30.8710   21.9490 N   0  0  0  0  0  0  0  0  0  0  0  0
  -23.5670  -31.7890   23.6660 O   0  0  0  0  0  0  0  0  0  0  0  0
  -22.9390  -29.1060   22.3330 C   0  0  0  0  0  0  0  0  0  0  0  0
  -21.6540  -28.7590   22.1490 N   0  0  0  0  0  0  0  0  0  0  0  0
  -23.6630  -28.5600   23.1700 O   0  0  0  0  0  0  0  0  0  0  0  0
  -21.1250  -29.2610   21.4510 H   0  0  0  0  0  0  0  0  0  0  0  0
  -18.4850  -27.0370   22.3940 C   0  0  0  0  0  0  0  0  0  0  0  0
  -20.9320  -27.7160   22.8780 C   0  0  0  0  0  3  0  0  0  0  0  0
  -21.3150  -26.3090   22.3650 C   0  0  0  0  0  2  0  0  0  0  0  0
  -20.3770  -25.7900   21.2700 C   0  0  0  0  0  2  0  0  0  0  0  0
  -18.9360  -25.7210   21.7860 C   0  0  0  0  0  2  0  0  0  0  0  0
  -19.4220  -27.9810   22.8930 C   0  0  0  0  0  0  0  0  0  0  0  0
  -18.9490  -29.2050   23.4160 C   0  0  0  0  0  3  0  0  0  0  0  0
  -17.5710  -29.4890   23.4480 C   0  0  0  0  0  3  0  0  0  0  0  0
  -16.6470  -28.5460   22.9660 C   0  0  0  0  0  3  0  0  0  0  0  0
  -17.1040  -27.3230   22.4460 C   0  0  0  0  0  3  0  0  0  0  0  0
  -25.9060  -32.3020   23.7060 C   0  0  0  0  0  3  0  0  0  0  0  0
  -26.4870  -31.5300   24.9540 C   0  0  1  0  0  0  0  0  0  0  0  0
  -25.4300  -31.2130   26.0360 C   0  0  0  0  0  1  0  0  0  0  0  0
  -27.1290  -30.1930   24.5160 C   0  0  0  0  0  1  0  0  0  0  0  0
  -27.6090  -32.3660   25.6110 C   0  0  0  0  0  1  0  0  0  0  0  0
  -25.5250  -33.6710   24.0740 N   0  0  0  0  0  0  0  0  0  0  0  0
  -25.8310  -34.7640   23.3620 C   0  0  0  0  0  0  0  0  0  0  0  0
  -26.5350  -34.7280   22.3500 O   0  0  0  0  0  0  0  0  0  0  0  0
  -24.9000  -33.7700   24.8610 H   0  0  0  0  0  0  0  0  0  0  0  0
  -24.0280  -36.4830   23.0200 C   0  0  0  0  0  1  0  0  0  0  0  0
  -25.2650  -36.1110   23.8520 C   0  0  0  0  0  3  0  0  0  0  0  0
  -27.3320  -37.0680   24.7720 C   0  0  0  0  0  1  0  0  0  0  0  0
  -26.2490  -37.2150   23.8010 N   0  0  0  0  0  0  0  0  0  0  0  0
  -25.7950  -38.1100   23.9630 H   0  0  0  0  0  0  0  0  0  0  0  0
  -31.4230  -17.2870   19.1220 C   0  0  0  0  0  3  0  0  0  0  0  0
  -31.3520  -14.8660   19.6880 C   0  0  0  0  0  0  0  0  0  0  0  0
  -30.9890  -12.5030   19.1240 C   0  0  0  0  0  2  0  0  0  0  0  0
  -30.0730  -12.4060   17.8890 C   0  0  0  0  0  2  0  0  0  0  0  0
  -28.6000  -12.3630   18.3310 C   0  0  0  0  0  2  0  0  0  0  0  0
  -28.2420  -13.4830   19.3460 C   0  0  0  0  0  3  0  0  0  0  0  0
  -29.2950  -13.6030   20.4720 C   0  0  0  0  0  2  0  0  0  0  0  0
  -30.6140  -13.7330   19.8420 N   0  0  0  0  0  0  0  0  0  0  0  0
  -32.5380  -14.8150   19.3670 O   0  0  0  0  0  0  0  0  0  0  0  0
  -30.7140  -16.0660   19.6200 N   0  0  0  0  0  0  0  0  0  0  0  0
  -29.7210  -16.1050   19.7950 H   0  0  0  0  0  0  0  0  0  0  0  0
  -25.9290  -14.2680   20.1430 C   0  0  0  0  0  0  0  0  0  0  0  0
  -24.8160  -13.5800   20.5470 C   0  0  0  0  0  0  0  0  0  0  0  0
  -25.1690  -12.1970   20.5060 C   0  0  0  0  0  0  0  0  0  0  0  0
  -26.8920  -13.3080   19.8790 N   0  0  0  0  0  0  0  0  0  0  0  0
  -26.4420  -12.0570   20.1590 N   0  0  0  0  0  0  0  0  0  0  0  0
  -24.3500  -10.9960   20.7210 C   0  0  0  0  0  0  0  0  0  0  0  0
  -24.7460   -9.9820   21.6220 C   0  0  0  0  0  3  0  0  0  0  0  0
  -23.9320   -8.8470   21.8260 C   0  0  0  0  0  3  0  0  0  0  0  0
  -22.7080   -8.7170   21.1300 C   0  0  0  0  0  0  0  0  0  0  0  0
  -22.3280   -9.7170   20.2170 C   0  0  0  0  0  3  0  0  0  0  0  0
  -23.1420  -10.8440   20.0110 C   0  0  0  0  0  3  0  0  0  0  0  0
  -21.8650   -7.6370   21.2450 O   0  0  0  0  0  0  0  0  0  0  0  0
  -21.8390   -6.8620   22.3760 C   0  0  0  0  0  0  0  0  0  0  0  0
  -21.5360   -7.4050   23.6430 C   0  0  0  0  0  3  0  0  0  0  0  0
  -21.4500   -6.5610   24.7690 C   0  0  0  0  0  3  0  0  0  0  0  0
  -21.6580   -5.1760   24.6290 C   0  0  0  0  0  0  0  0  0  0  0  0
  -21.9560   -4.6330   23.3670 C   0  0  0  0  0  3  0  0  0  0  0  0
  -22.0430   -5.4740   22.2440 C   0  0  0  0  0  0  0  0  0  0  0  0
  -22.3090   -4.9410   21.0260 F   0  0  0  0  0  0  0  0  0  0  0  0
  -21.5700   -4.3650   25.7090 F   0  0  0  0  0  0  0  0  0  0  0  0
  -23.4690  -14.1670   20.8590 C   0  0  0  0  0  0  0  0  0  0  0  0
  -22.7190  -13.5390   21.7570 N   0  0  0  0  0  0  0  0  0  0  0  0
  -23.0970  -15.2190   20.3410 O   0  0  0  0  0  0  0  0  0  0  0  0
  -23.0330  -12.6870   22.1980 H   0  0  0  0  0  0  0  0  0  0  0  0
  -21.8160  -13.9160   22.0070 H   0  0  0  0  0  0  0  0  0  0  0  0
  -26.1950  -15.6210   19.9550 N   0  0  0  0  0  0  0  0  0  0  0  0
  -25.4750  -16.3280   20.0660 H   0  0  0  0  0  0  0  0  0  0  0  0
  -27.0530  -15.9860   19.5660 H   0  0  0  0  0  0  0  0  0  0  0  0
  -31.2000  -17.5000   17.5910 C   0  0  0  0  0  2  0  0  0  0  0  0
  -32.1750  -18.4310   16.9920 N   0  0  0  0  0  4  0  0  0  0  0  0
  -32.1400  -19.3410   17.4150 H   0  0  0  0  0  0  0  0  0  0  0  0
  -31.9820  -18.5350   16.0120 H   0  0  0  0  0  0  0  0  0  0  0  0
  -33.1070  -18.0690   17.0820 H   0  0  0  0  0  0  0  0  0  0  0  0
  1  3  1  0
  1  4  1  0
  2  5  1  0
  3 57  1  0
  3  2  1  0
  4 11  1  0
  4  5  1  0
  5  6  1  0
  6  7  1  0
  6  8  1  0
  6  9  1  0
 10 12  2  0
 10 11  1  0
 13 11  1  0
 14 10  1  0
 15 14  1  0
 16 15  1  0
 17 28  2  0
 18 16  1  0
 18 23  1  0
 19 27  1  0
 19 29  1  0
 20 26  1  0
 20 22  1  0
 21 27  1  0
 22 21  1  0
 23 22  2  0
 24 25  1  0
 24 18  2  0
 25 20  2  0
 26 19  1  0
 27 17  1  0
 29 31  2  0
 30 29  1  0
 32 30  1  0
 33 42  2  0
 33 38  1  0
 34 30  1  0
 34 38  1  0
 35 34  1  0
 36 37  1  0
 36 35  1  0
 37 33  1  0
 38 39  2  0
 39 40  1  0
 41 40  2  0
 42 41  1  0
 43 17  1  0
 43 48  1  0
 43 44  1  0
 44 47  1  1
 44 45  1  0
 46 44  1  0
 48 51  1  0
 49 53  1  0
 49 48  1  0
 50 49  2  0
 53 52  1  0
 55 53  1  0
 55 56  1  0
 55 54  1  0
 57 96  1  0
 57 66  1  0
 58 64  1  0
 59 64  1  0
 60 61  1  0
 60 59  1  0
 62 61  1  0
 62 71  1  0
 62 63  1  0
 64 63  1  0
 65 58  2  0
 66 58  1  0
 66 67  1  0
 68 69  2  0
 69 88  1  0
 70 69  1  0
 70 73  1  0
 71 68  1  0
 71 72  1  0
 72 70  2  0
 73 74  1  0
 74 75  2  0
 76 79  1  0
 76 75  1  0
 77 76  2  0
 78 77  1  0
 78 73  2  0
 79 80  1  0
 80 81  1  0
 81 82  2  0
 83 82  1  0
 83 87  1  0
 84 83  2  0
 85 80  2  0
 85 84  1  0
 86 85  1  0
 88 89  1  0
 89 92  1  0
 89 91  1  0
 90 88  2  0
 93 94  1  0
 93 68  1  0
 95 93  1  0
 97100  1  0
 97 98  1  0
 97 96  1  0
 99 97  1  0
M  ISO  4  15 101  16 101  58 100  66 100
M  END
>  <TORSDO>  (51) 
F 23

>  <SCORE>  (51) 
-11.964

>  <name>  (51) 
52

>  <ligand_id>  (51) 
52

>  <original_smiles>  (51) 
[H]c1c([H])c([H])c2c(c1[H])C([H])([H])C([H])([H])C([H])([H])C2([H])N([H])C(=O)C1([H])N(C(=O)C([H])(N([H])C(=O)C([H])(N([H])C([H])([H])[H])C([H])([H])[H])C(C([H])([H])[H])(C([H])([H])[H])C([H])([H])[H])C([H])([H])c2c([H])c(OC([H])([H])C([H])([H])C(=O)N([H])C3([H])C([H])([H])C([H])(C([H])(N([H])C(=O)N4C([H])([H])C([H])([H])C([H])([H])C([H])(n5nc(-c6c([H])c([H])c(Oc7c([H])c([H])c(F)c([H])c7F)c([H])c6[H])c(C(=O)N([H])[H])c5N([H])[H])C4([H])[H])C([H])([H])[N+]([H])([H])[H])C([H])([H])C3([H])[N+]([H])([H])[H])c([H])c([H])c2C1([H])[H]

>  <smiles>  (51) 
[H]c1c([H])c([H])c2c(c1[H])C([H])([H])C([H])([H])C([H])([H])C2([H])N([H])C(=O)C1([H])N(C(=O)C([H])(N([H])C(=O)C([H])(N([H])C([H])([H])[H])C([H])([H])[H])C(C([H])([H])[H])(C([H])([H])[H])C([H])([H])[H])C([H])([H])c2c([H])c(OC([H])([H])C([H])([H])C(=O)N([H])C3([H])C([H])([H])C([H])(C([H])(N([H])C(=O)N4C([H])([H])C([H])([H])C([H])([H])C([H])(n5nc(-c6c([H])c([H])c(Oc7c([H])c([H])c(F)c([H])c7F)c([H])c6[H])c(C(=O)N([H])[H])c5N([H])[H])C4([H])[H])C([H])([H])[N+]([H])([H])[H])C([H])([H])C3([H])[N+]([H])([H])[H])c([H])c([H])c2C1([H])[H]

$$$$
53:0:0
     RDKit          3D

101110  0  0  1  0  0  0  0  0999 V2000
  -29.2380  -21.6100   19.6400 C   0  0  0  0  0  2  0  0  0  0  0  0
  -30.2740  -21.3330   21.8680 C   0  0  0  0  0  2  0  0  0  0  0  0
  -29.3550  -23.1440   19.7230 C   0  0  0  0  0  2  0  0  0  0  0  0
  -30.3670  -22.8830   21.9840 C   0  0  0  0  0  2  0  0  0  0  0  0
  -30.4020  -20.9310   20.3950 C   0  0  0  0  0  3  0  0  0  0  0  0
  -29.3950  -23.6380   21.1250 N   0  0  1  0  0  4  0  0  0  0  0  0
  -28.4810  -23.4700   21.5230 H   0  0  0  0  0  0  0  0  0  0  0  0
  -31.1620  -17.9770   18.1780 C   0  0  0  0  0  3  0  0  0  0  0  0
  -31.0830  -19.2530   18.7270 C   0  0  0  0  0  3  0  0  0  0  0  0
  -30.2610  -18.3060   20.8230 C   0  0  0  0  0  3  0  0  0  0  0  0
  -30.7580  -16.8530   18.9160 C   0  0  0  0  0  0  0  0  0  0  0  0
  -30.5690  -19.4500   20.0190 C   0  0  0  0  0  0  0  0  0  0  0  0
  -30.3900  -16.9770   20.2980 C   0  0  0  0  0  0  0  0  0  0  0  0
  -30.8780  -14.7210   21.2800 C   0  0  0  0  0  0  0  0  0  0  0  0
  -30.7930  -12.3650   20.5650 C   0  0  0  0  0  2  0  0  0  0  0  0
  -30.0630  -12.2560   19.2120 C   0  0  0  0  0  2  0  0  0  0  0  0
  -28.5280  -12.2580   19.3730 C   0  0  0  0  0  2  0  0  0  0  0  0
  -27.9860  -13.2610   20.4310 C   0  0  0  0  0  3  0  0  0  0  0  0
  -28.8550  -13.2670   21.7080 C   0  0  0  0  0  2  0  0  0  0  0  0
  -30.2430  -13.5140   21.3010 N   0  0  0  0  0  0  0  0  0  0  0  0
  -32.1010  -14.8170   21.1650 O   0  0  0  0  0  0  0  0  0  0  0  0
  -30.0880  -15.8210   21.1290 N   0  0  0  0  0  0  0  0  0  0  0  0
  -29.1170  -15.6960   21.3770 H   0  0  0  0  0  0  0  0  0  0  0  0
  -25.5150  -13.8990   20.7760 C   0  0  0  0  0  0  0  0  0  0  0  0
  -24.4010  -13.1430   21.0190 C   0  0  0  0  0  0  0  0  0  0  0  0
  -24.8540  -11.7910   21.1130 C   0  0  0  0  0  0  0  0  0  0  0  0
  -26.5770  -13.0090   20.7320 N   0  0  0  0  0  0  0  0  0  0  0  0
  -26.1740  -11.7410   21.0020 N   0  0  0  0  0  0  0  0  0  0  0  0
  -24.1020  -10.5360   21.2440 C   0  0  0  0  0  0  0  0  0  0  0  0
  -24.4370   -9.5740   22.2230 C   0  0  0  0  0  3  0  0  0  0  0  0
  -23.6880   -8.3840   22.3430 C   0  0  0  0  0  3  0  0  0  0  0  0
  -22.5910   -8.1460   21.4810 C   0  0  0  0  0  0  0  0  0  0  0  0
  -22.2770   -9.0960   20.4920 C   0  0  0  0  0  3  0  0  0  0  0  0
  -23.0270  -10.2770   20.3720 C   0  0  0  0  0  3  0  0  0  0  0  0
  -21.8240   -7.0060   21.5060 O   0  0  0  0  0  0  0  0  0  0  0  0
  -21.6920   -6.2530   22.6450 C   0  0  0  0  0  0  0  0  0  0  0  0
  -21.2040   -6.8030   23.8500 C   0  0  0  0  0  3  0  0  0  0  0  0
  -21.0200   -5.9770   24.9770 C   0  0  0  0  0  3  0  0  0  0  0  0
  -21.3140   -4.6020   24.8980 C   0  0  0  0  0  0  0  0  0  0  0  0
  -21.7940   -4.0520   23.6980 C   0  0  0  0  0  3  0  0  0  0  0  0
  -21.9800   -4.8750   22.5730 C   0  0  0  0  0  0  0  0  0  0  0  0
  -22.4240   -4.3360   21.4120 F   0  0  0  0  0  0  0  0  0  0  0  0
  -21.1290   -3.8070   25.9770 F   0  0  0  0  0  0  0  0  0  0  0  0
  -22.9810  -13.6290   21.0630 C   0  0  0  0  0  0  0  0  0  0  0  0
  -22.1350  -12.9780   21.8530 N   0  0  0  0  0  0  0  0  0  0  0  0
  -22.6270  -14.6220   20.4290 O   0  0  0  0  0  0  0  0  0  0  0  0
  -22.4320  -12.1770   22.3900 H   0  0  0  0  0  0  0  0  0  0  0  0
  -21.1750  -13.2880   21.9240 H   0  0  0  0  0  0  0  0  0  0  0  0
  -25.7130  -15.2600   20.5650 N   0  0  0  0  0  0  0  0  0  0  0  0
  -24.9410  -15.9160   20.5180 H   0  0  0  0  0  0  0  0  0  0  0  0
  -26.5950  -15.6720   20.2860 H   0  0  0  0  0  0  0  0  0  0  0  0
  -30.6050  -15.6050   18.1090 C   0  0  0  0  0  0  0  0  0  0  0  0
  -31.7030  -15.1650   17.5070 N   0  0  0  0  0  0  0  0  0  0  0  0
  -29.5030  -15.0840   17.9560 O   0  0  0  0  0  0  0  0  0  0  0  0
  -32.5820  -15.6410   17.6520 H   0  0  0  0  0  0  0  0  0  0  0  0
  -31.6670  -14.3570   16.9050 H   0  0  0  0  0  0  0  0  0  0  0  0
  -29.6090  -25.1230   21.1890 C   0  0  0  0  0  2  0  0  0  0  0  0
  -27.1320  -25.1680   21.8740 C   0  0  0  0  0  1  0  0  0  0  0  0
  -28.6500  -27.0990   22.4010 C   0  0  0  0  0  1  0  0  0  0  0  0
  -28.3240  -26.0080   21.3530 C   0  0  1  0  0  0  0  0  0  0  0  0
  -28.0150  -26.6430   20.0730 O   0  0  0  0  0  0  0  0  0  0  0  0
  -24.4940  -31.9220   23.2490 C   0  0  0  0  0  0  0  0  0  0  0  0
  -26.9060  -27.4680   20.0410 C   0  0  0  0  0  0  0  0  0  0  0  0
  -23.1830  -30.5630   21.6470 C   0  0  0  0  0  3  0  0  0  0  0  0
  -24.5400  -29.0190   20.1330 C   0  0  0  0  0  0  0  0  0  0  0  0
  -25.6970  -30.8890   21.3260 C   0  0  0  0  0  2  0  0  0  0  0  0
  -25.7310  -29.5260   20.6670 C   0  0  0  0  0  0  0  0  0  0  0  0
  -26.9180  -28.7680   20.6000 C   0  0  0  0  0  3  0  0  0  0  0  0
  -25.7090  -26.9880   19.4670 C   0  0  0  0  0  3  0  0  0  0  0  0
  -24.5260  -27.7530   19.5190 C   0  0  0  0  0  3  0  0  0  0  0  0
  -23.3110  -29.8930   20.2510 C   0  0  0  0  0  2  0  0  0  0  0  0
  -24.4790  -31.1370   22.1330 N   0  0  0  0  0  0  0  0  0  0  0  0
  -23.4460  -32.2070   23.8450 O   0  0  0  0  0  0  0  0  0  0  0  0
  -22.5570  -29.5450   22.6280 C   0  0  0  0  0  0  0  0  0  0  0  0
  -21.2410  -29.3160   22.4930 N   0  0  0  0  0  0  0  0  0  0  0  0
  -23.2530  -28.9620   23.4630 O   0  0  0  0  0  0  0  0  0  0  0  0
  -20.7390  -29.8390   21.7890 H   0  0  0  0  0  0  0  0  0  0  0  0
  -17.9350  -27.9120   22.8820 C   0  0  0  0  0  0  0  0  0  0  0  0
  -20.4480  -28.3700   23.2770 C   0  0  0  0  0  3  0  0  0  0  0  0
  -20.6830  -26.9180   22.8010 C   0  0  0  0  0  2  0  0  0  0  0  0
  -19.6690  -26.4560   21.7500 C   0  0  0  0  0  2  0  0  0  0  0  0
  -18.2440  -26.5410   22.3060 C   0  0  0  0  0  2  0  0  0  0  0  0
  -18.9710  -28.7780   23.3220 C   0  0  0  0  0  0  0  0  0  0  0  0
  -18.6320  -30.0560   23.8170 C   0  0  0  0  0  3  0  0  0  0  0  0
  -17.2880  -30.4720   23.8770 C   0  0  0  0  0  3  0  0  0  0  0  0
  -16.2660  -29.6050   23.4540 C   0  0  0  0  0  3  0  0  0  0  0  0
  -16.5890  -28.3280   22.9620 C   0  0  0  0  0  3  0  0  0  0  0  0
  -25.8220  -32.5180   23.8140 C   0  0  0  0  0  3  0  0  0  0  0  0
  -26.3780  -31.7260   25.0610 C   0  0  1  0  0  0  0  0  0  0  0  0
  -25.3300  -31.5080   26.1770 C   0  0  0  0  0  1  0  0  0  0  0  0
  -26.9090  -30.3380   24.6330 C   0  0  0  0  0  1  0  0  0  0  0  0
  -27.5760  -32.4890   25.6740 C   0  0  0  0  0  1  0  0  0  0  0  0
  -25.5640  -33.9220   24.1610 N   0  0  0  0  0  0  0  0  0  0  0  0
  -25.9140  -34.9680   23.4010 C   0  0  0  0  0  0  0  0  0  0  0  0
  -26.5600  -34.8520   22.3570 O   0  0  0  0  0  0  0  0  0  0  0  0
  -24.9910  -34.0880   24.9750 H   0  0  0  0  0  0  0  0  0  0  0  0
  -24.2330  -36.8140   23.0930 C   0  0  0  0  0  1  0  0  0  0  0  0
  -25.4770  -36.3670   23.8760 C   0  0  0  0  0  3  0  0  0  0  0  0
  -27.6570  -37.1790   24.6640 C   0  0  0  0  0  1  0  0  0  0  0  0
  -26.5390  -37.3890   23.7480 N   0  0  0  0  0  0  0  0  0  0  0  0
  -26.1650  -38.3200   23.9120 H   0  0  0  0  0  0  0  0  0  0  0  0
  1  3  1  0
  1  5  1  0
  2  4  1  0
  3  6  1  0
  5 12  1  0
  5  2  1  0
  6 57  1  0
  6  7  1  1
  6  4  1  0
  8  9  2  0
  8 11  1  0
  9 12  1  0
 11 13  2  0
 12 10  2  0
 13 10  1  0
 13 22  1  0
 14 20  1  0
 15 20  1  0
 16 17  1  0
 16 15  1  0
 18 17  1  0
 18 27  1  0
 18 19  1  0
 20 19  1  0
 21 14  2  0
 22 14  1  0
 22 23  1  0
 24 25  2  0
 25 44  1  0
 25 26  1  0
 26 29  1  0
 27 24  1  0
 27 28  1  0
 28 26  2  0
 29 30  1  0
 30 31  2  0
 32 35  1  0
 32 31  1  0
 33 32  2  0
 34 33  1  0
 34 29  2  0
 35 36  1  0
 36 37  1  0
 37 38  2  0
 39 38  1  0
 39 43  1  0
 40 39  2  0
 41 36  2  0
 41 40  1  0
 42 41  1  0
 44 45  1  0
 45 48  1  0
 45 47  1  0
 46 44  2  0
 49 24  1  0
 50 49  1  0
 51 49  1  0
 52 11  1  0
 53 55  1  0
 53 52  1  0
 54 52  2  0
 56 53  1  0
 57 60  1  0
 60 58  1  1
 60 59  1  0
 61 60  1  0
 62 73  2  0
 63 61  1  0
 63 68  1  0
 64 72  1  0
 64 74  1  0
 65 71  1  0
 65 67  1  0
 66 72  1  0
 67 66  1  0
 68 67  2  0
 69 70  1  0
 69 63  2  0
 70 65  2  0
 71 64  1  0
 72 62  1  0
 74 76  2  0
 75 74  1  0
 77 75  1  0
 78 87  2  0
 78 83  1  0
 79 75  1  0
 79 83  1  0
 80 79  1  0
 81 82  1  0
 81 80  1  0
 82 78  1  0
 83 84  2  0
 84 85  1  0
 86 85  2  0
 87 86  1  0
 88 62  1  0
 88 93  1  0
 88 89  1  0
 89 92  1  1
 89 90  1  0
 91 89  1  0
 93 96  1  0
 94 98  1  0
 94 93  1  0
 95 94  2  0
 98 97  1  0
100 98  1  0
100101  1  0
100 99  1  0
M  ISO  4  14 100  22 100  60 101  61 101
M  END
>  <TORSDO>  (52) 
F 20

>  <SCORE>  (52) 
-12.280

>  <name>  (52) 
53

>  <ligand_id>  (52) 
53

>  <original_smiles>  (52) 
[H]c1c([H])c([H])c2c(c1[H])C([H])([H])C([H])([H])C([H])([H])C2([H])N([H])C(=O)C1([H])N(C(=O)C([H])(N([H])C(=O)C([H])(N([H])C([H])([H])[H])C([H])([H])[H])C(C([H])([H])[H])(C([H])([H])[H])C([H])([H])[H])C([H])([H])c2c([H])c(OC(C([H])([H])[H])(C([H])([H])[H])C([H])([H])[N+]3([H])C([H])([H])C([H])([H])C([H])(c4c([H])c([H])c(C(=O)N([H])[H])c(N([H])C(=O)N5C([H])([H])C([H])([H])C([H])([H])C([H])(n6nc(-c7c([H])c([H])c(Oc8c([H])c([H])c(F)c([H])c8F)c([H])c7[H])c(C(=O)N([H])[H])c6N([H])[H])C5([H])[H])c4[H])C([H])([H])C3([H])[H])c([H])c([H])c2C1([H])[H]

>  <smiles>  (52) 
[H]c1c([H])c([H])c2c(c1[H])C([H])([H])C([H])([H])C([H])([H])C2([H])N([H])C(=O)C1([H])N(C(=O)C([H])(N([H])C(=O)C([H])(N([H])C([H])([H])[H])C([H])([H])[H])C(C([H])([H])[H])(C([H])([H])[H])C([H])([H])[H])C([H])([H])c2c([H])c(OC(C([H])([H])[H])(C([H])([H])[H])C([H])([H])[N+]3([H])C([H])([H])C([H])([H])C([H])(c4c([H])c([H])c(C(=O)N([H])[H])c(N([H])C(=O)N5C([H])([H])C([H])([H])C([H])([H])C([H])(n6nc(-c7c([H])c([H])c(Oc8c([H])c([H])c(F)c([H])c8F)c([H])c7[H])c(C(=O)N([H])[H])c6N([H])[H])C5([H])[H])c4[H])C([H])([H])C3([H])[H])c([H])c([H])c2C1([H])[H]

$$$$
54:0:0
     RDKit          3D

 96105  0  0  1  0  0  0  0  0999 V2000
  -30.0570  -22.3380   21.7450 C   0  0  0  0  0  0  0  0  0  0  0  0
  -29.5650  -23.7860   21.6360 C   0  0  0  0  0  2  0  0  0  0  0  0
  -30.3570  -21.7710   20.3500 C   0  0  0  0  0  3  0  0  0  0  0  0
  -29.4920  -24.0420   20.1160 C   0  0  0  0  0  3  0  0  0  0  0  0
  -29.4450  -22.6430   19.5330 N   0  0  0  0  0  4  0  0  0  0  0  0
  -30.1790  -21.7620   22.8300 O   0  0  0  0  0  0  0  0  0  0  0  0
  -28.5080  -22.2820   19.6050 H   0  0  0  0  0  0  0  0  0  0  0  0
  -29.7050  -22.6300   18.5600 H   0  0  0  0  0  0  0  0  0  0  0  0
  -29.0410  -19.4820   20.3370 C   0  0  0  0  0  3  0  0  0  0  0  0
  -31.3440  -17.9230   20.4650 C   0  0  0  0  0  3  0  0  0  0  0  0
  -30.2660  -20.2030   20.3430 C   0  0  0  0  0  0  0  0  0  0  0  0
  -28.9550  -18.0580   20.4070 C   0  0  0  0  0  0  0  0  0  0  0  0
  -31.4230  -19.3520   20.4030 C   0  0  0  0  0  0  0  0  0  0  0  0
  -30.1100  -17.2230   20.4700 C   0  0  0  0  0  0  0  0  0  0  0  0
  -27.5660  -17.4550   20.3860 C   0  0  0  0  0  1  0  0  0  0  0  0
  -32.8160  -19.9660   20.4440 C   0  0  0  0  0  1  0  0  0  0  0  0
  -30.7090  -14.6980   20.0860 C   0  0  0  0  0  0  0  0  0  0  0  0
  -30.4060  -12.4950   18.9670 C   0  0  0  0  0  2  0  0  0  0  0  0
  -29.4100  -12.6780   17.7980 C   0  0  0  0  0  2  0  0  0  0  0  0
  -27.9570  -12.5130   18.2860 C   0  0  0  0  0  2  0  0  0  0  0  0
  -27.6610  -13.3360   19.5700 C   0  0  0  0  0  3  0  0  0  0  0  0
  -28.7720  -13.1470   20.6300 C   0  0  0  0  0  2  0  0  0  0  0  0
  -30.0590  -13.4900   20.0040 N   0  0  0  0  0  0  0  0  0  0  0  0
  -31.8510  -14.8360   19.6430 O   0  0  0  0  0  0  0  0  0  0  0  0
  -29.9550  -15.7590   20.5270 N   0  0  0  0  0  0  0  0  0  0  0  0
  -29.0540  -15.4610   20.8630 H   0  0  0  0  0  0  0  0  0  0  0  0
  -25.3000  -13.9250   20.4010 C   0  0  0  0  0  0  0  0  0  0  0  0
  -24.2480  -13.1580   20.8160 C   0  0  0  0  0  0  0  0  0  0  0  0
  -24.7000  -11.8050   20.7370 C   0  0  0  0  0  0  0  0  0  0  0  0
  -26.3310  -13.0480   20.1080 N   0  0  0  0  0  0  0  0  0  0  0  0
  -25.9750  -11.7630   20.3670 N   0  0  0  0  0  0  0  0  0  0  0  0
  -23.9730  -10.5460   20.9330 C   0  0  0  0  0  0  0  0  0  0  0  0
  -24.4060   -9.5830   21.8720 C   0  0  0  0  0  3  0  0  0  0  0  0
  -23.6780   -8.3870   22.0570 C   0  0  0  0  0  3  0  0  0  0  0  0
  -22.5040   -8.1470   21.3060 C   0  0  0  0  0  0  0  0  0  0  0  0
  -22.0910   -9.0980   20.3570 C   0  0  0  0  0  3  0  0  0  0  0  0
  -22.8190  -10.2850   20.1680 C   0  0  0  0  0  3  0  0  0  0  0  0
  -21.7510   -7.0010   21.3970 O   0  0  0  0  0  0  0  0  0  0  0  0
  -21.6530   -6.2970   22.5700 C   0  0  0  0  0  0  0  0  0  0  0  0
  -21.1670   -6.8890   23.7560 C   0  0  0  0  0  3  0  0  0  0  0  0
  -21.0190   -6.1120   24.9220 C   0  0  0  0  0  3  0  0  0  0  0  0
  -21.3460   -4.7420   24.9030 C   0  0  0  0  0  0  0  0  0  0  0  0
  -21.8260   -4.1510   23.7210 C   0  0  0  0  0  3  0  0  0  0  0  0
  -21.9760   -4.9260   22.5580 C   0  0  0  0  0  0  0  0  0  0  0  0
  -22.4190   -4.3440   21.4170 F   0  0  0  0  0  0  0  0  0  0  0  0
  -21.1960   -3.9940   26.0210 F   0  0  0  0  0  0  0  0  0  0  0  0
  -22.8670  -13.6450   21.1550 C   0  0  0  0  0  0  0  0  0  0  0  0
  -22.1710  -12.9490   22.0470 N   0  0  0  0  0  0  0  0  0  0  0  0
  -22.4160  -14.6770   20.6620 O   0  0  0  0  0  0  0  0  0  0  0  0
  -22.5480  -12.1140   22.4720 H   0  0  0  0  0  0  0  0  0  0  0  0
  -21.2450  -13.2550   22.3090 H   0  0  0  0  0  0  0  0  0  0  0  0
  -25.4480  -15.2930   20.2130 N   0  0  0  0  0  0  0  0  0  0  0  0
  -24.6570  -15.9180   20.3120 H   0  0  0  0  0  0  0  0  0  0  0  0
  -26.2110  -15.6970   19.6870 H   0  0  0  0  0  0  0  0  0  0  0  0
  -28.3720  -25.0700   19.6480 C   0  0  0  0  0  2  0  0  0  0  0  0
  -28.5070  -26.5050   19.9960 O   0  0  0  0  0  0  0  0  0  0  0  0
  -24.5740  -31.6620   23.1570 C   0  0  0  0  0  0  0  0  0  0  0  0
  -27.3580  -27.3130   19.9560 C   0  0  0  0  0  0  0  0  0  0  0  0
  -23.4320  -30.2960   21.4490 C   0  0  0  0  0  3  0  0  0  0  0  0
  -24.9430  -28.8510   19.9790 C   0  0  0  0  0  0  0  0  0  0  0  0
  -25.9640  -30.6940   21.3140 C   0  0  0  0  0  2  0  0  0  0  0  0
  -26.0910  -29.3480   20.6110 C   0  0  0  0  0  0  0  0  0  0  0  0
  -27.2980  -28.5910   20.5900 C   0  0  0  0  0  3  0  0  0  0  0  0
  -26.1830  -26.8680   19.3010 C   0  0  0  0  0  3  0  0  0  0  0  0
  -24.9930  -27.6160   19.3160 C   0  0  0  0  0  3  0  0  0  0  0  0
  -23.6790  -29.6830   20.0460 C   0  0  0  0  0  2  0  0  0  0  0  0
  -24.6750  -30.8990   22.0300 N   0  0  0  0  0  0  0  0  0  0  0  0
  -23.4750  -31.8890   23.6850 O   0  0  0  0  0  0  0  0  0  0  0  0
  -22.7880  -29.2220   22.3570 C   0  0  0  0  0  0  0  0  0  0  0  0
  -21.4690  -29.0170   22.2050 N   0  0  0  0  0  0  0  0  0  0  0  0
  -23.4730  -28.5810   23.1580 O   0  0  0  0  0  0  0  0  0  0  0  0
  -20.9760  -29.5830   21.5290 H   0  0  0  0  0  0  0  0  0  0  0  0
  -18.1080  -27.7570   22.6470 C   0  0  0  0  0  0  0  0  0  0  0  0
  -20.6630  -28.0300   22.9250 C   0  0  0  0  0  3  0  0  0  0  0  0
  -20.7820  -26.6320   22.2740 C   0  0  0  0  0  2  0  0  0  0  0  0
  -19.6800  -26.3530   21.2470 C   0  0  0  0  0  2  0  0  0  0  0  0
  -18.2980  -26.4490   21.8990 C   0  0  0  0  0  2  0  0  0  0  0  0
  -19.2190  -28.5080   23.1140 C   0  0  0  0  0  0  0  0  0  0  0  0
  -18.9860  -29.7370   23.7710 C   0  0  0  0  0  3  0  0  0  0  0  0
  -17.6750  -30.2110   23.9690 C   0  0  0  0  0  3  0  0  0  0  0  0
  -16.5800  -29.4540   23.5200 C   0  0  0  0  0  3  0  0  0  0  0  0
  -16.7970  -28.2300   22.8630 C   0  0  0  0  0  3  0  0  0  0  0  0
  -25.8300  -32.3040   23.8230 C   0  0  0  0  0  3  0  0  0  0  0  0
  -25.4930  -33.6950   24.1560 N   0  0  0  0  0  0  0  0  0  0  0  0
  -25.8130  -34.7560   23.4040 C   0  0  0  0  0  0  0  0  0  0  0  0
  -26.4930  -34.6680   22.3780 O   0  0  0  0  0  0  0  0  0  0  0  0
  -24.8920  -33.8370   24.9550 H   0  0  0  0  0  0  0  0  0  0  0  0
  -24.0470  -36.5120   23.0510 C   0  0  0  0  0  1  0  0  0  0  0  0
  -25.2960  -36.1330   23.8620 C   0  0  0  0  0  3  0  0  0  0  0  0
  -27.4090  -37.0690   24.6930 C   0  0  0  0  0  1  0  0  0  0  0  0
  -26.3050  -37.2090   23.7470 N   0  0  0  0  0  0  0  0  0  0  0  0
  -25.8790  -38.1210   23.8880 H   0  0  0  0  0  0  0  0  0  0  0  0
  -26.3150  -31.5280   25.1100 C   0  0  1  0  0  0  0  0  0  0  0  0
  -25.1910  -31.2640   26.1400 C   0  0  0  0  0  1  0  0  0  0  0  0
  -26.9310  -30.1630   24.7270 C   0  0  0  0  0  1  0  0  0  0  0  0
  -27.4320  -32.3320   25.8160 C   0  0  0  0  0  1  0  0  0  0  0  0
  1  6  2  0
  2  1  1  0
  3 11  1  0
  3  1  1  0
  4 55  1  0
  4  2  1  0
  5  7  1  0
  5  4  1  0
  5  3  1  0
  8  5  1  0
  9 11  2  0
  9 12  1  0
 10 14  1  0
 11 13  1  0
 12 14  2  0
 13 16  1  0
 13 10  2  0
 14 25  1  0
 15 12  1  0
 17 25  1  0
 18 23  1  0
 19 20  1  0
 19 18  1  0
 21 20  1  0
 21 30  1  0
 21 22  1  0
 23 17  1  0
 23 22  1  0
 24 17  2  0
 25 26  1  0
 27 28  2  0
 28 47  1  0
 29 28  1  0
 29 32  1  0
 30 31  1  0
 30 27  1  0
 31 29  2  0
 32 33  1  0
 33 34  2  0
 35 38  1  0
 35 34  1  0
 36 35  2  0
 37 36  1  0
 37 32  2  0
 38 39  1  0
 39 40  1  0
 40 41  2  0
 42 41  1  0
 42 46  1  0
 43 42  2  0
 44 39  2  0
 44 43  1  0
 45 44  1  0
 47 48  1  0
 48 51  1  0
 48 50  1  0
 49 47  2  0
 52 53  1  0
 52 27  1  0
 54 52  1  0
 55 56  1  0
 57 68  2  0
 58 56  1  0
 58 63  1  0
 59 67  1  0
 59 69  1  0
 60 66  1  0
 60 62  1  0
 61 67  1  0
 62 61  1  0
 63 62  2  0
 64 65  1  0
 64 58  2  0
 65 60  2  0
 66 59  1  0
 67 57  1  0
 69 71  2  0
 70 69  1  0
 72 70  1  0
 73 82  2  0
 73 78  1  0
 74 70  1  0
 74 78  1  0
 75 74  1  0
 76 77  1  0
 76 75  1  0
 77 73  1  0
 78 79  2  0
 79 80  1  0
 81 80  2  0
 82 81  1  0
 83 57  1  0
 83 84  1  0
 83 93  1  0
 84 87  1  0
 85 89  1  0
 85 84  1  0
 86 85  2  0
 89 88  1  0
 91 89  1  0
 91 92  1  0
 91 90  1  0
 93 96  1  1
 93 94  1  0
 95 93  1  0
M  ISO  4  17 100  25 100  55 101  56 101
M  END
>  <TORSDO>  (53) 
F 18

>  <SCORE>  (53) 
-14.801

>  <name>  (53) 
54

>  <ligand_id>  (53) 
54

>  <original_smiles>  (53) 
[H]c1c([H])c([H])c2c(c1[H])C([H])([H])C([H])([H])C([H])([H])C2([H])N([H])C(=O)C1([H])N(C(=O)C([H])(N([H])C(=O)C([H])(N([H])C([H])([H])[H])C([H])([H])[H])C(C([H])([H])[H])(C([H])([H])[H])C([H])([H])[H])C([H])([H])c2c([H])c(OC([H])([H])C3([H])C([H])([H])C(=O)C([H])(c4c([H])c(C([H])([H])[H])c(N([H])C(=O)N5C([H])([H])C([H])([H])C([H])([H])C([H])(n6nc(-c7c([H])c([H])c(Oc8c([H])c([H])c(F)c([H])c8F)c([H])c7[H])c(C(=O)N([H])[H])c6N([H])[H])C5([H])[H])c([H])c4C([H])([H])[H])[N+]3([H])[H])c([H])c([H])c2C1([H])[H]

>  <smiles>  (53) 
[H]c1c([H])c([H])c2c(c1[H])C([H])([H])C([H])([H])C([H])([H])C2([H])N([H])C(=O)C1([H])N(C(=O)C([H])(N([H])C(=O)C([H])(N([H])C([H])([H])[H])C([H])([H])[H])C(C([H])([H])[H])(C([H])([H])[H])C([H])([H])[H])C([H])([H])c2c([H])c(OC([H])([H])C3([H])C([H])([H])C(=O)C([H])(c4c([H])c(C([H])([H])[H])c(N([H])C(=O)N5C([H])([H])C([H])([H])C([H])([H])C([H])(n6nc(-c7c([H])c([H])c(Oc8c([H])c([H])c(F)c([H])c8F)c([H])c7[H])c(C(=O)N([H])[H])c6N([H])[H])C5([H])[H])c([H])c4C([H])([H])[H])[N+]3([H])[H])c([H])c([H])c2C1([H])[H]

$$$$
55:0:0
     RDKit          3D

 93101  0  0  1  0  0  0  0  0999 V2000
  -30.3840  -21.9610   19.7910 C   0  0  0  0  0  2  0  0  0  0  0  0
  -29.2960  -17.7950   19.2120 C   0  0  0  0  0  3  0  0  0  0  0  0
  -29.4150  -20.0910   18.4410 C   0  0  0  0  0  3  0  0  0  0  0  0
  -30.5570  -19.4480   20.4980 C   0  0  0  0  0  3  0  0  0  0  0  0
  -28.9150  -18.7960   18.2990 C   0  0  0  0  0  0  0  0  0  0  0  0
  -30.1680  -18.0910   20.2870 C   0  0  0  0  0  0  0  0  0  0  0  0
  -30.1270  -20.4570   19.5930 C   0  0  0  0  0  0  0  0  0  0  0  0
  -27.9120  -18.5530   17.2070 C   0  0  0  0  0  1  0  0  0  0  0  0
  -30.6820  -16.9720   21.2050 C   0  0  0  0  0  2  0  0  0  0  0  0
  -30.6990  -14.5610   20.5100 C   0  0  0  0  0  0  0  0  0  0  0  0
  -30.3490  -12.4270   19.3280 C   0  0  0  0  0  2  0  0  0  0  0  0
  -29.4040  -12.6150   18.1210 C   0  0  0  0  0  2  0  0  0  0  0  0
  -27.9390  -12.4860   18.5480 C   0  0  0  0  0  2  0  0  0  0  0  0
  -27.6060  -13.3260   19.8150 C   0  0  0  0  0  3  0  0  0  0  0  0
  -28.6510  -13.1310   20.9200 C   0  0  0  0  0  2  0  0  0  0  0  0
  -29.9810  -13.4180   20.3510 N   0  0  0  0  0  0  0  0  0  0  0  0
  -31.8500  -14.6770   20.0550 O   0  0  0  0  0  0  0  0  0  0  0  0
  -30.0800  -15.6320   21.0350 N   0  0  0  0  0  0  0  0  0  0  0  0
  -29.1260  -15.5030   21.3290 H   0  0  0  0  0  0  0  0  0  0  0  0
  -25.1880  -13.8940   20.5030 C   0  0  0  0  0  0  0  0  0  0  0  0
  -24.1300  -13.1120   20.8800 C   0  0  0  0  0  0  0  0  0  0  0  0
  -24.6130  -11.7660   20.8450 C   0  0  0  0  0  0  0  0  0  0  0  0
  -26.2490  -13.0330   20.2950 N   0  0  0  0  0  0  0  0  0  0  0  0
  -25.9060  -11.7440   20.5560 N   0  0  0  0  0  0  0  0  0  0  0  0
  -23.9000  -10.4890   21.0150 C   0  0  0  0  0  0  0  0  0  0  0  0
  -24.3210   -9.5440   21.9710 C   0  0  0  0  0  3  0  0  0  0  0  0
  -23.6090   -8.3350   22.1410 C   0  0  0  0  0  3  0  0  0  0  0  0
  -22.4660   -8.0650   21.3500 C   0  0  0  0  0  0  0  0  0  0  0  0
  -22.0660   -9.0060   20.3810 C   0  0  0  0  0  3  0  0  0  0  0  0
  -22.7770  -10.2020   20.2140 C   0  0  0  0  0  3  0  0  0  0  0  0
  -21.7330   -6.9100   21.4200 O   0  0  0  0  0  0  0  0  0  0  0  0
  -21.6260   -6.1930   22.5850 C   0  0  0  0  0  0  0  0  0  0  0  0
  -21.0750   -6.7490   23.7610 C   0  0  0  0  0  3  0  0  0  0  0  0
  -20.9240   -5.9480   24.9140 C   0  0  0  0  0  3  0  0  0  0  0  0
  -21.3200   -4.5970   24.8890 C   0  0  0  0  0  0  0  0  0  0  0  0
  -21.8640   -4.0450   23.7160 C   0  0  0  0  0  3  0  0  0  0  0  0
  -22.0130   -4.8370   22.5720 C   0  0  0  0  0  0  0  0  0  0  0  0
  -22.5210   -4.2920   21.4360 F   0  0  0  0  0  0  0  0  0  0  0  0
  -21.1670   -3.8320   25.9950 F   0  0  0  0  0  0  0  0  0  0  0  0
  -22.7200  -13.5670   21.1310 C   0  0  0  0  0  0  0  0  0  0  0  0
  -21.9850  -12.8530   21.9710 N   0  0  0  0  0  0  0  0  0  0  0  0
  -22.2810  -14.5950   20.6110 O   0  0  0  0  0  0  0  0  0  0  0  0
  -22.3680  -12.0390   22.4240 H   0  0  0  0  0  0  0  0  0  0  0  0
  -21.0360  -13.1280   22.1790 H   0  0  0  0  0  0  0  0  0  0  0  0
  -25.3250  -15.2530   20.2770 N   0  0  0  0  0  0  0  0  0  0  0  0
  -26.0750  -15.5960   19.6810 H   0  0  0  0  0  0  0  0  0  0  0  0
  -24.4680  -15.7940   20.1640 H   0  0  0  0  0  0  0  0  0  0  0  0
  -27.8610  -22.2380   19.9970 C   0  0  0  0  0  1  0  0  0  0  0  0
  -29.2250  -22.8270   20.2030 N   0  0  2  0  0  4  0  0  0  0  0  0
  -29.2810  -22.8640   21.2210 H   0  0  0  0  0  0  0  0  0  0  0  0
  -29.4110  -24.2740   19.7400 C   0  0  0  0  0  2  0  0  0  0  0  0
  -28.1690  -25.2500   19.7050 C   0  0  0  0  0  2  0  0  0  0  0  0
  -28.3490  -26.6110   20.1650 O   0  0  0  0  0  0  0  0  0  0  0  0
  -24.5810  -31.9090   23.3370 C   0  0  0  0  0  0  0  0  0  0  0  0
  -27.1980  -27.4050   20.1910 C   0  0  0  0  0  0  0  0  0  0  0  0
  -23.3810  -30.5310   21.6850 C   0  0  0  0  0  3  0  0  0  0  0  0
  -24.8180  -29.0010   20.2560 C   0  0  0  0  0  0  0  0  0  0  0  0
  -25.9280  -30.8350   21.5210 C   0  0  0  0  0  2  0  0  0  0  0  0
  -25.9950  -29.4710   20.8470 C   0  0  0  0  0  0  0  0  0  0  0  0
  -27.1820  -28.6880   20.8050 C   0  0  0  0  0  3  0  0  0  0  0  0
  -25.9750  -26.9670   19.6170 C   0  0  0  0  0  3  0  0  0  0  0  0
  -24.8040  -27.7400   19.6480 C   0  0  0  0  0  3  0  0  0  0  0  0
  -23.5930  -29.8830   20.2960 C   0  0  0  0  0  2  0  0  0  0  0  0
  -24.6480  -31.1100   22.2340 N   0  0  0  0  0  0  0  0  0  0  0  0
  -23.4970  -32.1890   23.8660 O   0  0  0  0  0  0  0  0  0  0  0  0
  -22.7200  -29.4950   22.6210 C   0  0  0  0  0  0  0  0  0  0  0  0
  -21.4020  -29.3020   22.4660 N   0  0  0  0  0  0  0  0  0  0  0  0
  -23.3920  -28.8710   23.4470 O   0  0  0  0  0  0  0  0  0  0  0  0
  -20.9250  -29.8490   21.7600 H   0  0  0  0  0  0  0  0  0  0  0  0
  -18.0230  -28.0850   22.8910 C   0  0  0  0  0  0  0  0  0  0  0  0
  -20.5740  -28.3580   23.2190 C   0  0  0  0  0  3  0  0  0  0  0  0
  -20.6980  -26.9280   22.6450 C   0  0  0  0  0  2  0  0  0  0  0  0
  -19.6160  -26.5960   21.6110 C   0  0  0  0  0  2  0  0  0  0  0  0
  -18.2210  -26.7350   22.2250 C   0  0  0  0  0  2  0  0  0  0  0  0
  -19.1270  -28.8530   23.3450 C   0  0  0  0  0  0  0  0  0  0  0  0
  -18.8890  -30.1190   23.9250 C   0  0  0  0  0  3  0  0  0  0  0  0
  -17.5790  -30.6130   24.0630 C   0  0  0  0  0  3  0  0  0  0  0  0
  -16.4890  -29.8400   23.6280 C   0  0  0  0  0  3  0  0  0  0  0  0
  -16.7110  -28.5790   23.0480 C   0  0  0  0  0  3  0  0  0  0  0  0
  -25.8630  -32.5300   23.9640 C   0  0  0  0  0  3  0  0  0  0  0  0
  -25.5740  -33.9400   24.2480 N   0  0  0  0  0  0  0  0  0  0  0  0
  -25.9420  -34.9660   23.4660 C   0  0  0  0  0  0  0  0  0  0  0  0
  -26.6370  -34.8230   22.4560 O   0  0  0  0  0  0  0  0  0  0  0  0
  -24.9550  -34.1250   25.0220 H   0  0  0  0  0  0  0  0  0  0  0  0
  -24.2680  -36.7870   23.0000 C   0  0  0  0  0  1  0  0  0  0  0  0
  -25.4660  -36.3760   23.8700 C   0  0  0  0  0  3  0  0  0  0  0  0
  -27.5760  -37.2400   24.7800 C   0  0  0  0  0  1  0  0  0  0  0  0
  -26.5260  -37.4040   23.7800 N   0  0  0  0  0  0  0  0  0  0  0  0
  -26.1340  -38.3350   23.8770 H   0  0  0  0  0  0  0  0  0  0  0  0
  -26.3330  -31.7850   25.2740 C   0  0  1  0  0  0  0  0  0  0  0  0
  -25.2110  -31.5880   26.3180 C   0  0  0  0  0  1  0  0  0  0  0  0
  -26.9090  -30.3890   24.9430 C   0  0  0  0  0  1  0  0  0  0  0  0
  -27.4780  -32.5850   25.9450 C   0  0  0  0  0  1  0  0  0  0  0  0
  1 49  1  0
  2  6  1  0
  3  7  2  0
  5  3  1  0
  5  2  2  0
  6  4  2  0
  6  9  1  0
  7  1  1  0
  7  4  1  0
  8  5  1  0
 10 18  1  0
 11 16  1  0
 12 13  1  0
 12 11  1  0
 14 13  1  0
 14 23  1  0
 14 15  1  0
 16 10  1  0
 16 15  1  0
 17 10  2  0
 18  9  1  0
 18 19  1  0
 20 21  2  0
 21 40  1  0
 22 21  1  0
 22 25  1  0
 23 20  1  0
 23 24  1  0
 24 22  2  0
 25 26  1  0
 26 27  2  0
 28 31  1  0
 28 27  1  0
 29 28  2  0
 30 29  1  0
 30 25  2  0
 31 32  1  0
 32 33  1  0
 33 34  2  0
 35 34  1  0
 35 39  1  0
 36 35  2  0
 37 32  2  0
 37 36  1  0
 38 37  1  0
 40 41  1  0
 41 44  1  0
 41 43  1  0
 42 40  2  0
 45 20  1  0
 46 45  1  0
 47 45  1  0
 48 49  1  0
 49 50  1  1
 51 49  1  0
 52 51  1  0
 52 53  1  0
 53 55  1  0
 54 65  2  0
 55 60  1  0
 56 64  1  0
 56 66  1  0
 57 63  1  0
 57 59  1  0
 58 64  1  0
 59 58  1  0
 60 59  2  0
 61 62  1  0
 61 55  2  0
 62 57  2  0
 63 56  1  0
 64 54  1  0
 66 68  2  0
 67 66  1  0
 69 67  1  0
 70 79  2  0
 70 75  1  0
 71 67  1  0
 71 75  1  0
 72 71  1  0
 73 74  1  0
 73 72  1  0
 74 70  1  0
 75 76  2  0
 76 77  1  0
 78 77  2  0
 79 78  1  0
 80 54  1  0
 80 81  1  0
 80 90  1  0
 81 84  1  0
 82 86  1  0
 82 81  1  0
 83 82  2  0
 86 85  1  0
 88 86  1  0
 88 89  1  0
 88 87  1  0
 90 93  1  1
 90 91  1  0
 92 90  1  0
M  ISO  4  10 100  18 100  52 101  53 101
M  END
>  <TORSDO>  (54) 
F 21

>  <SCORE>  (54) 
-13.626

>  <name>  (54) 
55

>  <ligand_id>  (54) 
55

>  <original_smiles>  (54) 
[H]c1c([H])c([H])c2c(c1[H])C([H])([H])C([H])([H])C([H])([H])C2([H])N([H])C(=O)C1([H])N(C(=O)C([H])(N([H])C(=O)C([H])(N([H])C([H])([H])[H])C([H])([H])[H])C(C([H])([H])[H])(C([H])([H])[H])C([H])([H])[H])C([H])([H])c2c([H])c(OC([H])([H])C([H])([H])[N+]([H])(C([H])([H])[H])C([H])([H])c3c([H])c(C([H])([H])[H])c([H])c(C([H])([H])N([H])C(=O)N4C([H])([H])C([H])([H])C([H])([H])C([H])(n5nc(-c6c([H])c([H])c(Oc7c([H])c([H])c(F)c([H])c7F)c([H])c6[H])c(C(=O)N([H])[H])c5N([H])[H])C4([H])[H])c3[H])c([H])c([H])c2C1([H])[H]

>  <smiles>  (54) 
[H]c1c([H])c([H])c2c(c1[H])C([H])([H])C([H])([H])C([H])([H])C2([H])N([H])C(=O)C1([H])N(C(=O)C([H])(N([H])C(=O)C([H])(N([H])C([H])([H])[H])C([H])([H])[H])C(C([H])([H])[H])(C([H])([H])[H])C([H])([H])[H])C([H])([H])c2c([H])c(OC([H])([H])C([H])([H])[N+]([H])(C([H])([H])[H])C([H])([H])c3c([H])c(C([H])([H])[H])c([H])c(C([H])([H])N([H])C(=O)N4C([H])([H])C([H])([H])C([H])([H])C([H])(n5nc(-c6c([H])c([H])c(Oc7c([H])c([H])c(F)c([H])c7F)c([H])c6[H])c(C(=O)N([H])[H])c5N([H])[H])C4([H])[H])c3[H])c([H])c([H])c2C1([H])[H]

$$$$
56:0:0
     RDKit          3D

 93101  0  0  1  0  0  0  0  0999 V2000
  -27.8820  -22.4360   21.3570 C   0  0  0  0  0  3  0  0  0  0  0  0
  -28.1810  -21.0350   21.2470 C   0  0  0  0  0  3  0  0  0  0  0  0
  -29.5120  -22.9470   19.7320 C   0  0  0  0  0  3  0  0  0  0  0  0
  -28.4950  -23.4770   20.5960 C   0  0  0  0  0  0  0  0  0  0  0  0
  -29.1480  -20.4760   20.3580 C   0  0  0  0  0  0  0  0  0  0  0  0
  -29.8330  -21.5200   19.6190 C   0  0  0  0  0  0  0  0  0  0  0  0
  -30.9260  -21.1380   18.6350 C   0  0  0  0  0  1  0  0  0  0  0  0
  -27.9080  -24.9910   20.8160 C   0  0  0  0  0  2  0  0  0  0  0  0
  -28.3010  -26.3520   20.2350 O   0  0  0  0  0  0  0  0  0  0  0  0
  -24.6220  -31.9560   23.2470 C   0  0  0  0  0  0  0  0  0  0  0  0
  -27.2580  -27.3340   20.1920 C   0  0  0  0  0  0  0  0  0  0  0  0
  -23.4380  -30.5540   21.6010 C   0  0  0  0  0  3  0  0  0  0  0  0
  -24.9060  -29.0160   20.1670 C   0  0  0  0  0  0  0  0  0  0  0  0
  -25.9850  -30.8660   21.4340 C   0  0  0  0  0  2  0  0  0  0  0  0
  -26.0780  -29.4820   20.7780 C   0  0  0  0  0  0  0  0  0  0  0  0
  -27.2590  -28.6560   20.7790 C   0  0  0  0  0  3  0  0  0  0  0  0
  -26.0680  -26.9670   19.5270 C   0  0  0  0  0  3  0  0  0  0  0  0
  -24.9100  -27.7690   19.5270 C   0  0  0  0  0  3  0  0  0  0  0  0
  -23.6650  -29.8910   20.2180 C   0  0  0  0  0  2  0  0  0  0  0  0
  -24.7010  -31.1450   22.1490 N   0  0  0  0  0  0  0  0  0  0  0  0
  -23.5330  -32.2230   23.7780 O   0  0  0  0  0  0  0  0  0  0  0  0
  -22.7740  -29.5320   22.5570 C   0  0  0  0  0  0  0  0  0  0  0  0
  -21.4480  -29.3440   22.4290 N   0  0  0  0  0  0  0  0  0  0  0  0
  -23.4530  -28.9080   23.3760 O   0  0  0  0  0  0  0  0  0  0  0  0
  -20.9550  -29.8990   21.7430 H   0  0  0  0  0  0  0  0  0  0  0  0
  -18.0780  -28.1220   22.9420 C   0  0  0  0  0  0  0  0  0  0  0  0
  -20.6370  -28.3970   23.1970 C   0  0  0  0  0  3  0  0  0  0  0  0
  -20.7440  -26.9690   22.6110 C   0  0  0  0  0  2  0  0  0  0  0  0
  -19.6380  -26.6490   21.6000 C   0  0  0  0  0  2  0  0  0  0  0  0
  -18.2590  -26.7800   22.2520 C   0  0  0  0  0  2  0  0  0  0  0  0
  -19.1950  -28.8870   23.3710 C   0  0  0  0  0  0  0  0  0  0  0  0
  -18.9710  -30.1430   23.9780 C   0  0  0  0  0  3  0  0  0  0  0  0
  -17.6630  -30.6340   24.1560 C   0  0  0  0  0  3  0  0  0  0  0  0
  -16.5610  -29.8650   23.7410 C   0  0  0  0  0  3  0  0  0  0  0  0
  -16.7700  -28.6120   23.1410 C   0  0  0  0  0  3  0  0  0  0  0  0
  -25.8940  -32.6030   23.8750 C   0  0  0  0  0  3  0  0  0  0  0  0
  -26.4000  -31.8470   25.1650 C   0  0  1  0  0  0  0  0  0  0  0  0
  -25.2940  -31.6070   26.2200 C   0  0  0  0  0  1  0  0  0  0  0  0
  -27.0030  -30.4730   24.7960 C   0  0  0  0  0  1  0  0  0  0  0  0
  -27.5330  -32.6590   25.8360 C   0  0  0  0  0  1  0  0  0  0  0  0
  -25.5730  -34.0020   24.1920 N   0  0  0  0  0  0  0  0  0  0  0  0
  -25.9030  -35.0540   23.4300 C   0  0  0  0  0  0  0  0  0  0  0  0
  -26.5750  -34.9460   22.4010 O   0  0  0  0  0  0  0  0  0  0  0  0
  -24.9750  -34.1590   24.9910 H   0  0  0  0  0  0  0  0  0  0  0  0
  -24.1820  -36.8490   23.0440 C   0  0  0  0  0  1  0  0  0  0  0  0
  -25.4090  -36.4430   23.8770 C   0  0  0  0  0  3  0  0  0  0  0  0
  -27.5240  -37.3330   24.7510 C   0  0  0  0  0  1  0  0  0  0  0  0
  -26.4430  -37.4960   23.7810 N   0  0  0  0  0  0  0  0  0  0  0  0
  -26.0350  -38.4180   23.9140 H   0  0  0  0  0  0  0  0  0  0  0  0
  -29.1570  -18.8450   20.1080 C   0  0  0  0  0  3  0  0  0  0  0  0
  -28.6660  -18.5900   18.7480 N   0  0  0  0  0  4  0  0  0  0  0  0
  -28.4650  -17.6150   18.6260 H   0  0  0  0  0  0  0  0  0  0  0  0
  -29.3480  -18.8620   18.0680 H   0  0  0  0  0  0  0  0  0  0  0  0
  -27.8260  -19.1160   18.5910 H   0  0  0  0  0  0  0  0  0  0  0  0
  -30.3020  -17.7120   20.4900 C   0  0  0  0  0  2  0  0  0  0  0  0
  -30.7390  -15.0280   20.2870 C   0  0  0  0  0  0  0  0  0  0  0  0
  -30.5920  -12.6950   19.3450 C   0  0  0  0  0  2  0  0  0  0  0  0
  -29.6550  -12.6780   18.1160 C   0  0  0  0  0  2  0  0  0  0  0  0
  -28.1880  -12.4840   18.5490 C   0  0  0  0  0  2  0  0  0  0  0  0
  -27.7910  -13.4110   19.7290 C   0  0  0  0  0  3  0  0  0  0  0  0
  -28.8500  -13.4030   20.8530 C   0  0  0  0  0  2  0  0  0  0  0  0
  -30.1310  -13.7840   20.2460 N   0  0  0  0  0  0  0  0  0  0  0  0
  -31.9330  -15.1140   19.9860 O   0  0  0  0  0  0  0  0  0  0  0  0
  -29.9570  -16.1830   20.4610 N   0  0  0  0  0  0  0  0  0  0  0  0
  -28.9980  -15.9680   20.6890 H   0  0  0  0  0  0  0  0  0  0  0  0
  -25.4120  -13.9960   20.4800 C   0  0  0  0  0  0  0  0  0  0  0  0
  -24.3460  -13.2230   20.8490 C   0  0  0  0  0  0  0  0  0  0  0  0
  -24.8060  -11.8700   20.8070 C   0  0  0  0  0  0  0  0  0  0  0  0
  -26.4510  -13.1170   20.2290 N   0  0  0  0  0  0  0  0  0  0  0  0
  -26.0960  -11.8330   20.4910 N   0  0  0  0  0  0  0  0  0  0  0  0
  -24.0770  -10.6090   20.9910 C   0  0  0  0  0  0  0  0  0  0  0  0
  -24.4840   -9.6520   21.9450 C   0  0  0  0  0  3  0  0  0  0  0  0
  -23.7540   -8.4560   22.1170 C   0  0  0  0  0  3  0  0  0  0  0  0
  -22.6020   -8.2090   21.3330 C   0  0  0  0  0  0  0  0  0  0  0  0
  -22.2140   -9.1550   20.3680 C   0  0  0  0  0  3  0  0  0  0  0  0
  -22.9450  -10.3420   20.1950 C   0  0  0  0  0  3  0  0  0  0  0  0
  -21.8470   -7.0650   21.4130 O   0  0  0  0  0  0  0  0  0  0  0  0
  -21.7320   -6.3570   22.5830 C   0  0  0  0  0  0  0  0  0  0  0  0
  -21.1920   -6.9350   23.7530 C   0  0  0  0  0  3  0  0  0  0  0  0
  -21.0280   -6.1530   24.9130 C   0  0  0  0  0  3  0  0  0  0  0  0
  -21.3930   -4.7940   24.9050 C   0  0  0  0  0  0  0  0  0  0  0  0
  -21.9250   -4.2140   23.7380 C   0  0  0  0  0  3  0  0  0  0  0  0
  -22.0910   -4.9940   22.5800 C   0  0  0  0  0  0  0  0  0  0  0  0
  -22.5840   -4.4260   21.4540 F   0  0  0  0  0  0  0  0  0  0  0  0
  -21.2270   -4.0390   26.0160 F   0  0  0  0  0  0  0  0  0  0  0  0
  -22.9510  -13.7030   21.1250 C   0  0  0  0  0  0  0  0  0  0  0  0
  -22.2180  -12.9980   21.9810 N   0  0  0  0  0  0  0  0  0  0  0  0
  -22.5190  -14.7370   20.6180 O   0  0  0  0  0  0  0  0  0  0  0  0
  -22.5810  -12.1620   22.4130 H   0  0  0  0  0  0  0  0  0  0  0  0
  -21.2810  -13.3010   22.2060 H   0  0  0  0  0  0  0  0  0  0  0  0
  -25.5760  -15.3680   20.3100 N   0  0  0  0  0  0  0  0  0  0  0  0
  -24.8050  -16.0180   20.4220 H   0  0  0  0  0  0  0  0  0  0  0  0
  -26.4070  -15.8000   19.9350 H   0  0  0  0  0  0  0  0  0  0  0  0
  2  1  1  0
  3  4  1  0
  4  8  1  0
  4  1  2  0
  5  2  2  0
  6  3  2  0
  6  5  1  0
  7  6  1  0
  9  8  1  0
 10 21  2  0
 11  9  1  0
 11 16  1  0
 12 20  1  0
 12 22  1  0
 13 19  1  0
 13 15  1  0
 14 20  1  0
 15 16  2  0
 15 14  1  0
 17 11  2  0
 18 17  1  0
 18 13  2  0
 19 12  1  0
 20 10  1  0
 22 24  2  0
 23 22  1  0
 25 23  1  0
 26 35  2  0
 26 31  1  0
 27 23  1  0
 27 31  1  0
 28 27  1  0
 29 30  1  0
 29 28  1  0
 30 26  1  0
 31 32  2  0
 32 33  1  0
 34 33  2  0
 35 34  1  0
 36 10  1  0
 36 41  1  0
 36 37  1  0
 37 40  1  1
 37 38  1  0
 39 37  1  0
 41 44  1  0
 42 46  1  0
 42 41  1  0
 43 42  2  0
 46 45  1  0
 48 46  1  0
 48 49  1  0
 48 47  1  0
 50  5  1  0
 50 55  1  0
 51 50  1  0
 52 51  1  0
 53 51  1  0
 54 51  1  0
 56 64  1  0
 57 62  1  0
 58 59  1  0
 58 57  1  0
 60 59  1  0
 60 69  1  0
 60 61  1  0
 62 56  1  0
 62 61  1  0
 63 56  2  0
 64 55  1  0
 64 65  1  0
 66 67  2  0
 67 86  1  0
 68 67  1  0
 68 71  1  0
 69 66  1  0
 69 70  1  0
 70 68  2  0
 71 72  1  0
 72 73  2  0
 74 77  1  0
 74 73  1  0
 75 74  2  0
 76 75  1  0
 76 71  2  0
 77 78  1  0
 78 79  1  0
 79 80  2  0
 81 80  1  0
 81 85  1  0
 82 81  2  0
 83 78  2  0
 83 82  1  0
 84 83  1  0
 86 87  1  0
 87 90  1  0
 87 89  1  0
 88 86  2  0
 91 92  1  0
 91 66  1  0
 93 91  1  0
M  ISO  4   8 101   9 101  56 100  64 100
M  END
>  <TORSDO>  (55) 
F 20

>  <SCORE>  (55) 
-13.963

>  <name>  (55) 
56

>  <ligand_id>  (55) 
56

>  <original_smiles>  (55) 
[H]c1c([H])c([H])c2c(c1[H])C([H])([H])C([H])([H])C([H])([H])C2([H])N([H])C(=O)C1([H])N(C(=O)C([H])(N([H])C(=O)C([H])(N([H])C([H])([H])[H])C([H])([H])[H])C(C([H])([H])[H])(C([H])([H])[H])C([H])([H])[H])C([H])([H])c2c([H])c(OC([H])([H])c3c([H])c([H])c(C([H])(C([H])([H])N([H])C(=O)N4C([H])([H])C([H])([H])C([H])([H])C([H])(n5nc(-c6c([H])c([H])c(Oc7c([H])c([H])c(F)c([H])c7F)c([H])c6[H])c(C(=O)N([H])[H])c5N([H])[H])C4([H])[H])[N+]([H])([H])[H])c(C([H])([H])[H])c3[H])c([H])c([H])c2C1([H])[H]

>  <smiles>  (55) 
[H]c1c([H])c([H])c2c(c1[H])C([H])([H])C([H])([H])C([H])([H])C2([H])N([H])C(=O)C1([H])N(C(=O)C([H])(N([H])C(=O)C([H])(N([H])C([H])([H])[H])C([H])([H])[H])C(C([H])([H])[H])(C([H])([H])[H])C([H])([H])[H])C([H])([H])c2c([H])c(OC([H])([H])c3c([H])c([H])c(C([H])(C([H])([H])N([H])C(=O)N4C([H])([H])C([H])([H])C([H])([H])C([H])(n5nc(-c6c([H])c([H])c(Oc7c([H])c([H])c(F)c([H])c7F)c([H])c6[H])c(C(=O)N([H])[H])c5N([H])[H])C4([H])[H])[N+]([H])([H])[H])c(C([H])([H])[H])c3[H])c([H])c([H])c2C1([H])[H]

$$$$
57:0:0
     RDKit          3D

 95104  0  0  1  0  0  0  0  0999 V2000
  -29.1190  -22.8720   20.9780 C   0  0  0  0  0  0  0  0  0  0  0  0
  -30.1950  -17.9620   21.7030 C   0  0  0  0  0  2  0  0  0  0  0  0
  -30.2690  -18.1710   19.3290 C   0  0  0  0  0  2  0  0  0  0  0  0
  -29.3220  -20.4790   21.6670 C   0  0  0  0  0  2  0  0  0  0  0  0
  -29.9500  -20.8870   19.4450 C   0  0  0  0  0  2  0  0  0  0  0  0
  -30.4420  -19.4620   21.3810 C   0  0  0  0  0  3  0  0  0  0  0  0
  -30.6730  -19.5710   19.8870 C   0  0  0  0  0  3  0  0  0  0  0  0
  -30.6800  -17.1830   20.4600 C   0  0  0  0  0  3  0  0  0  0  0  0
  -29.4540  -21.5650   20.6680 N   0  0  0  0  0  0  0  0  0  0  0  0
  -28.5980  -23.0860   22.0770 O   0  0  0  0  0  0  0  0  0  0  0  0
  -30.8900  -14.6840   19.9870 C   0  0  0  0  0  0  0  0  0  0  0  0
  -30.5700  -12.4660   18.9380 C   0  0  0  0  0  2  0  0  0  0  0  0
  -29.5670  -12.6130   17.7750 C   0  0  0  0  0  2  0  0  0  0  0  0
  -28.1200  -12.4570   18.2840 C   0  0  0  0  0  2  0  0  0  0  0  0
  -27.8320  -13.3130   19.5470 C   0  0  0  0  0  3  0  0  0  0  0  0
  -28.9530  -13.1740   20.6020 C   0  0  0  0  0  2  0  0  0  0  0  0
  -30.2260  -13.4900   19.9400 N   0  0  0  0  0  0  0  0  0  0  0  0
  -32.0320  -14.8090   19.5400 O   0  0  0  0  0  0  0  0  0  0  0  0
  -30.1780  -15.7770   20.3760 N   0  0  0  0  0  0  0  0  0  0  0  0
  -29.2230  -15.6080   20.6550 H   0  0  0  0  0  0  0  0  0  0  0  0
  -25.4920  -13.8930   20.4400 C   0  0  0  0  0  0  0  0  0  0  0  0
  -24.4460  -13.1110   20.8480 C   0  0  0  0  0  0  0  0  0  0  0  0
  -24.8970  -11.7610   20.7360 C   0  0  0  0  0  0  0  0  0  0  0  0
  -26.5150  -13.0190   20.1080 N   0  0  0  0  0  0  0  0  0  0  0  0
  -26.1650  -11.7280   20.3470 N   0  0  0  0  0  0  0  0  0  0  0  0
  -24.1750  -10.4950   20.9240 C   0  0  0  0  0  0  0  0  0  0  0  0
  -24.6040   -9.5330   21.8640 C   0  0  0  0  0  3  0  0  0  0  0  0
  -23.8820   -8.3330   22.0410 C   0  0  0  0  0  3  0  0  0  0  0  0
  -22.7160   -8.0860   21.2750 C   0  0  0  0  0  0  0  0  0  0  0  0
  -22.3070   -9.0370   20.3260 C   0  0  0  0  0  3  0  0  0  0  0  0
  -23.0290  -10.2280   20.1480 C   0  0  0  0  0  3  0  0  0  0  0  0
  -21.9670   -6.9370   21.3600 O   0  0  0  0  0  0  0  0  0  0  0  0
  -21.8390   -6.2480   22.5380 C   0  0  0  0  0  0  0  0  0  0  0  0
  -21.2740   -6.8390   23.6900 C   0  0  0  0  0  3  0  0  0  0  0  0
  -21.0970   -6.0720   24.8590 C   0  0  0  0  0  3  0  0  0  0  0  0
  -21.4730   -4.7150   24.8770 C   0  0  0  0  0  0  0  0  0  0  0  0
  -22.0300   -4.1240   23.7290 C   0  0  0  0  0  3  0  0  0  0  0  0
  -22.2090   -4.8880   22.5630 C   0  0  0  0  0  0  0  0  0  0  0  0
  -22.7260   -4.3080   21.4530 F   0  0  0  0  0  0  0  0  0  0  0  0
  -21.2950   -3.9760   25.9980 F   0  0  0  0  0  0  0  0  0  0  0  0
  -23.0740  -13.5840   21.2240 C   0  0  0  0  0  0  0  0  0  0  0  0
  -22.3940  -12.8570   22.1040 N   0  0  0  0  0  0  0  0  0  0  0  0
  -22.6140  -14.6340   20.7740 O   0  0  0  0  0  0  0  0  0  0  0  0
  -22.7810  -12.0090   22.4890 H   0  0  0  0  0  0  0  0  0  0  0  0
  -21.4750  -13.1530   22.3970 H   0  0  0  0  0  0  0  0  0  0  0  0
  -25.6520  -15.2690   20.3030 N   0  0  0  0  0  0  0  0  0  0  0  0
  -24.8920  -15.9170   20.4810 H   0  0  0  0  0  0  0  0  0  0  0  0
  -26.4770  -15.7220   19.9280 H   0  0  0  0  0  0  0  0  0  0  0  0
  -29.3800  -24.1770   20.1220 C   0  0  0  0  0  3  0  0  0  0  0  0
  -29.9820  -23.9620   18.7900 N   0  0  0  0  0  4  0  0  0  0  0  0
  -29.3710  -23.4370   18.1880 H   0  0  0  0  0  0  0  0  0  0  0  0
  -30.8600  -23.4790   18.8710 H   0  0  0  0  0  0  0  0  0  0  0  0
  -30.1660  -24.8480   18.3500 H   0  0  0  0  0  0  0  0  0  0  0  0
  -28.1480  -25.1680   20.0340 C   0  0  0  0  0  2  0  0  0  0  0  0
  -28.3870  -26.6180   20.1400 O   0  0  0  0  0  0  0  0  0  0  0  0
  -24.6690  -31.9150   23.2900 C   0  0  0  0  0  0  0  0  0  0  0  0
  -27.2580  -27.4450   20.1220 C   0  0  0  0  0  0  0  0  0  0  0  0
  -23.4530  -30.5490   21.6350 C   0  0  0  0  0  3  0  0  0  0  0  0
  -24.8890  -29.0350   20.1730 C   0  0  0  0  0  0  0  0  0  0  0  0
  -25.9890  -30.8810   21.4320 C   0  0  0  0  0  2  0  0  0  0  0  0
  -26.0620  -29.5170   20.7640 C   0  0  0  0  0  0  0  0  0  0  0  0
  -27.2510  -28.7340   20.7300 C   0  0  0  0  0  3  0  0  0  0  0  0
  -26.0560  -27.0120   19.5110 C   0  0  0  0  0  3  0  0  0  0  0  0
  -24.8850  -27.7850   19.5410 C   0  0  0  0  0  3  0  0  0  0  0  0
  -23.6520  -29.9020   20.2420 C   0  0  0  0  0  2  0  0  0  0  0  0
  -24.7240  -31.1290   22.1770 N   0  0  0  0  0  0  0  0  0  0  0  0
  -23.5890  -32.1820   23.8370 O   0  0  0  0  0  0  0  0  0  0  0  0
  -22.7990  -29.5120   22.5790 C   0  0  0  0  0  0  0  0  0  0  0  0
  -21.4740  -29.3230   22.4440 N   0  0  0  0  0  0  0  0  0  0  0  0
  -23.4800  -28.8810   23.3920 O   0  0  0  0  0  0  0  0  0  0  0  0
  -20.9840  -29.8800   21.7580 H   0  0  0  0  0  0  0  0  0  0  0  0
  -18.1070  -28.0850   22.8980 C   0  0  0  0  0  0  0  0  0  0  0  0
  -20.6590  -28.3720   23.2020 C   0  0  0  0  0  3  0  0  0  0  0  0
  -20.7860  -26.9450   22.6200 C   0  0  0  0  0  2  0  0  0  0  0  0
  -19.7000  -26.6150   21.5920 C   0  0  0  0  0  2  0  0  0  0  0  0
  -18.3080  -26.7410   22.2180 C   0  0  0  0  0  2  0  0  0  0  0  0
  -19.2120  -28.8580   23.3450 C   0  0  0  0  0  0  0  0  0  0  0  0
  -18.9710  -30.1160   23.9390 C   0  0  0  0  0  3  0  0  0  0  0  0
  -17.6590  -30.6020   24.0910 C   0  0  0  0  0  3  0  0  0  0  0  0
  -16.5680  -29.8260   23.6610 C   0  0  0  0  0  3  0  0  0  0  0  0
  -16.7940  -28.5700   23.0690 C   0  0  0  0  0  3  0  0  0  0  0  0
  -25.9580  -32.5320   23.9150 C   0  0  0  0  0  3  0  0  0  0  0  0
  -26.4730  -31.7410   25.1790 C   0  0  1  0  0  0  0  0  0  0  0  0
  -25.3810  -31.4890   26.2450 C   0  0  0  0  0  1  0  0  0  0  0  0
  -27.0510  -30.3680   24.7650 C   0  0  0  0  0  1  0  0  0  0  0  0
  -27.6290  -32.5210   25.8500 C   0  0  0  0  0  1  0  0  0  0  0  0
  -25.6590  -33.9300   24.2620 N   0  0  0  0  0  0  0  0  0  0  0  0
  -26.0030  -34.9880   23.5160 C   0  0  0  0  0  0  0  0  0  0  0  0
  -26.6770  -34.8910   22.4880 O   0  0  0  0  0  0  0  0  0  0  0  0
  -25.0630  -34.0790   25.0630 H   0  0  0  0  0  0  0  0  0  0  0  0
  -24.3040  -36.8070   23.1560 C   0  0  0  0  0  1  0  0  0  0  0  0
  -25.5220  -36.3750   23.9870 C   0  0  0  0  0  3  0  0  0  0  0  0
  -27.6470  -37.2220   24.8790 C   0  0  0  0  0  1  0  0  0  0  0  0
  -26.5710  -37.4170   23.9120 N   0  0  0  0  0  0  0  0  0  0  0  0
  -26.1710  -38.3390   24.0630 H   0  0  0  0  0  0  0  0  0  0  0  0
  1 10  2  0
  3  8  1  0
  5  7  1  0
  5  9  1  0
  6  4  1  0
  6  2  1  0
  7  3  1  0
  7  6  1  0
  8 19  1  0
  8  2  1  0
  9  1  1  0
  9  4  1  0
 11 19  1  0
 12 17  1  0
 13 14  1  0
 13 12  1  0
 15 14  1  0
 15 24  1  0
 15 16  1  0
 17 11  1  0
 17 16  1  0
 18 11  2  0
 19 20  1  0
 21 22  2  0
 22 41  1  0
 23 22  1  0
 23 26  1  0
 24 25  1  0
 24 21  1  0
 25 23  2  0
 26 27  1  0
 27 28  2  0
 29 32  1  0
 29 28  1  0
 30 29  2  0
 31 30  1  0
 31 26  2  0
 32 33  1  0
 33 38  2  0
 33 34  1  0
 34 35  2  0
 35 36  1  0
 36 40  1  0
 37 36  2  0
 38 37  1  0
 39 38  1  0
 41 42  1  0
 42 45  1  0
 42 44  1  0
 43 41  2  0
 46 21  1  0
 46 47  1  0
 48 46  1  0
 49 54  1  0
 49  1  1  0
 50 52  1  0
 50 49  1  0
 51 50  1  0
 53 50  1  0
 54 55  1  0
 56 67  2  0
 57 55  1  0
 57 62  1  0
 58 66  1  0
 58 68  1  0
 59 65  1  0
 59 61  1  0
 60 66  1  0
 61 60  1  0
 62 61  2  0
 63 64  1  0
 63 57  2  0
 64 59  2  0
 65 58  1  0
 66 56  1  0
 68 70  2  0
 69 68  1  0
 71 69  1  0
 72 81  2  0
 72 77  1  0
 73 69  1  0
 73 77  1  0
 74 73  1  0
 75 76  1  0
 75 74  1  0
 76 72  1  0
 77 78  2  0
 78 79  1  0
 80 79  2  0
 81 80  1  0
 82 56  1  0
 82 87  1  0
 82 83  1  0
 83 86  1  1
 83 84  1  0
 85 83  1  0
 87 90  1  0
 88 92  1  0
 88 87  1  0
 89 88  2  0
 92 91  1  0
 94 92  1  0
 94 95  1  0
 94 93  1  0
M  ISO  4  11 100  19 100  54 101  55 101
M  END
>  <TORSDO>  (56) 
F 19

>  <SCORE>  (56) 
-13.832

>  <name>  (56) 
57

>  <ligand_id>  (56) 
57

>  <original_smiles>  (56) 
[H]c1c([H])c([H])c2c(c1[H])C([H])([H])C([H])([H])C([H])([H])C2([H])N([H])C(=O)C1([H])N(C(=O)C([H])(N([H])C(=O)C([H])(N([H])C([H])([H])[H])C([H])([H])[H])C(C([H])([H])[H])(C([H])([H])[H])C([H])([H])[H])C([H])([H])c2c([H])c(OC([H])([H])C([H])(C(=O)N3C([H])([H])C4([H])C([H])([H])C([H])(N([H])C(=O)N5C([H])([H])C([H])([H])C([H])([H])C([H])(n6nc(-c7c([H])c([H])c(Oc8c([H])c([H])c(F)c([H])c8F)c([H])c7[H])c(C(=O)N([H])[H])c6N([H])[H])C5([H])[H])C([H])([H])C4([H])C3([H])[H])[N+]([H])([H])[H])c([H])c([H])c2C1([H])[H]

>  <smiles>  (56) 
[H]c1c([H])c([H])c2c(c1[H])C([H])([H])C([H])([H])C([H])([H])C2([H])N([H])C(=O)C1([H])N(C(=O)C([H])(N([H])C(=O)C([H])(N([H])C([H])([H])[H])C([H])([H])[H])C(C([H])([H])[H])(C([H])([H])[H])C([H])([H])[H])C([H])([H])c2c([H])c(OC([H])([H])C([H])(C(=O)N3C([H])([H])C4([H])C([H])([H])C([H])(N([H])C(=O)N5C([H])([H])C([H])([H])C([H])([H])C([H])(n6nc(-c7c([H])c([H])c(Oc8c([H])c([H])c(F)c([H])c8F)c([H])c7[H])c(C(=O)N([H])[H])c6N([H])[H])C5([H])[H])C([H])([H])C4([H])C3([H])[H])[N+]([H])([H])[H])c([H])c([H])c2C1([H])[H]

$$$$
58:0:0
     RDKit          3D

 98107  0  0  1  0  0  0  0  0999 V2000
  -27.6640  -21.0950   19.8600 C   0  0  0  0  0  2  0  0  0  0  0  0
  -28.7330  -20.8060   22.1640 C   0  0  0  0  0  2  0  0  0  0  0  0
  -27.0090  -22.3370   20.5140 C   0  0  0  0  0  2  0  0  0  0  0  0
  -29.1100  -22.2730   21.8900 C   0  0  0  0  0  2  0  0  0  0  0  0
  -28.1740  -20.0860   20.9150 C   0  0  0  0  0  3  0  0  0  0  0  0
  -27.9350  -23.0660   21.4350 N   0  0  1  0  0  4  0  0  0  0  0  0
  -27.3820  -23.1630   22.2750 H   0  0  0  0  0  0  0  0  0  0  0  0
  -29.2380  -17.8470   20.5470 C   0  0  0  0  0  0  0  0  0  0  0  0
  -29.1710  -19.1710   20.3430 N   0  0  0  0  0  0  0  0  0  0  0  0
  -28.4280  -17.2510   21.2610 O   0  0  0  0  0  0  0  0  0  0  0  0
  -29.8740  -19.5630   19.7330 H   0  0  0  0  0  0  0  0  0  0  0  0
  -30.6200  -17.4900   18.3920 C   0  0  0  0  0  2  0  0  0  0  0  0
  -31.6250  -17.8530   19.4630 C   0  0  0  0  0  2  0  0  0  0  0  0
  -30.3510  -17.1130   19.8460 C   0  0  1  0  0  0  0  0  0  0  0  0
  -31.0950  -14.7010   19.8740 C   0  0  0  0  0  0  0  0  0  0  0  0
  -30.7760  -12.4610   18.9180 C   0  0  0  0  0  2  0  0  0  0  0  0
  -29.7810  -12.6040   17.7470 C   0  0  0  0  0  2  0  0  0  0  0  0
  -28.3310  -12.4860   18.2510 C   0  0  0  0  0  2  0  0  0  0  0  0
  -28.0440  -13.4030   19.4710 C   0  0  0  0  0  3  0  0  0  0  0  0
  -29.1480  -13.2510   20.5440 C   0  0  0  0  0  2  0  0  0  0  0  0
  -30.4500  -13.5060   19.9000 N   0  0  0  0  0  0  0  0  0  0  0  0
  -32.1990  -14.8610   19.3450 O   0  0  0  0  0  0  0  0  0  0  0  0
  -30.3320  -15.7310   20.2540 N   0  0  0  0  0  0  0  0  0  0  0  0
  -29.4630  -15.4850   20.7110 H   0  0  0  0  0  0  0  0  0  0  0  0
  -25.7110  -14.0550   20.3480 C   0  0  0  0  0  0  0  0  0  0  0  0
  -24.6460  -13.2990   20.7560 C   0  0  0  0  0  0  0  0  0  0  0  0
  -25.0680  -11.9380   20.6590 C   0  0  0  0  0  0  0  0  0  0  0  0
  -26.7150  -13.1550   20.0230 N   0  0  0  0  0  0  0  0  0  0  0  0
  -26.3350  -11.8740   20.2690 N   0  0  0  0  0  0  0  0  0  0  0  0
  -24.3230  -10.6890   20.8640 C   0  0  0  0  0  0  0  0  0  0  0  0
  -24.7230   -9.7360   21.8270 C   0  0  0  0  0  3  0  0  0  0  0  0
  -23.9800   -8.5510   22.0160 C   0  0  0  0  0  3  0  0  0  0  0  0
  -22.8200   -8.3110   21.2410 C   0  0  0  0  0  0  0  0  0  0  0  0
  -22.4360   -9.2530   20.2680 C   0  0  0  0  0  3  0  0  0  0  0  0
  -23.1830  -10.4290   20.0770 C   0  0  0  0  0  3  0  0  0  0  0  0
  -22.0530   -7.1750   21.3360 O   0  0  0  0  0  0  0  0  0  0  0  0
  -21.8810   -6.5180   22.5280 C   0  0  0  0  0  0  0  0  0  0  0  0
  -21.3420   -7.1620   23.6620 C   0  0  0  0  0  3  0  0  0  0  0  0
  -21.1180   -6.4350   24.8470 C   0  0  0  0  0  3  0  0  0  0  0  0
  -21.4230   -5.0610   24.8990 C   0  0  0  0  0  0  0  0  0  0  0  0
  -21.9550   -4.4150   23.7690 C   0  0  0  0  0  3  0  0  0  0  0  0
  -22.1780   -5.1390   22.5850 C   0  0  0  0  0  0  0  0  0  0  0  0
  -22.6690   -4.5070   21.4920 F   0  0  0  0  0  0  0  0  0  0  0  0
  -21.2010   -4.3590   26.0340 F   0  0  0  0  0  0  0  0  0  0  0  0
  -23.2840  -13.8030   21.1360 C   0  0  0  0  0  0  0  0  0  0  0  0
  -22.6060  -13.1090   22.0420 N   0  0  0  0  0  0  0  0  0  0  0  0
  -22.8290  -14.8440   20.6610 O   0  0  0  0  0  0  0  0  0  0  0  0
  -22.9850  -12.2640   22.4440 H   0  0  0  0  0  0  0  0  0  0  0  0
  -21.6900  -13.4200   22.3350 H   0  0  0  0  0  0  0  0  0  0  0  0
  -25.9080  -15.4260   20.2170 N   0  0  0  0  0  0  0  0  0  0  0  0
  -25.2290  -16.0910   20.5670 H   0  0  0  0  0  0  0  0  0  0  0  0
  -26.8220  -15.8440   20.0810 H   0  0  0  0  0  0  0  0  0  0  0  0
  -28.2570  -24.4890   21.1230 C   0  0  0  0  0  2  0  0  0  0  0  0
  -28.6140  -24.8190   19.6520 C   0  0  0  0  0  3  0  0  0  0  0  0
  -29.6490  -23.9750   19.1730 O   0  0  0  0  0  0  0  0  0  0  0  0
  -29.8930  -24.2910   18.3070 H   0  0  0  0  0  0  0  0  0  0  0  0
  -29.0900  -26.2840   19.5060 C   0  0  0  0  0  2  0  0  0  0  0  0
  -28.4800  -26.8970   18.3770 O   0  0  0  0  0  0  0  0  0  0  0  0
  -24.7070  -31.1800   22.6380 C   0  0  0  0  0  0  0  0  0  0  0  0
  -27.2810  -27.4990   18.6490 C   0  0  0  0  0  0  0  0  0  0  0  0
  -23.4230  -29.9620   20.9060 C   0  0  0  0  0  3  0  0  0  0  0  0
  -24.8120  -28.7670   19.1340 C   0  0  0  0  0  0  0  0  0  0  0  0
  -25.8860  -30.5330   20.5430 C   0  0  0  0  0  2  0  0  0  0  0  0
  -25.9870  -29.2840   19.6960 C   0  0  0  0  0  0  0  0  0  0  0  0
  -27.2250  -28.6520   19.4580 C   0  0  0  0  0  3  0  0  0  0  0  0
  -26.0950  -26.9860   18.0870 C   0  0  0  0  0  3  0  0  0  0  0  0
  -24.8580  -27.6120   18.3310 C   0  0  0  0  0  3  0  0  0  0  0  0
  -23.5310  -29.5130   19.4240 C   0  0  0  0  0  2  0  0  0  0  0  0
  -24.6960  -30.5640   21.4220 N   0  0  0  0  0  0  0  0  0  0  0  0
  -23.6720  -31.2910   23.3080 O   0  0  0  0  0  0  0  0  0  0  0  0
  -22.9270  -28.7650   21.7470 C   0  0  0  0  0  0  0  0  0  0  0  0
  -21.6120  -28.4990   21.6870 N   0  0  0  0  0  0  0  0  0  0  0  0
  -23.7180  -28.0860   22.4070 O   0  0  0  0  0  0  0  0  0  0  0  0
  -21.0300  -29.1080   21.1280 H   0  0  0  0  0  0  0  0  0  0  0  0
  -18.3910  -26.9350   22.1660 C   0  0  0  0  0  0  0  0  0  0  0  0
  -20.9280  -27.3950   22.3600 C   0  0  0  0  0  3  0  0  0  0  0  0
  -21.1250  -26.0650   21.5970 C   0  0  0  0  0  2  0  0  0  0  0  0
  -20.0010  -25.7720   20.5980 C   0  0  0  0  0  2  0  0  0  0  0  0
  -18.6500  -25.7010   21.3170 C   0  0  0  0  0  2  0  0  0  0  0  0
  -19.4600  -27.7380   22.6420 C   0  0  0  0  0  0  0  0  0  0  0  0
  -19.1650  -28.8940   23.3970 C   0  0  0  0  0  3  0  0  0  0  0  0
  -17.8330  -29.2450   23.6830 C   0  0  0  0  0  3  0  0  0  0  0  0
  -16.7790  -28.4360   23.2260 C   0  0  0  0  0  3  0  0  0  0  0  0
  -17.0590  -27.2820   22.4730 C   0  0  0  0  0  3  0  0  0  0  0  0
  -26.0140  -31.7930   23.2350 C   0  0  0  0  0  3  0  0  0  0  0  0
  -25.6530  -33.0610   23.8830 N   0  0  0  0  0  0  0  0  0  0  0  0
  -25.8490  -34.2700   23.3440 C   0  0  0  0  0  0  0  0  0  0  0  0
  -26.4260  -34.4390   22.2660 O   0  0  0  0  0  0  0  0  0  0  0  0
  -25.1300  -32.9980   24.7450 H   0  0  0  0  0  0  0  0  0  0  0  0
  -23.9950  -35.9610   23.5000 C   0  0  0  0  0  1  0  0  0  0  0  0
  -25.3200  -35.4890   24.1220 C   0  0  0  0  0  3  0  0  0  0  0  0
  -27.4590  -36.3320   24.9830 C   0  0  0  0  0  1  0  0  0  0  0  0
  -26.2780  -36.6150   24.1720 N   0  0  0  0  0  0  0  0  0  0  0  0
  -25.8340  -37.4510   24.5430 H   0  0  0  0  0  0  0  0  0  0  0  0
  -26.7440  -30.8310   24.2490 C   0  0  1  0  0  0  0  0  0  0  0  0
  -25.8210  -30.2800   25.3600 C   0  0  0  0  0  1  0  0  0  0  0  0
  -27.3640  -29.6270   23.5030 C   0  0  0  0  0  1  0  0  0  0  0  0
  -27.9190  -31.5770   24.9240 C   0  0  0  0  0  1  0  0  0  0  0  0
  1  3  1  0
  1  5  1  0
  3  6  1  0
  4  2  1  0
  5  9  1  0
  5  2  1  0
  6  4  1  0
  6  7  1  1
  8 10  2  0
  9  8  1  0
 11  9  1  0
 12 13  1  0
 12 14  1  0
 13 14  1  0
 14 23  1  6
 14  8  1  0
 15 21  1  0
 15 23  1  0
 16 21  1  0
 17 18  1  0
 17 16  1  0
 19 18  1  0
 19 28  1  0
 19 20  1  0
 21 20  1  0
 22 15  2  0
 23 24  1  0
 25 26  2  0
 26 45  1  0
 27 26  1  0
 27 30  1  0
 28 29  1  0
 28 25  1  0
 29 27  2  0
 30 31  1  0
 31 32  2  0
 33 36  1  0
 33 32  1  0
 34 33  2  0
 35 34  1  0
 35 30  2  0
 36 37  1  0
 37 42  2  0
 37 38  1  0
 38 39  2  0
 39 40  1  0
 40 44  1  0
 41 40  2  0
 42 41  1  0
 43 42  1  0
 45 46  1  0
 46 49  1  0
 46 48  1  0
 47 45  2  0
 50 25  1  0
 50 51  1  0
 52 50  1  0
 53  6  1  0
 54 57  1  0
 54 53  1  0
 55 54  1  0
 56 55  1  0
 58 60  1  0
 58 57  1  0
 59 70  2  0
 60 65  1  0
 61 69  1  0
 61 71  1  0
 62 68  1  0
 62 64  1  0
 63 69  1  0
 64 63  1  0
 65 64  2  0
 66 67  1  0
 66 60  2  0
 67 62  2  0
 68 61  1  0
 69 59  1  0
 71 73  2  0
 72 71  1  0
 74 72  1  0
 75 84  2  0
 75 80  1  0
 76 72  1  0
 76 80  1  0
 77 76  1  0
 78 79  1  0
 78 77  1  0
 79 75  1  0
 80 81  2  0
 81 82  1  0
 83 82  2  0
 84 83  1  0
 85 59  1  0
 85 86  1  0
 85 95  1  0
 86 89  1  0
 87 86  1  0
 87 91  1  0
 88 87  2  0
 91 90  1  0
 91 93  1  0
 93 94  1  0
 93 92  1  0
 95 98  1  1
 95 96  1  0
 97 95  1  0
M  ISO  4  15 100  23 100  57 101  58 101
M  END
>  <TORSDO>  (57) 
F 22

>  <SCORE>  (57) 
-9.411

>  <name>  (57) 
58

>  <ligand_id>  (57) 
58

>  <original_smiles>  (57) 
[H]OC([H])(C([H])([H])Oc1c([H])c([H])c2c(c1[H])C([H])([H])N(C(=O)C([H])(N([H])C(=O)C([H])(N([H])C([H])([H])[H])C([H])([H])[H])C(C([H])([H])[H])(C([H])([H])[H])C([H])([H])[H])C([H])(C(=O)N([H])C1([H])c3c([H])c([H])c([H])c([H])c3C([H])([H])C([H])([H])C1([H])[H])C2([H])[H])C([H])([H])[N+]1([H])C([H])([H])C([H])([H])C([H])(N([H])C(=O)C2(N([H])C(=O)N3C([H])([H])C([H])([H])C([H])([H])C([H])(n4nc(-c5c([H])c([H])c(Oc6c([H])c([H])c(F)c([H])c6F)c([H])c5[H])c(C(=O)N([H])[H])c4N([H])[H])C3([H])[H])C([H])([H])C2([H])[H])C([H])([H])C1([H])[H]

>  <smiles>  (57) 
[H]OC([H])(C([H])([H])Oc1c([H])c([H])c2c(c1[H])C([H])([H])N(C(=O)C([H])(N([H])C(=O)C([H])(N([H])C([H])([H])[H])C([H])([H])[H])C(C([H])([H])[H])(C([H])([H])[H])C([H])([H])[H])C([H])(C(=O)N([H])C1([H])c3c([H])c([H])c([H])c([H])c3C([H])([H])C([H])([H])C1([H])[H])C2([H])[H])C([H])([H])[N+]1([H])C([H])([H])C([H])([H])C([H])(N([H])C(=O)C2(N([H])C(=O)N3C([H])([H])C([H])([H])C([H])([H])C([H])(n4nc(-c5c([H])c([H])c(Oc6c([H])c([H])c(F)c([H])c6F)c([H])c5[H])c(C(=O)N([H])[H])c4N([H])[H])C3([H])[H])C([H])([H])C2([H])[H])C([H])([H])C1([H])[H]

$$$$
59:0:0
     RDKit          3D

 98106  0  0  1  0  0  0  0  0999 V2000
  -30.3380  -24.4400   19.0480 C   0  0  0  0  0  0  0  0  0  0  0  0
  -29.5060  -23.4170   18.7760 N   0  0  0  0  0  0  0  0  0  0  0  0
  -31.4320  -24.2560   19.5840 O   0  0  0  0  0  0  0  0  0  0  0  0
  -28.6210  -23.6620   18.3510 H   0  0  0  0  0  0  0  0  0  0  0  0
  -29.8250  -21.9730   18.7730 C   0  0  0  0  0  2  0  0  0  0  0  0
  -29.9550  -21.2840   20.1620 C   0  0  0  0  0  2  0  0  0  0  0  0
  -30.7810  -17.5760   19.2700 C   0  0  0  0  0  2  0  0  0  0  0  0
  -29.5090  -17.6380   21.4120 C   0  0  0  0  0  2  0  0  0  0  0  0
  -30.9900  -19.1110   19.3770 C   0  0  0  0  0  2  0  0  0  0  0  0
  -29.7160  -19.1750   21.4650 C   0  0  0  0  0  2  0  0  0  0  0  0
  -30.6300  -16.8930   20.6530 C   0  0  0  0  0  3  0  0  0  0  0  0
  -29.8820  -19.7820   20.1150 N   0  0  1  0  0  4  0  0  0  0  0  0
  -29.0320  -19.5770   19.6100 H   0  0  0  0  0  0  0  0  0  0  0  0
  -31.0260  -14.4260   20.0900 C   0  0  0  0  0  0  0  0  0  0  0  0
  -30.6810  -12.2660   18.9500 C   0  0  0  0  0  2  0  0  0  0  0  0
  -29.7060  -12.4880   17.7740 C   0  0  0  0  0  2  0  0  0  0  0  0
  -28.2400  -12.3820   18.2420 C   0  0  0  0  0  2  0  0  0  0  0  0
  -27.9540  -13.2170   19.5200 C   0  0  0  0  0  3  0  0  0  0  0  0
  -29.0360  -12.9610   20.5940 C   0  0  0  0  0  2  0  0  0  0  0  0
  -30.3480  -13.2500   19.9890 N   0  0  0  0  0  0  0  0  0  0  0  0
  -32.1540  -14.5960   19.6240 O   0  0  0  0  0  0  0  0  0  0  0  0
  -30.2990  -15.4520   20.5760 N   0  0  0  0  0  0  0  0  0  0  0  0
  -29.3870  -15.1870   20.9190 H   0  0  0  0  0  0  0  0  0  0  0  0
  -25.5870  -13.8760   20.2930 C   0  0  0  0  0  0  0  0  0  0  0  0
  -24.5120  -13.1280   20.6900 C   0  0  0  0  0  0  0  0  0  0  0  0
  -24.9420  -11.7660   20.6460 C   0  0  0  0  0  0  0  0  0  0  0  0
  -26.6070  -12.9730   20.0350 N   0  0  0  0  0  0  0  0  0  0  0  0
  -26.2220  -11.6980   20.3010 N   0  0  0  0  0  0  0  0  0  0  0  0
  -24.1940  -10.5190   20.8530 C   0  0  0  0  0  0  0  0  0  0  0  0
  -24.5890   -9.5770   21.8280 C   0  0  0  0  0  3  0  0  0  0  0  0
  -23.8440   -8.3920   22.0220 C   0  0  0  0  0  3  0  0  0  0  0  0
  -22.6910   -8.1450   21.2410 C   0  0  0  0  0  0  0  0  0  0  0  0
  -22.3150   -9.0760   20.2560 C   0  0  0  0  0  3  0  0  0  0  0  0
  -23.0600  -10.2510   20.0610 C   0  0  0  0  0  3  0  0  0  0  0  0
  -21.9200   -7.0110   21.3420 O   0  0  0  0  0  0  0  0  0  0  0  0
  -21.7760   -6.3430   22.5310 C   0  0  0  0  0  0  0  0  0  0  0  0
  -21.2590   -6.9750   23.6840 C   0  0  0  0  0  3  0  0  0  0  0  0
  -21.0630   -6.2320   24.8650 C   0  0  0  0  0  3  0  0  0  0  0  0
  -21.3730   -4.8600   24.8950 C   0  0  0  0  0  0  0  0  0  0  0  0
  -21.8820   -4.2280   23.7460 C   0  0  0  0  0  3  0  0  0  0  0  0
  -22.0810   -4.9680   22.5680 C   0  0  0  0  0  0  0  0  0  0  0  0
  -22.5510   -4.3490   21.4580 F   0  0  0  0  0  0  0  0  0  0  0  0
  -21.1760   -4.1440   26.0270 F   0  0  0  0  0  0  0  0  0  0  0  0
  -23.1320  -13.6360   20.9980 C   0  0  0  0  0  0  0  0  0  0  0  0
  -22.4100  -12.9610   21.8860 N   0  0  0  0  0  0  0  0  0  0  0  0
  -22.7030  -14.6700   20.4860 O   0  0  0  0  0  0  0  0  0  0  0  0
  -22.7670  -12.1280   22.3280 H   0  0  0  0  0  0  0  0  0  0  0  0
  -21.4850  -13.2880   22.1280 H   0  0  0  0  0  0  0  0  0  0  0  0
  -25.7790  -15.2420   20.1110 N   0  0  0  0  0  0  0  0  0  0  0  0
  -25.0280  -15.9130   20.2310 H   0  0  0  0  0  0  0  0  0  0  0  0
  -26.6190  -15.6530   19.7230 H   0  0  0  0  0  0  0  0  0  0  0  0
  -29.9570  -25.8550   18.5440 C   0  0  0  0  0  3  0  0  0  0  0  0
  -31.0900  -26.3610   17.7430 N   0  0  0  0  0  4  0  0  0  0  0  0
  -31.9140  -26.4080   18.3170 H   0  0  0  0  0  0  0  0  0  0  0  0
  -30.8980  -27.2670   17.3540 H   0  0  0  0  0  0  0  0  0  0  0  0
  -31.2870  -25.7230   16.9940 H   0  0  0  0  0  0  0  0  0  0  0  0
  -29.5810  -26.8890   19.6470 C   0  0  0  0  0  2  0  0  0  0  0  0
  -28.3220  -26.5380   20.1990 O   0  0  0  0  0  0  0  0  0  0  0  0
  -24.6260  -31.8490   23.2150 C   0  0  0  0  0  0  0  0  0  0  0  0
  -27.2540  -27.4020   20.1260 C   0  0  0  0  0  0  0  0  0  0  0  0
  -23.4140  -30.4480   21.5750 C   0  0  0  0  0  3  0  0  0  0  0  0
  -24.8660  -28.9130   20.1430 C   0  0  0  0  0  0  0  0  0  0  0  0
  -25.9430  -30.8050   21.3710 C   0  0  0  0  0  2  0  0  0  0  0  0
  -26.0300  -29.4370   20.7240 C   0  0  0  0  0  0  0  0  0  0  0  0
  -27.2330  -28.6900   20.7130 C   0  0  0  0  0  3  0  0  0  0  0  0
  -26.0730  -26.8890   19.5530 C   0  0  0  0  0  3  0  0  0  0  0  0
  -24.8840  -27.6390   19.5510 C   0  0  0  0  0  3  0  0  0  0  0  0
  -23.6190  -29.7680   20.1960 C   0  0  0  0  0  2  0  0  0  0  0  0
  -24.6790  -31.0470   22.1120 N   0  0  0  0  0  0  0  0  0  0  0  0
  -23.5460  -32.1240   23.7560 O   0  0  0  0  0  0  0  0  0  0  0  0
  -22.7610  -29.4310   22.5390 C   0  0  0  0  0  0  0  0  0  0  0  0
  -21.4340  -29.2550   22.4150 N   0  0  0  0  0  0  0  0  0  0  0  0
  -23.4430  -28.8030   23.3520 O   0  0  0  0  0  0  0  0  0  0  0  0
  -20.9470  -29.8140   21.7290 H   0  0  0  0  0  0  0  0  0  0  0  0
  -18.0570  -28.0680   22.9100 C   0  0  0  0  0  0  0  0  0  0  0  0
  -20.6140  -28.3210   23.1860 C   0  0  0  0  0  3  0  0  0  0  0  0
  -20.7150  -26.8890   22.6150 C   0  0  0  0  0  2  0  0  0  0  0  0
  -19.6140  -26.5650   21.5990 C   0  0  0  0  0  2  0  0  0  0  0  0
  -18.2320  -26.7160   22.2410 C   0  0  0  0  0  2  0  0  0  0  0  0
  -19.1760  -28.8290   23.3400 C   0  0  0  0  0  0  0  0  0  0  0  0
  -18.9590  -30.0950   23.9260 C   0  0  0  0  0  3  0  0  0  0  0  0
  -17.6560  -30.6000   24.0860 C   0  0  0  0  0  3  0  0  0  0  0  0
  -16.5510  -29.8370   23.6730 C   0  0  0  0  0  3  0  0  0  0  0  0
  -16.7520  -28.5720   23.0910 C   0  0  0  0  0  3  0  0  0  0  0  0
  -25.9150  -32.4760   23.8320 C   0  0  0  0  0  3  0  0  0  0  0  0
  -25.6070  -33.8710   24.1730 N   0  0  0  0  0  0  0  0  0  0  0  0
  -25.9330  -34.9280   23.4180 C   0  0  0  0  0  0  0  0  0  0  0  0
  -26.5940  -34.8310   22.3800 O   0  0  0  0  0  0  0  0  0  0  0  0
  -25.0170  -34.0200   24.9780 H   0  0  0  0  0  0  0  0  0  0  0  0
  -24.2000  -36.7210   23.0850 C   0  0  0  0  0  1  0  0  0  0  0  0
  -25.4470  -36.3130   23.8860 C   0  0  0  0  0  3  0  0  0  0  0  0
  -27.5860  -37.1960   24.7080 C   0  0  0  0  0  1  0  0  0  0  0  0
  -26.4780  -37.3690   23.7720 N   0  0  0  0  0  0  0  0  0  0  0  0
  -26.0710  -38.2870   23.9250 H   0  0  0  0  0  0  0  0  0  0  0  0
  -26.4420  -31.6950   25.0970 C   0  0  1  0  0  0  0  0  0  0  0  0
  -25.3580  -31.4470   26.1710 C   0  0  0  0  0  1  0  0  0  0  0  0
  -27.0250  -30.3220   24.6880 C   0  0  0  0  0  1  0  0  0  0  0  0
  -27.5960  -32.4850   25.7580 C   0  0  0  0  0  1  0  0  0  0  0  0
  1  3  2  0
  2  1  1  0
  4  2  1  0
  5  2  1  0
  5  6  1  0
  7  9  1  0
  7 11  1  0
  8 10  1  0
  9 12  1  0
 11 22  1  0
 11  8  1  0
 12  6  1  0
 12 10  1  0
 12 13  1  6
 14 22  1  0
 15 20  1  0
 16 17  1  0
 16 15  1  0
 18 17  1  0
 18 27  1  0
 18 19  1  0
 20 14  1  0
 20 19  1  0
 21 14  2  0
 22 23  1  0
 24 25  2  0
 25 44  1  0
 26 25  1  0
 26 29  1  0
 27 24  1  0
 27 28  1  0
 28 26  2  0
 29 30  1  0
 30 31  2  0
 32 35  1  0
 32 31  1  0
 33 32  2  0
 34 33  1  0
 34 29  2  0
 35 36  1  0
 36 41  2  0
 36 37  1  0
 37 38  2  0
 38 39  1  0
 39 43  1  0
 40 39  2  0
 41 40  1  0
 42 41  1  0
 44 45  1  0
 45 48  1  0
 45 47  1  0
 46 44  2  0
 49 50  1  0
 49 24  1  0
 51 49  1  0
 52  1  1  0
 52 57  1  0
 53 54  1  0
 53 52  1  0
 55 53  1  0
 56 53  1  0
 57 58  1  0
 59 70  2  0
 60 58  1  0
 60 65  1  0
 61 69  1  0
 61 71  1  0
 62 68  1  0
 62 64  1  0
 63 69  1  0
 64 63  1  0
 65 64  2  0
 66 60  2  0
 67 66  1  0
 67 62  2  0
 68 61  1  0
 69 59  1  0
 71 73  2  0
 72 71  1  0
 74 72  1  0
 75 84  2  0
 75 80  1  0
 76 72  1  0
 76 80  1  0
 77 76  1  0
 78 79  1  0
 78 77  1  0
 79 75  1  0
 80 81  2  0
 81 82  1  0
 83 82  2  0
 84 83  1  0
 85 59  1  0
 85 86  1  0
 85 95  1  0
 86 89  1  0
 87 91  1  0
 87 86  1  0
 88 87  2  0
 91 90  1  0
 93 91  1  0
 93 94  1  0
 93 92  1  0
 95 98  1  1
 95 96  1  0
 97 95  1  0
M  ISO  4  14 100  22 100  57 101  58 101
M  END
>  <TORSDO>  (58) 
F 22

>  <SCORE>  (58) 
-12.575

>  <name>  (58) 
59

>  <ligand_id>  (58) 
59

>  <original_smiles>  (58) 
[H]c1c([H])c([H])c2c(c1[H])C([H])([H])C([H])([H])C([H])([H])C2([H])N([H])C(=O)C1([H])N(C(=O)C([H])(N([H])C(=O)C([H])(N([H])C([H])([H])[H])C([H])([H])[H])C(C([H])([H])[H])(C([H])([H])[H])C([H])([H])[H])C([H])([H])c2c([H])c(OC([H])([H])C([H])(C(=O)N([H])C([H])([H])C([H])([H])[N+]3([H])C([H])([H])C([H])([H])C([H])(N([H])C(=O)N4C([H])([H])C([H])([H])C([H])([H])C([H])(n5nc(-c6c([H])c([H])c(Oc7c([H])c([H])c(F)c([H])c7F)c([H])c6[H])c(C(=O)N([H])[H])c5N([H])[H])C4([H])[H])C([H])([H])C3([H])[H])[N+]([H])([H])[H])c([H])c([H])c2C1([H])[H]

>  <smiles>  (58) 
[H]c1c([H])c([H])c2c(c1[H])C([H])([H])C([H])([H])C([H])([H])C2([H])N([H])C(=O)C1([H])N(C(=O)C([H])(N([H])C(=O)C([H])(N([H])C([H])([H])[H])C([H])([H])[H])C(C([H])([H])[H])(C([H])([H])[H])C([H])([H])[H])C([H])([H])c2c([H])c(OC([H])([H])C([H])(C(=O)N([H])C([H])([H])C([H])([H])[N+]3([H])C([H])([H])C([H])([H])C([H])(N([H])C(=O)N4C([H])([H])C([H])([H])C([H])([H])C([H])(n5nc(-c6c([H])c([H])c(Oc7c([H])c([H])c(F)c([H])c7F)c([H])c6[H])c(C(=O)N([H])[H])c5N([H])[H])C4([H])[H])C([H])([H])C3([H])[H])[N+]([H])([H])[H])c([H])c([H])c2C1([H])[H]

$$$$
60:0:0
     RDKit          3D

 93101  0  0  1  0  0  0  0  0999 V2000
  -30.1040  -21.7090   20.8990 C   0  0  0  0  0  0  0  0  0  0  0  0
  -29.2690  -22.6290   20.3210 N   0  0  0  0  0  0  0  0  0  0  0  0
  -31.0270  -22.1040   21.6130 O   0  0  0  0  0  0  0  0  0  0  0  0
  -28.5020  -22.2870   19.7580 H   0  0  0  0  0  0  0  0  0  0  0  0
  -29.6170  -19.4930   19.5580 C   0  0  0  0  0  3  0  0  0  0  0  0
  -30.3290  -19.3380   21.8440 C   0  0  0  0  0  3  0  0  0  0  0  0
  -29.9490  -20.1740   20.7610 C   0  0  0  0  0  0  0  0  0  0  0  0
  -29.6700  -18.0600   19.4480 C   0  0  0  0  0  0  0  0  0  0  0  0
  -30.3700  -17.9160   21.7570 C   0  0  0  0  0  0  0  0  0  0  0  0
  -30.0650  -17.2330   20.5480 C   0  0  0  0  0  0  0  0  0  0  0  0
  -29.2700  -17.4170   18.1310 C   0  0  0  0  0  1  0  0  0  0  0  0
  -30.7530  -17.1240   22.9960 C   0  0  0  0  0  1  0  0  0  0  0  0
  -30.7880  -14.7660   20.0860 C   0  0  0  0  0  0  0  0  0  0  0  0
  -30.5890  -12.5290   19.0090 C   0  0  0  0  0  2  0  0  0  0  0  0
  -29.5660  -12.6420   17.8550 C   0  0  0  0  0  2  0  0  0  0  0  0
  -28.1270  -12.4390   18.3710 C   0  0  0  0  0  2  0  0  0  0  0  0
  -27.8240  -13.2810   19.6400 C   0  0  0  0  0  3  0  0  0  0  0  0
  -28.9520  -13.1310   20.6860 C   0  0  0  0  0  2  0  0  0  0  0  0
  -30.2140  -13.5210   20.0370 N   0  0  0  0  0  0  0  0  0  0  0  0
  -31.9070  -14.9750   19.6090 O   0  0  0  0  0  0  0  0  0  0  0  0
  -29.9800  -15.7690   20.5570 N   0  0  0  0  0  0  0  0  0  0  0  0
  -29.1510  -15.4110   21.0060 H   0  0  0  0  0  0  0  0  0  0  0  0
  -25.4840  -13.8250   20.5510 C   0  0  0  0  0  0  0  0  0  0  0  0
  -24.4470  -13.0260   20.9520 C   0  0  0  0  0  0  0  0  0  0  0  0
  -24.9110  -11.6820   20.8180 C   0  0  0  0  0  0  0  0  0  0  0  0
  -26.5130  -12.9650   20.2000 N   0  0  0  0  0  0  0  0  0  0  0  0
  -26.1770  -11.6680   20.4190 N   0  0  0  0  0  0  0  0  0  0  0  0
  -24.2040  -10.4050   20.9910 C   0  0  0  0  0  0  0  0  0  0  0  0
  -24.6280   -9.4500   21.9400 C   0  0  0  0  0  3  0  0  0  0  0  0
  -23.9200   -8.2380   22.1000 C   0  0  0  0  0  3  0  0  0  0  0  0
  -22.7750   -7.9750   21.3110 C   0  0  0  0  0  0  0  0  0  0  0  0
  -22.3720   -8.9200   20.3530 C   0  0  0  0  0  3  0  0  0  0  0  0
  -23.0800  -10.1220   20.1900 C   0  0  0  0  0  3  0  0  0  0  0  0
  -22.0410   -6.8160   21.3800 O   0  0  0  0  0  0  0  0  0  0  0  0
  -21.8550   -6.1510   22.5660 C   0  0  0  0  0  0  0  0  0  0  0  0
  -21.2550   -6.7730   23.6830 C   0  0  0  0  0  3  0  0  0  0  0  0
  -21.0200   -6.0330   24.8590 C   0  0  0  0  0  3  0  0  0  0  0  0
  -21.3730   -4.6720   24.9170 C   0  0  0  0  0  0  0  0  0  0  0  0
  -21.9660   -4.0490   23.8050 C   0  0  0  0  0  3  0  0  0  0  0  0
  -22.2030   -4.7860   22.6310 C   0  0  0  0  0  0  0  0  0  0  0  0
  -22.7540   -4.1770   21.5540 F   0  0  0  0  0  0  0  0  0  0  0  0
  -21.1400   -3.9580   26.0440 F   0  0  0  0  0  0  0  0  0  0  0  0
  -23.0700  -13.4780   21.3460 C   0  0  0  0  0  0  0  0  0  0  0  0
  -22.4180  -12.7450   22.2420 N   0  0  0  0  0  0  0  0  0  0  0  0
  -22.5850  -14.5150   20.8960 O   0  0  0  0  0  0  0  0  0  0  0  0
  -22.8250  -11.9060   22.6270 H   0  0  0  0  0  0  0  0  0  0  0  0
  -21.4980  -13.0290   22.5480 H   0  0  0  0  0  0  0  0  0  0  0  0
  -25.6310  -15.2040   20.4350 N   0  0  0  0  0  0  0  0  0  0  0  0
  -24.8700  -15.8450   20.6310 H   0  0  0  0  0  0  0  0  0  0  0  0
  -26.4510  -15.6680   20.0640 H   0  0  0  0  0  0  0  0  0  0  0  0
  -29.4520  -24.1310   20.4500 C   0  0  0  0  0  3  0  0  0  0  0  0
  -28.2660  -25.1110   20.0450 C   0  0  0  0  0  3  0  0  0  0  0  0
  -28.4570  -26.5670   20.2710 O   0  0  0  0  0  0  0  0  0  0  0  0
  -24.7170  -31.9060   23.3680 C   0  0  0  0  0  0  0  0  0  0  0  0
  -27.3390  -27.4170   20.2200 C   0  0  0  0  0  0  0  0  0  0  0  0
  -23.5260  -30.5670   21.6700 C   0  0  0  0  0  3  0  0  0  0  0  0
  -24.9840  -29.0460   20.2210 C   0  0  0  0  0  0  0  0  0  0  0  0
  -26.0690  -30.8690   21.5330 C   0  0  0  0  0  2  0  0  0  0  0  0
  -26.1470  -29.5090   20.8480 C   0  0  0  0  0  0  0  0  0  0  0  0
  -27.3270  -28.7070   20.8370 C   0  0  0  0  0  3  0  0  0  0  0  0
  -26.1520  -27.0090   19.5700 C   0  0  0  0  0  3  0  0  0  0  0  0
  -24.9890  -27.8020   19.5730 C   0  0  0  0  0  3  0  0  0  0  0  0
  -23.7530  -29.9290   20.2740 C   0  0  0  0  0  2  0  0  0  0  0  0
  -24.7890  -31.1300   22.2470 N   0  0  0  0  0  0  0  0  0  0  0  0
  -23.6280  -32.1790   23.8940 O   0  0  0  0  0  0  0  0  0  0  0  0
  -22.8390  -29.5300   22.5900 C   0  0  0  0  0  0  0  0  0  0  0  0
  -21.5230  -29.3330   22.4040 N   0  0  0  0  0  0  0  0  0  0  0  0
  -23.4920  -28.9050   23.4310 O   0  0  0  0  0  0  0  0  0  0  0  0
  -21.0560  -29.8890   21.7020 H   0  0  0  0  0  0  0  0  0  0  0  0
  -18.1530  -28.0590   22.7210 C   0  0  0  0  0  0  0  0  0  0  0  0
  -20.6860  -28.3760   23.1290 C   0  0  0  0  0  3  0  0  0  0  0  0
  -20.8520  -26.9480   22.5600 C   0  0  0  0  0  2  0  0  0  0  0  0
  -19.8150  -26.6010   21.4870 C   0  0  0  0  0  2  0  0  0  0  0  0
  -18.3970  -26.7140   22.0550 C   0  0  0  0  0  2  0  0  0  0  0  0
  -19.2280  -28.8450   23.2100 C   0  0  0  0  0  0  0  0  0  0  0  0
  -18.9490  -30.1010   23.7900 C   0  0  0  0  0  3  0  0  0  0  0  0
  -17.6250  -30.5730   23.8840 C   0  0  0  0  0  3  0  0  0  0  0  0
  -16.5620  -29.7830   23.4110 C   0  0  0  0  0  3  0  0  0  0  0  0
  -16.8280  -28.5270   22.8350 C   0  0  0  0  0  3  0  0  0  0  0  0
  -25.9950  -32.5070   24.0280 C   0  0  0  0  0  3  0  0  0  0  0  0
  -26.4590  -31.7210   25.3150 C   0  0  1  0  0  0  0  0  0  0  0  0
  -25.3310  -31.4980   26.3490 C   0  0  0  0  0  1  0  0  0  0  0  0
  -27.0270  -30.3340   24.9320 C   0  0  0  0  0  1  0  0  0  0  0  0
  -27.6050  -32.4870   26.0140 C   0  0  0  0  0  1  0  0  0  0  0  0
  -25.7070  -33.9120   24.3570 N   0  0  0  0  0  0  0  0  0  0  0  0
  -26.0670  -34.9590   23.6040 C   0  0  0  0  0  0  0  0  0  0  0  0
  -26.7450  -34.8450   22.5790 O   0  0  0  0  0  0  0  0  0  0  0  0
  -25.1090  -34.0750   25.1530 H   0  0  0  0  0  0  0  0  0  0  0  0
  -24.3620  -36.7750   23.2510 C   0  0  0  0  0  1  0  0  0  0  0  0
  -25.6010  -36.3560   24.0590 C   0  0  0  0  0  3  0  0  0  0  0  0
  -27.7470  -37.2170   24.8830 C   0  0  0  0  0  1  0  0  0  0  0  0
  -26.6470  -37.3940   23.9390 N   0  0  0  0  0  0  0  0  0  0  0  0
  -26.2530  -38.3200   24.0810 H   0  0  0  0  0  0  0  0  0  0  0  0
  1  3  2  0
  2 51  1  0
  2  1  1  0
  4  2  1  0
  5  7  1  0
  7  1  1  0
  7  6  2  0
  8  5  2  0
  8 10  1  0
  9  6  1  0
  9 12  1  0
 10 21  1  0
 10  9  2  0
 11  8  1  0
 13 21  1  0
 14 19  1  0
 15 16  1  0
 15 14  1  0
 17 16  1  0
 17 26  1  0
 17 18  1  0
 19 13  1  0
 19 18  1  0
 20 13  2  0
 21 22  1  0
 23 24  2  0
 24 43  1  0
 25 24  1  0
 25 28  1  0
 26 27  1  0
 26 23  1  0
 27 25  2  0
 28 29  1  0
 29 30  2  0
 31 34  1  0
 31 30  1  0
 32 31  2  0
 33 32  1  0
 33 28  2  0
 34 35  1  0
 35 40  2  0
 35 36  1  0
 36 37  2  0
 37 38  1  0
 38 42  1  0
 39 38  2  0
 40 39  1  0
 41 40  1  0
 43 44  1  0
 44 47  1  0
 44 46  1  0
 45 43  2  0
 48 23  1  0
 48 49  1  0
 50 48  1  0
 52 53  1  0
 52 51  2  0
 54 65  2  0
 55 53  1  0
 55 60  1  0
 56 64  1  0
 56 66  1  0
 57 63  1  0
 57 59  1  0
 58 64  1  0
 59 58  1  0
 60 59  2  0
 61 62  1  0
 61 55  2  0
 62 57  2  0
 63 56  1  0
 64 54  1  0
 66 68  2  0
 67 66  1  0
 69 67  1  0
 70 79  2  0
 70 75  1  0
 71 67  1  0
 71 75  1  0
 72 71  1  0
 73 74  1  0
 73 72  1  0
 74 70  1  0
 75 76  2  0
 76 77  1  0
 78 77  2  0
 79 78  1  0
 80 54  1  0
 80 85  1  0
 80 81  1  0
 81 84  1  1
 81 82  1  0
 83 81  1  0
 85 88  1  0
 86 90  1  0
 86 85  1  0
 87 86  2  0
 90 89  1  0
 92 90  1  0
 92 93  1  0
 92 91  1  0
M  ISO  4  13 100  21 100  52 101  53 101
M  END
>  <TORSDO>  (59) 
F 19

>  <SCORE>  (59) 
-13.146

>  <name>  (59) 
60

>  <ligand_id>  (59) 
60

>  <original_smiles>  (59) 
[H]c1c([H])c([H])c2c(c1[H])C([H])([H])C([H])([H])C([H])([H])C2([H])N([H])C(=O)C1([H])N(C(=O)C([H])(N([H])C(=O)C([H])(N([H])C([H])([H])[H])C([H])([H])[H])C(C([H])([H])[H])(C([H])([H])[H])C([H])([H])[H])C([H])([H])c2c([H])c(OC([H])([H])C([H])([H])N([H])C(=O)c3c([H])c(C([H])([H])[H])c(N([H])C(=O)N4C([H])([H])C([H])([H])C([H])([H])C([H])(n5nc(-c6c([H])c([H])c(Oc7c([H])c([H])c(F)c([H])c7F)c([H])c6[H])c(C(=O)N([H])[H])c5N([H])[H])C4([H])[H])c(C([H])([H])[H])c3[H])c([H])c([H])c2C1([H])[H]

>  <smiles>  (59) 
[H]c1c([H])c([H])c2c(c1[H])C([H])([H])C([H])([H])C([H])([H])C2([H])N([H])C(=O)C1([H])N(C(=O)C([H])(N([H])C(=O)C([H])(N([H])C([H])([H])[H])C([H])([H])[H])C(C([H])([H])[H])(C([H])([H])[H])C([H])([H])[H])C([H])([H])c2c([H])c(OC([H])([H])C([H])([H])N([H])C(=O)c3c([H])c(C([H])([H])[H])c(N([H])C(=O)N4C([H])([H])C([H])([H])C([H])([H])C([H])(n5nc(-c6c([H])c([H])c(Oc7c([H])c([H])c(F)c([H])c7F)c([H])c6[H])c(C(=O)N([H])[H])c5N([H])[H])C4([H])[H])c(C([H])([H])[H])c3[H])c([H])c([H])c2C1([H])[H]

$$$$
61:0:0
     RDKit          3D

 96104  0  0  1  0  0  0  0  0999 V2000
  -29.1360  -22.4070   20.8290 C   0  0  0  0  0  0  0  0  0  0  0  0
  -29.3250  -21.1610   20.2170 N   0  0  0  0  0  0  0  0  0  0  0  0
  -29.0700  -22.4860   22.0560 O   0  0  0  0  0  0  0  0  0  0  0  0
  -29.1690  -21.1280   19.2200 H   0  0  0  0  0  0  0  0  0  0  0  0
  -31.0460  -18.6790   22.5460 C   0  0  0  0  0  3  0  0  0  0  0  0
  -30.5520  -19.8670   21.9790 C   0  0  0  0  0  3  0  0  0  0  0  0
  -29.5860  -18.5470   20.1850 C   0  0  0  0  0  3  0  0  0  0  0  0
  -30.8160  -17.4120   21.9690 C   0  0  0  0  0  0  0  0  0  0  0  0
  -29.7880  -19.8620   20.7880 C   0  0  0  0  0  0  0  0  0  0  0  0
  -30.0920  -17.2960   20.7500 C   0  0  0  0  0  0  0  0  0  0  0  0
  -31.3380  -16.2060   22.7310 C   0  0  0  0  0  1  0  0  0  0  0  0
  -30.5410  -14.8150   19.9920 C   0  0  0  0  0  0  0  0  0  0  0  0
  -30.2720  -12.5660   18.9270 C   0  0  0  0  0  2  0  0  0  0  0  0
  -29.2490  -12.6350   17.7730 C   0  0  0  0  0  2  0  0  0  0  0  0
  -27.8100  -12.4640   18.2940 C   0  0  0  0  0  2  0  0  0  0  0  0
  -27.5130  -13.3470   19.5340 C   0  0  0  0  0  3  0  0  0  0  0  0
  -28.6400  -13.2450   20.5820 C   0  0  0  0  0  2  0  0  0  0  0  0
  -29.8950  -13.6030   19.9090 N   0  0  0  0  0  0  0  0  0  0  0  0
  -31.7160  -14.9160   19.6270 O   0  0  0  0  0  0  0  0  0  0  0  0
  -29.7620  -15.9420   20.2370 N   0  0  0  0  0  0  0  0  0  0  0  0
  -28.7730  -15.7470   20.2140 H   0  0  0  0  0  0  0  0  0  0  0  0
  -25.1870  -13.9440   20.4450 C   0  0  0  0  0  0  0  0  0  0  0  0
  -24.1420  -13.1690   20.8680 C   0  0  0  0  0  0  0  0  0  0  0  0
  -24.5900  -11.8160   20.7740 C   0  0  0  0  0  0  0  0  0  0  0  0
  -26.2040  -13.0600   20.1110 N   0  0  0  0  0  0  0  0  0  0  0  0
  -25.8570  -11.7740   20.3750 N   0  0  0  0  0  0  0  0  0  0  0  0
  -23.8660  -10.5550   20.9770 C   0  0  0  0  0  0  0  0  0  0  0  0
  -24.3260   -9.5730   21.8850 C   0  0  0  0  0  3  0  0  0  0  0  0
  -23.5970   -8.3800   22.0760 C   0  0  0  0  0  3  0  0  0  0  0  0
  -22.3960   -8.1580   21.3620 C   0  0  0  0  0  0  0  0  0  0  0  0
  -21.9560   -9.1260   20.4420 C   0  0  0  0  0  3  0  0  0  0  0  0
  -22.6840  -10.3120   20.2480 C   0  0  0  0  0  3  0  0  0  0  0  0
  -21.6360   -7.0190   21.4680 O   0  0  0  0  0  0  0  0  0  0  0  0
  -21.6050   -6.2780   22.6210 C   0  0  0  0  0  0  0  0  0  0  0  0
  -21.2040   -6.8350   23.8550 C   0  0  0  0  0  3  0  0  0  0  0  0
  -21.1190   -6.0200   25.0020 C   0  0  0  0  0  3  0  0  0  0  0  0
  -21.4250   -4.6490   24.9160 C   0  0  0  0  0  0  0  0  0  0  0  0
  -21.8200   -4.0910   23.6870 C   0  0  0  0  0  3  0  0  0  0  0  0
  -21.9060   -4.9020   22.5420 C   0  0  0  0  0  0  0  0  0  0  0  0
  -22.2650   -4.3540   21.3560 F   0  0  0  0  0  0  0  0  0  0  0  0
  -21.3370   -3.8640   26.0150 F   0  0  0  0  0  0  0  0  0  0  0  0
  -22.7680  -13.6520   21.2380 C   0  0  0  0  0  0  0  0  0  0  0  0
  -22.0870  -12.9370   22.1280 N   0  0  0  0  0  0  0  0  0  0  0  0
  -22.3100  -14.6940   20.7720 O   0  0  0  0  0  0  0  0  0  0  0  0
  -22.4730  -12.0940   22.5270 H   0  0  0  0  0  0  0  0  0  0  0  0
  -21.1670  -13.2390   22.4150 H   0  0  0  0  0  0  0  0  0  0  0  0
  -25.3530  -15.3190   20.2930 N   0  0  0  0  0  0  0  0  0  0  0  0
  -24.6070  -15.9760   20.4880 H   0  0  0  0  0  0  0  0  0  0  0  0
  -26.1700  -15.7600   19.8900 H   0  0  0  0  0  0  0  0  0  0  0  0
  -28.9710  -23.7930   20.0270 C   0  0  0  0  0  3  0  0  0  0  0  0
  -28.5150  -23.5590   18.6440 N   0  0  0  0  0  4  0  0  0  0  0  0
  -27.6220  -23.0960   18.6350 H   0  0  0  0  0  0  0  0  0  0  0  0
  -29.1840  -23.0000   18.1450 H   0  0  0  0  0  0  0  0  0  0  0  0
  -28.4240  -24.4320   18.1550 H   0  0  0  0  0  0  0  0  0  0  0  0
  -28.1570  -25.0310   20.6990 C   0  0  0  0  0  2  0  0  0  0  0  0
  -28.3580  -26.4610   20.2610 O   0  0  0  0  0  0  0  0  0  0  0  0
  -24.6130  -31.9350   23.2350 C   0  0  0  0  0  0  0  0  0  0  0  0
  -27.2490  -27.3390   20.2340 C   0  0  0  0  0  0  0  0  0  0  0  0
  -23.4140  -30.5180   21.6080 C   0  0  0  0  0  3  0  0  0  0  0  0
  -24.8760  -28.9610   20.1920 C   0  0  0  0  0  0  0  0  0  0  0  0
  -25.9530  -30.8470   21.4180 C   0  0  0  0  0  2  0  0  0  0  0  0
  -26.0460  -29.4570   20.7870 C   0  0  0  0  0  0  0  0  0  0  0  0
  -27.2340  -28.6590   20.7950 C   0  0  0  0  0  3  0  0  0  0  0  0
  -26.0610  -26.9120   19.5980 C   0  0  0  0  0  3  0  0  0  0  0  0
  -24.8910  -27.6970   19.5840 C   0  0  0  0  0  3  0  0  0  0  0  0
  -23.6340  -29.8360   20.2310 C   0  0  0  0  0  2  0  0  0  0  0  0
  -24.6790  -31.1170   22.1430 N   0  0  0  0  0  0  0  0  0  0  0  0
  -23.5270  -32.2060   23.7710 O   0  0  0  0  0  0  0  0  0  0  0  0
  -22.7610  -29.5010   22.5750 C   0  0  0  0  0  0  0  0  0  0  0  0
  -21.4380  -29.2990   22.4450 N   0  0  0  0  0  0  0  0  0  0  0  0
  -23.4470  -28.8960   23.4040 O   0  0  0  0  0  0  0  0  0  0  0  0
  -20.9440  -29.8460   21.7530 H   0  0  0  0  0  0  0  0  0  0  0  0
  -18.0860  -28.0310   22.9160 C   0  0  0  0  0  0  0  0  0  0  0  0
  -20.6320  -28.3590   23.2230 C   0  0  0  0  0  3  0  0  0  0  0  0
  -20.7790  -26.9170   22.6820 C   0  0  0  0  0  2  0  0  0  0  0  0
  -19.7010  -26.5460   21.6580 C   0  0  0  0  0  2  0  0  0  0  0  0
  -18.3040  -26.6730   22.2750 C   0  0  0  0  0  2  0  0  0  0  0  0
  -19.1770  -28.8300   23.3490 C   0  0  0  0  0  0  0  0  0  0  0  0
  -18.9210  -30.1010   23.9060 C   0  0  0  0  0  3  0  0  0  0  0  0
  -17.6020  -30.5730   24.0440 C   0  0  0  0  0  3  0  0  0  0  0  0
  -16.5220  -29.7720   23.6300 C   0  0  0  0  0  3  0  0  0  0  0  0
  -16.7660  -28.5050   23.0690 C   0  0  0  0  0  3  0  0  0  0  0  0
  -25.8920  -32.5840   23.8470 C   0  0  0  0  0  3  0  0  0  0  0  0
  -26.4190  -31.8260   25.1270 C   0  0  1  0  0  0  0  0  0  0  0  0
  -25.3310  -31.5840   26.1990 C   0  0  0  0  0  1  0  0  0  0  0  0
  -27.0210  -30.4550   24.7410 C   0  0  0  0  0  1  0  0  0  0  0  0
  -27.5590  -32.6380   25.7860 C   0  0  0  0  0  1  0  0  0  0  0  0
  -25.5700  -33.9800   24.1750 N   0  0  0  0  0  0  0  0  0  0  0  0
  -25.8950  -35.0340   23.4140 C   0  0  0  0  0  0  0  0  0  0  0  0
  -26.5680  -34.9320   22.3830 O   0  0  0  0  0  0  0  0  0  0  0  0
  -24.9850  -34.1340   24.9830 H   0  0  0  0  0  0  0  0  0  0  0  0
  -24.1580  -36.8180   23.0560 C   0  0  0  0  0  1  0  0  0  0  0  0
  -25.4000  -36.4200   23.8710 C   0  0  0  0  0  3  0  0  0  0  0  0
  -27.5250  -37.3170   24.7100 C   0  0  0  0  0  1  0  0  0  0  0  0
  -26.4250  -37.4810   23.7640 N   0  0  0  0  0  0  0  0  0  0  0  0
  -26.0110  -38.3950   23.9190 H   0  0  0  0  0  0  0  0  0  0  0  0
  1  3  2  0
  2  9  1  0
  2  1  1  0
  4  2  1  0
  6  5  1  0
  7 10  2  0
  7  9  1  0
  8  5  2  0
  8 11  1  0
  9  6  2  0
 10  8  1  0
 12 20  1  0
 13 18  1  0
 14 15  1  0
 14 13  1  0
 16 15  1  0
 16 25  1  0
 16 17  1  0
 18 12  1  0
 18 17  1  0
 19 12  2  0
 20 10  1  0
 21 20  1  0
 22 23  2  0
 23 42  1  0
 24 23  1  0
 24 27  1  0
 25 26  1  0
 25 22  1  0
 26 24  2  0
 27 28  1  0
 28 29  2  0
 30 33  1  0
 30 29  1  0
 31 30  2  0
 32 31  1  0
 32 27  2  0
 33 34  1  0
 34 35  1  0
 35 36  2  0
 37 36  1  0
 37 41  1  0
 38 37  2  0
 39 34  2  0
 39 38  1  0
 40 39  1  0
 42 43  1  0
 43 46  1  0
 43 45  1  0
 44 42  2  0
 47 22  1  0
 47 48  1  0
 49 47  1  0
 50 55  1  0
 50  1  1  0
 51 50  1  0
 52 51  1  0
 53 51  1  0
 54 51  1  0
 56 55  1  0
 57 68  2  0
 58 56  1  0
 58 63  1  0
 59 67  1  0
 59 69  1  0
 60 66  1  0
 60 62  1  0
 61 67  1  0
 62 63  2  0
 62 61  1  0
 64 58  2  0
 65 64  1  0
 65 60  2  0
 66 59  1  0
 67 57  1  0
 69 71  2  0
 70 69  1  0
 72 70  1  0
 73 82  2  0
 73 78  1  0
 74 70  1  0
 74 78  1  0
 75 74  1  0
 76 77  1  0
 76 75  1  0
 77 73  1  0
 78 79  2  0
 79 80  1  0
 81 80  2  0
 82 81  1  0
 83 57  1  0
 83 88  1  0
 83 84  1  0
 84 87  1  1
 84 85  1  0
 86 84  1  0
 88 91  1  0
 89 93  1  0
 89 88  1  0
 90 89  2  0
 93 92  1  0
 95 93  1  0
 95 96  1  0
 95 94  1  0
M  ISO  4  12 100  20 100  55 101  56 101
M  END
>  <TORSDO>  (60) 
F 20

>  <SCORE>  (60) 
-13.201

>  <name>  (60) 
61

>  <ligand_id>  (60) 
61

>  <original_smiles>  (60) 
[H]c1c([H])c([H])c2c(c1[H])C([H])([H])C([H])([H])C([H])([H])C2([H])N([H])C(=O)C1([H])N(C(=O)C([H])(N([H])C(=O)C([H])(N([H])C([H])([H])[H])C([H])([H])[H])C(C([H])([H])[H])(C([H])([H])[H])C([H])([H])[H])C([H])([H])c2c([H])c(OC([H])([H])C([H])(C(=O)N([H])c3c([H])c([H])c(C([H])([H])[H])c(N([H])C(=O)N4C([H])([H])C([H])([H])C([H])([H])C([H])(n5nc(-c6c([H])c([H])c(Oc7c([H])c([H])c(F)c([H])c7F)c([H])c6[H])c(C(=O)N([H])[H])c5N([H])[H])C4([H])[H])c3[H])[N+]([H])([H])[H])c([H])c([H])c2C1([H])[H]

>  <smiles>  (60) 
[H]c1c([H])c([H])c2c(c1[H])C([H])([H])C([H])([H])C([H])([H])C2([H])N([H])C(=O)C1([H])N(C(=O)C([H])(N([H])C(=O)C([H])(N([H])C([H])([H])[H])C([H])([H])[H])C(C([H])([H])[H])(C([H])([H])[H])C([H])([H])[H])C([H])([H])c2c([H])c(OC([H])([H])C([H])(C(=O)N([H])c3c([H])c([H])c(C([H])([H])[H])c(N([H])C(=O)N4C([H])([H])C([H])([H])C([H])([H])C([H])(n5nc(-c6c([H])c([H])c(Oc7c([H])c([H])c(F)c([H])c7F)c([H])c6[H])c(C(=O)N([H])[H])c5N([H])[H])C4([H])[H])c3[H])[N+]([H])([H])[H])c([H])c([H])c2C1([H])[H]

$$$$
62:0:0
     RDKit          3D

 94103  0  0  1  0  0  0  0  0999 V2000
  -28.2400  -20.6920   19.0300 C   0  0  0  0  0  2  0  0  0  0  0  0
  -29.6370  -20.9790   19.5790 C   0  0  0  0  0  3  0  0  0  0  0  0
  -28.9750  -22.1920   20.4120 C   0  0  0  0  0  3  0  0  0  0  0  0
  -27.6860  -21.7340   19.8970 N   0  0  0  0  0  4  0  0  0  0  0  0
  -27.1370  -21.3380   20.6470 H   0  0  0  0  0  0  0  0  0  0  0  0
  -27.1730  -22.4290   19.3910 H   0  0  0  0  0  0  0  0  0  0  0  0
  -32.7560  -18.6680   19.8270 C   0  0  0  0  0  3  0  0  0  0  0  0
  -31.9280  -19.8090   19.7810 C   0  0  0  0  0  3  0  0  0  0  0  0
  -32.2130  -17.3890   20.0550 C   0  0  0  0  0  3  0  0  0  0  0  0
  -30.0070  -18.3870   20.2170 C   0  0  0  0  0  3  0  0  0  0  0  0
  -30.5260  -19.7090   19.9390 C   0  0  0  0  0  0  0  0  0  0  0  0
  -30.8170  -17.1910   20.2650 C   0  0  0  0  0  0  0  0  0  0  0  0
  -30.7700  -14.6030   20.3540 C   0  0  0  0  0  0  0  0  0  0  0  0
  -30.3160  -12.3700   19.3820 C   0  0  0  0  0  2  0  0  0  0  0  0
  -29.4340  -12.5780   18.1410 C   0  0  0  0  0  2  0  0  0  0  0  0
  -27.9510  -12.4700   18.5340 C   0  0  0  0  0  2  0  0  0  0  0  0
  -27.6000  -13.3010   19.8040 C   0  0  0  0  0  3  0  0  0  0  0  0
  -28.6720  -13.2340   20.9240 C   0  0  0  0  0  2  0  0  0  0  0  0
  -29.9860  -13.4740   20.3110 N   0  0  0  0  0  0  0  0  0  0  0  0
  -31.9570  -14.5130   20.0630 O   0  0  0  0  0  0  0  0  0  0  0  0
  -30.2060  -15.8530   20.4830 N   0  0  0  0  0  0  0  0  0  0  0  0
  -29.2170  -15.8400   20.6550 H   0  0  0  0  0  0  0  0  0  0  0  0
  -25.2010  -13.8590   20.5140 C   0  0  0  0  0  0  0  0  0  0  0  0
  -24.1430  -13.0780   20.8800 C   0  0  0  0  0  0  0  0  0  0  0  0
  -24.6180  -11.7280   20.8600 C   0  0  0  0  0  0  0  0  0  0  0  0
  -26.2580  -12.9940   20.2990 N   0  0  0  0  0  0  0  0  0  0  0  0
  -25.9130  -11.7080   20.5630 N   0  0  0  0  0  0  0  0  0  0  0  0
  -23.8960  -10.4590   21.0480 C   0  0  0  0  0  0  0  0  0  0  0  0
  -24.3250   -9.4960   21.9850 C   0  0  0  0  0  3  0  0  0  0  0  0
  -23.6020   -8.2990   22.1630 C   0  0  0  0  0  3  0  0  0  0  0  0
  -22.4340   -8.0530   21.4020 C   0  0  0  0  0  0  0  0  0  0  0  0
  -22.0210   -9.0100   20.4580 C   0  0  0  0  0  3  0  0  0  0  0  0
  -22.7460  -10.2010   20.2800 C   0  0  0  0  0  3  0  0  0  0  0  0
  -21.6850   -6.9060   21.4870 O   0  0  0  0  0  0  0  0  0  0  0  0
  -21.6300   -6.1600   22.6390 C   0  0  0  0  0  0  0  0  0  0  0  0
  -21.1870   -6.7120   23.8600 C   0  0  0  0  0  3  0  0  0  0  0  0
  -21.0830   -5.8950   25.0030 C   0  0  0  0  0  3  0  0  0  0  0  0
  -21.4090   -4.5290   24.9270 C   0  0  0  0  0  0  0  0  0  0  0  0
  -21.8400   -3.9770   23.7070 C   0  0  0  0  0  3  0  0  0  0  0  0
  -21.9430   -4.7890   22.5650 C   0  0  0  0  0  0  0  0  0  0  0  0
  -22.3410   -4.2470   21.3890 F   0  0  0  0  0  0  0  0  0  0  0  0
  -21.3000   -3.7430   26.0220 F   0  0  0  0  0  0  0  0  0  0  0  0
  -22.7390  -13.5400   21.1390 C   0  0  0  0  0  0  0  0  0  0  0  0
  -22.0110  -12.8420   22.0000 N   0  0  0  0  0  0  0  0  0  0  0  0
  -22.2950  -14.5600   20.6070 O   0  0  0  0  0  0  0  0  0  0  0  0
  -22.3800  -12.0150   22.4470 H   0  0  0  0  0  0  0  0  0  0  0  0
  -21.0700  -13.1400   22.2130 H   0  0  0  0  0  0  0  0  0  0  0  0
  -25.3590  -15.2300   20.3260 N   0  0  0  0  0  0  0  0  0  0  0  0
  -24.6020  -15.8930   20.4430 H   0  0  0  0  0  0  0  0  0  0  0  0
  -26.2010  -15.6610   19.9720 H   0  0  0  0  0  0  0  0  0  0  0  0
  -29.1930  -23.7620   20.0800 C   0  0  0  0  0  0  0  0  0  0  0  0
  -30.2990  -24.2210   19.7700 O   0  0  0  0  0  0  0  0  0  0  0  0
  -27.9840  -24.8280   20.1640 C   0  0  0  0  0  2  0  0  0  0  0  0
  -28.2760  -26.3220   20.2200 O   0  0  0  0  0  0  0  0  0  0  0  0
  -24.6120  -31.8930   23.2380 C   0  0  0  0  0  0  0  0  0  0  0  0
  -27.1880  -27.2390   20.1870 C   0  0  0  0  0  0  0  0  0  0  0  0
  -23.4020  -30.4930   21.6070 C   0  0  0  0  0  3  0  0  0  0  0  0
  -24.8410  -28.9170   20.1890 C   0  0  0  0  0  0  0  0  0  0  0  0
  -25.9580  -30.7630   21.4440 C   0  0  0  0  0  2  0  0  0  0  0  0
  -26.0230  -29.3860   20.7790 C   0  0  0  0  0  0  0  0  0  0  0  0
  -27.1980  -28.5610   20.7610 C   0  0  0  0  0  3  0  0  0  0  0  0
  -25.9780  -26.8530   19.5590 C   0  0  0  0  0  3  0  0  0  0  0  0
  -24.8270  -27.6630   19.5660 C   0  0  0  0  0  3  0  0  0  0  0  0
  -23.6150  -29.8090   20.2320 C   0  0  0  0  0  2  0  0  0  0  0  0
  -24.6750  -31.0760   22.1450 N   0  0  0  0  0  0  0  0  0  0  0  0
  -23.5300  -32.1860   23.7660 O   0  0  0  0  0  0  0  0  0  0  0  0
  -22.7260  -29.4940   22.5780 C   0  0  0  0  0  0  0  0  0  0  0  0
  -21.4000  -29.3230   22.4500 N   0  0  0  0  0  0  0  0  0  0  0  0
  -23.3980  -28.8720   23.4040 O   0  0  0  0  0  0  0  0  0  0  0  0
  -20.9190  -29.8690   21.7470 H   0  0  0  0  0  0  0  0  0  0  0  0
  -18.0110  -28.1470   22.9660 C   0  0  0  0  0  0  0  0  0  0  0  0
  -20.5720  -28.3960   23.2270 C   0  0  0  0  0  3  0  0  0  0  0  0
  -20.6660  -26.9610   22.6580 C   0  0  0  0  0  2  0  0  0  0  0  0
  -19.5600  -26.6380   21.6500 C   0  0  0  0  0  2  0  0  0  0  0  0
  -18.1810  -26.7940   22.2950 C   0  0  0  0  0  2  0  0  0  0  0  0
  -19.1350  -28.9070   23.3880 C   0  0  0  0  0  0  0  0  0  0  0  0
  -18.9240  -30.1720   23.9760 C   0  0  0  0  0  3  0  0  0  0  0  0
  -17.6210  -30.6770   24.1490 C   0  0  0  0  0  3  0  0  0  0  0  0
  -16.5110  -29.9160   23.7440 C   0  0  0  0  0  3  0  0  0  0  0  0
  -16.7070  -28.6540   23.1560 C   0  0  0  0  0  3  0  0  0  0  0  0
  -25.8990  -32.5220   23.8620 C   0  0  0  0  0  3  0  0  0  0  0  0
  -26.4050  -31.7600   25.1510 C   0  0  1  0  0  0  0  0  0  0  0  0
  -25.3060  -31.5370   26.2160 C   0  0  0  0  0  1  0  0  0  0  0  0
  -26.9880  -30.3740   24.7900 C   0  0  0  0  0  1  0  0  0  0  0  0
  -27.5540  -32.5590   25.8120 C   0  0  0  0  0  1  0  0  0  0  0  0
  -25.5900  -33.9230   24.1830 N   0  0  0  0  0  0  0  0  0  0  0  0
  -25.9200  -34.9770   23.4250 C   0  0  0  0  0  0  0  0  0  0  0  0
  -26.5850  -34.8680   22.3910 O   0  0  0  0  0  0  0  0  0  0  0  0
  -24.9870  -34.0800   24.9770 H   0  0  0  0  0  0  0  0  0  0  0  0
  -24.1890  -36.7810   23.0940 C   0  0  0  0  0  1  0  0  0  0  0  0
  -25.4380  -36.3660   23.8880 C   0  0  0  0  0  3  0  0  0  0  0  0
  -27.5790  -37.2490   24.7000 C   0  0  0  0  0  1  0  0  0  0  0  0
  -26.4680  -37.4180   23.7710 N   0  0  0  0  0  0  0  0  0  0  0  0
  -26.0630  -38.3360   23.9180 H   0  0  0  0  0  0  0  0  0  0  0  0
  1  2  1  0
  1  4  1  0
  2 11  1  0
  2  3  1  0
  3 51  1  0
  4  3  1  0
  4  5  1  0
  6  4  1  0
  7  9  1  0
  8  7  2  0
  8 11  1  0
  9 12  2  0
 10 12  1  0
 11 10  2  0
 12 21  1  0
 13 21  1  0
 14 19  1  0
 15 16  1  0
 15 14  1  0
 17 16  1  0
 17 26  1  0
 17 18  1  0
 19 13  1  0
 19 18  1  0
 20 13  2  0
 21 22  1  0
 23 24  2  0
 24 43  1  0
 25 24  1  0
 25 28  1  0
 26 23  1  0
 26 27  1  0
 27 25  2  0
 28 29  1  0
 29 30  2  0
 31 34  1  0
 31 30  1  0
 32 31  2  0
 33 32  1  0
 33 28  2  0
 34 35  1  0
 35 36  1  0
 36 37  2  0
 38 37  1  0
 38 42  1  0
 39 38  2  0
 40 35  2  0
 40 39  1  0
 41 40  1  0
 43 44  1  0
 44 47  1  0
 44 46  1  0
 45 43  2  0
 48 49  1  0
 48 23  1  0
 50 48  1  0
 51 53  1  0
 52 51  2  0
 53 54  1  0
 55 66  2  0
 56 54  1  0
 56 61  1  0
 57 65  1  0
 57 67  1  0
 58 64  1  0
 58 60  1  0
 59 65  1  0
 60 59  1  0
 61 60  2  0
 62 63  1  0
 62 56  2  0
 63 58  2  0
 64 57  1  0
 65 55  1  0
 67 69  2  0
 68 67  1  0
 70 68  1  0
 71 80  2  0
 71 76  1  0
 72 68  1  0
 72 76  1  0
 73 72  1  0
 74 75  1  0
 74 73  1  0
 75 71  1  0
 76 77  2  0
 77 78  1  0
 79 78  2  0
 80 79  1  0
 81 55  1  0
 81 86  1  0
 81 82  1  0
 82 85  1  1
 82 83  1  0
 84 82  1  0
 86 89  1  0
 87 91  1  0
 87 86  1  0
 88 87  2  0
 91 90  1  0
 93 91  1  0
 93 94  1  0
 93 92  1  0
M  ISO  4  13 100  21 100  53 101  54 101
M  END
>  <TORSDO>  (61) 
F 19

>  <SCORE>  (61) 
-14.414

>  <name>  (61) 
62

>  <ligand_id>  (61) 
62

>  <original_smiles>  (61) 
[H]c1c([H])c([H])c2c(c1[H])C([H])([H])C([H])([H])C([H])([H])C2([H])N([H])C(=O)C1([H])N(C(=O)C([H])(N([H])C(=O)C([H])(N([H])C([H])([H])[H])C([H])([H])[H])C(C([H])([H])[H])(C([H])([H])[H])C([H])([H])[H])C([H])([H])c2c([H])c(OC([H])([H])C(=O)C3([H])C([H])(c4c([H])c([H])c([H])c(N([H])C(=O)N5C([H])([H])C([H])([H])C([H])([H])C([H])(n6nc(-c7c([H])c([H])c(Oc8c([H])c([H])c(F)c([H])c8F)c([H])c7[H])c(C(=O)N([H])[H])c6N([H])[H])C5([H])[H])c4[H])C([H])([H])[N+]3([H])[H])c([H])c([H])c2C1([H])[H]

>  <smiles>  (61) 
[H]c1c([H])c([H])c2c(c1[H])C([H])([H])C([H])([H])C([H])([H])C2([H])N([H])C(=O)C1([H])N(C(=O)C([H])(N([H])C(=O)C([H])(N([H])C([H])([H])[H])C([H])([H])[H])C(C([H])([H])[H])(C([H])([H])[H])C([H])([H])[H])C([H])([H])c2c([H])c(OC([H])([H])C(=O)C3([H])C([H])(c4c([H])c([H])c([H])c(N([H])C(=O)N5C([H])([H])C([H])([H])C([H])([H])C([H])(n6nc(-c7c([H])c([H])c(Oc8c([H])c([H])c(F)c([H])c8F)c([H])c7[H])c(C(=O)N([H])[H])c6N([H])[H])C5([H])[H])c4[H])C([H])([H])[N+]3([H])[H])c([H])c([H])c2C1([H])[H]

$$$$
63:0:0
     RDKit          3D

 92100  0  0  1  0  0  0  0  0999 V2000
  -28.5770  -22.7950   18.8910 C   0  0  0  0  0  3  0  0  0  0  0  0
  -29.2740  -23.5030   21.0590 C   0  0  0  0  0  3  0  0  0  0  0  0
  -28.7760  -23.8840   19.7900 C   0  0  0  0  0  0  0  0  0  0  0  0
  -28.8600  -21.4240   19.1960 C   0  0  0  0  0  0  0  0  0  0  0  0
  -29.5850  -22.1370   21.3780 C   0  0  0  0  0  0  0  0  0  0  0  0
  -29.4000  -21.0460   20.4650 C   0  0  0  0  0  0  0  0  0  0  0  0
  -28.5860  -20.4140   18.0960 C   0  0  0  0  0  1  0  0  0  0  0  0
  -30.1480  -21.8340   22.7540 C   0  0  0  0  0  1  0  0  0  0  0  0
  -28.4620  -25.3280   19.3020 C   0  0  0  0  0  0  0  0  0  0  0  0
  -28.3010  -25.5330   18.0930 O   0  0  0  0  0  0  0  0  0  0  0  0
  -28.2910  -26.4070   20.2290 O   0  0  0  0  0  0  0  0  0  0  0  0
  -24.6050  -31.8740   23.2310 C   0  0  0  0  0  0  0  0  0  0  0  0
  -27.2020  -27.3040   20.1500 C   0  0  0  0  0  0  0  0  0  0  0  0
  -23.3940  -30.4750   21.6000 C   0  0  0  0  0  3  0  0  0  0  0  0
  -24.8360  -28.9310   20.1630 C   0  0  0  0  0  0  0  0  0  0  0  0
  -25.9350  -30.7910   21.4030 C   0  0  0  0  0  2  0  0  0  0  0  0
  -26.0130  -29.4130   20.7510 C   0  0  0  0  0  0  0  0  0  0  0  0
  -27.1970  -28.6110   20.7390 C   0  0  0  0  0  3  0  0  0  0  0  0
  -25.9880  -26.8790   19.5530 C   0  0  0  0  0  3  0  0  0  0  0  0
  -24.8270  -27.6690   19.5550 C   0  0  0  0  0  3  0  0  0  0  0  0
  -23.6000  -29.8050   20.2190 C   0  0  0  0  0  2  0  0  0  0  0  0
  -24.6640  -31.0630   22.1340 N   0  0  0  0  0  0  0  0  0  0  0  0
  -23.5250  -32.1510   23.7700 O   0  0  0  0  0  0  0  0  0  0  0  0
  -22.7370  -29.4560   22.5630 C   0  0  0  0  0  0  0  0  0  0  0  0
  -21.4100  -29.2780   22.4430 N   0  0  0  0  0  0  0  0  0  0  0  0
  -23.4200  -28.8310   23.3770 O   0  0  0  0  0  0  0  0  0  0  0  0
  -20.9180  -29.8340   21.7580 H   0  0  0  0  0  0  0  0  0  0  0  0
  -18.0360  -28.0780   22.9600 C   0  0  0  0  0  0  0  0  0  0  0  0
  -20.5950  -28.3430   23.2200 C   0  0  0  0  0  3  0  0  0  0  0  0
  -20.6970  -26.9090   22.6480 C   0  0  0  0  0  2  0  0  0  0  0  0
  -19.5920  -26.5810   21.6400 C   0  0  0  0  0  2  0  0  0  0  0  0
  -18.2120  -26.7270   22.2880 C   0  0  0  0  0  2  0  0  0  0  0  0
  -19.1550  -28.8440   23.3830 C   0  0  0  0  0  0  0  0  0  0  0  0
  -18.9360  -30.1080   23.9710 C   0  0  0  0  0  3  0  0  0  0  0  0
  -17.6310  -30.6080   24.1400 C   0  0  0  0  0  3  0  0  0  0  0  0
  -16.5260  -29.8400   23.7320 C   0  0  0  0  0  3  0  0  0  0  0  0
  -16.7300  -28.5760   23.1480 C   0  0  0  0  0  3  0  0  0  0  0  0
  -25.8910  -32.5080   23.8450 C   0  0  0  0  0  3  0  0  0  0  0  0
  -26.4140  -31.7380   25.1200 C   0  0  1  0  0  0  0  0  0  0  0  0
  -25.3270  -31.5020   26.1940 C   0  0  0  0  0  1  0  0  0  0  0  0
  -26.9950  -30.3600   24.7270 C   0  0  0  0  0  1  0  0  0  0  0  0
  -27.5690  -32.5320   25.7730 C   0  0  0  0  0  1  0  0  0  0  0  0
  -25.5810  -33.9070   24.1780 N   0  0  0  0  0  0  0  0  0  0  0  0
  -25.9100  -34.9600   23.4190 C   0  0  0  0  0  0  0  0  0  0  0  0
  -26.5780  -34.8580   22.3860 O   0  0  0  0  0  0  0  0  0  0  0  0
  -24.9880  -34.0600   24.9800 H   0  0  0  0  0  0  0  0  0  0  0  0
  -24.1850  -36.7570   23.0680 C   0  0  0  0  0  1  0  0  0  0  0  0
  -25.4250  -36.3480   23.8800 C   0  0  0  0  0  3  0  0  0  0  0  0
  -27.5600  -37.2270   24.7150 C   0  0  0  0  0  1  0  0  0  0  0  0
  -26.4590  -37.3990   23.7710 N   0  0  0  0  0  0  0  0  0  0  0  0
  -26.0540  -38.3200   23.9200 H   0  0  0  0  0  0  0  0  0  0  0  0
  -29.8130  -19.7550   20.9060 O   0  0  0  0  0  0  0  0  0  0  0  0
  -29.5080  -18.4360   20.3110 C   0  0  0  0  0  2  0  0  0  0  0  0
  -30.2760  -17.2090   20.9980 C   0  0  0  0  0  2  0  0  0  0  0  0
  -30.5840  -14.6780   20.4380 C   0  0  0  0  0  0  0  0  0  0  0  0
  -30.3670  -12.4420   19.3640 C   0  0  0  0  0  2  0  0  0  0  0  0
  -29.4230  -12.5460   18.1470 C   0  0  0  0  0  2  0  0  0  0  0  0
  -27.9540  -12.3690   18.5810 C   0  0  0  0  0  2  0  0  0  0  0  0
  -27.5850  -13.2350   19.8140 C   0  0  0  0  0  3  0  0  0  0  0  0
  -28.6460  -13.1180   20.9300 C   0  0  0  0  0  2  0  0  0  0  0  0
  -29.9450  -13.4690   20.3380 N   0  0  0  0  0  0  0  0  0  0  0  0
  -31.7610  -14.8050   20.0950 O   0  0  0  0  0  0  0  0  0  0  0  0
  -29.8270  -15.7810   20.7510 N   0  0  0  0  0  0  0  0  0  0  0  0
  -28.8540  -15.5890   20.9400 H   0  0  0  0  0  0  0  0  0  0  0  0
  -25.1880  -13.8070   20.5360 C   0  0  0  0  0  0  0  0  0  0  0  0
  -24.1290  -13.0220   20.9050 C   0  0  0  0  0  0  0  0  0  0  0  0
  -24.6060  -11.6750   20.8770 C   0  0  0  0  0  0  0  0  0  0  0  0
  -26.2410  -12.9370   20.3030 N   0  0  0  0  0  0  0  0  0  0  0  0
  -25.8970  -11.6510   20.5700 N   0  0  0  0  0  0  0  0  0  0  0  0
  -23.8910  -10.4060   21.0660 C   0  0  0  0  0  0  0  0  0  0  0  0
  -24.3380   -9.4390   21.9920 C   0  0  0  0  0  3  0  0  0  0  0  0
  -23.6230   -8.2340   22.1700 C   0  0  0  0  0  3  0  0  0  0  0  0
  -22.4480   -7.9890   21.4200 C   0  0  0  0  0  0  0  0  0  0  0  0
  -22.0220   -8.9450   20.4820 C   0  0  0  0  0  3  0  0  0  0  0  0
  -22.7370  -10.1410   20.3030 C   0  0  0  0  0  3  0  0  0  0  0  0
  -21.7050   -6.8370   21.5070 O   0  0  0  0  0  0  0  0  0  0  0  0
  -21.6750   -6.0840   22.6540 C   0  0  0  0  0  0  0  0  0  0  0  0
  -21.2600   -6.6250   23.8900 C   0  0  0  0  0  3  0  0  0  0  0  0
  -21.1780   -5.7990   25.0290 C   0  0  0  0  0  3  0  0  0  0  0  0
  -21.5010   -4.4330   24.9320 C   0  0  0  0  0  0  0  0  0  0  0  0
  -21.9100   -3.8910   23.7010 C   0  0  0  0  0  3  0  0  0  0  0  0
  -21.9940   -4.7140   22.5640 C   0  0  0  0  0  0  0  0  0  0  0  0
  -22.3680   -4.1820   21.3750 F   0  0  0  0  0  0  0  0  0  0  0  0
  -21.4160   -3.6360   26.0230 F   0  0  0  0  0  0  0  0  0  0  0  0
  -22.7270  -13.4860   21.1740 C   0  0  0  0  0  0  0  0  0  0  0  0
  -22.0040  -12.7820   22.0380 N   0  0  0  0  0  0  0  0  0  0  0  0
  -22.2800  -14.5060   20.6530 O   0  0  0  0  0  0  0  0  0  0  0  0
  -22.3780  -11.9560   22.4810 H   0  0  0  0  0  0  0  0  0  0  0  0
  -21.0630  -13.0740   22.2610 H   0  0  0  0  0  0  0  0  0  0  0  0
  -25.3370  -15.1790   20.3570 N   0  0  0  0  0  0  0  0  0  0  0  0
  -24.5600  -15.8220   20.4570 H   0  0  0  0  0  0  0  0  0  0  0  0
  -26.1730  -15.6240   20.0000 H   0  0  0  0  0  0  0  0  0  0  0  0
  1  4  2  0
  1  3  1  0
  2  5  1  0
  3  2  2  0
  4  6  1  0
  5  8  1  0
  6 52  1  0
  6  5  2  0
  7  4  1  0
  9  3  1  0
  9 11  1  0
 10  9  2  0
 12 23  2  0
 13 11  1  0
 13 18  1  0
 14 22  1  0
 14 24  1  0
 15 21  1  0
 15 17  1  0
 16 22  1  0
 17 16  1  0
 18 17  2  0
 19 20  1  0
 19 13  2  0
 20 15  2  0
 21 14  1  0
 22 12  1  0
 24 26  2  0
 25 24  1  0
 27 25  1  0
 28 37  2  0
 28 33  1  0
 29 25  1  0
 29 33  1  0
 30 29  1  0
 31 32  1  0
 31 30  1  0
 32 28  1  0
 33 34  2  0
 34 35  1  0
 36 35  2  0
 37 36  1  0
 38 12  1  0
 38 43  1  0
 38 39  1  0
 39 42  1  1
 39 40  1  0
 41 39  1  0
 43 46  1  0
 44 48  1  0
 44 43  1  0
 45 44  2  0
 48 47  1  0
 50 48  1  0
 50 51  1  0
 50 49  1  0
 53 52  1  0
 53 54  1  0
 55 63  1  0
 56 61  1  0
 57 58  1  0
 57 56  1  0
 59 58  1  0
 59 68  1  0
 59 60  1  0
 61 55  1  0
 61 60  1  0
 62 55  2  0
 63 64  1  0
 63 54  1  0
 65 66  2  0
 66 85  1  0
 67 66  1  0
 67 70  1  0
 68 65  1  0
 68 69  1  0
 69 67  2  0
 70 71  1  0
 71 72  2  0
 73 76  1  0
 73 72  1  0
 74 73  2  0
 75 74  1  0
 75 70  2  0
 76 77  1  0
 77 78  1  0
 78 79  2  0
 80 79  1  0
 80 84  1  0
 81 80  2  0
 82 77  2  0
 82 81  1  0
 83 82  1  0
 85 86  1  0
 86 89  1  0
 86 88  1  0
 87 85  2  0
 90 91  1  0
 90 65  1  0
 92 90  1  0
M  ISO  4   9 101  11 101  55 100  63 100
M  END
>  <TORSDO>  (62) 
F 20

>  <SCORE>  (62) 
-14.058

>  <name>  (62) 
63

>  <ligand_id>  (62) 
63

>  <original_smiles>  (62) 
[H]c1c([H])c([H])c2c(c1[H])C([H])([H])C([H])([H])C([H])([H])C2([H])N([H])C(=O)C1([H])N(C(=O)C([H])(N([H])C(=O)C([H])(N([H])C([H])([H])[H])C([H])([H])[H])C(C([H])([H])[H])(C([H])([H])[H])C([H])([H])[H])C([H])([H])c2c([H])c(OC(=O)c3c([H])c(C([H])([H])[H])c(OC([H])([H])C([H])([H])N([H])C(=O)N4C([H])([H])C([H])([H])C([H])([H])C([H])(n5nc(-c6c([H])c([H])c(Oc7c([H])c([H])c(F)c([H])c7F)c([H])c6[H])c(C(=O)N([H])[H])c5N([H])[H])C4([H])[H])c(C([H])([H])[H])c3[H])c([H])c([H])c2C1([H])[H]

>  <smiles>  (62) 
[H]c1c([H])c([H])c2c(c1[H])C([H])([H])C([H])([H])C([H])([H])C2([H])N([H])C(=O)C1([H])N(C(=O)C([H])(N([H])C(=O)C([H])(N([H])C([H])([H])[H])C([H])([H])[H])C(C([H])([H])[H])(C([H])([H])[H])C([H])([H])[H])C([H])([H])c2c([H])c(OC(=O)c3c([H])c(C([H])([H])[H])c(OC([H])([H])C([H])([H])N([H])C(=O)N4C([H])([H])C([H])([H])C([H])([H])C([H])(n5nc(-c6c([H])c([H])c(Oc7c([H])c([H])c(F)c([H])c7F)c([H])c6[H])c(C(=O)N([H])[H])c5N([H])[H])C4([H])[H])c(C([H])([H])[H])c3[H])c([H])c([H])c2C1([H])[H]

$$$$
64:0:0
     RDKit          3D

 94102  0  0  1  0  0  0  0  0999 V2000
  -29.8000  -20.1460   22.0050 C   0  0  0  0  0  2  0  0  0  0  0  0
  -29.5630  -20.6990   20.6100 C   0  0  0  0  0  3  0  0  0  0  0  0
  -29.3900  -19.1870   20.9110 C   0  0  0  0  0  3  0  0  0  0  0  0
  -28.3970  -21.6820   20.3730 C   0  0  0  0  0  2  0  0  0  0  0  0
  -28.2410  -24.2280   20.3150 C   0  0  0  0  0  0  0  0  0  0  0  0
  -28.7520  -23.0420   19.9060 N   0  0  0  0  0  0  0  0  0  0  0  0
  -27.4730  -24.3090   21.2750 O   0  0  0  0  0  0  0  0  0  0  0  0
  -29.3800  -23.0880   19.1120 H   0  0  0  0  0  0  0  0  0  0  0  0
  -28.6310  -25.4960   19.5010 C   0  0  0  0  0  2  0  0  0  0  0  0
  -28.4570  -26.7460   20.2140 O   0  0  0  0  0  0  0  0  0  0  0  0
  -24.6020  -31.9060   23.2470 C   0  0  0  0  0  0  0  0  0  0  0  0
  -27.2700  -27.4600   20.1610 C   0  0  0  0  0  0  0  0  0  0  0  0
  -23.4080  -30.5080   21.5910 C   0  0  0  0  0  3  0  0  0  0  0  0
  -24.8720  -28.9850   20.1610 C   0  0  0  0  0  0  0  0  0  0  0  0
  -25.9350  -30.8720   21.4090 C   0  0  0  0  0  2  0  0  0  0  0  0
  -26.0250  -29.5000   20.7630 C   0  0  0  0  0  0  0  0  0  0  0  0
  -27.2230  -28.7450   20.7600 C   0  0  0  0  0  3  0  0  0  0  0  0
  -26.0950  -26.9670   19.5470 C   0  0  0  0  0  3  0  0  0  0  0  0
  -24.9050  -27.7190   19.5490 C   0  0  0  0  0  3  0  0  0  0  0  0
  -23.6290  -29.8410   20.2050 C   0  0  0  0  0  2  0  0  0  0  0  0
  -24.6660  -31.1130   22.1410 N   0  0  0  0  0  0  0  0  0  0  0  0
  -23.5180  -32.1720   23.7850 O   0  0  0  0  0  0  0  0  0  0  0  0
  -22.7560  -29.4790   22.5440 C   0  0  0  0  0  0  0  0  0  0  0  0
  -21.4330  -29.2930   22.4140 N   0  0  0  0  0  0  0  0  0  0  0  0
  -23.4390  -28.8530   23.3580 O   0  0  0  0  0  0  0  0  0  0  0  0
  -20.9440  -29.8570   21.7330 H   0  0  0  0  0  0  0  0  0  0  0  0
  -18.0600  -28.0820   22.8960 C   0  0  0  0  0  0  0  0  0  0  0  0
  -20.6170  -28.3490   23.1790 C   0  0  0  0  0  3  0  0  0  0  0  0
  -20.7250  -26.9190   22.6000 C   0  0  0  0  0  2  0  0  0  0  0  0
  -19.6300  -26.5950   21.5800 C   0  0  0  0  0  2  0  0  0  0  0  0
  -18.2430  -26.7350   22.2170 C   0  0  0  0  0  2  0  0  0  0  0  0
  -19.1740  -28.8460   23.3310 C   0  0  0  0  0  0  0  0  0  0  0  0
  -18.9470  -30.1070   23.9240 C   0  0  0  0  0  3  0  0  0  0  0  0
  -17.6390  -30.6010   24.0890 C   0  0  0  0  0  3  0  0  0  0  0  0
  -16.5400  -29.8330   23.6680 C   0  0  0  0  0  3  0  0  0  0  0  0
  -16.7510  -28.5750   23.0750 C   0  0  0  0  0  3  0  0  0  0  0  0
  -25.8830  -32.5410   23.8740 C   0  0  0  0  0  3  0  0  0  0  0  0
  -25.5730  -33.9410   24.1980 N   0  0  0  0  0  0  0  0  0  0  0  0
  -25.9120  -34.9910   23.4360 C   0  0  0  0  0  0  0  0  0  0  0  0
  -26.5890  -34.8820   22.4100 O   0  0  0  0  0  0  0  0  0  0  0  0
  -24.9820  -34.1000   24.9990 H   0  0  0  0  0  0  0  0  0  0  0  0
  -24.1890  -36.7850   23.0560 C   0  0  0  0  0  1  0  0  0  0  0  0
  -25.4210  -36.3810   23.8830 C   0  0  0  0  0  3  0  0  0  0  0  0
  -27.5470  -37.2640   24.7340 C   0  0  0  0  0  1  0  0  0  0  0  0
  -26.4560  -37.4310   23.7780 N   0  0  0  0  0  0  0  0  0  0  0  0
  -26.0510  -38.3520   23.9180 H   0  0  0  0  0  0  0  0  0  0  0  0
  -26.3930  -31.7760   25.1570 C   0  0  1  0  0  0  0  0  0  0  0  0
  -25.2950  -31.5430   26.2190 C   0  0  0  0  0  1  0  0  0  0  0  0
  -26.9810  -30.3990   24.7700 C   0  0  0  0  0  1  0  0  0  0  0  0
  -27.5390  -32.5750   25.8230 C   0  0  0  0  0  1  0  0  0  0  0  0
  -30.3380  -18.0510   20.4210 C   0  0  0  0  0  3  0  0  0  0  0  0
  -31.6460  -18.6040   20.0250 N   0  0  0  0  0  4  0  0  0  0  0  0
  -32.1250  -19.0000   20.8150 H   0  0  0  0  0  0  0  0  0  0  0  0
  -31.5280  -19.3140   19.3240 H   0  0  0  0  0  0  0  0  0  0  0  0
  -32.2280  -17.8830   19.6360 H   0  0  0  0  0  0  0  0  0  0  0  0
  -30.5500  -16.8920   21.4610 C   0  0  0  0  0  2  0  0  0  0  0  0
  -30.7500  -14.5760   20.4430 C   0  0  0  0  0  0  0  0  0  0  0  0
  -30.4900  -12.4200   19.2520 C   0  0  0  0  0  2  0  0  0  0  0  0
  -29.5520  -12.6080   18.0410 C   0  0  0  0  0  2  0  0  0  0  0  0
  -28.0750  -12.4590   18.4570 C   0  0  0  0  0  2  0  0  0  0  0  0
  -27.7220  -13.2920   19.7190 C   0  0  0  0  0  3  0  0  0  0  0  0
  -28.7660  -13.0670   20.8330 C   0  0  0  0  0  2  0  0  0  0  0  0
  -30.0910  -13.3950   20.2810 N   0  0  0  0  0  0  0  0  0  0  0  0
  -31.8700  -14.7930   19.9710 O   0  0  0  0  0  0  0  0  0  0  0  0
  -30.0560  -15.5540   21.0660 N   0  0  0  0  0  0  0  0  0  0  0  0
  -29.1310  -15.3020   21.3800 H   0  0  0  0  0  0  0  0  0  0  0  0
  -25.3140  -13.8940   20.4020 C   0  0  0  0  0  0  0  0  0  0  0  0
  -24.2490  -13.1200   20.7760 C   0  0  0  0  0  0  0  0  0  0  0  0
  -24.7200  -11.7710   20.7690 C   0  0  0  0  0  0  0  0  0  0  0  0
  -26.3660  -13.0160   20.1890 N   0  0  0  0  0  0  0  0  0  0  0  0
  -26.0120  -11.7360   20.4700 N   0  0  0  0  0  0  0  0  0  0  0  0
  -24.0020  -10.5070   20.9730 C   0  0  0  0  0  0  0  0  0  0  0  0
  -24.4330   -9.5570   21.9240 C   0  0  0  0  0  3  0  0  0  0  0  0
  -23.7150   -8.3570   22.1120 C   0  0  0  0  0  3  0  0  0  0  0  0
  -22.5520   -8.0990   21.3470 C   0  0  0  0  0  0  0  0  0  0  0  0
  -22.1420   -9.0380   20.3850 C   0  0  0  0  0  3  0  0  0  0  0  0
  -22.8620  -10.2290   20.1950 C   0  0  0  0  0  3  0  0  0  0  0  0
  -21.8050   -6.9500   21.4440 O   0  0  0  0  0  0  0  0  0  0  0  0
  -21.7470   -6.2240   22.6060 C   0  0  0  0  0  0  0  0  0  0  0  0
  -21.2990   -6.7940   23.8180 C   0  0  0  0  0  3  0  0  0  0  0  0
  -21.1870   -5.9950   24.9740 C   0  0  0  0  0  3  0  0  0  0  0  0
  -21.5140   -4.6280   24.9180 C   0  0  0  0  0  0  0  0  0  0  0  0
  -21.9570   -4.0570   23.7120 C   0  0  0  0  0  3  0  0  0  0  0  0
  -22.0680   -4.8530   22.5590 C   0  0  0  0  0  0  0  0  0  0  0  0
  -22.4740   -4.2940   21.3920 F   0  0  0  0  0  0  0  0  0  0  0  0
  -21.4010   -3.8580   26.0260 F   0  0  0  0  0  0  0  0  0  0  0  0
  -22.8460  -13.5920   21.0300 C   0  0  0  0  0  0  0  0  0  0  0  0
  -22.1130  -12.9030   21.8960 N   0  0  0  0  0  0  0  0  0  0  0  0
  -22.4070  -14.6070   20.4910 O   0  0  0  0  0  0  0  0  0  0  0  0
  -22.4800  -12.0840   22.3580 H   0  0  0  0  0  0  0  0  0  0  0  0
  -21.1690  -13.1990   22.1010 H   0  0  0  0  0  0  0  0  0  0  0  0
  -25.4690  -15.2630   20.2020 N   0  0  0  0  0  0  0  0  0  0  0  0
  -24.6920  -15.9090   20.2940 H   0  0  0  0  0  0  0  0  0  0  0  0
  -26.3070  -15.7000   19.8390 H   0  0  0  0  0  0  0  0  0  0  0  0
  2  4  1  0
  2  3  1  0
  2  1  1  0
  3 51  1  0
  3  1  1  0
  5  7  2  0
  6  5  1  0
  6  4  1  0
  8  6  1  0
  9 10  1  0
  9  5  1  0
 11 22  2  0
 12 10  1  0
 12 17  1  0
 13 21  1  0
 13 23  1  0
 14 20  1  0
 14 16  1  0
 15 21  1  0
 16 15  1  0
 17 16  2  0
 18 19  1  0
 18 12  2  0
 19 14  2  0
 20 13  1  0
 21 11  1  0
 23 25  2  0
 24 23  1  0
 26 24  1  0
 27 36  2  0
 27 32  1  0
 28 24  1  0
 28 32  1  0
 29 28  1  0
 30 31  1  0
 30 29  1  0
 31 27  1  0
 32 33  2  0
 33 34  1  0
 35 34  2  0
 36 35  1  0
 37 11  1  0
 37 38  1  0
 37 47  1  0
 38 41  1  0
 39 43  1  0
 39 38  1  0
 40 39  2  0
 43 42  1  0
 45 43  1  0
 45 46  1  0
 45 44  1  0
 47 50  1  1
 47 48  1  0
 49 47  1  0
 51 56  1  0
 52 51  1  0
 52 53  1  0
 54 52  1  0
 55 52  1  0
 57 65  1  0
 58 63  1  0
 59 60  1  0
 59 58  1  0
 61 60  1  0
 61 70  1  0
 61 62  1  0
 63 57  1  0
 63 62  1  0
 64 57  2  0
 65 66  1  0
 65 56  1  0
 67 68  2  0
 68 87  1  0
 69 68  1  0
 69 72  1  0
 70 67  1  0
 70 71  1  0
 71 69  2  0
 72 73  1  0
 73 74  2  0
 75 78  1  0
 75 74  1  0
 76 75  2  0
 77 76  1  0
 77 72  2  0
 78 79  1  0
 79 80  1  0
 80 81  2  0
 82 81  1  0
 82 86  1  0
 83 82  2  0
 84 79  2  0
 84 83  1  0
 85 84  1  0
 87 88  1  0
 88 91  1  0
 88 90  1  0
 89 87  2  0
 92 93  1  0
 92 67  1  0
 94 92  1  0
M  ISO  4   9 101  10 101  57 100  65 100
M  END
>  <TORSDO>  (63) 
F 22

>  <SCORE>  (63) 
-12.965

>  <name>  (63) 
64

>  <ligand_id>  (63) 
64

>  <original_smiles>  (63) 
[H]c1c([H])c([H])c2c(c1[H])C([H])([H])C([H])([H])C([H])([H])C2([H])N([H])C(=O)C1([H])N(C(=O)C([H])(N([H])C(=O)C([H])(N([H])C([H])([H])[H])C([H])([H])[H])C(C([H])([H])[H])(C([H])([H])[H])C([H])([H])[H])C([H])([H])c2c([H])c(OC([H])([H])C(=O)N([H])C([H])([H])C3([H])C([H])([H])C3([H])C([H])(C([H])([H])N([H])C(=O)N3C([H])([H])C([H])([H])C([H])([H])C([H])(n4nc(-c5c([H])c([H])c(Oc6c([H])c([H])c(F)c([H])c6F)c([H])c5[H])c(C(=O)N([H])[H])c4N([H])[H])C3([H])[H])[N+]([H])([H])[H])c([H])c([H])c2C1([H])[H]

>  <smiles>  (63) 
[H]c1c([H])c([H])c2c(c1[H])C([H])([H])C([H])([H])C([H])([H])C2([H])N([H])C(=O)C1([H])N(C(=O)C([H])(N([H])C(=O)C([H])(N([H])C([H])([H])[H])C([H])([H])[H])C(C([H])([H])[H])(C([H])([H])[H])C([H])([H])[H])C([H])([H])c2c([H])c(OC([H])([H])C(=O)N([H])C([H])([H])C3([H])C([H])([H])C3([H])C([H])(C([H])([H])N([H])C(=O)N3C([H])([H])C([H])([H])C([H])([H])C([H])(n4nc(-c5c([H])c([H])c(Oc6c([H])c([H])c(F)c([H])c6F)c([H])c5[H])c(C(=O)N([H])[H])c4N([H])[H])C3([H])[H])[N+]([H])([H])[H])c([H])c([H])c2C1([H])[H]

$$$$
65:0:0
     RDKit          3D

 93101  0  0  1  0  0  0  0  0999 V2000
  -29.1140  -20.4870   20.7940 C   0  0  0  0  0  0  0  0  0  0  0  0
  -29.5340  -21.7710   20.6560 N   0  0  0  0  0  0  0  0  0  0  0  0
  -27.9370  -20.1900   20.5570 O   0  0  0  0  0  0  0  0  0  0  0  0
  -30.5090  -21.9830   20.8220 H   0  0  0  0  0  0  0  0  0  0  0  0
  -31.9230  -18.4320   22.5250 C   0  0  0  0  0  3  0  0  0  0  0  0
  -31.5630  -17.1230   22.1490 C   0  0  0  0  0  3  0  0  0  0  0  0
  -29.7370  -18.0300   20.8380 C   0  0  0  0  0  3  0  0  0  0  0  0
  -30.0680  -19.3690   21.2140 C   0  0  0  0  0  0  0  0  0  0  0  0
  -31.1910  -19.5580   22.0790 C   0  0  0  0  0  0  0  0  0  0  0  0
  -30.4700  -16.9010   21.2870 C   0  0  0  0  0  0  0  0  0  0  0  0
  -31.6380  -20.9270   22.5830 C   0  0  0  0  0  1  0  0  0  0  0  0
  -30.6020  -14.6490   20.1910 C   0  0  0  0  0  0  0  0  0  0  0  0
  -30.2440  -12.5310   18.9380 C   0  0  0  0  0  2  0  0  0  0  0  0
  -29.2240  -12.7380   17.7960 C   0  0  0  0  0  2  0  0  0  0  0  0
  -27.7760  -12.5700   18.3060 C   0  0  0  0  0  2  0  0  0  0  0  0
  -27.5060  -13.3680   19.6090 C   0  0  0  0  0  3  0  0  0  0  0  0
  -28.6250  -13.1240   20.6470 C   0  0  0  0  0  2  0  0  0  0  0  0
  -29.9160  -13.4750   20.0240 N   0  0  0  0  0  0  0  0  0  0  0  0
  -31.6500  -14.8890   19.5820 O   0  0  0  0  0  0  0  0  0  0  0  0
  -30.0210  -15.5690   20.9960 N   0  0  0  0  0  0  0  0  0  0  0  0
  -29.1350  -15.2950   21.3960 H   0  0  0  0  0  0  0  0  0  0  0  0
  -25.1510  -13.9280   20.4800 C   0  0  0  0  0  0  0  0  0  0  0  0
  -24.1080  -13.1370   20.8800 C   0  0  0  0  0  0  0  0  0  0  0  0
  -24.5680  -11.7890   20.7640 C   0  0  0  0  0  0  0  0  0  0  0  0
  -26.1850  -13.0630   20.1530 N   0  0  0  0  0  0  0  0  0  0  0  0
  -25.8380  -11.7680   20.3730 N   0  0  0  0  0  0  0  0  0  0  0  0
  -23.8560  -10.5180   20.9530 C   0  0  0  0  0  0  0  0  0  0  0  0
  -24.2820   -9.5680   21.9060 C   0  0  0  0  0  3  0  0  0  0  0  0
  -23.5730   -8.3600   22.0800 C   0  0  0  0  0  3  0  0  0  0  0  0
  -22.4220   -8.0940   21.3010 C   0  0  0  0  0  0  0  0  0  0  0  0
  -22.0150   -9.0330   20.3370 C   0  0  0  0  0  3  0  0  0  0  0  0
  -22.7250  -10.2340   20.1610 C   0  0  0  0  0  3  0  0  0  0  0  0
  -21.6860   -6.9370   21.3830 O   0  0  0  0  0  0  0  0  0  0  0  0
  -21.5560   -6.2460   22.5620 C   0  0  0  0  0  0  0  0  0  0  0  0
  -20.9650   -6.8300   23.7040 C   0  0  0  0  0  3  0  0  0  0  0  0
  -20.7850   -6.0620   24.8710 C   0  0  0  0  0  3  0  0  0  0  0  0
  -21.1850   -4.7130   24.8990 C   0  0  0  0  0  0  0  0  0  0  0  0
  -21.7650   -4.1290   23.7610 C   0  0  0  0  0  3  0  0  0  0  0  0
  -21.9480   -4.8930   22.5940 C   0  0  0  0  0  0  0  0  0  0  0  0
  -22.4900   -4.3200   21.4940 F   0  0  0  0  0  0  0  0  0  0  0  0
  -21.0040   -3.9760   26.0200 F   0  0  0  0  0  0  0  0  0  0  0  0
  -22.7290  -13.6020   21.2530 C   0  0  0  0  0  0  0  0  0  0  0  0
  -22.0400  -12.8630   22.1190 N   0  0  0  0  0  0  0  0  0  0  0  0
  -22.2670  -14.6530   20.8080 O   0  0  0  0  0  0  0  0  0  0  0  0
  -22.4220  -12.0160   22.5090 H   0  0  0  0  0  0  0  0  0  0  0  0
  -21.1150  -13.1560   22.3980 H   0  0  0  0  0  0  0  0  0  0  0  0
  -25.3010  -15.3050   20.3520 N   0  0  0  0  0  0  0  0  0  0  0  0
  -24.5390  -15.9480   20.5420 H   0  0  0  0  0  0  0  0  0  0  0  0
  -26.1390  -15.7650   20.0150 H   0  0  0  0  0  0  0  0  0  0  0  0
  -28.6000  -22.8800   20.3480 C   0  0  0  0  0  2  0  0  0  0  0  0
  -29.1440  -24.3480   20.3620 C   0  0  0  0  0  2  0  0  0  0  0  0
  -27.9560  -25.3620   20.3910 C   0  0  0  0  0  2  0  0  0  0  0  0
  -28.1990  -26.7370   19.9760 O   0  0  0  0  0  0  0  0  0  0  0  0
  -24.5010  -31.9510   23.1770 C   0  0  0  0  0  0  0  0  0  0  0  0
  -27.0600  -27.5340   19.9620 C   0  0  0  0  0  0  0  0  0  0  0  0
  -23.2500  -30.5710   21.5490 C   0  0  0  0  0  3  0  0  0  0  0  0
  -24.6670  -29.0680   20.0490 C   0  0  0  0  0  0  0  0  0  0  0  0
  -25.7720  -30.9330   21.2860 C   0  0  0  0  0  2  0  0  0  0  0  0
  -25.8430  -29.5710   20.6210 C   0  0  0  0  0  0  0  0  0  0  0  0
  -27.0410  -28.8120   20.5770 C   0  0  0  0  0  3  0  0  0  0  0  0
  -25.8680  -27.0790   19.3470 C   0  0  0  0  0  3  0  0  0  0  0  0
  -24.6810  -27.8240   19.4020 C   0  0  0  0  0  3  0  0  0  0  0  0
  -23.4220  -29.9210   20.1510 C   0  0  0  0  0  2  0  0  0  0  0  0
  -24.5280  -31.1650   22.0620 N   0  0  0  0  0  0  0  0  0  0  0  0
  -23.4350  -32.2100   23.7540 O   0  0  0  0  0  0  0  0  0  0  0  0
  -22.6340  -29.5300   22.5090 C   0  0  0  0  0  0  0  0  0  0  0  0
  -21.3140  -29.3200   22.3960 N   0  0  0  0  0  0  0  0  0  0  0  0
  -23.3390  -28.9180   23.3170 O   0  0  0  0  0  0  0  0  0  0  0  0
  -20.7970  -29.8700   21.7230 H   0  0  0  0  0  0  0  0  0  0  0  0
  -17.9690  -28.0510   22.9190 C   0  0  0  0  0  0  0  0  0  0  0  0
  -20.5230  -28.3600   23.1650 C   0  0  0  0  0  3  0  0  0  0  0  0
  -20.6470  -26.9330   22.5790 C   0  0  0  0  0  2  0  0  0  0  0  0
  -19.5400  -26.5940   21.5740 C   0  0  0  0  0  2  0  0  0  0  0  0
  -18.1650  -26.7090   22.2350 C   0  0  0  0  0  2  0  0  0  0  0  0
  -19.0770  -28.8330   23.3420 C   0  0  0  0  0  0  0  0  0  0  0  0
  -18.8400  -30.0900   23.9410 C   0  0  0  0  0  3  0  0  0  0  0  0
  -17.5280  -30.5640   24.1250 C   0  0  0  0  0  3  0  0  0  0  0  0
  -16.4330  -29.7800   23.7130 C   0  0  0  0  0  3  0  0  0  0  0  0
  -16.6570  -28.5260   23.1190 C   0  0  0  0  0  3  0  0  0  0  0  0
  -25.8030  -32.5750   23.7670 C   0  0  0  0  0  3  0  0  0  0  0  0
  -26.3580  -31.7880   25.0150 C   0  0  1  0  0  0  0  0  0  0  0  0
  -25.2910  -31.5030   26.0960 C   0  0  0  0  0  1  0  0  0  0  0  0
  -26.9630  -30.4340   24.5760 C   0  0  0  0  0  1  0  0  0  0  0  0
  -27.5040  -32.5920   25.6760 C   0  0  0  0  0  1  0  0  0  0  0  0
  -25.5040  -33.9690   24.1240 N   0  0  0  0  0  0  0  0  0  0  0  0
  -25.8260  -35.0300   23.3720 C   0  0  0  0  0  0  0  0  0  0  0  0
  -26.4760  -34.9380   22.3250 O   0  0  0  0  0  0  0  0  0  0  0  0
  -24.9310  -34.1180   24.9400 H   0  0  0  0  0  0  0  0  0  0  0  0
  -24.1080  -36.8390   23.0500 C   0  0  0  0  0  1  0  0  0  0  0  0
  -25.3470  -36.4130   23.8560 C   0  0  0  0  0  3  0  0  0  0  0  0
  -27.4840  -37.2710   24.7090 C   0  0  0  0  0  1  0  0  0  0  0  0
  -26.3880  -37.4610   23.7620 N   0  0  0  0  0  0  0  0  0  0  0  0
  -25.9870  -38.3830   23.9180 H   0  0  0  0  0  0  0  0  0  0  0  0
  1  8  1  0
  2  1  1  0
  2  4  1  0
  3  1  2  0
  6  5  1  0
  7  8  2  0
  7 10  1  0
  8  9  1  0
  9  5  2  0
  9 11  1  0
 10  6  2  0
 12 20  1  0
 13 18  1  0
 14 15  1  0
 14 13  1  0
 16 15  1  0
 16 25  1  0
 16 17  1  0
 18 12  1  0
 18 17  1  0
 19 12  2  0
 20 10  1  0
 20 21  1  0
 22 23  2  0
 23 42  1  0
 24 23  1  0
 24 27  1  0
 25 26  1  0
 25 22  1  0
 26 24  2  0
 27 28  1  0
 28 29  2  0
 30 33  1  0
 30 29  1  0
 31 30  2  0
 32 31  1  0
 32 27  2  0
 33 34  1  0
 34 39  2  0
 34 35  1  0
 35 36  2  0
 36 37  1  0
 37 41  1  0
 38 37  2  0
 39 38  1  0
 40 39  1  0
 42 43  1  0
 43 46  1  0
 43 45  1  0
 44 42  2  0
 47 22  1  0
 47 48  1  0
 49 47  1  0
 50 51  1  0
 50  2  1  0
 51 52  1  0
 53 52  1  0
 54 65  2  0
 55 53  1  0
 55 60  1  0
 56 64  1  0
 56 66  1  0
 57 63  1  0
 57 59  1  0
 58 64  1  0
 59 58  1  0
 60 59  2  0
 61 62  1  0
 61 55  2  0
 62 57  2  0
 63 56  1  0
 64 54  1  0
 66 68  2  0
 67 66  1  0
 69 67  1  0
 70 79  2  0
 70 75  1  0
 71 67  1  0
 71 75  1  0
 72 71  1  0
 73 74  1  0
 73 72  1  0
 74 70  1  0
 75 76  2  0
 76 77  1  0
 78 77  2  0
 79 78  1  0
 80 54  1  0
 80 85  1  0
 80 81  1  0
 81 84  1  1
 81 82  1  0
 83 81  1  0
 85 88  1  0
 86 90  1  0
 86 85  1  0
 87 86  2  0
 90 89  1  0
 92 90  1  0
 92 93  1  0
 92 91  1  0
M  ISO  4  12 100  20 100  52 101  53 101
M  END
>  <TORSDO>  (64) 
F 20

>  <SCORE>  (64) 
-12.945

>  <name>  (64) 
65

>  <ligand_id>  (64) 
65

>  <original_smiles>  (64) 
[H]c1c([H])c([H])c2c(c1[H])C([H])([H])C([H])([H])C([H])([H])C2([H])N([H])C(=O)C1([H])N(C(=O)C([H])(N([H])C(=O)C([H])(N([H])C([H])([H])[H])C([H])([H])[H])C(C([H])([H])[H])(C([H])([H])[H])C([H])([H])[H])C([H])([H])c2c([H])c(OC([H])([H])C([H])([H])C([H])([H])N([H])C(=O)c3c([H])c(N([H])C(=O)N4C([H])([H])C([H])([H])C([H])([H])C([H])(n5nc(-c6c([H])c([H])c(Oc7c([H])c([H])c(F)c([H])c7F)c([H])c6[H])c(C(=O)N([H])[H])c5N([H])[H])C4([H])[H])c([H])c([H])c3C([H])([H])[H])c([H])c([H])c2C1([H])[H]

>  <smiles>  (64) 
[H]c1c([H])c([H])c2c(c1[H])C([H])([H])C([H])([H])C([H])([H])C2([H])N([H])C(=O)C1([H])N(C(=O)C([H])(N([H])C(=O)C([H])(N([H])C([H])([H])[H])C([H])([H])[H])C(C([H])([H])[H])(C([H])([H])[H])C([H])([H])[H])C([H])([H])c2c([H])c(OC([H])([H])C([H])([H])C([H])([H])N([H])C(=O)c3c([H])c(N([H])C(=O)N4C([H])([H])C([H])([H])C([H])([H])C([H])(n5nc(-c6c([H])c([H])c(Oc7c([H])c([H])c(F)c([H])c7F)c([H])c6[H])c(C(=O)N([H])[H])c5N([H])[H])C4([H])[H])c([H])c([H])c3C([H])([H])[H])c([H])c([H])c2C1([H])[H]

$$$$
66:0:0
     RDKit          3D

 93101  0  0  1  0  0  0  0  0999 V2000
  -28.8260  -22.6250   20.4920 C   0  0  0  0  0  3  0  0  0  0  0  0
  -29.7680  -18.4050   18.3950 C   0  0  0  0  0  3  0  0  0  0  0  0
  -29.5560  -19.6670   17.7710 C   0  0  0  0  0  3  0  0  0  0  0  0
  -29.2780  -19.5590   20.4530 C   0  0  0  0  0  3  0  0  0  0  0  0
  -29.0840  -20.9830   19.8420 C   0  0  0  0  0  0  0  0  0  0  0  0
  -29.6330  -18.1960   19.7870 C   0  0  0  0  0  0  0  0  0  0  0  0
  -29.2300  -20.8810   18.4400 C   0  0  0  0  0  0  0  0  0  0  0  0
  -29.0640  -21.9920   17.6850 F   0  0  0  0  0  0  0  0  0  0  0  0
  -30.4380  -15.3650   19.9740 C   0  0  0  0  0  0  0  0  0  0  0  0
  -30.3980  -12.9070   19.1280 C   0  0  0  0  0  2  0  0  0  0  0  0
  -29.4400  -12.7190   17.9250 C   0  0  0  0  0  2  0  0  0  0  0  0
  -28.0050  -12.4470   18.4020 C   0  0  0  0  0  2  0  0  0  0  0  0
  -27.5920  -13.3850   19.5620 C   0  0  0  0  0  3  0  0  0  0  0  0
  -28.6780  -13.5360   20.6530 C   0  0  0  0  0  2  0  0  0  0  0  0
  -29.8900  -14.0460   19.9920 N   0  0  0  0  0  0  0  0  0  0  0  0
  -31.6230  -15.3620   19.6070 O   0  0  0  0  0  0  0  0  0  0  0  0
  -29.7200  -16.6440   20.2860 N   0  0  0  0  0  0  0  0  0  0  0  0
  -28.9550  -16.4330   20.9120 H   0  0  0  0  0  0  0  0  0  0  0  0
  -25.2500  -13.9310   20.4050 C   0  0  0  0  0  0  0  0  0  0  0  0
  -24.2050  -13.1480   20.8100 C   0  0  0  0  0  0  0  0  0  0  0  0
  -24.6740  -11.7980   20.7490 C   0  0  0  0  0  0  0  0  0  0  0  0
  -26.2860  -13.0570   20.1160 N   0  0  0  0  0  0  0  0  0  0  0  0
  -25.9550  -11.7670   20.3900 N   0  0  0  0  0  0  0  0  0  0  0  0
  -23.9520  -10.5340   20.9570 C   0  0  0  0  0  0  0  0  0  0  0  0
  -24.4030   -9.5670   21.8850 C   0  0  0  0  0  3  0  0  0  0  0  0
  -23.6760   -8.3700   22.0790 C   0  0  0  0  0  3  0  0  0  0  0  0
  -22.4920   -8.1280   21.3430 C   0  0  0  0  0  0  0  0  0  0  0  0
  -22.0600   -9.0840   20.4060 C   0  0  0  0  0  3  0  0  0  0  0  0
  -22.7870  -10.2720   20.2100 C   0  0  0  0  0  3  0  0  0  0  0  0
  -21.7370   -6.9840   21.4500 O   0  0  0  0  0  0  0  0  0  0  0  0
  -21.6930   -6.2570   22.6100 C   0  0  0  0  0  0  0  0  0  0  0  0
  -21.2480   -6.8190   23.8290 C   0  0  0  0  0  3  0  0  0  0  0  0
  -21.1550   -6.0150   24.9820 C   0  0  0  0  0  3  0  0  0  0  0  0
  -21.4910   -4.6490   24.9200 C   0  0  0  0  0  0  0  0  0  0  0  0
  -21.9260   -4.0860   23.7060 C   0  0  0  0  0  3  0  0  0  0  0  0
  -22.0210   -4.8860   22.5560 C   0  0  0  0  0  0  0  0  0  0  0  0
  -22.4210   -4.3350   21.3850 F   0  0  0  0  0  0  0  0  0  0  0  0
  -21.3900   -3.8750   26.0250 F   0  0  0  0  0  0  0  0  0  0  0  0
  -22.8190  -13.6210   21.1280 C   0  0  0  0  0  0  0  0  0  0  0  0
  -22.1220  -12.9210   22.0160 N   0  0  0  0  0  0  0  0  0  0  0  0
  -22.3650  -14.6500   20.6260 O   0  0  0  0  0  0  0  0  0  0  0  0
  -22.4970  -12.0890   22.4440 H   0  0  0  0  0  0  0  0  0  0  0  0
  -21.1910  -13.2220   22.2720 H   0  0  0  0  0  0  0  0  0  0  0  0
  -25.3980  -15.3070   20.2300 N   0  0  0  0  0  0  0  0  0  0  0  0
  -24.6070  -15.9360   20.3310 H   0  0  0  0  0  0  0  0  0  0  0  0
  -26.2000  -15.7460   19.7890 H   0  0  0  0  0  0  0  0  0  0  0  0
  -28.2380  -22.5210   21.9180 C   0  0  0  0  0  2  0  0  0  0  0  0
  -29.2270  -22.1130   22.9420 N   0  0  0  0  0  4  0  0  0  0  0  0
  -29.6760  -21.2500   22.7020 H   0  0  0  0  0  0  0  0  0  0  0  0
  -28.7820  -21.9920   23.8350 H   0  0  0  0  0  0  0  0  0  0  0  0
  -29.9350  -22.8210   23.0510 H   0  0  0  0  0  0  0  0  0  0  0  0
  -28.1680  -24.2030   19.8220 C   0  0  0  0  0  2  0  0  0  0  0  0
  -28.1930  -25.8190   20.2760 O   0  0  0  0  0  0  0  0  0  0  0  0
  -24.6290  -31.8390   23.2100 C   0  0  0  0  0  0  0  0  0  0  0  0
  -27.1810  -26.9290   20.1790 C   0  0  0  0  0  0  0  0  0  0  0  0
  -23.4350  -30.4410   21.5710 C   0  0  0  0  0  3  0  0  0  0  0  0
  -24.8790  -28.8340   20.1420 C   0  0  0  0  0  0  0  0  0  0  0  0
  -26.0000  -30.6410   21.4270 C   0  0  0  0  0  2  0  0  0  0  0  0
  -26.0660  -29.2280   20.7720 C   0  0  0  0  0  0  0  0  0  0  0  0
  -27.2030  -28.2930   20.7740 C   0  0  0  0  0  3  0  0  0  0  0  0
  -25.9660  -26.6990   19.4940 C   0  0  0  0  0  3  0  0  0  0  0  0
  -24.8590  -27.5920   19.4850 C   0  0  0  0  0  3  0  0  0  0  0  0
  -23.6600  -29.7560   20.1960 C   0  0  0  0  0  2  0  0  0  0  0  0
  -24.7090  -31.0060   22.1200 N   0  0  0  0  0  0  0  0  0  0  0  0
  -23.5370  -32.1280   23.7310 O   0  0  0  0  0  0  0  0  0  0  0  0
  -22.7380  -29.4500   22.5390 C   0  0  0  0  0  0  0  0  0  0  0  0
  -21.4060  -29.2930   22.4180 N   0  0  0  0  0  0  0  0  0  0  0  0
  -23.4070  -28.8260   23.3680 O   0  0  0  0  0  0  0  0  0  0  0  0
  -20.9230  -29.8520   21.7290 H   0  0  0  0  0  0  0  0  0  0  0  0
  -18.0280  -28.0800   22.9380 C   0  0  0  0  0  0  0  0  0  0  0  0
  -20.5860  -28.3530   23.1910 C   0  0  0  0  0  3  0  0  0  0  0  0
  -20.6890  -26.9200   22.6190 C   0  0  0  0  0  2  0  0  0  0  0  0
  -19.5860  -26.5960   21.6060 C   0  0  0  0  0  2  0  0  0  0  0  0
  -18.2060  -26.7350   22.2540 C   0  0  0  0  0  2  0  0  0  0  0  0
  -19.1440  -28.8470   23.3630 C   0  0  0  0  0  0  0  0  0  0  0  0
  -18.9240  -30.1050   23.9650 C   0  0  0  0  0  3  0  0  0  0  0  0
  -17.6180  -30.5980   24.1460 C   0  0  0  0  0  3  0  0  0  0  0  0
  -16.5150  -29.8300   23.7350 C   0  0  0  0  0  3  0  0  0  0  0  0
  -16.7200  -28.5730   23.1370 C   0  0  0  0  0  3  0  0  0  0  0  0
  -25.9000  -32.4850   23.8410 C   0  0  0  0  0  3  0  0  0  0  0  0
  -26.4020  -31.7280   25.1340 C   0  0  1  0  0  0  0  0  0  0  0  0
  -25.3010  -31.5080   26.1960 C   0  0  0  0  0  1  0  0  0  0  0  0
  -26.9850  -30.3400   24.7760 C   0  0  0  0  0  1  0  0  0  0  0  0
  -27.5440  -32.5280   25.8000 C   0  0  0  0  0  1  0  0  0  0  0  0
  -25.5810  -33.8860   24.1690 N   0  0  0  0  0  0  0  0  0  0  0  0
  -25.9040  -34.9460   23.4150 C   0  0  0  0  0  0  0  0  0  0  0  0
  -26.5650  -34.8480   22.3760 O   0  0  0  0  0  0  0  0  0  0  0  0
  -24.9910  -34.0350   24.9770 H   0  0  0  0  0  0  0  0  0  0  0  0
  -24.1680  -36.7460   23.0980 C   0  0  0  0  0  1  0  0  0  0  0  0
  -25.4240  -36.3360   23.8860 C   0  0  0  0  0  3  0  0  0  0  0  0
  -27.5660  -37.2330   24.6830 C   0  0  0  0  0  1  0  0  0  0  0  0
  -26.4500  -37.3910   23.7560 N   0  0  0  0  0  0  0  0  0  0  0  0
  -26.0400  -38.3070   23.9050 H   0  0  0  0  0  0  0  0  0  0  0  0
  1 52  1  0
  1 47  1  0
  2  6  1  0
  3  2  2  0
  3  7  1  0
  5  4  1  0
  5  1  1  0
  6 17  1  0
  6  4  2  0
  7  5  2  0
  8  7  1  0
  9 15  1  0
  9 17  1  0
 10 15  1  0
 11 12  1  0
 11 10  1  0
 13 12  1  0
 13 22  1  0
 13 14  1  0
 15 14  1  0
 16  9  2  0
 17 18  1  0
 19 20  2  0
 20 39  1  0
 21 20  1  0
 21 24  1  0
 22 23  1  0
 22 19  1  0
 23 21  2  0
 24 25  1  0
 25 26  2  0
 27 30  1  0
 27 26  1  0
 28 27  2  0
 29 28  1  0
 29 24  2  0
 30 31  1  0
 31 32  1  0
 32 33  2  0
 34 33  1  0
 34 38  1  0
 35 34  2  0
 36 31  2  0
 36 35  1  0
 37 36  1  0
 39 40  1  0
 40 43  1  0
 40 42  1  0
 41 39  2  0
 44 45  1  0
 44 19  1  0
 46 44  1  0
 47 48  1  0
 48 51  1  0
 48 50  1  0
 49 48  1  0
 52 53  1  0
 54 65  2  0
 55 53  1  0
 55 60  1  0
 56 64  1  0
 56 66  1  0
 57 63  1  0
 57 59  1  0
 58 64  1  0
 59 60  2  0
 59 58  1  0
 61 55  2  0
 62 61  1  0
 62 57  2  0
 63 56  1  0
 64 54  1  0
 66 68  2  0
 67 66  1  0
 69 67  1  0
 70 79  2  0
 70 75  1  0
 71 67  1  0
 71 75  1  0
 72 71  1  0
 73 74  1  0
 73 72  1  0
 74 70  1  0
 75 76  2  0
 76 77  1  0
 78 77  2  0
 79 78  1  0
 80 54  1  0
 80 85  1  0
 80 81  1  0
 81 84  1  1
 81 82  1  0
 83 81  1  0
 85 88  1  0
 86 90  1  0
 86 85  1  0
 87 86  2  0
 90 89  1  0
 92 90  1  0
 92 93  1  0
 92 91  1  0
M  ISO  4   9 100  17 100  52 101  53 101
M  END
>  <TORSDO>  (65) 
F 20

>  <SCORE>  (65) 
-15.969

>  <name>  (65) 
66

>  <ligand_id>  (65) 
66

>  <original_smiles>  (65) 
[H]c1c([H])c([H])c2c(c1[H])C([H])([H])C([H])([H])C([H])([H])C2([H])N([H])C(=O)C1([H])N(C(=O)C([H])(N([H])C(=O)C([H])(N([H])C([H])([H])[H])C([H])([H])[H])C(C([H])([H])[H])(C([H])([H])[H])C([H])([H])[H])C([H])([H])c2c([H])c(OC([H])([H])C([H])(c3c([H])c(N([H])C(=O)N4C([H])([H])C([H])([H])C([H])([H])C([H])(n5nc(-c6c([H])c([H])c(Oc7c([H])c([H])c(F)c([H])c7F)c([H])c6[H])c(C(=O)N([H])[H])c5N([H])[H])C4([H])[H])c([H])c([H])c3F)C([H])([H])[N+]([H])([H])[H])c([H])c([H])c2C1([H])[H]

>  <smiles>  (65) 
[H]c1c([H])c([H])c2c(c1[H])C([H])([H])C([H])([H])C([H])([H])C2([H])N([H])C(=O)C1([H])N(C(=O)C([H])(N([H])C(=O)C([H])(N([H])C([H])([H])[H])C([H])([H])[H])C(C([H])([H])[H])(C([H])([H])[H])C([H])([H])[H])C([H])([H])c2c([H])c(OC([H])([H])C([H])(c3c([H])c(N([H])C(=O)N4C([H])([H])C([H])([H])C([H])([H])C([H])(n5nc(-c6c([H])c([H])c(Oc7c([H])c([H])c(F)c([H])c7F)c([H])c6[H])c(C(=O)N([H])[H])c5N([H])[H])C4([H])[H])c([H])c([H])c3F)C([H])([H])[N+]([H])([H])[H])c([H])c([H])c2C1([H])[H]

$$$$
67:0:0
     RDKit          3D

 93102  0  0  1  0  0  0  0  0999 V2000
  -29.0290  -21.1870   21.6780 C   0  0  0  0  0  2  0  0  0  0  0  0
  -28.8990  -20.6000   20.3010 C   0  0  0  0  0  3  0  0  0  0  0  0
  -29.6210  -21.9430   20.5000 C   0  0  0  0  0  3  0  0  0  0  0  0
  -31.0010  -18.2870   18.1350 C   0  0  0  0  0  3  0  0  0  0  0  0
  -30.3570  -19.4210   18.6560 C   0  0  0  0  0  3  0  0  0  0  0  0
  -30.8840  -17.0500   18.7860 C   0  0  0  0  0  3  0  0  0  0  0  0
  -29.5250  -18.0880   20.5220 C   0  0  0  0  0  3  0  0  0  0  0  0
  -29.6190  -19.3440   19.8520 C   0  0  0  0  0  0  0  0  0  0  0  0
  -30.1470  -16.9220   19.9920 C   0  0  0  0  0  0  0  0  0  0  0  0
  -30.7070  -14.5300   20.3970 C   0  0  0  0  0  0  0  0  0  0  0  0
  -30.3940  -12.3440   19.3310 C   0  0  0  0  0  2  0  0  0  0  0  0
  -29.4690  -12.5470   18.1140 C   0  0  0  0  0  2  0  0  0  0  0  0
  -27.9960  -12.4030   18.5410 C   0  0  0  0  0  2  0  0  0  0  0  0
  -27.6450  -13.2830   19.7710 C   0  0  0  0  0  3  0  0  0  0  0  0
  -28.6880  -13.1000   20.8970 C   0  0  0  0  0  2  0  0  0  0  0  0
  -30.0230  -13.3560   20.3330 N   0  0  0  0  0  0  0  0  0  0  0  0
  -31.8950  -14.6190   20.0750 O   0  0  0  0  0  0  0  0  0  0  0  0
  -29.9660  -15.6370   20.6200 N   0  0  0  0  0  0  0  0  0  0  0  0
  -29.0720  -15.4780   21.0580 H   0  0  0  0  0  0  0  0  0  0  0  0
  -25.2460  -13.9050   20.4570 C   0  0  0  0  0  0  0  0  0  0  0  0
  -24.1750  -13.1400   20.8330 C   0  0  0  0  0  0  0  0  0  0  0  0
  -24.6360  -11.7860   20.8250 C   0  0  0  0  0  0  0  0  0  0  0  0
  -26.2920  -13.0190   20.2490 N   0  0  0  0  0  0  0  0  0  0  0  0
  -25.9280  -11.7420   20.5310 N   0  0  0  0  0  0  0  0  0  0  0  0
  -23.9100  -10.5260   21.0220 C   0  0  0  0  0  0  0  0  0  0  0  0
  -24.3430   -9.5620   21.9590 C   0  0  0  0  0  3  0  0  0  0  0  0
  -23.6170   -8.3660   22.1420 C   0  0  0  0  0  3  0  0  0  0  0  0
  -22.4440   -8.1250   21.3860 C   0  0  0  0  0  0  0  0  0  0  0  0
  -22.0320   -9.0770   20.4370 C   0  0  0  0  0  3  0  0  0  0  0  0
  -22.7580  -10.2650   20.2520 C   0  0  0  0  0  3  0  0  0  0  0  0
  -21.6890   -6.9820   21.4820 O   0  0  0  0  0  0  0  0  0  0  0  0
  -21.6470   -6.2380   22.6350 C   0  0  0  0  0  0  0  0  0  0  0  0
  -21.2280   -6.7930   23.8630 C   0  0  0  0  0  3  0  0  0  0  0  0
  -21.1310   -5.9780   25.0080 C   0  0  0  0  0  3  0  0  0  0  0  0
  -21.4460   -4.6070   24.9240 C   0  0  0  0  0  0  0  0  0  0  0  0
  -21.8580   -4.0510   23.7010 C   0  0  0  0  0  3  0  0  0  0  0  0
  -21.9550   -4.8650   22.5580 C   0  0  0  0  0  0  0  0  0  0  0  0
  -22.3330   -4.3200   21.3750 F   0  0  0  0  0  0  0  0  0  0  0  0
  -21.3450   -3.8220   26.0210 F   0  0  0  0  0  0  0  0  0  0  0  0
  -22.7770  -13.6210   21.0880 C   0  0  0  0  0  0  0  0  0  0  0  0
  -22.0420  -12.9360   21.9570 N   0  0  0  0  0  0  0  0  0  0  0  0
  -22.3420  -14.6410   20.5520 O   0  0  0  0  0  0  0  0  0  0  0  0
  -22.4040  -12.1120   22.4160 H   0  0  0  0  0  0  0  0  0  0  0  0
  -21.1020  -13.2400   22.1710 H   0  0  0  0  0  0  0  0  0  0  0  0
  -25.4170  -15.2710   20.2530 N   0  0  0  0  0  0  0  0  0  0  0  0
  -24.6460  -15.9300   20.2860 H   0  0  0  0  0  0  0  0  0  0  0  0
  -26.2710  -15.6860   19.9000 H   0  0  0  0  0  0  0  0  0  0  0  0
  -29.4710  -24.4120   20.0840 C   0  0  0  0  0  0  0  0  0  0  0  0
  -28.9750  -23.1560   20.0510 N   0  0  0  0  0  0  0  0  0  0  0  0
  -30.5520  -24.6790   20.6200 O   0  0  0  0  0  0  0  0  0  0  0  0
  -28.0900  -23.0400   19.5720 H   0  0  0  0  0  0  0  0  0  0  0  0
  -28.6450  -25.5250   19.3800 C   0  0  0  0  0  2  0  0  0  0  0  0
  -28.4510  -26.7020   20.2100 O   0  0  0  0  0  0  0  0  0  0  0  0
  -24.6010  -31.9070   23.2570 C   0  0  0  0  0  0  0  0  0  0  0  0
  -27.2650  -27.4310   20.1660 C   0  0  0  0  0  0  0  0  0  0  0  0
  -23.4030  -30.5000   21.6170 C   0  0  0  0  0  3  0  0  0  0  0  0
  -24.8610  -28.9670   20.1920 C   0  0  0  0  0  0  0  0  0  0  0  0
  -25.9360  -30.8500   21.4300 C   0  0  0  0  0  2  0  0  0  0  0  0
  -26.0240  -29.4800   20.7790 C   0  0  0  0  0  0  0  0  0  0  0  0
  -27.2230  -28.7220   20.7620 C   0  0  0  0  0  3  0  0  0  0  0  0
  -26.0680  -26.9420   19.5880 C   0  0  0  0  0  3  0  0  0  0  0  0
  -24.8830  -27.6980   19.5960 C   0  0  0  0  0  3  0  0  0  0  0  0
  -23.6140  -29.8260   20.2360 C   0  0  0  0  0  2  0  0  0  0  0  0
  -24.6650  -31.1020   22.1580 N   0  0  0  0  0  0  0  0  0  0  0  0
  -23.5160  -32.1820   23.7900 O   0  0  0  0  0  0  0  0  0  0  0  0
  -22.7500  -29.4790   22.5790 C   0  0  0  0  0  0  0  0  0  0  0  0
  -21.4250  -29.2960   22.4450 N   0  0  0  0  0  0  0  0  0  0  0  0
  -23.4320  -28.8580   23.3980 O   0  0  0  0  0  0  0  0  0  0  0  0
  -20.9420  -29.8500   21.7530 H   0  0  0  0  0  0  0  0  0  0  0  0
  -18.0480  -28.1000   22.9370 C   0  0  0  0  0  0  0  0  0  0  0  0
  -20.6060  -28.3580   23.2130 C   0  0  0  0  0  3  0  0  0  0  0  0
  -20.7100  -26.9290   22.6320 C   0  0  0  0  0  2  0  0  0  0  0  0
  -19.6080  -26.6080   21.6180 C   0  0  0  0  0  2  0  0  0  0  0  0
  -18.2260  -26.7520   22.2600 C   0  0  0  0  0  2  0  0  0  0  0  0
  -19.1660  -28.8610   23.3700 C   0  0  0  0  0  0  0  0  0  0  0  0
  -18.9460  -30.1240   23.9620 C   0  0  0  0  0  3  0  0  0  0  0  0
  -17.6410  -30.6230   24.1290 C   0  0  0  0  0  3  0  0  0  0  0  0
  -16.5380  -29.8570   23.7130 C   0  0  0  0  0  3  0  0  0  0  0  0
  -16.7420  -28.5990   23.1220 C   0  0  0  0  0  3  0  0  0  0  0  0
  -25.8820  -32.5410   23.8800 C   0  0  0  0  0  3  0  0  0  0  0  0
  -26.3930  -31.7790   25.1640 C   0  0  1  0  0  0  0  0  0  0  0  0
  -25.2930  -31.5550   26.2290 C   0  0  0  0  0  1  0  0  0  0  0  0
  -26.9720  -30.3950   24.7860 C   0  0  0  0  0  1  0  0  0  0  0  0
  -27.5420  -32.5770   25.8250 C   0  0  0  0  0  1  0  0  0  0  0  0
  -25.5760  -33.9430   24.2010 N   0  0  0  0  0  0  0  0  0  0  0  0
  -25.9060  -34.9890   23.4340 C   0  0  0  0  0  0  0  0  0  0  0  0
  -26.5770  -34.8780   22.4040 O   0  0  0  0  0  0  0  0  0  0  0  0
  -24.9840  -34.1020   25.0020 H   0  0  0  0  0  0  0  0  0  0  0  0
  -24.1750  -36.7760   23.0610 C   0  0  0  0  0  1  0  0  0  0  0  0
  -25.4150  -36.3800   23.8780 C   0  0  0  0  0  3  0  0  0  0  0  0
  -27.5490  -37.2720   24.7060 C   0  0  0  0  0  1  0  0  0  0  0  0
  -26.4480  -37.4330   23.7600 N   0  0  0  0  0  0  0  0  0  0  0  0
  -26.0420  -38.3540   23.9020 H   0  0  0  0  0  0  0  0  0  0  0  0
  2  8  1  0
  2  3  1  0
  2  1  1  0
  3 49  1  0
  3  1  1  0
  4  5  2  0
  4  6  1  0
  5  8  1  0
  6  9  2  0
  8  7  2  0
  9  7  1  0
  9 18  1  0
 10 18  1  0
 11 16  1  0
 12 13  1  0
 12 11  1  0
 14 13  1  0
 14 23  1  0
 14 15  1  0
 16 10  1  0
 16 15  1  0
 17 10  2  0
 18 19  1  0
 20 21  2  0
 21 40  1  0
 22 21  1  0
 22 25  1  0
 23 20  1  0
 23 24  1  0
 24 22  2  0
 25 26  1  0
 26 27  2  0
 28 31  1  0
 28 27  1  0
 29 28  2  0
 30 29  1  0
 30 25  2  0
 31 32  1  0
 32 33  1  0
 33 34  2  0
 35 34  1  0
 35 39  1  0
 36 35  2  0
 37 32  2  0
 37 36  1  0
 38 37  1  0
 40 41  1  0
 41 44  1  0
 41 43  1  0
 42 40  2  0
 45 46  1  0
 45 20  1  0
 47 45  1  0
 48 50  2  0
 49 48  1  0
 51 49  1  0
 52 48  1  0
 52 53  1  0
 54 65  2  0
 55 53  1  0
 55 60  1  0
 56 64  1  0
 56 66  1  0
 57 63  1  0
 57 59  1  0
 58 64  1  0
 59 58  1  0
 60 59  2  0
 61 62  1  0
 61 55  2  0
 62 57  2  0
 63 56  1  0
 64 54  1  0
 66 68  2  0
 67 66  1  0
 69 67  1  0
 70 79  2  0
 70 75  1  0
 71 67  1  0
 71 75  1  0
 72 71  1  0
 73 74  1  0
 73 72  1  0
 74 70  1  0
 75 76  2  0
 76 77  1  0
 78 77  2  0
 79 78  1  0
 80 54  1  0
 80 85  1  0
 80 81  1  0
 81 84  1  1
 81 82  1  0
 83 81  1  0
 85 88  1  0
 86 90  1  0
 86 85  1  0
 87 86  2  0
 90 89  1  0
 92 90  1  0
 92 93  1  0
 92 91  1  0
M  ISO  4  10 100  18 100  52 101  53 101
M  END
>  <TORSDO>  (66) 
F 19

>  <SCORE>  (66) 
-14.400

>  <name>  (66) 
67

>  <ligand_id>  (66) 
67

>  <original_smiles>  (66) 
[H]c1c([H])c([H])c2c(c1[H])C([H])([H])C([H])([H])C([H])([H])C2([H])N([H])C(=O)C1([H])N(C(=O)C([H])(N([H])C(=O)C([H])(N([H])C([H])([H])[H])C([H])([H])[H])C(C([H])([H])[H])(C([H])([H])[H])C([H])([H])[H])C([H])([H])c2c([H])c(OC([H])([H])C(=O)N([H])C3([H])C([H])([H])C3([H])c3c([H])c([H])c([H])c(N([H])C(=O)N4C([H])([H])C([H])([H])C([H])([H])C([H])(n5nc(-c6c([H])c([H])c(Oc7c([H])c([H])c(F)c([H])c7F)c([H])c6[H])c(C(=O)N([H])[H])c5N([H])[H])C4([H])[H])c3[H])c([H])c([H])c2C1([H])[H]

>  <smiles>  (66) 
[H]c1c([H])c([H])c2c(c1[H])C([H])([H])C([H])([H])C([H])([H])C2([H])N([H])C(=O)C1([H])N(C(=O)C([H])(N([H])C(=O)C([H])(N([H])C([H])([H])[H])C([H])([H])[H])C(C([H])([H])[H])(C([H])([H])[H])C([H])([H])[H])C([H])([H])c2c([H])c(OC([H])([H])C(=O)N([H])C3([H])C([H])([H])C3([H])c3c([H])c([H])c([H])c(N([H])C(=O)N4C([H])([H])C([H])([H])C([H])([H])C([H])(n5nc(-c6c([H])c([H])c(Oc7c([H])c([H])c(F)c([H])c7F)c([H])c6[H])c(C(=O)N([H])[H])c5N([H])[H])C4([H])[H])c3[H])c([H])c([H])c2C1([H])[H]

$$$$
68:0:0
     RDKit          3D

 96105  0  0  1  0  0  0  0  0999 V2000
  -31.0900  -21.0410   21.2280 C   0  0  0  0  0  0  0  0  0  0  0  0
  -30.7550  -21.7770   20.1570 N   0  0  0  0  0  0  0  0  0  0  0  0
  -31.6340  -21.5250   22.2240 O   0  0  0  0  0  0  0  0  0  0  0  0
  -30.3600  -21.2740   19.3750 H   0  0  0  0  0  0  0  0  0  0  0  0
  -29.9270  -19.0360   20.1610 C   0  0  0  0  0  3  0  0  0  0  0  0
  -31.3690  -18.6710   22.0840 C   0  0  0  0  0  3  0  0  0  0  0  0
  -30.8010  -19.5610   21.1420 C   0  0  0  0  0  0  0  0  0  0  0  0
  -29.6420  -17.6560   20.1040 C   0  0  0  0  0  0  0  0  0  0  0  0
  -31.0810  -17.2890   22.0500 C   0  0  0  0  0  0  0  0  0  0  0  0
  -30.2250  -16.7740   21.0480 C   0  0  0  0  0  0  0  0  0  0  0  0
  -28.7070  -17.1450   19.0210 C   0  0  0  0  0  1  0  0  0  0  0  0
  -31.6890  -16.3760   23.1020 C   0  0  0  0  0  1  0  0  0  0  0  0
  -30.4530  -14.5010   20.1820 C   0  0  0  0  0  0  0  0  0  0  0  0
  -30.0170  -12.4610   18.8700 C   0  0  0  0  0  2  0  0  0  0  0  0
  -28.9940  -12.7750   17.7590 C   0  0  0  0  0  2  0  0  0  0  0  0
  -27.5530  -12.6120   18.2830 C   0  0  0  0  0  2  0  0  0  0  0  0
  -27.3190  -13.3560   19.6250 C   0  0  0  0  0  3  0  0  0  0  0  0
  -28.4460  -13.0360   20.6340 C   0  0  0  0  0  2  0  0  0  0  0  0
  -29.7390  -13.3590   20.0010 N   0  0  0  0  0  0  0  0  0  0  0  0
  -31.5020  -14.7440   19.5770 O   0  0  0  0  0  0  0  0  0  0  0  0
  -29.9010  -15.3930   21.0170 N   0  0  0  0  0  0  0  0  0  0  0  0
  -29.0310  -15.1170   21.4440 H   0  0  0  0  0  0  0  0  0  0  0  0
  -24.9550  -13.9230   20.4760 C   0  0  0  0  0  0  0  0  0  0  0  0
  -23.9200  -13.1330   20.8970 C   0  0  0  0  0  0  0  0  0  0  0  0
  -24.3950  -11.7880   20.8210 C   0  0  0  0  0  0  0  0  0  0  0  0
  -25.9980  -13.0600   20.1750 N   0  0  0  0  0  0  0  0  0  0  0  0
  -25.6660  -11.7690   20.4370 N   0  0  0  0  0  0  0  0  0  0  0  0
  -23.6970  -10.5150   21.0340 C   0  0  0  0  0  0  0  0  0  0  0  0
  -24.2010   -9.5370   21.9210 C   0  0  0  0  0  3  0  0  0  0  0  0
  -23.5020   -8.3260   22.1220 C   0  0  0  0  0  3  0  0  0  0  0  0
  -22.2860   -8.0870   21.4380 C   0  0  0  0  0  0  0  0  0  0  0  0
  -21.8020   -9.0540   20.5400 C   0  0  0  0  0  3  0  0  0  0  0  0
  -22.5020  -10.2550   20.3360 C   0  0  0  0  0  3  0  0  0  0  0  0
  -21.5510   -6.9320   21.5540 O   0  0  0  0  0  0  0  0  0  0  0  0
  -21.6040   -6.1550   22.6840 C   0  0  0  0  0  0  0  0  0  0  0  0
  -21.2840   -6.6720   23.9590 C   0  0  0  0  0  3  0  0  0  0  0  0
  -21.2830   -5.8210   25.0820 C   0  0  0  0  0  3  0  0  0  0  0  0
  -21.5920   -4.4560   24.9330 C   0  0  0  0  0  0  0  0  0  0  0  0
  -21.9050   -3.9390   23.6630 C   0  0  0  0  0  3  0  0  0  0  0  0
  -21.9090   -4.7870   22.5420 C   0  0  0  0  0  0  0  0  0  0  0  0
  -22.1900   -4.2790   21.3180 F   0  0  0  0  0  0  0  0  0  0  0  0
  -21.5850   -3.6370   26.0110 F   0  0  0  0  0  0  0  0  0  0  0  0
  -22.5360  -13.5880   21.2570 C   0  0  0  0  0  0  0  0  0  0  0  0
  -21.8680  -12.8730   22.1550 N   0  0  0  0  0  0  0  0  0  0  0  0
  -22.0570  -14.6160   20.7810 O   0  0  0  0  0  0  0  0  0  0  0  0
  -22.2680  -12.0400   22.5630 H   0  0  0  0  0  0  0  0  0  0  0  0
  -20.9420  -13.1600   22.4370 H   0  0  0  0  0  0  0  0  0  0  0  0
  -25.0890  -15.2980   20.3070 N   0  0  0  0  0  0  0  0  0  0  0  0
  -24.3160  -15.9360   20.4620 H   0  0  0  0  0  0  0  0  0  0  0  0
  -25.9110  -15.7530   19.9340 H   0  0  0  0  0  0  0  0  0  0  0  0
  -30.2220  -23.7820   18.7740 C   0  0  0  0  0  2  0  0  0  0  0  0
  -29.9740  -24.0700   20.8490 C   0  0  0  0  0  2  0  0  0  0  0  0
  -29.7950  -24.9900   19.6260 C   0  0  0  0  0  3  0  0  0  0  0  0
  -30.9390  -23.2180   20.0090 C   0  0  0  0  0  3  0  0  0  0  0  0
  -28.4400  -25.6440   19.3680 C   0  0  0  0  0  2  0  0  0  0  0  0
  -28.3430  -26.8610   20.1070 O   0  0  0  0  0  0  0  0  0  0  0  0
  -24.5120  -31.9660   23.2330 C   0  0  0  0  0  0  0  0  0  0  0  0
  -27.1410  -27.5400   20.1110 C   0  0  0  0  0  0  0  0  0  0  0  0
  -23.2910  -30.5640   21.6000 C   0  0  0  0  0  3  0  0  0  0  0  0
  -24.7320  -29.0280   20.1650 C   0  0  0  0  0  0  0  0  0  0  0  0
  -25.8140  -30.9250   21.3810 C   0  0  0  0  0  2  0  0  0  0  0  0
  -25.8930  -29.5550   20.7420 C   0  0  0  0  0  0  0  0  0  0  0  0
  -27.0950  -28.8140   20.7210 C   0  0  0  0  0  3  0  0  0  0  0  0
  -25.9550  -27.0230   19.5330 C   0  0  0  0  0  3  0  0  0  0  0  0
  -24.7560  -27.7580   19.5630 C   0  0  0  0  0  3  0  0  0  0  0  0
  -23.4880  -29.8840   20.2200 C   0  0  0  0  0  2  0  0  0  0  0  0
  -24.5570  -31.1660   22.1300 N   0  0  0  0  0  0  0  0  0  0  0  0
  -23.4350  -32.2370   23.7830 O   0  0  0  0  0  0  0  0  0  0  0  0
  -22.6510  -29.5410   22.5660 C   0  0  0  0  0  0  0  0  0  0  0  0
  -21.3270  -29.3550   22.4490 N   0  0  0  0  0  0  0  0  0  0  0  0
  -23.3430  -28.9180   23.3760 O   0  0  0  0  0  0  0  0  0  0  0  0
  -20.8300  -29.9100   21.7650 H   0  0  0  0  0  0  0  0  0  0  0  0
  -17.9600  -28.1550   22.9660 C   0  0  0  0  0  0  0  0  0  0  0  0
  -20.5180  -28.4190   23.2280 C   0  0  0  0  0  3  0  0  0  0  0  0
  -20.6210  -26.9860   22.6560 C   0  0  0  0  0  2  0  0  0  0  0  0
  -19.5170  -26.6580   21.6460 C   0  0  0  0  0  2  0  0  0  0  0  0
  -18.1370  -26.8050   22.2920 C   0  0  0  0  0  2  0  0  0  0  0  0
  -19.0790  -28.9200   23.3900 C   0  0  0  0  0  0  0  0  0  0  0  0
  -18.8610  -30.1850   23.9770 C   0  0  0  0  0  3  0  0  0  0  0  0
  -17.5560  -30.6850   24.1460 C   0  0  0  0  0  3  0  0  0  0  0  0
  -16.4520  -29.9170   23.7390 C   0  0  0  0  0  3  0  0  0  0  0  0
  -16.6540  -28.6540   23.1550 C   0  0  0  0  0  3  0  0  0  0  0  0
  -25.8030  -32.5980   23.8390 C   0  0  0  0  0  3  0  0  0  0  0  0
  -26.3330  -31.8290   25.1110 C   0  0  1  0  0  0  0  0  0  0  0  0
  -25.2530  -31.5980   26.1920 C   0  0  0  0  0  1  0  0  0  0  0  0
  -26.9080  -30.4490   24.7150 C   0  0  0  0  0  1  0  0  0  0  0  0
  -27.4940  -32.6210   25.7570 C   0  0  0  0  0  1  0  0  0  0  0  0
  -25.5000  -33.9970   24.1660 N   0  0  0  0  0  0  0  0  0  0  0  0
  -25.8330  -35.0450   23.4020 C   0  0  0  0  0  0  0  0  0  0  0  0
  -26.4990  -34.9380   22.3680 O   0  0  0  0  0  0  0  0  0  0  0  0
  -24.9070  -34.1550   24.9670 H   0  0  0  0  0  0  0  0  0  0  0  0
  -24.1070  -36.8380   23.0420 C   0  0  0  0  0  1  0  0  0  0  0  0
  -25.3470  -36.4350   23.8560 C   0  0  0  0  0  3  0  0  0  0  0  0
  -27.4830  -37.3150   24.6840 C   0  0  0  0  0  1  0  0  0  0  0  0
  -26.3810  -37.4860   23.7420 N   0  0  0  0  0  0  0  0  0  0  0  0
  -25.9770  -38.4070   23.8890 H   0  0  0  0  0  0  0  0  0  0  0  0
  1  3  2  0
  2  1  1  0
  4  2  1  0
  5  7  1  0
  7  1  1  0
  7  6  2  0
  8  5  2  0
  8 10  1  0
  9  6  1  0
  9 12  1  0
 10  9  2  0
 11  8  1  0
 13 21  1  0
 14 19  1  0
 15 16  1  0
 15 14  1  0
 17 16  1  0
 17 26  1  0
 17 18  1  0
 19 13  1  0
 19 18  1  0
 20 13  2  0
 21 10  1  0
 21 22  1  0
 23 24  2  0
 24 43  1  0
 25 24  1  0
 25 28  1  0
 26 27  1  0
 26 23  1  0
 27 25  2  0
 28 29  1  0
 29 30  2  0
 31 34  1  0
 31 30  1  0
 32 31  2  0
 33 32  1  0
 33 28  2  0
 34 35  1  0
 35 36  1  0
 36 37  2  0
 38 37  1  0
 38 42  1  0
 39 38  2  0
 40 35  2  0
 40 39  1  0
 41 40  1  0
 43 44  1  0
 44 47  1  0
 44 46  1  0
 45 43  2  0
 48 49  1  0
 48 23  1  0
 50 48  1  0
 51 53  1  0
 51 54  1  0
 53 55  1  0
 53 52  1  0
 54  2  1  0
 54 52  1  0
 55 56  1  0
 56 58  1  0
 57 68  2  0
 58 63  1  0
 59 67  1  0
 59 69  1  0
 60 66  1  0
 60 62  1  0
 61 67  1  0
 62 61  1  0
 63 62  2  0
 64 65  1  0
 64 58  2  0
 65 60  2  0
 66 59  1  0
 67 57  1  0
 69 71  2  0
 70 69  1  0
 72 70  1  0
 73 82  2  0
 73 78  1  0
 74 70  1  0
 74 78  1  0
 75 74  1  0
 76 77  1  0
 76 75  1  0
 77 73  1  0
 78 79  2  0
 79 80  1  0
 81 80  2  0
 82 81  1  0
 83 57  1  0
 83 88  1  0
 83 84  1  0
 84 87  1  1
 84 85  1  0
 86 84  1  0
 88 91  1  0
 89 93  1  0
 89 88  1  0
 90 89  2  0
 93 92  1  0
 95 93  1  0
 95 96  1  0
 95 94  1  0
M  ISO  4  13 100  21 100  55 101  56 101
M  END
>  <TORSDO>  (67) 
F 19

>  <SCORE>  (67) 
-12.374

>  <name>  (67) 
68

>  <ligand_id>  (67) 
68

>  <original_smiles>  (67) 
[H]c1c([H])c([H])c2c(c1[H])C([H])([H])C([H])([H])C([H])([H])C2([H])N([H])C(=O)C1([H])N(C(=O)C([H])(N([H])C(=O)C([H])(N([H])C([H])([H])[H])C([H])([H])[H])C(C([H])([H])[H])(C([H])([H])[H])C([H])([H])[H])C([H])([H])c2c([H])c(OC([H])([H])C3([H])C([H])([H])C([H])(N([H])C(=O)c4c([H])c(C([H])([H])[H])c(N([H])C(=O)N5C([H])([H])C([H])([H])C([H])([H])C([H])(n6nc(-c7c([H])c([H])c(Oc8c([H])c([H])c(F)c([H])c8F)c([H])c7[H])c(C(=O)N([H])[H])c6N([H])[H])C5([H])[H])c(C([H])([H])[H])c4[H])C3([H])[H])c([H])c([H])c2C1([H])[H]

>  <smiles>  (67) 
[H]c1c([H])c([H])c2c(c1[H])C([H])([H])C([H])([H])C([H])([H])C2([H])N([H])C(=O)C1([H])N(C(=O)C([H])(N([H])C(=O)C([H])(N([H])C([H])([H])[H])C([H])([H])[H])C(C([H])([H])[H])(C([H])([H])[H])C([H])([H])[H])C([H])([H])c2c([H])c(OC([H])([H])C3([H])C([H])([H])C([H])(N([H])C(=O)c4c([H])c(C([H])([H])[H])c(N([H])C(=O)N5C([H])([H])C([H])([H])C([H])([H])C([H])(n6nc(-c7c([H])c([H])c(Oc8c([H])c([H])c(F)c([H])c8F)c([H])c7[H])c(C(=O)N([H])[H])c6N([H])[H])C5([H])[H])c(C([H])([H])[H])c4[H])C3([H])[H])c([H])c([H])c2C1([H])[H]

$$$$
69:0:0
     RDKit          3D

 90 99  0  0  1  0  0  0  0  0999 V2000
  -28.9160  -23.3750   20.3620 C   0  0  0  0  0  0  0  0  0  0  0  0
  -28.8300  -21.1940   17.7160 C   0  0  0  0  0  2  0  0  0  0  0  0
  -30.0620  -20.7030   18.4870 C   0  0  0  0  0  2  0  0  0  0  0  0
  -27.8740  -21.7610   18.7750 C   0  0  0  0  0  2  0  0  0  0  0  0
  -29.6430  -20.7180   19.9620 C   0  0  0  0  0  3  0  0  0  0  0  0
  -28.7210  -22.0140   19.9370 N   0  0  0  0  0  0  0  0  0  0  0  0
  -29.8540  -23.6240   21.1250 O   0  0  0  0  0  0  0  0  0  0  0  0
  -29.8980  -18.4540   21.4860 C   0  0  0  0  0  2  0  0  0  0  0  0
  -29.2360  -19.1280   20.3180 C   0  0  0  0  0  3  0  0  0  0  0  0
  -30.1230  -17.6910   20.1940 C   0  0  0  0  0  3  0  0  0  0  0  0
  -30.5220  -14.9910   20.0280 C   0  0  0  0  0  0  0  0  0  0  0  0
  -30.3570  -12.6590   19.0430 C   0  0  0  0  0  2  0  0  0  0  0  0
  -29.3630  -12.6380   17.8590 C   0  0  0  0  0  2  0  0  0  0  0  0
  -27.9210  -12.4220   18.3550 C   0  0  0  0  0  2  0  0  0  0  0  0
  -27.5750  -13.3210   19.5730 C   0  0  0  0  0  3  0  0  0  0  0  0
  -28.6830  -13.3060   20.6460 C   0  0  0  0  0  2  0  0  0  0  0  0
  -29.9230  -13.7320   19.9850 N   0  0  0  0  0  0  0  0  0  0  0  0
  -31.7050  -15.0580   19.6740 O   0  0  0  0  0  0  0  0  0  0  0  0
  -29.7610  -16.1730   20.2760 N   0  0  0  0  0  0  0  0  0  0  0  0
  -28.8010  -15.9830   20.5170 H   0  0  0  0  0  0  0  0  0  0  0  0
  -25.2370  -13.8900   20.4480 C   0  0  0  0  0  0  0  0  0  0  0  0
  -24.1890  -13.1090   20.8510 C   0  0  0  0  0  0  0  0  0  0  0  0
  -24.6450  -11.7570   20.7630 C   0  0  0  0  0  0  0  0  0  0  0  0
  -26.2630  -13.0140   20.1310 N   0  0  0  0  0  0  0  0  0  0  0  0
  -25.9190  -11.7260   20.3870 N   0  0  0  0  0  0  0  0  0  0  0  0
  -23.9230  -10.4930   20.9590 C   0  0  0  0  0  0  0  0  0  0  0  0
  -24.3670   -9.5240   21.8850 C   0  0  0  0  0  3  0  0  0  0  0  0
  -23.6420   -8.3250   22.0690 C   0  0  0  0  0  3  0  0  0  0  0  0
  -22.4610   -8.0880   21.3270 C   0  0  0  0  0  0  0  0  0  0  0  0
  -22.0360   -9.0470   20.3910 C   0  0  0  0  0  3  0  0  0  0  0  0
  -22.7600  -10.2350   20.2040 C   0  0  0  0  0  3  0  0  0  0  0  0
  -21.7100   -6.9400   21.4180 O   0  0  0  0  0  0  0  0  0  0  0  0
  -21.6370   -6.2190   22.5830 C   0  0  0  0  0  0  0  0  0  0  0  0
  -21.1650   -6.7910   23.7840 C   0  0  0  0  0  3  0  0  0  0  0  0
  -21.0390   -5.9980   24.9420 C   0  0  0  0  0  3  0  0  0  0  0  0
  -21.3730   -4.6310   24.8990 C   0  0  0  0  0  0  0  0  0  0  0  0
  -21.8390   -4.0580   23.7030 C   0  0  0  0  0  3  0  0  0  0  0  0
  -21.9670   -4.8490   22.5480 C   0  0  0  0  0  0  0  0  0  0  0  0
  -22.3950   -4.2860   21.3920 F   0  0  0  0  0  0  0  0  0  0  0  0
  -21.2450   -3.8670   26.0090 F   0  0  0  0  0  0  0  0  0  0  0  0
  -22.8080  -13.5850   21.2000 C   0  0  0  0  0  0  0  0  0  0  0  0
  -22.1180  -12.8760   22.0850 N   0  0  0  0  0  0  0  0  0  0  0  0
  -22.3510  -14.6230   20.7250 O   0  0  0  0  0  0  0  0  0  0  0  0
  -22.4970  -12.0380   22.4970 H   0  0  0  0  0  0  0  0  0  0  0  0
  -21.1960  -13.1840   22.3650 H   0  0  0  0  0  0  0  0  0  0  0  0
  -25.3980  -15.2640   20.2950 N   0  0  0  0  0  0  0  0  0  0  0  0
  -24.6390  -15.9170   20.4610 H   0  0  0  0  0  0  0  0  0  0  0  0
  -26.2140  -15.7060   19.8940 H   0  0  0  0  0  0  0  0  0  0  0  0
  -27.9680  -24.6730   19.9140 C   0  0  0  0  0  2  0  0  0  0  0  0
  -28.2450  -26.1650   20.2840 O   0  0  0  0  0  0  0  0  0  0  0  0
  -24.6380  -31.8830   23.2270 C   0  0  0  0  0  0  0  0  0  0  0  0
  -27.2020  -27.1630   20.1930 C   0  0  0  0  0  0  0  0  0  0  0  0
  -23.4300  -30.4890   21.5940 C   0  0  0  0  0  3  0  0  0  0  0  0
  -24.8720  -28.9150   20.1600 C   0  0  0  0  0  0  0  0  0  0  0  0
  -25.9840  -30.7490   21.4230 C   0  0  0  0  0  2  0  0  0  0  0  0
  -26.0540  -29.3570   20.7700 C   0  0  0  0  0  0  0  0  0  0  0  0
  -27.2160  -28.4960   20.7730 C   0  0  0  0  0  3  0  0  0  0  0  0
  -25.9970  -26.8330   19.5290 C   0  0  0  0  0  3  0  0  0  0  0  0
  -24.8590  -27.6660   19.5220 C   0  0  0  0  0  3  0  0  0  0  0  0
  -23.6440  -29.8100   20.2150 C   0  0  0  0  0  2  0  0  0  0  0  0
  -24.7040  -31.0620   22.1360 N   0  0  0  0  0  0  0  0  0  0  0  0
  -23.5560  -32.1720   23.7580 O   0  0  0  0  0  0  0  0  0  0  0  0
  -22.7520  -29.4840   22.5590 C   0  0  0  0  0  0  0  0  0  0  0  0
  -21.4240  -29.3160   22.4350 N   0  0  0  0  0  0  0  0  0  0  0  0
  -23.4240  -28.8580   23.3830 O   0  0  0  0  0  0  0  0  0  0  0  0
  -20.9380  -29.8680   21.7430 H   0  0  0  0  0  0  0  0  0  0  0  0
  -18.0420  -28.1290   22.9510 C   0  0  0  0  0  0  0  0  0  0  0  0
  -20.6020  -28.3840   23.2110 C   0  0  0  0  0  3  0  0  0  0  0  0
  -20.6980  -26.9500   22.6410 C   0  0  0  0  0  2  0  0  0  0  0  0
  -19.5920  -26.6280   21.6300 C   0  0  0  0  0  2  0  0  0  0  0  0
  -18.2120  -26.7790   22.2760 C   0  0  0  0  0  2  0  0  0  0  0  0
  -19.1630  -28.8890   23.3770 C   0  0  0  0  0  0  0  0  0  0  0  0
  -18.9480  -30.1510   23.9710 C   0  0  0  0  0  3  0  0  0  0  0  0
  -17.6450  -30.6530   24.1430 C   0  0  0  0  0  3  0  0  0  0  0  0
  -16.5370  -29.8910   23.7330 C   0  0  0  0  0  3  0  0  0  0  0  0
  -16.7370  -28.6300   23.1420 C   0  0  0  0  0  3  0  0  0  0  0  0
  -25.9200  -32.5160   23.8500 C   0  0  0  0  0  3  0  0  0  0  0  0
  -25.6100  -33.9130   24.1900 N   0  0  0  0  0  0  0  0  0  0  0  0
  -25.9190  -34.9720   23.4310 C   0  0  0  0  0  0  0  0  0  0  0  0
  -26.5640  -34.8750   22.3840 O   0  0  0  0  0  0  0  0  0  0  0  0
  -25.0290  -34.0600   25.0030 H   0  0  0  0  0  0  0  0  0  0  0  0
  -24.1690  -36.7570   23.1420 C   0  0  0  0  0  1  0  0  0  0  0  0
  -25.4400  -36.3580   23.9080 C   0  0  0  0  0  3  0  0  0  0  0  0
  -27.5990  -37.2550   24.6590 C   0  0  0  0  0  1  0  0  0  0  0  0
  -26.4600  -37.4200   23.7600 N   0  0  0  0  0  0  0  0  0  0  0  0
  -26.0520  -38.3350   23.9290 H   0  0  0  0  0  0  0  0  0  0  0  0
  -26.4350  -31.7420   25.1270 C   0  0  1  0  0  0  0  0  0  0  0  0
  -25.3430  -31.5080   26.1960 C   0  0  0  0  0  1  0  0  0  0  0  0
  -27.0140  -30.3620   24.7390 C   0  0  0  0  0  1  0  0  0  0  0  0
  -27.5890  -32.5330   25.7870 C   0  0  0  0  0  1  0  0  0  0  0  0
  1  7  2  0
  2  3  1  0
  2  4  1  0
  4  6  1  0
  5  3  1  0
  5  9  1  0
  6  5  1  0
  6  1  1  0
  9  8  1  0
 10 19  1  0
 10  9  1  0
 10  8  1  0
 11 19  1  0
 12 17  1  0
 13 14  1  0
 13 12  1  0
 15 14  1  0
 15 24  1  0
 15 16  1  0
 17 11  1  0
 17 16  1  0
 18 11  2  0
 19 20  1  0
 21 22  2  0
 22 41  1  0
 23 22  1  0
 23 26  1  0
 24 25  1  0
 24 21  1  0
 25 23  2  0
 26 27  1  0
 27 28  2  0
 29 32  1  0
 29 28  1  0
 30 29  2  0
 31 30  1  0
 31 26  2  0
 32 33  1  0
 33 34  1  0
 34 35  2  0
 36 35  1  0
 36 40  1  0
 37 36  2  0
 38 33  2  0
 38 37  1  0
 39 38  1  0
 41 42  1  0
 42 45  1  0
 42 44  1  0
 43 41  2  0
 46 21  1  0
 46 47  1  0
 48 46  1  0
 49 50  1  0
 49  1  1  0
 51 62  2  0
 52 50  1  0
 52 57  1  0
 53 61  1  0
 53 63  1  0
 54 60  1  0
 54 56  1  0
 55 61  1  0
 56 57  2  0
 56 55  1  0
 58 52  2  0
 59 58  1  0
 59 54  2  0
 60 53  1  0
 61 51  1  0
 63 65  2  0
 64 63  1  0
 66 64  1  0
 67 76  2  0
 67 72  1  0
 68 64  1  0
 68 72  1  0
 69 68  1  0
 70 71  1  0
 70 69  1  0
 71 67  1  0
 72 73  2  0
 73 74  1  0
 75 74  2  0
 76 75  1  0
 77 51  1  0
 77 78  1  0
 77 87  1  0
 78 81  1  0
 79 83  1  0
 79 78  1  0
 80 79  2  0
 83 82  1  0
 85 83  1  0
 85 86  1  0
 85 84  1  0
 87 90  1  1
 87 88  1  0
 89 87  1  0
M  ISO  4  11 100  19 100  49 101  50 101
M  END
>  <TORSDO>  (68) 
F 18

>  <SCORE>  (68) 
-14.395

>  <name>  (68) 
69

>  <ligand_id>  (68) 
69

>  <original_smiles>  (68) 
[H]c1c([H])c([H])c2c(c1[H])C([H])([H])C([H])([H])C([H])([H])C2([H])N([H])C(=O)C1([H])N(C(=O)C([H])(N([H])C(=O)C([H])(N([H])C([H])([H])[H])C([H])([H])[H])C(C([H])([H])[H])(C([H])([H])[H])C([H])([H])[H])C([H])([H])c2c([H])c(OC([H])([H])C(=O)N3C([H])([H])C([H])([H])C([H])([H])C3([H])C3([H])C([H])([H])C3([H])N([H])C(=O)N3C([H])([H])C([H])([H])C([H])([H])C([H])(n4nc(-c5c([H])c([H])c(Oc6c([H])c([H])c(F)c([H])c6F)c([H])c5[H])c(C(=O)N([H])[H])c4N([H])[H])C3([H])[H])c([H])c([H])c2C1([H])[H]

>  <smiles>  (68) 
[H]c1c([H])c([H])c2c(c1[H])C([H])([H])C([H])([H])C([H])([H])C2([H])N([H])C(=O)C1([H])N(C(=O)C([H])(N([H])C(=O)C([H])(N([H])C([H])([H])[H])C([H])([H])[H])C(C([H])([H])[H])(C([H])([H])[H])C([H])([H])[H])C([H])([H])c2c([H])c(OC([H])([H])C(=O)N3C([H])([H])C([H])([H])C([H])([H])C3([H])C3([H])C([H])([H])C3([H])N([H])C(=O)N3C([H])([H])C([H])([H])C([H])([H])C([H])(n4nc(-c5c([H])c([H])c(Oc6c([H])c([H])c(F)c([H])c6F)c([H])c5[H])c(C(=O)N([H])[H])c4N([H])[H])C3([H])[H])c([H])c([H])c2C1([H])[H]

$$$$
70:0:0
     RDKit          3D

 94103  0  0  1  0  0  0  0  0999 V2000
  -31.1660  -22.4640   20.1850 C   0  0  0  0  0  2  0  0  0  0  0  0
  -30.6900  -23.9320   20.1750 C   0  0  0  0  0  2  0  0  0  0  0  0
  -29.8820  -21.6670   20.4630 C   0  0  0  0  0  3  0  0  0  0  0  0
  -29.3000  -23.8930   19.5080 C   0  0  0  0  0  3  0  0  0  0  0  0
  -28.8350  -22.4600   19.7290 N   0  0  0  0  0  4  0  0  0  0  0  0
  -27.9680  -22.4310   20.2390 H   0  0  0  0  0  0  0  0  0  0  0  0
  -28.6780  -22.0270   18.8320 H   0  0  0  0  0  0  0  0  0  0  0  0
  -31.2000  -19.3920   20.1390 C   0  0  0  0  0  3  0  0  0  0  0  0
  -31.3180  -17.9660   20.2010 C   0  0  0  0  0  3  0  0  0  0  0  0
  -28.9560  -17.8190   20.5900 C   0  0  0  0  0  3  0  0  0  0  0  0
  -29.9630  -20.0840   20.3240 C   0  0  0  0  0  0  0  0  0  0  0  0
  -28.8320  -19.2400   20.5430 C   0  0  0  0  0  0  0  0  0  0  0  0
  -30.1910  -17.1390   20.4440 C   0  0  0  0  0  0  0  0  0  0  0  0
  -27.4500  -19.8310   20.7750 C   0  0  0  0  0  1  0  0  0  0  0  0
  -30.9400  -14.6770   19.9960 C   0  0  0  0  0  0  0  0  0  0  0  0
  -30.6610  -12.4610   18.8960 C   0  0  0  0  0  2  0  0  0  0  0  0
  -29.6470  -12.6290   17.7410 C   0  0  0  0  0  2  0  0  0  0  0  0
  -28.1980  -12.4820   18.2480 C   0  0  0  0  0  2  0  0  0  0  0  0
  -27.9250  -13.3250   19.5230 C   0  0  0  0  0  3  0  0  0  0  0  0
  -29.0410  -13.1080   20.5710 C   0  0  0  0  0  2  0  0  0  0  0  0
  -30.3240  -13.4530   19.9360 N   0  0  0  0  0  0  0  0  0  0  0  0
  -32.0540  -14.8640   19.4950 O   0  0  0  0  0  0  0  0  0  0  0  0
  -30.1800  -15.6790   20.5330 N   0  0  0  0  0  0  0  0  0  0  0  0
  -29.3670  -15.3060   20.9980 H   0  0  0  0  0  0  0  0  0  0  0  0
  -25.5920  -13.9570   20.4010 C   0  0  0  0  0  0  0  0  0  0  0  0
  -24.5290  -13.1950   20.8020 C   0  0  0  0  0  0  0  0  0  0  0  0
  -24.9510  -11.8340   20.6890 C   0  0  0  0  0  0  0  0  0  0  0  0
  -26.5980  -13.0610   20.0720 N   0  0  0  0  0  0  0  0  0  0  0  0
  -26.2200  -11.7770   20.3030 N   0  0  0  0  0  0  0  0  0  0  0  0
  -24.2040  -10.5840   20.8730 C   0  0  0  0  0  0  0  0  0  0  0  0
  -24.5880   -9.6300   21.8410 C   0  0  0  0  0  3  0  0  0  0  0  0
  -23.8430   -8.4430   22.0100 C   0  0  0  0  0  3  0  0  0  0  0  0
  -22.7010   -8.2020   21.2120 C   0  0  0  0  0  0  0  0  0  0  0  0
  -22.3350   -9.1440   20.2340 C   0  0  0  0  0  3  0  0  0  0  0  0
  -23.0810  -10.3220   20.0630 C   0  0  0  0  0  3  0  0  0  0  0  0
  -21.9310   -7.0660   21.2900 O   0  0  0  0  0  0  0  0  0  0  0  0
  -21.7160   -6.4230   22.4810 C   0  0  0  0  0  0  0  0  0  0  0  0
  -21.1150   -7.0740   23.5820 C   0  0  0  0  0  3  0  0  0  0  0  0
  -20.8490   -6.3560   24.7640 C   0  0  0  0  0  3  0  0  0  0  0  0
  -21.1730   -4.9880   24.8470 C   0  0  0  0  0  0  0  0  0  0  0  0
  -21.7660   -4.3370   23.7510 C   0  0  0  0  0  3  0  0  0  0  0  0
  -22.0340   -5.0530   22.5710 C   0  0  0  0  0  0  0  0  0  0  0  0
  -22.5860   -4.4160   21.5100 F   0  0  0  0  0  0  0  0  0  0  0  0
  -20.9100   -4.2970   25.9810 F   0  0  0  0  0  0  0  0  0  0  0  0
  -23.1630  -13.6940   21.1790 C   0  0  0  0  0  0  0  0  0  0  0  0
  -22.4770  -12.9870   22.0700 N   0  0  0  0  0  0  0  0  0  0  0  0
  -22.7160  -14.7440   20.7180 O   0  0  0  0  0  0  0  0  0  0  0  0
  -22.8510  -12.1360   22.4620 H   0  0  0  0  0  0  0  0  0  0  0  0
  -21.5630  -13.3020   22.3660 H   0  0  0  0  0  0  0  0  0  0  0  0
  -25.7830  -15.3290   20.2710 N   0  0  0  0  0  0  0  0  0  0  0  0
  -25.0380  -15.9940   20.4510 H   0  0  0  0  0  0  0  0  0  0  0  0
  -26.6190  -15.7630   19.9010 H   0  0  0  0  0  0  0  0  0  0  0  0
  -28.2870  -25.0510   19.9520 C   0  0  0  0  0  2  0  0  0  0  0  0
  -28.4520  -26.4420   19.4520 O   0  0  0  0  0  0  0  0  0  0  0  0
  -24.7340  -31.5510   22.9640 C   0  0  0  0  0  0  0  0  0  0  0  0
  -27.3300  -27.2820   19.5120 C   0  0  0  0  0  0  0  0  0  0  0  0
  -23.5110  -30.2730   21.2410 C   0  0  0  0  0  3  0  0  0  0  0  0
  -24.9500  -28.8580   19.6710 C   0  0  0  0  0  0  0  0  0  0  0  0
  -26.0430  -30.6360   21.0370 C   0  0  0  0  0  2  0  0  0  0  0  0
  -26.1250  -29.3120   20.2850 C   0  0  0  0  0  0  0  0  0  0  0  0
  -27.3200  -28.5370   20.1970 C   0  0  0  0  0  3  0  0  0  0  0  0
  -26.1380  -26.8920   18.8620 C   0  0  0  0  0  3  0  0  0  0  0  0
  -24.9590  -27.6550   18.9480 C   0  0  0  0  0  3  0  0  0  0  0  0
  -23.7050  -29.7100   19.8080 C   0  0  0  0  0  2  0  0  0  0  0  0
  -24.7820  -30.8330   21.8040 N   0  0  0  0  0  0  0  0  0  0  0  0
  -23.6590  -31.7730   23.5390 O   0  0  0  0  0  0  0  0  0  0  0  0
  -22.8800  -29.1750   22.1300 C   0  0  0  0  0  0  0  0  0  0  0  0
  -21.5480  -29.0200   22.0430 N   0  0  0  0  0  0  0  0  0  0  0  0
  -23.5840  -28.4700   22.8570 O   0  0  0  0  0  0  0  0  0  0  0  0
  -21.0390  -29.6440   21.4320 H   0  0  0  0  0  0  0  0  0  0  0  0
  -18.1700  -27.8660   22.6350 C   0  0  0  0  0  0  0  0  0  0  0  0
  -20.7480  -28.0220   22.7550 C   0  0  0  0  0  3  0  0  0  0  0  0
  -20.7610  -26.6640   22.0140 C   0  0  0  0  0  2  0  0  0  0  0  0
  -19.5840  -26.4920   21.0490 C   0  0  0  0  0  2  0  0  0  0  0  0
  -18.2540  -26.6000   21.7990 C   0  0  0  0  0  2  0  0  0  0  0  0
  -19.3420  -28.5420   23.0700 C   0  0  0  0  0  0  0  0  0  0  0  0
  -19.2060  -29.7340   23.8150 C   0  0  0  0  0  3  0  0  0  0  0  0
  -17.9340  -30.2470   24.1270 C   0  0  0  0  0  3  0  0  0  0  0  0
  -16.7780  -29.5660   23.7080 C   0  0  0  0  0  3  0  0  0  0  0  0
  -16.8980  -28.3770   22.9660 C   0  0  0  0  0  3  0  0  0  0  0  0
  -26.0230  -32.1450   23.6110 C   0  0  0  0  0  3  0  0  0  0  0  0
  -25.6970  -33.4960   24.0900 N   0  0  0  0  0  0  0  0  0  0  0  0
  -25.9890  -34.6270   23.4330 C   0  0  0  0  0  0  0  0  0  0  0  0
  -26.6320  -34.6430   22.3790 O   0  0  0  0  0  0  0  0  0  0  0  0
  -25.1250  -33.5570   24.9180 H   0  0  0  0  0  0  0  0  0  0  0  0
  -24.2210  -36.4090   23.3070 C   0  0  0  0  0  1  0  0  0  0  0  0
  -25.4910  -35.9520   24.0420 C   0  0  0  0  0  3  0  0  0  0  0  0
  -27.6270  -36.7930   24.9100 C   0  0  0  0  0  1  0  0  0  0  0  0
  -26.4990  -37.0320   24.0140 N   0  0  0  0  0  0  0  0  0  0  0  0
  -26.0800  -37.9230   24.2640 H   0  0  0  0  0  0  0  0  0  0  0  0
  -26.5910  -31.2610   24.7900 C   0  0  1  0  0  0  0  0  0  0  0  0
  -25.5330  -30.8960   25.8590 C   0  0  0  0  0  1  0  0  0  0  0  0
  -27.1870  -29.9420   24.2460 C   0  0  0  0  0  1  0  0  0  0  0  0
  -27.7470  -32.0100   25.4940 C   0  0  0  0  0  1  0  0  0  0  0  0
  1  3  1  0
  2  1  1  0
  3 11  1  0
  4  5  1  0
  4 53  1  0
  4  2  1  0
  5  6  1  0
  5  3  1  0
  7  5  1  0
  8  9  2  0
  8 11  1  0
  9 13  1  0
 11 12  2  0
 12 10  1  0
 12 14  1  0
 13 23  1  0
 13 10  2  0
 15 23  1  0
 16 21  1  0
 17 18  1  0
 17 16  1  0
 19 18  1  0
 19 28  1  0
 19 20  1  0
 21 15  1  0
 21 20  1  0
 22 15  2  0
 23 24  1  0
 25 26  2  0
 26 45  1  0
 27 26  1  0
 27 30  1  0
 28 29  1  0
 28 25  1  0
 29 27  2  0
 30 31  1  0
 31 32  2  0
 33 36  1  0
 33 32  1  0
 34 33  2  0
 35 34  1  0
 35 30  2  0
 36 37  1  0
 37 42  2  0
 37 38  1  0
 38 39  2  0
 39 40  1  0
 40 44  1  0
 41 40  2  0
 42 41  1  0
 43 42  1  0
 45 46  1  0
 46 49  1  0
 46 48  1  0
 47 45  2  0
 50 25  1  0
 50 51  1  0
 52 50  1  0
 54 56  1  0
 54 53  1  0
 55 66  2  0
 56 61  1  0
 57 65  1  0
 57 67  1  0
 58 64  1  0
 58 60  1  0
 59 65  1  0
 60 59  1  0
 61 60  2  0
 62 63  1  0
 62 56  2  0
 63 58  2  0
 64 57  1  0
 65 55  1  0
 67 69  2  0
 68 67  1  0
 70 68  1  0
 71 80  2  0
 71 76  1  0
 72 68  1  0
 72 76  1  0
 73 72  1  0
 74 75  1  0
 74 73  1  0
 75 71  1  0
 76 77  2  0
 77 78  1  0
 79 78  2  0
 80 79  1  0
 81 55  1  0
 81 82  1  0
 81 91  1  0
 82 85  1  0
 83 87  1  0
 83 82  1  0
 84 83  2  0
 87 86  1  0
 89 87  1  0
 89 90  1  0
 89 88  1  0
 91 94  1  1
 91 92  1  0
 93 91  1  0
M  ISO  4  15 100  23 100  53 101  54 101
M  END
>  <TORSDO>  (69) 
F 18

>  <SCORE>  (69) 
-12.683

>  <name>  (69) 
70

>  <ligand_id>  (69) 
70

>  <original_smiles>  (69) 
[H]c1c([H])c([H])c2c(c1[H])C([H])([H])C([H])([H])C([H])([H])C2([H])N([H])C(=O)C1([H])N(C(=O)C([H])(N([H])C(=O)C([H])(N([H])C([H])([H])[H])C([H])([H])[H])C(C([H])([H])[H])(C([H])([H])[H])C([H])([H])[H])C([H])([H])c2c([H])c(OC([H])([H])C3([H])C([H])([H])C([H])([H])C([H])(c4c([H])c([H])c(N([H])C(=O)N5C([H])([H])C([H])([H])C([H])([H])C([H])(n6nc(-c7c([H])c([H])c(Oc8c([H])c([H])c(F)c([H])c8F)c([H])c7[H])c(C(=O)N([H])[H])c6N([H])[H])C5([H])[H])c([H])c4C([H])([H])[H])[N+]3([H])[H])c([H])c([H])c2C1([H])[H]

>  <smiles>  (69) 
[H]c1c([H])c([H])c2c(c1[H])C([H])([H])C([H])([H])C([H])([H])C2([H])N([H])C(=O)C1([H])N(C(=O)C([H])(N([H])C(=O)C([H])(N([H])C([H])([H])[H])C([H])([H])[H])C(C([H])([H])[H])(C([H])([H])[H])C([H])([H])[H])C([H])([H])c2c([H])c(OC([H])([H])C3([H])C([H])([H])C([H])([H])C([H])(c4c([H])c([H])c(N([H])C(=O)N5C([H])([H])C([H])([H])C([H])([H])C([H])(n6nc(-c7c([H])c([H])c(Oc8c([H])c([H])c(F)c([H])c8F)c([H])c7[H])c(C(=O)N([H])[H])c6N([H])[H])C5([H])[H])c([H])c4C([H])([H])[H])[N+]3([H])[H])c([H])c([H])c2C1([H])[H]

$$$$
71:0:0
     RDKit          3D

 98107  0  0  1  0  0  0  0  0999 V2000
  -29.1590  -20.6110   20.2690 C   0  0  0  0  0  0  0  0  0  0  0  0
  -28.8200  -19.3940   20.7680 N   0  0  0  0  0  0  0  0  0  0  0  0
  -29.9790  -20.7300   19.3560 O   0  0  0  0  0  0  0  0  0  0  0  0
  -28.2180  -19.4280   21.5830 H   0  0  0  0  0  0  0  0  0  0  0  0
  -28.6080  -18.1420   18.5950 C   0  0  0  0  0  2  0  0  0  0  0  0
  -30.7650  -17.2550   18.7510 C   0  0  0  0  0  2  0  0  0  0  0  0
  -28.8760  -18.0530   20.1100 C   0  0  0  0  0  3  0  0  0  0  0  0
  -30.2200  -17.2470   20.2100 C   0  0  0  0  0  3  0  0  0  0  0  0
  -29.9950  -18.0850   16.5350 C   0  0  0  0  0  1  0  0  0  0  0  0
  -29.9520  -18.2300   18.0040 N   0  0  1  0  0  4  0  0  0  0  0  0
  -30.2900  -19.1560   18.2450 H   0  0  0  0  0  0  0  0  0  0  0  0
  -30.8670  -14.7890   20.4810 C   0  0  0  0  0  0  0  0  0  0  0  0
  -30.6280  -12.6060   19.3690 C   0  0  0  0  0  2  0  0  0  0  0  0
  -29.7090  -12.8090   18.1450 C   0  0  0  0  0  2  0  0  0  0  0  0
  -28.2260  -12.6700   18.5440 C   0  0  0  0  0  2  0  0  0  0  0  0
  -27.8610  -13.4980   19.8070 C   0  0  0  0  0  3  0  0  0  0  0  0
  -28.8990  -13.2820   20.9330 C   0  0  0  0  0  2  0  0  0  0  0  0
  -30.2290  -13.5900   20.3880 N   0  0  0  0  0  0  0  0  0  0  0  0
  -32.0270  -14.9590   20.1010 O   0  0  0  0  0  0  0  0  0  0  0  0
  -30.0510  -15.8480   20.7050 N   0  0  0  0  0  0  0  0  0  0  0  0
  -29.1360  -15.6050   21.0530 H   0  0  0  0  0  0  0  0  0  0  0  0
  -25.4500  -14.0970   20.4770 C   0  0  0  0  0  0  0  0  0  0  0  0
  -24.3820  -13.3220   20.8370 C   0  0  0  0  0  0  0  0  0  0  0  0
  -24.8470  -11.9720   20.8120 C   0  0  0  0  0  0  0  0  0  0  0  0
  -26.5030  -13.2180   20.2630 N   0  0  0  0  0  0  0  0  0  0  0  0
  -26.1410  -11.9360   20.5210 N   0  0  0  0  0  0  0  0  0  0  0  0
  -24.1190  -10.7090   20.9900 C   0  0  0  0  0  0  0  0  0  0  0  0
  -24.5060   -9.7680   21.9700 C   0  0  0  0  0  3  0  0  0  0  0  0
  -23.7790   -8.5680   22.1350 C   0  0  0  0  0  3  0  0  0  0  0  0
  -22.6530   -8.3020   21.3210 C   0  0  0  0  0  0  0  0  0  0  0  0
  -22.2880   -9.2320   20.3310 C   0  0  0  0  0  3  0  0  0  0  0  0
  -23.0140  -10.4230   20.1640 C   0  0  0  0  0  3  0  0  0  0  0  0
  -21.9050   -7.1530   21.3930 O   0  0  0  0  0  0  0  0  0  0  0  0
  -21.7580   -6.4630   22.5690 C   0  0  0  0  0  0  0  0  0  0  0  0
  -21.1690   -7.0510   23.7080 C   0  0  0  0  0  3  0  0  0  0  0  0
  -20.9720   -6.2850   24.8750 C   0  0  0  0  0  3  0  0  0  0  0  0
  -21.3550   -4.9310   24.9010 C   0  0  0  0  0  0  0  0  0  0  0  0
  -21.9400   -4.3420   23.7650 C   0  0  0  0  0  3  0  0  0  0  0  0
  -22.1360   -5.1050   22.6010 C   0  0  0  0  0  0  0  0  0  0  0  0
  -22.6780   -4.5290   21.5010 F   0  0  0  0  0  0  0  0  0  0  0  0
  -21.1610   -4.1910   26.0170 F   0  0  0  0  0  0  0  0  0  0  0  0
  -22.9790  -13.7950   21.0870 C   0  0  0  0  0  0  0  0  0  0  0  0
  -22.2440  -13.1050   21.9510 N   0  0  0  0  0  0  0  0  0  0  0  0
  -22.5430  -14.8130   20.5480 O   0  0  0  0  0  0  0  0  0  0  0  0
  -22.6080  -12.2830   22.4110 H   0  0  0  0  0  0  0  0  0  0  0  0
  -21.3010  -13.4040   22.1590 H   0  0  0  0  0  0  0  0  0  0  0  0
  -25.6060  -15.4650   20.2870 N   0  0  0  0  0  0  0  0  0  0  0  0
  -24.7990  -16.0810   20.3210 H   0  0  0  0  0  0  0  0  0  0  0  0
  -26.3970  -15.8780   19.8160 H   0  0  0  0  0  0  0  0  0  0  0  0
  -26.9500  -21.8810   20.1790 C   0  0  0  0  0  2  0  0  0  0  0  0
  -27.4830  -22.8420   19.1170 C   0  0  0  0  0  2  0  0  0  0  0  0
  -28.3680  -21.8630   20.7660 C   0  0  0  0  0  3  0  0  0  0  0  0
  -28.6410  -23.1020   19.9860 N   0  0  2  0  0  4  0  0  0  0  0  0
  -29.5080  -22.9420   19.4880 H   0  0  0  0  0  0  0  0  0  0  0  0
  -27.4250  -24.6810   21.6190 C   0  0  0  0  0  1  0  0  0  0  0  0
  -28.6430  -24.4470   20.6860 C   0  0  0  0  0  3  0  0  0  0  0  0
  -28.8410  -25.6330   19.6830 C   0  0  0  0  0  2  0  0  0  0  0  0
  -28.6830  -26.9530   20.2600 O   0  0  0  0  0  0  0  0  0  0  0  0
  -24.6260  -31.9900   23.2790 C   0  0  0  0  0  0  0  0  0  0  0  0
  -27.4650  -27.6210   20.2250 C   0  0  0  0  0  0  0  0  0  0  0  0
  -23.4960  -30.5600   21.6120 C   0  0  0  0  0  3  0  0  0  0  0  0
  -25.0210  -29.0700   20.2150 C   0  0  0  0  0  0  0  0  0  0  0  0
  -26.0160  -30.9890   21.4640 C   0  0  0  0  0  2  0  0  0  0  0  0
  -26.1550  -29.6210   20.8210 C   0  0  0  0  0  0  0  0  0  0  0  0
  -27.3770  -28.9060   20.8220 C   0  0  0  0  0  3  0  0  0  0  0  0
  -26.2960  -27.0870   19.6270 C   0  0  0  0  0  3  0  0  0  0  0  0
  -25.0850  -27.8020   19.6180 C   0  0  0  0  0  3  0  0  0  0  0  0
  -23.7550  -29.8980   20.2340 C   0  0  0  0  0  2  0  0  0  0  0  0
  -24.7290  -31.1960   22.1760 N   0  0  0  0  0  0  0  0  0  0  0  0
  -23.5270  -32.2270   23.7990 O   0  0  0  0  0  0  0  0  0  0  0  0
  -22.8590  -29.5140   22.5540 C   0  0  0  0  0  0  0  0  0  0  0  0
  -21.5470  -29.2750   22.3850 N   0  0  0  0  0  0  0  0  0  0  0  0
  -23.5410  -28.9180   23.3910 O   0  0  0  0  0  0  0  0  0  0  0  0
  -21.0550  -29.8160   21.6870 H   0  0  0  0  0  0  0  0  0  0  0  0
  -18.2090  -27.9510   22.7860 C   0  0  0  0  0  0  0  0  0  0  0  0
  -20.7450  -28.3060   23.1310 C   0  0  0  0  0  3  0  0  0  0  0  0
  -20.9190  -26.8790   22.5600 C   0  0  0  0  0  2  0  0  0  0  0  0
  -19.8600  -26.5140   21.5160 C   0  0  0  0  0  2  0  0  0  0  0  0
  -18.4560  -26.6080   22.1190 C   0  0  0  0  0  2  0  0  0  0  0  0
  -19.2860  -28.7540   23.2470 C   0  0  0  0  0  0  0  0  0  0  0  0
  -19.0020  -30.0100   23.8290 C   0  0  0  0  0  3  0  0  0  0  0  0
  -17.6760  -30.4610   23.9570 C   0  0  0  0  0  3  0  0  0  0  0  0
  -16.6130  -29.6570   23.5090 C   0  0  0  0  0  3  0  0  0  0  0  0
  -16.8820  -28.4020   22.9310 C   0  0  0  0  0  3  0  0  0  0  0  0
  -25.8800  -32.6580   23.9260 C   0  0  0  0  0  3  0  0  0  0  0  0
  -26.3850  -31.9110   25.2220 C   0  0  1  0  0  0  0  0  0  0  0  0
  -25.2640  -31.6210   26.2470 C   0  0  0  0  0  1  0  0  0  0  0  0
  -27.0460  -30.5620   24.8490 C   0  0  0  0  0  1  0  0  0  0  0  0
  -27.4660  -32.7590   25.9300 C   0  0  0  0  0  1  0  0  0  0  0  0
  -25.5280  -34.0520   24.2340 N   0  0  0  0  0  0  0  0  0  0  0  0
  -25.8450  -35.1040   23.4680 C   0  0  0  0  0  0  0  0  0  0  0  0
  -26.5370  -35.0070   22.4510 O   0  0  0  0  0  0  0  0  0  0  0  0
  -24.9140  -34.2010   25.0230 H   0  0  0  0  0  0  0  0  0  0  0  0
  -24.0750  -36.8440   23.0600 C   0  0  0  0  0  1  0  0  0  0  0  0
  -25.3100  -36.4830   23.9000 C   0  0  0  0  0  3  0  0  0  0  0  0
  -27.3970  -37.4410   24.7680 C   0  0  0  0  0  1  0  0  0  0  0  0
  -26.3140  -37.5630   23.7960 N   0  0  0  0  0  0  0  0  0  0  0  0
  -25.8780  -38.4720   23.9210 H   0  0  0  0  0  0  0  0  0  0  0  0
  1  2  1  0
  2  4  1  0
  3  1  2  0
  5  7  1  0
  6  8  1  0
  7  8  1  0
  7  2  1  0
  8 20  1  0
  9 10  1  0
 10 11  1  6
 10  5  1  0
 10  6  1  0
 12 20  1  0
 13 18  1  0
 14 15  1  0
 14 13  1  0
 16 15  1  0
 16 25  1  0
 16 17  1  0
 18 12  1  0
 18 17  1  0
 19 12  2  0
 20 21  1  0
 22 23  2  0
 23 42  1  0
 24 23  1  0
 24 27  1  0
 25 22  1  0
 25 26  1  0
 26 24  2  0
 27 28  1  0
 28 29  2  0
 30 33  1  0
 30 29  1  0
 31 30  2  0
 32 31  1  0
 32 27  2  0
 33 34  1  0
 34 39  2  0
 34 35  1  0
 35 36  2  0
 36 37  1  0
 37 41  1  0
 38 37  2  0
 39 38  1  0
 40 39  1  0
 42 43  1  0
 43 46  1  0
 43 45  1  0
 44 42  2  0
 47 48  1  0
 47 22  1  0
 49 47  1  0
 50 52  1  0
 51 53  1  0
 51 50  1  0
 52  1  1  0
 53 56  1  0
 53 52  1  0
 53 54  1  6
 56 55  1  0
 57 58  1  0
 57 56  1  0
 59 70  2  0
 60 58  1  0
 60 65  1  0
 61 69  1  0
 61 71  1  0
 62 68  1  0
 62 64  1  0
 63 69  1  0
 64 65  2  0
 64 63  1  0
 66 60  2  0
 67 66  1  0
 67 62  2  0
 68 61  1  0
 69 59  1  0
 71 73  2  0
 72 71  1  0
 74 72  1  0
 75 84  2  0
 75 80  1  0
 76 72  1  0
 76 80  1  0
 77 76  1  0
 78 79  1  0
 78 77  1  0
 79 75  1  0
 80 81  2  0
 81 82  1  0
 83 82  2  0
 84 83  1  0
 85 59  1  0
 85 90  1  0
 85 86  1  0
 86 89  1  1
 86 87  1  0
 88 86  1  0
 90 93  1  0
 91 95  1  0
 91 90  1  0
 92 91  2  0
 95 94  1  0
 97 95  1  0
 97 98  1  0
 97 96  1  0
M  ISO  4  12 100  20 100  57 101  58 101
M  END
>  <TORSDO>  (70) 
F 20

>  <SCORE>  (70) 
-13.795

>  <name>  (70) 
71

>  <ligand_id>  (70) 
71

>  <original_smiles>  (70) 
[H]c1c([H])c([H])c2c(c1[H])C([H])([H])C([H])([H])C([H])([H])C2([H])N([H])C(=O)C1([H])N(C(=O)C([H])(N([H])C(=O)C([H])(N([H])C([H])([H])[H])C([H])([H])[H])C(C([H])([H])[H])(C([H])([H])[H])C([H])([H])[H])C([H])([H])c2c([H])c(OC([H])([H])C([H])(C([H])([H])[H])[N+]3([H])C([H])([H])C([H])([H])C3([H])C(=O)N([H])C3([H])C([H])(N([H])C(=O)N4C([H])([H])C([H])([H])C([H])([H])C([H])(n5nc(-c6c([H])c([H])c(Oc7c([H])c([H])c(F)c([H])c7F)c([H])c6[H])c(C(=O)N([H])[H])c5N([H])[H])C4([H])[H])C([H])([H])[N+]([H])(C([H])([H])[H])C3([H])[H])c([H])c([H])c2C1([H])[H]

>  <smiles>  (70) 
[H]c1c([H])c([H])c2c(c1[H])C([H])([H])C([H])([H])C([H])([H])C2([H])N([H])C(=O)C1([H])N(C(=O)C([H])(N([H])C(=O)C([H])(N([H])C([H])([H])[H])C([H])([H])[H])C(C([H])([H])[H])(C([H])([H])[H])C([H])([H])[H])C([H])([H])c2c([H])c(OC([H])([H])C([H])(C([H])([H])[H])[N+]3([H])C([H])([H])C([H])([H])C3([H])C(=O)N([H])C3([H])C([H])(N([H])C(=O)N4C([H])([H])C([H])([H])C([H])([H])C([H])(n5nc(-c6c([H])c([H])c(Oc7c([H])c([H])c(F)c([H])c7F)c([H])c6[H])c(C(=O)N([H])[H])c5N([H])[H])C4([H])[H])C([H])([H])[N+]([H])(C([H])([H])[H])C3([H])[H])c([H])c([H])c2C1([H])[H]

$$$$
72:0:0
     RDKit          3D

 95103  0  0  1  0  0  0  0  0999 V2000
  -27.8820  -19.4840   18.0890 C   0  0  0  0  0  0  0  0  0  0  0  0
  -27.2380  -20.1870   19.2640 C   0  0  0  0  0  2  0  0  0  0  0  0
  -29.2160  -18.8740   18.4890 C   0  0  0  0  0  2  0  0  0  0  0  0
  -28.4200  -20.3270   20.2410 C   0  0  0  0  0  3  0  0  0  0  0  0
  -29.3070  -19.1490   19.9500 N   0  0  1  0  0  4  0  0  0  0  0  0
  -27.3880  -19.4180   16.9600 O   0  0  0  0  0  0  0  0  0  0  0  0
  -30.2510  -19.4610   20.1390 H   0  0  0  0  0  0  0  0  0  0  0  0
  -29.1530  -21.6840   20.0130 C   0  0  0  0  0  0  0  0  0  0  0  0
  -28.4770  -22.8350   20.2160 N   0  0  0  0  0  0  0  0  0  0  0  0
  -30.3180  -21.6790   19.6090 O   0  0  0  0  0  0  0  0  0  0  0  0
  -27.5280  -22.7590   20.5600 H   0  0  0  0  0  0  0  0  0  0  0  0
  -28.9370  -24.1980   19.8640 C   0  0  0  0  0  2  0  0  0  0  0  0
  -28.3030  -25.3080   20.7450 C   0  0  0  0  0  2  0  0  0  0  0  0
  -28.4460  -26.6400   20.1950 O   0  0  0  0  0  0  0  0  0  0  0  0
  -24.6370  -31.8540   23.2190 C   0  0  0  0  0  0  0  0  0  0  0  0
  -27.2930  -27.3990   20.1670 C   0  0  0  0  0  0  0  0  0  0  0  0
  -23.4370  -30.4460   21.5770 C   0  0  0  0  0  3  0  0  0  0  0  0
  -24.8990  -28.9110   20.1550 C   0  0  0  0  0  0  0  0  0  0  0  0
  -25.9630  -30.8100   21.3830 C   0  0  0  0  0  2  0  0  0  0  0  0
  -26.0560  -29.4390   20.7440 C   0  0  0  0  0  0  0  0  0  0  0  0
  -27.2580  -28.6930   20.7420 C   0  0  0  0  0  3  0  0  0  0  0  0
  -26.1230  -26.8970   19.5570 C   0  0  0  0  0  3  0  0  0  0  0  0
  -24.9280  -27.6400   19.5560 C   0  0  0  0  0  3  0  0  0  0  0  0
  -23.6510  -29.7640   20.2000 C   0  0  0  0  0  2  0  0  0  0  0  0
  -24.6980  -31.0520   22.1190 N   0  0  0  0  0  0  0  0  0  0  0  0
  -23.5560  -32.1250   23.7580 O   0  0  0  0  0  0  0  0  0  0  0  0
  -22.7870  -29.4260   22.5400 C   0  0  0  0  0  0  0  0  0  0  0  0
  -21.4610  -29.2480   22.4180 N   0  0  0  0  0  0  0  0  0  0  0  0
  -23.4720  -28.7970   23.3520 O   0  0  0  0  0  0  0  0  0  0  0  0
  -20.9680  -29.8070   21.7350 H   0  0  0  0  0  0  0  0  0  0  0  0
  -18.0850  -28.0730   22.9400 C   0  0  0  0  0  0  0  0  0  0  0  0
  -20.6460  -28.3120   23.1920 C   0  0  0  0  0  3  0  0  0  0  0  0
  -20.7340  -26.8820   22.6080 C   0  0  0  0  0  2  0  0  0  0  0  0
  -19.6210  -26.5740   21.6010 C   0  0  0  0  0  2  0  0  0  0  0  0
  -18.2460  -26.7260   22.2560 C   0  0  0  0  0  2  0  0  0  0  0  0
  -19.2120  -28.8240   23.3660 C   0  0  0  0  0  0  0  0  0  0  0  0
  -19.0070  -30.0860   23.9650 C   0  0  0  0  0  3  0  0  0  0  0  0
  -17.7080  -30.5970   24.1440 C   0  0  0  0  0  3  0  0  0  0  0  0
  -16.5950  -29.8410   23.7360 C   0  0  0  0  0  3  0  0  0  0  0  0
  -16.7840  -28.5820   23.1390 C   0  0  0  0  0  3  0  0  0  0  0  0
  -25.9210  -32.4920   23.8390 C   0  0  0  0  0  3  0  0  0  0  0  0
  -26.4520  -31.7120   25.1050 C   0  0  1  0  0  0  0  0  0  0  0  0
  -25.3670  -31.4590   26.1770 C   0  0  0  0  0  1  0  0  0  0  0  0
  -27.0410  -30.3420   24.6950 C   0  0  0  0  0  1  0  0  0  0  0  0
  -27.6030  -32.5070   25.7640 C   0  0  0  0  0  1  0  0  0  0  0  0
  -25.6030  -33.8830   24.1820 N   0  0  0  0  0  0  0  0  0  0  0  0
  -25.9220  -34.9440   23.4280 C   0  0  0  0  0  0  0  0  0  0  0  0
  -26.5860  -34.8520   22.3910 O   0  0  0  0  0  0  0  0  0  0  0  0
  -25.0170  -34.0280   24.9900 H   0  0  0  0  0  0  0  0  0  0  0  0
  -24.1780  -36.7250   23.0940 C   0  0  0  0  0  1  0  0  0  0  0  0
  -25.4260  -36.3250   23.8980 C   0  0  0  0  0  3  0  0  0  0  0  0
  -27.5540  -37.2190   24.7320 C   0  0  0  0  0  1  0  0  0  0  0  0
  -26.4490  -37.3870   23.7920 N   0  0  0  0  0  0  0  0  0  0  0  0
  -26.0350  -38.3020   23.9500 H   0  0  0  0  0  0  0  0  0  0  0  0
  -29.0720  -17.9310   20.8040 C   0  0  0  0  0  2  0  0  0  0  0  0
  -30.6600  -14.4940   20.3990 C   0  0  0  0  0  0  0  0  0  0  0  0
  -30.3660  -12.3090   19.2940 C   0  0  0  0  0  2  0  0  0  0  0  0
  -29.4360  -12.5040   18.0780 C   0  0  0  0  0  2  0  0  0  0  0  0
  -27.9560  -12.3830   18.4960 C   0  0  0  0  0  2  0  0  0  0  0  0
  -27.6100  -13.2270   19.7520 C   0  0  0  0  0  3  0  0  0  0  0  0
  -28.6590  -13.0230   20.8700 C   0  0  0  0  0  2  0  0  0  0  0  0
  -29.9870  -13.3120   20.3030 N   0  0  0  0  0  0  0  0  0  0  0  0
  -31.8320  -14.5950   20.0240 O   0  0  0  0  0  0  0  0  0  0  0  0
  -30.2090  -16.8880   20.6550 C   0  0  0  0  0  0  0  0  0  0  0  0
  -29.8900  -15.5670   20.7140 N   0  0  0  0  0  0  0  0  0  0  0  0
  -31.3470  -17.3250   20.4510 O   0  0  0  0  0  0  0  0  0  0  0  0
  -28.9350  -15.3470   20.9420 H   0  0  0  0  0  0  0  0  0  0  0  0
  -25.2070  -13.8480   20.4290 C   0  0  0  0  0  0  0  0  0  0  0  0
  -24.1330  -13.0820   20.7990 C   0  0  0  0  0  0  0  0  0  0  0  0
  -24.5920  -11.7300   20.7920 C   0  0  0  0  0  0  0  0  0  0  0  0
  -26.2510  -12.9600   20.2210 N   0  0  0  0  0  0  0  0  0  0  0  0
  -25.8860  -11.6820   20.4980 N   0  0  0  0  0  0  0  0  0  0  0  0
  -23.8610  -10.4710   20.9900 C   0  0  0  0  0  0  0  0  0  0  0  0
  -24.2770   -9.5140   21.9420 C   0  0  0  0  0  3  0  0  0  0  0  0
  -23.5440   -8.3210   22.1230 C   0  0  0  0  0  3  0  0  0  0  0  0
  -22.3820   -8.0780   21.3530 C   0  0  0  0  0  0  0  0  0  0  0  0
  -21.9860   -9.0220   20.3910 C   0  0  0  0  0  3  0  0  0  0  0  0
  -22.7190  -10.2060   20.2070 C   0  0  0  0  0  3  0  0  0  0  0  0
  -21.6230   -6.9350   21.4460 O   0  0  0  0  0  0  0  0  0  0  0  0
  -21.5550   -6.2080   22.6070 C   0  0  0  0  0  0  0  0  0  0  0  0
  -21.1040   -6.7790   23.8170 C   0  0  0  0  0  3  0  0  0  0  0  0
  -20.9820   -5.9780   24.9720 C   0  0  0  0  0  3  0  0  0  0  0  0
  -21.3010   -4.6090   24.9160 C   0  0  0  0  0  0  0  0  0  0  0  0
  -21.7430   -4.0370   23.7110 C   0  0  0  0  0  3  0  0  0  0  0  0
  -21.8670   -4.8330   22.5590 C   0  0  0  0  0  0  0  0  0  0  0  0
  -22.2730   -4.2740   21.3940 F   0  0  0  0  0  0  0  0  0  0  0  0
  -21.1770   -3.8360   26.0210 F   0  0  0  0  0  0  0  0  0  0  0  0
  -22.7340  -13.5670   21.0470 C   0  0  0  0  0  0  0  0  0  0  0  0
  -21.9900  -12.8850   21.9130 N   0  0  0  0  0  0  0  0  0  0  0  0
  -22.3060  -14.5870   20.5080 O   0  0  0  0  0  0  0  0  0  0  0  0
  -22.3430  -12.0610   22.3760 H   0  0  0  0  0  0  0  0  0  0  0  0
  -21.0530  -13.1990   22.1220 H   0  0  0  0  0  0  0  0  0  0  0  0
  -25.3720  -15.2150   20.2280 N   0  0  0  0  0  0  0  0  0  0  0  0
  -24.5860  -15.8520   20.2920 H   0  0  0  0  0  0  0  0  0  0  0  0
  -26.1820  -15.6280   19.7890 H   0  0  0  0  0  0  0  0  0  0  0  0
  1  3  1  0
  1  2  1  0
  2  4  1  0
  3  5  1  0
  4  8  1  0
  5  7  1  6
  5  4  1  0
  5 55  1  0
  6  1  2  0
  8  9  1  0
  9 11  1  0
 10  8  2  0
 12  9  1  0
 12 13  1  0
 14 13  1  0
 15 26  2  0
 16 14  1  0
 16 21  1  0
 17 25  1  0
 17 27  1  0
 18 24  1  0
 18 20  1  0
 19 25  1  0
 20 19  1  0
 21 20  2  0
 22 16  2  0
 23 22  1  0
 23 18  2  0
 24 17  1  0
 25 15  1  0
 27 29  2  0
 28 27  1  0
 30 28  1  0
 31 40  2  0
 31 36  1  0
 32 28  1  0
 32 36  1  0
 33 32  1  0
 34 35  1  0
 34 33  1  0
 35 31  1  0
 36 37  2  0
 37 38  1  0
 39 38  2  0
 40 39  1  0
 41 15  1  0
 41 46  1  0
 41 42  1  0
 42 45  1  1
 42 43  1  0
 44 42  1  0
 46 49  1  0
 47 51  1  0
 47 46  1  0
 48 47  2  0
 51 50  1  0
 53 51  1  0
 53 54  1  0
 53 52  1  0
 56 65  1  0
 57 62  1  0
 58 59  1  0
 58 57  1  0
 60 59  1  0
 60 71  1  0
 60 61  1  0
 62 56  1  0
 62 61  1  0
 63 56  2  0
 64 65  1  0
 64 55  1  0
 65 67  1  0
 66 64  2  0
 68 69  2  0
 69 88  1  0
 70 69  1  0
 70 73  1  0
 71 68  1  0
 71 72  1  0
 72 70  2  0
 73 74  1  0
 74 75  2  0
 76 79  1  0
 76 75  1  0
 77 76  2  0
 78 77  1  0
 78 73  2  0
 79 80  1  0
 80 81  1  0
 81 82  2  0
 83 82  1  0
 83 87  1  0
 84 83  2  0
 85 80  2  0
 85 84  1  0
 86 85  1  0
 88 89  1  0
 89 92  1  0
 89 91  1  0
 90 88  2  0
 93 94  1  0
 93 68  1  0
 95 93  1  0
M  ISO  4  13 101  14 101  56 100  65 100
M  END
>  <TORSDO>  (71) 
F 20

>  <SCORE>  (71) 
-13.843

>  <name>  (71) 
72

>  <ligand_id>  (71) 
72

>  <original_smiles>  (71) 
[H]c1c([H])c([H])c2c(c1[H])C([H])([H])C([H])([H])C([H])([H])C2([H])N([H])C(=O)C1([H])N(C(=O)C([H])(N([H])C(=O)C([H])(N([H])C([H])([H])[H])C([H])([H])[H])C(C([H])([H])[H])(C([H])([H])[H])C([H])([H])[H])C([H])([H])c2c([H])c(OC([H])([H])C([H])([H])N([H])C(=O)C3([H])C([H])([H])C(=O)C([H])([H])[N+]3([H])C([H])([H])C(=O)N([H])C(=O)N3C([H])([H])C([H])([H])C([H])([H])C([H])(n4nc(-c5c([H])c([H])c(Oc6c([H])c([H])c(F)c([H])c6F)c([H])c5[H])c(C(=O)N([H])[H])c4N([H])[H])C3([H])[H])c([H])c([H])c2C1([H])[H]

>  <smiles>  (71) 
[H]c1c([H])c([H])c2c(c1[H])C([H])([H])C([H])([H])C([H])([H])C2([H])N([H])C(=O)C1([H])N(C(=O)C([H])(N([H])C(=O)C([H])(N([H])C([H])([H])[H])C([H])([H])[H])C(C([H])([H])[H])(C([H])([H])[H])C([H])([H])[H])C([H])([H])c2c([H])c(OC([H])([H])C([H])([H])N([H])C(=O)C3([H])C([H])([H])C(=O)C([H])([H])[N+]3([H])C([H])([H])C(=O)N([H])C(=O)N3C([H])([H])C([H])([H])C([H])([H])C([H])(n4nc(-c5c([H])c([H])c(Oc6c([H])c([H])c(F)c([H])c6F)c([H])c5[H])c(C(=O)N([H])[H])c4N([H])[H])C3([H])[H])c([H])c([H])c2C1([H])[H]

$$$$
73:0:0
     RDKit          3D

 95103  0  0  1  0  0  0  0  0999 V2000
  -27.3740  -22.5430   20.4340 C   0  0  0  0  0  3  0  0  0  0  0  0
  -29.3120  -22.1930   19.0030 C   0  0  0  0  0  3  0  0  0  0  0  0
  -27.4710  -23.9380   20.2380 C   0  0  0  0  0  3  0  0  0  0  0  0
  -29.3930  -23.5940   18.7940 C   0  0  0  0  0  3  0  0  0  0  0  0
  -28.2860  -21.6490   19.8130 C   0  0  0  0  0  0  0  0  0  0  0  0
  -28.4610  -24.4790   19.3870 C   0  0  0  0  0  0  0  0  0  0  0  0
  -28.0420  -20.1650   19.8710 C   0  0  0  0  0  0  0  0  0  0  0  0
  -27.0700  -19.7010   19.2700 O   0  0  0  0  0  0  0  0  0  0  0  0
  -28.9390  -19.2130   20.7300 C   0  0  0  0  0  3  0  0  0  0  0  0
  -29.8000  -20.0200   21.6280 N   0  0  0  0  0  4  0  0  0  0  0  0
  -30.2290  -19.4480   22.3320 H   0  0  0  0  0  0  0  0  0  0  0  0
  -29.2180  -20.6900   22.1020 H   0  0  0  0  0  0  0  0  0  0  0  0
  -30.5110  -20.5310   21.1390 H   0  0  0  0  0  0  0  0  0  0  0  0
  -29.6690  -18.0610   19.8880 C   0  0  0  0  0  2  0  0  0  0  0  0
  -30.8710  -17.0860   20.2590 C   0  0  0  0  0  2  0  0  0  0  0  0
  -31.2970  -14.5760   19.8760 C   0  0  0  0  0  0  0  0  0  0  0  0
  -30.9890  -12.2950   18.9720 C   0  0  0  0  0  2  0  0  0  0  0  0
  -30.0150  -12.3930   17.7790 C   0  0  0  0  0  2  0  0  0  0  0  0
  -28.5520  -12.3190   18.2660 C   0  0  0  0  0  2  0  0  0  0  0  0
  -28.2640  -13.2890   19.4430 C   0  0  0  0  0  3  0  0  0  0  0  0
  -29.3450  -13.1360   20.5390 C   0  0  0  0  0  2  0  0  0  0  0  0
  -30.6520  -13.3790   19.9100 N   0  0  0  0  0  0  0  0  0  0  0  0
  -32.4160  -14.7170   19.3730 O   0  0  0  0  0  0  0  0  0  0  0  0
  -30.5530  -15.6280   20.2960 N   0  0  0  0  0  0  0  0  0  0  0  0
  -29.6590  -15.3690   20.6910 H   0  0  0  0  0  0  0  0  0  0  0  0
  -25.9520  -14.0500   20.2760 C   0  0  0  0  0  0  0  0  0  0  0  0
  -24.8520  -13.3520   20.6910 C   0  0  0  0  0  0  0  0  0  0  0  0
  -25.2140  -11.9710   20.6180 C   0  0  0  0  0  0  0  0  0  0  0  0
  -26.9190  -13.1020   19.9820 N   0  0  0  0  0  0  0  0  0  0  0  0
  -26.4820  -11.8450   20.2460 N   0  0  0  0  0  0  0  0  0  0  0  0
  -24.4120  -10.7620   20.8290 C   0  0  0  0  0  0  0  0  0  0  0  0
  -24.7770   -9.7950   21.7910 C   0  0  0  0  0  3  0  0  0  0  0  0
  -23.9810   -8.6470   21.9910 C   0  0  0  0  0  3  0  0  0  0  0  0
  -22.8020   -8.4610   21.2300 C   0  0  0  0  0  0  0  0  0  0  0  0
  -22.4530   -9.4160   20.2580 C   0  0  0  0  0  3  0  0  0  0  0  0
  -23.2500  -10.5560   20.0580 C   0  0  0  0  0  3  0  0  0  0  0  0
  -21.9830   -7.3640   21.3300 O   0  0  0  0  0  0  0  0  0  0  0  0
  -21.8180   -6.7000   22.5180 C   0  0  0  0  0  0  0  0  0  0  0  0
  -21.3370   -7.3510   23.6740 C   0  0  0  0  0  3  0  0  0  0  0  0
  -21.1150   -6.6150   24.8570 C   0  0  0  0  0  3  0  0  0  0  0  0
  -21.3660   -5.2300   24.8810 C   0  0  0  0  0  0  0  0  0  0  0  0
  -21.8430   -4.5790   23.7290 C   0  0  0  0  0  3  0  0  0  0  0  0
  -22.0640   -5.3130   22.5500 C   0  0  0  0  0  0  0  0  0  0  0  0
  -22.5020   -4.6770   21.4370 F   0  0  0  0  0  0  0  0  0  0  0  0
  -21.1450   -4.5210   26.0130 F   0  0  0  0  0  0  0  0  0  0  0  0
  -23.5090  -13.9220   21.0440 C   0  0  0  0  0  0  0  0  0  0  0  0
  -22.7880  -13.2740   21.9490 N   0  0  0  0  0  0  0  0  0  0  0  0
  -23.1120  -14.9770   20.5480 O   0  0  0  0  0  0  0  0  0  0  0  0
  -23.1310  -12.4230   22.3720 H   0  0  0  0  0  0  0  0  0  0  0  0
  -21.8900  -13.6400   22.2280 H   0  0  0  0  0  0  0  0  0  0  0  0
  -26.2020  -15.4090   20.1020 N   0  0  0  0  0  0  0  0  0  0  0  0
  -25.4690  -16.0970   20.2260 H   0  0  0  0  0  0  0  0  0  0  0  0
  -27.0250  -15.7710   19.6400 H   0  0  0  0  0  0  0  0  0  0  0  0
  -28.5010  -25.9670   19.0060 C   0  0  0  0  0  2  0  0  0  0  0  0
  -28.2370  -26.9160   20.0460 O   0  0  0  0  0  0  0  0  0  0  0  0
  -24.5840  -31.9790   23.4320 C   0  0  0  0  0  0  0  0  0  0  0  0
  -27.0560  -27.6390   20.0680 C   0  0  0  0  0  0  0  0  0  0  0  0
  -23.3020  -30.6800   21.7650 C   0  0  0  0  0  3  0  0  0  0  0  0
  -24.6830  -29.1840   20.2210 C   0  0  0  0  0  0  0  0  0  0  0  0
  -25.8230  -31.0010   21.5070 C   0  0  0  0  0  2  0  0  0  0  0  0
  -25.8630  -29.6560   20.8070 C   0  0  0  0  0  0  0  0  0  0  0  0
  -27.0450  -28.8840   20.7400 C   0  0  0  0  0  3  0  0  0  0  0  0
  -25.8570  -27.1890   19.4680 C   0  0  0  0  0  3  0  0  0  0  0  0
  -24.6740  -27.9480   19.5490 C   0  0  0  0  0  3  0  0  0  0  0  0
  -23.4570  -30.0610   20.3480 C   0  0  0  0  0  2  0  0  0  0  0  0
  -24.5920  -31.2300   22.2950 N   0  0  0  0  0  0  0  0  0  0  0  0
  -23.5260  -32.2420   24.0170 O   0  0  0  0  0  0  0  0  0  0  0  0
  -22.6560  -29.6300   22.6940 C   0  0  0  0  0  0  0  0  0  0  0  0
  -21.3410  -29.4160   22.5320 N   0  0  0  0  0  0  0  0  0  0  0  0
  -23.3380  -29.0070   23.5120 O   0  0  0  0  0  0  0  0  0  0  0  0
  -20.8480  -29.9920   21.8600 H   0  0  0  0  0  0  0  0  0  0  0  0
  -18.0220  -28.0160   22.8140 C   0  0  0  0  0  0  0  0  0  0  0  0
  -20.5300  -28.4330   23.2520 C   0  0  0  0  0  3  0  0  0  0  0  0
  -20.7660  -27.0050   22.7120 C   0  0  0  0  0  2  0  0  0  0  0  0
  -19.7570  -26.5950   21.6360 C   0  0  0  0  0  2  0  0  0  0  0  0
  -18.3270  -26.6660   22.1830 C   0  0  0  0  0  2  0  0  0  0  0  0
  -19.0600  -28.8490   23.3000 C   0  0  0  0  0  0  0  0  0  0  0  0
  -18.7320  -30.1080   23.8480 C   0  0  0  0  0  3  0  0  0  0  0  0
  -17.3970  -30.5420   23.9090 C   0  0  0  0  0  3  0  0  0  0  0  0
  -16.3680  -29.7020   23.4460 C   0  0  0  0  0  3  0  0  0  0  0  0
  -16.6790  -28.4400   22.9070 C   0  0  0  0  0  3  0  0  0  0  0  0
  -25.9010  -32.5510   24.0420 C   0  0  0  0  0  3  0  0  0  0  0  0
  -25.6510  -33.9540   24.3950 N   0  0  0  0  0  0  0  0  0  0  0  0
  -26.0210  -35.0030   23.6510 C   0  0  0  0  0  0  0  0  0  0  0  0
  -26.6840  -34.8900   22.6160 O   0  0  0  0  0  0  0  0  0  0  0  0
  -25.0660  -34.1200   25.2020 H   0  0  0  0  0  0  0  0  0  0  0  0
  -24.3650  -36.8680   23.3270 C   0  0  0  0  0  1  0  0  0  0  0  0
  -25.5900  -36.4020   24.1300 C   0  0  0  0  0  3  0  0  0  0  0  0
  -27.7570  -37.1880   24.9740 C   0  0  0  0  0  1  0  0  0  0  0  0
  -26.6620  -37.4150   24.0330 N   0  0  0  0  0  0  0  0  0  0  0  0
  -26.2920  -38.3470   24.2000 H   0  0  0  0  0  0  0  0  0  0  0  0
  -26.4110  -31.7390   25.2980 C   0  0  1  0  0  0  0  0  0  0  0  0
  -25.3230  -31.5090   26.3720 C   0  0  0  0  0  1  0  0  0  0  0  0
  -26.9520  -30.3560   24.8670 C   0  0  0  0  0  1  0  0  0  0  0  0
  -27.5880  -32.4900   25.9650 C   0  0  0  0  0  1  0  0  0  0  0  0
  2  5  1  0
  3  1  1  0
  4  2  2  0
  4  6  1  0
  5  7  1  0
  5  1  2  0
  6  3  2  0
  7  9  1  0
  8  7  2  0
  9 14  1  0
  9 10  1  0
 10 12  1  0
 10 11  1  0
 13 10  1  0
 14 15  1  0
 15 24  1  0
 16 22  1  0
 16 24  1  0
 17 22  1  0
 18 19  1  0
 18 17  1  0
 20 19  1  0
 20 29  1  0
 20 21  1  0
 22 21  1  0
 23 16  2  0
 24 25  1  0
 26 27  2  0
 27 46  1  0
 28 27  1  0
 28 31  1  0
 29 30  1  0
 29 26  1  0
 30 28  2  0
 31 32  1  0
 32 33  2  0
 34 37  1  0
 34 33  1  0
 35 34  2  0
 36 35  1  0
 36 31  2  0
 37 38  1  0
 38 43  2  0
 38 39  1  0
 39 40  2  0
 40 41  1  0
 41 45  1  0
 42 41  2  0
 43 42  1  0
 44 43  1  0
 46 47  1  0
 47 50  1  0
 47 49  1  0
 48 46  2  0
 51 52  1  0
 51 26  1  0
 53 51  1  0
 54  6  1  0
 54 55  1  0
 55 57  1  0
 56 67  2  0
 57 62  1  0
 58 66  1  0
 58 68  1  0
 59 65  1  0
 59 61  1  0
 60 66  1  0
 61 60  1  0
 62 61  2  0
 63 64  1  0
 63 57  2  0
 64 59  2  0
 65 58  1  0
 66 56  1  0
 68 70  2  0
 69 68  1  0
 71 69  1  0
 72 81  2  0
 72 77  1  0
 73 69  1  0
 73 77  1  0
 74 73  1  0
 75 76  1  0
 75 74  1  0
 76 72  1  0
 77 78  2  0
 78 79  1  0
 80 79  2  0
 81 80  1  0
 82 56  1  0
 82 83  1  0
 82 92  1  0
 83 86  1  0
 84 88  1  0
 84 83  1  0
 85 84  2  0
 88 87  1  0
 90 88  1  0
 90 91  1  0
 90 89  1  0
 92 95  1  1
 92 93  1  0
 94 92  1  0
M  ISO  4  16 100  24 100  54 101  55 101
M  END
>  <TORSDO>  (72) 
F 22

>  <SCORE>  (72) 
-12.586

>  <name>  (72) 
73

>  <ligand_id>  (72) 
73

>  <original_smiles>  (72) 
[H]c1c([H])c([H])c2c(c1[H])C([H])([H])C([H])([H])C([H])([H])C2([H])N([H])C(=O)C1([H])N(C(=O)C([H])(N([H])C(=O)C([H])(N([H])C([H])([H])[H])C([H])([H])[H])C(C([H])([H])[H])(C([H])([H])[H])C([H])([H])[H])C([H])([H])c2c([H])c(OC([H])([H])c3c([H])c([H])c(C(=O)C([H])(C([H])([H])C([H])([H])N([H])C(=O)N4C([H])([H])C([H])([H])C([H])([H])C([H])(n5nc(-c6c([H])c([H])c(Oc7c([H])c([H])c(F)c([H])c7F)c([H])c6[H])c(C(=O)N([H])[H])c5N([H])[H])C4([H])[H])[N+]([H])([H])[H])c([H])c3[H])c([H])c([H])c2C1([H])[H]

>  <smiles>  (72) 
[H]c1c([H])c([H])c2c(c1[H])C([H])([H])C([H])([H])C([H])([H])C2([H])N([H])C(=O)C1([H])N(C(=O)C([H])(N([H])C(=O)C([H])(N([H])C([H])([H])[H])C([H])([H])[H])C(C([H])([H])[H])(C([H])([H])[H])C([H])([H])[H])C([H])([H])c2c([H])c(OC([H])([H])c3c([H])c([H])c(C(=O)C([H])(C([H])([H])C([H])([H])N([H])C(=O)N4C([H])([H])C([H])([H])C([H])([H])C([H])(n5nc(-c6c([H])c([H])c(Oc7c([H])c([H])c(F)c([H])c7F)c([H])c6[H])c(C(=O)N([H])[H])c5N([H])[H])C4([H])[H])[N+]([H])([H])[H])c([H])c3[H])c([H])c([H])c2C1([H])[H]

$$$$
74:0:0
     RDKit          3D

 95103  0  0  1  0  0  0  0  0999 V2000
  -27.9600  -20.4820   20.3850 C   0  0  0  0  0  3  0  0  0  0  0  0
  -27.4990  -19.1570   20.4180 C   0  0  0  0  0  3  0  0  0  0  0  0
  -29.3280  -20.7630   20.2210 C   0  0  0  0  0  0  0  0  0  0  0  0
  -30.2560  -19.6690   20.1350 C   0  0  0  0  0  0  0  0  0  0  0  0
  -29.7820  -18.3030   20.1090 C   0  0  0  0  0  0  0  0  0  0  0  0
  -28.3880  -18.0830   20.2510 C   0  0  0  0  0  0  0  0  0  0  0  0
  -31.7480  -19.9940   20.0350 C   0  0  0  0  0  1  0  0  0  0  0  0
  -27.8590  -16.8370   20.1940 F   0  0  0  0  0  0  0  0  0  0  0  0
  -30.9220  -17.0330   18.2750 C   0  0  0  0  0  1  0  0  0  0  0  0
  -30.7230  -17.0940   19.8060 C   0  0  0  0  0  3  0  0  0  0  0  0
  -31.0150  -14.6040   20.1350 C   0  0  0  0  0  0  0  0  0  0  0  0
  -30.6020  -12.4490   19.0310 C   0  0  0  0  0  2  0  0  0  0  0  0
  -29.6460  -12.7140   17.8490 C   0  0  0  0  0  2  0  0  0  0  0  0
  -28.1760  -12.6220   18.3120 C   0  0  0  0  0  2  0  0  0  0  0  0
  -27.8960  -13.4200   19.6160 C   0  0  0  0  0  3  0  0  0  0  0  0
  -28.9880  -13.1910   20.6840 C   0  0  0  0  0  2  0  0  0  0  0  0
  -30.2960  -13.4480   20.0640 N   0  0  0  0  0  0  0  0  0  0  0  0
  -32.1980  -14.6630   19.7950 O   0  0  0  0  0  0  0  0  0  0  0  0
  -30.3030  -15.7450   20.2790 N   0  0  0  0  0  0  0  0  0  0  0  0
  -29.3300  -15.6650   20.5450 H   0  0  0  0  0  0  0  0  0  0  0  0
  -25.5310  -14.0380   20.4130 C   0  0  0  0  0  0  0  0  0  0  0  0
  -24.4620  -13.2730   20.7980 C   0  0  0  0  0  0  0  0  0  0  0  0
  -24.9030  -11.9160   20.7270 C   0  0  0  0  0  0  0  0  0  0  0  0
  -26.5590  -13.1490   20.1370 N   0  0  0  0  0  0  0  0  0  0  0  0
  -26.1860  -11.8660   20.3830 N   0  0  0  0  0  0  0  0  0  0  0  0
  -24.1600  -10.6620   20.9070 C   0  0  0  0  0  0  0  0  0  0  0  0
  -24.5350   -9.7100   21.8810 C   0  0  0  0  0  3  0  0  0  0  0  0
  -23.7910   -8.5230   22.0490 C   0  0  0  0  0  3  0  0  0  0  0  0
  -22.6540   -8.2790   21.2430 C   0  0  0  0  0  0  0  0  0  0  0  0
  -22.2940   -9.2190   20.2610 C   0  0  0  0  0  3  0  0  0  0  0  0
  -23.0400  -10.3980   20.0910 C   0  0  0  0  0  3  0  0  0  0  0  0
  -21.8840   -7.1440   21.3190 O   0  0  0  0  0  0  0  0  0  0  0  0
  -21.6870   -6.4840   22.5060 C   0  0  0  0  0  0  0  0  0  0  0  0
  -21.0850   -7.1140   23.6160 C   0  0  0  0  0  3  0  0  0  0  0  0
  -20.8350   -6.3780   24.7930 C   0  0  0  0  0  3  0  0  0  0  0  0
  -21.1840   -5.0160   24.8600 C   0  0  0  0  0  0  0  0  0  0  0  0
  -21.7840   -4.3880   23.7560 C   0  0  0  0  0  3  0  0  0  0  0  0
  -22.0320   -5.1200   22.5790 C   0  0  0  0  0  0  0  0  0  0  0  0
  -22.5880   -4.5020   21.5090 F   0  0  0  0  0  0  0  0  0  0  0  0
  -20.9400   -4.3090   25.9890 F   0  0  0  0  0  0  0  0  0  0  0  0
  -23.0810  -13.7670   21.1220 C   0  0  0  0  0  0  0  0  0  0  0  0
  -22.3690  -13.0730   22.0050 N   0  0  0  0  0  0  0  0  0  0  0  0
  -22.6410  -14.8060   20.6290 O   0  0  0  0  0  0  0  0  0  0  0  0
  -22.7370  -12.2380   22.4360 H   0  0  0  0  0  0  0  0  0  0  0  0
  -21.4400  -13.3880   22.2540 H   0  0  0  0  0  0  0  0  0  0  0  0
  -25.7030  -15.4090   20.2580 N   0  0  0  0  0  0  0  0  0  0  0  0
  -24.9480  -16.0670   20.4050 H   0  0  0  0  0  0  0  0  0  0  0  0
  -26.5930  -15.8660   20.0920 H   0  0  0  0  0  0  0  0  0  0  0  0
  -29.7040  -22.2560   20.0560 C   0  0  0  0  0  2  0  0  0  0  0  0
  -29.4540  -23.0850   21.2670 N   0  0  0  0  0  4  0  0  0  0  0  0
  -30.3500  -23.3870   21.6210 H   0  0  0  0  0  0  0  0  0  0  0  0
  -29.0800  -22.4640   21.9690 H   0  0  0  0  0  0  0  0  0  0  0  0
  -28.5310  -24.2660   21.1470 C   0  0  0  0  0  2  0  0  0  0  0  0
  -28.9640  -25.3750   20.1400 C   0  0  0  0  0  2  0  0  0  0  0  0
  -28.7200  -26.7330   20.5720 O   0  0  0  0  0  0  0  0  0  0  0  0
  -24.5680  -31.8240   23.2790 C   0  0  0  0  0  0  0  0  0  0  0  0
  -27.4940  -27.3690   20.4570 C   0  0  0  0  0  0  0  0  0  0  0  0
  -23.4850  -30.3430   21.6190 C   0  0  0  0  0  3  0  0  0  0  0  0
  -25.0500  -28.8100   20.3060 C   0  0  0  0  0  0  0  0  0  0  0  0
  -26.0070  -30.7690   21.5370 C   0  0  0  0  0  2  0  0  0  0  0  0
  -26.1610  -29.3870   20.9310 C   0  0  0  0  0  0  0  0  0  0  0  0
  -27.3810  -28.6760   20.9920 C   0  0  0  0  0  3  0  0  0  0  0  0
  -26.3590  -26.8010   19.8340 C   0  0  0  0  0  3  0  0  0  0  0  0
  -25.1450  -27.5160   19.7560 C   0  0  0  0  0  3  0  0  0  0  0  0
  -23.7810  -29.6320   20.2720 C   0  0  0  0  0  2  0  0  0  0  0  0
  -24.7010  -30.9990   22.2020 N   0  0  0  0  0  0  0  0  0  0  0  0
  -23.4530  -32.0800   23.7590 O   0  0  0  0  0  0  0  0  0  0  0  0
  -22.8150  -29.3330   22.5760 C   0  0  0  0  0  0  0  0  0  0  0  0
  -21.5000  -29.1180   22.4010 N   0  0  0  0  0  0  0  0  0  0  0  0
  -23.4780  -28.7410   23.4340 O   0  0  0  0  0  0  0  0  0  0  0  0
  -21.0270  -29.6530   21.6860 H   0  0  0  0  0  0  0  0  0  0  0  0
  -18.1280  -27.8950   22.8200 C   0  0  0  0  0  0  0  0  0  0  0  0
  -20.6730  -28.1770   23.1550 C   0  0  0  0  0  3  0  0  0  0  0  0
  -20.8040  -26.7430   22.5910 C   0  0  0  0  0  2  0  0  0  0  0  0
  -19.7320  -26.4070   21.5480 C   0  0  0  0  0  2  0  0  0  0  0  0
  -18.3330  -26.5460   22.1530 C   0  0  0  0  0  2  0  0  0  0  0  0
  -19.2270  -28.6680   23.2750 C   0  0  0  0  0  0  0  0  0  0  0  0
  -18.9820  -29.9340   23.8520 C   0  0  0  0  0  3  0  0  0  0  0  0
  -17.6690  -30.4230   23.9840 C   0  0  0  0  0  3  0  0  0  0  0  0
  -16.5830  -29.6450   23.5490 C   0  0  0  0  0  3  0  0  0  0  0  0
  -16.8130  -28.3830   22.9700 C   0  0  0  0  0  3  0  0  0  0  0  0
  -25.8030  -32.5100   23.9460 C   0  0  0  0  0  3  0  0  0  0  0  0
  -25.4440  -33.9070   24.2190 N   0  0  0  0  0  0  0  0  0  0  0  0
  -25.7760  -34.9440   23.4390 C   0  0  0  0  0  0  0  0  0  0  0  0
  -26.4850  -34.8270   22.4370 O   0  0  0  0  0  0  0  0  0  0  0  0
  -24.8130  -34.0680   24.9900 H   0  0  0  0  0  0  0  0  0  0  0  0
  -24.0050  -36.6700   22.9740 C   0  0  0  0  0  1  0  0  0  0  0  0
  -25.2330  -36.3330   23.8340 C   0  0  0  0  0  3  0  0  0  0  0  0
  -27.3090  -37.3170   24.7040 C   0  0  0  0  0  1  0  0  0  0  0  0
  -26.2380  -37.4130   23.7160 N   0  0  0  0  0  0  0  0  0  0  0  0
  -25.7990  -38.3250   23.8100 H   0  0  0  0  0  0  0  0  0  0  0  0
  -26.2780  -31.7930   25.2700 C   0  0  1  0  0  0  0  0  0  0  0  0
  -25.1400  -31.5450   26.2880 C   0  0  0  0  0  1  0  0  0  0  0  0
  -26.9270  -30.4270   24.9500 C   0  0  0  0  0  1  0  0  0  0  0  0
  -27.3610  -32.6500   25.9690 C   0  0  0  0  0  1  0  0  0  0  0  0
  1  2  1  0
  3  1  2  0
  4  3  1  0
  5  4  2  0
  5  6  1  0
  6  2  2  0
  7  4  1  0
  8  6  1  0
 10  9  1  0
 10  5  1  0
 10 19  1  0
 11 19  1  0
 12 17  1  0
 13 14  1  0
 13 12  1  0
 15 14  1  0
 15 24  1  0
 15 16  1  0
 17 11  1  0
 17 16  1  0
 18 11  2  0
 19 20  1  0
 21 22  2  0
 22 41  1  0
 23 22  1  0
 23 26  1  0
 24 25  1  0
 24 21  1  0
 25 23  2  0
 26 27  1  0
 27 28  2  0
 29 32  1  0
 29 28  1  0
 30 29  2  0
 31 30  1  0
 31 26  2  0
 32 33  1  0
 33 38  2  0
 33 34  1  0
 34 35  2  0
 35 36  1  0
 36 40  1  0
 37 36  2  0
 38 37  1  0
 39 38  1  0
 41 42  1  0
 42 45  1  0
 42 44  1  0
 43 41  2  0
 46 47  1  0
 46 21  1  0
 48 46  1  0
 49  3  1  0
 49 50  1  0
 50 51  1  0
 50 52  1  0
 53 50  1  0
 54 55  1  0
 54 53  1  0
 56 67  2  0
 57 55  1  0
 57 62  1  0
 58 66  1  0
 58 68  1  0
 59 61  1  0
 60 66  1  0
 61 62  2  0
 61 60  1  0
 63 57  2  0
 64 63  1  0
 64 59  2  0
 65 59  1  0
 65 58  1  0
 66 56  1  0
 68 70  2  0
 69 68  1  0
 71 69  1  0
 72 81  2  0
 72 77  1  0
 73 69  1  0
 73 77  1  0
 74 73  1  0
 75 76  1  0
 75 74  1  0
 76 72  1  0
 77 78  2  0
 78 79  1  0
 80 79  2  0
 81 80  1  0
 82 56  1  0
 82 83  1  0
 82 92  1  0
 83 86  1  0
 84 88  1  0
 84 83  1  0
 85 84  2  0
 88 87  1  0
 90 91  1  0
 90 88  1  0
 90 89  1  0
 92 95  1  1
 92 93  1  0
 94 92  1  0
M  ISO  4  11 100  19 100  54 101  55 101
M  END
>  <TORSDO>  (73) 
F 21

>  <SCORE>  (73) 
-13.092

>  <name>  (73) 
74

>  <ligand_id>  (73) 
74

>  <original_smiles>  (73) 
[H]c1c([H])c([H])c2c(c1[H])C([H])([H])C([H])([H])C([H])([H])C2([H])N([H])C(=O)C1([H])N(C(=O)C([H])(N([H])C(=O)C([H])(N([H])C([H])([H])[H])C([H])([H])[H])C(C([H])([H])[H])(C([H])([H])[H])C([H])([H])[H])C([H])([H])c2c([H])c(OC([H])([H])C([H])([H])[N+]([H])([H])C([H])([H])c3c([H])c([H])c(F)c(C([H])(N([H])C(=O)N4C([H])([H])C([H])([H])C([H])([H])C([H])(n5nc(-c6c([H])c([H])c(Oc7c([H])c([H])c(F)c([H])c7F)c([H])c6[H])c(C(=O)N([H])[H])c5N([H])[H])C4([H])[H])C([H])([H])[H])c3C([H])([H])[H])c([H])c([H])c2C1([H])[H]

>  <smiles>  (73) 
[H]c1c([H])c([H])c2c(c1[H])C([H])([H])C([H])([H])C([H])([H])C2([H])N([H])C(=O)C1([H])N(C(=O)C([H])(N([H])C(=O)C([H])(N([H])C([H])([H])[H])C([H])([H])[H])C(C([H])([H])[H])(C([H])([H])[H])C([H])([H])[H])C([H])([H])c2c([H])c(OC([H])([H])C([H])([H])[N+]([H])([H])C([H])([H])c3c([H])c([H])c(F)c(C([H])(N([H])C(=O)N4C([H])([H])C([H])([H])C([H])([H])C([H])(n5nc(-c6c([H])c([H])c(Oc7c([H])c([H])c(F)c([H])c7F)c([H])c6[H])c(C(=O)N([H])[H])c5N([H])[H])C4([H])[H])C([H])([H])[H])c3C([H])([H])[H])c([H])c([H])c2C1([H])[H]

$$$$
75:0:0
     RDKit          3D

 94102  0  0  1  0  0  0  0  0999 V2000
  -29.6580  -20.0620   20.3850 C   0  0  0  0  0  3  0  0  0  0  0  0
  -27.4150  -19.3870   18.9100 C   0  0  0  0  0  3  0  0  0  0  0  0
  -29.4710  -18.6550   20.0300 C   0  0  0  0  0  0  0  0  0  0  0  0
  -27.6090  -20.7440   19.2640 C   0  0  0  0  0  0  0  0  0  0  0  0
  -28.7630  -21.1480   19.9960 C   0  0  0  0  0  0  0  0  0  0  0  0
  -28.3190  -18.3690   19.2700 C   0  0  0  0  0  0  0  0  0  0  0  0
  -26.5050  -21.7170   18.8730 C   0  0  0  0  0  1  0  0  0  0  0  0
  -28.0700  -17.1010   18.8670 F   0  0  0  0  0  0  0  0  0  0  0  0
  -28.6740  -23.7910   19.8390 C   0  0  0  0  0  0  0  0  0  0  0  0
  -28.9040  -22.5610   20.4590 N   0  0  0  0  0  0  0  0  0  0  0  0
  -28.7410  -23.8990   18.6120 O   0  0  0  0  0  0  0  0  0  0  0  0
  -29.0770  -22.6510   21.4520 H   0  0  0  0  0  0  0  0  0  0  0  0
  -28.3260  -25.1040   20.7010 C   0  0  0  0  0  2  0  0  0  0  0  0
  -28.4530  -26.4740   20.0960 O   0  0  0  0  0  0  0  0  0  0  0  0
  -24.5920  -31.8290   23.1750 C   0  0  0  0  0  0  0  0  0  0  0  0
  -27.3380  -27.3370   20.1050 C   0  0  0  0  0  0  0  0  0  0  0  0
  -23.4520  -30.4440   21.4810 C   0  0  0  0  0  3  0  0  0  0  0  0
  -24.9590  -28.9360   20.0620 C   0  0  0  0  0  0  0  0  0  0  0  0
  -25.9910  -30.8000   21.3600 C   0  0  0  0  0  2  0  0  0  0  0  0
  -26.1090  -29.4290   20.6930 C   0  0  0  0  0  0  0  0  0  0  0  0
  -27.3060  -28.6440   20.6980 C   0  0  0  0  0  3  0  0  0  0  0  0
  -26.1670  -26.9020   19.4570 C   0  0  0  0  0  3  0  0  0  0  0  0
  -24.9930  -27.6810   19.4310 C   0  0  0  0  0  3  0  0  0  0  0  0
  -23.7090  -29.7960   20.0940 C   0  0  0  0  0  2  0  0  0  0  0  0
  -24.6970  -31.0420   22.0630 N   0  0  0  0  0  0  0  0  0  0  0  0
  -23.4910  -32.0810   23.6880 O   0  0  0  0  0  0  0  0  0  0  0  0
  -22.7790  -29.4010   22.4070 C   0  0  0  0  0  0  0  0  0  0  0  0
  -21.4520  -29.2390   22.2780 N   0  0  0  0  0  0  0  0  0  0  0  0
  -23.4540  -28.7410   23.2020 O   0  0  0  0  0  0  0  0  0  0  0  0
  -20.9660  -29.8250   21.6120 H   0  0  0  0  0  0  0  0  0  0  0  0
  -18.0570  -28.1000   22.7970 C   0  0  0  0  0  0  0  0  0  0  0  0
  -20.6270  -28.2800   23.0160 C   0  0  0  0  0  3  0  0  0  0  0  0
  -20.6770  -26.8810   22.3570 C   0  0  0  0  0  2  0  0  0  0  0  0
  -19.5430  -26.6460   21.3550 C   0  0  0  0  0  2  0  0  0  0  0  0
  -18.1810  -26.7870   22.0420 C   0  0  0  0  0  2  0  0  0  0  0  0
  -19.2050  -28.8090   23.2400 C   0  0  0  0  0  0  0  0  0  0  0  0
  -19.0330  -30.0400   23.9100 C   0  0  0  0  0  3  0  0  0  0  0  0
  -17.7460  -30.5630   24.1370 C   0  0  0  0  0  3  0  0  0  0  0  0
  -16.6120  -29.8500   23.7100 C   0  0  0  0  0  3  0  0  0  0  0  0
  -16.7690  -28.6190   23.0460 C   0  0  0  0  0  3  0  0  0  0  0  0
  -25.8480  -32.4720   23.8410 C   0  0  0  0  0  3  0  0  0  0  0  0
  -26.3270  -31.7010   25.1330 C   0  0  1  0  0  0  0  0  0  0  0  0
  -25.2000  -31.4520   26.1640 C   0  0  0  0  0  1  0  0  0  0  0  0
  -26.9330  -30.3300   24.7570 C   0  0  0  0  0  1  0  0  0  0  0  0
  -27.4500  -32.5020   25.8340 C   0  0  0  0  0  1  0  0  0  0  0  0
  -25.5180  -33.8680   24.1660 N   0  0  0  0  0  0  0  0  0  0  0  0
  -25.8700  -34.9250   23.4220 C   0  0  0  0  0  0  0  0  0  0  0  0
  -26.5720  -34.8280   22.4120 O   0  0  0  0  0  0  0  0  0  0  0  0
  -24.9010  -34.0170   24.9490 H   0  0  0  0  0  0  0  0  0  0  0  0
  -24.1400  -36.7070   23.0210 C   0  0  0  0  0  1  0  0  0  0  0  0
  -25.3610  -36.3110   23.8670 C   0  0  0  0  0  3  0  0  0  0  0  0
  -27.4600  -37.2120   24.7640 C   0  0  0  0  0  1  0  0  0  0  0  0
  -26.3900  -37.3700   23.7830 N   0  0  0  0  0  0  0  0  0  0  0  0
  -25.9720  -38.2880   23.9160 H   0  0  0  0  0  0  0  0  0  0  0  0
  -31.6700  -17.6600   19.3490 C   0  0  0  0  0  1  0  0  0  0  0  0
  -30.5180  -17.4880   20.3600 C   0  0  0  0  0  3  0  0  0  0  0  0
  -30.8100  -14.8210   20.3010 C   0  0  0  0  0  0  0  0  0  0  0  0
  -30.5340  -12.5580   19.2800 C   0  0  0  0  0  2  0  0  0  0  0  0
  -29.6130  -12.6690   18.0460 C   0  0  0  0  0  2  0  0  0  0  0  0
  -28.1350  -12.5370   18.4620 C   0  0  0  0  0  2  0  0  0  0  0  0
  -27.7760  -13.4290   19.6820 C   0  0  0  0  0  3  0  0  0  0  0  0
  -28.8230  -13.3110   20.8100 C   0  0  0  0  0  2  0  0  0  0  0  0
  -30.1290  -13.6260   20.2220 N   0  0  0  0  0  0  0  0  0  0  0  0
  -32.0170  -14.8370   20.0410 O   0  0  0  0  0  0  0  0  0  0  0  0
  -30.0890  -16.0050   20.4450 N   0  0  0  0  0  0  0  0  0  0  0  0
  -29.0970  -15.8760   20.5760 H   0  0  0  0  0  0  0  0  0  0  0  0
  -25.4000  -14.0740   20.3970 C   0  0  0  0  0  0  0  0  0  0  0  0
  -24.3120  -13.3280   20.7500 C   0  0  0  0  0  0  0  0  0  0  0  0
  -24.7380  -11.9650   20.7070 C   0  0  0  0  0  0  0  0  0  0  0  0
  -26.4230  -13.1710   20.1620 N   0  0  0  0  0  0  0  0  0  0  0  0
  -26.0310  -11.8960   20.4130 N   0  0  0  0  0  0  0  0  0  0  0  0
  -23.9730  -10.7230   20.8760 C   0  0  0  0  0  0  0  0  0  0  0  0
  -24.3700   -9.7280   21.7950 C   0  0  0  0  0  3  0  0  0  0  0  0
  -23.6030   -8.5530   21.9540 C   0  0  0  0  0  3  0  0  0  0  0  0
  -22.4260   -8.3660   21.1920 C   0  0  0  0  0  0  0  0  0  0  0  0
  -22.0490   -9.3490   20.2620 C   0  0  0  0  0  3  0  0  0  0  0  0
  -22.8160  -10.5150   20.1000 C   0  0  0  0  0  3  0  0  0  0  0  0
  -21.6340   -7.2450   21.2600 O   0  0  0  0  0  0  0  0  0  0  0  0
  -21.5790   -6.4710   22.3920 C   0  0  0  0  0  0  0  0  0  0  0  0
  -21.1710   -7.0000   23.6360 C   0  0  0  0  0  3  0  0  0  0  0  0
  -21.0570   -6.1550   24.7570 C   0  0  0  0  0  3  0  0  0  0  0  0
  -21.3430   -4.7820   24.6380 C   0  0  0  0  0  0  0  0  0  0  0  0
  -21.7450   -4.2520   23.3990 C   0  0  0  0  0  3  0  0  0  0  0  0
  -21.8580   -5.0940   22.2780 C   0  0  0  0  0  0  0  0  0  0  0  0
  -22.2240   -4.5740   21.0820 F   0  0  0  0  0  0  0  0  0  0  0  0
  -21.2270   -3.9680   25.7130 F   0  0  0  0  0  0  0  0  0  0  0  0
  -22.9270  -13.8440   21.0160 C   0  0  0  0  0  0  0  0  0  0  0  0
  -22.1730  -13.1660   21.8740 N   0  0  0  0  0  0  0  0  0  0  0  0
  -22.5230  -14.8860   20.5000 O   0  0  0  0  0  0  0  0  0  0  0  0
  -22.5120  -12.3230   22.3120 H   0  0  0  0  0  0  0  0  0  0  0  0
  -21.2440  -13.4960   22.0960 H   0  0  0  0  0  0  0  0  0  0  0  0
  -25.5860  -15.4420   20.2360 N   0  0  0  0  0  0  0  0  0  0  0  0
  -24.8170  -16.0940   20.3280 H   0  0  0  0  0  0  0  0  0  0  0  0
  -26.4490  -15.9010   19.9560 H   0  0  0  0  0  0  0  0  0  0  0  0
  2  4  2  0
  2  6  1  0
  3 56  1  0
  3  1  1  0
  4  5  1  0
  5  1  2  0
  5 10  1  0
  6  3  2  0
  7  4  1  0
  8  6  1  0
  9 10  1  0
  9 13  1  0
 10 12  1  0
 11  9  2  0
 14 16  1  0
 14 13  1  0
 15 26  2  0
 16 21  1  0
 17 25  1  0
 17 27  1  0
 18 24  1  0
 18 20  1  0
 19 25  1  0
 20 21  2  0
 20 19  1  0
 22 16  2  0
 23 22  1  0
 23 18  2  0
 24 17  1  0
 25 15  1  0
 27 29  2  0
 28 27  1  0
 30 28  1  0
 31 40  2  0
 31 36  1  0
 32 28  1  0
 32 36  1  0
 33 32  1  0
 34 35  1  0
 34 33  1  0
 35 31  1  0
 36 37  2  0
 37 38  1  0
 39 38  2  0
 40 39  1  0
 41 15  1  0
 41 46  1  0
 41 42  1  0
 42 45  1  1
 42 43  1  0
 44 42  1  0
 46 49  1  0
 47 51  1  0
 47 46  1  0
 48 47  2  0
 51 50  1  0
 53 51  1  0
 53 54  1  0
 53 52  1  0
 56 55  1  0
 56 65  1  0
 57 65  1  0
 58 63  1  0
 59 60  1  0
 59 58  1  0
 61 60  1  0
 61 70  1  0
 61 62  1  0
 63 57  1  0
 63 62  1  0
 64 57  2  0
 65 66  1  0
 67 68  2  0
 68 87  1  0
 69 68  1  0
 69 72  1  0
 70 67  1  0
 70 71  1  0
 71 69  2  0
 72 73  1  0
 73 74  2  0
 75 78  1  0
 75 74  1  0
 76 75  2  0
 77 76  1  0
 77 72  2  0
 78 79  1  0
 79 80  1  0
 80 81  2  0
 82 81  1  0
 82 86  1  0
 83 82  2  0
 84 79  2  0
 84 83  1  0
 85 84  1  0
 87 88  1  0
 88 91  1  0
 88 90  1  0
 89 87  2  0
 92 93  1  0
 92 67  1  0
 94 92  1  0
M  ISO  4  13 101  14 101  57 100  65 100
M  END
>  <TORSDO>  (74) 
F 19

>  <SCORE>  (74) 
-14.446

>  <name>  (74) 
75

>  <ligand_id>  (74) 
75

>  <original_smiles>  (74) 
[H]c1c([H])c([H])c2c(c1[H])C([H])([H])C([H])([H])C([H])([H])C2([H])N([H])C(=O)C1([H])N(C(=O)C([H])(N([H])C(=O)C([H])(N([H])C([H])([H])[H])C([H])([H])[H])C(C([H])([H])[H])(C([H])([H])[H])C([H])([H])[H])C([H])([H])c2c([H])c(OC([H])([H])C(=O)N([H])c3c([H])c(C([H])(N([H])C(=O)N4C([H])([H])C([H])([H])C([H])([H])C([H])(n5nc(-c6c([H])c([H])c(Oc7c([H])c([H])c(F)c([H])c7F)c([H])c6[H])c(C(=O)N([H])[H])c5N([H])[H])C4([H])[H])C([H])([H])[H])c(F)c([H])c3C([H])([H])[H])c([H])c([H])c2C1([H])[H]

>  <smiles>  (74) 
[H]c1c([H])c([H])c2c(c1[H])C([H])([H])C([H])([H])C([H])([H])C2([H])N([H])C(=O)C1([H])N(C(=O)C([H])(N([H])C(=O)C([H])(N([H])C([H])([H])[H])C([H])([H])[H])C(C([H])([H])[H])(C([H])([H])[H])C([H])([H])[H])C([H])([H])c2c([H])c(OC([H])([H])C(=O)N([H])c3c([H])c(C([H])(N([H])C(=O)N4C([H])([H])C([H])([H])C([H])([H])C([H])(n5nc(-c6c([H])c([H])c(Oc7c([H])c([H])c(F)c([H])c7F)c([H])c6[H])c(C(=O)N([H])[H])c5N([H])[H])C4([H])[H])C([H])([H])[H])c(F)c([H])c3C([H])([H])[H])c([H])c([H])c2C1([H])[H]

$$$$
76:0:0
     RDKit          3D

 93101  0  0  1  0  0  0  0  0999 V2000
  -30.4300  -21.6810   19.9860 C   0  0  0  0  0  2  0  0  0  0  0  0
  -30.1850  -19.4770   21.4010 C   0  0  0  0  0  3  0  0  0  0  0  0
  -30.1260  -19.2730   19.0100 C   0  0  0  0  0  3  0  0  0  0  0  0
  -30.1780  -20.1320   20.1440 C   0  0  0  0  0  0  0  0  0  0  0  0
  -30.1850  -18.0510   21.5200 C   0  0  0  0  0  0  0  0  0  0  0  0
  -30.1760  -17.1940   20.3770 C   0  0  0  0  0  0  0  0  0  0  0  0
  -30.1180  -17.8480   19.1140 C   0  0  0  0  0  0  0  0  0  0  0  0
  -30.2300  -17.4440   22.9110 C   0  0  0  0  0  1  0  0  0  0  0  0
  -30.0230  -17.1140   17.9790 F   0  0  0  0  0  0  0  0  0  0  0  0
  -30.8590  -14.7150   20.0280 C   0  0  0  0  0  0  0  0  0  0  0  0
  -30.6100  -12.4940   18.9360 C   0  0  0  0  0  2  0  0  0  0  0  0
  -29.5810  -12.6380   17.7910 C   0  0  0  0  0  2  0  0  0  0  0  0
  -28.1440  -12.4490   18.3160 C   0  0  0  0  0  2  0  0  0  0  0  0
  -27.8620  -13.2770   19.5980 C   0  0  0  0  0  3  0  0  0  0  0  0
  -28.9970  -13.1040   20.6330 C   0  0  0  0  0  2  0  0  0  0  0  0
  -30.2600  -13.4810   19.9770 N   0  0  0  0  0  0  0  0  0  0  0  0
  -31.9830  -14.8960   19.5490 O   0  0  0  0  0  0  0  0  0  0  0  0
  -30.1020  -15.7360   20.5400 N   0  0  0  0  0  0  0  0  0  0  0  0
  -29.2960  -15.4150   21.0480 H   0  0  0  0  0  0  0  0  0  0  0  0
  -25.5250  -13.8320   20.5160 C   0  0  0  0  0  0  0  0  0  0  0  0
  -24.4870  -13.0370   20.9220 C   0  0  0  0  0  0  0  0  0  0  0  0
  -24.9470  -11.6900   20.7920 C   0  0  0  0  0  0  0  0  0  0  0  0
  -26.5510  -12.9670   20.1650 N   0  0  0  0  0  0  0  0  0  0  0  0
  -26.2130  -11.6720   20.3900 N   0  0  0  0  0  0  0  0  0  0  0  0
  -24.2370  -10.4170   20.9730 C   0  0  0  0  0  0  0  0  0  0  0  0
  -24.6530   -9.4680   21.9330 C   0  0  0  0  0  3  0  0  0  0  0  0
  -23.9430   -8.2610   22.1010 C   0  0  0  0  0  3  0  0  0  0  0  0
  -22.8020   -7.9920   21.3080 C   0  0  0  0  0  0  0  0  0  0  0  0
  -22.4040   -8.9280   20.3380 C   0  0  0  0  0  3  0  0  0  0  0  0
  -23.1160  -10.1290   20.1690 C   0  0  0  0  0  3  0  0  0  0  0  0
  -22.0660   -6.8340   21.3840 O   0  0  0  0  0  0  0  0  0  0  0  0
  -21.8540   -6.1920   22.5770 C   0  0  0  0  0  0  0  0  0  0  0  0
  -21.2150   -6.8310   23.6620 C   0  0  0  0  0  3  0  0  0  0  0  0
  -20.9550   -6.1140   24.8460 C   0  0  0  0  0  3  0  0  0  0  0  0
  -21.3230   -4.7580   24.9450 C   0  0  0  0  0  0  0  0  0  0  0  0
  -21.9530   -4.1180   23.8620 C   0  0  0  0  0  3  0  0  0  0  0  0
  -22.2140   -4.8340   22.6810 C   0  0  0  0  0  0  0  0  0  0  0  0
  -22.8050   -4.2080   21.6330 F   0  0  0  0  0  0  0  0  0  0  0  0
  -21.0650   -4.0660   26.0780 F   0  0  0  0  0  0  0  0  0  0  0  0
  -23.1140  -13.4950   21.3190 C   0  0  0  0  0  0  0  0  0  0  0  0
  -22.4640  -12.7690   22.2220 N   0  0  0  0  0  0  0  0  0  0  0  0
  -22.6290  -14.5310   20.8650 O   0  0  0  0  0  0  0  0  0  0  0  0
  -22.8700  -11.9300   22.6100 H   0  0  0  0  0  0  0  0  0  0  0  0
  -21.5480  -13.0590   22.5350 H   0  0  0  0  0  0  0  0  0  0  0  0
  -25.6780  -15.2100   20.3930 N   0  0  0  0  0  0  0  0  0  0  0  0
  -24.9190  -15.8550   20.5860 H   0  0  0  0  0  0  0  0  0  0  0  0
  -26.4970  -15.6680   20.0170 H   0  0  0  0  0  0  0  0  0  0  0  0
  -29.5220  -24.0750   20.0930 C   0  0  0  0  0  0  0  0  0  0  0  0
  -29.3350  -22.7110   20.0410 N   0  0  0  0  0  0  0  0  0  0  0  0
  -30.6490  -24.5490   20.2480 O   0  0  0  0  0  0  0  0  0  0  0  0
  -28.3910  -22.3770   19.9080 H   0  0  0  0  0  0  0  0  0  0  0  0
  -28.3040  -25.0640   19.9110 C   0  0  0  0  0  2  0  0  0  0  0  0
  -28.5490  -26.5070   20.1820 O   0  0  0  0  0  0  0  0  0  0  0  0
  -24.8180  -31.8530   23.3230 C   0  0  0  0  0  0  0  0  0  0  0  0
  -27.4400  -27.3740   20.1470 C   0  0  0  0  0  0  0  0  0  0  0  0
  -23.6300  -30.5300   21.6110 C   0  0  0  0  0  3  0  0  0  0  0  0
  -25.0900  -29.0170   20.1590 C   0  0  0  0  0  0  0  0  0  0  0  0
  -26.1770  -30.8190   21.4900 C   0  0  0  0  0  2  0  0  0  0  0  0
  -26.2540  -29.4650   20.7940 C   0  0  0  0  0  0  0  0  0  0  0  0
  -27.4320  -28.6580   20.7790 C   0  0  0  0  0  3  0  0  0  0  0  0
  -26.2470  -26.9830   19.4930 C   0  0  0  0  0  3  0  0  0  0  0  0
  -25.0890  -27.7790   19.5020 C   0  0  0  0  0  3  0  0  0  0  0  0
  -23.8610  -29.9010   20.2140 C   0  0  0  0  0  2  0  0  0  0  0  0
  -24.8930  -31.0820   22.1990 N   0  0  0  0  0  0  0  0  0  0  0  0
  -23.7280  -32.1240   23.8450 O   0  0  0  0  0  0  0  0  0  0  0  0
  -22.9360  -29.4870   22.5210 C   0  0  0  0  0  0  0  0  0  0  0  0
  -21.6160  -29.3100   22.3410 N   0  0  0  0  0  0  0  0  0  0  0  0
  -23.5860  -28.8430   23.3500 O   0  0  0  0  0  0  0  0  0  0  0  0
  -21.1500  -29.8830   21.6510 H   0  0  0  0  0  0  0  0  0  0  0  0
  -18.2280  -28.0860   22.6800 C   0  0  0  0  0  0  0  0  0  0  0  0
  -20.7720  -28.3500   23.0570 C   0  0  0  0  0  3  0  0  0  0  0  0
  -20.9060  -26.9320   22.4560 C   0  0  0  0  0  2  0  0  0  0  0  0
  -19.8460  -26.6260   21.3930 C   0  0  0  0  0  2  0  0  0  0  0  0
  -18.4390  -26.7520   21.9830 C   0  0  0  0  0  2  0  0  0  0  0  0
  -19.3260  -28.8430   23.1700 C   0  0  0  0  0  0  0  0  0  0  0  0
  -19.0780  -30.0940   23.7780 C   0  0  0  0  0  3  0  0  0  0  0  0
  -17.7650  -30.5860   23.9020 C   0  0  0  0  0  3  0  0  0  0  0  0
  -16.6810  -29.8250   23.4290 C   0  0  0  0  0  3  0  0  0  0  0  0
  -16.9140  -28.5780   22.8240 C   0  0  0  0  0  3  0  0  0  0  0  0
  -26.0960  -32.4470   23.9910 C   0  0  0  0  0  3  0  0  0  0  0  0
  -26.5730  -31.6290   25.2540 C   0  0  1  0  0  0  0  0  0  0  0  0
  -25.4510  -31.3680   26.2870 C   0  0  0  0  0  1  0  0  0  0  0  0
  -27.1530  -30.2590   24.8320 C   0  0  0  0  0  1  0  0  0  0  0  0
  -27.7140  -32.3880   25.9680 C   0  0  0  0  0  1  0  0  0  0  0  0
  -25.7960  -33.8380   24.3600 N   0  0  0  0  0  0  0  0  0  0  0  0
  -26.1310  -34.9090   23.6300 C   0  0  0  0  0  0  0  0  0  0  0  0
  -26.7960  -34.8310   22.5930 O   0  0  0  0  0  0  0  0  0  0  0  0
  -25.2060  -33.9740   25.1670 H   0  0  0  0  0  0  0  0  0  0  0  0
  -24.4000  -36.7130   23.3550 C   0  0  0  0  0  1  0  0  0  0  0  0
  -25.6570  -36.2880   24.1300 C   0  0  0  0  0  3  0  0  0  0  0  0
  -27.8060  -37.1550   24.9440 C   0  0  0  0  0  1  0  0  0  0  0  0
  -26.6890  -37.3420   24.0210 N   0  0  0  0  0  0  0  0  0  0  0  0
  -26.2860  -38.2580   24.1940 H   0  0  0  0  0  0  0  0  0  0  0  0
  1 49  1  0
  1  4  1  0
  2  5  1  0
  3  7  2  0
  3  4  1  0
  4  2  2  0
  5  8  1  0
  6 18  1  0
  6  5  2  0
  7  6  1  0
  9  7  1  0
 10 18  1  0
 11 16  1  0
 12 13  1  0
 12 11  1  0
 14 13  1  0
 14 23  1  0
 14 15  1  0
 16 10  1  0
 16 15  1  0
 17 10  2  0
 18 19  1  0
 20 21  2  0
 21 40  1  0
 22 21  1  0
 22 25  1  0
 23 24  1  0
 23 20  1  0
 24 22  2  0
 25 26  1  0
 26 27  2  0
 28 31  1  0
 28 27  1  0
 29 28  2  0
 30 29  1  0
 30 25  2  0
 31 32  1  0
 32 37  2  0
 32 33  1  0
 33 34  2  0
 34 35  1  0
 35 39  1  0
 36 35  2  0
 37 36  1  0
 38 37  1  0
 40 41  1  0
 41 44  1  0
 41 43  1  0
 42 40  2  0
 45 20  1  0
 45 46  1  0
 47 45  1  0
 48 50  2  0
 49 48  1  0
 51 49  1  0
 52 48  1  0
 52 53  1  0
 54 65  2  0
 55 53  1  0
 55 60  1  0
 56 64  1  0
 56 66  1  0
 57 63  1  0
 57 59  1  0
 58 64  1  0
 59 58  1  0
 60 59  2  0
 61 62  1  0
 61 55  2  0
 62 57  2  0
 63 56  1  0
 64 54  1  0
 66 68  2  0
 67 66  1  0
 69 67  1  0
 70 79  2  0
 70 75  1  0
 71 67  1  0
 71 75  1  0
 72 71  1  0
 73 74  1  0
 73 72  1  0
 74 70  1  0
 75 76  2  0
 76 77  1  0
 78 77  2  0
 79 78  1  0
 80 54  1  0
 80 85  1  0
 80 81  1  0
 81 84  1  1
 81 82  1  0
 83 81  1  0
 85 88  1  0
 86 90  1  0
 86 85  1  0
 87 86  2  0
 90 89  1  0
 92 90  1  0
 92 93  1  0
 92 91  1  0
M  ISO  4  10 100  18 100  52 101  53 101
M  END
>  <TORSDO>  (75) 
F 19

>  <SCORE>  (75) 
-12.815

>  <name>  (75) 
76

>  <ligand_id>  (75) 
76

>  <original_smiles>  (75) 
[H]c1c([H])c([H])c2c(c1[H])C([H])([H])C([H])([H])C([H])([H])C2([H])N([H])C(=O)C1([H])N(C(=O)C([H])(N([H])C(=O)C([H])(N([H])C([H])([H])[H])C([H])([H])[H])C(C([H])([H])[H])(C([H])([H])[H])C([H])([H])[H])C([H])([H])c2c([H])c(OC([H])([H])C(=O)N([H])C([H])([H])c3c([H])c(F)c(N([H])C(=O)N4C([H])([H])C([H])([H])C([H])([H])C([H])(n5nc(-c6c([H])c([H])c(Oc7c([H])c([H])c(F)c([H])c7F)c([H])c6[H])c(C(=O)N([H])[H])c5N([H])[H])C4([H])[H])c(C([H])([H])[H])c3[H])c([H])c([H])c2C1([H])[H]

>  <smiles>  (75) 
[H]c1c([H])c([H])c2c(c1[H])C([H])([H])C([H])([H])C([H])([H])C2([H])N([H])C(=O)C1([H])N(C(=O)C([H])(N([H])C(=O)C([H])(N([H])C([H])([H])[H])C([H])([H])[H])C(C([H])([H])[H])(C([H])([H])[H])C([H])([H])[H])C([H])([H])c2c([H])c(OC([H])([H])C(=O)N([H])C([H])([H])c3c([H])c(F)c(N([H])C(=O)N4C([H])([H])C([H])([H])C([H])([H])C([H])(n5nc(-c6c([H])c([H])c(Oc7c([H])c([H])c(F)c([H])c7F)c([H])c6[H])c(C(=O)N([H])[H])c5N([H])[H])C4([H])[H])c(C([H])([H])[H])c3[H])c([H])c([H])c2C1([H])[H]

$$$$
77:0:0
     RDKit          3D

103112  0  0  1  0  0  0  0  0999 V2000
  -29.3180  -21.0130   21.7230 C   0  0  0  0  0  2  0  0  0  0  0  0
  -30.3500  -21.6530   23.8070 C   0  0  0  0  0  2  0  0  0  0  0  0
  -30.7340  -20.4110   21.7780 C   0  0  0  0  0  3  0  0  0  0  0  0
  -29.2950  -22.1240   22.7810 C   0  0  0  0  0  3  0  0  0  0  0  0
  -32.6710  -20.9890   23.2180 C   0  0  0  0  0  1  0  0  0  0  0  0
  -31.2290  -20.6540   23.1490 N   0  0  1  0  0  4  0  0  0  0  0  0
  -31.1050  -19.7640   23.6180 H   0  0  0  0  0  0  0  0  0  0  0  0
  -30.7330  -18.8860   21.5370 C   0  0  0  0  0  0  0  0  0  0  0  0
  -30.5260  -18.0660   22.4370 O   0  0  0  0  0  0  0  0  0  0  0  0
  -29.6770  -18.1570   19.3010 C   0  0  0  0  0  2  0  0  0  0  0  0
  -29.9820  -17.9200   17.8050 C   0  0  0  0  0  2  0  0  0  0  0  0
  -32.2610  -17.1540   18.3840 C   0  0  0  0  0  2  0  0  0  0  0  0
  -30.9750  -18.4240   20.0900 C   0  0  0  0  0  3  0  0  0  0  0  0
  -31.9530  -17.2310   19.9040 C   0  0  0  0  0  3  0  0  0  0  0  0
  -31.3000  -16.6350   16.1660 C   0  0  0  0  0  1  0  0  0  0  0  0
  -31.0260  -16.8800   17.6000 N   0  0  2  0  0  4  0  0  0  0  0  0
  -30.6550  -16.0120   17.9500 H   0  0  0  0  0  0  0  0  0  0  0  0
  -32.1570  -14.7870   20.3280 C   0  0  0  0  0  0  0  0  0  0  0  0
  -31.7650  -12.5620   19.3850 C   0  0  0  0  0  2  0  0  0  0  0  0
  -30.9030  -12.7200   18.1160 C   0  0  0  0  0  2  0  0  0  0  0  0
  -29.4020  -12.7260   18.4680 C   0  0  0  0  0  2  0  0  0  0  0  0
  -29.0540  -13.6800   19.6430 C   0  0  0  0  0  3  0  0  0  0  0  0
  -30.0410  -13.5070   20.8210 C   0  0  0  0  0  2  0  0  0  0  0  0
  -31.4080  -13.6560   20.2980 N   0  0  0  0  0  0  0  0  0  0  0  0
  -33.3400  -14.8250   19.9900 O   0  0  0  0  0  0  0  0  0  0  0  0
  -31.4550  -15.9310   20.4130 N   0  0  0  0  0  0  0  0  0  0  0  0
  -30.5100  -15.8650   20.7590 H   0  0  0  0  0  0  0  0  0  0  0  0
  -26.6810  -14.4850   20.2280 C   0  0  0  0  0  0  0  0  0  0  0  0
  -25.5420  -13.8070   20.5610 C   0  0  0  0  0  0  0  0  0  0  0  0
  -25.8980  -12.4230   20.5750 C   0  0  0  0  0  0  0  0  0  0  0  0
  -27.6640  -13.5220   20.0650 N   0  0  0  0  0  0  0  0  0  0  0  0
  -27.1940  -12.2770   20.3300 N   0  0  0  0  0  0  0  0  0  0  0  0
  -25.0680  -11.2270   20.7530 C   0  0  0  0  0  0  0  0  0  0  0  0
  -25.4460  -10.1930   21.6370 C   0  0  0  0  0  3  0  0  0  0  0  0
  -24.6220   -9.0590   21.8040 C   0  0  0  0  0  3  0  0  0  0  0  0
  -23.4070   -8.9530   21.0880 C   0  0  0  0  0  0  0  0  0  0  0  0
  -23.0470   -9.9750   20.1910 C   0  0  0  0  0  3  0  0  0  0  0  0
  -23.8700  -11.1010   20.0230 C   0  0  0  0  0  3  0  0  0  0  0  0
  -22.5560   -7.8790   21.1680 O   0  0  0  0  0  0  0  0  0  0  0  0
  -22.2180   -7.3170   22.3740 C   0  0  0  0  0  0  0  0  0  0  0  0
  -21.5860   -8.0620   23.3930 C   0  0  0  0  0  3  0  0  0  0  0  0
  -21.1940   -7.4270   24.5890 C   0  0  0  0  0  3  0  0  0  0  0  0
  -21.4250   -6.0500   24.7630 C   0  0  0  0  0  0  0  0  0  0  0  0
  -22.0490   -5.3050   23.7470 C   0  0  0  0  0  3  0  0  0  0  0  0
  -22.4410   -5.9370   22.5540 C   0  0  0  0  0  0  0  0  0  0  0  0
  -23.0240   -5.2120   21.5700 F   0  0  0  0  0  0  0  0  0  0  0  0
  -21.0410   -5.4380   25.9080 F   0  0  0  0  0  0  0  0  0  0  0  0
  -24.1760  -14.3960   20.7610 C   0  0  0  0  0  0  0  0  0  0  0  0
  -23.4040  -13.8490   21.6900 N   0  0  0  0  0  0  0  0  0  0  0  0
  -23.8070  -15.3830   20.1240 O   0  0  0  0  0  0  0  0  0  0  0  0
  -23.7170  -13.0540   22.2270 H   0  0  0  0  0  0  0  0  0  0  0  0
  -22.4840  -14.2290   21.8690 H   0  0  0  0  0  0  0  0  0  0  0  0
  -26.9480  -15.8360   20.0300 N   0  0  0  0  0  0  0  0  0  0  0  0
  -26.2100  -16.5290   20.0990 H   0  0  0  0  0  0  0  0  0  0  0  0
  -27.8240  -16.2200   19.7160 H   0  0  0  0  0  0  0  0  0  0  0  0
  -29.5800  -23.5610   22.2490 C   0  0  0  0  0  2  0  0  0  0  0  0
  -28.7260  -24.0110   21.1060 N   0  0  1  0  0  4  0  0  0  0  0  0
  -29.1330  -23.5750   20.2910 H   0  0  0  0  0  0  0  0  0  0  0  0
  -26.3890  -24.2670   22.1180 C   0  0  0  0  0  1  0  0  0  0  0  0
  -27.3100  -23.5310   21.1230 C   0  0  0  0  0  2  0  0  0  0  0  0
  -28.8340  -25.4770   20.8390 C   0  0  0  0  0  2  0  0  0  0  0  0
  -28.6750  -25.8200   19.3410 C   0  0  0  0  0  2  0  0  0  0  0  0
  -28.5590  -27.2340   19.1420 O   0  0  0  0  0  0  0  0  0  0  0  0
  -24.4460  -31.4770   23.0760 C   0  0  0  0  0  0  0  0  0  0  0  0
  -27.3110  -27.7990   19.2860 C   0  0  0  0  0  0  0  0  0  0  0  0
  -23.2840  -30.2120   21.2970 C   0  0  0  0  0  3  0  0  0  0  0  0
  -24.7900  -29.0390   19.6080 C   0  0  0  0  0  0  0  0  0  0  0  0
  -25.7500  -30.8410   21.0500 C   0  0  0  0  0  2  0  0  0  0  0  0
  -25.9240  -29.5880   20.2190 C   0  0  0  0  0  0  0  0  0  0  0  0
  -27.1850  -28.9760   20.0550 C   0  0  0  0  0  3  0  0  0  0  0  0
  -26.1580  -27.2660   18.6610 C   0  0  0  0  0  3  0  0  0  0  0  0
  -24.9020  -27.8760   18.8270 C   0  0  0  0  0  3  0  0  0  0  0  0
  -23.4780  -29.7580   19.8250 C   0  0  0  0  0  2  0  0  0  0  0  0
  -24.5140  -30.8490   21.8680 N   0  0  0  0  0  0  0  0  0  0  0  0
  -23.3760  -31.5660   23.6930 O   0  0  0  0  0  0  0  0  0  0  0  0
  -22.7810  -29.0060   22.1220 C   0  0  0  0  0  0  0  0  0  0  0  0
  -21.4760  -28.7120   22.0170 N   0  0  0  0  0  0  0  0  0  0  0  0
  -23.5580  -28.3420   22.8150 O   0  0  0  0  0  0  0  0  0  0  0  0
  -20.9030  -29.3100   21.4360 H   0  0  0  0  0  0  0  0  0  0  0  0
  -18.2850  -27.0480   22.3330 C   0  0  0  0  0  0  0  0  0  0  0  0
  -20.7870  -27.6000   22.6720 C   0  0  0  0  0  3  0  0  0  0  0  0
  -21.0760  -26.2650   21.9490 C   0  0  0  0  0  2  0  0  0  0  0  0
  -20.0260  -25.9110   20.8910 C   0  0  0  0  0  2  0  0  0  0  0  0
  -18.6360  -25.8110   21.5250 C   0  0  0  0  0  2  0  0  0  0  0  0
  -19.2950  -27.8970   22.8580 C   0  0  0  0  0  0  0  0  0  0  0  0
  -18.9140  -29.0530   23.5730 C   0  0  0  0  0  3  0  0  0  0  0  0
  -17.5560  -29.3630   23.7690 C   0  0  0  0  0  3  0  0  0  0  0  0
  -16.5600  -28.5120   23.2600 C   0  0  0  0  0  3  0  0  0  0  0  0
  -16.9250  -27.3560   22.5480 C   0  0  0  0  0  3  0  0  0  0  0  0
  -25.7030  -32.1330   23.7280 C   0  0  0  0  0  3  0  0  0  0  0  0
  -25.3440  -33.5110   24.0880 N   0  0  0  0  0  0  0  0  0  0  0  0
  -25.7160  -34.5990   23.4000 C   0  0  0  0  0  0  0  0  0  0  0  0
  -26.4670  -34.5480   22.4220 O   0  0  0  0  0  0  0  0  0  0  0  0
  -24.6820  -33.6220   24.8420 H   0  0  0  0  0  0  0  0  0  0  0  0
  -24.0430  -36.4180   22.9280 C   0  0  0  0  0  1  0  0  0  0  0  0
  -25.1670  -35.9580   23.8720 C   0  0  0  0  0  3  0  0  0  0  0  0
  -27.1510  -36.7940   25.0510 C   0  0  0  0  0  1  0  0  0  0  0  0
  -26.2010  -37.0120   23.9630 N   0  0  0  0  0  0  0  0  0  0  0  0
  -25.7760  -37.9260   24.0910 H   0  0  0  0  0  0  0  0  0  0  0  0
  -26.2340  -31.3450   24.9870 C   0  0  1  0  0  0  0  0  0  0  0  0
  -25.1480  -31.0690   26.0520 C   0  0  0  0  0  1  0  0  0  0  0  0
  -26.8380  -29.9860   24.5620 C   0  0  0  0  0  1  0  0  0  0  0  0
  -27.3710  -32.1460   25.6650 C   0  0  0  0  0  1  0  0  0  0  0  0
  1  3  1  0
  1  4  1  0
  3  8  1  0
  3  6  1  0
  4 56  1  0
  4  2  1  0
  6  5  1  0
  6  7  1  1
  6  2  1  0
  8  9  2  0
 10 13  1  0
 11 10  1  0
 12 14  1  0
 13  8  1  0
 14 13  1  0
 14 26  1  0
 15 16  1  0
 16 11  1  0
 16 17  1  1
 16 12  1  0
 18 26  1  0
 19 24  1  0
 20 21  1  0
 20 19  1  0
 22 21  1  0
 22 31  1  0
 22 23  1  0
 24 18  1  0
 24 23  1  0
 25 18  2  0
 26 27  1  0
 28 29  2  0
 29 30  1  0
 29 48  1  0
 30 33  1  0
 31 28  1  0
 31 32  1  0
 32 30  2  0
 33 34  1  0
 34 35  2  0
 36 39  1  0
 36 35  1  0
 37 36  2  0
 38 37  1  0
 38 33  2  0
 39 40  1  0
 40 45  2  0
 40 41  1  0
 41 42  2  0
 42 43  1  0
 43 47  1  0
 44 43  2  0
 45 44  1  0
 46 45  1  0
 48 49  1  0
 49 52  1  0
 49 51  1  0
 50 48  2  0
 53 54  1  0
 53 28  1  0
 55 53  1  0
 57 60  1  0
 57 56  1  0
 57 58  1  6
 60 59  1  0
 61 57  1  0
 62 61  1  0
 63 65  1  0
 63 62  1  0
 64 75  2  0
 65 70  1  0
 66 74  1  0
 66 76  1  0
 67 73  1  0
 67 69  1  0
 68 74  1  0
 69 68  1  0
 70 69  2  0
 71 72  1  0
 71 65  2  0
 72 67  2  0
 73 66  1  0
 74 64  1  0
 76 78  2  0
 77 76  1  0
 79 77  1  0
 80 89  2  0
 80 85  1  0
 81 77  1  0
 81 85  1  0
 82 81  1  0
 83 84  1  0
 83 82  1  0
 84 80  1  0
 85 86  2  0
 86 87  1  0
 88 87  2  0
 89 88  1  0
 90 64  1  0
 90 91  1  0
 90100  1  0
 91 94  1  0
 92 96  1  0
 92 91  1  0
 93 92  2  0
 96 95  1  0
 96 98  1  0
 98 99  1  0
 98 97  1  0
100103  1  1
100101  1  0
102100  1  0
M  ISO  4  18 100  26 100  62 101  63 101
M  END
>  <TORSDO>  (76) 
F 23

>  <SCORE>  (76) 
-10.285

>  <name>  (76) 
77

>  <ligand_id>  (76) 
77

>  <original_smiles>  (76) 
[H]c1c([H])c([H])c2c(c1[H])C([H])([H])C([H])([H])C([H])([H])C2([H])N([H])C(=O)C1([H])N(C(=O)C([H])(N([H])C(=O)C([H])(N([H])C([H])([H])[H])C([H])([H])[H])C(C([H])([H])[H])(C([H])([H])[H])C([H])([H])[H])C([H])([H])c2c([H])c(OC([H])([H])C([H])([H])[N+]([H])(C([H])([H])C([H])([H])[H])C([H])([H])C3([H])C([H])([H])C([H])(C(=O)C4([H])C([H])([H])C([H])([H])[N+]([H])(C([H])([H])[H])C([H])([H])C4([H])N([H])C(=O)N4C([H])([H])C([H])([H])C([H])([H])C([H])(n5nc(-c6c([H])c([H])c(Oc7c([H])c([H])c(F)c([H])c7F)c([H])c6[H])c(C(=O)N([H])[H])c5N([H])[H])C4([H])[H])[N+]([H])(C([H])([H])[H])C3([H])[H])c([H])c([H])c2C1([H])[H]

>  <smiles>  (76) 
[H]c1c([H])c([H])c2c(c1[H])C([H])([H])C([H])([H])C([H])([H])C2([H])N([H])C(=O)C1([H])N(C(=O)C([H])(N([H])C(=O)C([H])(N([H])C([H])([H])[H])C([H])([H])[H])C(C([H])([H])[H])(C([H])([H])[H])C([H])([H])[H])C([H])([H])c2c([H])c(OC([H])([H])C([H])([H])[N+]([H])(C([H])([H])C([H])([H])[H])C([H])([H])C3([H])C([H])([H])C([H])(C(=O)C4([H])C([H])([H])C([H])([H])[N+]([H])(C([H])([H])[H])C([H])([H])C4([H])N([H])C(=O)N4C([H])([H])C([H])([H])C([H])([H])C([H])(n5nc(-c6c([H])c([H])c(Oc7c([H])c([H])c(F)c([H])c7F)c([H])c6[H])c(C(=O)N([H])[H])c5N([H])[H])C4([H])[H])[N+]([H])(C([H])([H])[H])C3([H])[H])c([H])c([H])c2C1([H])[H]

$$$$
78:0:0
     RDKit          3D

103111  0  0  1  0  0  0  0  0999 V2000
  -31.1600  -21.2140   22.0700 C   0  0  0  0  0  0  0  0  0  0  0  0
  -31.8020  -21.9290   21.1340 N   0  0  0  0  0  0  0  0  0  0  0  0
  -30.6060  -21.7240   23.0470 O   0  0  0  0  0  0  0  0  0  0  0  0
  -32.2370  -21.4040   20.3860 H   0  0  0  0  0  0  0  0  0  0  0  0
  -29.9500  -19.3310   20.8880 C   0  0  0  0  0  2  0  0  0  0  0  0
  -29.9200  -17.8270   22.7270 C   0  0  0  0  0  2  0  0  0  0  0  0
  -31.1040  -19.7000   21.8360 C   0  0  0  0  0  3  0  0  0  0  0  0
  -29.6740  -17.8530   21.2010 C   0  0  0  0  0  3  0  0  0  0  0  0
  -30.8240  -18.9540   23.0710 N   0  0  0  0  0  4  0  0  0  0  0  0
  -31.6840  -18.6440   23.4890 H   0  0  0  0  0  0  0  0  0  0  0  0
  -30.3800  -19.6040   23.7020 H   0  0  0  0  0  0  0  0  0  0  0  0
  -30.5570  -16.8680   20.3650 C   0  0  0  0  0  3  0  0  0  0  0  0
  -30.9780  -14.4190   20.2230 C   0  0  0  0  0  0  0  0  0  0  0  0
  -30.5750  -12.4010   18.8950 C   0  0  0  0  0  2  0  0  0  0  0  0
  -29.5840  -12.7710   17.7720 C   0  0  0  0  0  2  0  0  0  0  0  0
  -28.1220  -12.6410   18.2570 C   0  0  0  0  0  2  0  0  0  0  0  0
  -27.8760  -13.3260   19.6310 C   0  0  0  0  0  3  0  0  0  0  0  0
  -28.9790  -12.9550   20.6490 C   0  0  0  0  0  2  0  0  0  0  0  0
  -30.2820  -13.2700   20.0430 N   0  0  0  0  0  0  0  0  0  0  0  0
  -32.1070  -14.6090   19.7670 O   0  0  0  0  0  0  0  0  0  0  0  0
  -30.2280  -15.4570   20.6380 N   0  0  0  0  0  0  0  0  0  0  0  0
  -29.3170  -15.2350   21.0100 H   0  0  0  0  0  0  0  0  0  0  0  0
  -25.4930  -13.9060   20.4080 C   0  0  0  0  0  0  0  0  0  0  0  0
  -24.4450  -13.1180   20.8080 C   0  0  0  0  0  0  0  0  0  0  0  0
  -24.9220  -11.7740   20.7690 C   0  0  0  0  0  0  0  0  0  0  0  0
  -26.5400  -13.0360   20.1480 N   0  0  0  0  0  0  0  0  0  0  0  0
  -26.2030  -11.7490   20.4190 N   0  0  0  0  0  0  0  0  0  0  0  0
  -24.2220  -10.5020   20.9890 C   0  0  0  0  0  0  0  0  0  0  0  0
  -24.6320   -9.5960   21.9920 C   0  0  0  0  0  3  0  0  0  0  0  0
  -23.9310   -8.3880   22.1940 C   0  0  0  0  0  3  0  0  0  0  0  0
  -22.8090   -8.0770   21.3900 C   0  0  0  0  0  0  0  0  0  0  0  0
  -22.4220   -8.9710   20.3770 C   0  0  0  0  0  3  0  0  0  0  0  0
  -23.1220  -10.1700   20.1730 C   0  0  0  0  0  3  0  0  0  0  0  0
  -22.0830   -6.9150   21.4960 O   0  0  0  0  0  0  0  0  0  0  0  0
  -21.8860   -6.2960   22.7040 C   0  0  0  0  0  0  0  0  0  0  0  0
  -21.2530   -6.9540   23.7820 C   0  0  0  0  0  3  0  0  0  0  0  0
  -21.0080   -6.2610   24.9840 C   0  0  0  0  0  3  0  0  0  0  0  0
  -21.3820   -4.9090   25.1080 C   0  0  0  0  0  0  0  0  0  0  0  0
  -22.0080   -4.2510   24.0340 C   0  0  0  0  0  3  0  0  0  0  0  0
  -22.2560   -4.9420   22.8360 C   0  0  0  0  0  0  0  0  0  0  0  0
  -22.8390   -4.2970   21.7980 F   0  0  0  0  0  0  0  0  0  0  0  0
  -21.1390   -4.2420   26.2610 F   0  0  0  0  0  0  0  0  0  0  0  0
  -23.0510  -13.5770   21.1230 C   0  0  0  0  0  0  0  0  0  0  0  0
  -22.3640  -12.8850   22.0260 N   0  0  0  0  0  0  0  0  0  0  0  0
  -22.5770  -14.5850   20.6020 O   0  0  0  0  0  0  0  0  0  0  0  0
  -22.7610  -12.0740   22.4760 H   0  0  0  0  0  0  0  0  0  0  0  0
  -21.4260  -13.1730   22.2700 H   0  0  0  0  0  0  0  0  0  0  0  0
  -25.6330  -15.2800   20.2390 N   0  0  0  0  0  0  0  0  0  0  0  0
  -24.8630  -15.9190   20.4120 H   0  0  0  0  0  0  0  0  0  0  0  0
  -26.4940  -15.7590   20.0250 H   0  0  0  0  0  0  0  0  0  0  0  0
  -30.4830  -17.1350   18.8280 C   0  0  0  0  0  2  0  0  0  0  0  0
  -29.1200  -17.0060   18.2780 N   0  0  0  0  0  4  0  0  0  0  0  0
  -28.7230  -16.1110   18.4850 H   0  0  0  0  0  0  0  0  0  0  0  0
  -29.1540  -17.1060   17.2790 H   0  0  0  0  0  0  0  0  0  0  0  0
  -28.5220  -17.7300   18.6290 H   0  0  0  0  0  0  0  0  0  0  0  0
  -31.8860  -23.3850   21.0320 C   0  0  0  0  0  2  0  0  0  0  0  0
  -30.6930  -23.9390   20.2270 C   0  0  0  0  0  2  0  0  0  0  0  0
  -30.8160  -25.3830   19.9260 N   0  0  0  0  0  4  0  0  0  0  0  0
  -31.7900  -25.5940   19.7750 H   0  0  0  0  0  0  0  0  0  0  0  0
  -30.5220  -25.9230   20.7250 H   0  0  0  0  0  0  0  0  0  0  0  0
  -30.0680  -25.8270   18.7200 C   0  0  0  0  0  2  0  0  0  0  0  0
  -28.5420  -25.8040   18.9070 C   0  0  0  0  0  2  0  0  0  0  0  0
  -28.2690  -26.6970   19.9750 O   0  0  0  0  0  0  0  0  0  0  0  0
  -24.5370  -31.7610   23.1910 C   0  0  0  0  0  0  0  0  0  0  0  0
  -27.0680  -27.3640   19.9830 C   0  0  0  0  0  0  0  0  0  0  0  0
  -23.2760  -30.4010   21.5520 C   0  0  0  0  0  3  0  0  0  0  0  0
  -24.6770  -28.8630   20.0770 C   0  0  0  0  0  0  0  0  0  0  0  0
  -25.7960  -30.7350   21.3060 C   0  0  0  0  0  2  0  0  0  0  0  0
  -25.8460  -29.3710   20.6530 C   0  0  0  0  0  0  0  0  0  0  0  0
  -27.0390  -28.6230   20.6130 C   0  0  0  0  0  3  0  0  0  0  0  0
  -25.8820  -26.8510   19.4090 C   0  0  0  0  0  3  0  0  0  0  0  0
  -24.6860  -27.5980   19.4590 C   0  0  0  0  0  3  0  0  0  0  0  0
  -23.4440  -29.7330   20.1590 C   0  0  0  0  0  2  0  0  0  0  0  0
  -24.5550  -30.9780   22.0750 N   0  0  0  0  0  0  0  0  0  0  0  0
  -23.4720  -32.0400   23.7580 O   0  0  0  0  0  0  0  0  0  0  0  0
  -22.6300  -29.3780   22.5130 C   0  0  0  0  0  0  0  0  0  0  0  0
  -21.3030  -29.2070   22.3990 N   0  0  0  0  0  0  0  0  0  0  0  0
  -23.3190  -28.7400   23.3130 O   0  0  0  0  0  0  0  0  0  0  0  0
  -20.8110  -29.7740   21.7230 H   0  0  0  0  0  0  0  0  0  0  0  0
  -17.9270  -28.0320   22.9200 C   0  0  0  0  0  0  0  0  0  0  0  0
  -20.4890  -28.2690   23.1700 C   0  0  0  0  0  3  0  0  0  0  0  0
  -20.5760  -26.8440   22.5810 C   0  0  0  0  0  2  0  0  0  0  0  0
  -19.4620  -26.5360   21.5750 C   0  0  0  0  0  2  0  0  0  0  0  0
  -18.0860  -26.6880   22.2330 C   0  0  0  0  0  2  0  0  0  0  0  0
  -19.0550  -28.7830   23.3460 C   0  0  0  0  0  0  0  0  0  0  0  0
  -18.8520  -30.0430   23.9490 C   0  0  0  0  0  3  0  0  0  0  0  0
  -17.5530  -30.5540   24.1300 C   0  0  0  0  0  3  0  0  0  0  0  0
  -16.4400  -29.8000   23.7190 C   0  0  0  0  0  3  0  0  0  0  0  0
  -16.6280  -28.5420   23.1200 C   0  0  0  0  0  3  0  0  0  0  0  0
  -25.8460  -32.3590   23.7960 C   0  0  0  0  0  3  0  0  0  0  0  0
  -26.3760  -31.5630   25.0510 C   0  0  1  0  0  0  0  0  0  0  0  0
  -25.2990  -31.3250   26.1360 C   0  0  0  0  0  1  0  0  0  0  0  0
  -26.9330  -30.1850   24.6250 C   0  0  0  0  0  1  0  0  0  0  0  0
  -27.5520  -32.3310   25.7000 C   0  0  0  0  0  1  0  0  0  0  0  0
  -25.5700  -33.7580   24.1480 N   0  0  0  0  0  0  0  0  0  0  0  0
  -25.9270  -34.8140   23.4040 C   0  0  0  0  0  0  0  0  0  0  0  0
  -26.5930  -34.7110   22.3690 O   0  0  0  0  0  0  0  0  0  0  0  0
  -24.9810  -33.9140   24.9540 H   0  0  0  0  0  0  0  0  0  0  0  0
  -24.2480  -36.6540   23.0630 C   0  0  0  0  0  1  0  0  0  0  0  0
  -25.4710  -36.2060   23.8800 C   0  0  0  0  0  3  0  0  0  0  0  0
  -27.6170  -37.0210   24.7490 C   0  0  0  0  0  1  0  0  0  0  0  0
  -26.5320  -37.2340   23.7940 N   0  0  0  0  0  0  0  0  0  0  0  0
  -26.1500  -38.1620   23.9490 H   0  0  0  0  0  0  0  0  0  0  0  0
  1  3  2  0
  2  1  1  0
  4  2  1  0
  5  8  1  0
  5  7  1  0
  6  9  1  0
  7  1  1  0
  7  9  1  0
  8 12  1  0
  8  6  1  0
  9 10  1  0
  9 11  1  0
 12 51  1  0
 12 21  1  0
 13 21  1  0
 14 19  1  0
 15 16  1  0
 15 14  1  0
 17 16  1  0
 17 26  1  0
 17 18  1  0
 19 13  1  0
 19 18  1  0
 20 13  2  0
 21 22  1  0
 23 24  2  0
 24 43  1  0
 25 24  1  0
 25 28  1  0
 26 23  1  0
 26 27  1  0
 27 25  2  0
 28 29  1  0
 29 30  2  0
 31 34  1  0
 31 30  1  0
 32 31  2  0
 33 32  1  0
 33 28  2  0
 34 35  1  0
 35 40  2  0
 35 36  1  0
 36 37  2  0
 37 38  1  0
 38 42  1  0
 39 38  2  0
 40 39  1  0
 41 40  1  0
 43 44  1  0
 44 47  1  0
 44 46  1  0
 45 43  2  0
 48 23  1  0
 48 49  1  0
 50 48  1  0
 52 53  1  0
 52 55  1  0
 52 51  1  0
 54 52  1  0
 56  2  1  0
 57 56  1  0
 58 57  1  0
 58 60  1  0
 59 58  1  0
 61 62  1  0
 61 58  1  0
 62 63  1  0
 63 65  1  0
 64 75  2  0
 65 70  1  0
 66 74  1  0
 66 76  1  0
 67 73  1  0
 67 69  1  0
 68 74  1  0
 69 68  1  0
 70 69  2  0
 71 72  1  0
 71 65  2  0
 72 67  2  0
 73 66  1  0
 74 64  1  0
 76 78  2  0
 77 76  1  0
 79 77  1  0
 80 89  2  0
 80 85  1  0
 81 77  1  0
 81 85  1  0
 82 81  1  0
 83 84  1  0
 83 82  1  0
 84 80  1  0
 85 86  2  0
 86 87  1  0
 88 87  2  0
 89 88  1  0
 90 64  1  0
 90 95  1  0
 90 91  1  0
 91 94  1  1
 91 92  1  0
 93 91  1  0
 95 98  1  0
 96100  1  0
 96 95  1  0
 97 96  2  0
100 99  1  0
102100  1  0
102103  1  0
102101  1  0
M  ISO  4  13 100  21 100  62 101  63 101
M  END
>  <TORSDO>  (77) 
F 25

>  <SCORE>  (77) 
-11.076

>  <name>  (77) 
78

>  <ligand_id>  (77) 
78

>  <original_smiles>  (77) 
[H]c1c([H])c([H])c2c(c1[H])C([H])([H])C([H])([H])C([H])([H])C2([H])N([H])C(=O)C1([H])N(C(=O)C([H])(N([H])C(=O)C([H])(N([H])C([H])([H])[H])C([H])([H])[H])C(C([H])([H])[H])(C([H])([H])[H])C([H])([H])[H])C([H])([H])c2c([H])c(OC([H])([H])C([H])([H])[N+]([H])([H])C([H])([H])C([H])([H])N([H])C(=O)C3([H])C([H])([H])C([H])(C([H])(N([H])C(=O)N4C([H])([H])C([H])([H])C([H])([H])C([H])(n5nc(-c6c([H])c([H])c(Oc7c([H])c([H])c(F)c([H])c7F)c([H])c6[H])c(C(=O)N([H])[H])c5N([H])[H])C4([H])[H])C([H])([H])[N+]([H])([H])[H])C([H])([H])[N+]3([H])[H])c([H])c([H])c2C1([H])[H]

>  <smiles>  (77) 
[H]c1c([H])c([H])c2c(c1[H])C([H])([H])C([H])([H])C([H])([H])C2([H])N([H])C(=O)C1([H])N(C(=O)C([H])(N([H])C(=O)C([H])(N([H])C([H])([H])[H])C([H])([H])[H])C(C([H])([H])[H])(C([H])([H])[H])C([H])([H])[H])C([H])([H])c2c([H])c(OC([H])([H])C([H])([H])[N+]([H])([H])C([H])([H])C([H])([H])N([H])C(=O)C3([H])C([H])([H])C([H])(C([H])(N([H])C(=O)N4C([H])([H])C([H])([H])C([H])([H])C([H])(n5nc(-c6c([H])c([H])c(Oc7c([H])c([H])c(F)c([H])c7F)c([H])c6[H])c(C(=O)N([H])[H])c5N([H])[H])C4([H])[H])C([H])([H])[N+]([H])([H])[H])C([H])([H])[N+]3([H])[H])c([H])c([H])c2C1([H])[H]

$$$$
79:0:0
     RDKit          3D

 93102  0  0  1  0  0  0  0  0999 V2000
  -31.5590  -22.4070   19.4890 C   0  0  0  0  0  2  0  0  0  0  0  0
  -30.7210  -21.1380   19.2730 C   0  0  0  0  0  2  0  0  0  0  0  0
  -31.0110  -23.0480   20.7680 C   0  0  0  0  0  2  0  0  0  0  0  0
  -29.6690  -21.1180   20.4020 C   0  0  0  0  0  3  0  0  0  0  0  0
  -29.6170  -22.5640   20.8870 N   0  0  2  0  0  4  0  0  0  0  0  0
  -29.4020  -22.4680   21.8750 H   0  0  0  0  0  0  0  0  0  0  0  0
  -30.0680  -20.1470   21.5850 C   0  0  0  0  0  0  0  0  0  0  0  0
  -30.9300  -18.1960   22.7660 C   0  0  0  0  0  1  0  0  0  0  0  0
  -30.4180  -18.8020   21.5140 N   0  0  0  0  0  0  0  0  0  0  0  0
  -30.0660  -20.7010   22.6940 O   0  0  0  0  0  0  0  0  0  0  0  0
  -31.3840  -14.4490   20.0850 C   0  0  0  0  0  0  0  0  0  0  0  0
  -30.8690  -12.2780   19.0060 C   0  0  0  0  0  2  0  0  0  0  0  0
  -29.9080  -12.4660   17.8170 C   0  0  0  0  0  2  0  0  0  0  0  0
  -28.4490  -12.3970   18.3010 C   0  0  0  0  0  2  0  0  0  0  0  0
  -28.1860  -13.2880   19.5440 C   0  0  0  0  0  3  0  0  0  0  0  0
  -29.2760  -13.1160   20.6260 C   0  0  0  0  0  2  0  0  0  0  0  0
  -30.5710  -13.3510   19.9780 N   0  0  0  0  0  0  0  0  0  0  0  0
  -32.5670  -14.3720   19.7550 O   0  0  0  0  0  0  0  0  0  0  0  0
  -29.6500  -16.4060   20.6910 C   0  0  0  0  0  2  0  0  0  0  0  0
  -31.6320  -16.9910   20.1270 C   0  0  0  0  0  2  0  0  0  0  0  0
  -30.3350  -17.7870   20.3960 C   0  0  0  0  0  3  0  0  0  0  0  0
  -30.8730  -15.7220   20.2230 N   0  0  0  0  0  0  0  0  0  0  0  0
  -25.8640  -14.0260   20.3480 C   0  0  0  0  0  0  0  0  0  0  0  0
  -24.7640  -13.3150   20.7470 C   0  0  0  0  0  0  0  0  0  0  0  0
  -25.1420  -11.9390   20.6940 C   0  0  0  0  0  0  0  0  0  0  0  0
  -26.8450  -13.0850   20.0770 N   0  0  0  0  0  0  0  0  0  0  0  0
  -26.4190  -11.8250   20.3510 N   0  0  0  0  0  0  0  0  0  0  0  0
  -24.3450  -10.7220   20.8920 C   0  0  0  0  0  0  0  0  0  0  0  0
  -24.7140   -9.7440   21.8400 C   0  0  0  0  0  3  0  0  0  0  0  0
  -23.9190   -8.5920   22.0270 C   0  0  0  0  0  3  0  0  0  0  0  0
  -22.7400   -8.4130   21.2660 C   0  0  0  0  0  0  0  0  0  0  0  0
  -22.3890   -9.3780   20.3050 C   0  0  0  0  0  3  0  0  0  0  0  0
  -23.1850  -10.5220   20.1170 C   0  0  0  0  0  3  0  0  0  0  0  0
  -21.9210   -7.3140   21.3610 O   0  0  0  0  0  0  0  0  0  0  0  0
  -21.7820   -6.6210   22.5350 C   0  0  0  0  0  0  0  0  0  0  0  0
  -21.3190   -7.2400   23.7180 C   0  0  0  0  0  3  0  0  0  0  0  0
  -21.1260   -6.4730   24.8830 C   0  0  0  0  0  3  0  0  0  0  0  0
  -21.3860   -5.0900   24.8690 C   0  0  0  0  0  0  0  0  0  0  0  0
  -21.8410   -4.4710   23.6920 C   0  0  0  0  0  3  0  0  0  0  0  0
  -22.0350   -5.2350   22.5280 C   0  0  0  0  0  0  0  0  0  0  0  0
  -22.4550   -4.6290   21.3910 F   0  0  0  0  0  0  0  0  0  0  0  0
  -21.1920   -4.3520   25.9880 F   0  0  0  0  0  0  0  0  0  0  0  0
  -23.4070  -13.8770   21.0560 C   0  0  0  0  0  0  0  0  0  0  0  0
  -22.6670  -13.2260   21.9470 N   0  0  0  0  0  0  0  0  0  0  0  0
  -23.0160  -14.9240   20.5430 O   0  0  0  0  0  0  0  0  0  0  0  0
  -23.0020  -12.3790   22.3820 H   0  0  0  0  0  0  0  0  0  0  0  0
  -21.7560  -13.5790   22.1980 H   0  0  0  0  0  0  0  0  0  0  0  0
  -26.1010  -15.3830   20.1640 N   0  0  0  0  0  0  0  0  0  0  0  0
  -25.3580  -16.0670   20.2610 H   0  0  0  0  0  0  0  0  0  0  0  0
  -26.9310  -15.7590   19.7300 H   0  0  0  0  0  0  0  0  0  0  0  0
  -28.6430  -23.5570   20.2540 C   0  0  0  0  0  2  0  0  0  0  0  0
  -28.4310  -24.9210   21.0580 C   0  0  0  0  0  2  0  0  0  0  0  0
  -28.6020  -26.2340   20.4030 O   0  0  0  0  0  0  0  0  0  0  0  0
  -24.7090  -31.6400   23.1740 C   0  0  0  0  0  0  0  0  0  0  0  0
  -27.4810  -27.0590   20.3340 C   0  0  0  0  0  0  0  0  0  0  0  0
  -23.5890  -30.1900   21.5180 C   0  0  0  0  0  3  0  0  0  0  0  0
  -25.1080  -28.6240   20.1890 C   0  0  0  0  0  0  0  0  0  0  0  0
  -26.1280  -30.5370   21.4280 C   0  0  0  0  0  2  0  0  0  0  0  0
  -26.2460  -29.1460   20.8200 C   0  0  0  0  0  0  0  0  0  0  0  0
  -27.4430  -28.3770   20.8750 C   0  0  0  0  0  3  0  0  0  0  0  0
  -26.3270  -26.5750   19.6850 C   0  0  0  0  0  3  0  0  0  0  0  0
  -25.1510  -27.3430   19.6110 C   0  0  0  0  0  3  0  0  0  0  0  0
  -23.8660  -29.4870   20.1630 C   0  0  0  0  0  2  0  0  0  0  0  0
  -24.8250  -30.8070   22.0980 N   0  0  0  0  0  0  0  0  0  0  0  0
  -23.6010  -31.9170   23.6570 O   0  0  0  0  0  0  0  0  0  0  0  0
  -22.8990  -29.1870   22.4720 C   0  0  0  0  0  0  0  0  0  0  0  0
  -21.5750  -29.0180   22.3130 N   0  0  0  0  0  0  0  0  0  0  0  0
  -23.5520  -28.5650   23.3140 O   0  0  0  0  0  0  0  0  0  0  0  0
  -21.1080  -29.5770   21.6140 H   0  0  0  0  0  0  0  0  0  0  0  0
  -18.1720  -27.8700   22.7470 C   0  0  0  0  0  0  0  0  0  0  0  0
  -20.7270  -28.0940   23.0690 C   0  0  0  0  0  3  0  0  0  0  0  0
  -20.8190  -26.6580   22.5000 C   0  0  0  0  0  2  0  0  0  0  0  0
  -19.7330  -26.3470   21.4660 C   0  0  0  0  0  2  0  0  0  0  0  0
  -18.3420  -26.5150   22.0820 C   0  0  0  0  0  2  0  0  0  0  0  0
  -19.2920  -28.6180   23.1960 C   0  0  0  0  0  0  0  0  0  0  0  0
  -19.0770  -29.8880   23.7780 C   0  0  0  0  0  3  0  0  0  0  0  0
  -17.7770  -30.4070   23.9130 C   0  0  0  0  0  3  0  0  0  0  0  0
  -16.6710  -29.6540   23.4810 C   0  0  0  0  0  3  0  0  0  0  0  0
  -16.8690  -28.3880   22.9040 C   0  0  0  0  0  3  0  0  0  0  0  0
  -25.9560  -32.2980   23.8380 C   0  0  0  0  0  3  0  0  0  0  0  0
  -26.4510  -31.5330   25.1260 C   0  0  1  0  0  0  0  0  0  0  0  0
  -25.3300  -31.2620   26.1570 C   0  0  0  0  0  1  0  0  0  0  0  0
  -27.0790  -30.1720   24.7430 C   0  0  0  0  0  1  0  0  0  0  0  0
  -27.5620  -32.3510   25.8260 C   0  0  0  0  0  1  0  0  0  0  0  0
  -25.6060  -33.6870   24.1640 N   0  0  0  0  0  0  0  0  0  0  0  0
  -25.9320  -34.7510   23.4160 C   0  0  0  0  0  0  0  0  0  0  0  0
  -26.6290  -34.6670   22.4000 O   0  0  0  0  0  0  0  0  0  0  0  0
  -24.9880  -33.8240   24.9490 H   0  0  0  0  0  0  0  0  0  0  0  0
  -24.1640  -36.4980   23.0340 C   0  0  0  0  0  1  0  0  0  0  0  0
  -25.4030  -36.1260   23.8650 C   0  0  0  0  0  3  0  0  0  0  0  0
  -27.4960  -37.0690   24.7370 C   0  0  0  0  0  1  0  0  0  0  0  0
  -26.4110  -37.2040   23.7690 N   0  0  0  0  0  0  0  0  0  0  0  0
  -25.9790  -38.1150   23.9000 H   0  0  0  0  0  0  0  0  0  0  0  0
  1  3  1  0
  2  1  1  0
  2  4  1  0
  3  5  1  0
  4  5  1  0
  4  7  1  0
  5  6  1  1
  7 10  2  0
  9  7  1  0
  9  8  1  0
 11 22  1  0
 12 17  1  0
 13 14  1  0
 13 12  1  0
 15 14  1  0
 15 26  1  0
 15 16  1  0
 17 11  1  0
 17 16  1  0
 18 11  2  0
 20 22  1  0
 20 21  1  0
 21 19  1  0
 21  9  1  0
 22 19  1  0
 23 24  2  0
 24 43  1  0
 25 24  1  0
 25 28  1  0
 26 23  1  0
 26 27  1  0
 27 25  2  0
 28 29  1  0
 29 30  2  0
 31 34  1  0
 31 30  1  0
 32 31  2  0
 33 32  1  0
 33 28  2  0
 34 35  1  0
 35 36  1  0
 36 37  2  0
 38 37  1  0
 38 42  1  0
 39 38  2  0
 40 35  2  0
 40 39  1  0
 41 40  1  0
 43 44  1  0
 44 47  1  0
 44 46  1  0
 45 43  2  0
 48 49  1  0
 48 23  1  0
 50 48  1  0
 51  5  1  0
 51 52  1  0
 53 52  1  0
 54 65  2  0
 55 53  1  0
 55 60  1  0
 56 64  1  0
 56 66  1  0
 57 59  1  0
 58 64  1  0
 59 60  2  0
 59 58  1  0
 61 55  2  0
 62 61  1  0
 62 57  2  0
 63 57  1  0
 63 56  1  0
 64 54  1  0
 66 68  2  0
 67 66  1  0
 69 67  1  0
 70 79  2  0
 70 75  1  0
 71 67  1  0
 71 75  1  0
 72 71  1  0
 73 74  1  0
 73 72  1  0
 74 70  1  0
 75 76  2  0
 76 77  1  0
 78 77  2  0
 79 78  1  0
 80 54  1  0
 80 85  1  0
 80 81  1  0
 81 84  1  1
 81 82  1  0
 83 81  1  0
 85 88  1  0
 86 90  1  0
 86 85  1  0
 87 86  2  0
 90 89  1  0
 92 90  1  0
 92 93  1  0
 92 91  1  0
M  ISO  4  11 100  22 100  52 101  53 101
M  END
>  <TORSDO>  (78) 
F 19

>  <SCORE>  (78) 
-13.298

>  <name>  (78) 
79

>  <ligand_id>  (78) 
79

>  <original_smiles>  (78) 
[H]c1c([H])c([H])c2c(c1[H])C([H])([H])C([H])([H])C([H])([H])C2([H])N([H])C(=O)C1([H])N(C(=O)C([H])(N([H])C(=O)C([H])(N([H])C([H])([H])[H])C([H])([H])[H])C(C([H])([H])[H])(C([H])([H])[H])C([H])([H])[H])C([H])([H])c2c([H])c(OC([H])([H])C([H])([H])[N+]3([H])C([H])([H])C([H])([H])C([H])([H])C3([H])C(=O)N(C([H])([H])[H])C3([H])C([H])([H])N(C(=O)N4C([H])([H])C([H])([H])C([H])([H])C([H])(n5nc(-c6c([H])c([H])c(Oc7c([H])c([H])c(F)c([H])c7F)c([H])c6[H])c(C(=O)N([H])[H])c5N([H])[H])C4([H])[H])C3([H])[H])c([H])c([H])c2C1([H])[H]

>  <smiles>  (78) 
[H]c1c([H])c([H])c2c(c1[H])C([H])([H])C([H])([H])C([H])([H])C2([H])N([H])C(=O)C1([H])N(C(=O)C([H])(N([H])C(=O)C([H])(N([H])C([H])([H])[H])C([H])([H])[H])C(C([H])([H])[H])(C([H])([H])[H])C([H])([H])[H])C([H])([H])c2c([H])c(OC([H])([H])C([H])([H])[N+]3([H])C([H])([H])C([H])([H])C([H])([H])C3([H])C(=O)N(C([H])([H])[H])C3([H])C([H])([H])N(C(=O)N4C([H])([H])C([H])([H])C([H])([H])C([H])(n5nc(-c6c([H])c([H])c(Oc7c([H])c([H])c(F)c([H])c7F)c([H])c6[H])c(C(=O)N([H])[H])c5N([H])[H])C4([H])[H])C3([H])[H])c([H])c([H])c2C1([H])[H]

$$$$
80:0:0
     RDKit          3D

101110  0  0  1  0  0  0  0  0999 V2000
  -26.8150  -18.4840   20.7940 C   0  0  0  0  0  3  0  0  0  0  0  0
  -27.0790  -19.8210   20.4800 C   0  0  0  0  0  3  0  0  0  0  0  0
  -27.7970  -17.5060   20.5580 C   0  0  0  0  0  3  0  0  0  0  0  0
  -28.2910  -20.1590   19.8610 C   0  0  0  0  0  3  0  0  0  0  0  0
  -29.0560  -17.8290   19.9860 C   0  0  0  0  0  0  0  0  0  0  0  0
  -29.2730  -19.1790   19.5490 C   0  0  0  0  0  0  0  0  0  0  0  0
  -32.7680  -13.4230   20.3110 C   0  0  0  0  0  0  0  0  0  0  0  0
  -32.4840  -10.9770   20.2240 C   0  0  0  0  0  2  0  0  0  0  0  0
  -31.5770  -10.6510   19.0190 C   0  0  0  0  0  2  0  0  0  0  0  0
  -30.0890  -10.7190   19.4180 C   0  0  0  0  0  2  0  0  0  0  0  0
  -29.7320  -12.0090   20.2050 C   0  0  0  0  0  3  0  0  0  0  0  0
  -30.7580  -12.2770   21.3260 C   0  0  0  0  0  2  0  0  0  0  0  0
  -32.0930  -12.3070   20.7090 N   0  0  0  0  0  0  0  0  0  0  0  0
  -33.9320  -13.3750   19.9020 O   0  0  0  0  0  0  0  0  0  0  0  0
  -30.3640  -15.9020   18.6920 C   0  0  0  0  0  2  0  0  0  0  0  0
  -32.0560  -15.6060   21.1500 C   0  0  0  0  0  2  0  0  0  0  0  0
  -30.0950  -16.6750   20.0010 C   0  0  0  0  0  3  0  0  0  0  0  0
  -31.4360  -16.9650   20.7050 C   0  0  0  0  0  3  0  0  0  0  0  0
  -31.6240  -14.9730   18.7470 C   0  0  0  0  0  3  0  0  0  0  0  0
  -32.8140  -15.5710   17.9620 C   0  0  0  0  0  1  0  0  0  0  0  0
  -32.0110  -14.5430   20.1220 N   0  0  0  0  0  0  0  0  0  0  0  0
  -27.5130  -13.0230   21.0140 C   0  0  0  0  0  0  0  0  0  0  0  0
  -26.3300  -12.4530   21.4010 C   0  0  0  0  0  0  0  0  0  0  0  0
  -26.5260  -11.0430   21.2980 C   0  0  0  0  0  0  0  0  0  0  0  0
  -28.3660  -11.9720   20.7150 N   0  0  0  0  0  0  0  0  0  0  0  0
  -27.7750  -10.7720   20.9390 N   0  0  0  0  0  0  0  0  0  0  0  0
  -25.5770   -9.9360   21.4610 C   0  0  0  0  0  0  0  0  0  0  0  0
  -25.4750   -9.2260   22.6770 C   0  0  0  0  0  3  0  0  0  0  0  0
  -24.5420   -8.1760   22.8150 C   0  0  0  0  0  3  0  0  0  0  0  0
  -23.6980   -7.8290   21.7340 C   0  0  0  0  0  0  0  0  0  0  0  0
  -23.8190   -8.5250   20.5190 C   0  0  0  0  0  3  0  0  0  0  0  0
  -24.7510   -9.5680   20.3810 C   0  0  0  0  0  3  0  0  0  0  0  0
  -22.7790   -6.8070   21.7720 O   0  0  0  0  0  0  0  0  0  0  0  0
  -21.8490   -6.7100   22.7760 C   0  0  0  0  0  0  0  0  0  0  0  0
  -20.8620   -7.7000   22.9730 C   0  0  0  0  0  3  0  0  0  0  0  0
  -19.8840   -7.5300   23.9730 C   0  0  0  0  0  3  0  0  0  0  0  0
  -19.8810   -6.3670   24.7660 C   0  0  0  0  0  0  0  0  0  0  0  0
  -20.8560   -5.3740   24.5630 C   0  0  0  0  0  3  0  0  0  0  0  0
  -21.8370   -5.5460   23.5710 C   0  0  0  0  0  0  0  0  0  0  0  0
  -22.7650   -4.5780   23.3680 F   0  0  0  0  0  0  0  0  0  0  0  0
  -18.9370   -6.1970   25.7200 F   0  0  0  0  0  0  0  0  0  0  0  0
  -25.0600  -13.1760   21.7410 C   0  0  0  0  0  0  0  0  0  0  0  0
  -24.2480  -12.6070   22.6240 N   0  0  0  0  0  0  0  0  0  0  0  0
  -24.8050  -14.2800   21.2630 O   0  0  0  0  0  0  0  0  0  0  0  0
  -24.4650  -11.7110   23.0370 H   0  0  0  0  0  0  0  0  0  0  0  0
  -23.3970  -13.0800   22.8970 H   0  0  0  0  0  0  0  0  0  0  0  0
  -27.9210  -14.3410   20.8650 N   0  0  0  0  0  0  0  0  0  0  0  0
  -27.2430  -15.0920   20.9220 H   0  0  0  0  0  0  0  0  0  0  0  0
  -28.7350  -14.5840   20.3180 H   0  0  0  0  0  0  0  0  0  0  0  0
  -31.2990  -17.8840   21.8500 N   0  0  0  0  0  4  0  0  0  0  0  0
  -30.7230  -17.4870   22.5710 H   0  0  0  0  0  0  0  0  0  0  0  0
  -30.8600  -18.7370   21.5440 H   0  0  0  0  0  0  0  0  0  0  0  0
  -32.2010  -18.1090   22.2300 H   0  0  0  0  0  0  0  0  0  0  0  0
  -30.5010  -19.6330   18.7450 C   0  0  0  0  0  2  0  0  0  0  0  0
  -31.7680  -21.7840   19.0810 C   0  0  0  0  0  0  0  0  0  0  0  0
  -30.6760  -21.0910   18.7310 N   0  0  0  0  0  0  0  0  0  0  0  0
  -32.8230  -21.2360   19.4040 O   0  0  0  0  0  0  0  0  0  0  0  0
  -29.8600  -21.6320   18.4860 H   0  0  0  0  0  0  0  0  0  0  0  0
  -31.6520  -23.3160   19.0950 C   0  0  0  0  0  2  0  0  0  0  0  0
  -32.7150  -24.0100   18.2140 C   0  0  0  0  0  2  0  0  0  0  0  0
  -32.6140  -25.4350   18.2640 O   0  0  0  0  0  0  0  0  0  0  0  0
  -27.4930  -28.6300   21.9760 C   0  0  0  0  0  0  0  0  0  0  0  0
  -31.3890  -26.0590   18.1880 C   0  0  0  0  0  0  0  0  0  0  0  0
  -26.9710  -28.2110   19.5920 C   0  0  0  0  0  3  0  0  0  0  0  0
  -28.9310  -27.4640   18.1430 C   0  0  0  0  0  0  0  0  0  0  0  0
  -29.3880  -28.5290   20.3600 C   0  0  0  0  0  2  0  0  0  0  0  0
  -29.8040  -27.6150   19.2260 C   0  0  0  0  0  0  0  0  0  0  0  0
  -31.0330  -26.9250   19.2460 C   0  0  0  0  0  3  0  0  0  0  0  0
  -30.4910  -25.9060   17.1050 C   0  0  0  0  0  3  0  0  0  0  0  0
  -29.2690  -26.6080   17.0800 C   0  0  0  0  0  3  0  0  0  0  0  0
  -27.6420  -28.2510   18.1910 C   0  0  0  0  0  2  0  0  0  0  0  0
  -27.9500  -28.4430   20.7040 N   0  0  0  0  0  0  0  0  0  0  0  0
  -26.2800  -28.6560   22.2210 O   0  0  0  0  0  0  0  0  0  0  0  0
  -26.1900  -26.8860   19.7280 C   0  0  0  0  0  0  0  0  0  0  0  0
  -25.1920  -26.6850   18.8530 N   0  0  0  0  0  0  0  0  0  0  0  0
  -26.5030  -26.0540   20.5840 O   0  0  0  0  0  0  0  0  0  0  0  0
  -24.9900  -27.4180   18.1860 H   0  0  0  0  0  0  0  0  0  0  0  0
  -22.6520  -25.0510   16.8700 C   0  0  0  0  0  0  0  0  0  0  0  0
  -24.3470  -25.4930   18.7700 C   0  0  0  0  0  3  0  0  0  0  0  0
  -25.1380  -24.2880   18.2080 C   0  0  0  0  0  2  0  0  0  0  0  0
  -25.0060  -24.1380   16.6900 C   0  0  0  0  0  2  0  0  0  0  0  0
  -23.5370  -23.9580   16.2940 C   0  0  0  0  0  2  0  0  0  0  0  0
  -23.0400  -25.7830   18.0240 C   0  0  0  0  0  0  0  0  0  0  0  0
  -22.1970  -26.8100   18.4990 C   0  0  0  0  0  3  0  0  0  0  0  0
  -20.9890  -27.1130   17.8430 C   0  0  0  0  0  3  0  0  0  0  0  0
  -20.6030  -26.3760   16.7100 C   0  0  0  0  0  3  0  0  0  0  0  0
  -21.4300  -25.3440   16.2300 C   0  0  0  0  0  3  0  0  0  0  0  0
  -28.4700  -28.8450   23.1730 C   0  0  0  0  0  3  0  0  0  0  0  0
  -28.0170  -30.0350   23.9060 N   0  0  0  0  0  0  0  0  0  0  0  0
  -28.6380  -31.2210   23.8880 C   0  0  0  0  0  0  0  0  0  0  0  0
  -29.7070  -31.4090   23.3000 O   0  0  0  0  0  0  0  0  0  0  0  0
  -27.1200  -29.9680   24.3660 H   0  0  0  0  0  0  0  0  0  0  0  0
  -27.3030  -33.3370   23.6310 C   0  0  0  0  0  1  0  0  0  0  0  0
  -27.9650  -32.3850   24.6410 C   0  0  0  0  0  3  0  0  0  0  0  0
  -29.3500  -32.3880   26.6680 C   0  0  0  0  0  1  0  0  0  0  0  0
  -28.8970  -33.1440   25.5040 N   0  0  0  0  0  0  0  0  0  0  0  0
  -28.4640  -34.0030   25.8330 H   0  0  0  0  0  0  0  0  0  0  0  0
  -28.5630  -27.5970   24.1340 C   0  0  1  0  0  0  0  0  0  0  0  0
  -27.1890  -27.0930   24.6320 C   0  0  0  0  0  1  0  0  0  0  0  0
  -29.2730  -26.4180   23.4300 C   0  0  0  0  0  1  0  0  0  0  0  0
  -29.4220  -27.9500   25.3720 C   0  0  0  0  0  1  0  0  0  0  0  0
  2  1  2  0
  3  1  1  0
  4  2  1  0
  5  3  2  0
  6  4  2  0
  6  5  1  0
  7 13  1  0
  8 13  1  0
  9 10  1  0
  9  8  1  0
 11 10  1  0
 11 25  1  0
 11 12  1  0
 13 12  1  0
 14  7  2  0
 15 19  1  0
 15 17  1  0
 17  5  1  0
 17 18  1  0
 18 16  1  0
 18 50  1  0
 19 20  1  0
 19 21  1  0
 21  7  1  0
 21 16  1  0
 22 23  2  0
 23 42  1  0
 24 23  1  0
 24 27  1  0
 25 26  1  0
 25 22  1  0
 26 24  2  0
 27 28  1  0
 28 29  2  0
 30 33  1  0
 30 29  1  0
 31 30  2  0
 32 31  1  0
 32 27  2  0
 33 34  1  0
 34 35  2  0
 34 39  1  0
 35 36  1  0
 36 37  2  0
 37 41  1  0
 38 37  1  0
 39 38  2  0
 40 39  1  0
 42 43  1  0
 43 46  1  0
 43 45  1  0
 44 42  2  0
 47 48  1  0
 47 22  1  0
 49 47  1  0
 50 53  1  0
 50 51  1  0
 52 50  1  0
 54  6  1  0
 55 59  1  0
 55 57  2  0
 56 54  1  0
 56 55  1  0
 58 56  1  0
 60 61  1  0
 60 59  1  0
 62 73  2  0
 63 61  1  0
 63 68  1  0
 64 74  1  0
 64 72  1  0
 65 71  1  0
 65 67  1  0
 66 72  1  0
 67 68  2  0
 67 66  1  0
 69 63  2  0
 70 69  1  0
 70 65  2  0
 71 64  1  0
 72 62  1  0
 74 76  2  0
 75 74  1  0
 77 75  1  0
 78 83  1  0
 79 75  1  0
 80 79  1  0
 81 80  1  0
 82 81  1  0
 82 78  1  0
 83 84  2  0
 83 79  1  0
 85 84  1  0
 86 85  2  0
 87 86  1  0
 87 78  2  0
 88 62  1  0
 88 89  1  0
 88 98  1  0
 89 92  1  0
 90 89  1  0
 90 94  1  0
 91 90  2  0
 94 93  1  0
 94 96  1  0
 96 97  1  0
 96 95  1  0
 98 99  1  1
 98101  1  0
100 98  1  0
M  ISO  4   7 100  21 100  60 101  61 101
M  END
>  <TORSDO>  (79) 
F 21

>  <SCORE>  (79) 
-2.507

>  <name>  (79) 
80

>  <ligand_id>  (79) 
80

>  <original_smiles>  (79) 
[H]c1c([H])c([H])c(C2([H])C([H])([H])C([H])(C([H])([H])[H])N(C(=O)N3C([H])([H])C([H])([H])C([H])([H])C([H])(n4nc(-c5c([H])c([H])c(Oc6c([H])c([H])c(F)c([H])c6F)c([H])c5[H])c(C(=O)N([H])[H])c4N([H])[H])C3([H])[H])C([H])([H])C2([H])[N+]([H])([H])[H])c(C([H])([H])N([H])C(=O)C([H])([H])C([H])([H])Oc2c([H])c([H])c3c(c2[H])C([H])([H])N(C(=O)C([H])(N([H])C(=O)C([H])(N([H])C([H])([H])[H])C([H])([H])[H])C(C([H])([H])[H])(C([H])([H])[H])C([H])([H])[H])C([H])(C(=O)N([H])C2([H])c4c([H])c([H])c([H])c([H])c4C([H])([H])C([H])([H])C2([H])[H])C3([H])[H])c1[H]

>  <smiles>  (79) 
[H]c1c([H])c([H])c(C2([H])C([H])([H])C([H])(C([H])([H])[H])N(C(=O)N3C([H])([H])C([H])([H])C([H])([H])C([H])(n4nc(-c5c([H])c([H])c(Oc6c([H])c([H])c(F)c([H])c6F)c([H])c5[H])c(C(=O)N([H])[H])c4N([H])[H])C3([H])[H])C([H])([H])C2([H])[N+]([H])([H])[H])c(C([H])([H])N([H])C(=O)C([H])([H])C([H])([H])Oc2c([H])c([H])c3c(c2[H])C([H])([H])N(C(=O)C([H])(N([H])C(=O)C([H])(N([H])C([H])([H])[H])C([H])([H])[H])C(C([H])([H])[H])(C([H])([H])[H])C([H])([H])[H])C([H])(C(=O)N([H])C2([H])c4c([H])c([H])c([H])c([H])c4C([H])([H])C([H])([H])C2([H])[H])C3([H])[H])c1[H]

$$$$
81:0:0
     RDKit          3D

 97106  0  0  1  0  0  0  0  0999 V2000
  -29.4650  -25.0890   17.6980 C   0  0  0  0  0  0  0  0  0  0  0  0
  -31.8300  -22.9710   18.9690 C   0  0  0  0  0  2  0  0  0  0  0  0
  -29.6780  -21.7480   18.3640 C   0  0  0  0  0  2  0  0  0  0  0  0
  -31.6240  -23.8120   17.6960 C   0  0  0  0  0  2  0  0  0  0  0  0
  -29.5610  -22.6740   17.1370 C   0  0  0  0  0  2  0  0  0  0  0  0
  -31.1430  -21.5970   18.8420 C   0  0  0  0  0  3  0  0  0  0  0  0
  -30.1800  -23.9610   17.4740 N   0  0  0  0  0  0  0  0  0  0  0  0
  -28.2640  -25.1650   17.4130 O   0  0  0  0  0  0  0  0  0  0  0  0
  -30.1650  -26.2880   18.3610 C   0  0  0  0  0  2  0  0  0  0  0  0
  -29.2090  -27.3670   18.8870 C   0  0  0  0  0  2  0  0  0  0  0  0
  -28.4230  -26.8540   19.9620 O   0  0  0  0  0  0  0  0  0  0  0  0
  -24.5370  -31.8600   23.2140 C   0  0  0  0  0  0  0  0  0  0  0  0
  -27.2370  -27.5250   20.0760 C   0  0  0  0  0  0  0  0  0  0  0  0
  -23.3450  -30.4680   21.5510 C   0  0  0  0  0  3  0  0  0  0  0  0
  -24.8190  -28.9560   20.1220 C   0  0  0  0  0  0  0  0  0  0  0  0
  -25.8650  -30.8610   21.3630 C   0  0  0  0  0  2  0  0  0  0  0  0
  -25.9640  -29.5000   20.7160 C   0  0  0  0  0  0  0  0  0  0  0  0
  -27.1800  -28.7870   20.7000 C   0  0  0  0  0  3  0  0  0  0  0  0
  -26.0780  -26.9740   19.4970 C   0  0  0  0  0  3  0  0  0  0  0  0
  -24.8630  -27.6860   19.5180 C   0  0  0  0  0  3  0  0  0  0  0  0
  -23.5660  -29.7980   20.1670 C   0  0  0  0  0  2  0  0  0  0  0  0
  -24.6000  -31.0780   22.1000 N   0  0  0  0  0  0  0  0  0  0  0  0
  -23.4520  -32.1170   23.7530 O   0  0  0  0  0  0  0  0  0  0  0  0
  -22.7020  -29.4320   22.4970 C   0  0  0  0  0  0  0  0  0  0  0  0
  -21.3810  -29.2340   22.3610 N   0  0  0  0  0  0  0  0  0  0  0  0
  -23.3910  -28.8020   23.3050 O   0  0  0  0  0  0  0  0  0  0  0  0
  -20.8890  -29.7940   21.6790 H   0  0  0  0  0  0  0  0  0  0  0  0
  -18.0150  -28.0180   22.8320 C   0  0  0  0  0  0  0  0  0  0  0  0
  -20.5700  -28.2810   23.1170 C   0  0  0  0  0  3  0  0  0  0  0  0
  -20.6800  -26.8600   22.5170 C   0  0  0  0  0  2  0  0  0  0  0  0
  -19.5850  -26.5470   21.4940 C   0  0  0  0  0  2  0  0  0  0  0  0
  -18.2000  -26.6790   22.1340 C   0  0  0  0  0  2  0  0  0  0  0  0
  -19.1290  -28.7760   23.2780 C   0  0  0  0  0  0  0  0  0  0  0  0
  -18.9040  -30.0300   23.8850 C   0  0  0  0  0  3  0  0  0  0  0  0
  -17.5980  -30.5260   24.0520 C   0  0  0  0  0  3  0  0  0  0  0  0
  -16.4980  -29.7610   23.6280 C   0  0  0  0  0  3  0  0  0  0  0  0
  -16.7070  -28.5090   23.0220 C   0  0  0  0  0  3  0  0  0  0  0  0
  -25.8170  -32.4910   23.8470 C   0  0  0  0  0  3  0  0  0  0  0  0
  -26.3290  -31.7170   25.1240 C   0  0  1  0  0  0  0  0  0  0  0  0
  -25.2290  -31.4750   26.1840 C   0  0  0  0  0  1  0  0  0  0  0  0
  -26.9190  -30.3440   24.7310 C   0  0  0  0  0  1  0  0  0  0  0  0
  -27.4760  -32.5110   25.7910 C   0  0  0  0  0  1  0  0  0  0  0  0
  -25.5050  -33.8880   24.1740 N   0  0  0  0  0  0  0  0  0  0  0  0
  -25.8530  -34.9400   23.4190 C   0  0  0  0  0  0  0  0  0  0  0  0
  -26.5410  -34.8350   22.4010 O   0  0  0  0  0  0  0  0  0  0  0  0
  -24.8930  -34.0430   24.9600 H   0  0  0  0  0  0  0  0  0  0  0  0
  -24.1440  -36.7380   23.0180 C   0  0  0  0  0  1  0  0  0  0  0  0
  -25.3570  -36.3260   23.8660 C   0  0  0  0  0  3  0  0  0  0  0  0
  -27.4690  -37.1980   24.7680 C   0  0  0  0  0  1  0  0  0  0  0  0
  -26.3960  -37.3760   23.7920 N   0  0  0  0  0  0  0  0  0  0  0  0
  -25.9890  -38.2980   23.9300 H   0  0  0  0  0  0  0  0  0  0  0  0
  -31.1730  -21.0060   20.1360 O   0  0  0  0  0  0  0  0  0  0  0  0
  -30.6780  -17.7990   21.8570 C   0  0  0  0  0  3  0  0  0  0  0  0
  -30.9100  -19.1630   21.6010 C   0  0  0  0  0  3  0  0  0  0  0  0
  -30.5050  -18.8010   19.2360 C   0  0  0  0  0  3  0  0  0  0  0  0
  -30.2430  -17.4380   19.4810 C   0  0  0  0  0  0  0  0  0  0  0  0
  -30.3930  -16.9180   20.7970 C   0  0  0  0  0  0  0  0  0  0  0  0
  -30.8610  -19.6730   20.2910 C   0  0  0  0  0  0  0  0  0  0  0  0
  -29.7790  -16.5840   18.3120 C   0  0  0  0  0  1  0  0  0  0  0  0
  -30.9420  -14.5420   20.5800 C   0  0  0  0  0  0  0  0  0  0  0  0
  -30.6630  -12.3790   19.4510 C   0  0  0  0  0  2  0  0  0  0  0  0
  -29.7740  -12.6020   18.2100 C   0  0  0  0  0  2  0  0  0  0  0  0
  -28.2810  -12.5090   18.5830 C   0  0  0  0  0  2  0  0  0  0  0  0
  -27.9120  -13.3510   19.8340 C   0  0  0  0  0  3  0  0  0  0  0  0
  -28.9200  -13.0940   20.9780 C   0  0  0  0  0  2  0  0  0  0  0  0
  -30.2740  -13.3670   20.4630 N   0  0  0  0  0  0  0  0  0  0  0  0
  -32.0760  -14.7270   20.1250 O   0  0  0  0  0  0  0  0  0  0  0  0
  -30.2230  -15.5440   21.1040 N   0  0  0  0  0  0  0  0  0  0  0  0
  -29.4080  -15.2910   21.6430 H   0  0  0  0  0  0  0  0  0  0  0  0
  -25.4890  -13.9940   20.4210 C   0  0  0  0  0  0  0  0  0  0  0  0
  -24.4020  -13.2370   20.7660 C   0  0  0  0  0  0  0  0  0  0  0  0
  -24.8550  -11.8830   20.7890 C   0  0  0  0  0  0  0  0  0  0  0  0
  -26.5370  -13.1000   20.2590 N   0  0  0  0  0  0  0  0  0  0  0  0
  -26.1550  -11.8270   20.5340 N   0  0  0  0  0  0  0  0  0  0  0  0
  -24.1160  -10.6300   20.9830 C   0  0  0  0  0  0  0  0  0  0  0  0
  -24.5040   -9.6850   21.9590 C   0  0  0  0  0  3  0  0  0  0  0  0
  -23.7660   -8.4950   22.1360 C   0  0  0  0  0  3  0  0  0  0  0  0
  -22.6260   -8.2430   21.3380 C   0  0  0  0  0  0  0  0  0  0  0  0
  -22.2600   -9.1740   20.3490 C   0  0  0  0  0  3  0  0  0  0  0  0
  -22.9990  -10.3560   20.1710 C   0  0  0  0  0  3  0  0  0  0  0  0
  -21.8630   -7.1040   21.4250 O   0  0  0  0  0  0  0  0  0  0  0  0
  -21.7530   -6.4000   22.5960 C   0  0  0  0  0  0  0  0  0  0  0  0
  -21.2350   -6.9860   23.7720 C   0  0  0  0  0  3  0  0  0  0  0  0
  -21.0740   -6.2080   24.9360 C   0  0  0  0  0  3  0  0  0  0  0  0
  -21.4230   -4.8430   24.9240 C   0  0  0  0  0  0  0  0  0  0  0  0
  -21.9330   -4.2570   23.7520 C   0  0  0  0  0  3  0  0  0  0  0  0
  -22.0960   -5.0330   22.5920 C   0  0  0  0  0  0  0  0  0  0  0  0
  -22.5690   -4.4570   21.4610 F   0  0  0  0  0  0  0  0  0  0  0  0
  -21.2590   -4.0930   26.0390 F   0  0  0  0  0  0  0  0  0  0  0  0
  -22.9980  -13.7270   20.9730 C   0  0  0  0  0  0  0  0  0  0  0  0
  -22.2350  -13.0560   21.8310 N   0  0  0  0  0  0  0  0  0  0  0  0
  -22.5850  -14.7410   20.4100 O   0  0  0  0  0  0  0  0  0  0  0  0
  -22.5810  -12.2340   22.3030 H   0  0  0  0  0  0  0  0  0  0  0  0
  -21.2910  -13.3650   22.0150 H   0  0  0  0  0  0  0  0  0  0  0  0
  -25.6690  -15.3580   20.2150 N   0  0  0  0  0  0  0  0  0  0  0  0
  -24.9000  -16.0180   20.2640 H   0  0  0  0  0  0  0  0  0  0  0  0
  -26.5360  -15.7820   19.9110 H   0  0  0  0  0  0  0  0  0  0  0  0
  1  9  1  0
  3  6  1  0
  4  2  1  0
  5  7  1  0
  5  3  1  0
  6  2  1  0
  6 52  1  0
  7  4  1  0
  7  1  1  0
  8  1  2  0
  9 10  1  0
 10 11  1  0
 11 13  1  0
 12 23  2  0
 13 18  1  0
 14 22  1  0
 14 24  1  0
 15 21  1  0
 15 17  1  0
 16 22  1  0
 17 16  1  0
 18 17  2  0
 19 20  1  0
 19 13  2  0
 20 15  2  0
 21 14  1  0
 22 12  1  0
 24 26  2  0
 25 24  1  0
 27 25  1  0
 28 37  2  0
 28 33  1  0
 29 25  1  0
 29 33  1  0
 30 29  1  0
 31 32  1  0
 31 30  1  0
 32 28  1  0
 33 34  2  0
 34 35  1  0
 36 35  2  0
 37 36  1  0
 38 12  1  0
 38 43  1  0
 38 39  1  0
 39 42  1  1
 39 40  1  0
 41 39  1  0
 43 46  1  0
 44 48  1  0
 44 43  1  0
 45 44  2  0
 48 47  1  0
 50 48  1  0
 50 51  1  0
 50 49  1  0
 52 58  1  0
 54 53  1  0
 55 56  2  0
 55 58  1  0
 56 57  1  0
 57 68  1  0
 57 53  2  0
 58 54  2  0
 59 56  1  0
 60 68  1  0
 61 66  1  0
 62 63  1  0
 62 61  1  0
 64 63  1  0
 64 73  1  0
 64 65  1  0
 66 60  1  0
 66 65  1  0
 67 60  2  0
 68 69  1  0
 70 71  2  0
 71 72  1  0
 71 90  1  0
 72 75  1  0
 73 70  1  0
 73 74  1  0
 74 72  2  0
 75 76  1  0
 76 77  2  0
 78 81  1  0
 78 77  1  0
 79 78  2  0
 80 79  1  0
 80 75  2  0
 81 82  1  0
 82 83  1  0
 83 84  2  0
 85 84  1  0
 85 89  1  0
 86 85  2  0
 87 82  2  0
 87 86  1  0
 88 87  1  0
 90 91  1  0
 91 94  1  0
 91 93  1  0
 92 90  2  0
 95 96  1  0
 95 70  1  0
 97 95  1  0
M  ISO  4  10 101  11 101  60 100  68 100
M  END
>  <TORSDO>  (80) 
F 20

>  <SCORE>  (80) 
-13.526

>  <name>  (80) 
81

>  <ligand_id>  (80) 
81

>  <original_smiles>  (80) 
[H]c1c([H])c([H])c2c(c1[H])C([H])([H])C([H])([H])C([H])([H])C2([H])N([H])C(=O)C1([H])N(C(=O)C([H])(N([H])C(=O)C([H])(N([H])C([H])([H])[H])C([H])([H])[H])C(C([H])([H])[H])(C([H])([H])[H])C([H])([H])[H])C([H])([H])c2c([H])c(OC([H])([H])C([H])([H])C(=O)N3C([H])([H])C([H])([H])C([H])(Oc4c([H])c([H])c(N([H])C(=O)N5C([H])([H])C([H])([H])C([H])([H])C([H])(n6nc(-c7c([H])c([H])c(Oc8c([H])c([H])c(F)c([H])c8F)c([H])c7[H])c(C(=O)N([H])[H])c6N([H])[H])C5([H])[H])c(C([H])([H])[H])c4[H])C([H])([H])C3([H])[H])c([H])c([H])c2C1([H])[H]

>  <smiles>  (80) 
[H]c1c([H])c([H])c2c(c1[H])C([H])([H])C([H])([H])C([H])([H])C2([H])N([H])C(=O)C1([H])N(C(=O)C([H])(N([H])C(=O)C([H])(N([H])C([H])([H])[H])C([H])([H])[H])C(C([H])([H])[H])(C([H])([H])[H])C([H])([H])[H])C([H])([H])c2c([H])c(OC([H])([H])C([H])([H])C(=O)N3C([H])([H])C([H])([H])C([H])(Oc4c([H])c([H])c(N([H])C(=O)N5C([H])([H])C([H])([H])C([H])([H])C([H])(n6nc(-c7c([H])c([H])c(Oc8c([H])c([H])c(F)c([H])c8F)c([H])c7[H])c(C(=O)N([H])[H])c6N([H])[H])C5([H])[H])c(C([H])([H])[H])c4[H])C([H])([H])C3([H])[H])c([H])c([H])c2C1([H])[H]

$$$$
82:0:0
     RDKit          3D

 93102  0  0  1  0  0  0  0  0999 V2000
  -30.5890  -18.8130   22.7260 C   0  0  0  0  0  3  0  0  0  0  0  0
  -30.8720  -17.6080   22.1880 C   0  0  0  0  0  3  0  0  0  0  0  0
  -29.5710  -24.4190   20.8800 C   0  0  0  0  0  0  0  0  0  0  0  0
  -30.4950  -21.3590   22.4720 C   0  0  0  0  0  2  0  0  0  0  0  0
  -28.9420  -20.8010   19.7850 C   0  0  0  0  0  2  0  0  0  0  0  0
  -29.5640  -18.2560   20.1310 C   0  0  0  0  0  2  0  0  0  0  0  0
  -30.9460  -22.4090   21.4230 C   0  0  0  0  0  2  0  0  0  0  0  0
  -29.4500  -22.2640   19.5020 C   0  0  0  0  0  2  0  0  0  0  0  0
  -29.9350  -19.9840   21.9880 C   0  0  0  0  0  3  0  0  0  0  0  0
  -30.5560  -17.2080   20.7550 C   0  0  0  0  0  3  0  0  0  0  0  0
  -29.9110  -19.7640   20.4540 C   0  0  0  0  0  3  0  0  0  0  0  0
  -29.8550  -23.0770   20.6740 N   0  0  0  0  0  0  0  0  0  0  0  0
  -30.0740  -25.0270   21.8330 O   0  0  0  0  0  0  0  0  0  0  0  0
  -30.8130  -14.7020   20.2310 C   0  0  0  0  0  0  0  0  0  0  0  0
  -30.4880  -12.5280   19.0820 C   0  0  0  0  0  2  0  0  0  0  0  0
  -29.5070  -12.7210   17.9060 C   0  0  0  0  0  2  0  0  0  0  0  0
  -28.0480  -12.5730   18.3830 C   0  0  0  0  0  2  0  0  0  0  0  0
  -27.7510  -13.3970   19.6650 C   0  0  0  0  0  3  0  0  0  0  0  0
  -28.8450  -13.1910   20.7350 C   0  0  0  0  0  2  0  0  0  0  0  0
  -30.1400  -13.5170   20.1200 N   0  0  0  0  0  0  0  0  0  0  0  0
  -31.9560  -14.8380   19.7870 O   0  0  0  0  0  0  0  0  0  0  0  0
  -30.1070  -15.7780   20.6820 N   0  0  0  0  0  0  0  0  0  0  0  0
  -29.1620  -15.5890   20.9800 H   0  0  0  0  0  0  0  0  0  0  0  0
  -25.3850  -13.9940   20.4690 C   0  0  0  0  0  0  0  0  0  0  0  0
  -24.3280  -13.2180   20.8600 C   0  0  0  0  0  0  0  0  0  0  0  0
  -24.7820  -11.8650   20.7920 C   0  0  0  0  0  0  0  0  0  0  0  0
  -26.4180  -13.1140   20.1890 N   0  0  0  0  0  0  0  0  0  0  0  0
  -26.0630  -11.8280   20.4410 N   0  0  0  0  0  0  0  0  0  0  0  0
  -24.0560  -10.6030   20.9820 C   0  0  0  0  0  0  0  0  0  0  0  0
  -24.4990   -9.6280   21.9040 C   0  0  0  0  0  3  0  0  0  0  0  0
  -23.7730   -8.4300   22.0800 C   0  0  0  0  0  3  0  0  0  0  0  0
  -22.5920   -8.1990   21.3350 C   0  0  0  0  0  0  0  0  0  0  0  0
  -22.1700   -9.1630   20.4030 C   0  0  0  0  0  3  0  0  0  0  0  0
  -22.8950  -10.3520   20.2240 C   0  0  0  0  0  3  0  0  0  0  0  0
  -21.8360   -7.0540   21.4240 O   0  0  0  0  0  0  0  0  0  0  0  0
  -21.7790   -6.3180   22.5800 C   0  0  0  0  0  0  0  0  0  0  0  0
  -21.2860   -6.8610   23.7870 C   0  0  0  0  0  3  0  0  0  0  0  0
  -21.1790   -6.0490   24.9330 C   0  0  0  0  0  3  0  0  0  0  0  0
  -21.5550   -4.6930   24.8730 C   0  0  0  0  0  0  0  0  0  0  0  0
  -22.0410   -4.1490   23.6710 C   0  0  0  0  0  3  0  0  0  0  0  0
  -22.1490   -4.9590   22.5280 C   0  0  0  0  0  0  0  0  0  0  0  0
  -22.5980   -4.4250   21.3670 F   0  0  0  0  0  0  0  0  0  0  0  0
  -21.4450   -3.9110   25.9720 F   0  0  0  0  0  0  0  0  0  0  0  0
  -22.9420  -13.6960   21.1870 C   0  0  0  0  0  0  0  0  0  0  0  0
  -22.2390  -12.9860   22.0620 N   0  0  0  0  0  0  0  0  0  0  0  0
  -22.4930  -14.7340   20.7020 O   0  0  0  0  0  0  0  0  0  0  0  0
  -22.6140  -12.1450   22.4750 H   0  0  0  0  0  0  0  0  0  0  0  0
  -21.3110  -13.2890   22.3260 H   0  0  0  0  0  0  0  0  0  0  0  0
  -25.5470  -15.3660   20.3040 N   0  0  0  0  0  0  0  0  0  0  0  0
  -24.7750  -16.0120   20.4250 H   0  0  0  0  0  0  0  0  0  0  0  0
  -26.3720  -15.8040   19.9170 H   0  0  0  0  0  0  0  0  0  0  0  0
  -28.6270  -25.2580   19.9490 C   0  0  0  0  0  2  0  0  0  0  0  0
  -28.6350  -26.6960   20.2780 O   0  0  0  0  0  0  0  0  0  0  0  0
  -24.6890  -31.9030   23.2390 C   0  0  0  0  0  0  0  0  0  0  0  0
  -27.4680  -27.4580   20.1970 C   0  0  0  0  0  0  0  0  0  0  0  0
  -23.5470  -30.5010   21.5540 C   0  0  0  0  0  3  0  0  0  0  0  0
  -25.0610  -28.9930   20.1490 C   0  0  0  0  0  0  0  0  0  0  0  0
  -26.0800  -30.8740   21.4350 C   0  0  0  0  0  2  0  0  0  0  0  0
  -26.2000  -29.5060   20.7820 C   0  0  0  0  0  0  0  0  0  0  0  0
  -27.4010  -28.7460   20.7990 C   0  0  0  0  0  3  0  0  0  0  0  0
  -26.3090  -26.9900   19.5320 C   0  0  0  0  0  3  0  0  0  0  0  0
  -25.1160  -27.7400   19.5180 C   0  0  0  0  0  3  0  0  0  0  0  0
  -23.8070  -29.8400   20.1740 C   0  0  0  0  0  2  0  0  0  0  0  0
  -24.7890  -31.1100   22.1350 N   0  0  0  0  0  0  0  0  0  0  0  0
  -23.5890  -32.1560   23.7530 O   0  0  0  0  0  0  0  0  0  0  0  0
  -22.8850  -29.4630   22.4900 C   0  0  0  0  0  0  0  0  0  0  0  0
  -21.5590  -29.2870   22.3530 N   0  0  0  0  0  0  0  0  0  0  0  0
  -23.5600  -28.8200   23.2960 O   0  0  0  0  0  0  0  0  0  0  0  0
  -21.0750  -29.8580   21.6760 H   0  0  0  0  0  0  0  0  0  0  0  0
  -18.1700  -28.1350   22.8590 C   0  0  0  0  0  0  0  0  0  0  0  0
  -20.7360  -28.3330   23.0980 C   0  0  0  0  0  3  0  0  0  0  0  0
  -20.8010  -26.9250   22.4620 C   0  0  0  0  0  2  0  0  0  0  0  0
  -19.6760  -26.6660   21.4550 C   0  0  0  0  0  2  0  0  0  0  0  0
  -18.3080  -26.8110   22.1260 C   0  0  0  0  0  2  0  0  0  0  0  0
  -19.3100  -28.8570   23.3010 C   0  0  0  0  0  0  0  0  0  0  0  0
  -19.1260  -30.0990   23.9480 C   0  0  0  0  0  3  0  0  0  0  0  0
  -17.8350  -30.6180   24.1560 C   0  0  0  0  0  3  0  0  0  0  0  0
  -16.7090  -29.8910   23.7300 C   0  0  0  0  0  3  0  0  0  0  0  0
  -16.8780  -28.6530   23.0860 C   0  0  0  0  0  3  0  0  0  0  0  0
  -25.9470  -32.5510   23.8990 C   0  0  0  0  0  3  0  0  0  0  0  0
  -25.6160  -33.9480   24.2100 N   0  0  0  0  0  0  0  0  0  0  0  0
  -25.9490  -34.9960   23.4450 C   0  0  0  0  0  0  0  0  0  0  0  0
  -26.6350  -34.8890   22.4250 O   0  0  0  0  0  0  0  0  0  0  0  0
  -25.0110  -34.1060   25.0040 H   0  0  0  0  0  0  0  0  0  0  0  0
  -24.2060  -36.7620   23.0460 C   0  0  0  0  0  1  0  0  0  0  0  0
  -25.4400  -36.3840   23.8810 C   0  0  0  0  0  3  0  0  0  0  0  0
  -27.5430  -37.3100   24.7460 C   0  0  0  0  0  1  0  0  0  0  0  0
  -26.4620  -37.4470   23.7730 N   0  0  0  0  0  0  0  0  0  0  0  0
  -26.0420  -38.3650   23.8920 H   0  0  0  0  0  0  0  0  0  0  0  0
  -26.4290  -31.7920   25.1960 C   0  0  1  0  0  0  0  0  0  0  0  0
  -25.3020  -31.5410   26.2250 C   0  0  0  0  0  1  0  0  0  0  0  0
  -27.0460  -30.4220   24.8270 C   0  0  0  0  0  1  0  0  0  0  0  0
  -27.5450  -32.6060   25.8950 C   0  0  0  0  0  1  0  0  0  0  0  0
  2  1  2  0
  3 13  2  0
  6 11  1  0
  6 10  1  0
  7  4  1  0
  8  5  1  0
  8 12  1  0
  9  4  1  0
  9  1  1  0
 10 22  1  0
 10  2  1  0
 11  5  1  0
 11  9  1  0
 12  3  1  0
 12  7  1  0
 14 22  1  0
 15 20  1  0
 16 17  1  0
 16 15  1  0
 18 17  1  0
 18 27  1  0
 18 19  1  0
 20 14  1  0
 20 19  1  0
 21 14  2  0
 22 23  1  0
 24 25  2  0
 25 44  1  0
 26 25  1  0
 26 29  1  0
 27 28  1  0
 27 24  1  0
 28 26  2  0
 29 30  1  0
 30 31  2  0
 32 35  1  0
 32 31  1  0
 33 32  2  0
 34 33  1  0
 34 29  2  0
 35 36  1  0
 36 37  1  0
 37 38  2  0
 39 38  1  0
 39 43  1  0
 40 39  2  0
 41 36  2  0
 41 40  1  0
 42 41  1  0
 44 45  1  0
 45 48  1  0
 45 47  1  0
 46 44  2  0
 49 50  1  0
 49 24  1  0
 51 49  1  0
 52 53  1  0
 52  3  1  0
 54 65  2  0
 55 53  1  0
 55 60  1  0
 56 64  1  0
 56 66  1  0
 57 63  1  0
 57 59  1  0
 58 64  1  0
 59 60  2  0
 59 58  1  0
 61 55  2  0
 62 61  1  0
 62 57  2  0
 63 56  1  0
 64 54  1  0
 66 68  2  0
 67 66  1  0
 69 67  1  0
 70 79  2  0
 70 75  1  0
 71 67  1  0
 71 75  1  0
 72 71  1  0
 73 74  1  0
 73 72  1  0
 74 70  1  0
 75 76  2  0
 76 77  1  0
 78 77  2  0
 79 78  1  0
 80 54  1  0
 80 81  1  0
 80 90  1  0
 81 84  1  0
 82 86  1  0
 82 81  1  0
 83 82  2  0
 86 85  1  0
 88 86  1  0
 88 89  1  0
 88 87  1  0
 90 93  1  1
 90 91  1  0
 92 90  1  0
M  ISO  4  14 100  22 100  52 101  53 101
M  END
>  <TORSDO>  (81) 
F 17

>  <SCORE>  (81) 
-14.603

>  <name>  (81) 
82

>  <ligand_id>  (81) 
82

>  <original_smiles>  (81) 
[H]C1=C([H])C2([H])C([H])([H])C([H])([H])N(C(=O)C([H])([H])Oc3c([H])c([H])c4c(c3[H])C([H])([H])N(C(=O)C([H])(N([H])C(=O)C([H])(N([H])C([H])([H])[H])C([H])([H])[H])C(C([H])([H])[H])(C([H])([H])[H])C([H])([H])[H])C([H])(C(=O)N([H])C3([H])c5c([H])c([H])c([H])c([H])c5C([H])([H])C([H])([H])C3([H])[H])C4([H])[H])C([H])([H])C([H])([H])C2([H])C([H])([H])C1([H])N([H])C(=O)N1C([H])([H])C([H])([H])C([H])([H])C([H])(n2nc(-c3c([H])c([H])c(Oc4c([H])c([H])c(F)c([H])c4F)c([H])c3[H])c(C(=O)N([H])[H])c2N([H])[H])C1([H])[H]

>  <smiles>  (81) 
[H]C1=C([H])C2([H])C([H])([H])C([H])([H])N(C(=O)C([H])([H])Oc3c([H])c([H])c4c(c3[H])C([H])([H])N(C(=O)C([H])(N([H])C(=O)C([H])(N([H])C([H])([H])[H])C([H])([H])[H])C(C([H])([H])[H])(C([H])([H])[H])C([H])([H])[H])C([H])(C(=O)N([H])C3([H])c5c([H])c([H])c([H])c([H])c5C([H])([H])C([H])([H])C3([H])[H])C4([H])[H])C([H])([H])C([H])([H])C2([H])C([H])([H])C1([H])N([H])C(=O)N1C([H])([H])C([H])([H])C([H])([H])C([H])(n2nc(-c3c([H])c([H])c(Oc4c([H])c([H])c(F)c([H])c4F)c([H])c3[H])c(C(=O)N([H])[H])c2N([H])[H])C1([H])[H]

$$$$
83:0:0
     RDKit          3D

 95103  0  0  1  0  0  0  0  0999 V2000
  -28.1790  -19.2620   20.3800 C   0  0  0  0  0  3  0  0  0  0  0  0
  -28.7610  -18.0120   20.6940 C   0  0  0  0  0  3  0  0  0  0  0  0
  -30.9040  -19.1110   20.9260 C   0  0  0  0  0  3  0  0  0  0  0  0
  -28.9350  -20.4640   20.3240 C   0  0  0  0  0  0  0  0  0  0  0  0
  -30.1390  -17.9230   20.9680 C   0  0  0  0  0  0  0  0  0  0  0  0
  -30.3360  -20.3720   20.6070 C   0  0  0  0  0  0  0  0  0  0  0  0
  -28.2070  -21.7400   19.9100 C   0  0  0  0  0  0  0  0  0  0  0  0
  -28.6910  -22.9360   20.2940 N   0  0  0  0  0  0  0  0  0  0  0  0
  -27.1620  -21.6620   19.2590 O   0  0  0  0  0  0  0  0  0  0  0  0
  -29.5920  -22.9070   20.7640 H   0  0  0  0  0  0  0  0  0  0  0  0
  -28.1350  -24.2380   19.8820 C   0  0  0  0  0  2  0  0  0  0  0  0
  -28.4860  -25.4060   20.8380 C   0  0  0  0  0  2  0  0  0  0  0  0
  -28.4680  -26.7040   20.2130 O   0  0  0  0  0  0  0  0  0  0  0  0
  -24.6070  -31.8720   23.2430 C   0  0  0  0  0  0  0  0  0  0  0  0
  -27.2840  -27.4100   20.2320 C   0  0  0  0  0  0  0  0  0  0  0  0
  -23.4150  -30.4570   21.6000 C   0  0  0  0  0  3  0  0  0  0  0  0
  -24.8830  -28.9100   20.2010 C   0  0  0  0  0  0  0  0  0  0  0  0
  -25.9400  -30.8220   21.4170 C   0  0  0  0  0  2  0  0  0  0  0  0
  -26.0340  -29.4430   20.7950 C   0  0  0  0  0  0  0  0  0  0  0  0
  -27.2380  -28.7040   20.8020 C   0  0  0  0  0  3  0  0  0  0  0  0
  -26.1190  -26.8910   19.6290 C   0  0  0  0  0  3  0  0  0  0  0  0
  -24.9210  -27.6320   19.6150 C   0  0  0  0  0  3  0  0  0  0  0  0
  -23.6360  -29.7660   20.2280 C   0  0  0  0  0  2  0  0  0  0  0  0
  -24.6720  -31.0670   22.1450 N   0  0  0  0  0  0  0  0  0  0  0  0
  -23.5220  -32.1440   23.7760 O   0  0  0  0  0  0  0  0  0  0  0  0
  -22.7570  -29.4410   22.5640 C   0  0  0  0  0  0  0  0  0  0  0  0
  -21.4330  -29.2650   22.4350 N   0  0  0  0  0  0  0  0  0  0  0  0
  -23.4380  -28.8160   23.3800 O   0  0  0  0  0  0  0  0  0  0  0  0
  -20.9430  -29.8290   21.7530 H   0  0  0  0  0  0  0  0  0  0  0  0
  -18.0500  -28.0970   22.9360 C   0  0  0  0  0  0  0  0  0  0  0  0
  -20.6110  -28.3280   23.2020 C   0  0  0  0  0  3  0  0  0  0  0  0
  -20.6980  -26.9000   22.6150 C   0  0  0  0  0  2  0  0  0  0  0  0
  -19.5890  -26.5970   21.6010 C   0  0  0  0  0  2  0  0  0  0  0  0
  -18.2110  -26.7490   22.2520 C   0  0  0  0  0  2  0  0  0  0  0  0
  -19.1790  -28.8440   23.3670 C   0  0  0  0  0  0  0  0  0  0  0  0
  -18.9740  -30.1060   23.9670 C   0  0  0  0  0  3  0  0  0  0  0  0
  -17.6760  -30.6220   24.1380 C   0  0  0  0  0  3  0  0  0  0  0  0
  -16.5630  -29.8700   23.7240 C   0  0  0  0  0  3  0  0  0  0  0  0
  -16.7510  -28.6090   23.1290 C   0  0  0  0  0  3  0  0  0  0  0  0
  -25.8870  -32.5090   23.8700 C   0  0  0  0  0  3  0  0  0  0  0  0
  -25.5720  -33.9060   24.1940 N   0  0  0  0  0  0  0  0  0  0  0  0
  -25.9040  -34.9560   23.4320 C   0  0  0  0  0  0  0  0  0  0  0  0
  -26.5770  -34.8510   22.4030 O   0  0  0  0  0  0  0  0  0  0  0  0
  -24.9780  -34.0610   24.9950 H   0  0  0  0  0  0  0  0  0  0  0  0
  -24.1740  -36.7440   23.0590 C   0  0  0  0  0  1  0  0  0  0  0  0
  -25.4100  -36.3450   23.8810 C   0  0  0  0  0  3  0  0  0  0  0  0
  -27.5330  -37.2420   24.7310 C   0  0  0  0  0  1  0  0  0  0  0  0
  -26.4420  -37.3980   23.7720 N   0  0  0  0  0  0  0  0  0  0  0  0
  -26.0320  -38.3190   23.9060 H   0  0  0  0  0  0  0  0  0  0  0  0
  -26.4030  -31.7390   25.1480 C   0  0  1  0  0  0  0  0  0  0  0  0
  -25.3060  -31.4920   26.2090 C   0  0  0  0  0  1  0  0  0  0  0  0
  -26.9970  -30.3650   24.7560 C   0  0  0  0  0  1  0  0  0  0  0  0
  -27.5460  -32.5390   25.8170 C   0  0  0  0  0  1  0  0  0  0  0  0
  -31.8590  -21.6310   19.2690 C   0  0  0  0  0  1  0  0  0  0  0  0
  -32.0070  -21.7180   21.7440 C   0  0  0  0  0  1  0  0  0  0  0  0
  -31.1870  -21.4940   20.5560 N   0  0  0  0  0  0  0  0  0  0  0  0
  -30.8250  -16.6060   21.3640 C   0  0  0  0  0  2  0  0  0  0  0  0
  -30.7230  -14.4130   20.1560 C   0  0  0  0  0  0  0  0  0  0  0  0
  -30.3140  -12.2990   18.9440 C   0  0  0  0  0  2  0  0  0  0  0  0
  -29.3110  -12.5350   17.7990 C   0  0  0  0  0  2  0  0  0  0  0  0
  -27.8630  -12.4020   18.3100 C   0  0  0  0  0  2  0  0  0  0  0  0
  -27.6050  -13.2210   19.6030 C   0  0  0  0  0  3  0  0  0  0  0  0
  -28.7140  -12.9630   20.6450 C   0  0  0  0  0  2  0  0  0  0  0  0
  -30.0080  -13.2640   20.0120 N   0  0  0  0  0  0  0  0  0  0  0  0
  -31.7890  -14.6090   19.5660 O   0  0  0  0  0  0  0  0  0  0  0  0
  -30.1750  -15.3530   20.9460 N   0  0  0  0  0  0  0  0  0  0  0  0
  -29.2890  -15.1280   21.3730 H   0  0  0  0  0  0  0  0  0  0  0  0
  -25.2600  -13.8460   20.4570 C   0  0  0  0  0  0  0  0  0  0  0  0
  -24.2020  -13.0790   20.8670 C   0  0  0  0  0  0  0  0  0  0  0  0
  -24.6420  -11.7220   20.7820 C   0  0  0  0  0  0  0  0  0  0  0  0
  -26.2760  -12.9550   20.1490 N   0  0  0  0  0  0  0  0  0  0  0  0
  -25.9120  -11.6730   20.4020 N   0  0  0  0  0  0  0  0  0  0  0  0
  -23.9100  -10.4640   20.9860 C   0  0  0  0  0  0  0  0  0  0  0  0
  -24.3650   -9.4860   21.8980 C   0  0  0  0  0  3  0  0  0  0  0  0
  -23.6350   -8.2930   22.0910 C   0  0  0  0  0  3  0  0  0  0  0  0
  -22.4370   -8.0700   21.3730 C   0  0  0  0  0  0  0  0  0  0  0  0
  -22.0020   -9.0370   20.4490 C   0  0  0  0  0  3  0  0  0  0  0  0
  -22.7310  -10.2210   20.2540 C   0  0  0  0  0  3  0  0  0  0  0  0
  -21.6770   -6.9300   21.4760 O   0  0  0  0  0  0  0  0  0  0  0  0
  -21.6450   -6.1880   22.6290 C   0  0  0  0  0  0  0  0  0  0  0  0
  -21.2160   -6.7390   23.8570 C   0  0  0  0  0  3  0  0  0  0  0  0
  -21.1310   -5.9220   25.0020 C   0  0  0  0  0  3  0  0  0  0  0  0
  -21.4650   -4.5570   24.9210 C   0  0  0  0  0  0  0  0  0  0  0  0
  -21.8880   -4.0070   23.6990 C   0  0  0  0  0  3  0  0  0  0  0  0
  -21.9750   -4.8200   22.5560 C   0  0  0  0  0  0  0  0  0  0  0  0
  -22.3620   -4.2810   21.3750 F   0  0  0  0  0  0  0  0  0  0  0  0
  -21.3760   -3.7710   26.0190 F   0  0  0  0  0  0  0  0  0  0  0  0
  -22.8280  -13.5670   21.2270 C   0  0  0  0  0  0  0  0  0  0  0  0
  -22.1370  -12.8570   22.1120 N   0  0  0  0  0  0  0  0  0  0  0  0
  -22.3770  -14.6120   20.7610 O   0  0  0  0  0  0  0  0  0  0  0  0
  -22.5100  -12.0090   22.5140 H   0  0  0  0  0  0  0  0  0  0  0  0
  -21.2180  -13.1680   22.3940 H   0  0  0  0  0  0  0  0  0  0  0  0
  -25.4360  -15.2180   20.3020 N   0  0  0  0  0  0  0  0  0  0  0  0
  -24.6940  -15.8850   20.4840 H   0  0  0  0  0  0  0  0  0  0  0  0
  -26.2640  -15.6460   19.9120 H   0  0  0  0  0  0  0  0  0  0  0  0
  1  2  1  0
  2  5  2  0
  3  5  1  0
  4  1  2  0
  4  6  1  0
  5 57  1  0
  6  3  2  0
  7  8  1  0
  7  4  1  0
  8 10  1  0
  9  7  2  0
 11  8  1  0
 11 12  1  0
 13 15  1  0
 13 12  1  0
 14 25  2  0
 15 20  1  0
 16 24  1  0
 16 26  1  0
 17 23  1  0
 17 19  1  0
 18 24  1  0
 19 20  2  0
 19 18  1  0
 21 15  2  0
 22 21  1  0
 22 17  2  0
 23 16  1  0
 24 14  1  0
 26 28  2  0
 27 26  1  0
 29 27  1  0
 30 39  2  0
 30 35  1  0
 31 27  1  0
 31 35  1  0
 32 31  1  0
 33 34  1  0
 33 32  1  0
 34 30  1  0
 35 36  2  0
 36 37  1  0
 38 37  2  0
 39 38  1  0
 40 14  1  0
 40 41  1  0
 40 50  1  0
 41 44  1  0
 42 46  1  0
 42 41  1  0
 43 42  2  0
 46 45  1  0
 48 46  1  0
 48 49  1  0
 48 47  1  0
 50 53  1  1
 50 51  1  0
 52 50  1  0
 54 56  1  0
 56  6  1  0
 56 55  1  0
 58 66  1  0
 59 64  1  0
 60 61  1  0
 60 59  1  0
 62 61  1  0
 62 71  1  0
 62 63  1  0
 64 58  1  0
 64 63  1  0
 65 58  2  0
 66 57  1  0
 66 67  1  0
 68 69  2  0
 69 88  1  0
 70 69  1  0
 70 73  1  0
 71 72  1  0
 71 68  1  0
 72 70  2  0
 73 74  1  0
 74 75  2  0
 76 79  1  0
 76 75  1  0
 77 76  2  0
 78 77  1  0
 78 73  2  0
 79 80  1  0
 80 81  1  0
 81 82  2  0
 83 82  1  0
 83 87  1  0
 84 83  2  0
 85 80  2  0
 85 84  1  0
 86 85  1  0
 88 89  1  0
 89 92  1  0
 89 91  1  0
 90 88  2  0
 93 68  1  0
 93 94  1  0
 95 93  1  0
M  ISO  4  12 101  13 101  58 100  66 100
M  END
>  <TORSDO>  (82) 
F 21

>  <SCORE>  (82) 
-13.701

>  <name>  (82) 
83

>  <ligand_id>  (82) 
83

>  <original_smiles>  (82) 
[H]c1c([H])c([H])c2c(c1[H])C([H])([H])C([H])([H])C([H])([H])C2([H])N([H])C(=O)C1([H])N(C(=O)C([H])(N([H])C(=O)C([H])(N([H])C([H])([H])[H])C([H])([H])[H])C(C([H])([H])[H])(C([H])([H])[H])C([H])([H])[H])C([H])([H])c2c([H])c(OC([H])([H])C([H])([H])N([H])C(=O)c3c([H])c([H])c(C([H])([H])N([H])C(=O)N4C([H])([H])C([H])([H])C([H])([H])C([H])(n5nc(-c6c([H])c([H])c(Oc7c([H])c([H])c(F)c([H])c7F)c([H])c6[H])c(C(=O)N([H])[H])c5N([H])[H])C4([H])[H])c([H])c3N(C([H])([H])[H])C([H])([H])[H])c([H])c([H])c2C1([H])[H]

>  <smiles>  (82) 
[H]c1c([H])c([H])c2c(c1[H])C([H])([H])C([H])([H])C([H])([H])C2([H])N([H])C(=O)C1([H])N(C(=O)C([H])(N([H])C(=O)C([H])(N([H])C([H])([H])[H])C([H])([H])[H])C(C([H])([H])[H])(C([H])([H])[H])C([H])([H])[H])C([H])([H])c2c([H])c(OC([H])([H])C([H])([H])N([H])C(=O)c3c([H])c([H])c(C([H])([H])N([H])C(=O)N4C([H])([H])C([H])([H])C([H])([H])C([H])(n5nc(-c6c([H])c([H])c(Oc7c([H])c([H])c(F)c([H])c7F)c([H])c6[H])c(C(=O)N([H])[H])c5N([H])[H])C4([H])[H])c([H])c3N(C([H])([H])[H])C([H])([H])[H])c([H])c([H])c2C1([H])[H]

$$$$
84:0:0
     RDKit          3D

 95104  0  0  1  0  0  0  0  0999 V2000
  -29.2530  -22.6090   20.4050 C   0  0  0  0  0  2  0  0  0  0  0  0
  -27.4170  -23.1270   18.9500 C   0  0  0  0  0  2  0  0  0  0  0  0
  -28.8070  -21.3150   19.6930 C   0  0  0  0  0  3  0  0  0  0  0  0
  -27.3590  -21.6370   19.2810 C   0  0  0  0  0  3  0  0  0  0  0  0
  -26.7930  -20.7650   18.1480 C   0  0  0  0  0  1  0  0  0  0  0  0
  -28.4050  -23.7200   19.8820 N   0  0  1  0  0  4  0  0  0  0  0  0
  -28.9980  -24.2990   19.3020 H   0  0  0  0  0  0  0  0  0  0  0  0
  -28.8980  -20.0600   20.5780 C   0  0  0  0  0  0  0  0  0  0  0  0
  -29.5270  -18.9880   20.0700 N   0  0  0  0  0  0  0  0  0  0  0  0
  -28.3650  -20.0480   21.6890 O   0  0  0  0  0  0  0  0  0  0  0  0
  -29.9410  -19.0810   19.1520 H   0  0  0  0  0  0  0  0  0  0  0  0
  -31.0800  -14.4210   19.9720 C   0  0  0  0  0  0  0  0  0  0  0  0
  -30.6480  -12.3080   18.7820 C   0  0  0  0  0  2  0  0  0  0  0  0
  -29.6330  -12.5840   17.6550 C   0  0  0  0  0  2  0  0  0  0  0  0
  -28.1870  -12.4800   18.1780 C   0  0  0  0  0  2  0  0  0  0  0  0
  -27.9600  -13.2820   19.4860 C   0  0  0  0  0  3  0  0  0  0  0  0
  -29.0800  -12.9860   20.5110 C   0  0  0  0  0  2  0  0  0  0  0  0
  -30.3740  -13.2650   19.8620 N   0  0  0  0  0  0  0  0  0  0  0  0
  -32.1670  -14.6080   19.4160 O   0  0  0  0  0  0  0  0  0  0  0  0
  -30.3870  -17.4430   21.8520 C   0  0  0  0  0  2  0  0  0  0  0  0
  -30.6570  -15.9340   21.8650 C   0  0  0  0  0  2  0  0  0  0  0  0
  -29.9880  -16.5830   19.6730 C   0  0  0  0  0  2  0  0  0  0  0  0
  -29.4770  -17.6460   20.6450 C   0  0  0  0  0  3  0  0  0  0  0  0
  -30.3950  -15.4500   20.5070 N   0  0  0  0  0  0  0  0  0  0  0  0
  -25.6370  -13.9430   20.3710 C   0  0  0  0  0  0  0  0  0  0  0  0
  -24.5690  -13.1950   20.7850 C   0  0  0  0  0  0  0  0  0  0  0  0
  -24.9800  -11.8300   20.6780 C   0  0  0  0  0  0  0  0  0  0  0  0
  -26.6330  -13.0380   20.0430 N   0  0  0  0  0  0  0  0  0  0  0  0
  -26.2440  -11.7590   20.2800 N   0  0  0  0  0  0  0  0  0  0  0  0
  -24.2260  -10.5860   20.8730 C   0  0  0  0  0  0  0  0  0  0  0  0
  -24.6230   -9.6260   21.8300 C   0  0  0  0  0  3  0  0  0  0  0  0
  -23.8720   -8.4440   22.0120 C   0  0  0  0  0  3  0  0  0  0  0  0
  -22.7110   -8.2140   21.2380 C   0  0  0  0  0  0  0  0  0  0  0  0
  -22.3340   -9.1620   20.2700 C   0  0  0  0  0  3  0  0  0  0  0  0
  -23.0850  -10.3350   20.0870 C   0  0  0  0  0  3  0  0  0  0  0  0
  -21.9340   -7.0850   21.3300 O   0  0  0  0  0  0  0  0  0  0  0  0
  -21.7780   -6.4140   22.5160 C   0  0  0  0  0  0  0  0  0  0  0  0
  -21.2460   -7.0430   23.6630 C   0  0  0  0  0  3  0  0  0  0  0  0
  -21.0370   -6.2980   24.8420 C   0  0  0  0  0  3  0  0  0  0  0  0
  -21.3480   -4.9250   24.8720 C   0  0  0  0  0  0  0  0  0  0  0  0
  -21.8710   -4.2970   23.7290 C   0  0  0  0  0  3  0  0  0  0  0  0
  -22.0830   -5.0380   22.5540 C   0  0  0  0  0  0  0  0  0  0  0  0
  -22.5670   -4.4220   21.4490 F   0  0  0  0  0  0  0  0  0  0  0  0
  -21.1390   -4.2090   26.0010 F   0  0  0  0  0  0  0  0  0  0  0  0
  -23.2090  -13.7040   21.1670 C   0  0  0  0  0  0  0  0  0  0  0  0
  -22.5240  -13.0140   22.0730 N   0  0  0  0  0  0  0  0  0  0  0  0
  -22.7660  -14.7520   20.6970 O   0  0  0  0  0  0  0  0  0  0  0  0
  -22.8930  -12.1660   22.4770 H   0  0  0  0  0  0  0  0  0  0  0  0
  -21.6150  -13.3400   22.3700 H   0  0  0  0  0  0  0  0  0  0  0  0
  -25.8400  -15.3140   20.2290 N   0  0  0  0  0  0  0  0  0  0  0  0
  -25.1070  -15.9900   20.4140 H   0  0  0  0  0  0  0  0  0  0  0  0
  -26.6870  -15.7350   19.8720 H   0  0  0  0  0  0  0  0  0  0  0  0
  -27.8300  -24.6260   20.9170 C   0  0  0  0  0  2  0  0  0  0  0  0
  -28.5870  -25.9690   20.9810 C   0  0  0  0  0  2  0  0  0  0  0  0
  -28.3110  -26.7790   19.8370 O   0  0  0  0  0  0  0  0  0  0  0  0
  -24.5290  -31.8280   23.1650 C   0  0  0  0  0  0  0  0  0  0  0  0
  -27.1520  -27.5110   19.9180 C   0  0  0  0  0  0  0  0  0  0  0  0
  -23.3060  -30.4680   21.4990 C   0  0  0  0  0  3  0  0  0  0  0  0
  -24.7490  -28.9820   20.0110 C   0  0  0  0  0  0  0  0  0  0  0  0
  -25.8240  -30.8490   21.2780 C   0  0  0  0  0  2  0  0  0  0  0  0
  -25.9090  -29.4960   20.6060 C   0  0  0  0  0  0  0  0  0  0  0  0
  -27.1140  -28.7620   20.5700 C   0  0  0  0  0  3  0  0  0  0  0  0
  -25.9860  -27.0160   19.3010 C   0  0  0  0  0  3  0  0  0  0  0  0
  -24.7790  -27.7350   19.3600 C   0  0  0  0  0  3  0  0  0  0  0  0
  -23.5000  -29.8260   20.0990 C   0  0  0  0  0  2  0  0  0  0  0  0
  -24.5720  -31.0600   22.0400 N   0  0  0  0  0  0  0  0  0  0  0  0
  -23.4530  -32.0810   23.7270 O   0  0  0  0  0  0  0  0  0  0  0  0
  -22.6710  -29.4170   22.4360 C   0  0  0  0  0  0  0  0  0  0  0  0
  -21.3530  -29.2070   22.2940 N   0  0  0  0  0  0  0  0  0  0  0  0
  -23.3630  -28.7910   23.2450 O   0  0  0  0  0  0  0  0  0  0  0  0
  -20.8540  -29.7660   21.6170 H   0  0  0  0  0  0  0  0  0  0  0  0
  -18.0030  -27.9380   22.7410 C   0  0  0  0  0  0  0  0  0  0  0  0
  -20.5510  -28.2390   23.0420 C   0  0  0  0  0  3  0  0  0  0  0  0
  -20.6870  -26.8220   22.4390 C   0  0  0  0  0  2  0  0  0  0  0  0
  -19.6020  -26.4960   21.4080 C   0  0  0  0  0  2  0  0  0  0  0  0
  -18.2120  -26.6050   22.0410 C   0  0  0  0  0  2  0  0  0  0  0  0
  -19.1020  -28.7130   23.1950 C   0  0  0  0  0  0  0  0  0  0  0  0
  -18.8540  -29.9610   23.8050 C   0  0  0  0  0  3  0  0  0  0  0  0
  -17.5380  -30.4350   23.9660 C   0  0  0  0  0  3  0  0  0  0  0  0
  -16.4530  -29.6570   23.5290 C   0  0  0  0  0  3  0  0  0  0  0  0
  -16.6860  -28.4090   22.9220 C   0  0  0  0  0  3  0  0  0  0  0  0
  -25.8240  -32.4430   23.7880 C   0  0  0  0  0  3  0  0  0  0  0  0
  -26.3470  -31.6480   25.0470 C   0  0  1  0  0  0  0  0  0  0  0  0
  -25.2610  -31.3880   26.1150 C   0  0  0  0  0  1  0  0  0  0  0  0
  -26.9290  -30.2790   24.6240 C   0  0  0  0  0  1  0  0  0  0  0  0
  -27.5010  -32.4290   25.7180 C   0  0  0  0  0  1  0  0  0  0  0  0
  -25.5270  -33.8380   24.1380 N   0  0  0  0  0  0  0  0  0  0  0  0
  -25.8770  -34.8980   23.3980 C   0  0  0  0  0  0  0  0  0  0  0  0
  -26.5580  -34.8030   22.3720 O   0  0  0  0  0  0  0  0  0  0  0  0
  -24.9300  -33.9880   24.9390 H   0  0  0  0  0  0  0  0  0  0  0  0
  -24.1820  -36.7190   23.0320 C   0  0  0  0  0  1  0  0  0  0  0  0
  -25.3950  -36.2830   23.8710 C   0  0  0  0  0  3  0  0  0  0  0  0
  -27.5150  -37.1220   24.7800 C   0  0  0  0  0  1  0  0  0  0  0  0
  -26.4440  -37.3230   23.8070 N   0  0  0  0  0  0  0  0  0  0  0  0
  -26.0470  -38.2460   23.9590 H   0  0  0  0  0  0  0  0  0  0  0  0
  2  4  1  0
  2  6  1  0
  3  1  1  0
  3  8  1  0
  4  5  1  0
  4  3  1  0
  6  1  1  0
  6 53  1  0
  6  7  1  6
  8 10  2  0
  9  8  1  0
 11  9  1  0
 12 24  1  0
 13 18  1  0
 14 15  1  0
 14 13  1  0
 16 15  1  0
 16 28  1  0
 16 17  1  0
 18 12  1  0
 18 17  1  0
 19 12  2  0
 20 21  1  0
 22 24  1  0
 22 23  1  0
 23  9  1  0
 23 20  1  0
 24 21  1  0
 25 26  2  0
 26 45  1  0
 27 26  1  0
 27 30  1  0
 28 29  1  0
 28 25  1  0
 29 27  2  0
 30 31  1  0
 31 32  2  0
 33 36  1  0
 33 32  1  0
 34 33  2  0
 35 34  1  0
 35 30  2  0
 36 37  1  0
 37 42  2  0
 37 38  1  0
 38 39  2  0
 39 40  1  0
 40 44  1  0
 41 40  2  0
 42 41  1  0
 43 42  1  0
 45 46  1  0
 46 49  1  0
 46 48  1  0
 47 45  2  0
 50 25  1  0
 50 51  1  0
 52 50  1  0
 53 54  1  0
 55 57  1  0
 55 54  1  0
 56 67  2  0
 57 62  1  0
 58 66  1  0
 58 68  1  0
 59 65  1  0
 59 61  1  0
 60 66  1  0
 61 60  1  0
 62 61  2  0
 63 64  1  0
 63 57  2  0
 64 59  2  0
 65 58  1  0
 66 56  1  0
 68 70  2  0
 69 68  1  0
 71 69  1  0
 72 81  2  0
 72 77  1  0
 73 69  1  0
 73 77  1  0
 74 73  1  0
 75 76  1  0
 75 74  1  0
 76 72  1  0
 77 78  2  0
 78 79  1  0
 80 79  2  0
 81 80  1  0
 82 56  1  0
 82 87  1  0
 82 83  1  0
 83 86  1  1
 83 84  1  0
 85 83  1  0
 87 90  1  0
 88 92  1  0
 88 87  1  0
 89 88  2  0
 92 91  1  0
 94 92  1  0
 94 95  1  0
 94 93  1  0
M  ISO  4  12 100  24 100  54 101  55 101
M  END
>  <TORSDO>  (83) 
F 19

>  <SCORE>  (83) 
-13.405

>  <name>  (83) 
84

>  <ligand_id>  (83) 
84

>  <original_smiles>  (83) 
[H]c1c([H])c([H])c2c(c1[H])C([H])([H])C([H])([H])C([H])([H])C2([H])N([H])C(=O)C1([H])N(C(=O)C([H])(N([H])C(=O)C([H])(N([H])C([H])([H])[H])C([H])([H])[H])C(C([H])([H])[H])(C([H])([H])[H])C([H])([H])[H])C([H])([H])c2c([H])c(OC([H])([H])C([H])([H])[N+]3([H])C([H])([H])C([H])(C(=O)N([H])C4([H])C([H])([H])N(C(=O)N5C([H])([H])C([H])([H])C([H])([H])C([H])(n6nc(-c7c([H])c([H])c(Oc8c([H])c([H])c(F)c([H])c8F)c([H])c7[H])c(C(=O)N([H])[H])c6N([H])[H])C5([H])[H])C([H])([H])C4([H])[H])C([H])(C([H])([H])[H])C3([H])[H])c([H])c([H])c2C1([H])[H]

>  <smiles>  (83) 
[H]c1c([H])c([H])c2c(c1[H])C([H])([H])C([H])([H])C([H])([H])C2([H])N([H])C(=O)C1([H])N(C(=O)C([H])(N([H])C(=O)C([H])(N([H])C([H])([H])[H])C([H])([H])[H])C(C([H])([H])[H])(C([H])([H])[H])C([H])([H])[H])C([H])([H])c2c([H])c(OC([H])([H])C([H])([H])[N+]3([H])C([H])([H])C([H])(C(=O)N([H])C4([H])C([H])([H])N(C(=O)N5C([H])([H])C([H])([H])C([H])([H])C([H])(n6nc(-c7c([H])c([H])c(Oc8c([H])c([H])c(F)c([H])c8F)c([H])c7[H])c(C(=O)N([H])[H])c6N([H])[H])C5([H])[H])C([H])([H])C4([H])[H])C([H])(C([H])([H])[H])C3([H])[H])c([H])c([H])c2C1([H])[H]

$$$$
85:0:0
     RDKit          3D

 95103  0  0  1  0  0  0  0  0999 V2000
  -26.7710  -21.4660   19.5960 C   0  0  0  0  0  2  0  0  0  0  0  0
  -27.1420  -22.9430   19.3990 C   0  0  0  0  0  2  0  0  0  0  0  0
  -28.6940  -24.5270   20.5910 C   0  0  0  0  0  0  0  0  0  0  0  0
  -27.9690  -23.4040   20.5110 N   0  0  0  0  0  0  0  0  0  0  0  0
  -29.2840  -24.7950   21.6380 O   0  0  0  0  0  0  0  0  0  0  0  0
  -27.9590  -22.8410   21.3480 H   0  0  0  0  0  0  0  0  0  0  0  0
  -28.8160  -25.4770   19.3890 C   0  0  0  0  0  2  0  0  0  0  0  0
  -28.6780  -26.8270   19.8340 O   0  0  0  0  0  0  0  0  0  0  0  0
  -24.6150  -31.6710   23.0680 C   0  0  0  0  0  0  0  0  0  0  0  0
  -27.4370  -27.4290   19.8670 C   0  0  0  0  0  0  0  0  0  0  0  0
  -23.4740  -30.2930   21.3620 C   0  0  0  0  0  3  0  0  0  0  0  0
  -24.9870  -28.8420   19.9160 C   0  0  0  0  0  0  0  0  0  0  0  0
  -25.9890  -30.7270   21.2170 C   0  0  0  0  0  2  0  0  0  0  0  0
  -26.1190  -29.3830   20.5350 C   0  0  0  0  0  0  0  0  0  0  0  0
  -27.3430  -28.6820   20.5100 C   0  0  0  0  0  3  0  0  0  0  0  0
  -26.2750  -26.8870   19.2640 C   0  0  0  0  0  3  0  0  0  0  0  0
  -25.0580  -27.5890   19.2850 C   0  0  0  0  0  3  0  0  0  0  0  0
  -23.7210  -29.6630   19.9660 C   0  0  0  0  0  2  0  0  0  0  0  0
  -24.7090  -30.9100   21.9420 N   0  0  0  0  0  0  0  0  0  0  0  0
  -23.5160  -31.8980   23.5960 O   0  0  0  0  0  0  0  0  0  0  0  0
  -22.8360  -29.2220   22.2740 C   0  0  0  0  0  0  0  0  0  0  0  0
  -21.5140  -29.0310   22.1350 N   0  0  0  0  0  0  0  0  0  0  0  0
  -23.5260  -28.5680   23.0620 O   0  0  0  0  0  0  0  0  0  0  0  0
  -21.0210  -29.6120   21.4700 H   0  0  0  0  0  0  0  0  0  0  0  0
  -18.1470  -27.8030   22.5850 C   0  0  0  0  0  0  0  0  0  0  0  0
  -20.7060  -28.0510   22.8560 C   0  0  0  0  0  3  0  0  0  0  0  0
  -20.8070  -26.6540   22.1990 C   0  0  0  0  0  2  0  0  0  0  0  0
  -19.6990  -26.3850   21.1770 C   0  0  0  0  0  2  0  0  0  0  0  0
  -18.3210  -26.4920   21.8370 C   0  0  0  0  0  2  0  0  0  0  0  0
  -19.2670  -28.5440   23.0470 C   0  0  0  0  0  0  0  0  0  0  0  0
  -19.0520  -29.7740   23.7060 C   0  0  0  0  0  3  0  0  0  0  0  0
  -17.7470  -30.2630   23.9070 C   0  0  0  0  0  3  0  0  0  0  0  0
  -16.6410  -29.5200   23.4600 C   0  0  0  0  0  3  0  0  0  0  0  0
  -16.8430  -28.2910   22.8050 C   0  0  0  0  0  3  0  0  0  0  0  0
  -25.8740  -32.3100   23.7340 C   0  0  0  0  0  3  0  0  0  0  0  0
  -25.5250  -33.6880   24.1040 N   0  0  0  0  0  0  0  0  0  0  0  0
  -25.8410  -34.7720   23.3820 C   0  0  0  0  0  0  0  0  0  0  0  0
  -26.5270  -34.7180   22.3580 O   0  0  0  0  0  0  0  0  0  0  0  0
  -24.9160  -33.8030   24.9000 H   0  0  0  0  0  0  0  0  0  0  0  0
  -24.0590  -36.5180   23.0670 C   0  0  0  0  0  1  0  0  0  0  0  0
  -25.3080  -36.1300   23.8740 C   0  0  0  0  0  3  0  0  0  0  0  0
  -27.4080  -37.0580   24.7450 C   0  0  0  0  0  1  0  0  0  0  0  0
  -26.3100  -37.2160   23.7960 N   0  0  0  0  0  0  0  0  0  0  0  0
  -25.8760  -38.1200   23.9630 H   0  0  0  0  0  0  0  0  0  0  0  0
  -26.3900  -31.5070   24.9930 C   0  0  1  0  0  0  0  0  0  0  0  0
  -25.2860  -31.2070   26.0320 C   0  0  0  0  0  1  0  0  0  0  0  0
  -27.0140  -30.1600   24.5590 C   0  0  0  0  0  1  0  0  0  0  0  0
  -27.5100  -32.3070   25.7000 C   0  0  0  0  0  1  0  0  0  0  0  0
  -27.9300  -20.5150   19.2390 C   0  0  0  0  0  2  0  0  0  0  0  0
  -29.6220  -18.6020   21.6720 C   0  0  0  0  0  2  0  0  0  0  0  0
  -28.4010  -19.5020   21.4680 C   0  0  0  0  0  2  0  0  0  0  0  0
  -28.7250  -18.1830   19.4980 C   0  0  0  0  0  2  0  0  0  0  0  0
  -29.3780  -17.4620   20.6840 C   0  0  0  0  0  3  0  0  0  0  0  0
  -27.9300  -19.2910   20.0740 N   0  0  2  0  0  4  0  0  0  0  0  0
  -26.9760  -18.9630   20.1300 H   0  0  0  0  0  0  0  0  0  0  0  0
  -31.1810  -14.4620   19.5640 C   0  0  0  0  0  0  0  0  0  0  0  0
  -30.7150  -12.3250   18.4380 C   0  0  0  0  0  2  0  0  0  0  0  0
  -29.5730  -12.5440   17.4250 C   0  0  0  0  0  2  0  0  0  0  0  0
  -28.1920  -12.4070   18.1000 C   0  0  0  0  0  2  0  0  0  0  0  0
  -28.0820  -13.2310   19.4100 C   0  0  0  0  0  3  0  0  0  0  0  0
  -29.3060  -12.9560   20.3150 C   0  0  0  0  0  2  0  0  0  0  0  0
  -30.5240  -13.2740   19.5400 N   0  0  0  0  0  0  0  0  0  0  0  0
  -32.1900  -14.6940   18.8870 O   0  0  0  0  0  0  0  0  0  0  0  0
  -30.6450  -16.7140   20.2580 C   0  0  0  0  0  0  0  0  0  0  0  0
  -30.5030  -15.3880   20.2510 N   0  0  0  0  0  0  0  0  0  0  0  0
  -31.6540  -17.3350   19.9080 O   0  0  0  0  0  0  0  0  0  0  0  0
  -29.6640  -15.0360   20.6830 H   0  0  0  0  0  0  0  0  0  0  0  0
  -25.9190  -13.8580   20.6690 C   0  0  0  0  0  0  0  0  0  0  0  0
  -24.8850  -13.0930   21.1400 C   0  0  0  0  0  0  0  0  0  0  0  0
  -25.2180  -11.7410   20.8220 C   0  0  0  0  0  0  0  0  0  0  0  0
  -26.8230  -12.9680   20.1070 N   0  0  0  0  0  0  0  0  0  0  0  0
  -26.4130  -11.6830   20.2500 N   0  0  0  0  0  0  0  0  0  0  0  0
  -24.4420  -10.5040   20.9770 C   0  0  0  0  0  0  0  0  0  0  0  0
  -24.8670   -9.4760   21.8460 C   0  0  0  0  0  3  0  0  0  0  0  0
  -24.0990   -8.3010   21.9900 C   0  0  0  0  0  3  0  0  0  0  0  0
  -22.8920   -8.1480   21.2660 C   0  0  0  0  0  0  0  0  0  0  0  0
  -22.4860   -9.1670   20.3860 C   0  0  0  0  0  3  0  0  0  0  0  0
  -23.2540  -10.3330   20.2400 C   0  0  0  0  0  3  0  0  0  0  0  0
  -22.0960   -7.0320   21.3260 O   0  0  0  0  0  0  0  0  0  0  0  0
  -21.9230   -6.3320   22.4930 C   0  0  0  0  0  0  0  0  0  0  0  0
  -21.4000   -6.9390   23.6550 C   0  0  0  0  0  3  0  0  0  0  0  0
  -21.1700   -6.1660   24.8100 C   0  0  0  0  0  3  0  0  0  0  0  0
  -21.4560   -4.7870   24.8040 C   0  0  0  0  0  0  0  0  0  0  0  0
  -21.9730   -4.1800   23.6470 C   0  0  0  0  0  3  0  0  0  0  0  0
  -22.2020   -4.9500   22.4930 C   0  0  0  0  0  0  0  0  0  0  0  0
  -22.6800   -4.3550   21.3730 F   0  0  0  0  0  0  0  0  0  0  0  0
  -21.2270   -4.0420   25.9110 F   0  0  0  0  0  0  0  0  0  0  0  0
  -23.6090  -13.5930   21.7550 C   0  0  0  0  0  0  0  0  0  0  0  0
  -23.0180  -12.8210   22.6620 N   0  0  0  0  0  0  0  0  0  0  0  0
  -23.1530  -14.6980   21.4650 O   0  0  0  0  0  0  0  0  0  0  0  0
  -23.4060  -11.9240   22.9180 H   0  0  0  0  0  0  0  0  0  0  0  0
  -22.1720  -13.1360   23.1160 H   0  0  0  0  0  0  0  0  0  0  0  0
  -26.1520  -15.2310   20.6500 N   0  0  0  0  0  0  0  0  0  0  0  0
  -25.4140  -15.8610   20.9450 H   0  0  0  0  0  0  0  0  0  0  0  0
  -26.7820  -15.6500   19.9810 H   0  0  0  0  0  0  0  0  0  0  0  0
  2  1  1  0
  2  4  1  0
  3  5  2  0
  4  3  1  0
  4  6  1  0
  7  8  1  0
  7  3  1  0
  8 10  1  0
  9 20  2  0
 10 15  1  0
 11 19  1  0
 11 21  1  0
 12 18  1  0
 12 14  1  0
 13 19  1  0
 14 13  1  0
 15 14  2  0
 16 17  1  0
 16 10  2  0
 17 12  2  0
 18 11  1  0
 19  9  1  0
 21 23  2  0
 22 21  1  0
 24 22  1  0
 25 34  2  0
 25 30  1  0
 26 22  1  0
 26 30  1  0
 27 26  1  0
 28 29  1  0
 28 27  1  0
 29 25  1  0
 30 31  2  0
 31 32  1  0
 33 32  2  0
 34 33  1  0
 35  9  1  0
 35 36  1  0
 35 45  1  0
 36 39  1  0
 37 41  1  0
 37 36  1  0
 38 37  2  0
 41 40  1  0
 43 41  1  0
 43 44  1  0
 43 42  1  0
 45 48  1  1
 45 46  1  0
 47 45  1  0
 49  1  1  0
 49 54  1  0
 51 50  1  0
 52 54  1  0
 52 53  1  0
 53 64  1  0
 53 50  1  0
 54 55  1  1
 54 51  1  0
 56 65  1  0
 57 62  1  0
 58 59  1  0
 58 57  1  0
 60 59  1  0
 60 71  1  0
 60 61  1  0
 62 56  1  0
 62 61  1  0
 63 56  2  0
 65 64  1  0
 65 67  1  0
 66 64  2  0
 68 69  2  0
 69 88  1  0
 70 73  1  0
 70 69  1  0
 71 72  1  0
 71 68  1  0
 72 70  2  0
 73 74  1  0
 74 75  2  0
 76 79  1  0
 76 75  1  0
 77 76  2  0
 78 77  1  0
 78 73  2  0
 79 80  1  0
 80 85  2  0
 80 81  1  0
 81 82  2  0
 83 82  1  0
 83 87  1  0
 84 83  2  0
 85 84  1  0
 86 85  1  0
 88 89  1  0
 89 91  1  0
 89 92  1  0
 90 88  2  0
 93 68  1  0
 93 94  1  0
 95 93  1  0
M  ISO  4   7 101   8 101  56 100  65 100
M  END
>  <TORSDO>  (84) 
F 21

>  <SCORE>  (84) 
-9.854

>  <name>  (84) 
85

>  <ligand_id>  (84) 
85

>  <original_smiles>  (84) 
[H]c1c([H])c([H])c2c(c1[H])C([H])([H])C([H])([H])C([H])([H])C2([H])N([H])C(=O)C1([H])N(C(=O)C([H])(N([H])C(=O)C([H])(N([H])C([H])([H])[H])C([H])([H])[H])C(C([H])([H])[H])(C([H])([H])[H])C([H])([H])[H])C([H])([H])c2c([H])c(OC([H])([H])C(=O)N([H])C([H])([H])C([H])([H])C([H])([H])[N+]3([H])C([H])([H])C([H])([H])C([H])(C(=O)N([H])C(=O)N4C([H])([H])C([H])([H])C([H])([H])C([H])(n5nc(-c6c([H])c([H])c(Oc7c([H])c([H])c(F)c([H])c7F)c([H])c6[H])c(C(=O)N([H])[H])c5N([H])[H])C4([H])[H])C3([H])[H])c([H])c([H])c2C1([H])[H]

>  <smiles>  (84) 
[H]c1c([H])c([H])c2c(c1[H])C([H])([H])C([H])([H])C([H])([H])C2([H])N([H])C(=O)C1([H])N(C(=O)C([H])(N([H])C(=O)C([H])(N([H])C([H])([H])[H])C([H])([H])[H])C(C([H])([H])[H])(C([H])([H])[H])C([H])([H])[H])C([H])([H])c2c([H])c(OC([H])([H])C(=O)N([H])C([H])([H])C([H])([H])C([H])([H])[N+]3([H])C([H])([H])C([H])([H])C([H])(C(=O)N([H])C(=O)N4C([H])([H])C([H])([H])C([H])([H])C([H])(n5nc(-c6c([H])c([H])c(Oc7c([H])c([H])c(F)c([H])c7F)c([H])c6[H])c(C(=O)N([H])[H])c5N([H])[H])C4([H])[H])C3([H])[H])c([H])c([H])c2C1([H])[H]

$$$$
86:0:0
     RDKit          3D

 98106  0  0  1  0  0  0  0  0999 V2000
  -26.4480  -21.5170   20.3630 C   0  0  0  0  0  2  0  0  0  0  0  0
  -28.5030  -20.8560   19.1610 C   0  0  0  0  0  0  0  0  0  0  0  0
  -27.7300  -20.8070   20.2550 N   0  0  0  0  0  0  0  0  0  0  0  0
  -28.4420  -21.7820   18.3460 O   0  0  0  0  0  0  0  0  0  0  0  0
  -27.8380  -19.9870   20.8300 H   0  0  0  0  0  0  0  0  0  0  0  0
  -30.2790  -18.2200   17.0670 C   0  0  0  0  0  3  0  0  0  0  0  0
  -30.9890  -17.5000   18.0320 C   0  0  0  0  0  3  0  0  0  0  0  0
  -30.0450  -18.9020   19.7930 C   0  0  0  0  0  3  0  0  0  0  0  0
  -29.3180  -19.6390   18.8100 C   0  0  0  0  0  0  0  0  0  0  0  0
  -29.4240  -19.2740   17.4460 C   0  0  0  0  0  0  0  0  0  0  0  0
  -30.8710  -17.8180   19.4080 C   0  0  0  0  0  0  0  0  0  0  0  0
  -28.6190  -19.9560   16.3460 C   0  0  0  0  0  1  0  0  0  0  0  0
  -32.4000  -16.0170   20.1290 C   0  0  0  0  0  0  0  0  0  0  0  0
  -32.3220  -13.6180   19.5580 C   0  0  0  0  0  2  0  0  0  0  0  0
  -31.4560  -13.4540   18.2900 C   0  0  0  0  0  2  0  0  0  0  0  0
  -29.9660  -13.3030   18.6590 C   0  0  0  0  0  2  0  0  0  0  0  0
  -29.4910  -14.4020   19.6510 C   0  0  0  0  0  3  0  0  0  0  0  0
  -30.4790  -14.5510   20.8260 C   0  0  0  0  0  2  0  0  0  0  0  0
  -31.8170  -14.8030   20.2730 N   0  0  0  0  0  0  0  0  0  0  0  0
  -33.5280  -16.1800   19.6490 O   0  0  0  0  0  0  0  0  0  0  0  0
  -31.6200  -17.0810   20.3890 N   0  0  0  0  0  0  0  0  0  0  0  0
  -31.7610  -17.5210   21.2830 H   0  0  0  0  0  0  0  0  0  0  0  0
  -27.1200  -15.0640   20.3960 C   0  0  0  0  0  0  0  0  0  0  0  0
  -26.0260  -14.3200   20.7410 C   0  0  0  0  0  0  0  0  0  0  0  0
  -26.4370  -12.9560   20.6460 C   0  0  0  0  0  0  0  0  0  0  0  0
  -28.1320  -14.1560   20.1230 N   0  0  0  0  0  0  0  0  0  0  0  0
  -27.7240  -12.8770   20.3270 N   0  0  0  0  0  0  0  0  0  0  0  0
  -25.6670  -11.7170   20.7980 C   0  0  0  0  0  0  0  0  0  0  0  0
  -25.8950  -10.8280   21.8710 C   0  0  0  0  0  3  0  0  0  0  0  0
  -25.1290   -9.6480   22.0010 C   0  0  0  0  0  3  0  0  0  0  0  0
  -24.1210   -9.3490   21.0530 C   0  0  0  0  0  0  0  0  0  0  0  0
  -23.9130  -10.2270   19.9740 C   0  0  0  0  0  3  0  0  0  0  0  0
  -24.6800  -11.3970   19.8460 C   0  0  0  0  0  3  0  0  0  0  0  0
  -23.3430   -8.2170   21.0840 O   0  0  0  0  0  0  0  0  0  0  0  0
  -22.7860   -7.7570   22.2500 C   0  0  0  0  0  0  0  0  0  0  0  0
  -21.8720   -8.5320   22.9960 C   0  0  0  0  0  3  0  0  0  0  0  0
  -21.2710   -7.9910   24.1490 C   0  0  0  0  0  3  0  0  0  0  0  0
  -21.5750   -6.6760   24.5520 C   0  0  0  0  0  0  0  0  0  0  0  0
  -22.4810   -5.9030   23.8040 C   0  0  0  0  0  3  0  0  0  0  0  0
  -23.0830   -6.4400   22.6560 C   0  0  0  0  0  0  0  0  0  0  0  0
  -23.9410   -5.6810   21.9300 F   0  0  0  0  0  0  0  0  0  0  0  0
  -20.9900   -6.1560   25.6550 F   0  0  0  0  0  0  0  0  0  0  0  0
  -24.6510  -14.8380   21.0430 C   0  0  0  0  0  0  0  0  0  0  0  0
  -23.9110  -14.1350   21.8950 N   0  0  0  0  0  0  0  0  0  0  0  0
  -24.2400  -15.8940   20.5660 O   0  0  0  0  0  0  0  0  0  0  0  0
  -24.2570  -13.2800   22.3010 H   0  0  0  0  0  0  0  0  0  0  0  0
  -22.9890  -14.4570   22.1490 H   0  0  0  0  0  0  0  0  0  0  0  0
  -27.3310  -16.4340   20.2760 N   0  0  0  0  0  0  0  0  0  0  0  0
  -26.5790  -17.0980   20.3990 H   0  0  0  0  0  0  0  0  0  0  0  0
  -28.1950  -16.8560   19.9610 H   0  0  0  0  0  0  0  0  0  0  0  0
  -26.4850  -23.0090   20.7850 C   0  0  0  0  0  2  0  0  0  0  0  0
  -27.1000  -24.0740   19.8230 C   0  0  0  0  0  2  0  0  0  0  0  0
  -26.0960  -24.9130   19.1120 N   0  0  0  0  0  4  0  0  0  0  0  0
  -25.6380  -25.4270   19.8420 H   0  0  0  0  0  0  0  0  0  0  0  0
  -25.3950  -24.3320   18.6700 H   0  0  0  0  0  0  0  0  0  0  0  0
  -26.6100  -25.9110   18.1040 C   0  0  0  0  0  2  0  0  0  0  0  0
  -26.6100  -27.3630   18.6910 C   0  0  0  0  0  2  0  0  0  0  0  0
  -26.5210  -28.5360   17.8100 O   0  0  0  0  0  0  0  0  0  0  0  0
  -25.5580  -30.1910   24.4970 C   0  0  0  0  0  0  0  0  0  0  0  0
  -25.9440  -29.5240   18.5630 C   0  0  0  0  0  0  0  0  0  0  0  0
  -23.6780  -30.6480   22.9630 C   0  0  0  0  0  3  0  0  0  0  0  0
  -24.2680  -30.7270   20.4770 C   0  0  0  0  0  0  0  0  0  0  0  0
  -26.1090  -30.8510   22.1660 C   0  0  0  0  0  2  0  0  0  0  0  0
  -25.6190  -30.4980   20.7770 C   0  0  0  0  0  0  0  0  0  0  0  0
  -26.4680  -29.8830   19.8280 C   0  0  0  0  0  3  0  0  0  0  0  0
  -24.6270  -29.8900   18.2220 C   0  0  0  0  0  3  0  0  0  0  0  0
  -23.7720  -30.4500   19.1870 C   0  0  0  0  0  3  0  0  0  0  0  0
  -23.3930  -31.2830   21.5730 C   0  0  0  0  0  2  0  0  0  0  0  0
  -25.1470  -30.5180   23.2450 N   0  0  0  0  0  0  0  0  0  0  0  0
  -24.7420  -30.0280   25.4180 O   0  0  0  0  0  0  0  0  0  0  0  0
  -22.9310  -29.2920   23.0570 C   0  0  0  0  0  0  0  0  0  0  0  0
  -21.5880  -29.3460   22.9650 N   0  0  0  0  0  0  0  0  0  0  0  0
  -23.5540  -28.2340   23.1970 O   0  0  0  0  0  0  0  0  0  0  0  0
  -21.1370  -30.2500   22.8970 H   0  0  0  0  0  0  0  0  0  0  0  0
  -18.2080  -28.3140   22.2100 C   0  0  0  0  0  0  0  0  0  0  0  0
  -20.6700  -28.2100   22.9740 C   0  0  0  0  0  3  0  0  0  0  0  0
  -20.8950  -27.2990   21.7540 C   0  0  0  0  0  2  0  0  0  0  0  0
  -20.0050  -27.6680   20.5650 C   0  0  0  0  0  2  0  0  0  0  0  0
  -18.5360  -27.5050   20.9690 C   0  0  0  0  0  2  0  0  0  0  0  0
  -19.2160  -28.6710   23.1390 C   0  0  0  0  0  0  0  0  0  0  0  0
  -18.8840  -29.4600   24.2560 C   0  0  0  0  0  3  0  0  0  0  0  0
  -17.5600  -29.8960   24.4550 C   0  0  0  0  0  3  0  0  0  0  0  0
  -16.5600  -29.5360   23.5260 C   0  0  0  0  0  3  0  0  0  0  0  0
  -16.8740  -28.7290   22.4120 C   0  0  0  0  0  3  0  0  0  0  0  0
  -27.0720  -30.0240   24.8450 C   0  0  0  0  0  3  0  0  0  0  0  0
  -27.3400  -30.8800   26.0030 N   0  0  0  0  0  0  0  0  0  0  0  0
  -28.0580  -32.0110   25.9580 C   0  0  0  0  0  0  0  0  0  0  0  0
  -28.6110  -32.4190   24.9360 O   0  0  0  0  0  0  0  0  0  0  0  0
  -26.8720  -30.6440   26.8640 H   0  0  0  0  0  0  0  0  0  0  0  0
  -27.2650  -34.0690   27.1750 C   0  0  0  0  0  1  0  0  0  0  0  0
  -28.1670  -32.8260   27.2650 C   0  0  0  0  0  3  0  0  0  0  0  0
  -30.4130  -32.1240   27.9620 C   0  0  0  0  0  1  0  0  0  0  0  0
  -29.5480  -33.2390   27.5880 N   0  0  0  0  0  0  0  0  0  0  0  0
  -29.5570  -33.9180   28.3460 H   0  0  0  0  0  0  0  0  0  0  0  0
  -27.4900  -28.5300   25.1290 C   0  0  1  0  0  0  0  0  0  0  0  0
  -26.5930  -27.8250   26.1760 C   0  0  0  0  0  1  0  0  0  0  0  0
  -27.4530  -27.6910   23.8270 C   0  0  0  0  0  1  0  0  0  0  0  0
  -28.9510  -28.4880   25.6340 C   0  0  0  0  0  1  0  0  0  0  0  0
  1 51  1  0
  2  3  1  0
  3  1  1  0
  3  5  1  0
  4  2  2  0
  6 10  2  0
  6  7  1  0
  7 11  2  0
  9  2  1  0
  9  8  2  0
 10  9  1  0
 11  8  1  0
 11 21  1  0
 12 10  1  0
 13 19  1  0
 13 21  1  0
 14 19  1  0
 15 16  1  0
 15 14  1  0
 17 16  1  0
 17 26  1  0
 17 18  1  0
 19 18  1  0
 20 13  2  0
 21 22  1  0
 23 24  2  0
 24 43  1  0
 25 24  1  0
 25 28  1  0
 26 27  1  0
 26 23  1  0
 27 25  2  0
 28 29  1  0
 29 30  2  0
 31 34  1  0
 31 30  1  0
 32 31  2  0
 33 32  1  0
 33 28  2  0
 34 35  1  0
 35 40  2  0
 35 36  1  0
 36 37  2  0
 37 38  1  0
 38 42  1  0
 39 38  2  0
 40 39  1  0
 41 40  1  0
 43 44  1  0
 44 47  1  0
 44 46  1  0
 45 43  2  0
 48 23  1  0
 48 49  1  0
 50 48  1  0
 52 51  1  0
 53 52  1  0
 53 54  1  0
 55 53  1  0
 56 57  1  0
 56 53  1  0
 58 60  1  0
 58 57  1  0
 59 70  2  0
 60 65  1  0
 61 71  1  0
 61 69  1  0
 62 64  1  0
 62 68  1  0
 63 69  1  0
 64 63  1  0
 65 64  2  0
 66 60  2  0
 66 67  1  0
 67 62  2  0
 68 61  1  0
 69 59  1  0
 71 73  2  0
 72 71  1  0
 74 72  1  0
 75 84  2  0
 75 80  1  0
 76 72  1  0
 76 80  1  0
 77 76  1  0
 78 79  1  0
 78 77  1  0
 79 75  1  0
 80 81  2  0
 81 82  1  0
 83 82  2  0
 84 83  1  0
 85 59  1  0
 85 95  1  0
 85 86  1  0
 86 89  1  0
 87 86  1  0
 87 91  1  0
 88 87  2  0
 91 90  1  0
 91 93  1  0
 93 92  1  0
 93 94  1  0
 95 98  1  1
 95 96  1  0
 97 95  1  0
M  ISO  4  13 100  21 100  57 101  58 101
M  END
>  <TORSDO>  (85) 
F 23

>  <SCORE>  (85) 
-4.621

>  <name>  (85) 
86

>  <ligand_id>  (85) 
86

>  <original_smiles>  (85) 
[H]c1c([H])c([H])c2c(c1[H])C([H])([H])C([H])([H])C([H])([H])C2([H])N([H])C(=O)C1([H])N(C(=O)C([H])(N([H])C(=O)C([H])(N([H])C([H])([H])[H])C([H])([H])[H])C(C([H])([H])[H])(C([H])([H])[H])C([H])([H])[H])C([H])([H])c2c([H])c(OC([H])([H])C([H])([H])[N+]([H])([H])C([H])([H])C([H])([H])C([H])([H])N([H])C(=O)c3c([H])c(N([H])C(=O)N4C([H])([H])C([H])([H])C([H])([H])C([H])(n5nc(-c6c([H])c([H])c(Oc7c([H])c([H])c(F)c([H])c7F)c([H])c6[H])c(C(=O)N([H])[H])c5N([H])[H])C4([H])[H])c([H])c([H])c3C([H])([H])[H])c([H])c([H])c2C1([H])[H]

>  <smiles>  (85) 
[H]c1c([H])c([H])c2c(c1[H])C([H])([H])C([H])([H])C([H])([H])C2([H])N([H])C(=O)C1([H])N(C(=O)C([H])(N([H])C(=O)C([H])(N([H])C([H])([H])[H])C([H])([H])[H])C(C([H])([H])[H])(C([H])([H])[H])C([H])([H])[H])C([H])([H])c2c([H])c(OC([H])([H])C([H])([H])[N+]([H])([H])C([H])([H])C([H])([H])C([H])([H])N([H])C(=O)c3c([H])c(N([H])C(=O)N4C([H])([H])C([H])([H])C([H])([H])C([H])(n5nc(-c6c([H])c([H])c(Oc7c([H])c([H])c(F)c([H])c7F)c([H])c6[H])c(C(=O)N([H])[H])c5N([H])[H])C4([H])[H])c([H])c([H])c3C([H])([H])[H])c([H])c([H])c2C1([H])[H]

$$$$
87:0:0
     RDKit          3D

 93102  0  0  1  0  0  0  0  0999 V2000
  -28.3090  -21.6700   20.8130 C   0  0  0  0  0  2  0  0  0  0  0  0
  -28.8310  -22.8550   20.0500 N   0  0  0  0  0  4  0  0  0  0  0  0
  -28.9420  -22.5030   19.1120 H   0  0  0  0  0  0  0  0  0  0  0  0
  -29.7600  -23.0900   20.3660 H   0  0  0  0  0  0  0  0  0  0  0  0
  -27.9880  -24.1040   19.9110 C   0  0  0  0  0  2  0  0  0  0  0  0
  -28.3650  -25.3300   20.8180 C   0  0  0  0  0  2  0  0  0  0  0  0
  -28.4310  -26.6430   20.1840 O   0  0  0  0  0  0  0  0  0  0  0  0
  -24.6250  -31.9170   23.2130 C   0  0  0  0  0  0  0  0  0  0  0  0
  -27.2860  -27.4220   20.1800 C   0  0  0  0  0  0  0  0  0  0  0  0
  -23.4390  -30.5110   21.5620 C   0  0  0  0  0  3  0  0  0  0  0  0
  -24.9070  -28.9720   20.1470 C   0  0  0  0  0  0  0  0  0  0  0  0
  -25.9690  -30.8650   21.3880 C   0  0  0  0  0  2  0  0  0  0  0  0
  -26.0630  -29.4880   20.7460 C   0  0  0  0  0  0  0  0  0  0  0  0
  -27.2600  -28.7250   20.7510 C   0  0  0  0  0  3  0  0  0  0  0  0
  -26.1150  -26.9400   19.5630 C   0  0  0  0  0  3  0  0  0  0  0  0
  -24.9330  -27.7040   19.5440 C   0  0  0  0  0  3  0  0  0  0  0  0
  -23.6630  -29.8370   20.1820 C   0  0  0  0  0  2  0  0  0  0  0  0
  -24.6960  -31.1140   22.1130 N   0  0  0  0  0  0  0  0  0  0  0  0
  -23.5390  -32.1840   23.7460 O   0  0  0  0  0  0  0  0  0  0  0  0
  -22.7810  -29.4880   22.5180 C   0  0  0  0  0  0  0  0  0  0  0  0
  -21.4570  -29.3020   22.3800 N   0  0  0  0  0  0  0  0  0  0  0  0
  -23.4580  -28.8610   23.3380 O   0  0  0  0  0  0  0  0  0  0  0  0
  -20.9750  -29.8560   21.6860 H   0  0  0  0  0  0  0  0  0  0  0  0
  -18.0850  -28.0870   22.8460 C   0  0  0  0  0  0  0  0  0  0  0  0
  -20.6370  -28.3580   23.1410 C   0  0  0  0  0  3  0  0  0  0  0  0
  -20.7520  -26.9280   22.5610 C   0  0  0  0  0  2  0  0  0  0  0  0
  -19.6610  -26.6010   21.5370 C   0  0  0  0  0  2  0  0  0  0  0  0
  -18.2720  -26.7390   22.1690 C   0  0  0  0  0  2  0  0  0  0  0  0
  -19.1940  -28.8540   23.2860 C   0  0  0  0  0  0  0  0  0  0  0  0
  -18.9650  -30.1180   23.8730 C   0  0  0  0  0  3  0  0  0  0  0  0
  -17.6560  -30.6130   24.0240 C   0  0  0  0  0  3  0  0  0  0  0  0
  -16.5600  -29.8430   23.6010 C   0  0  0  0  0  3  0  0  0  0  0  0
  -16.7740  -28.5810   23.0160 C   0  0  0  0  0  3  0  0  0  0  0  0
  -25.9000  -32.5560   23.8440 C   0  0  0  0  0  3  0  0  0  0  0  0
  -25.5880  -33.9560   24.1610 N   0  0  0  0  0  0  0  0  0  0  0  0
  -25.9260  -35.0030   23.3980 C   0  0  0  0  0  0  0  0  0  0  0  0
  -26.6040  -34.8890   22.3720 O   0  0  0  0  0  0  0  0  0  0  0  0
  -24.9830  -34.1120   24.9550 H   0  0  0  0  0  0  0  0  0  0  0  0
  -24.1940  -36.7880   23.0140 C   0  0  0  0  0  1  0  0  0  0  0  0
  -25.4300  -36.3940   23.8390 C   0  0  0  0  0  3  0  0  0  0  0  0
  -27.5540  -37.2920   24.6810 C   0  0  0  0  0  1  0  0  0  0  0  0
  -26.4600  -37.4480   23.7270 N   0  0  0  0  0  0  0  0  0  0  0  0
  -26.0530  -38.3700   23.8570 H   0  0  0  0  0  0  0  0  0  0  0  0
  -26.4020  -31.7940   25.1310 C   0  0  1  0  0  0  0  0  0  0  0  0
  -25.2960  -31.5540   26.1880 C   0  0  0  0  0  1  0  0  0  0  0  0
  -26.9910  -30.4170   24.7490 C   0  0  0  0  0  1  0  0  0  0  0  0
  -27.5420  -32.5940   25.8020 C   0  0  0  0  0  1  0  0  0  0  0  0
  -28.0910  -20.1850   18.7800 C   0  0  0  0  0  1  0  0  0  0  0  0
  -28.7190  -20.2750   20.1880 C   0  0  0  0  0  3  0  0  0  0  0  0
  -28.2830  -19.0100   21.0280 C   0  0  0  0  0  2  0  0  0  0  0  0
  -30.8730  -14.5620   19.9470 C   0  0  0  0  0  0  0  0  0  0  0  0
  -30.4450  -12.3420   18.9480 C   0  0  0  0  0  2  0  0  0  0  0  0
  -29.4630  -12.4640   17.7680 C   0  0  0  0  0  2  0  0  0  0  0  0
  -28.0230  -12.2990   18.2780 C   0  0  0  0  0  2  0  0  0  0  0  0
  -27.7230  -13.2070   19.4990 C   0  0  0  0  0  3  0  0  0  0  0  0
  -28.8360  -13.1500   20.5730 C   0  0  0  0  0  2  0  0  0  0  0  0
  -30.1180  -13.4170   19.9140 N   0  0  0  0  0  0  0  0  0  0  0  0
  -32.0120  -14.5380   19.4690 O   0  0  0  0  0  0  0  0  0  0  0  0
  -31.1440  -17.4720   19.0740 C   0  0  0  0  0  2  0  0  0  0  0  0
  -29.8690  -17.2610   18.7650 C   0  0  0  0  0  2  0  0  0  0  0  0
  -30.6610  -17.9040   21.4500 C   0  0  0  0  0  2  0  0  0  0  0  0
  -31.3320  -16.9140   20.4770 C   0  0  0  0  0  3  0  0  0  0  0  0
  -29.2540  -16.6070   19.9830 C   0  0  0  0  0  3  0  0  0  0  0  0
  -29.1640  -17.6920   21.1260 C   0  0  0  0  0  3  0  0  0  0  0  0
  -30.3950  -15.7600   20.4520 N   0  0  0  0  0  0  0  0  0  0  0  0
  -25.3880  -13.8140   20.3710 C   0  0  0  0  0  0  0  0  0  0  0  0
  -24.3410  -13.0420   20.7910 C   0  0  0  0  0  0  0  0  0  0  0  0
  -24.7940  -11.6870   20.7170 C   0  0  0  0  0  0  0  0  0  0  0  0
  -26.4110  -12.9300   20.0680 N   0  0  0  0  0  0  0  0  0  0  0  0
  -26.0630  -11.6470   20.3380 N   0  0  0  0  0  0  0  0  0  0  0  0
  -24.0750  -10.4260   20.9290 C   0  0  0  0  0  0  0  0  0  0  0  0
  -24.4950   -9.4910   21.9000 C   0  0  0  0  0  3  0  0  0  0  0  0
  -23.7730   -8.2960   22.1000 C   0  0  0  0  0  3  0  0  0  0  0  0
  -22.6180   -8.0250   21.3280 C   0  0  0  0  0  0  0  0  0  0  0  0
  -22.2180   -8.9490   20.3470 C   0  0  0  0  0  3  0  0  0  0  0  0
  -22.9410  -10.1360   20.1450 C   0  0  0  0  0  3  0  0  0  0  0  0
  -21.8700   -6.8780   21.4340 O   0  0  0  0  0  0  0  0  0  0  0  0
  -21.7260   -6.2200   22.6280 C   0  0  0  0  0  0  0  0  0  0  0  0
  -21.1870   -6.8560   23.7690 C   0  0  0  0  0  3  0  0  0  0  0  0
  -20.9960   -6.1230   24.9570 C   0  0  0  0  0  3  0  0  0  0  0  0
  -21.3340   -4.7580   25.0060 C   0  0  0  0  0  0  0  0  0  0  0  0
  -21.8680   -4.1230   23.8700 C   0  0  0  0  0  3  0  0  0  0  0  0
  -22.0610   -4.8540   22.6840 C   0  0  0  0  0  0  0  0  0  0  0  0
  -22.5560   -4.2340   21.5860 F   0  0  0  0  0  0  0  0  0  0  0  0
  -21.1410   -4.0490   26.1450 F   0  0  0  0  0  0  0  0  0  0  0  0
  -22.9630  -13.5200   21.1410 C   0  0  0  0  0  0  0  0  0  0  0  0
  -22.2860  -12.8210   22.0450 N   0  0  0  0  0  0  0  0  0  0  0  0
  -22.5030  -14.5530   20.6550 O   0  0  0  0  0  0  0  0  0  0  0  0
  -22.6780  -11.9920   22.4660 H   0  0  0  0  0  0  0  0  0  0  0  0
  -21.3640  -13.1250   22.3240 H   0  0  0  0  0  0  0  0  0  0  0  0
  -25.5460  -15.1860   20.2000 N   0  0  0  0  0  0  0  0  0  0  0  0
  -24.7820  -15.8330   20.3670 H   0  0  0  0  0  0  0  0  0  0  0  0
  -26.3750  -15.6370   19.8400 H   0  0  0  0  0  0  0  0  0  0  0  0
  2  4  1  0
  2  1  1  0
  3  2  1  0
  5  2  1  0
  5  6  1  0
  7  6  1  0
  8 19  2  0
  9  7  1  0
  9 14  1  0
 10 18  1  0
 10 20  1  0
 11 17  1  0
 11 13  1  0
 12 18  1  0
 13 14  2  0
 13 12  1  0
 15  9  2  0
 16 15  1  0
 16 11  2  0
 17 10  1  0
 18  8  1  0
 20 22  2  0
 21 20  1  0
 23 21  1  0
 24 33  2  0
 24 29  1  0
 25 21  1  0
 25 29  1  0
 26 25  1  0
 27 28  1  0
 27 26  1  0
 28 24  1  0
 29 30  2  0
 30 31  1  0
 32 31  2  0
 33 32  1  0
 34  8  1  0
 34 35  1  0
 34 44  1  0
 35 38  1  0
 36 40  1  0
 36 35  1  0
 37 36  2  0
 40 39  1  0
 42 40  1  0
 42 43  1  0
 42 41  1  0
 44 47  1  1
 44 45  1  0
 46 44  1  0
 49 48  1  0
 49  1  1  0
 49 50  1  0
 51 65  1  0
 52 57  1  0
 53 54  1  0
 53 52  1  0
 55 54  1  0
 55 69  1  0
 55 56  1  0
 57 51  1  0
 57 56  1  0
 58 51  2  0
 60 59  1  0
 62 59  1  0
 62 61  1  0
 63 60  1  0
 63 65  1  0
 63 64  1  0
 64 50  1  0
 64 61  1  0
 65 62  1  0
 66 67  2  0
 67 86  1  0
 68 67  1  0
 68 71  1  0
 69 70  1  0
 69 66  1  0
 70 68  2  0
 71 72  1  0
 72 73  2  0
 74 77  1  0
 74 73  1  0
 75 74  2  0
 76 75  1  0
 76 71  2  0
 77 78  1  0
 78 83  2  0
 78 79  1  0
 79 80  2  0
 80 81  1  0
 81 85  1  0
 82 81  2  0
 83 82  1  0
 84 83  1  0
 86 87  1  0
 87 90  1  0
 87 89  1  0
 88 86  2  0
 91 92  1  0
 91 66  1  0
 93 91  1  0
M  ISO  4   6 101   7 101  51 100  65 100
M  END
>  <TORSDO>  (86) 
F 21

>  <SCORE>  (86) 
-12.908

>  <name>  (86) 
87

>  <ligand_id>  (86) 
87

>  <original_smiles>  (86) 
[H]C1=C([H])C2([H])N(C(=O)N3C([H])([H])C([H])([H])C([H])([H])C([H])(n4nc(-c5c([H])c([H])c(Oc6c([H])c([H])c(F)c([H])c6F)c([H])c5[H])c(C(=O)N([H])[H])c4N([H])[H])C3([H])[H])C1([H])C([H])([H])C2([H])C([H])([H])C([H])(C([H])([H])[H])C([H])([H])[N+]([H])([H])C([H])([H])C([H])([H])Oc1c([H])c([H])c2c(c1[H])C([H])([H])N(C(=O)C([H])(N([H])C(=O)C([H])(N([H])C([H])([H])[H])C([H])([H])[H])C(C([H])([H])[H])(C([H])([H])[H])C([H])([H])[H])C([H])(C(=O)N([H])C1([H])c3c([H])c([H])c([H])c([H])c3C([H])([H])C([H])([H])C1([H])[H])C2([H])[H]

>  <smiles>  (86) 
[H]C1=C([H])C2([H])N(C(=O)N3C([H])([H])C([H])([H])C([H])([H])C([H])(n4nc(-c5c([H])c([H])c(Oc6c([H])c([H])c(F)c([H])c6F)c([H])c5[H])c(C(=O)N([H])[H])c4N([H])[H])C3([H])[H])C1([H])C([H])([H])C2([H])C([H])([H])C([H])(C([H])([H])[H])C([H])([H])[N+]([H])([H])C([H])([H])C([H])([H])Oc1c([H])c([H])c2c(c1[H])C([H])([H])N(C(=O)C([H])(N([H])C(=O)C([H])(N([H])C([H])([H])[H])C([H])([H])[H])C(C([H])([H])[H])(C([H])([H])[H])C([H])([H])[H])C([H])(C(=O)N([H])C1([H])c3c([H])c([H])c([H])c([H])c3C([H])([H])C([H])([H])C1([H])[H])C2([H])[H]

$$$$
88:0:0
     RDKit          3D

 95103  0  0  1  0  0  0  0  0999 V2000
  -28.8850  -22.1280   20.9400 C   0  0  0  0  0  0  0  0  0  0  0  0
  -28.4910  -22.2660   22.1000 O   0  0  0  0  0  0  0  0  0  0  0  0
  -28.6050  -19.7780   19.6500 C   0  0  0  0  0  3  0  0  0  0  0  0
  -30.4910  -18.4240   21.1800 C   0  0  0  0  0  3  0  0  0  0  0  0
  -29.3200  -20.6240   20.5580 C   0  0  0  0  0  0  0  0  0  0  0  0
  -28.7870  -18.3410   19.5370 C   0  0  0  0  0  0  0  0  0  0  0  0
  -30.2920  -19.8580   21.3120 C   0  0  0  0  0  0  0  0  0  0  0  0
  -29.7310  -17.5790   20.3150 C   0  0  0  0  0  0  0  0  0  0  0  0
  -27.8790  -17.6040   18.5680 C   0  0  0  0  0  1  0  0  0  0  0  0
  -31.1380  -20.5590   22.3650 C   0  0  0  0  0  1  0  0  0  0  0  0
  -30.5830  -14.9770   20.2220 C   0  0  0  0  0  0  0  0  0  0  0  0
  -30.4790  -12.6550   19.2380 C   0  0  0  0  0  2  0  0  0  0  0  0
  -29.5080  -12.6600   18.0340 C   0  0  0  0  0  2  0  0  0  0  0  0
  -28.0520  -12.4480   18.4950 C   0  0  0  0  0  2  0  0  0  0  0  0
  -27.6770  -13.3360   19.7100 C   0  0  0  0  0  3  0  0  0  0  0  0
  -28.7640  -13.2910   20.8070 C   0  0  0  0  0  2  0  0  0  0  0  0
  -30.0270  -13.7070   20.1810 N   0  0  0  0  0  0  0  0  0  0  0  0
  -31.7740  -15.1140   19.9180 O   0  0  0  0  0  0  0  0  0  0  0  0
  -29.6990  -16.0610   20.3740 N   0  0  0  0  0  0  0  0  0  0  0  0
  -28.7610  -15.7090   20.4670 H   0  0  0  0  0  0  0  0  0  0  0  0
  -25.3090  -13.8980   20.5150 C   0  0  0  0  0  0  0  0  0  0  0  0
  -24.2580  -13.1130   20.9000 C   0  0  0  0  0  0  0  0  0  0  0  0
  -24.7280  -11.7650   20.8360 C   0  0  0  0  0  0  0  0  0  0  0  0
  -26.3510  -13.0290   20.2340 N   0  0  0  0  0  0  0  0  0  0  0  0
  -26.0120  -11.7390   20.4930 N   0  0  0  0  0  0  0  0  0  0  0  0
  -24.0130  -10.4960   21.0250 C   0  0  0  0  0  0  0  0  0  0  0  0
  -24.4460   -9.5370   21.9670 C   0  0  0  0  0  3  0  0  0  0  0  0
  -23.7290   -8.3340   22.1440 C   0  0  0  0  0  3  0  0  0  0  0  0
  -22.5650   -8.0820   21.3790 C   0  0  0  0  0  0  0  0  0  0  0  0
  -22.1510   -9.0310   20.4260 C   0  0  0  0  0  3  0  0  0  0  0  0
  -22.8700  -10.2250   20.2480 C   0  0  0  0  0  3  0  0  0  0  0  0
  -21.8190   -6.9310   21.4650 O   0  0  0  0  0  0  0  0  0  0  0  0
  -21.7330   -6.2160   22.6320 C   0  0  0  0  0  0  0  0  0  0  0  0
  -21.2100   -6.7800   23.8160 C   0  0  0  0  0  3  0  0  0  0  0  0
  -21.0750   -5.9880   24.9740 C   0  0  0  0  0  3  0  0  0  0  0  0
  -21.4530   -4.6310   24.9490 C   0  0  0  0  0  0  0  0  0  0  0  0
  -21.9700   -4.0670   23.7690 C   0  0  0  0  0  3  0  0  0  0  0  0
  -22.1070   -4.8570   22.6130 C   0  0  0  0  0  0  0  0  0  0  0  0
  -22.5850   -4.3010   21.4740 F   0  0  0  0  0  0  0  0  0  0  0  0
  -21.3160   -3.8690   26.0580 F   0  0  0  0  0  0  0  0  0  0  0  0
  -22.8660  -13.5790   21.2110 C   0  0  0  0  0  0  0  0  0  0  0  0
  -22.1580  -12.8630   22.0770 N   0  0  0  0  0  0  0  0  0  0  0  0
  -22.4140  -14.6130   20.7210 O   0  0  0  0  0  0  0  0  0  0  0  0
  -22.5350  -12.0260   22.4970 H   0  0  0  0  0  0  0  0  0  0  0  0
  -21.2230  -13.1560   22.3240 H   0  0  0  0  0  0  0  0  0  0  0  0
  -25.4570  -15.2720   20.3550 N   0  0  0  0  0  0  0  0  0  0  0  0
  -24.6830  -15.9100   20.5000 H   0  0  0  0  0  0  0  0  0  0  0  0
  -26.2820  -15.7280   19.9960 H   0  0  0  0  0  0  0  0  0  0  0  0
  -28.9530  -23.5410   20.0700 C   0  0  0  0  0  3  0  0  0  0  0  0
  -30.3880  -23.8700   19.9680 N   0  0  0  0  0  4  0  0  0  0  0  0
  -30.7750  -24.0570   20.8780 H   0  0  0  0  0  0  0  0  0  0  0  0
  -30.5200  -24.6860   19.3950 H   0  0  0  0  0  0  0  0  0  0  0  0
  -30.8990  -23.1100   19.5550 H   0  0  0  0  0  0  0  0  0  0  0  0
  -28.1320  -24.8770   20.6390 C   0  0  0  0  0  2  0  0  0  0  0  0
  -28.3530  -26.3500   20.2430 O   0  0  0  0  0  0  0  0  0  0  0  0
  -24.6220  -31.9410   23.2110 C   0  0  0  0  0  0  0  0  0  0  0  0
  -27.2630  -27.2770   20.2220 C   0  0  0  0  0  0  0  0  0  0  0  0
  -23.4380  -30.5200   21.5810 C   0  0  0  0  0  3  0  0  0  0  0  0
  -24.9060  -28.9530   20.1770 C   0  0  0  0  0  0  0  0  0  0  0  0
  -25.9850  -30.8290   21.4110 C   0  0  0  0  0  2  0  0  0  0  0  0
  -26.0770  -29.4340   20.7750 C   0  0  0  0  0  0  0  0  0  0  0  0
  -27.2600  -28.6120   20.7780 C   0  0  0  0  0  3  0  0  0  0  0  0
  -26.0660  -26.8820   19.5880 C   0  0  0  0  0  3  0  0  0  0  0  0
  -24.9090  -27.6880   19.5690 C   0  0  0  0  0  3  0  0  0  0  0  0
  -23.6670  -29.8320   20.2100 C   0  0  0  0  0  2  0  0  0  0  0  0
  -24.7010  -31.1160   22.1230 N   0  0  0  0  0  0  0  0  0  0  0  0
  -23.5320  -32.2170   23.7360 O   0  0  0  0  0  0  0  0  0  0  0  0
  -22.7720  -29.5110   22.5480 C   0  0  0  0  0  0  0  0  0  0  0  0
  -21.4490  -29.3130   22.4100 N   0  0  0  0  0  0  0  0  0  0  0  0
  -23.4480  -28.9070   23.3860 O   0  0  0  0  0  0  0  0  0  0  0  0
  -20.9610  -29.8520   21.7090 H   0  0  0  0  0  0  0  0  0  0  0  0
  -18.0860  -28.0590   22.8870 C   0  0  0  0  0  0  0  0  0  0  0  0
  -20.6360  -28.3730   23.1850 C   0  0  0  0  0  3  0  0  0  0  0  0
  -20.7720  -26.9340   22.6340 C   0  0  0  0  0  2  0  0  0  0  0  0
  -19.6890  -26.5740   21.6110 C   0  0  0  0  0  2  0  0  0  0  0  0
  -18.2960  -26.7040   22.2340 C   0  0  0  0  0  2  0  0  0  0  0  0
  -19.1840  -28.8500   23.3190 C   0  0  0  0  0  0  0  0  0  0  0  0
  -18.9330  -30.1150   23.8910 C   0  0  0  0  0  3  0  0  0  0  0  0
  -17.6170  -30.5930   24.0340 C   0  0  0  0  0  3  0  0  0  0  0  0
  -16.5330  -29.8010   23.6170 C   0  0  0  0  0  3  0  0  0  0  0  0
  -16.7690  -28.5360   23.0500 C   0  0  0  0  0  3  0  0  0  0  0  0
  -25.8930  -32.5930   23.8360 C   0  0  0  0  0  3  0  0  0  0  0  0
  -26.4090  -31.8370   25.1210 C   0  0  1  0  0  0  0  0  0  0  0  0
  -25.3110  -31.5930   26.1830 C   0  0  0  0  0  1  0  0  0  0  0  0
  -27.0120  -30.4630   24.7450 C   0  0  0  0  0  1  0  0  0  0  0  0
  -27.5440  -32.6510   25.7870 C   0  0  0  0  0  1  0  0  0  0  0  0
  -25.5650  -33.9900   24.1580 N   0  0  0  0  0  0  0  0  0  0  0  0
  -25.8920  -35.0460   23.4000 C   0  0  0  0  0  0  0  0  0  0  0  0
  -26.5660  -34.9460   22.3710 O   0  0  0  0  0  0  0  0  0  0  0  0
  -24.9650  -34.1410   24.9550 H   0  0  0  0  0  0  0  0  0  0  0  0
  -24.1610  -36.8330   23.0230 C   0  0  0  0  0  1  0  0  0  0  0  0
  -25.3910  -36.4310   23.8530 C   0  0  0  0  0  3  0  0  0  0  0  0
  -27.5050  -37.3300   24.7240 C   0  0  0  0  0  1  0  0  0  0  0  0
  -26.4210  -37.4900   23.7580 N   0  0  0  0  0  0  0  0  0  0  0  0
  -26.0070  -38.4080   23.8950 H   0  0  0  0  0  0  0  0  0  0  0  0
  1  2  2  0
  3  5  1  0
  4  7  1  0
  5  1  1  0
  5  7  2  0
  6  3  2  0
  6  8  1  0
  7 10  1  0
  8 19  1  0
  8  4  2  0
  9  6  1  0
 11 19  1  0
 12 17  1  0
 13 14  1  0
 13 12  1  0
 15 14  1  0
 15 24  1  0
 15 16  1  0
 17 11  1  0
 17 16  1  0
 18 11  2  0
 19 20  1  0
 21 22  2  0
 22 41  1  0
 23 22  1  0
 23 26  1  0
 24 25  1  0
 24 21  1  0
 25 23  2  0
 26 27  1  0
 27 28  2  0
 29 32  1  0
 29 28  1  0
 30 29  2  0
 31 30  1  0
 31 26  2  0
 32 33  1  0
 33 34  1  0
 34 35  2  0
 36 35  1  0
 36 40  1  0
 37 36  2  0
 38 33  2  0
 38 37  1  0
 39 38  1  0
 41 42  1  0
 42 45  1  0
 42 44  1  0
 43 41  2  0
 46 47  1  0
 46 21  1  0
 48 46  1  0
 49 54  1  0
 49  1  1  0
 50 49  1  0
 50 51  1  0
 52 50  1  0
 53 50  1  0
 55 54  1  0
 56 67  2  0
 57 55  1  0
 57 62  1  0
 58 66  1  0
 58 68  1  0
 59 65  1  0
 59 61  1  0
 60 66  1  0
 61 62  2  0
 61 60  1  0
 63 57  2  0
 64 63  1  0
 64 59  2  0
 65 58  1  0
 66 56  1  0
 68 70  2  0
 69 68  1  0
 71 69  1  0
 72 81  2  0
 72 77  1  0
 73 69  1  0
 73 77  1  0
 74 73  1  0
 75 76  1  0
 75 74  1  0
 76 72  1  0
 77 78  2  0
 78 79  1  0
 80 79  2  0
 81 80  1  0
 82 56  1  0
 82 87  1  0
 82 83  1  0
 83 86  1  1
 83 84  1  0
 85 83  1  0
 87 90  1  0
 88 92  1  0
 88 87  1  0
 89 88  2  0
 92 91  1  0
 94 92  1  0
 94 95  1  0
 94 93  1  0
M  ISO  4  11 100  19 100  54 101  55 101
M  END
>  <TORSDO>  (87) 
F 20

>  <SCORE>  (87) 
-14.523

>  <name>  (87) 
88

>  <ligand_id>  (87) 
88

>  <original_smiles>  (87) 
[H]c1c([H])c([H])c2c(c1[H])C([H])([H])C([H])([H])C([H])([H])C2([H])N([H])C(=O)C1([H])N(C(=O)C([H])(N([H])C(=O)C([H])(N([H])C([H])([H])[H])C([H])([H])[H])C(C([H])([H])[H])(C([H])([H])[H])C([H])([H])[H])C([H])([H])c2c([H])c(OC([H])([H])C([H])(C(=O)c3c([H])c(C([H])([H])[H])c(N([H])C(=O)N4C([H])([H])C([H])([H])C([H])([H])C([H])(n5nc(-c6c([H])c([H])c(Oc7c([H])c([H])c(F)c([H])c7F)c([H])c6[H])c(C(=O)N([H])[H])c5N([H])[H])C4([H])[H])c([H])c3C([H])([H])[H])[N+]([H])([H])[H])c([H])c([H])c2C1([H])[H]

>  <smiles>  (87) 
[H]c1c([H])c([H])c2c(c1[H])C([H])([H])C([H])([H])C([H])([H])C2([H])N([H])C(=O)C1([H])N(C(=O)C([H])(N([H])C(=O)C([H])(N([H])C([H])([H])[H])C([H])([H])[H])C(C([H])([H])[H])(C([H])([H])[H])C([H])([H])[H])C([H])([H])c2c([H])c(OC([H])([H])C([H])(C(=O)c3c([H])c(C([H])([H])[H])c(N([H])C(=O)N4C([H])([H])C([H])([H])C([H])([H])C([H])(n5nc(-c6c([H])c([H])c(Oc7c([H])c([H])c(F)c([H])c7F)c([H])c6[H])c(C(=O)N([H])[H])c5N([H])[H])C4([H])[H])c([H])c3C([H])([H])[H])[N+]([H])([H])[H])c([H])c([H])c2C1([H])[H]

$$$$
89:0:0
     RDKit          3D

 94102  0  0  1  0  0  0  0  0999 V2000
  -28.7330  -21.8040   19.9610 C   0  0  0  0  0  0  0  0  0  0  0  0
  -29.3860  -19.3370   21.8720 C   0  0  0  0  0  2  0  0  0  0  0  0
  -30.1600  -20.6390   21.6360 C   0  0  0  0  0  2  0  0  0  0  0  0
  -29.3320  -19.1100   20.3600 C   0  0  0  0  0  3  0  0  0  0  0  0
  -29.6430  -20.6540   20.2680 N   0  0  0  0  0  0  0  0  0  0  0  0
  -27.6170  -21.5410   19.5170 O   0  0  0  0  0  0  0  0  0  0  0  0
  -31.7570  -18.1400   20.1980 C   0  0  0  0  0  1  0  0  0  0  0  0
  -30.2330  -17.9710   18.2410 C   0  0  0  0  0  1  0  0  0  0  0  0
  -30.3010  -17.8510   19.7770 C   0  0  2  0  0  0  0  0  0  0  0  0
  -30.7100  -15.0930   19.9150 C   0  0  0  0  0  0  0  0  0  0  0  0
  -30.4870  -12.7610   18.9590 C   0  0  0  0  0  2  0  0  0  0  0  0
  -29.4820  -12.7450   17.7850 C   0  0  0  0  0  2  0  0  0  0  0  0
  -28.0500  -12.5270   18.3040 C   0  0  0  0  0  2  0  0  0  0  0  0
  -27.7180  -13.4340   19.5200 C   0  0  0  0  0  3  0  0  0  0  0  0
  -28.8430  -13.4430   20.5790 C   0  0  0  0  0  2  0  0  0  0  0  0
  -30.0760  -13.8500   19.8950 N   0  0  0  0  0  0  0  0  0  0  0  0
  -31.8930  -15.1010   19.5640 O   0  0  0  0  0  0  0  0  0  0  0  0
  -29.9890  -16.3170   20.1000 N   0  0  0  0  0  0  0  0  0  0  0  0
  -29.0360  -16.1610   20.3860 H   0  0  0  0  0  0  0  0  0  0  0  0
  -25.3990  -13.9920   20.4410 C   0  0  0  0  0  0  0  0  0  0  0  0
  -24.3560  -13.2090   20.8540 C   0  0  0  0  0  0  0  0  0  0  0  0
  -24.8110  -11.8600   20.7490 C   0  0  0  0  0  0  0  0  0  0  0  0
  -26.4170  -13.1200   20.1010 N   0  0  0  0  0  0  0  0  0  0  0  0
  -26.0790  -11.8290   20.3550 N   0  0  0  0  0  0  0  0  0  0  0  0
  -24.0890  -10.5940   20.9420 C   0  0  0  0  0  0  0  0  0  0  0  0
  -24.5180   -9.6350   21.8860 C   0  0  0  0  0  3  0  0  0  0  0  0
  -23.7940   -8.4370   22.0690 C   0  0  0  0  0  3  0  0  0  0  0  0
  -22.6290   -8.1870   21.3050 C   0  0  0  0  0  0  0  0  0  0  0  0
  -22.2200   -9.1350   20.3500 C   0  0  0  0  0  3  0  0  0  0  0  0
  -22.9440  -10.3250   20.1660 C   0  0  0  0  0  3  0  0  0  0  0  0
  -21.8770   -7.0400   21.3970 O   0  0  0  0  0  0  0  0  0  0  0  0
  -21.7430   -6.3590   22.5800 C   0  0  0  0  0  0  0  0  0  0  0  0
  -21.2020   -6.9670   23.7330 C   0  0  0  0  0  3  0  0  0  0  0  0
  -21.0170   -6.2110   24.9080 C   0  0  0  0  0  3  0  0  0  0  0  0
  -21.3630   -4.8460   24.9280 C   0  0  0  0  0  0  0  0  0  0  0  0
  -21.8970   -4.2360   23.7790 C   0  0  0  0  0  3  0  0  0  0  0  0
  -22.0830   -4.9910   22.6080 C   0  0  0  0  0  0  0  0  0  0  0  0
  -22.5770   -4.3930   21.4960 F   0  0  0  0  0  0  0  0  0  0  0  0
  -21.1790   -4.1160   26.0530 F   0  0  0  0  0  0  0  0  0  0  0  0
  -22.9820  -13.6850   21.2280 C   0  0  0  0  0  0  0  0  0  0  0  0
  -22.3080  -12.9700   22.1210 N   0  0  0  0  0  0  0  0  0  0  0  0
  -22.5190  -14.7250   20.7620 O   0  0  0  0  0  0  0  0  0  0  0  0
  -22.7000  -12.1290   22.5200 H   0  0  0  0  0  0  0  0  0  0  0  0
  -21.3880  -13.2680   22.4110 H   0  0  0  0  0  0  0  0  0  0  0  0
  -25.5570  -15.3680   20.2970 N   0  0  0  0  0  0  0  0  0  0  0  0
  -24.7990  -16.0180   20.4730 H   0  0  0  0  0  0  0  0  0  0  0  0
  -26.3740  -15.8100   19.8990 H   0  0  0  0  0  0  0  0  0  0  0  0
  -29.1190  -23.4130   20.1550 C   0  0  0  0  0  3  0  0  0  0  0  0
  -30.3840  -23.6400   19.4290 N   0  0  0  0  0  4  0  0  0  0  0  0
  -30.2260  -23.6610   18.4360 H   0  0  0  0  0  0  0  0  0  0  0  0
  -31.0260  -22.8890   19.6210 H   0  0  0  0  0  0  0  0  0  0  0  0
  -30.8080  -24.5090   19.7050 H   0  0  0  0  0  0  0  0  0  0  0  0
  -28.0680  -24.7070   19.8330 C   0  0  0  0  0  2  0  0  0  0  0  0
  -28.2890  -26.2420   20.0670 O   0  0  0  0  0  0  0  0  0  0  0  0
  -24.5570  -31.8410   23.0990 C   0  0  0  0  0  0  0  0  0  0  0  0
  -27.2130  -27.2100   20.0000 C   0  0  0  0  0  0  0  0  0  0  0  0
  -23.3790  -30.4530   21.4360 C   0  0  0  0  0  3  0  0  0  0  0  0
  -24.8560  -28.9210   19.9910 C   0  0  0  0  0  0  0  0  0  0  0  0
  -25.9300  -30.7600   21.2790 C   0  0  0  0  0  2  0  0  0  0  0  0
  -26.0270  -29.3770   20.6080 C   0  0  0  0  0  0  0  0  0  0  0  0
  -27.2060  -28.5380   20.5960 C   0  0  0  0  0  3  0  0  0  0  0  0
  -26.0140  -26.8600   19.3400 C   0  0  0  0  0  3  0  0  0  0  0  0
  -24.8610  -27.6770   19.3420 C   0  0  0  0  0  3  0  0  0  0  0  0
  -23.6140  -29.7990   20.0490 C   0  0  0  0  0  2  0  0  0  0  0  0
  -24.6410  -31.0410   21.9940 N   0  0  0  0  0  0  0  0  0  0  0  0
  -23.4670  -32.1000   23.6330 O   0  0  0  0  0  0  0  0  0  0  0  0
  -22.7160  -29.4220   22.3840 C   0  0  0  0  0  0  0  0  0  0  0  0
  -21.3910  -29.2290   22.2520 N   0  0  0  0  0  0  0  0  0  0  0  0
  -23.3980  -28.7990   23.2030 O   0  0  0  0  0  0  0  0  0  0  0  0
  -20.8950  -29.7880   21.5720 H   0  0  0  0  0  0  0  0  0  0  0  0
  -18.0340  -27.9490   22.7210 C   0  0  0  0  0  0  0  0  0  0  0  0
  -20.5850  -28.2660   23.0100 C   0  0  0  0  0  3  0  0  0  0  0  0
  -20.7230  -26.8410   22.4260 C   0  0  0  0  0  2  0  0  0  0  0  0
  -19.6360  -26.5020   21.4000 C   0  0  0  0  0  2  0  0  0  0  0  0
  -18.2460  -26.6100   22.0340 C   0  0  0  0  0  2  0  0  0  0  0  0
  -19.1320  -28.7330   23.1650 C   0  0  0  0  0  0  0  0  0  0  0  0
  -18.8790  -29.9840   23.7690 C   0  0  0  0  0  3  0  0  0  0  0  0
  -17.5620  -30.4530   23.9290 C   0  0  0  0  0  3  0  0  0  0  0  0
  -16.4790  -29.6680   23.5010 C   0  0  0  0  0  3  0  0  0  0  0  0
  -16.7160  -28.4180   22.9020 C   0  0  0  0  0  3  0  0  0  0  0  0
  -25.8250  -32.4890   23.7350 C   0  0  0  0  0  3  0  0  0  0  0  0
  -26.3440  -31.7140   25.0080 C   0  0  1  0  0  0  0  0  0  0  0  0
  -25.2510  -31.4540   26.0700 C   0  0  0  0  0  1  0  0  0  0  0  0
  -26.9460  -30.3450   24.6110 C   0  0  0  0  0  1  0  0  0  0  0  0
  -27.4790  -32.5190   25.6850 C   0  0  0  0  0  1  0  0  0  0  0  0
  -25.4930  -33.8800   24.0850 N   0  0  0  0  0  0  0  0  0  0  0  0
  -25.7960  -34.9500   23.3360 C   0  0  0  0  0  0  0  0  0  0  0  0
  -26.4490  -34.8690   22.2930 O   0  0  0  0  0  0  0  0  0  0  0  0
  -24.9120  -34.0150   24.8980 H   0  0  0  0  0  0  0  0  0  0  0  0
  -24.0270  -36.7160   23.0420 C   0  0  0  0  0  1  0  0  0  0  0  0
  -25.2940  -36.3260   23.8190 C   0  0  0  0  0  3  0  0  0  0  0  0
  -27.4270  -37.2490   24.6110 C   0  0  0  0  0  1  0  0  0  0  0  0
  -26.3040  -37.4000   23.6920 N   0  0  0  0  0  0  0  0  0  0  0  0
  -25.8820  -38.3110   23.8530 H   0  0  0  0  0  0  0  0  0  0  0  0
  1 48  1  0
  1  5  1  0
  3  2  1  0
  4  9  1  0
  4  2  1  0
  5  4  1  0
  5  3  1  0
  6  1  2  0
  9  8  1  6
  9 18  1  0
  9  7  1  0
 10 18  1  0
 11 16  1  0
 12 13  1  0
 12 11  1  0
 14 13  1  0
 14 23  1  0
 14 15  1  0
 16 10  1  0
 16 15  1  0
 17 10  2  0
 18 19  1  0
 20 21  2  0
 21 40  1  0
 22 21  1  0
 22 25  1  0
 23 24  1  0
 23 20  1  0
 24 22  2  0
 25 26  1  0
 26 27  2  0
 28 31  1  0
 28 27  1  0
 29 28  2  0
 30 29  1  0
 30 25  2  0
 31 32  1  0
 32 37  2  0
 32 33  1  0
 33 34  2  0
 34 35  1  0
 35 39  1  0
 36 35  2  0
 37 36  1  0
 38 37  1  0
 40 41  1  0
 41 44  1  0
 41 43  1  0
 42 40  2  0
 45 20  1  0
 45 46  1  0
 47 45  1  0
 48 53  1  0
 49 51  1  0
 49 52  1  0
 49 48  1  0
 50 49  1  0
 53 54  1  0
 55 66  2  0
 56 54  1  0
 56 61  1  0
 57 65  1  0
 57 67  1  0
 58 64  1  0
 58 60  1  0
 59 65  1  0
 60 59  1  0
 61 60  2  0
 62 63  1  0
 62 56  2  0
 63 58  2  0
 64 57  1  0
 65 55  1  0
 67 69  2  0
 68 67  1  0
 70 68  1  0
 71 80  2  0
 71 76  1  0
 72 68  1  0
 72 76  1  0
 73 72  1  0
 74 75  1  0
 74 73  1  0
 75 71  1  0
 76 77  2  0
 77 78  1  0
 79 78  2  0
 80 79  1  0
 81 55  1  0
 81 86  1  0
 81 82  1  0
 82 85  1  1
 82 83  1  0
 84 82  1  0
 86 89  1  0
 87 91  1  0
 87 86  1  0
 88 87  2  0
 91 90  1  0
 93 91  1  0
 93 94  1  0
 93 92  1  0
M  ISO  4  10 100  18 100  53 101  54 101
M  END
>  <TORSDO>  (88) 
F 20

>  <SCORE>  (88) 
-13.548

>  <name>  (88) 
89

>  <ligand_id>  (88) 
89

>  <original_smiles>  (88) 
[H]c1c([H])c([H])c2c(c1[H])C([H])([H])C([H])([H])C([H])([H])C2([H])N([H])C(=O)C1([H])N(C(=O)C([H])(N([H])C(=O)C([H])(N([H])C([H])([H])[H])C([H])([H])[H])C(C([H])([H])[H])(C([H])([H])[H])C([H])([H])[H])C([H])([H])c2c([H])c(OC([H])([H])C([H])(C(=O)N3C([H])([H])C([H])([H])C3([H])C(N([H])C(=O)N3C([H])([H])C([H])([H])C([H])([H])C([H])(n4nc(-c5c([H])c([H])c(Oc6c([H])c([H])c(F)c([H])c6F)c([H])c5[H])c(C(=O)N([H])[H])c4N([H])[H])C3([H])[H])(C([H])([H])[H])C([H])([H])[H])[N+]([H])([H])[H])c([H])c([H])c2C1([H])[H]

>  <smiles>  (88) 
[H]c1c([H])c([H])c2c(c1[H])C([H])([H])C([H])([H])C([H])([H])C2([H])N([H])C(=O)C1([H])N(C(=O)C([H])(N([H])C(=O)C([H])(N([H])C([H])([H])[H])C([H])([H])[H])C(C([H])([H])[H])(C([H])([H])[H])C([H])([H])[H])C([H])([H])c2c([H])c(OC([H])([H])C([H])(C(=O)N3C([H])([H])C([H])([H])C3([H])C(N([H])C(=O)N3C([H])([H])C([H])([H])C([H])([H])C([H])(n4nc(-c5c([H])c([H])c(Oc6c([H])c([H])c(F)c([H])c6F)c([H])c5[H])c(C(=O)N([H])[H])c4N([H])[H])C3([H])[H])(C([H])([H])[H])C([H])([H])[H])[N+]([H])([H])[H])c([H])c([H])c2C1([H])[H]

$$$$
90:0:0
     RDKit          3D

 96104  0  0  1  0  0  0  0  0999 V2000
  -30.2700  -21.0120   19.5340 C   0  0  0  0  0  3  0  0  0  0  0  0
  -28.2670  -20.4270   20.4920 C   0  0  0  0  0  3  0  0  0  0  0  0
  -29.5270  -19.8650   20.0510 C   0  0  0  0  0  0  0  0  0  0  0  0
  -29.8620  -22.4380   19.4480 C   0  0  0  0  0  0  0  0  0  0  0  0
  -28.5960  -23.0000   19.8910 C   0  0  0  0  0  0  0  0  0  0  0  0
  -27.8360  -21.8500   20.4100 C   0  0  0  0  0  0  0  0  0  0  0  0
  -30.8560  -23.3950   18.8140 C   0  0  0  0  0  1  0  0  0  0  0  0
  -26.5460  -22.0870   20.8830 N   0  0  0  0  0  0  0  0  0  0  0  0
  -25.9090  -21.3080   21.0080 H   0  0  0  0  0  0  0  0  0  0  0  0
  -26.0770  -22.9590   20.6620 H   0  0  0  0  0  0  0  0  0  0  0  0
  -27.9250  -24.5810   19.5850 C   0  0  0  0  0  2  0  0  0  0  0  0
  -28.2760  -26.1310   19.9260 O   0  0  0  0  0  0  0  0  0  0  0  0
  -24.6530  -31.8820   23.1520 C   0  0  0  0  0  0  0  0  0  0  0  0
  -27.2650  -27.2180   19.9010 C   0  0  0  0  0  0  0  0  0  0  0  0
  -23.4700  -30.5420   21.4600 C   0  0  0  0  0  3  0  0  0  0  0  0
  -24.9340  -29.0390   19.9550 C   0  0  0  0  0  0  0  0  0  0  0  0
  -26.0290  -30.8130   21.3040 C   0  0  0  0  0  2  0  0  0  0  0  0
  -26.1170  -29.4380   20.5870 C   0  0  0  0  0  0  0  0  0  0  0  0
  -27.2790  -28.5490   20.5390 C   0  0  0  0  0  3  0  0  0  0  0  0
  -26.0480  -26.9690   19.2230 C   0  0  0  0  0  3  0  0  0  0  0  0
  -24.9200  -27.8240   19.2550 C   0  0  0  0  0  3  0  0  0  0  0  0
  -23.6980  -29.9300   20.0520 C   0  0  0  0  0  2  0  0  0  0  0  0
  -24.7380  -31.1020   22.0270 N   0  0  0  0  0  0  0  0  0  0  0  0
  -23.5640  -32.1300   23.6930 O   0  0  0  0  0  0  0  0  0  0  0  0
  -22.8010  -29.4890   22.3840 C   0  0  0  0  0  0  0  0  0  0  0  0
  -21.4710  -29.3160   22.2680 N   0  0  0  0  0  0  0  0  0  0  0  0
  -23.4850  -28.8320   23.1730 O   0  0  0  0  0  0  0  0  0  0  0  0
  -20.9720  -29.8990   21.6110 H   0  0  0  0  0  0  0  0  0  0  0  0
  -18.1020  -28.0760   22.7910 C   0  0  0  0  0  0  0  0  0  0  0  0
  -20.6680  -28.3330   23.0030 C   0  0  0  0  0  3  0  0  0  0  0  0
  -20.7560  -26.9360   22.3450 C   0  0  0  0  0  2  0  0  0  0  0  0
  -19.6270  -26.6710   21.3420 C   0  0  0  0  0  2  0  0  0  0  0  0
  -18.2630  -26.7720   22.0290 C   0  0  0  0  0  2  0  0  0  0  0  0
  -19.2300  -28.8170   23.2350 C   0  0  0  0  0  0  0  0  0  0  0  0
  -19.0230  -30.0390   23.9110 C   0  0  0  0  0  3  0  0  0  0  0  0
  -17.7200  -30.5200   24.1460 C   0  0  0  0  0  3  0  0  0  0  0  0
  -16.6080  -29.7760   23.7150 C   0  0  0  0  0  3  0  0  0  0  0  0
  -16.7990  -28.5570   23.0430 C   0  0  0  0  0  3  0  0  0  0  0  0
  -25.9200  -32.5160   23.8030 C   0  0  0  0  0  3  0  0  0  0  0  0
  -25.5990  -33.9100   24.1550 N   0  0  0  0  0  0  0  0  0  0  0  0
  -25.9100  -34.9810   23.4120 C   0  0  0  0  0  0  0  0  0  0  0  0
  -26.5620  -34.8980   22.3680 O   0  0  0  0  0  0  0  0  0  0  0  0
  -25.0170  -34.0470   24.9690 H   0  0  0  0  0  0  0  0  0  0  0  0
  -24.1520  -36.7620   23.1400 C   0  0  0  0  0  1  0  0  0  0  0  0
  -25.4250  -36.3600   23.9020 C   0  0  0  0  0  3  0  0  0  0  0  0
  -27.5700  -37.2690   24.6780 C   0  0  0  0  0  1  0  0  0  0  0  0
  -26.4390  -37.4270   23.7660 N   0  0  0  0  0  0  0  0  0  0  0  0
  -26.0260  -38.3410   23.9280 H   0  0  0  0  0  0  0  0  0  0  0  0
  -26.4140  -31.7340   25.0820 C   0  0  1  0  0  0  0  0  0  0  0  0
  -25.3040  -31.4860   26.1300 C   0  0  0  0  0  1  0  0  0  0  0  0
  -27.0060  -30.3590   24.6930 C   0  0  0  0  0  1  0  0  0  0  0  0
  -27.5530  -32.5230   25.7700 C   0  0  0  0  0  1  0  0  0  0  0  0
  -30.2450  -18.2970   20.2750 C   0  0  0  0  0  0  0  0  0  0  0  0
  -30.4290  -15.4300   19.9760 C   0  0  0  0  0  0  0  0  0  0  0  0
  -30.2820  -13.0580   18.9790 C   0  0  0  0  0  2  0  0  0  0  0  0
  -29.2810  -12.9430   17.8050 C   0  0  0  0  0  2  0  0  0  0  0  0
  -27.8610  -12.6730   18.3290 C   0  0  0  0  0  2  0  0  0  0  0  0
  -27.4970  -13.5810   19.5300 C   0  0  0  0  0  3  0  0  0  0  0  0
  -28.6190  -13.6580   20.5880 C   0  0  0  0  0  2  0  0  0  0  0  0
  -29.8170  -14.1580   19.8970 N   0  0  0  0  0  0  0  0  0  0  0  0
  -31.6310  -15.4280   19.6780 O   0  0  0  0  0  0  0  0  0  0  0  0
  -29.7570  -16.7150   20.2340 N   0  0  0  0  0  4  0  0  0  0  0  0
  -28.7680  -16.6050   20.4090 H   0  0  0  0  0  0  0  0  0  0  0  0
  -25.1750  -14.1050   20.4440 C   0  0  0  0  0  0  0  0  0  0  0  0
  -24.1400  -13.3090   20.8510 C   0  0  0  0  0  0  0  0  0  0  0  0
  -24.6110  -11.9640   20.7520 C   0  0  0  0  0  0  0  0  0  0  0  0
  -26.2050  -13.2430   20.1110 N   0  0  0  0  0  0  0  0  0  0  0  0
  -25.8830  -11.9480   20.3650 N   0  0  0  0  0  0  0  0  0  0  0  0
  -23.9030  -10.6920   20.9440 C   0  0  0  0  0  0  0  0  0  0  0  0
  -24.3630   -9.7190   21.8600 C   0  0  0  0  0  3  0  0  0  0  0  0
  -23.6520   -8.5140   22.0420 C   0  0  0  0  0  3  0  0  0  0  0  0
  -22.4650   -8.2730   21.3090 C   0  0  0  0  0  0  0  0  0  0  0  0
  -22.0230   -9.2340   20.3830 C   0  0  0  0  0  3  0  0  0  0  0  0
  -22.7360  -10.4300   20.1980 C   0  0  0  0  0  3  0  0  0  0  0  0
  -21.7210   -7.1210   21.4030 O   0  0  0  0  0  0  0  0  0  0  0  0
  -21.6880   -6.3770   22.5560 C   0  0  0  0  0  0  0  0  0  0  0  0
  -21.2380   -6.9190   23.7790 C   0  0  0  0  0  3  0  0  0  0  0  0
  -21.1550   -6.1000   24.9240 C   0  0  0  0  0  3  0  0  0  0  0  0
  -21.5110   -4.7410   24.8450 C   0  0  0  0  0  0  0  0  0  0  0  0
  -21.9540   -4.1980   23.6250 C   0  0  0  0  0  3  0  0  0  0  0  0
  -22.0390   -5.0140   22.4830 C   0  0  0  0  0  0  0  0  0  0  0  0
  -22.4460   -4.4810   21.3060 F   0  0  0  0  0  0  0  0  0  0  0  0
  -21.4230   -3.9520   25.9410 F   0  0  0  0  0  0  0  0  0  0  0  0
  -22.7580  -13.7690   21.2130 C   0  0  0  0  0  0  0  0  0  0  0  0
  -22.0800  -13.0370   22.0890 N   0  0  0  0  0  0  0  0  0  0  0  0
  -22.2920  -14.8120   20.7550 O   0  0  0  0  0  0  0  0  0  0  0  0
  -22.4720  -12.1930   22.4790 H   0  0  0  0  0  0  0  0  0  0  0  0
  -21.1550  -13.3250   22.3750 H   0  0  0  0  0  0  0  0  0  0  0  0
  -25.3180  -15.4810   20.2990 N   0  0  0  0  0  0  0  0  0  0  0  0
  -24.5530  -16.1230   20.4750 H   0  0  0  0  0  0  0  0  0  0  0  0
  -26.1300  -15.9360   19.9050 H   0  0  0  0  0  0  0  0  0  0  0  0
  -31.1700  -18.5330   21.5070 C   0  0  0  0  0  2  0  0  0  0  0  0
  -31.9160  -17.3670   22.0040 N   0  0  0  0  0  4  0  0  0  0  0  0
  -31.3780  -16.8960   22.7080 H   0  0  0  0  0  0  0  0  0  0  0  0
  -32.7890  -17.6540   22.4100 H   0  0  0  0  0  0  0  0  0  0  0  0
  -32.0930  -16.7140   21.2470 H   0  0  0  0  0  0  0  0  0  0  0  0
  1  3  1  0
  3 53  1  0
  3  2  2  0
  4  1  2  0
  4  5  1  0
  5  6  2  0
  6  2  1  0
  6  8  1  0
  7  4  1  0
  8  9  1  0
 10  8  1  0
 11  5  1  0
 11 12  1  0
 13 24  2  0
 14 12  1  0
 14 19  1  0
 15 23  1  0
 15 25  1  0
 16 22  1  0
 16 18  1  0
 17 23  1  0
 18 17  1  0
 19 18  2  0
 20 21  1  0
 20 14  2  0
 21 16  2  0
 22 15  1  0
 23 13  1  0
 25 27  2  0
 26 25  1  0
 28 26  1  0
 29 38  2  0
 29 34  1  0
 30 26  1  0
 30 34  1  0
 31 30  1  0
 32 33  1  0
 32 31  1  0
 33 29  1  0
 34 35  2  0
 35 36  1  0
 37 36  2  0
 38 37  1  0
 39 13  1  0
 39 40  1  0
 39 49  1  0
 40 43  1  0
 41 45  1  0
 41 40  1  0
 42 41  2  0
 45 44  1  0
 47 45  1  0
 47 48  1  0
 47 46  1  0
 49 52  1  1
 49 50  1  0
 51 49  1  0
 53 92  1  0
 54 62  1  0
 55 60  1  0
 56 57  1  0
 56 55  1  0
 58 57  1  0
 58 67  1  0
 58 59  1  0
 60 54  1  0
 60 59  1  0
 61 54  2  0
 62 53  2  0
 62 63  1  0
 64 65  2  0
 65 84  1  0
 66 65  1  0
 66 69  1  0
 67 68  1  0
 67 64  1  0
 68 66  2  0
 69 70  1  0
 70 71  2  0
 72 75  1  0
 72 71  1  0
 73 72  2  0
 74 73  1  0
 74 69  2  0
 75 76  1  0
 76 77  1  0
 77 78  2  0
 79 78  1  0
 79 83  1  0
 80 79  2  0
 81 76  2  0
 81 80  1  0
 82 81  1  0
 84 85  1  0
 85 88  1  0
 85 87  1  0
 86 84  2  0
 89 64  1  0
 89 90  1  0
 91 89  1  0
 92 93  1  0
 93 95  1  0
 93 94  1  0
 96 93  1  0
M  ISO  4  11 101  12 101  54 100  62 100
M  END
>  <TORSDO>  (89) 
F 21

>  <SCORE>  (89) 
-13.802

>  <name>  (89) 
90

>  <ligand_id>  (89) 
90

>  <original_smiles>  (89) 
[H]c1c([H])c([H])c2c(c1[H])C([H])([H])C([H])([H])C([H])([H])C2([H])N([H])C(=O)C1([H])N(C(=O)C([H])(N([H])C(=O)C([H])(N([H])C([H])([H])[H])C([H])([H])[H])C(C([H])([H])[H])(C([H])([H])[H])C([H])([H])[H])C([H])([H])c2c([H])c(OC([H])([H])c3c(N([H])[H])c([H])c(C([H])(N([H])C(=O)N4C([H])([H])C([H])([H])C([H])([H])C([H])(n5nc(-c6c([H])c([H])c(Oc7c([H])c([H])c(F)c([H])c7F)c([H])c6[H])c(C(=O)N([H])[H])c5N([H])[H])C4([H])[H])C([H])([H])[N+]([H])([H])[H])c([H])c3C([H])([H])[H])c([H])c([H])c2C1([H])[H]

>  <smiles>  (89) 
[H]c1c([H])c([H])c2c(c1[H])C([H])([H])C([H])([H])C([H])([H])C2([H])N([H])C(=O)C1([H])N(C(=O)C([H])(N([H])C(=O)C([H])(N([H])C([H])([H])[H])C([H])([H])[H])C(C([H])([H])[H])(C([H])([H])[H])C([H])([H])[H])C([H])([H])c2c([H])c(OC([H])([H])c3c(N([H])[H])c([H])c(C([H])(N([H])C(=O)N4C([H])([H])C([H])([H])C([H])([H])C([H])(n5nc(-c6c([H])c([H])c(Oc7c([H])c([H])c(F)c([H])c7F)c([H])c6[H])c(C(=O)N([H])[H])c5N([H])[H])C4([H])[H])C([H])([H])[N+]([H])([H])[H])c([H])c3C([H])([H])[H])c([H])c([H])c2C1([H])[H]

$$$$
92:0:0
     RDKit          3D

 97105  0  0  1  0  0  0  0  0999 V2000
  -30.9980  -19.1530   20.6820 C   0  0  0  0  0  0  0  0  0  0  0  0
  -28.2030  -21.0490   19.1370 C   0  0  0  0  0  2  0  0  0  0  0  0
  -28.8960  -19.7140   19.4160 C   0  0  0  0  0  2  0  0  0  0  0  0
  -30.1650  -21.4820   20.4150 C   0  0  0  0  0  2  0  0  0  0  0  0
  -29.2890  -22.1230   19.3140 C   0  0  0  0  0  3  0  0  0  0  0  0
  -30.0670  -20.0290   20.2320 N   0  0  0  0  0  0  0  0  0  0  0  0
  -31.9560  -19.5290   21.3670 O   0  0  0  0  0  0  0  0  0  0  0  0
  -29.1910  -24.3830   20.4740 C   0  0  0  0  0  0  0  0  0  0  0  0
  -27.7220  -23.8900   18.5890 C   0  0  0  0  0  1  0  0  0  0  0  0
  -28.7170  -23.4690   19.5840 N   0  0  0  0  0  0  0  0  0  0  0  0
  -30.3150  -24.3080   20.9810 O   0  0  0  0  0  0  0  0  0  0  0  0
  -28.2490  -25.5070   20.9570 C   0  0  0  0  0  2  0  0  0  0  0  0
  -28.3830  -26.7040   20.1740 O   0  0  0  0  0  0  0  0  0  0  0  0
  -24.5970  -31.8990   23.2460 C   0  0  0  0  0  0  0  0  0  0  0  0
  -27.2360  -27.4630   20.1650 C   0  0  0  0  0  0  0  0  0  0  0  0
  -23.3910  -30.4970   21.6040 C   0  0  0  0  0  3  0  0  0  0  0  0
  -24.8450  -28.9640   20.1760 C   0  0  0  0  0  0  0  0  0  0  0  0
  -25.9180  -30.8540   21.4110 C   0  0  0  0  0  2  0  0  0  0  0  0
  -26.0030  -29.4860   20.7690 C   0  0  0  0  0  0  0  0  0  0  0  0
  -27.2050  -28.7420   20.7610 C   0  0  0  0  0  3  0  0  0  0  0  0
  -26.0650  -26.9590   19.5590 C   0  0  0  0  0  3  0  0  0  0  0  0
  -24.8710  -27.6990   19.5670 C   0  0  0  0  0  3  0  0  0  0  0  0
  -23.6000  -29.8190   20.2240 C   0  0  0  0  0  2  0  0  0  0  0  0
  -24.6530  -31.0980   22.1440 N   0  0  0  0  0  0  0  0  0  0  0  0
  -23.5160  -32.1730   23.7840 O   0  0  0  0  0  0  0  0  0  0  0  0
  -22.7400  -29.4750   22.5620 C   0  0  0  0  0  0  0  0  0  0  0  0
  -21.4150  -29.2950   22.4340 N   0  0  0  0  0  0  0  0  0  0  0  0
  -23.4210  -28.8480   23.3790 O   0  0  0  0  0  0  0  0  0  0  0  0
  -20.9280  -29.8520   21.7450 H   0  0  0  0  0  0  0  0  0  0  0  0
  -18.0370  -28.1110   22.9260 C   0  0  0  0  0  0  0  0  0  0  0  0
  -20.5950  -28.3610   23.2040 C   0  0  0  0  0  3  0  0  0  0  0  0
  -20.6940  -26.9300   22.6290 C   0  0  0  0  0  2  0  0  0  0  0  0
  -19.5930  -26.6090   21.6120 C   0  0  0  0  0  2  0  0  0  0  0  0
  -18.2100  -26.7600   22.2530 C   0  0  0  0  0  2  0  0  0  0  0  0
  -19.1570  -28.8700   23.3580 C   0  0  0  0  0  0  0  0  0  0  0  0
  -18.9410  -30.1360   23.9450 C   0  0  0  0  0  3  0  0  0  0  0  0
  -17.6390  -30.6420   24.1080 C   0  0  0  0  0  3  0  0  0  0  0  0
  -16.5320  -29.8790   23.6940 C   0  0  0  0  0  3  0  0  0  0  0  0
  -16.7330  -28.6160   23.1100 C   0  0  0  0  0  3  0  0  0  0  0  0
  -25.8850  -32.5280   23.8660 C   0  0  0  0  0  3  0  0  0  0  0  0
  -25.5780  -33.9250   24.1970 N   0  0  0  0  0  0  0  0  0  0  0  0
  -25.9100  -34.9770   23.4360 C   0  0  0  0  0  0  0  0  0  0  0  0
  -26.5810  -34.8720   22.4060 O   0  0  0  0  0  0  0  0  0  0  0  0
  -24.9860  -34.0820   25.0000 H   0  0  0  0  0  0  0  0  0  0  0  0
  -24.1840  -36.7680   23.0760 C   0  0  0  0  0  1  0  0  0  0  0  0
  -25.4210  -36.3640   23.8930 C   0  0  0  0  0  3  0  0  0  0  0  0
  -27.5540  -37.2440   24.7310 C   0  0  0  0  0  1  0  0  0  0  0  0
  -26.4550  -37.4160   23.7850 N   0  0  0  0  0  0  0  0  0  0  0  0
  -26.0500  -38.3360   23.9350 H   0  0  0  0  0  0  0  0  0  0  0  0
  -26.4060  -31.7530   25.1390 C   0  0  1  0  0  0  0  0  0  0  0  0
  -25.3160  -31.5080   26.2060 C   0  0  0  0  0  1  0  0  0  0  0  0
  -26.9930  -30.3780   24.7410 C   0  0  0  0  0  1  0  0  0  0  0  0
  -27.5560  -32.5480   25.8000 C   0  0  0  0  0  1  0  0  0  0  0  0
  -30.9270  -17.6530   20.3120 C   0  0  0  0  0  3  0  0  0  0  0  0
  -32.2290  -17.2740   19.7430 N   0  0  0  0  0  4  0  0  0  0  0  0
  -32.9550  -17.6290   20.3410 H   0  0  0  0  0  0  0  0  0  0  0  0
  -32.3520  -17.6610   18.8250 H   0  0  0  0  0  0  0  0  0  0  0  0
  -32.2820  -16.2600   19.7070 H   0  0  0  0  0  0  0  0  0  0  0  0
  -30.5950  -16.7570   21.5460 C   0  0  0  0  0  2  0  0  0  0  0  0
  -30.7230  -14.4220   20.5680 C   0  0  0  0  0  0  0  0  0  0  0  0
  -30.3790  -12.3230   19.3330 C   0  0  0  0  0  2  0  0  0  0  0  0
  -29.4420  -12.5600   18.1330 C   0  0  0  0  0  2  0  0  0  0  0  0
  -27.9660  -12.4350   18.5560 C   0  0  0  0  0  2  0  0  0  0  0  0
  -27.6370  -13.2610   19.8290 C   0  0  0  0  0  3  0  0  0  0  0  0
  -28.6790  -12.9950   20.9380 C   0  0  0  0  0  2  0  0  0  0  0  0
  -30.0140  -13.2820   20.3860 N   0  0  0  0  0  0  0  0  0  0  0  0
  -31.8300  -14.6260   20.0590 O   0  0  0  0  0  0  0  0  0  0  0  0
  -30.0940  -15.4030   21.2350 N   0  0  0  0  0  0  0  0  0  0  0  0
  -29.1780  -15.1690   21.5880 H   0  0  0  0  0  0  0  0  0  0  0  0
  -25.2320  -13.9020   20.4900 C   0  0  0  0  0  0  0  0  0  0  0  0
  -24.1510  -13.1460   20.8530 C   0  0  0  0  0  0  0  0  0  0  0  0
  -24.5990  -11.7890   20.8440 C   0  0  0  0  0  0  0  0  0  0  0  0
  -26.2720  -13.0080   20.2880 N   0  0  0  0  0  0  0  0  0  0  0  0
  -25.8930  -11.7330   20.5560 N   0  0  0  0  0  0  0  0  0  0  0  0
  -23.8580  -10.5360   21.0390 C   0  0  0  0  0  0  0  0  0  0  0  0
  -24.2780   -9.5680   21.9780 C   0  0  0  0  0  3  0  0  0  0  0  0
  -23.5400   -8.3790   22.1580 C   0  0  0  0  0  3  0  0  0  0  0  0
  -22.3680   -8.1490   21.4000 C   0  0  0  0  0  0  0  0  0  0  0  0
  -21.9680   -9.1050   20.4490 C   0  0  0  0  0  3  0  0  0  0  0  0
  -22.7060  -10.2860   20.2680 C   0  0  0  0  0  3  0  0  0  0  0  0
  -21.6010   -7.0130   21.4910 O   0  0  0  0  0  0  0  0  0  0  0  0
  -21.5510   -6.2680   22.6410 C   0  0  0  0  0  0  0  0  0  0  0  0
  -21.1530   -6.8270   23.8750 C   0  0  0  0  0  3  0  0  0  0  0  0
  -21.0500   -6.0100   25.0180 C   0  0  0  0  0  3  0  0  0  0  0  0
  -21.3340   -4.6350   24.9290 C   0  0  0  0  0  0  0  0  0  0  0  0
  -21.7260   -4.0740   23.7000 C   0  0  0  0  0  3  0  0  0  0  0  0
  -21.8300   -4.8890   22.5590 C   0  0  0  0  0  0  0  0  0  0  0  0
  -22.1870   -4.3400   21.3730 F   0  0  0  0  0  0  0  0  0  0  0  0
  -21.2270   -3.8470   26.0240 F   0  0  0  0  0  0  0  0  0  0  0  0
  -22.7550  -13.6390   21.1010 C   0  0  0  0  0  0  0  0  0  0  0  0
  -22.0090  -12.9580   21.9650 N   0  0  0  0  0  0  0  0  0  0  0  0
  -22.3340  -14.6640   20.5640 O   0  0  0  0  0  0  0  0  0  0  0  0
  -22.3640  -12.1310   22.4190 H   0  0  0  0  0  0  0  0  0  0  0  0
  -21.0740  -13.2720   22.1760 H   0  0  0  0  0  0  0  0  0  0  0  0
  -25.4180  -15.2680   20.2990 N   0  0  0  0  0  0  0  0  0  0  0  0
  -24.6590  -15.9370   20.3810 H   0  0  0  0  0  0  0  0  0  0  0  0
  -26.2830  -15.6890   19.9840 H   0  0  0  0  0  0  0  0  0  0  0  0
  1  7  2  0
  2  5  1  0
  2  3  1  0
  3  6  1  0
  5 10  1  0
  5  4  1  0
  6  4  1  0
  6  1  1  0
  8 12  1  0
  8 11  2  0
  9 10  1  0
 10  8  1  0
 13 12  1  0
 14 25  2  0
 15 13  1  0
 15 20  1  0
 16 24  1  0
 16 26  1  0
 17 23  1  0
 17 19  1  0
 18 24  1  0
 19 18  1  0
 20 19  2  0
 21 22  1  0
 21 15  2  0
 22 17  2  0
 23 16  1  0
 24 14  1  0
 26 28  2  0
 27 26  1  0
 29 27  1  0
 30 39  2  0
 30 35  1  0
 31 27  1  0
 31 35  1  0
 32 31  1  0
 33 34  1  0
 33 32  1  0
 34 30  1  0
 35 36  2  0
 36 37  1  0
 38 37  2  0
 39 38  1  0
 40 14  1  0
 40 41  1  0
 40 50  1  0
 41 44  1  0
 42 46  1  0
 42 41  1  0
 43 42  2  0
 46 45  1  0
 48 46  1  0
 48 49  1  0
 48 47  1  0
 50 53  1  1
 50 51  1  0
 52 50  1  0
 54  1  1  0
 54 59  1  0
 55 54  1  0
 55 56  1  0
 57 55  1  0
 58 55  1  0
 60 68  1  0
 61 66  1  0
 62 63  1  0
 62 61  1  0
 64 63  1  0
 64 73  1  0
 64 65  1  0
 66 60  1  0
 66 65  1  0
 67 60  2  0
 68 59  1  0
 68 69  1  0
 70 71  2  0
 71 90  1  0
 72 71  1  0
 72 75  1  0
 73 70  1  0
 73 74  1  0
 74 72  2  0
 75 76  1  0
 76 77  2  0
 78 81  1  0
 78 77  1  0
 79 78  2  0
 80 79  1  0
 80 75  2  0
 81 82  1  0
 82 83  1  0
 83 84  2  0
 85 84  1  0
 85 89  1  0
 86 85  2  0
 87 82  2  0
 87 86  1  0
 88 87  1  0
 90 91  1  0
 91 94  1  0
 91 93  1  0
 92 90  2  0
 95 96  1  0
 95 70  1  0
 97 95  1  0
M  ISO  4  12 101  13 101  60 100  68 100
M  END
>  <TORSDO>  (90) 
F 21

>  <SCORE>  (90) 
-13.997

>  <name>  (90) 
92

>  <ligand_id>  (90) 
92

>  <original_smiles>  (90) 
[H]c1c([H])c([H])c2c(c1[H])C([H])([H])C([H])([H])C([H])([H])C2([H])N([H])C(=O)C1([H])N(C(=O)C([H])(N([H])C(=O)C([H])(N([H])C([H])([H])[H])C([H])([H])[H])C(C([H])([H])[H])(C([H])([H])[H])C([H])([H])[H])C([H])([H])c2c([H])c(OC([H])([H])C(=O)N(C([H])([H])[H])C3([H])C([H])([H])N(C(=O)C([H])(C([H])([H])N([H])C(=O)N4C([H])([H])C([H])([H])C([H])([H])C([H])(n5nc(-c6c([H])c([H])c(Oc7c([H])c([H])c(F)c([H])c7F)c([H])c6[H])c(C(=O)N([H])[H])c5N([H])[H])C4([H])[H])[N+]([H])([H])[H])C([H])([H])C3([H])[H])c([H])c([H])c2C1([H])[H]

>  <smiles>  (90) 
[H]c1c([H])c([H])c2c(c1[H])C([H])([H])C([H])([H])C([H])([H])C2([H])N([H])C(=O)C1([H])N(C(=O)C([H])(N([H])C(=O)C([H])(N([H])C([H])([H])[H])C([H])([H])[H])C(C([H])([H])[H])(C([H])([H])[H])C([H])([H])[H])C([H])([H])c2c([H])c(OC([H])([H])C(=O)N(C([H])([H])[H])C3([H])C([H])([H])N(C(=O)C([H])(C([H])([H])N([H])C(=O)N4C([H])([H])C([H])([H])C([H])([H])C([H])(n5nc(-c6c([H])c([H])c(Oc7c([H])c([H])c(F)c([H])c7F)c([H])c6[H])c(C(=O)N([H])[H])c5N([H])[H])C4([H])[H])[N+]([H])([H])[H])C([H])([H])C3([H])[H])c([H])c([H])c2C1([H])[H]

$$$$
93:0:0
     RDKit          3D

 91 99  0  0  1  0  0  0  0  0999 V2000
  -31.5170  -20.9430   20.3870 C   0  0  0  0  0  3  0  0  0  0  0  0
  -30.6260  -22.0270   20.2630 C   0  0  0  0  0  3  0  0  0  0  0  0
  -31.1030  -19.5900   20.3970 C   0  0  0  0  0  0  0  0  0  0  0  0
  -29.2390  -21.8620   20.1030 C   0  0  0  0  0  0  0  0  0  0  0  0
  -28.8110  -20.4140   20.1720 C   0  0  0  0  0  0  0  0  0  0  0  0
  -29.7350  -19.2270   20.3360 C   0  0  0  0  0  0  0  0  0  0  0  0
  -32.1840  -18.5320   20.5310 C   0  0  0  0  0  1  0  0  0  0  0  0
  -27.3190  -20.1290   20.0710 C   0  0  0  0  0  1  0  0  0  0  0  0
  -27.1410  -23.0600   18.9470 C   0  0  0  0  0  1  0  0  0  0  0  0
  -28.4720  -23.2960   19.6680 C   0  0  0  0  0  3  0  0  0  0  0  0
  -28.3440  -24.7360   20.5610 C   0  0  0  0  0  2  0  0  0  0  0  0
  -28.3660  -26.2370   20.1090 O   0  0  0  0  0  0  0  0  0  0  0  0
  -24.6270  -31.8650   23.1520 C   0  0  0  0  0  0  0  0  0  0  0  0
  -27.2660  -27.1700   20.1460 C   0  0  0  0  0  0  0  0  0  0  0  0
  -23.4520  -30.4680   21.4980 C   0  0  0  0  0  3  0  0  0  0  0  0
  -24.9220  -28.8970   20.0950 C   0  0  0  0  0  0  0  0  0  0  0  0
  -26.0050  -30.7510   21.3540 C   0  0  0  0  0  2  0  0  0  0  0  0
  -26.0960  -29.3570   20.7070 C   0  0  0  0  0  0  0  0  0  0  0  0
  -27.2690  -28.5100   20.7090 C   0  0  0  0  0  3  0  0  0  0  0  0
  -26.0610  -26.8040   19.5130 C   0  0  0  0  0  3  0  0  0  0  0  0
  -24.9160  -27.6310   19.4880 C   0  0  0  0  0  3  0  0  0  0  0  0
  -23.6910  -29.7910   20.1220 C   0  0  0  0  0  2  0  0  0  0  0  0
  -24.7150  -31.0480   22.0570 N   0  0  0  0  0  0  0  0  0  0  0  0
  -23.5330  -32.1430   23.6700 O   0  0  0  0  0  0  0  0  0  0  0  0
  -22.7690  -29.4540   22.4510 C   0  0  0  0  0  0  0  0  0  0  0  0
  -21.4400  -29.2920   22.3220 N   0  0  0  0  0  0  0  0  0  0  0  0
  -23.4380  -28.8150   23.2670 O   0  0  0  0  0  0  0  0  0  0  0  0
  -20.9560  -29.8570   21.6400 H   0  0  0  0  0  0  0  0  0  0  0  0
  -18.0530  -28.1170   22.8270 C   0  0  0  0  0  0  0  0  0  0  0  0
  -20.6150  -28.3510   23.0840 C   0  0  0  0  0  3  0  0  0  0  0  0
  -20.7010  -26.9280   22.4870 C   0  0  0  0  0  2  0  0  0  0  0  0
  -19.5910  -26.6310   21.4740 C   0  0  0  0  0  2  0  0  0  0  0  0
  -18.2130  -26.7770   22.1280 C   0  0  0  0  0  2  0  0  0  0  0  0
  -19.1790  -28.8630   23.2610 C   0  0  0  0  0  0  0  0  0  0  0  0
  -18.9740  -30.1160   23.8780 C   0  0  0  0  0  3  0  0  0  0  0  0
  -17.6740  -30.6240   24.0640 C   0  0  0  0  0  3  0  0  0  0  0  0
  -16.5610  -29.8750   23.6450 C   0  0  0  0  0  3  0  0  0  0  0  0
  -16.7510  -28.6230   23.0320 C   0  0  0  0  0  3  0  0  0  0  0  0
  -25.8920  -32.5080   23.7940 C   0  0  0  0  0  3  0  0  0  0  0  0
  -26.3990  -31.7360   25.0750 C   0  0  1  0  0  0  0  0  0  0  0  0
  -25.2930  -31.4860   26.1290 C   0  0  0  0  0  1  0  0  0  0  0  0
  -26.9970  -30.3630   24.6880 C   0  0  0  0  0  1  0  0  0  0  0  0
  -27.5380  -32.5330   25.7540 C   0  0  0  0  0  1  0  0  0  0  0  0
  -25.5660  -33.9030   24.1340 N   0  0  0  0  0  0  0  0  0  0  0  0
  -25.8960  -34.9680   23.3900 C   0  0  0  0  0  0  0  0  0  0  0  0
  -26.5740  -34.8800   22.3630 O   0  0  0  0  0  0  0  0  0  0  0  0
  -24.9690  -34.0450   24.9360 H   0  0  0  0  0  0  0  0  0  0  0  0
  -24.1610  -36.7570   23.0460 C   0  0  0  0  0  1  0  0  0  0  0  0
  -25.3980  -36.3480   23.8610 C   0  0  0  0  0  3  0  0  0  0  0  0
  -27.5190  -37.2390   24.7220 C   0  0  0  0  0  1  0  0  0  0  0  0
  -26.4250  -37.4090   23.7700 N   0  0  0  0  0  0  0  0  0  0  0  0
  -26.0110  -38.3250   23.9230 H   0  0  0  0  0  0  0  0  0  0  0  0
  -29.4110  -17.6290   20.7370 C   0  0  0  0  0  2  0  0  0  0  0  0
  -30.4460  -15.0580   20.0750 C   0  0  0  0  0  0  0  0  0  0  0  0
  -30.3380  -12.7230   19.0590 C   0  0  0  0  0  2  0  0  0  0  0  0
  -29.3430  -12.6630   17.8760 C   0  0  0  0  0  2  0  0  0  0  0  0
  -27.9000  -12.4380   18.3700 C   0  0  0  0  0  2  0  0  0  0  0  0
  -27.5400  -13.3370   19.5810 C   0  0  0  0  0  3  0  0  0  0  0  0
  -28.6450  -13.3390   20.6510 C   0  0  0  0  0  2  0  0  0  0  0  0
  -29.8660  -13.7940   19.9750 N   0  0  0  0  0  0  0  0  0  0  0  0
  -31.6710  -15.1260   19.9320 O   0  0  0  0  0  0  0  0  0  0  0  0
  -29.6100  -16.2200   20.0130 N   0  0  0  0  0  0  0  0  0  0  0  0
  -28.7190  -15.9330   19.6400 H   0  0  0  0  0  0  0  0  0  0  0  0
  -25.1920  -13.9010   20.4180 C   0  0  0  0  0  0  0  0  0  0  0  0
  -24.1480  -13.1210   20.8260 C   0  0  0  0  0  0  0  0  0  0  0  0
  -24.6180  -11.7730   20.7730 C   0  0  0  0  0  0  0  0  0  0  0  0
  -26.2290  -13.0300   20.1360 N   0  0  0  0  0  0  0  0  0  0  0  0
  -25.8960  -11.7430   20.4150 N   0  0  0  0  0  0  0  0  0  0  0  0
  -23.9050  -10.5050   20.9810 C   0  0  0  0  0  0  0  0  0  0  0  0
  -24.3600   -9.5460   21.9130 C   0  0  0  0  0  3  0  0  0  0  0  0
  -23.6440   -8.3450   22.1090 C   0  0  0  0  0  3  0  0  0  0  0  0
  -22.4630   -8.0940   21.3730 C   0  0  0  0  0  0  0  0  0  0  0  0
  -22.0270   -9.0410   20.4290 C   0  0  0  0  0  3  0  0  0  0  0  0
  -22.7420  -10.2340   20.2320 C   0  0  0  0  0  3  0  0  0  0  0  0
  -21.7200   -6.9420   21.4760 O   0  0  0  0  0  0  0  0  0  0  0  0
  -21.6780   -6.2160   22.6400 C   0  0  0  0  0  0  0  0  0  0  0  0
  -21.2350   -6.7810   23.8550 C   0  0  0  0  0  3  0  0  0  0  0  0
  -21.1440   -5.9800   25.0110 C   0  0  0  0  0  3  0  0  0  0  0  0
  -21.4860   -4.6150   24.9520 C   0  0  0  0  0  0  0  0  0  0  0  0
  -21.9200   -4.0490   23.7400 C   0  0  0  0  0  3  0  0  0  0  0  0
  -22.0110   -4.8480   22.5860 C   0  0  0  0  0  0  0  0  0  0  0  0
  -22.4120   -4.2940   21.4160 F   0  0  0  0  0  0  0  0  0  0  0  0
  -21.3890   -3.8430   26.0590 F   0  0  0  0  0  0  0  0  0  0  0  0
  -22.7570  -13.5890   21.1460 C   0  0  0  0  0  0  0  0  0  0  0  0
  -22.0650  -12.8830   22.0340 N   0  0  0  0  0  0  0  0  0  0  0  0
  -22.2990  -14.6170   20.6500 O   0  0  0  0  0  0  0  0  0  0  0  0
  -22.4510  -12.0520   22.4590 H   0  0  0  0  0  0  0  0  0  0  0  0
  -21.1360  -13.1780   22.2950 H   0  0  0  0  0  0  0  0  0  0  0  0
  -25.3380  -15.2740   20.2300 N   0  0  0  0  0  0  0  0  0  0  0  0
  -24.5580  -15.9140   20.3340 H   0  0  0  0  0  0  0  0  0  0  0  0
  -26.1430  -15.7070   19.8000 H   0  0  0  0  0  0  0  0  0  0  0  0
  1  3  1  0
  2  1  2  0
  3  7  1  0
  4  5  2  0
  4  2  1  0
  5  6  1  0
  6  3  2  0
  6 53  1  0
  8  5  1  0
 10  9  1  0
 10  4  1  0
 10 11  1  0
 12 14  1  0
 12 11  1  0
 13 24  2  0
 14 19  1  0
 15 23  1  0
 15 25  1  0
 16 22  1  0
 16 18  1  0
 17 23  1  0
 18 19  2  0
 18 17  1  0
 20 14  2  0
 21 20  1  0
 21 16  2  0
 22 15  1  0
 23 13  1  0
 25 27  2  0
 26 25  1  0
 28 26  1  0
 29 38  2  0
 29 34  1  0
 30 26  1  0
 30 34  1  0
 31 30  1  0
 32 33  1  0
 32 31  1  0
 33 29  1  0
 34 35  2  0
 35 36  1  0
 37 36  2  0
 38 37  1  0
 39 13  1  0
 39 44  1  0
 39 40  1  0
 40 43  1  1
 40 41  1  0
 42 40  1  0
 44 47  1  0
 45 49  1  0
 45 44  1  0
 46 45  2  0
 49 48  1  0
 51 49  1  0
 51 52  1  0
 51 50  1  0
 55 60  1  0
 56 57  1  0
 56 55  1  0
 58 57  1  0
 58 67  1  0
 58 59  1  0
 60 54  1  0
 60 59  1  0
 61 54  2  0
 62 54  1  0
 62 53  1  0
 63 62  1  0
 64 65  2  0
 65 84  1  0
 66 65  1  0
 66 69  1  0
 67 68  1  0
 67 64  1  0
 68 66  2  0
 69 70  1  0
 70 71  2  0
 72 75  1  0
 72 71  1  0
 73 72  2  0
 74 73  1  0
 74 69  2  0
 75 76  1  0
 76 77  1  0
 77 78  2  0
 79 78  1  0
 79 83  1  0
 80 79  2  0
 81 76  2  0
 81 80  1  0
 82 81  1  0
 84 85  1  0
 85 88  1  0
 85 87  1  0
 86 84  2  0
 89 90  1  0
 89 64  1  0
 91 89  1  0
M  ISO  4  11 101  12 101  54 100  62 100
M  END
>  <TORSDO>  (91) 
F 19

>  <SCORE>  (91) 
-14.675

>  <name>  (91) 
93

>  <ligand_id>  (91) 
93

>  <original_smiles>  (91) 
[H]c1c([H])c([H])c2c(c1[H])C([H])([H])C([H])([H])C([H])([H])C2([H])N([H])C(=O)C1([H])N(C(=O)C([H])(N([H])C(=O)C([H])(N([H])C([H])([H])[H])C([H])([H])[H])C(C([H])([H])[H])(C([H])([H])[H])C([H])([H])[H])C([H])([H])c2c([H])c(OC([H])([H])C([H])(c3c([H])c([H])c(C([H])([H])[H])c(C([H])([H])N([H])C(=O)N4C([H])([H])C([H])([H])C([H])([H])C([H])(n5nc(-c6c([H])c([H])c(Oc7c([H])c([H])c(F)c([H])c7F)c([H])c6[H])c(C(=O)N([H])[H])c5N([H])[H])C4([H])[H])c3C([H])([H])[H])C([H])([H])[H])c([H])c([H])c2C1([H])[H]

>  <smiles>  (91) 
[H]c1c([H])c([H])c2c(c1[H])C([H])([H])C([H])([H])C([H])([H])C2([H])N([H])C(=O)C1([H])N(C(=O)C([H])(N([H])C(=O)C([H])(N([H])C([H])([H])[H])C([H])([H])[H])C(C([H])([H])[H])(C([H])([H])[H])C([H])([H])[H])C([H])([H])c2c([H])c(OC([H])([H])C([H])(c3c([H])c([H])c(C([H])([H])[H])c(C([H])([H])N([H])C(=O)N4C([H])([H])C([H])([H])C([H])([H])C([H])(n5nc(-c6c([H])c([H])c(Oc7c([H])c([H])c(F)c([H])c7F)c([H])c6[H])c(C(=O)N([H])[H])c5N([H])[H])C4([H])[H])c3C([H])([H])[H])C([H])([H])[H])c([H])c([H])c2C1([H])[H]

$$$$
94:0:0
     RDKit          3D

 98106  0  0  1  0  0  0  0  0999 V2000
  -28.9450  -21.0340   19.8270 C   0  0  0  0  0  0  0  0  0  0  0  0
  -29.0410  -17.6140   19.4340 C   0  0  0  0  0  2  0  0  0  0  0  0
  -30.7990  -18.3690   21.1070 C   0  0  0  0  0  2  0  0  0  0  0  0
  -28.1190  -18.7080   20.0000 C   0  0  0  0  0  2  0  0  0  0  0  0
  -29.7950  -19.4280   21.5850 C   0  0  0  0  0  2  0  0  0  0  0  0
  -30.0950  -17.1440   20.4750 C   0  0  0  0  0  3  0  0  0  0  0  0
  -28.9440  -19.8310   20.4560 N   0  0  0  0  0  0  0  0  0  0  0  0
  -28.1950  -21.2730   18.8710 O   0  0  0  0  0  0  0  0  0  0  0  0
  -31.3880  -21.8340   19.9960 C   0  0  0  0  0  1  0  0  0  0  0  0
  -29.9070  -22.1530   20.2700 C   0  0  0  0  0  3  0  0  0  0  0  0
  -29.5290  -24.6170   20.1600 C   0  0  0  0  0  0  0  0  0  0  0  0
  -29.5220  -23.3990   19.6120 N   0  0  0  0  0  0  0  0  0  0  0  0
  -29.9920  -24.8380   21.2820 O   0  0  0  0  0  0  0  0  0  0  0  0
  -29.0940  -23.2790   18.7010 H   0  0  0  0  0  0  0  0  0  0  0  0
  -28.8990  -25.7410   19.3290 C   0  0  0  0  0  2  0  0  0  0  0  0
  -28.5720  -26.8280   20.1970 O   0  0  0  0  0  0  0  0  0  0  0  0
  -24.5740  -31.8290   23.2220 C   0  0  0  0  0  0  0  0  0  0  0  0
  -27.3460  -27.4580   20.1550 C   0  0  0  0  0  0  0  0  0  0  0  0
  -23.4240  -30.4360   21.5320 C   0  0  0  0  0  3  0  0  0  0  0  0
  -24.9250  -28.9240   20.1370 C   0  0  0  0  0  0  0  0  0  0  0  0
  -25.9480  -30.8170   21.4100 C   0  0  0  0  0  2  0  0  0  0  0  0
  -26.0590  -29.4540   20.7610 C   0  0  0  0  0  0  0  0  0  0  0  0
  -27.2660  -28.7240   20.7740 C   0  0  0  0  0  3  0  0  0  0  0  0
  -26.1830  -26.9290   19.5410 C   0  0  0  0  0  3  0  0  0  0  0  0
  -24.9800  -27.6580   19.5310 C   0  0  0  0  0  3  0  0  0  0  0  0
  -23.6750  -29.7710   20.1530 C   0  0  0  0  0  2  0  0  0  0  0  0
  -24.6650  -31.0410   22.1150 N   0  0  0  0  0  0  0  0  0  0  0  0
  -23.4760  -32.0900   23.7330 O   0  0  0  0  0  0  0  0  0  0  0  0
  -22.7530  -29.4030   22.4630 C   0  0  0  0  0  0  0  0  0  0  0  0
  -21.4310  -29.2250   22.3050 N   0  0  0  0  0  0  0  0  0  0  0  0
  -23.4180  -28.7620   23.2810 O   0  0  0  0  0  0  0  0  0  0  0  0
  -20.9560  -29.7940   21.6190 H   0  0  0  0  0  0  0  0  0  0  0  0
  -18.0380  -28.0640   22.7380 C   0  0  0  0  0  0  0  0  0  0  0  0
  -20.5950  -28.2790   23.0420 C   0  0  0  0  0  3  0  0  0  0  0  0
  -20.6860  -26.8610   22.4300 C   0  0  0  0  0  2  0  0  0  0  0  0
  -19.5900  -26.5810   21.3970 C   0  0  0  0  0  2  0  0  0  0  0  0
  -18.2030  -26.7290   22.0300 C   0  0  0  0  0  2  0  0  0  0  0  0
  -19.1630  -28.7990   23.1990 C   0  0  0  0  0  0  0  0  0  0  0  0
  -18.9550  -30.0510   23.8180 C   0  0  0  0  0  3  0  0  0  0  0  0
  -17.6570  -30.5650   23.9830 C   0  0  0  0  0  3  0  0  0  0  0  0
  -16.5460  -29.8270   23.5380 C   0  0  0  0  0  3  0  0  0  0  0  0
  -16.7390  -28.5780   22.9210 C   0  0  0  0  0  3  0  0  0  0  0  0
  -25.8400  -32.4600   23.8840 C   0  0  0  0  0  3  0  0  0  0  0  0
  -25.5240  -33.8620   24.1920 N   0  0  0  0  0  0  0  0  0  0  0  0
  -25.8830  -34.9060   23.4330 C   0  0  0  0  0  0  0  0  0  0  0  0
  -26.5860  -34.7900   22.4250 O   0  0  0  0  0  0  0  0  0  0  0  0
  -24.9040  -34.0250   24.9720 H   0  0  0  0  0  0  0  0  0  0  0  0
  -24.1760  -36.7000   22.9970 C   0  0  0  0  0  1  0  0  0  0  0  0
  -25.3830  -36.2980   23.8600 C   0  0  0  0  0  3  0  0  0  0  0  0
  -27.4860  -37.1810   24.7720 C   0  0  0  0  0  1  0  0  0  0  0  0
  -26.4220  -37.3470   23.7830 N   0  0  0  0  0  0  0  0  0  0  0  0
  -26.0120  -38.2680   23.9150 H   0  0  0  0  0  0  0  0  0  0  0  0
  -26.3100  -31.6940   25.1820 C   0  0  1  0  0  0  0  0  0  0  0  0
  -25.1760  -31.4490   26.2050 C   0  0  0  0  0  1  0  0  0  0  0  0
  -26.9170  -30.3190   24.8160 C   0  0  0  0  0  1  0  0  0  0  0  0
  -27.4280  -32.4950   25.8900 C   0  0  0  0  0  1  0  0  0  0  0  0
  -31.1150  -16.1540   19.8510 C   0  0  0  0  0  3  0  0  0  0  0  0
  -30.7260  -13.9610   18.7610 C   0  0  0  0  0  0  0  0  0  0  0  0
  -30.1660  -11.7340   17.8690 C   0  0  0  0  0  2  0  0  0  0  0  0
  -28.9890  -11.8030   16.8790 C   0  0  0  0  0  2  0  0  0  0  0  0
  -27.6440  -11.7130   17.6240 C   0  0  0  0  0  2  0  0  0  0  0  0
  -27.5560  -12.7070   18.8110 C   0  0  0  0  0  3  0  0  0  0  0  0
  -28.8160  -12.6080   19.7000 C   0  0  0  0  0  2  0  0  0  0  0  0
  -30.0100  -12.8120   18.8560 N   0  0  0  0  0  0  0  0  0  0  0  0
  -31.5510  -14.1760   17.8680 O   0  0  0  0  0  0  0  0  0  0  0  0
  -30.4890  -14.8450   19.7260 N   0  0  0  0  0  0  0  0  0  0  0  0
  -29.9180  -14.5560   20.5050 H   0  0  0  0  0  0  0  0  0  0  0  0
  -25.4320  -13.4330   20.0770 C   0  0  0  0  0  0  0  0  0  0  0  0
  -24.4300  -12.7110   20.6700 C   0  0  0  0  0  0  0  0  0  0  0  0
  -24.7780  -11.3360   20.4970 C   0  0  0  0  0  0  0  0  0  0  0  0
  -26.3340  -12.5000   19.5860 N   0  0  0  0  0  0  0  0  0  0  0  0
  -25.9530  -11.2320   19.8890 N   0  0  0  0  0  0  0  0  0  0  0  0
  -24.0340  -10.1130   20.8230 C   0  0  0  0  0  0  0  0  0  0  0  0
  -24.5290   -9.1720   21.7540 C   0  0  0  0  0  3  0  0  0  0  0  0
  -23.7890   -8.0110   22.0640 C   0  0  0  0  0  3  0  0  0  0  0  0
  -22.5380   -7.7820   21.4440 C   0  0  0  0  0  0  0  0  0  0  0  0
  -22.0580   -8.7100   20.5030 C   0  0  0  0  0  3  0  0  0  0  0  0
  -22.7980   -9.8630   20.1920 C   0  0  0  0  0  3  0  0  0  0  0  0
  -21.7600   -6.6710   21.6650 O   0  0  0  0  0  0  0  0  0  0  0  0
  -21.7170   -6.0530   22.8880 C   0  0  0  0  0  0  0  0  0  0  0  0
  -21.2970   -6.7330   24.0510 C   0  0  0  0  0  3  0  0  0  0  0  0
  -21.2010   -6.0410   25.2750 C   0  0  0  0  0  3  0  0  0  0  0  0
  -21.5160   -4.6710   25.3370 C   0  0  0  0  0  0  0  0  0  0  0  0
  -21.9300   -3.9910   24.1780 C   0  0  0  0  0  3  0  0  0  0  0  0
  -22.0280   -4.6800   22.9570 C   0  0  0  0  0  0  0  0  0  0  0  0
  -22.4080   -4.0150   21.8400 F   0  0  0  0  0  0  0  0  0  0  0  0
  -21.4160   -4.0050   26.5110 F   0  0  0  0  0  0  0  0  0  0  0  0
  -23.1720  -13.2600   21.2790 C   0  0  0  0  0  0  0  0  0  0  0  0
  -22.6300  -12.5840   22.2860 N   0  0  0  0  0  0  0  0  0  0  0  0
  -22.6850  -14.3210   20.8940 O   0  0  0  0  0  0  0  0  0  0  0  0
  -23.0380  -11.7220   22.6170 H   0  0  0  0  0  0  0  0  0  0  0  0
  -21.7960  -12.9350   22.7330 H   0  0  0  0  0  0  0  0  0  0  0  0
  -25.6420  -14.7970   19.8990 N   0  0  0  0  0  0  0  0  0  0  0  0
  -24.9710  -15.4930   20.2050 H   0  0  0  0  0  0  0  0  0  0  0  0
  -26.4290  -15.1950   19.4030 H   0  0  0  0  0  0  0  0  0  0  0  0
  -32.3600  -15.9400   20.7220 C   0  0  0  0  0  0  0  0  0  0  0  0
  -32.2310  -15.3390   21.8100 O   0  0  0  0  0  1  0  0  0  0  0  0
  -33.4640  -16.3230   20.2890 O   0  0  0  0  0  0  0  0  0  0  0  0
  1 10  1  0
  1  7  1  0
  2  4  1  0
  2  6  1  0
  3  5  1  0
  4  7  1  0
  6 57  1  0
  6  3  1  0
  7  5  1  0
  8  1  2  0
 10  9  1  0
 11 13  2  0
 12 11  1  0
 12 10  1  0
 14 12  1  0
 15 11  1  0
 15 16  1  0
 17 28  2  0
 18 16  1  0
 18 23  1  0
 19 27  1  0
 19 29  1  0
 20 26  1  0
 20 22  1  0
 21 27  1  0
 22 23  2  0
 22 21  1  0
 24 18  2  0
 25 24  1  0
 25 20  2  0
 26 19  1  0
 27 17  1  0
 29 31  2  0
 30 29  1  0
 32 30  1  0
 33 42  2  0
 33 38  1  0
 34 30  1  0
 34 38  1  0
 35 34  1  0
 36 37  1  0
 36 35  1  0
 37 33  1  0
 38 39  2  0
 39 40  1  0
 41 40  2  0
 42 41  1  0
 43 17  1  0
 43 44  1  0
 43 53  1  0
 44 47  1  0
 45 49  1  0
 45 44  1  0
 46 45  2  0
 49 48  1  0
 51 49  1  0
 51 52  1  0
 51 50  1  0
 53 56  1  1
 53 54  1  0
 55 53  1  0
 57 96  1  0
 58 64  1  0
 58 66  1  0
 59 64  1  0
 60 61  1  0
 60 59  1  0
 62 61  1  0
 62 71  1  0
 62 63  1  0
 64 63  1  0
 65 58  2  0
 66 57  1  0
 66 67  1  0
 68 69  2  0
 69 88  1  0
 70 69  1  0
 70 73  1  0
 71 72  1  0
 71 68  1  0
 72 70  2  0
 73 74  1  0
 74 75  2  0
 76 79  1  0
 76 75  1  0
 77 76  2  0
 78 77  1  0
 78 73  2  0
 79 80  1  0
 80 85  2  0
 80 81  1  0
 81 82  2  0
 82 83  1  0
 83 87  1  0
 84 83  2  0
 85 84  1  0
 86 85  1  0
 88 89  1  0
 89 91  1  0
 89 92  1  0
 90 88  2  0
 93 68  1  0
 93 94  1  0
 95 93  1  0
 96 97  1  0
 98 96  2  0
M  ISO  4  15 101  16 101  58 100  66 100
M  END
>  <TORSDO>  (92) 
F 21

>  <SCORE>  (92) 
-9.666

>  <name>  (92) 
94

>  <ligand_id>  (92) 
94

>  <original_smiles>  (92) 
[H]c1c([H])c([H])c2c(c1[H])C([H])([H])C([H])([H])C([H])([H])C2([H])N([H])C(=O)C1([H])N(C(=O)C([H])(N([H])C(=O)C([H])(N([H])C([H])([H])[H])C([H])([H])[H])C(C([H])([H])[H])(C([H])([H])[H])C([H])([H])[H])C([H])([H])c2c([H])c(OC([H])([H])C(=O)N([H])C([H])(C(=O)N3C([H])([H])C([H])([H])C([H])(C([H])(C(=O)[O-])N([H])C(=O)N4C([H])([H])C([H])([H])C([H])([H])C([H])(n5nc(-c6c([H])c([H])c(Oc7c([H])c([H])c(F)c([H])c7F)c([H])c6[H])c(C(=O)N([H])[H])c5N([H])[H])C4([H])[H])C([H])([H])C3([H])[H])C([H])([H])[H])c([H])c([H])c2C1([H])[H]

>  <smiles>  (92) 
[H]c1c([H])c([H])c2c(c1[H])C([H])([H])C([H])([H])C([H])([H])C2([H])N([H])C(=O)C1([H])N(C(=O)C([H])(N([H])C(=O)C([H])(N([H])C([H])([H])[H])C([H])([H])[H])C(C([H])([H])[H])(C([H])([H])[H])C([H])([H])[H])C([H])([H])c2c([H])c(OC([H])([H])C(=O)N([H])C([H])(C(=O)N3C([H])([H])C([H])([H])C([H])(C([H])(C(=O)[O-])N([H])C(=O)N4C([H])([H])C([H])([H])C([H])([H])C([H])(n5nc(-c6c([H])c([H])c(Oc7c([H])c([H])c(F)c([H])c7F)c([H])c6[H])c(C(=O)N([H])[H])c5N([H])[H])C4([H])[H])C([H])([H])C3([H])[H])C([H])([H])[H])c([H])c([H])c2C1([H])[H]

$$$$
95:0:0
     RDKit          3D

 97105  0  0  1  0  0  0  0  0999 V2000
  -30.2380  -19.1420   22.4420 C   0  0  0  0  0  3  0  0  0  0  0  0
  -30.5950  -17.7670   22.3750 C   0  0  0  0  0  3  0  0  0  0  0  0
  -29.4350  -19.0210   20.1700 C   0  0  0  0  0  3  0  0  0  0  0  0
  -29.7600  -17.6390   20.0880 C   0  0  0  0  0  0  0  0  0  0  0  0
  -29.5950  -19.7760   21.3530 C   0  0  0  0  0  0  0  0  0  0  0  0
  -30.3370  -16.9750   21.2220 C   0  0  0  0  0  0  0  0  0  0  0  0
  -31.0430  -14.6220   20.5590 C   0  0  0  0  0  0  0  0  0  0  0  0
  -30.7560  -12.4640   19.3670 C   0  0  0  0  0  2  0  0  0  0  0  0
  -29.8310  -12.6480   18.1440 C   0  0  0  0  0  2  0  0  0  0  0  0
  -28.3480  -12.5340   18.5410 C   0  0  0  0  0  2  0  0  0  0  0  0
  -27.9940  -13.3760   19.7960 C   0  0  0  0  0  3  0  0  0  0  0  0
  -29.0240  -13.1380   20.9260 C   0  0  0  0  0  2  0  0  0  0  0  0
  -30.3700  -13.4430   20.4000 N   0  0  0  0  0  0  0  0  0  0  0  0
  -32.1230  -14.8530   20.0070 O   0  0  0  0  0  0  0  0  0  0  0  0
  -30.4440  -15.5360   21.3640 N   0  0  0  0  0  0  0  0  0  0  0  0
  -29.7610  -15.1240   21.9820 H   0  0  0  0  0  0  0  0  0  0  0  0
  -25.5870  -14.0130   20.4400 C   0  0  0  0  0  0  0  0  0  0  0  0
  -24.5030  -13.2560   20.7950 C   0  0  0  0  0  0  0  0  0  0  0  0
  -24.9510  -11.9000   20.7890 C   0  0  0  0  0  0  0  0  0  0  0  0
  -26.6260  -13.1170   20.2420 N   0  0  0  0  0  0  0  0  0  0  0  0
  -26.2470  -11.8420   20.5100 N   0  0  0  0  0  0  0  0  0  0  0  0
  -24.2080  -10.6500   20.9770 C   0  0  0  0  0  0  0  0  0  0  0  0
  -24.6100   -9.6930   21.9320 C   0  0  0  0  0  3  0  0  0  0  0  0
  -23.8710   -8.5040   22.1060 C   0  0  0  0  0  3  0  0  0  0  0  0
  -22.7170   -8.2650   21.3220 C   0  0  0  0  0  0  0  0  0  0  0  0
  -22.3330   -9.2120   20.3550 C   0  0  0  0  0  3  0  0  0  0  0  0
  -23.0730  -10.3930   20.1810 C   0  0  0  0  0  3  0  0  0  0  0  0
  -21.9480   -7.1300   21.4090 O   0  0  0  0  0  0  0  0  0  0  0  0
  -21.8520   -6.4120   22.5740 C   0  0  0  0  0  0  0  0  0  0  0  0
  -21.3740   -6.9910   23.7700 C   0  0  0  0  0  3  0  0  0  0  0  0
  -21.2210   -6.1950   24.9230 C   0  0  0  0  0  3  0  0  0  0  0  0
  -21.5380   -4.8240   24.8830 C   0  0  0  0  0  0  0  0  0  0  0  0
  -22.0100   -4.2460   23.6920 C   0  0  0  0  0  3  0  0  0  0  0  0
  -22.1650   -5.0380   22.5400 C   0  0  0  0  0  0  0  0  0  0  0  0
  -22.5990   -4.4700   21.3900 F   0  0  0  0  0  0  0  0  0  0  0  0
  -21.3890   -4.0590   25.9900 F   0  0  0  0  0  0  0  0  0  0  0  0
  -23.1070  -13.7530   21.0370 C   0  0  0  0  0  0  0  0  0  0  0  0
  -22.3610  -13.0830   21.9060 N   0  0  0  0  0  0  0  0  0  0  0  0
  -22.6830  -14.7740   20.4960 O   0  0  0  0  0  0  0  0  0  0  0  0
  -22.7140  -12.2610   22.3750 H   0  0  0  0  0  0  0  0  0  0  0  0
  -21.4250  -13.4010   22.1110 H   0  0  0  0  0  0  0  0  0  0  0  0
  -25.7690  -15.3790   20.2570 N   0  0  0  0  0  0  0  0  0  0  0  0
  -25.0080  -16.0440   20.3440 H   0  0  0  0  0  0  0  0  0  0  0  0
  -26.6420  -15.8030   19.9760 H   0  0  0  0  0  0  0  0  0  0  0  0
  -29.4000  -16.9340   18.8050 C   0  0  0  0  0  0  0  0  0  0  0  0
  -28.1750  -17.1620   18.3490 N   0  0  0  0  0  0  0  0  0  0  0  0
  -30.1720  -16.1850   18.2170 O   0  0  0  0  0  0  0  0  0  0  0  0
  -27.5750  -17.8150   18.8270 H   0  0  0  0  0  0  0  0  0  0  0  0
  -27.8560  -16.7110   17.5040 H   0  0  0  0  0  0  0  0  0  0  0  0
  -28.8290  -21.1160   21.5020 C   0  0  0  0  0  2  0  0  0  0  0  0
  -29.0810  -23.5270   20.8700 C   0  0  0  0  0  0  0  0  0  0  0  0
  -29.5210  -22.4300   21.5500 N   0  0  0  0  0  0  0  0  0  0  0  0
  -28.7200  -23.4430   19.6950 O   0  0  0  0  0  0  0  0  0  0  0  0
  -29.9870  -22.6100   22.4290 H   0  0  0  0  0  0  0  0  0  0  0  0
  -28.8490  -24.8650   21.6430 C   0  0  0  0  0  2  0  0  0  0  0  0
  -29.4080  -26.2230   21.0810 C   0  0  0  0  0  2  0  0  0  0  0  0
  -28.7370  -26.8140   19.9500 O   0  0  0  0  0  0  0  0  0  0  0  0
  -24.6800  -31.8380   23.1960 C   0  0  0  0  0  0  0  0  0  0  0  0
  -27.5640  -27.5320   20.1020 C   0  0  0  0  0  0  0  0  0  0  0  0
  -23.5660  -30.4280   21.4990 C   0  0  0  0  0  3  0  0  0  0  0  0
  -25.1110  -28.9640   20.0920 C   0  0  0  0  0  0  0  0  0  0  0  0
  -26.0840  -30.8720   21.3740 C   0  0  0  0  0  2  0  0  0  0  0  0
  -26.2370  -29.5100   20.7210 C   0  0  0  0  0  0  0  0  0  0  0  0
  -27.4710  -28.8010   20.7290 C   0  0  0  0  0  3  0  0  0  0  0  0
  -26.4190  -27.0090   19.4730 C   0  0  0  0  0  3  0  0  0  0  0  0
  -25.1950  -27.7050   19.4740 C   0  0  0  0  0  3  0  0  0  0  0  0
  -23.8340  -29.7800   20.1180 C   0  0  0  0  0  2  0  0  0  0  0  0
  -24.7930  -31.0640   22.0800 N   0  0  0  0  0  0  0  0  0  0  0  0
  -23.5780  -32.0550   23.7170 O   0  0  0  0  0  0  0  0  0  0  0  0
  -22.9270  -29.3680   22.4260 C   0  0  0  0  0  0  0  0  0  0  0  0
  -21.6060  -29.1680   22.2940 N   0  0  0  0  0  0  0  0  0  0  0  0
  -23.6220  -28.7270   23.2190 O   0  0  0  0  0  0  0  0  0  0  0  0
  -21.1060  -29.7260   21.6160 H   0  0  0  0  0  0  0  0  0  0  0  0
  -18.2500  -27.9250   22.8170 C   0  0  0  0  0  0  0  0  0  0  0  0
  -20.8090  -28.1930   23.0410 C   0  0  0  0  0  3  0  0  0  0  0  0
  -20.9100  -26.7870   22.4050 C   0  0  0  0  0  2  0  0  0  0  0  0
  -19.7870  -26.4840   21.4080 C   0  0  0  0  0  2  0  0  0  0  0  0
  -18.4180  -26.6050   22.0850 C   0  0  0  0  0  2  0  0  0  0  0  0
  -19.3720  -28.6800   23.2510 C   0  0  0  0  0  0  0  0  0  0  0  0
  -19.1560  -29.9200   23.8920 C   0  0  0  0  0  3  0  0  0  0  0  0
  -17.8510  -30.4020   24.1070 C   0  0  0  0  0  3  0  0  0  0  0  0
  -16.7440  -29.6400   23.6960 C   0  0  0  0  0  3  0  0  0  0  0  0
  -16.9450  -28.4030   23.0580 C   0  0  0  0  0  3  0  0  0  0  0  0
  -25.9250  -32.5060   23.8530 C   0  0  0  0  0  3  0  0  0  0  0  0
  -25.5640  -33.8940   24.1740 N   0  0  0  0  0  0  0  0  0  0  0  0
  -25.8870  -34.9560   23.4240 C   0  0  0  0  0  0  0  0  0  0  0  0
  -26.5860  -34.8730   22.4100 O   0  0  0  0  0  0  0  0  0  0  0  0
  -24.9420  -34.0270   24.9570 H   0  0  0  0  0  0  0  0  0  0  0  0
  -24.1110  -36.6940   23.0260 C   0  0  0  0  0  1  0  0  0  0  0  0
  -25.3460  -36.3310   23.8650 C   0  0  0  0  0  3  0  0  0  0  0  0
  -27.4330  -37.2860   24.7400 C   0  0  0  0  0  1  0  0  0  0  0  0
  -26.3470  -37.4150   23.7720 N   0  0  0  0  0  0  0  0  0  0  0  0
  -25.9090  -38.3230   23.9040 H   0  0  0  0  0  0  0  0  0  0  0  0
  -26.4290  -31.7480   25.1430 C   0  0  1  0  0  0  0  0  0  0  0  0
  -25.3160  -31.4740   26.1800 C   0  0  0  0  0  1  0  0  0  0  0  0
  -27.0630  -30.3890   24.7650 C   0  0  0  0  0  1  0  0  0  0  0  0
  -27.5360  -32.5740   25.8370 C   0  0  0  0  0  1  0  0  0  0  0  0
  2  1  1  0
  3  5  1  0
  4  3  2  0
  4  6  1  0
  5 50  1  0
  5  1  2  0
  6 15  1  0
  6  2  2  0
  7 15  1  0
  8 13  1  0
  9 10  1  0
  9  8  1  0
 11 10  1  0
 11 20  1  0
 11 12  1  0
 13  7  1  0
 13 12  1  0
 14  7  2  0
 15 16  1  0
 17 18  2  0
 18 37  1  0
 19 18  1  0
 19 22  1  0
 20 17  1  0
 20 21  1  0
 21 19  2  0
 22 23  1  0
 23 24  2  0
 25 28  1  0
 25 24  1  0
 26 25  2  0
 27 26  1  0
 27 22  2  0
 28 29  1  0
 29 30  1  0
 30 31  2  0
 32 31  1  0
 32 36  1  0
 33 32  2  0
 34 29  2  0
 34 33  1  0
 35 34  1  0
 37 38  1  0
 38 41  1  0
 38 40  1  0
 39 37  2  0
 42 43  1  0
 42 17  1  0
 44 42  1  0
 45  4  1  0
 46 45  1  0
 46 48  1  0
 47 45  2  0
 49 46  1  0
 50 52  1  0
 51 52  1  0
 51 55  1  0
 52 54  1  0
 53 51  2  0
 56 55  1  0
 57 59  1  0
 57 56  1  0
 58 69  2  0
 59 64  1  0
 60 68  1  0
 60 70  1  0
 61 67  1  0
 61 63  1  0
 62 68  1  0
 63 64  2  0
 63 62  1  0
 65 66  1  0
 65 59  2  0
 66 61  2  0
 67 60  1  0
 68 58  1  0
 70 72  2  0
 71 70  1  0
 73 71  1  0
 74 83  2  0
 74 79  1  0
 75 71  1  0
 75 79  1  0
 76 75  1  0
 77 78  1  0
 77 76  1  0
 78 74  1  0
 79 80  2  0
 80 81  1  0
 82 81  2  0
 83 82  1  0
 84 58  1  0
 84 85  1  0
 84 94  1  0
 85 88  1  0
 86 90  1  0
 86 85  1  0
 87 86  2  0
 90 89  1  0
 92 90  1  0
 92 93  1  0
 92 91  1  0
 94 97  1  1
 94 95  1  0
 96 94  1  0
M  ISO  4   7 100  15 100  56 101  57 101
M  END
>  <TORSDO>  (93) 
F 21

>  <SCORE>  (93) 
-12.495

>  <name>  (93) 
95

>  <ligand_id>  (93) 
95

>  <original_smiles>  (93) 
[H]c1c([H])c([H])c2c(c1[H])C([H])([H])C([H])([H])C([H])([H])C2([H])N([H])C(=O)C1([H])N(C(=O)C([H])(N([H])C(=O)C([H])(N([H])C([H])([H])[H])C([H])([H])[H])C(C([H])([H])[H])(C([H])([H])[H])C([H])([H])[H])C([H])([H])c2c([H])c(OC([H])([H])C([H])([H])C(=O)N([H])C([H])([H])c3c([H])c([H])c(N([H])C(=O)N4C([H])([H])C([H])([H])C([H])([H])C([H])(n5nc(-c6c([H])c([H])c(Oc7c([H])c([H])c(F)c([H])c7F)c([H])c6[H])c(C(=O)N([H])[H])c5N([H])[H])C4([H])[H])c(C(=O)N([H])[H])c3[H])c([H])c([H])c2C1([H])[H]

>  <smiles>  (93) 
[H]c1c([H])c([H])c2c(c1[H])C([H])([H])C([H])([H])C([H])([H])C2([H])N([H])C(=O)C1([H])N(C(=O)C([H])(N([H])C(=O)C([H])(N([H])C([H])([H])[H])C([H])([H])[H])C(C([H])([H])[H])(C([H])([H])[H])C([H])([H])[H])C([H])([H])c2c([H])c(OC([H])([H])C([H])([H])C(=O)N([H])C([H])([H])c3c([H])c([H])c(N([H])C(=O)N4C([H])([H])C([H])([H])C([H])([H])C([H])(n5nc(-c6c([H])c([H])c(Oc7c([H])c([H])c(F)c([H])c7F)c([H])c6[H])c(C(=O)N([H])[H])c5N([H])[H])C4([H])[H])c(C(=O)N([H])[H])c3[H])c([H])c([H])c2C1([H])[H]

$$$$
96:0:0
     RDKit          3D

 96104  0  0  1  0  0  0  0  0999 V2000
  -28.2570  -19.1640   19.4620 C   0  0  0  0  0  3  0  0  0  0  0  0
  -28.0730  -16.7230   19.6350 C   0  0  0  0  0  3  0  0  0  0  0  0
  -30.2590  -17.7870   19.6970 C   0  0  0  0  0  3  0  0  0  0  0  0
  -27.4630  -17.9980   19.4980 C   0  0  0  0  0  0  0  0  0  0  0  0
  -29.6630  -19.1130   19.5430 C   0  0  0  0  0  0  0  0  0  0  0  0
  -29.4740  -16.5610   19.7640 C   0  0  0  0  0  0  0  0  0  0  0  0
  -30.9860  -14.3760   20.1260 C   0  0  0  0  0  0  0  0  0  0  0  0
  -31.3270  -11.9150   19.8040 C   0  0  0  0  0  2  0  0  0  0  0  0
  -30.4990  -11.4570   18.5790 C   0  0  0  0  0  2  0  0  0  0  0  0
  -29.0410  -11.1470   18.9820 C   0  0  0  0  0  2  0  0  0  0  0  0
  -28.4100  -12.2610   19.8560 C   0  0  0  0  0  3  0  0  0  0  0  0
  -29.3610  -12.6620   21.0060 C   0  0  0  0  0  2  0  0  0  0  0  0
  -30.6270  -13.0750   20.3900 N   0  0  0  0  0  0  0  0  0  0  0  0
  -32.1720  -14.6810   19.9680 O   0  0  0  0  0  0  0  0  0  0  0  0
  -29.9490  -15.1580   19.6290 N   0  0  0  0  0  0  0  0  0  0  0  0
  -29.1670  -14.5370   19.5070 H   0  0  0  0  0  0  0  0  0  0  0  0
  -25.9380  -12.6830   20.4010 C   0  0  0  0  0  0  0  0  0  0  0  0
  -24.9470  -11.8570   20.8550 C   0  0  0  0  0  0  0  0  0  0  0  0
  -25.5580  -10.5810   21.0580 C   0  0  0  0  0  0  0  0  0  0  0  0
  -27.0830  -11.9020   20.3420 N   0  0  0  0  0  0  0  0  0  0  0  0
  -26.8590  -10.6460   20.8040 N   0  0  0  0  0  0  0  0  0  0  0  0
  -24.9690   -9.2870   21.4190 C   0  0  0  0  0  0  0  0  0  0  0  0
  -25.0630   -8.7730   22.7310 C   0  0  0  0  0  3  0  0  0  0  0  0
  -24.4710   -7.5350   23.0600 C   0  0  0  0  0  3  0  0  0  0  0  0
  -23.7700   -6.8010   22.0740 C   0  0  0  0  0  0  0  0  0  0  0  0
  -23.7010   -7.3030   20.7630 C   0  0  0  0  0  3  0  0  0  0  0  0
  -24.2970   -8.5320   20.4360 C   0  0  0  0  0  3  0  0  0  0  0  0
  -23.1880   -5.5760   22.2950 O   0  0  0  0  0  0  0  0  0  0  0  0
  -22.1150   -5.4330   23.1390 C   0  0  0  0  0  0  0  0  0  0  0  0
  -20.9160   -6.1540   22.9500 C   0  0  0  0  0  3  0  0  0  0  0  0
  -19.8160   -5.9240   23.7990 C   0  0  0  0  0  3  0  0  0  0  0  0
  -19.9100   -4.9710   24.8310 C   0  0  0  0  0  0  0  0  0  0  0  0
  -21.1010   -4.2490   25.0170 C   0  0  0  0  0  3  0  0  0  0  0  0
  -22.2010   -4.4780   24.1710 C   0  0  0  0  0  0  0  0  0  0  0  0
  -23.3400   -3.7660   24.3420 F   0  0  0  0  0  0  0  0  0  0  0  0
  -18.8510   -4.7440   25.6440 F   0  0  0  0  0  0  0  0  0  0  0  0
  -23.4920  -12.1990   20.9920 C   0  0  0  0  0  0  0  0  0  0  0  0
  -22.8080  -11.5820   21.9490 N   0  0  0  0  0  0  0  0  0  0  0  0
  -22.9650  -13.0520   20.2790 O   0  0  0  0  0  0  0  0  0  0  0  0
  -23.2440  -10.8890   22.5380 H   0  0  0  0  0  0  0  0  0  0  0  0
  -21.8320  -11.8020   22.0930 H   0  0  0  0  0  0  0  0  0  0  0  0
  -25.9590  -14.0180   20.0090 N   0  0  0  0  0  0  0  0  0  0  0  0
  -25.1170  -14.5820   19.9980 H   0  0  0  0  0  0  0  0  0  0  0  0
  -26.7520  -14.4880   19.5950 H   0  0  0  0  0  0  0  0  0  0  0  0
  -25.9790  -18.1290   19.2960 C   0  0  0  0  0  0  0  0  0  0  0  0
  -25.1980  -17.5040   20.1650 N   0  0  0  0  0  0  0  0  0  0  0  0
  -25.5130  -18.8320   18.4000 O   0  0  0  0  0  0  0  0  0  0  0  0
  -25.6010  -16.9720   20.9200 H   0  0  0  0  0  0  0  0  0  0  0  0
  -24.1950  -17.5780   20.0840 H   0  0  0  0  0  0  0  0  0  0  0  0
  -30.4570  -20.4940   19.4680 C   0  0  0  0  0  2  0  0  0  0  0  0
  -30.2700  -23.1210   19.7550 C   0  0  0  0  0  0  0  0  0  0  0  0
  -29.7670  -21.8250   19.7790 N   0  0  0  0  0  0  0  0  0  0  0  0
  -31.4540  -23.3220   19.4730 O   0  0  0  0  0  0  0  0  0  0  0  0
  -28.7770  -21.7500   19.9720 H   0  0  0  0  0  0  0  0  0  0  0  0
  -29.3420  -24.3820   20.1050 C   0  0  0  0  0  2  0  0  0  0  0  0
  -29.7490  -25.7600   19.6310 O   0  0  0  0  0  0  0  0  0  0  0  0
  -27.2350  -30.7400   24.3150 C   0  0  0  0  0  0  0  0  0  0  0  0
  -28.8730  -26.8370   19.9160 C   0  0  0  0  0  0  0  0  0  0  0  0
  -25.7970  -30.1780   22.3900 C   0  0  0  0  0  3  0  0  0  0  0  0
  -26.9190  -28.8650   20.5010 C   0  0  0  0  0  0  0  0  0  0  0  0
  -28.3500  -29.9960   22.1940 C   0  0  0  0  0  2  0  0  0  0  0  0
  -28.1530  -28.8860   21.1640 C   0  0  0  0  0  0  0  0  0  0  0  0
  -29.1370  -27.8860   20.8650 C   0  0  0  0  0  3  0  0  0  0  0  0
  -27.6370  -26.9070   19.2400 C   0  0  0  0  0  3  0  0  0  0  0  0
  -26.6680  -27.8850   19.5300 C   0  0  0  0  0  3  0  0  0  0  0  0
  -25.8930  -29.9230   20.8650 C   0  0  0  0  0  2  0  0  0  0  0  0
  -27.1490  -30.3000   23.0260 N   0  0  0  0  0  0  0  0  0  0  0  0
  -26.2230  -31.0590   24.9580 O   0  0  0  0  0  0  0  0  0  0  0  0
  -24.9190  -29.0770   23.0330 C   0  0  0  0  0  0  0  0  0  0  0  0
  -23.6300  -29.0240   22.6510 N   0  0  0  0  0  0  0  0  0  0  0  0
  -25.4060  -28.2790   23.8390 O   0  0  0  0  0  0  0  0  0  0  0  0
  -23.3030  -29.7120   21.9880 H   0  0  0  0  0  0  0  0  0  0  0  0
  -20.1340  -28.1200   22.4700 C   0  0  0  0  0  0  0  0  0  0  0  0
  -22.6400  -28.0440   23.1000 C   0  0  0  0  0  3  0  0  0  0  0  0
  -22.7070  -26.7560   22.2460 C   0  0  0  0  0  2  0  0  0  0  0  0
  -21.7380  -26.7660   21.0600 C   0  0  0  0  0  2  0  0  0  0  0  0
  -20.2950  -26.9240   21.5460 C   0  0  0  0  0  2  0  0  0  0  0  0
  -21.2360  -28.6560   23.1870 C   0  0  0  0  0  0  0  0  0  0  0  0
  -21.0350  -29.7900   24.0050 C   0  0  0  0  0  3  0  0  0  0  0  0
  -19.7610  -30.3820   24.1140 C   0  0  0  0  0  3  0  0  0  0  0  0
  -18.6710  -29.8370   23.4150 C   0  0  0  0  0  3  0  0  0  0  0  0
  -18.8580  -28.7100   22.5980 C   0  0  0  0  0  3  0  0  0  0  0  0
  -28.6100  -30.8830   25.0380 C   0  0  0  0  0  3  0  0  0  0  0  0
  -28.9210  -29.6880   26.0200 C   0  0  1  0  0  0  0  0  0  0  0  0
  -27.7730  -29.3780   27.0100 C   0  0  0  0  0  1  0  0  0  0  0  0
  -29.2200  -28.3930   25.2300 C   0  0  0  0  0  1  0  0  0  0  0  0
  -30.1900  -30.0050   26.8450 C   0  0  0  0  0  1  0  0  0  0  0  0
  -28.5970  -32.1590   25.7670 N   0  0  0  0  0  0  0  0  0  0  0  0
  -29.1090  -33.3060   25.3040 C   0  0  0  0  0  0  0  0  0  0  0  0
  -29.7090  -33.3820   24.2300 O   0  0  0  0  0  0  0  0  0  0  0  0
  -28.0700  -32.1830   26.6270 H   0  0  0  0  0  0  0  0  0  0  0  0
  -27.7590  -35.4040   25.6280 C   0  0  0  0  0  1  0  0  0  0  0  0
  -28.9280  -34.5690   26.1720 C   0  0  0  0  0  3  0  0  0  0  0  0
  -31.2150  -34.7990   27.0340 C   0  0  0  0  0  1  0  0  0  0  0  0
  -30.1440  -35.4070   26.2500 N   0  0  0  0  0  0  0  0  0  0  0  0
  -29.9310  -36.3140   26.6560 H   0  0  0  0  0  0  0  0  0  0  0  0
  1  4  2  0
  1  5  1  0
  2  6  2  0
  3  6  1  0
  4  2  1  0
  5  3  2  0
  7 13  1  0
  8 13  1  0
  9 10  1  0
  9  8  1  0
 11 10  1  0
 11 20  1  0
 11 12  1  0
 13 12  1  0
 14  7  2  0
 15  6  1  0
 15  7  1  0
 16 15  1  0
 17 18  2  0
 18 37  1  0
 18 19  1  0
 19 22  1  0
 20 17  1  0
 20 21  1  0
 21 19  2  0
 22 23  1  0
 23 24  2  0
 25 28  1  0
 25 24  1  0
 26 25  2  0
 27 26  1  0
 27 22  2  0
 28 29  1  0
 29 34  1  0
 30 29  2  0
 30 31  1  0
 31 32  2  0
 32 33  1  0
 32 36  1  0
 34 35  1  0
 34 33  2  0
 37 38  1  0
 38 41  1  0
 38 40  1  0
 39 37  2  0
 42 17  1  0
 43 42  1  0
 44 42  1  0
 45  4  1  0
 45 46  1  0
 46 48  1  0
 47 45  2  0
 49 46  1  0
 50  5  1  0
 50 52  1  0
 51 52  1  0
 51 55  1  0
 52 54  1  0
 53 51  2  0
 56 58  1  0
 56 55  1  0
 57 68  2  0
 58 63  1  0
 59 67  1  0
 59 69  1  0
 60 66  1  0
 60 62  1  0
 61 67  1  0
 62 61  1  0
 63 62  2  0
 64 65  1  0
 64 58  2  0
 65 60  2  0
 66 59  1  0
 67 57  1  0
 69 71  2  0
 70 69  1  0
 72 70  1  0
 73 82  2  0
 73 78  1  0
 74 70  1  0
 74 78  1  0
 75 74  1  0
 76 77  1  0
 76 75  1  0
 77 73  1  0
 78 79  2  0
 79 80  1  0
 81 80  2  0
 82 81  1  0
 83 57  1  0
 83 88  1  0
 83 84  1  0
 84 87  1  1
 84 85  1  0
 86 84  1  0
 88 91  1  0
 89 88  1  0
 89 93  1  0
 90 89  2  0
 93 92  1  0
 93 95  1  0
 95 96  1  0
 95 94  1  0
M  ISO  4   7 100  15 100  55 101  56 101
M  END
>  <TORSDO>  (94) 
F 20

>  <SCORE>  (94) 
-5.775

>  <name>  (94) 
96

>  <ligand_id>  (94) 
96

>  <original_smiles>  (94) 
[H]c1c([H])c([H])c2c(c1[H])C([H])([H])C([H])([H])C([H])([H])C2([H])N([H])C(=O)C1([H])N(C(=O)C([H])(N([H])C(=O)C([H])(N([H])C([H])([H])[H])C([H])([H])[H])C(C([H])([H])[H])(C([H])([H])[H])C([H])([H])[H])C([H])([H])c2c([H])c(OC([H])([H])C(=O)N([H])C([H])([H])c3c([H])c(C(=O)N([H])[H])c([H])c(N([H])C(=O)N4C([H])([H])C([H])([H])C([H])([H])C([H])(n5nc(-c6c([H])c([H])c(Oc7c([H])c([H])c(F)c([H])c7F)c([H])c6[H])c(C(=O)N([H])[H])c5N([H])[H])C4([H])[H])c3[H])c([H])c([H])c2C1([H])[H]

>  <smiles>  (94) 
[H]c1c([H])c([H])c2c(c1[H])C([H])([H])C([H])([H])C([H])([H])C2([H])N([H])C(=O)C1([H])N(C(=O)C([H])(N([H])C(=O)C([H])(N([H])C([H])([H])[H])C([H])([H])[H])C(C([H])([H])[H])(C([H])([H])[H])C([H])([H])[H])C([H])([H])c2c([H])c(OC([H])([H])C(=O)N([H])C([H])([H])c3c([H])c(C(=O)N([H])[H])c([H])c(N([H])C(=O)N4C([H])([H])C([H])([H])C([H])([H])C([H])(n5nc(-c6c([H])c([H])c(Oc7c([H])c([H])c(F)c([H])c7F)c([H])c6[H])c(C(=O)N([H])[H])c5N([H])[H])C4([H])[H])c3[H])c([H])c([H])c2C1([H])[H]

$$$$
97:0:0
     RDKit          3D

 94103  0  0  1  0  0  0  0  0999 V2000
  -28.8430  -24.2280   20.1400 C   0  0  0  0  0  0  0  0  0  0  0  0
  -31.6010  -22.5320   20.5290 C   0  0  0  0  0  2  0  0  0  0  0  0
  -31.0380  -23.8120   21.1490 C   0  0  0  0  0  2  0  0  0  0  0  0
  -30.1760  -22.0600   20.2070 C   0  0  0  0  0  3  0  0  0  0  0  0
  -29.7040  -23.3310   20.8090 N   0  0  0  0  0  0  0  0  0  0  0  0
  -28.4170  -23.9850   19.0070 O   0  0  0  0  0  0  0  0  0  0  0  0
  -29.8030  -20.7670   20.9900 C   0  0  0  0  0  0  0  0  0  0  0  0
  -30.2720  -19.5780   20.5430 N   0  0  0  0  0  0  0  0  0  0  0  0
  -29.0950  -20.8460   21.9970 O   0  0  0  0  0  0  0  0  0  0  0  0
  -30.8330  -19.5870   19.7030 H   0  0  0  0  0  0  0  0  0  0  0  0
  -30.7580  -14.6860   20.0410 C   0  0  0  0  0  0  0  0  0  0  0  0
  -30.4000  -12.4970   18.9270 C   0  0  0  0  0  2  0  0  0  0  0  0
  -29.3790  -12.6240   17.7770 C   0  0  0  0  0  2  0  0  0  0  0  0
  -27.9450  -12.4160   18.3010 C   0  0  0  0  0  2  0  0  0  0  0  0
  -27.6510  -13.2670   19.5600 C   0  0  0  0  0  3  0  0  0  0  0  0
  -28.7910  -13.1390   20.6070 C   0  0  0  0  0  2  0  0  0  0  0  0
  -30.0510  -13.5110   19.9440 N   0  0  0  0  0  0  0  0  0  0  0  0
  -31.9140  -14.7500   19.6140 O   0  0  0  0  0  0  0  0  0  0  0  0
  -28.6660  -17.7090   20.5600 C   0  0  0  0  0  0  0  0  0  0  0  0
  -28.7740  -16.2300   20.2790 C   0  0  0  0  0  2  0  0  0  0  0  0
  -30.9290  -17.0990   20.7370 C   0  0  0  0  0  2  0  0  0  0  0  0
  -29.9520  -18.2520   21.1340 C   0  0  0  0  0  3  0  0  0  0  0  0
  -30.1660  -15.8360   20.5100 N   0  0  0  0  0  0  0  0  0  0  0  0
  -27.6420  -18.3510   20.3110 O   0  0  0  0  0  0  0  0  0  0  0  0
  -25.3180  -13.8780   20.4470 C   0  0  0  0  0  0  0  0  0  0  0  0
  -24.2750  -13.1020   20.8680 C   0  0  0  0  0  0  0  0  0  0  0  0
  -24.7290  -11.7510   20.7730 C   0  0  0  0  0  0  0  0  0  0  0  0
  -26.3410  -12.9950   20.1290 N   0  0  0  0  0  0  0  0  0  0  0  0
  -25.9960  -11.7110   20.3860 N   0  0  0  0  0  0  0  0  0  0  0  0
  -24.0140  -10.4870   20.9700 C   0  0  0  0  0  0  0  0  0  0  0  0
  -24.4720   -9.5180   21.8880 C   0  0  0  0  0  3  0  0  0  0  0  0
  -23.7580   -8.3150   22.0710 C   0  0  0  0  0  3  0  0  0  0  0  0
  -22.5730   -8.0740   21.3350 C   0  0  0  0  0  0  0  0  0  0  0  0
  -22.1360   -9.0320   20.4050 C   0  0  0  0  0  3  0  0  0  0  0  0
  -22.8500  -10.2270   20.2190 C   0  0  0  0  0  3  0  0  0  0  0  0
  -21.8280   -6.9260   21.4320 O   0  0  0  0  0  0  0  0  0  0  0  0
  -21.7620   -6.2060   22.5980 C   0  0  0  0  0  0  0  0  0  0  0  0
  -21.2890   -6.7770   23.8000 C   0  0  0  0  0  3  0  0  0  0  0  0
  -21.1720   -5.9840   24.9580 C   0  0  0  0  0  3  0  0  0  0  0  0
  -21.5200   -4.6210   24.9160 C   0  0  0  0  0  0  0  0  0  0  0  0
  -21.9860   -4.0490   23.7190 C   0  0  0  0  0  3  0  0  0  0  0  0
  -22.1050   -4.8400   22.5620 C   0  0  0  0  0  0  0  0  0  0  0  0
  -22.5350   -4.2800   21.4060 F   0  0  0  0  0  0  0  0  0  0  0  0
  -21.3990   -3.8550   26.0250 F   0  0  0  0  0  0  0  0  0  0  0  0
  -22.8990  -13.5750   21.2360 C   0  0  0  0  0  0  0  0  0  0  0  0
  -22.2220  -12.8570   22.1250 N   0  0  0  0  0  0  0  0  0  0  0  0
  -22.4330  -14.6160   20.7710 O   0  0  0  0  0  0  0  0  0  0  0  0
  -22.6130  -12.0160   22.5230 H   0  0  0  0  0  0  0  0  0  0  0  0
  -21.3020  -13.1550   22.4140 H   0  0  0  0  0  0  0  0  0  0  0  0
  -25.4640  -15.2520   20.2840 N   0  0  0  0  0  0  0  0  0  0  0  0
  -24.6910  -15.8870   20.4480 H   0  0  0  0  0  0  0  0  0  0  0  0
  -26.2540  -15.7040   19.8460 H   0  0  0  0  0  0  0  0  0  0  0  0
  -28.3890  -25.5100   20.8970 C   0  0  0  0  0  2  0  0  0  0  0  0
  -28.4470  -26.7130   20.0890 O   0  0  0  0  0  0  0  0  0  0  0  0
  -24.5780  -31.8850   23.1620 C   0  0  0  0  0  0  0  0  0  0  0  0
  -27.2900  -27.4710   20.0860 C   0  0  0  0  0  0  0  0  0  0  0  0
  -23.4010  -30.4850   21.4960 C   0  0  0  0  0  3  0  0  0  0  0  0
  -24.8850  -28.9680   20.0740 C   0  0  0  0  0  0  0  0  0  0  0  0
  -25.9260  -30.8650   21.3260 C   0  0  0  0  0  2  0  0  0  0  0  0
  -26.0340  -29.4980   20.6780 C   0  0  0  0  0  0  0  0  0  0  0  0
  -27.2430  -28.7580   20.6750 C   0  0  0  0  0  3  0  0  0  0  0  0
  -26.1270  -26.9600   19.4750 C   0  0  0  0  0  3  0  0  0  0  0  0
  -24.9280  -27.7000   19.4670 C   0  0  0  0  0  3  0  0  0  0  0  0
  -23.6310  -29.8160   20.1140 C   0  0  0  0  0  2  0  0  0  0  0  0
  -24.6520  -31.0930   22.0540 N   0  0  0  0  0  0  0  0  0  0  0  0
  -23.4880  -32.1420   23.6930 O   0  0  0  0  0  0  0  0  0  0  0  0
  -22.7470  -29.4530   22.4430 C   0  0  0  0  0  0  0  0  0  0  0  0
  -21.4250  -29.2620   22.3020 N   0  0  0  0  0  0  0  0  0  0  0  0
  -23.4270  -28.8260   23.2600 O   0  0  0  0  0  0  0  0  0  0  0  0
  -20.9370  -29.8200   21.6150 H   0  0  0  0  0  0  0  0  0  0  0  0
  -18.0580  -28.0280   22.7480 C   0  0  0  0  0  0  0  0  0  0  0  0
  -20.6080  -28.3100   23.0550 C   0  0  0  0  0  3  0  0  0  0  0  0
  -20.7340  -26.8840   22.4720 C   0  0  0  0  0  2  0  0  0  0  0  0
  -19.6490  -26.5570   21.4400 C   0  0  0  0  0  2  0  0  0  0  0  0
  -18.2560  -26.6840   22.0680 C   0  0  0  0  0  2  0  0  0  0  0  0
  -19.1610  -28.7990   23.1980 C   0  0  0  0  0  0  0  0  0  0  0  0
  -18.9220  -30.0560   23.7930 C   0  0  0  0  0  3  0  0  0  0  0  0
  -17.6110  -30.5440   23.9430 C   0  0  0  0  0  3  0  0  0  0  0  0
  -16.5210  -29.7700   23.5100 C   0  0  0  0  0  3  0  0  0  0  0  0
  -16.7450  -28.5150   22.9190 C   0  0  0  0  0  3  0  0  0  0  0  0
  -25.8520  -32.5210   23.8000 C   0  0  0  0  0  3  0  0  0  0  0  0
  -25.5290  -33.9130   24.1400 N   0  0  0  0  0  0  0  0  0  0  0  0
  -25.8580  -34.9750   23.3920 C   0  0  0  0  0  0  0  0  0  0  0  0
  -26.5370  -34.8860   22.3660 O   0  0  0  0  0  0  0  0  0  0  0  0
  -24.9250  -34.0560   24.9370 H   0  0  0  0  0  0  0  0  0  0  0  0
  -24.1200  -36.7560   23.0340 C   0  0  0  0  0  1  0  0  0  0  0  0
  -25.3540  -36.3550   23.8570 C   0  0  0  0  0  3  0  0  0  0  0  0
  -27.4700  -37.2500   24.7230 C   0  0  0  0  0  1  0  0  0  0  0  0
  -26.3810  -37.4170   23.7660 N   0  0  0  0  0  0  0  0  0  0  0  0
  -25.9650  -38.3320   23.9140 H   0  0  0  0  0  0  0  0  0  0  0  0
  -26.3660  -31.7420   25.0720 C   0  0  1  0  0  0  0  0  0  0  0  0
  -25.2680  -31.4810   26.1280 C   0  0  0  0  0  1  0  0  0  0  0  0
  -26.9670  -30.3750   24.6670 C   0  0  0  0  0  1  0  0  0  0  0  0
  -27.5040  -32.5400   25.7520 C   0  0  0  0  0  1  0  0  0  0  0  0
  1  5  1  0
  1 53  1  0
  2  3  1  0
  4  2  1  0
  4  5  1  0
  4  7  1  0
  5  3  1  0
  6  1  2  0
  7  9  2  0
  8  7  1  0
 10  8  1  0
 11 23  1  0
 12 17  1  0
 13 14  1  0
 13 12  1  0
 15 14  1  0
 15 28  1  0
 15 16  1  0
 17 11  1  0
 17 16  1  0
 18 11  2  0
 19 22  1  0
 20 23  1  0
 20 19  1  0
 21 22  1  0
 22  8  1  0
 23 21  1  0
 24 19  2  0
 25 26  2  0
 26 45  1  0
 27 26  1  0
 27 30  1  0
 28 29  1  0
 28 25  1  0
 29 27  2  0
 30 31  1  0
 31 32  2  0
 33 36  1  0
 33 32  1  0
 34 33  2  0
 35 34  1  0
 35 30  2  0
 36 37  1  0
 37 38  1  0
 38 39  2  0
 40 39  1  0
 40 44  1  0
 41 40  2  0
 42 37  2  0
 42 41  1  0
 43 42  1  0
 45 46  1  0
 46 49  1  0
 46 48  1  0
 47 45  2  0
 50 25  1  0
 50 51  1  0
 52 50  1  0
 54 53  1  0
 55 66  2  0
 56 54  1  0
 56 61  1  0
 57 65  1  0
 57 67  1  0
 58 64  1  0
 58 60  1  0
 59 65  1  0
 60 59  1  0
 61 60  2  0
 62 56  2  0
 63 62  1  0
 63 58  2  0
 64 57  1  0
 65 55  1  0
 67 69  2  0
 68 67  1  0
 70 68  1  0
 71 80  2  0
 71 76  1  0
 72 68  1  0
 72 76  1  0
 73 72  1  0
 74 75  1  0
 74 73  1  0
 75 71  1  0
 76 77  2  0
 77 78  1  0
 79 78  2  0
 80 79  1  0
 81 55  1  0
 81 82  1  0
 81 91  1  0
 82 85  1  0
 83 87  1  0
 83 82  1  0
 84 83  2  0
 87 86  1  0
 89 87  1  0
 89 90  1  0
 89 88  1  0
 91 94  1  1
 91 92  1  0
 93 91  1  0
M  ISO  4  11 100  23 100  53 101  54 101
M  END
>  <TORSDO>  (95) 
F 18

>  <SCORE>  (95) 
-14.740

>  <name>  (95) 
97

>  <ligand_id>  (95) 
97

>  <original_smiles>  (95) 
[H]c1c([H])c([H])c2c(c1[H])C([H])([H])C([H])([H])C([H])([H])C2([H])N([H])C(=O)C1([H])N(C(=O)C([H])(N([H])C(=O)C([H])(N([H])C([H])([H])[H])C([H])([H])[H])C(C([H])([H])[H])(C([H])([H])[H])C([H])([H])[H])C([H])([H])c2c([H])c(OC([H])([H])C(=O)N3C([H])([H])C([H])([H])C3([H])C(=O)N([H])C3([H])C(=O)C([H])([H])N(C(=O)N4C([H])([H])C([H])([H])C([H])([H])C([H])(n5nc(-c6c([H])c([H])c(Oc7c([H])c([H])c(F)c([H])c7F)c([H])c6[H])c(C(=O)N([H])[H])c5N([H])[H])C4([H])[H])C3([H])[H])c([H])c([H])c2C1([H])[H]

>  <smiles>  (95) 
[H]c1c([H])c([H])c2c(c1[H])C([H])([H])C([H])([H])C([H])([H])C2([H])N([H])C(=O)C1([H])N(C(=O)C([H])(N([H])C(=O)C([H])(N([H])C([H])([H])[H])C([H])([H])[H])C(C([H])([H])[H])(C([H])([H])[H])C([H])([H])[H])C([H])([H])c2c([H])c(OC([H])([H])C(=O)N3C([H])([H])C([H])([H])C3([H])C(=O)N([H])C3([H])C(=O)C([H])([H])N(C(=O)N4C([H])([H])C([H])([H])C([H])([H])C([H])(n5nc(-c6c([H])c([H])c(Oc7c([H])c([H])c(F)c([H])c7F)c([H])c6[H])c(C(=O)N([H])[H])c5N([H])[H])C4([H])[H])C3([H])[H])c([H])c([H])c2C1([H])[H]

$$$$
98:0:0
     RDKit          3D

 96105  0  0  1  0  0  0  0  0999 V2000
  -28.4280  -21.0580   20.8570 C   0  0  0  0  0  0  0  0  0  0  0  0
  -28.8010  -19.8190   21.2190 N   0  0  0  0  0  0  0  0  0  0  0  0
  -27.2320  -21.3200   20.7200 O   0  0  0  0  0  0  0  0  0  0  0  0
  -28.0450  -19.1620   21.3550 H   0  0  0  0  0  0  0  0  0  0  0  0
  -29.4550  -22.1820   20.6270 C   0  0  0  0  0  2  0  0  0  0  0  0
  -28.7450  -23.4780   20.4440 N   0  0  0  0  0  4  0  0  0  0  0  0
  -27.8920  -23.3620   20.9720 H   0  0  0  0  0  0  0  0  0  0  0  0
  -28.4590  -23.5570   19.4780 H   0  0  0  0  0  0  0  0  0  0  0  0
  -29.4580  -24.7060   20.8890 C   0  0  0  0  0  2  0  0  0  0  0  0
  -28.5030  -25.8930   21.1860 C   0  0  0  0  0  2  0  0  0  0  0  0
  -28.5050  -26.9180   20.1770 O   0  0  0  0  0  0  0  0  0  0  0  0
  -24.6100  -32.0110   23.3030 C   0  0  0  0  0  0  0  0  0  0  0  0
  -27.3490  -27.6660   20.1760 C   0  0  0  0  0  0  0  0  0  0  0  0
  -23.4360  -30.6020   21.6430 C   0  0  0  0  0  3  0  0  0  0  0  0
  -24.9230  -29.1120   20.2050 C   0  0  0  0  0  0  0  0  0  0  0  0
  -25.9530  -31.0200   21.4510 C   0  0  0  0  0  2  0  0  0  0  0  0
  -26.0710  -29.6590   20.7970 C   0  0  0  0  0  0  0  0  0  0  0  0
  -27.2880  -28.9420   20.7800 C   0  0  0  0  0  3  0  0  0  0  0  0
  -26.1910  -27.1360   19.5710 C   0  0  0  0  0  3  0  0  0  0  0  0
  -24.9790  -27.8490   19.5900 C   0  0  0  0  0  3  0  0  0  0  0  0
  -23.6640  -29.9440   20.2570 C   0  0  0  0  0  2  0  0  0  0  0  0
  -24.6850  -31.2250   22.1920 N   0  0  0  0  0  0  0  0  0  0  0  0
  -23.5230  -32.2520   23.8450 O   0  0  0  0  0  0  0  0  0  0  0  0
  -22.8050  -29.5560   22.5910 C   0  0  0  0  0  0  0  0  0  0  0  0
  -21.4870  -29.3450   22.4550 N   0  0  0  0  0  0  0  0  0  0  0  0
  -23.4980  -28.9420   23.4060 O   0  0  0  0  0  0  0  0  0  0  0  0
  -20.9890  -29.8930   21.7700 H   0  0  0  0  0  0  0  0  0  0  0  0
  -18.1420  -28.0600   22.9220 C   0  0  0  0  0  0  0  0  0  0  0  0
  -20.6910  -28.3790   23.2090 C   0  0  0  0  0  3  0  0  0  0  0  0
  -20.8320  -26.9580   22.6170 C   0  0  0  0  0  2  0  0  0  0  0  0
  -19.7430  -26.6180   21.5970 C   0  0  0  0  0  2  0  0  0  0  0  0
  -18.3550  -26.7220   22.2340 C   0  0  0  0  0  2  0  0  0  0  0  0
  -19.2390  -28.8460   23.3650 C   0  0  0  0  0  0  0  0  0  0  0  0
  -18.9880  -30.0970   23.9680 C   0  0  0  0  0  3  0  0  0  0  0  0
  -17.6700  -30.5630   24.1360 C   0  0  0  0  0  3  0  0  0  0  0  0
  -16.5880  -29.7770   23.7060 C   0  0  0  0  0  3  0  0  0  0  0  0
  -16.8240  -28.5290   23.1050 C   0  0  0  0  0  3  0  0  0  0  0  0
  -25.8830  -32.6600   23.9290 C   0  0  0  0  0  3  0  0  0  0  0  0
  -25.5590  -34.0590   24.2280 N   0  0  0  0  0  0  0  0  0  0  0  0
  -25.9090  -35.0990   23.4570 C   0  0  0  0  0  0  0  0  0  0  0  0
  -26.6040  -34.9790   22.4430 O   0  0  0  0  0  0  0  0  0  0  0  0
  -24.9460  -34.2230   25.0130 H   0  0  0  0  0  0  0  0  0  0  0  0
  -24.1910  -36.8810   23.0200 C   0  0  0  0  0  1  0  0  0  0  0  0
  -25.4060  -36.4930   23.8770 C   0  0  0  0  0  3  0  0  0  0  0  0
  -27.5090  -37.3970   24.7660 C   0  0  0  0  0  1  0  0  0  0  0  0
  -26.4430  -37.5450   23.7800 N   0  0  0  0  0  0  0  0  0  0  0  0
  -26.0310  -38.4660   23.8900 H   0  0  0  0  0  0  0  0  0  0  0  0
  -26.3840  -31.9130   25.2250 C   0  0  1  0  0  0  0  0  0  0  0  0
  -25.2760  -31.6790   26.2800 C   0  0  0  0  0  1  0  0  0  0  0  0
  -26.9880  -30.5370   24.8610 C   0  0  0  0  0  1  0  0  0  0  0  0
  -27.5120  -32.7280   25.8980 C   0  0  0  0  0  1  0  0  0  0  0  0
  -30.1410  -19.2820   21.4820 C   0  0  0  0  0  2  0  0  0  0  0  0
  -29.0710  -18.6560   18.2020 C   0  0  0  0  0  2  0  0  0  0  0  0
  -29.0840  -17.1970   17.7370 C   0  0  0  0  0  2  0  0  0  0  0  0
  -30.4010  -18.3990   18.9530 C   0  0  0  0  0  3  0  0  0  0  0  0
  -30.1300  -16.8960   18.8100 C   0  0  0  0  0  3  0  0  0  0  0  0
  -30.5760  -18.1900   20.4820 C   0  0  0  0  0  3  0  0  0  0  0  0
  -29.7820  -16.8770   20.3200 C   0  0  0  0  0  3  0  0  0  0  0  0
  -31.0160  -14.7050   20.5960 C   0  0  0  0  0  0  0  0  0  0  0  0
  -30.7520  -12.5500   19.4400 C   0  0  0  0  0  2  0  0  0  0  0  0
  -29.8520  -12.8000   18.2110 C   0  0  0  0  0  2  0  0  0  0  0  0
  -28.3580  -12.6950   18.5870 C   0  0  0  0  0  2  0  0  0  0  0  0
  -27.9990  -13.5100   19.8570 C   0  0  0  0  0  3  0  0  0  0  0  0
  -29.0150  -13.2300   20.9920 C   0  0  0  0  0  2  0  0  0  0  0  0
  -30.3700  -13.5160   20.4790 N   0  0  0  0  0  0  0  0  0  0  0  0
  -32.1350  -14.9250   20.1230 O   0  0  0  0  0  0  0  0  0  0  0  0
  -30.2340  -15.6880   21.0680 N   0  0  0  0  0  0  0  0  0  0  0  0
  -29.5030  -15.3210   21.6580 H   0  0  0  0  0  0  0  0  0  0  0  0
  -25.5820  -14.1550   20.4750 C   0  0  0  0  0  0  0  0  0  0  0  0
  -24.4920  -13.4010   20.8130 C   0  0  0  0  0  0  0  0  0  0  0  0
  -24.9330  -12.0430   20.8030 C   0  0  0  0  0  0  0  0  0  0  0  0
  -26.6230  -13.2610   20.2850 N   0  0  0  0  0  0  0  0  0  0  0  0
  -26.2310  -11.9840   20.5340 N   0  0  0  0  0  0  0  0  0  0  0  0
  -24.1840  -10.7920   20.9780 C   0  0  0  0  0  0  0  0  0  0  0  0
  -24.5610   -9.8360   21.9480 C   0  0  0  0  0  3  0  0  0  0  0  0
  -23.8160   -8.6480   22.1120 C   0  0  0  0  0  3  0  0  0  0  0  0
  -22.6780   -8.4070   21.3050 C   0  0  0  0  0  0  0  0  0  0  0  0
  -22.3190   -9.3530   20.3270 C   0  0  0  0  0  3  0  0  0  0  0  0
  -23.0650  -10.5320   20.1620 C   0  0  0  0  0  3  0  0  0  0  0  0
  -21.9110   -7.2720   21.3730 O   0  0  0  0  0  0  0  0  0  0  0  0
  -21.7750   -6.5640   22.5410 C   0  0  0  0  0  0  0  0  0  0  0  0
  -21.2490   -7.1530   23.7110 C   0  0  0  0  0  3  0  0  0  0  0  0
  -21.0650   -6.3720   24.8700 C   0  0  0  0  0  3  0  0  0  0  0  0
  -21.3940   -5.0030   24.8570 C   0  0  0  0  0  0  0  0  0  0  0  0
  -21.9140   -4.4150   23.6910 C   0  0  0  0  0  3  0  0  0  0  0  0
  -22.1010   -5.1930   22.5350 C   0  0  0  0  0  0  0  0  0  0  0  0
  -22.5830   -4.6170   21.4080 F   0  0  0  0  0  0  0  0  0  0  0  0
  -21.2090   -4.2500   25.9660 F   0  0  0  0  0  0  0  0  0  0  0  0
  -23.0930  -13.8990   21.0450 C   0  0  0  0  0  0  0  0  0  0  0  0
  -22.3320  -13.2230   21.8980 N   0  0  0  0  0  0  0  0  0  0  0  0
  -22.6820  -14.9250   20.5000 O   0  0  0  0  0  0  0  0  0  0  0  0
  -22.6760  -12.3960   22.3610 H   0  0  0  0  0  0  0  0  0  0  0  0
  -21.3930  -13.5430   22.0920 H   0  0  0  0  0  0  0  0  0  0  0  0
  -25.7690  -15.5230   20.2990 N   0  0  0  0  0  0  0  0  0  0  0  0
  -25.0070  -16.1870   20.3980 H   0  0  0  0  0  0  0  0  0  0  0  0
  -26.6350  -15.9510   19.9960 H   0  0  0  0  0  0  0  0  0  0  0  0
  1  2  1  0
  2  4  1  0
  2 52  1  0
  3  1  2  0
  5  1  1  0
  6  5  1  0
  6  9  1  0
  6  7  1  0
  8  6  1  0
  9 10  1  0
 11 10  1  0
 12 23  2  0
 13 11  1  0
 13 18  1  0
 14 22  1  0
 14 24  1  0
 15 21  1  0
 15 17  1  0
 16 22  1  0
 17 16  1  0
 18 17  2  0
 19 20  1  0
 19 13  2  0
 20 15  2  0
 21 14  1  0
 22 12  1  0
 24 26  2  0
 25 24  1  0
 27 25  1  0
 28 37  2  0
 28 33  1  0
 29 25  1  0
 29 33  1  0
 30 29  1  0
 31 32  1  0
 31 30  1  0
 32 28  1  0
 33 34  2  0
 34 35  1  0
 36 35  2  0
 37 36  1  0
 38 12  1  0
 38 39  1  0
 38 48  1  0
 39 42  1  0
 40 44  1  0
 40 39  1  0
 41 40  2  0
 44 43  1  0
 46 44  1  0
 46 47  1  0
 46 45  1  0
 48 51  1  1
 48 49  1  0
 50 48  1  0
 54 53  1  0
 55 53  1  0
 55 57  1  0
 56 54  1  0
 56 55  1  0
 56 58  1  0
 57 52  1  0
 58 57  1  0
 58 67  1  0
 59 67  1  0
 60 65  1  0
 61 62  1  0
 61 60  1  0
 63 62  1  0
 63 72  1  0
 63 64  1  0
 65 59  1  0
 65 64  1  0
 66 59  2  0
 67 68  1  0
 69 70  2  0
 70 89  1  0
 71 70  1  0
 71 74  1  0
 72 69  1  0
 72 73  1  0
 73 71  2  0
 74 75  1  0
 75 76  2  0
 77 80  1  0
 77 76  1  0
 78 77  2  0
 79 78  1  0
 79 74  2  0
 80 81  1  0
 81 82  1  0
 82 83  2  0
 84 83  1  0
 84 88  1  0
 85 84  2  0
 86 81  2  0
 86 85  1  0
 87 86  1  0
 89 90  1  0
 90 93  1  0
 90 92  1  0
 91 89  2  0
 94 95  1  0
 94 69  1  0
 96 94  1  0
M  ISO  4  10 101  11 101  59 100  67 100
M  END
>  <TORSDO>  (96) 
F 22

>  <SCORE>  (96) 
-12.099

>  <name>  (96) 
98

>  <ligand_id>  (96) 
98

>  <original_smiles>  (96) 
[H]c1c([H])c([H])c2c(c1[H])C([H])([H])C([H])([H])C([H])([H])C2([H])N([H])C(=O)C1([H])N(C(=O)C([H])(N([H])C(=O)C([H])(N([H])C([H])([H])[H])C([H])([H])[H])C(C([H])([H])[H])(C([H])([H])[H])C([H])([H])[H])C([H])([H])c2c([H])c(OC([H])([H])C([H])([H])[N+]([H])([H])C([H])([H])C(=O)N([H])C([H])([H])C3([H])C([H])(N([H])C(=O)N4C([H])([H])C([H])([H])C([H])([H])C([H])(n5nc(-c6c([H])c([H])c(Oc7c([H])c([H])c(F)c([H])c7F)c([H])c6[H])c(C(=O)N([H])[H])c5N([H])[H])C4([H])[H])C4([H])C([H])([H])C([H])([H])C34[H])c([H])c([H])c2C1([H])[H]

>  <smiles>  (96) 
[H]c1c([H])c([H])c2c(c1[H])C([H])([H])C([H])([H])C([H])([H])C2([H])N([H])C(=O)C1([H])N(C(=O)C([H])(N([H])C(=O)C([H])(N([H])C([H])([H])[H])C([H])([H])[H])C(C([H])([H])[H])(C([H])([H])[H])C([H])([H])[H])C([H])([H])c2c([H])c(OC([H])([H])C([H])([H])[N+]([H])([H])C([H])([H])C(=O)N([H])C([H])([H])C3([H])C([H])(N([H])C(=O)N4C([H])([H])C([H])([H])C([H])([H])C([H])(n5nc(-c6c([H])c([H])c(Oc7c([H])c([H])c(F)c([H])c7F)c([H])c6[H])c(C(=O)N([H])[H])c5N([H])[H])C4([H])[H])C4([H])C([H])([H])C([H])([H])C34[H])c([H])c([H])c2C1([H])[H]

$$$$
99:0:0
     RDKit          3D

 95104  0  0  1  0  0  0  0  0999 V2000
  -30.9660  -22.4850   21.1910 C   0  0  0  0  0  2  0  0  0  0  0  0
  -29.4000  -21.4800   20.2280 C   0  0  0  0  0  2  0  0  0  0  0  0
  -30.2280  -21.1600   21.4910 C   0  0  0  0  0  3  0  0  0  0  0  0
  -29.6330  -22.9710   20.5620 C   0  0  0  0  0  3  0  0  0  0  0  0
  -30.9450  -19.8320   21.4950 C   0  0  0  0  0  0  0  0  0  0  0  0
  -32.1470  -19.6330   21.3190 O   0  0  0  0  0  0  0  0  0  0  0  0
  -30.2390  -17.7930   22.9320 C   0  0  0  0  0  2  0  0  0  0  0  0
  -29.9700  -18.7110   21.7720 C   0  0  0  0  0  3  0  0  0  0  0  0
  -30.1890  -17.2170   21.5320 C   0  0  0  0  0  3  0  0  0  0  0  0
  -31.3960  -16.3970   21.0880 C   0  0  0  0  0  2  0  0  0  0  0  0
  -31.3320  -14.1590   19.9500 C   0  0  0  0  0  0  0  0  0  0  0  0
  -30.8900  -11.9470   18.9330 C   0  0  0  0  0  2  0  0  0  0  0  0
  -29.8920  -12.0100   17.7580 C   0  0  0  0  0  2  0  0  0  0  0  0
  -28.4380  -11.9430   18.2550 C   0  0  0  0  0  2  0  0  0  0  0  0
  -28.1630  -12.9410   19.4090 C   0  0  0  0  0  3  0  0  0  0  0  0
  -29.2530  -12.8350   20.5060 C   0  0  0  0  0  2  0  0  0  0  0  0
  -30.5800  -13.0240   19.8870 N   0  0  0  0  0  0  0  0  0  0  0  0
  -32.2730  -14.4020   19.1970 O   0  0  0  0  0  0  0  0  0  0  0  0
  -31.0130  -14.9870   20.9540 N   0  0  0  0  0  0  0  0  0  0  0  0
  -30.3190  -14.6380   21.5970 H   0  0  0  0  0  0  0  0  0  0  0  0
  -25.8270  -13.6980   20.2220 C   0  0  0  0  0  0  0  0  0  0  0  0
  -24.7350  -13.0000   20.6420 C   0  0  0  0  0  0  0  0  0  0  0  0
  -25.1060  -11.6160   20.5920 C   0  0  0  0  0  0  0  0  0  0  0  0
  -26.8130  -12.7580   19.9470 N   0  0  0  0  0  0  0  0  0  0  0  0
  -26.3770  -11.5010   20.2210 N   0  0  0  0  0  0  0  0  0  0  0  0
  -24.3100  -10.4030   20.8190 C   0  0  0  0  0  0  0  0  0  0  0  0
  -24.6760   -9.4630   21.8090 C   0  0  0  0  0  3  0  0  0  0  0  0
  -23.8930   -8.3090   22.0260 C   0  0  0  0  0  3  0  0  0  0  0  0
  -22.7310   -8.0870   21.2520 C   0  0  0  0  0  0  0  0  0  0  0  0
  -22.3810   -9.0120   20.2560 C   0  0  0  0  0  3  0  0  0  0  0  0
  -23.1610  -10.1600   20.0380 C   0  0  0  0  0  3  0  0  0  0  0  0
  -21.9250   -6.9790   21.3670 O   0  0  0  0  0  0  0  0  0  0  0  0
  -21.7320   -6.3520   22.5690 C   0  0  0  0  0  0  0  0  0  0  0  0
  -21.2090   -7.0370   23.6890 C   0  0  0  0  0  3  0  0  0  0  0  0
  -20.9650   -6.3420   24.8910 C   0  0  0  0  0  3  0  0  0  0  0  0
  -21.2280   -4.9610   24.9710 C   0  0  0  0  0  0  0  0  0  0  0  0
  -21.7370   -4.2730   23.8550 C   0  0  0  0  0  3  0  0  0  0  0  0
  -21.9850   -4.9680   22.6560 C   0  0  0  0  0  0  0  0  0  0  0  0
  -22.4580   -4.2980   21.5780 F   0  0  0  0  0  0  0  0  0  0  0  0
  -20.9840   -4.2910   26.1200 F   0  0  0  0  0  0  0  0  0  0  0  0
  -23.3780  -13.5580   20.9780 C   0  0  0  0  0  0  0  0  0  0  0  0
  -22.6560  -12.9300   21.8990 N   0  0  0  0  0  0  0  0  0  0  0  0
  -22.9730  -14.5970   20.4550 O   0  0  0  0  0  0  0  0  0  0  0  0
  -23.0000  -12.1000   22.3590 H   0  0  0  0  0  0  0  0  0  0  0  0
  -21.7430  -13.2840   22.1480 H   0  0  0  0  0  0  0  0  0  0  0  0
  -26.0710  -15.0590   20.0440 N   0  0  0  0  0  0  0  0  0  0  0  0
  -25.3410  -15.7560   20.1610 H   0  0  0  0  0  0  0  0  0  0  0  0
  -26.9520  -15.4490   19.7330 H   0  0  0  0  0  0  0  0  0  0  0  0
  -29.5420  -24.1270   19.5250 C   0  0  0  0  0  3  0  0  0  0  0  0
  -29.3950  -23.5570   18.1400 N   0  0  0  0  0  4  0  0  0  0  0  0
  -29.1960  -24.2710   17.4630 H   0  0  0  0  0  0  0  0  0  0  0  0
  -28.6540  -22.8820   18.0330 H   0  0  0  0  0  0  0  0  0  0  0  0
  -30.2390  -23.0910   17.8400 H   0  0  0  0  0  0  0  0  0  0  0  0
  -28.3630  -25.1480   19.8910 C   0  0  0  0  0  2  0  0  0  0  0  0
  -28.5540  -26.5820   20.2500 O   0  0  0  0  0  0  0  0  0  0  0  0
  -24.6130  -31.9270   23.2960 C   0  0  0  0  0  0  0  0  0  0  0  0
  -27.3960  -27.3840   20.3020 C   0  0  0  0  0  0  0  0  0  0  0  0
  -23.4810  -30.4900   21.6250 C   0  0  0  0  0  3  0  0  0  0  0  0
  -24.9970  -28.9410   20.2920 C   0  0  0  0  0  0  0  0  0  0  0  0
  -26.0320  -30.8170   21.5670 C   0  0  0  0  0  2  0  0  0  0  0  0
  -26.1460  -29.4490   20.9080 C   0  0  0  0  0  0  0  0  0  0  0  0
  -27.3510  -28.6900   20.9000 C   0  0  0  0  0  3  0  0  0  0  0  0
  -26.1900  -26.9110   19.7240 C   0  0  0  0  0  3  0  0  0  0  0  0
  -25.0160  -27.6710   19.7070 C   0  0  0  0  0  3  0  0  0  0  0  0
  -23.7740  -29.8130   20.2620 C   0  0  0  0  0  2  0  0  0  0  0  0
  -24.7190  -31.1030   22.2120 N   0  0  0  0  0  0  0  0  0  0  0  0
  -23.5130  -32.2070   23.7880 O   0  0  0  0  0  0  0  0  0  0  0  0
  -22.7900  -29.4860   22.5770 C   0  0  0  0  0  0  0  0  0  0  0  0
  -21.4800  -29.2600   22.3880 N   0  0  0  0  0  0  0  0  0  0  0  0
  -23.4430  -28.9060   23.4510 O   0  0  0  0  0  0  0  0  0  0  0  0
  -21.0370  -29.7140   21.6010 H   0  0  0  0  0  0  0  0  0  0  0  0
  -18.0990  -28.0120   22.7950 C   0  0  0  0  0  0  0  0  0  0  0  0
  -20.6340  -28.3570   23.1700 C   0  0  0  0  0  3  0  0  0  0  0  0
  -20.7840  -26.8990   22.6860 C   0  0  0  0  0  2  0  0  0  0  0  0
  -19.7530  -26.5240   21.6070 C   0  0  0  0  0  2  0  0  0  0  0  0
  -18.3380  -26.6450   22.1830 C   0  0  0  0  0  2  0  0  0  0  0  0
  -19.1760  -28.8270   23.2360 C   0  0  0  0  0  0  0  0  0  0  0  0
  -18.8950  -30.1050   23.7690 C   0  0  0  0  0  3  0  0  0  0  0  0
  -17.5710  -30.5690   23.8620 C   0  0  0  0  0  3  0  0  0  0  0  0
  -16.5050  -29.7620   23.4220 C   0  0  0  0  0  3  0  0  0  0  0  0
  -16.7700  -28.4850   22.8930 C   0  0  0  0  0  3  0  0  0  0  0  0
  -25.8770  -32.5880   23.9380 C   0  0  0  0  0  3  0  0  0  0  0  0
  -25.5460  -33.9880   24.2270 N   0  0  0  0  0  0  0  0  0  0  0  0
  -25.8890  -35.0320   23.4620 C   0  0  0  0  0  0  0  0  0  0  0  0
  -26.6000  -34.9200   22.4630 O   0  0  0  0  0  0  0  0  0  0  0  0
  -24.9170  -34.1420   25.0010 H   0  0  0  0  0  0  0  0  0  0  0  0
  -24.1640  -36.8170   23.0310 C   0  0  0  0  0  1  0  0  0  0  0  0
  -25.3800  -36.4240   23.8840 C   0  0  0  0  0  3  0  0  0  0  0  0
  -27.4760  -37.3540   24.7740 C   0  0  0  0  0  1  0  0  0  0  0  0
  -26.4050  -37.4890   23.7890 N   0  0  0  0  0  0  0  0  0  0  0  0
  -25.9790  -38.4050   23.9090 H   0  0  0  0  0  0  0  0  0  0  0  0
  -26.3570  -31.8510   25.2530 C   0  0  1  0  0  0  0  0  0  0  0  0
  -25.2280  -31.6200   26.2840 C   0  0  0  0  0  1  0  0  0  0  0  0
  -26.9710  -30.4680   24.9360 C   0  0  0  0  0  1  0  0  0  0  0  0
  -27.4630  -32.6830   25.9520 C   0  0  0  0  0  1  0  0  0  0  0  0
  1  3  1  0
  2  4  1  0
  2  3  1  0
  3  5  1  0
  4 49  1  0
  4  1  1  0
  6  5  2  0
  8  5  1  0
  8  7  1  0
  9 10  1  0
  9  8  1  0
  9  7  1  0
 11 19  1  0
 12 17  1  0
 13 14  1  0
 13 12  1  0
 15 14  1  0
 15 24  1  0
 15 16  1  0
 17 11  1  0
 17 16  1  0
 18 11  2  0
 19 10  1  0
 19 20  1  0
 21 22  2  0
 22 41  1  0
 23 22  1  0
 23 26  1  0
 24 25  1  0
 24 21  1  0
 25 23  2  0
 26 27  1  0
 27 28  2  0
 29 32  1  0
 29 28  1  0
 30 29  2  0
 31 30  1  0
 31 26  2  0
 32 33  1  0
 33 38  2  0
 33 34  1  0
 34 35  2  0
 35 36  1  0
 36 40  1  0
 37 36  2  0
 38 37  1  0
 39 38  1  0
 41 42  1  0
 42 45  1  0
 42 44  1  0
 43 41  2  0
 46 47  1  0
 46 21  1  0
 48 46  1  0
 49 54  1  0
 50 49  1  0
 51 50  1  0
 52 50  1  0
 53 50  1  0
 54 55  1  0
 55 57  1  0
 56 67  2  0
 57 62  1  0
 58 66  1  0
 58 68  1  0
 59 61  1  0
 60 66  1  0
 61 60  1  0
 62 61  2  0
 63 57  2  0
 64 63  1  0
 64 59  2  0
 65 59  1  0
 65 58  1  0
 66 56  1  0
 68 70  2  0
 69 68  1  0
 71 69  1  0
 72 81  2  0
 72 77  1  0
 73 69  1  0
 73 77  1  0
 74 73  1  0
 75 76  1  0
 75 74  1  0
 76 72  1  0
 77 78  2  0
 78 79  1  0
 80 79  2  0
 81 80  1  0
 82 56  1  0
 82 83  1  0
 82 92  1  0
 83 86  1  0
 84 88  1  0
 84 83  1  0
 85 84  2  0
 88 87  1  0
 90 88  1  0
 90 91  1  0
 90 89  1  0
 92 95  1  1
 92 93  1  0
 94 92  1  0
M  ISO  4  11 100  19 100  54 101  55 101
M  END
>  <TORSDO>  (97) 
F 22

>  <SCORE>  (97) 
-12.067

>  <name>  (97) 
99

>  <ligand_id>  (97) 
99

>  <original_smiles>  (97) 
[H]c1c([H])c([H])c2c(c1[H])C([H])([H])C([H])([H])C([H])([H])C2([H])N([H])C(=O)C1([H])N(C(=O)C([H])(N([H])C(=O)C([H])(N([H])C([H])([H])[H])C([H])([H])[H])C(C([H])([H])[H])(C([H])([H])[H])C([H])([H])[H])C([H])([H])c2c([H])c(OC([H])([H])C([H])(C3([H])C([H])([H])C([H])(C(=O)C4([H])C([H])([H])C4([H])C([H])([H])N([H])C(=O)N4C([H])([H])C([H])([H])C([H])([H])C([H])(n5nc(-c6c([H])c([H])c(Oc7c([H])c([H])c(F)c([H])c7F)c([H])c6[H])c(C(=O)N([H])[H])c5N([H])[H])C4([H])[H])C3([H])[H])[N+]([H])([H])[H])c([H])c([H])c2C1([H])[H]

>  <smiles>  (97) 
[H]c1c([H])c([H])c2c(c1[H])C([H])([H])C([H])([H])C([H])([H])C2([H])N([H])C(=O)C1([H])N(C(=O)C([H])(N([H])C(=O)C([H])(N([H])C([H])([H])[H])C([H])([H])[H])C(C([H])([H])[H])(C([H])([H])[H])C([H])([H])[H])C([H])([H])c2c([H])c(OC([H])([H])C([H])(C3([H])C([H])([H])C([H])(C(=O)C4([H])C([H])([H])C4([H])C([H])([H])N([H])C(=O)N4C([H])([H])C([H])([H])C([H])([H])C([H])(n5nc(-c6c([H])c([H])c(Oc7c([H])c([H])c(F)c([H])c7F)c([H])c6[H])c(C(=O)N([H])[H])c5N([H])[H])C4([H])[H])C3([H])[H])[N+]([H])([H])[H])c([H])c([H])c2C1([H])[H]

$$$$
