0:0:0
     RDKit          3D

 98106  0  0  1  0  0  0  0  0999 V2000
  -30.1430  -18.6350   18.9240 C   0  0  0  0  0  3  0  0  0  0  0  0
  -29.6290  -21.0270   18.6270 C   0  0  0  0  0  3  0  0  0  0  0  0
  -29.2220  -19.9450   20.7550 C   0  0  0  0  0  3  0  0  0  0  0  0
  -30.1180  -19.7960   18.1170 C   0  0  0  0  0  0  0  0  0  0  0  0
  -29.7150  -18.6600   20.2640 C   0  0  0  0  0  0  0  0  0  0  0  0
  -29.1790  -21.1680   19.9600 C   0  0  0  0  0  0  0  0  0  0  0  0
  -30.6000  -19.7080   16.6990 C   0  0  0  0  0  0  0  0  0  0  0  0
  -31.2420  -20.7710   16.2310 N   0  0  0  0  0  0  0  0  0  0  0  0
  -30.4670  -18.6830   16.0310 O   0  0  0  0  0  0  0  0  0  0  0  0
  -31.3690  -21.5800   16.8190 H   0  0  0  0  0  0  0  0  0  0  0  0
  -31.6160  -20.7700   15.2920 H   0  0  0  0  0  0  0  0  0  0  0  0
  -28.7480  -23.7870   19.9390 C   0  0  0  0  0  0  0  0  0  0  0  0
  -28.6690  -22.4870   20.4510 N   0  0  0  0  0  0  0  0  0  0  0  0
  -29.4540  -24.0490   18.9610 O   0  0  0  0  0  0  0  0  0  0  0  0
  -28.1480  -22.4370   21.3170 H   0  0  0  0  0  0  0  0  0  0  0  0
  -27.9450  -25.0090   20.6080 C   0  0  0  0  0  2  0  0  0  0  0  0
  -28.1780  -26.4130   20.0970 O   0  0  0  0  0  0  0  0  0  0  0  0
  -24.5730  -31.9100   23.2160 C   0  0  0  0  0  0  0  0  0  0  0  0
  -27.0880  -27.3140   20.0980 C   0  0  0  0  0  0  0  0  0  0  0  0
  -23.3310  -30.5310   21.5900 C   0  0  0  0  0  3  0  0  0  0  0  0
  -24.7440  -28.9740   20.1270 C   0  0  0  0  0  0  0  0  0  0  0  0
  -25.8720  -30.8230   21.3630 C   0  0  0  0  0  2  0  0  0  0  0  0
  -25.9310  -29.4440   20.7070 C   0  0  0  0  0  0  0  0  0  0  0  0
  -27.1080  -28.6280   20.6770 C   0  0  0  0  0  3  0  0  0  0  0  0
  -25.8830  -26.9130   19.4840 C   0  0  0  0  0  3  0  0  0  0  0  0
  -24.7260  -27.7160   19.5030 C   0  0  0  0  0  3  0  0  0  0  0  0
  -23.5150  -29.8610   20.2030 C   0  0  0  0  0  2  0  0  0  0  0  0
  -24.6120  -31.1070   22.1130 N   0  0  0  0  0  0  0  0  0  0  0  0
  -23.5010  -32.1910   23.7720 O   0  0  0  0  0  0  0  0  0  0  0  0
  -22.6760  -29.5150   22.5570 C   0  0  0  0  0  0  0  0  0  0  0  0
  -21.3480  -29.3370   22.4450 N   0  0  0  0  0  0  0  0  0  0  0  0
  -23.3630  -28.8880   23.3690 O   0  0  0  0  0  0  0  0  0  0  0  0
  -20.8540  -29.8950   21.7620 H   0  0  0  0  0  0  0  0  0  0  0  0
  -17.9790  -28.1250   22.9710 C   0  0  0  0  0  0  0  0  0  0  0  0
  -20.5390  -28.3980   23.2230 C   0  0  0  0  0  3  0  0  0  0  0  0
  -20.6440  -26.9660   22.6520 C   0  0  0  0  0  2  0  0  0  0  0  0
  -19.5370  -26.6340   21.6450 C   0  0  0  0  0  2  0  0  0  0  0  0
  -18.1580  -26.7740   22.2980 C   0  0  0  0  0  2  0  0  0  0  0  0
  -19.0970  -28.8940   23.3920 C   0  0  0  0  0  0  0  0  0  0  0  0
  -18.8750  -30.1560   23.9810 C   0  0  0  0  0  3  0  0  0  0  0  0
  -17.5680  -30.6500   24.1570 C   0  0  0  0  0  3  0  0  0  0  0  0
  -16.4650  -29.8780   23.7500 C   0  0  0  0  0  3  0  0  0  0  0  0
  -16.6720  -28.6180   23.1620 C   0  0  0  0  0  3  0  0  0  0  0  0
  -25.8710  -32.5310   23.8200 C   0  0  0  0  0  3  0  0  0  0  0  0
  -25.5760  -33.9320   24.1580 N   0  0  0  0  0  0  0  0  0  0  0  0
  -25.9100  -34.9850   23.4000 C   0  0  0  0  0  0  0  0  0  0  0  0
  -26.5640  -34.8780   22.3590 O   0  0  0  0  0  0  0  0  0  0  0  0
  -24.9940  -34.0880   24.9670 H   0  0  0  0  0  0  0  0  0  0  0  0
  -24.2010  -36.8030   23.0690 C   0  0  0  0  0  1  0  0  0  0  0  0
  -25.4420  -36.3770   23.8690 C   0  0  0  0  0  3  0  0  0  0  0  0
  -27.5910  -37.2320   24.6920 C   0  0  0  0  0  1  0  0  0  0  0  0
  -26.4870  -37.4180   23.7550 N   0  0  0  0  0  0  0  0  0  0  0  0
  -26.0920  -38.3420   23.9090 H   0  0  0  0  0  0  0  0  0  0  0  0
  -26.3970  -31.7540   25.0890 C   0  0  1  0  0  0  0  0  0  0  0  0
  -25.3190  -31.5290   26.1750 C   0  0  0  0  0  1  0  0  0  0  0  0
  -26.9580  -30.3690   24.6890 C   0  0  0  0  0  1  0  0  0  0  0  0
  -27.5650  -32.5370   25.7340 C   0  0  0  0  0  1  0  0  0  0  0  0
  -29.9380  -17.3520   21.1560 C   0  0  0  0  0  3  0  0  0  0  0  0
  -30.4620  -14.8260   20.3370 C   0  0  0  0  0  0  0  0  0  0  0  0
  -30.2850  -12.5610   19.2750 C   0  0  0  0  0  2  0  0  0  0  0  0
  -29.3180  -12.6150   18.0710 C   0  0  0  0  0  2  0  0  0  0  0  0
  -27.8610  -12.4080   18.5300 C   0  0  0  0  0  2  0  0  0  0  0  0
  -27.4920  -13.2800   19.7610 C   0  0  0  0  0  3  0  0  0  0  0  0
  -28.5750  -13.2040   20.8580 C   0  0  0  0  0  2  0  0  0  0  0  0
  -29.8480  -13.5950   20.2390 N   0  0  0  0  0  0  0  0  0  0  0  0
  -31.6430  -14.9470   20.0070 O   0  0  0  0  0  0  0  0  0  0  0  0
  -29.6680  -15.9260   20.6450 N   0  0  0  0  0  0  0  0  0  0  0  0
  -28.6990  -15.6660   20.7370 H   0  0  0  0  0  0  0  0  0  0  0  0
  -25.1070  -13.8200   20.5360 C   0  0  0  0  0  0  0  0  0  0  0  0
  -24.0630  -13.0220   20.9180 C   0  0  0  0  0  0  0  0  0  0  0  0
  -24.5520  -11.6810   20.8720 C   0  0  0  0  0  0  0  0  0  0  0  0
  -26.1630  -12.9620   20.2750 N   0  0  0  0  0  0  0  0  0  0  0  0
  -25.8380  -11.6710   20.5400 N   0  0  0  0  0  0  0  0  0  0  0  0
  -23.8540  -10.4030   21.0640 C   0  0  0  0  0  0  0  0  0  0  0  0
  -24.3180   -9.4360   21.9830 C   0  0  0  0  0  3  0  0  0  0  0  0
  -23.6150   -8.2260   22.1650 C   0  0  0  0  0  3  0  0  0  0  0  0
  -22.4350   -7.9730   21.4260 C   0  0  0  0  0  0  0  0  0  0  0  0
  -21.9900   -8.9290   20.4960 C   0  0  0  0  0  3  0  0  0  0  0  0
  -22.6930  -10.1310   20.3130 C   0  0  0  0  0  3  0  0  0  0  0  0
  -21.7020   -6.8140   21.5170 O   0  0  0  0  0  0  0  0  0  0  0  0
  -21.6910   -6.0580   22.6610 C   0  0  0  0  0  0  0  0  0  0  0  0
  -21.2740   -6.5910   23.9010 C   0  0  0  0  0  3  0  0  0  0  0  0
  -21.2100   -5.7610   25.0380 C   0  0  0  0  0  3  0  0  0  0  0  0
  -21.5520   -4.3990   24.9360 C   0  0  0  0  0  0  0  0  0  0  0  0
  -21.9630   -3.8660   23.7020 C   0  0  0  0  0  3  0  0  0  0  0  0
  -22.0280   -4.6930   22.5670 C   0  0  0  0  0  0  0  0  0  0  0  0
  -22.4030   -4.1690   21.3750 F   0  0  0  0  0  0  0  0  0  0  0  0
  -21.4830   -3.5990   26.0260 F   0  0  0  0  0  0  0  0  0  0  0  0
  -22.6620  -13.4710   21.2140 C   0  0  0  0  0  0  0  0  0  0  0  0
  -21.9590  -12.7560   22.0860 N   0  0  0  0  0  0  0  0  0  0  0  0
  -22.1980  -14.4930   20.7100 O   0  0  0  0  0  0  0  0  0  0  0  0
  -22.3470  -11.9310   22.5170 H   0  0  0  0  0  0  0  0  0  0  0  0
  -21.0220  -13.0440   22.3280 H   0  0  0  0  0  0  0  0  0  0  0  0
  -25.2360  -15.1960   20.3650 N   0  0  0  0  0  0  0  0  0  0  0  0
  -24.4460  -15.8220   20.4850 H   0  0  0  0  0  0  0  0  0  0  0  0
  -26.0510  -15.6600   19.9870 H   0  0  0  0  0  0  0  0  0  0  0  0
  -31.5260  -18.6730   22.7410 C   0  0  0  0  0  1  0  0  0  0  0  0
  -31.3020  -17.4160   21.8870 C   0  0  0  0  0  2  0  0  0  0  0  0
  1  5  1  0
  2  6  2  0
  4  2  1  0
  4  1  2  0
  5  3  2  0
  5 58  1  0
  6 13  1  0
  6  3  1  0
  7  4  1  0
  8  7  1  0
  8 10  1  0
  9  7  2  0
 11  8  1  0
 12 13  1  0
 12 16  1  0
 13 15  1  0
 14 12  2  0
 17 19  1  0
 17 16  1  0
 18 29  2  0
 19 24  1  0
 20 28  1  0
 20 30  1  0
 21 27  1  0
 21 23  1  0
 22 28  1  0
 23 22  1  0
 24 23  2  0
 25 26  1  0
 25 19  2  0
 26 21  2  0
 27 20  1  0
 28 18  1  0
 30 32  2  0
 31 30  1  0
 33 31  1  0
 34 43  2  0
 34 39  1  0
 35 31  1  0
 35 39  1  0
 36 35  1  0
 37 38  1  0
 37 36  1  0
 38 34  1  0
 39 40  2  0
 40 41  1  0
 42 41  2  0
 43 42  1  0
 44 18  1  0
 44 45  1  0
 44 54  1  0
 45 48  1  0
 46 50  1  0
 46 45  1  0
 47 46  2  0
 50 49  1  0
 52 50  1  0
 52 53  1  0
 52 51  1  0
 54 57  1  1
 54 55  1  0
 56 54  1  0
 58 98  1  0
 59 67  1  0
 60 65  1  0
 61 62  1  0
 61 60  1  0
 63 62  1  0
 63 72  1  0
 63 64  1  0
 65 59  1  0
 65 64  1  0
 66 59  2  0
 67 68  1  0
 67 58  1  0
 69 70  2  0
 70 89  1  0
 71 70  1  0
 71 74  1  0
 72 69  1  0
 72 73  1  0
 73 71  2  0
 74 75  1  0
 75 76  2  0
 77 80  1  0
 77 76  1  0
 78 77  2  0
 79 78  1  0
 79 74  2  0
 80 81  1  0
 81 82  1  0
 82 83  2  0
 84 83  1  0
 84 88  1  0
 85 84  2  0
 86 81  2  0
 86 85  1  0
 87 86  1  0
 89 90  1  0
 90 93  1  0
 90 92  1  0
 91 89  2  0
 94 95  1  0
 94 69  1  0
 96 94  1  0
 98 97  1  0
M  ISO  4  16 101  17 101  59 100  67 100
M  END
>  <TORSDO>  (1) 
F 21

>  <SCORE>  (1) 
-13.408

>  <name>  (1) 
0

>  <ligand_id>  (1) 
0

>  <original_smiles>  (1) 
[H]c1c([H])c([H])c2c(c1[H])C([H])([H])C([H])([H])C([H])([H])C2([H])N([H])C(=O)C1([H])N(C(=O)C([H])(N([H])C(=O)C([H])(N([H])C([H])([H])[H])C([H])([H])[H])C(C([H])([H])[H])(C([H])([H])[H])C([H])([H])[H])C([H])([H])c2c([H])c(OC([H])([H])C(=O)N([H])c3c([H])c(C(=O)N([H])[H])c([H])c(C([H])(N([H])C(=O)N4C([H])([H])C([H])([H])C([H])([H])C([H])(n5nc(-c6c([H])c([H])c(Oc7c([H])c([H])c(F)c([H])c7F)c([H])c6[H])c(C(=O)N([H])[H])c5N([H])[H])C4([H])[H])C([H])([H])C([H])([H])[H])c3[H])c([H])c([H])c2C1([H])[H]

>  <smiles>  (1) 
[H]c1c([H])c([H])c2c(c1[H])C([H])([H])C([H])([H])C([H])([H])C2([H])N([H])C(=O)C1([H])N(C(=O)C([H])(N([H])C(=O)C([H])(N([H])C([H])([H])[H])C([H])([H])[H])C(C([H])([H])[H])(C([H])([H])[H])C([H])([H])[H])C([H])([H])c2c([H])c(OC([H])([H])C(=O)N([H])c3c([H])c(C(=O)N([H])[H])c([H])c(C([H])(N([H])C(=O)N4C([H])([H])C([H])([H])C([H])([H])C([H])(n5nc(-c6c([H])c([H])c(Oc7c([H])c([H])c(F)c([H])c7F)c([H])c6[H])c(C(=O)N([H])[H])c5N([H])[H])C4([H])[H])C([H])([H])C([H])([H])[H])c3[H])c([H])c([H])c2C1([H])[H]

$$$$
1:0:0
     RDKit          3D

104113  0  0  1  0  0  0  0  0999 V2000
  -28.8430  -23.9730   17.8510 C   0  0  0  0  0  0  0  0  0  0  0  0
  -30.5570  -22.5530   20.5860 C   0  0  0  0  0  2  0  0  0  0  0  0
  -31.7940  -21.6550   18.5160 C   0  0  0  0  0  2  0  0  0  0  0  0
  -30.5800  -23.8010   19.6850 C   0  0  0  0  0  2  0  0  0  0  0  0
  -30.6860  -22.3590   17.6830 C   0  0  0  0  0  2  0  0  0  0  0  0
  -31.4930  -21.4560   20.0280 C   0  0  0  0  0  3  0  0  0  0  0  0
  -29.9720  -23.4380   18.3970 N   0  0  0  0  0  0  0  0  0  0  0  0
  -28.4780  -23.6460   16.7170 O   0  0  0  0  0  0  0  0  0  0  0  0
  -30.2570  -19.3080   19.4630 C   0  0  0  0  0  3  0  0  0  0  0  0
  -29.9430  -17.9510   19.6650 C   0  0  0  0  0  3  0  0  0  0  0  0
  -31.1410  -18.0000   21.7810 C   0  0  0  0  0  3  0  0  0  0  0  0
  -31.4380  -19.3700   21.6030 C   0  0  0  0  0  0  0  0  0  0  0  0
  -31.0450  -20.0270   20.3940 C   0  0  0  0  0  0  0  0  0  0  0  0
  -30.4280  -17.2840   20.8050 C   0  0  0  0  0  0  0  0  0  0  0  0
  -30.8340  -14.9530   20.2790 C   0  0  0  0  0  0  0  0  0  0  0  0
  -30.5820  -12.7530   19.2070 C   0  0  0  0  0  2  0  0  0  0  0  0
  -29.6080  -12.8700   18.0170 C   0  0  0  0  0  2  0  0  0  0  0  0
  -28.1480  -12.7020   18.4820 C   0  0  0  0  0  2  0  0  0  0  0  0
  -27.8070  -13.5950   19.7060 C   0  0  0  0  0  3  0  0  0  0  0  0
  -28.8840  -13.4450   20.8020 C   0  0  0  0  0  2  0  0  0  0  0  0
  -30.1950  -13.7580   20.2050 N   0  0  0  0  0  0  0  0  0  0  0  0
  -31.9030  -15.1860   19.7020 O   0  0  0  0  0  0  0  0  0  0  0  0
  -30.1910  -15.9020   20.9740 N   0  0  0  0  0  0  0  0  0  0  0  0
  -29.3320  -15.6280   21.4270 H   0  0  0  0  0  0  0  0  0  0  0  0
  -25.4370  -14.1770   20.5280 C   0  0  0  0  0  0  0  0  0  0  0  0
  -24.3820  -13.3890   20.9050 C   0  0  0  0  0  0  0  0  0  0  0  0
  -24.8400  -12.0400   20.8010 C   0  0  0  0  0  0  0  0  0  0  0  0
  -26.4710  -13.3060   20.2220 N   0  0  0  0  0  0  0  0  0  0  0  0
  -26.1170  -12.0130   20.4420 N   0  0  0  0  0  0  0  0  0  0  0  0
  -24.1220  -10.7700   20.9670 C   0  0  0  0  0  0  0  0  0  0  0  0
  -24.5300   -9.8110   21.9200 C   0  0  0  0  0  3  0  0  0  0  0  0
  -23.8130   -8.6040   22.0720 C   0  0  0  0  0  3  0  0  0  0  0  0
  -22.6750   -8.3490   21.2710 C   0  0  0  0  0  0  0  0  0  0  0  0
  -22.2870   -9.2970   20.3070 C   0  0  0  0  0  3  0  0  0  0  0  0
  -23.0040  -10.4950   20.1530 C   0  0  0  0  0  3  0  0  0  0  0  0
  -21.9310   -7.1950   21.3330 O   0  0  0  0  0  0  0  0  0  0  0  0
  -21.7690   -6.5060   22.5070 C   0  0  0  0  0  0  0  0  0  0  0  0
  -21.1320   -7.0820   23.6280 C   0  0  0  0  0  3  0  0  0  0  0  0
  -20.9230   -6.3140   24.7910 C   0  0  0  0  0  3  0  0  0  0  0  0
  -21.3410   -4.9710   24.8330 C   0  0  0  0  0  0  0  0  0  0  0  0
  -21.9710   -4.3930   23.7150 C   0  0  0  0  0  3  0  0  0  0  0  0
  -22.1810   -5.1590   22.5550 C   0  0  0  0  0  0  0  0  0  0  0  0
  -22.7690   -4.5920   21.4740 F   0  0  0  0  0  0  0  0  0  0  0  0
  -21.1340   -4.2290   25.9470 F   0  0  0  0  0  0  0  0  0  0  0  0
  -22.9960  -13.8530   21.2510 C   0  0  0  0  0  0  0  0  0  0  0  0
  -22.3010  -13.1180   22.1110 N   0  0  0  0  0  0  0  0  0  0  0  0
  -22.5410  -14.9010   20.7960 O   0  0  0  0  0  0  0  0  0  0  0  0
  -22.6820  -12.2700   22.5040 H   0  0  0  0  0  0  0  0  0  0  0  0
  -21.3720  -13.4090   22.3820 H   0  0  0  0  0  0  0  0  0  0  0  0
  -25.5950  -15.5530   20.4000 N   0  0  0  0  0  0  0  0  0  0  0  0
  -24.8350  -16.2030   20.5700 H   0  0  0  0  0  0  0  0  0  0  0  0
  -26.4370  -16.0070   20.0660 H   0  0  0  0  0  0  0  0  0  0  0  0
  -32.1890  -20.0500   22.7100 C   0  0  0  0  0  0  0  0  0  0  0  0
  -31.4910  -20.9070   23.4410 N   0  0  0  0  0  0  0  0  0  0  0  0
  -33.3560  -19.7650   22.9680 O   0  0  0  0  0  0  0  0  0  0  0  0
  -31.9180  -21.3870   24.2200 H   0  0  0  0  0  0  0  0  0  0  0  0
  -30.5210  -21.0670   23.2200 H   0  0  0  0  0  0  0  0  0  0  0  0
  -27.9330  -24.9650   18.6160 C   0  0  0  0  0  3  0  0  0  0  0  0
  -27.5740  -24.5170   19.9850 N   0  0  0  0  0  4  0  0  0  0  0  0
  -28.3870  -24.4930   20.5770 H   0  0  0  0  0  0  0  0  0  0  0  0
  -27.1760  -23.5940   19.9510 H   0  0  0  0  0  0  0  0  0  0  0  0
  -26.9020  -25.1340   20.4060 H   0  0  0  0  0  0  0  0  0  0  0  0
  -28.4920  -26.4120   18.5600 C   0  0  0  0  0  2  0  0  0  0  0  0
  -28.2220  -27.2130   19.7180 O   0  0  0  0  0  0  0  0  0  0  0  0
  -24.5490  -32.0600   23.3860 C   0  0  0  0  0  0  0  0  0  0  0  0
  -27.0310  -27.9030   19.8080 C   0  0  0  0  0  0  0  0  0  0  0  0
  -23.2520  -30.7690   21.7190 C   0  0  0  0  0  3  0  0  0  0  0  0
  -24.6250  -29.3600   20.0980 C   0  0  0  0  0  0  0  0  0  0  0  0
  -25.7570  -31.1690   21.3980 C   0  0  0  0  0  2  0  0  0  0  0  0
  -25.8090  -29.8490   20.6590 C   0  0  0  0  0  0  0  0  0  0  0  0
  -27.0110  -29.1180   20.5300 C   0  0  0  0  0  3  0  0  0  0  0  0
  -25.8260  -27.4270   19.2420 C   0  0  0  0  0  3  0  0  0  0  0  0
  -24.6260  -28.1450   19.3940 C   0  0  0  0  0  3  0  0  0  0  0  0
  -23.3800  -30.1960   20.2820 C   0  0  0  0  0  2  0  0  0  0  0  0
  -24.5410  -31.3440   22.2250 N   0  0  0  0  0  0  0  0  0  0  0  0
  -23.5020  -32.2790   24.0090 O   0  0  0  0  0  0  0  0  0  0  0  0
  -22.6700  -29.6730   22.6390 C   0  0  0  0  0  0  0  0  0  0  0  0
  -21.3580  -29.4160   22.5080 N   0  0  0  0  0  0  0  0  0  0  0  0
  -23.3940  -29.0560   23.4240 O   0  0  0  0  0  0  0  0  0  0  0  0
  -20.8310  -29.9700   21.8480 H   0  0  0  0  0  0  0  0  0  0  0  0
  -18.0790  -27.9540   22.9030 C   0  0  0  0  0  0  0  0  0  0  0  0
  -20.6020  -28.4010   23.2400 C   0  0  0  0  0  3  0  0  0  0  0  0
  -20.8270  -26.9950   22.6370 C   0  0  0  0  0  2  0  0  0  0  0  0
  -19.7760  -26.6120   21.5910 C   0  0  0  0  0  2  0  0  0  0  0  0
  -18.3740  -26.6380   22.2050 C   0  0  0  0  0  2  0  0  0  0  0  0
  -19.1250  -28.7900   23.3750 C   0  0  0  0  0  0  0  0  0  0  0  0
  -18.7980  -30.0210   23.9840 C   0  0  0  0  0  3  0  0  0  0  0  0
  -17.4550  -30.4200   24.1260 C   0  0  0  0  0  3  0  0  0  0  0  0
  -16.4220  -29.5810   23.6730 C   0  0  0  0  0  3  0  0  0  0  0  0
  -16.7350  -28.3500   23.0670 C   0  0  0  0  0  3  0  0  0  0  0  0
  -25.8690  -32.6560   23.9700 C   0  0  0  0  0  3  0  0  0  0  0  0
  -25.6080  -34.0630   24.3050 N   0  0  0  0  0  0  0  0  0  0  0  0
  -25.9410  -35.1020   23.5280 C   0  0  0  0  0  0  0  0  0  0  0  0
  -26.5710  -34.9770   22.4740 O   0  0  0  0  0  0  0  0  0  0  0  0
  -25.0500  -34.2370   25.1270 H   0  0  0  0  0  0  0  0  0  0  0  0
  -24.2440  -36.9300   23.2230 C   0  0  0  0  0  1  0  0  0  0  0  0
  -25.5030  -36.5030   23.9930 C   0  0  0  0  0  3  0  0  0  0  0  0
  -27.6780  -37.3510   24.7530 C   0  0  0  0  0  1  0  0  0  0  0  0
  -26.5550  -37.5300   23.8360 N   0  0  0  0  0  0  0  0  0  0  0  0
  -26.1750  -38.4620   23.9770 H   0  0  0  0  0  0  0  0  0  0  0  0
  -26.4010  -31.8710   25.2310 C   0  0  1  0  0  0  0  0  0  0  0  0
  -25.3270  -31.6470   26.3210 C   0  0  0  0  0  1  0  0  0  0  0  0
  -26.9490  -30.4870   24.8150 C   0  0  0  0  0  1  0  0  0  0  0  0
  -27.5800  -32.6410   25.8710 C   0  0  0  0  0  1  0  0  0  0  0  0
  1  7  1  0
  1 58  1  0
  3  6  1  0
  4  2  1  0
  5  7  1  0
  5  3  1  0
  6 13  1  0
  6  2  1  0
  7  4  1  0
  8  1  2  0
  9 10  2  0
  9 13  1  0
 10 14  1  0
 12 11  1  0
 12 53  1  0
 13 12  2  0
 14 23  1  0
 14 11  2  0
 15 23  1  0
 16 21  1  0
 17 18  1  0
 17 16  1  0
 19 18  1  0
 19 28  1  0
 19 20  1  0
 21 15  1  0
 21 20  1  0
 22 15  2  0
 23 24  1  0
 25 26  2  0
 26 45  1  0
 27 26  1  0
 27 30  1  0
 28 29  1  0
 28 25  1  0
 29 27  2  0
 30 31  1  0
 31 32  2  0
 33 36  1  0
 33 32  1  0
 34 33  2  0
 35 34  1  0
 35 30  2  0
 36 37  1  0
 37 42  2  0
 37 38  1  0
 38 39  2  0
 39 40  1  0
 40 44  1  0
 41 40  2  0
 42 41  1  0
 43 42  1  0
 45 46  1  0
 46 49  1  0
 46 48  1  0
 47 45  2  0
 50 25  1  0
 50 51  1  0
 52 50  1  0
 53 55  2  0
 53 54  1  0
 54 56  1  0
 57 54  1  0
 58 63  1  0
 58 59  1  0
 59 62  1  0
 59 60  1  0
 61 59  1  0
 63 64  1  0
 64 66  1  0
 65 76  2  0
 66 71  1  0
 67 75  1  0
 67 77  1  0
 68 74  1  0
 68 70  1  0
 69 75  1  0
 70 69  1  0
 71 70  2  0
 72 73  1  0
 72 66  2  0
 73 68  2  0
 74 67  1  0
 75 65  1  0
 77 79  2  0
 78 77  1  0
 80 78  1  0
 81 90  2  0
 81 86  1  0
 82 78  1  0
 82 86  1  0
 83 82  1  0
 84 85  1  0
 84 83  1  0
 85 81  1  0
 86 87  2  0
 87 88  1  0
 89 88  2  0
 90 89  1  0
 91 65  1  0
 91 92  1  0
 91101  1  0
 92 95  1  0
 93 97  1  0
 93 92  1  0
 94 93  2  0
 97 96  1  0
 99100  1  0
 99 97  1  0
 99 98  1  0
101104  1  1
101102  1  0
103101  1  0
M  ISO  4  15 100  23 100  63 101  64 101
M  END
>  <TORSDO>  (2) 
F 21

>  <SCORE>  (2) 
-13.638

>  <name>  (2) 
1

>  <ligand_id>  (2) 
1

>  <original_smiles>  (2) 
[H]c1c([H])c([H])c2c(c1[H])C([H])([H])C([H])([H])C([H])([H])C2([H])N([H])C(=O)C1([H])N(C(=O)C([H])(N([H])C(=O)C([H])(N([H])C([H])([H])[H])C([H])([H])[H])C(C([H])([H])[H])(C([H])([H])[H])C([H])([H])[H])C([H])([H])c2c([H])c(OC([H])([H])C([H])(C(=O)N3C([H])([H])C([H])([H])C([H])(c4c([H])c([H])c(N([H])C(=O)N5C([H])([H])C([H])([H])C([H])([H])C([H])(n6nc(-c7c([H])c([H])c(Oc8c([H])c([H])c(F)c([H])c8F)c([H])c7[H])c(C(=O)N([H])[H])c6N([H])[H])C5([H])[H])c([H])c4C(=O)N([H])[H])C([H])([H])C3([H])[H])[N+]([H])([H])[H])c([H])c([H])c2C1([H])[H]

>  <smiles>  (2) 
[H]c1c([H])c([H])c2c(c1[H])C([H])([H])C([H])([H])C([H])([H])C2([H])N([H])C(=O)C1([H])N(C(=O)C([H])(N([H])C(=O)C([H])(N([H])C([H])([H])[H])C([H])([H])[H])C(C([H])([H])[H])(C([H])([H])[H])C([H])([H])[H])C([H])([H])c2c([H])c(OC([H])([H])C([H])(C(=O)N3C([H])([H])C([H])([H])C([H])(c4c([H])c([H])c(N([H])C(=O)N5C([H])([H])C([H])([H])C([H])([H])C([H])(n6nc(-c7c([H])c([H])c(Oc8c([H])c([H])c(F)c([H])c8F)c([H])c7[H])c(C(=O)N([H])[H])c6N([H])[H])C5([H])[H])c([H])c4C(=O)N([H])[H])C([H])([H])C3([H])[H])[N+]([H])([H])[H])c([H])c([H])c2C1([H])[H]

$$$$
2:0:0
     RDKit          3D

100108  0  0  1  0  0  0  0  0999 V2000
  -31.5030  -19.5350   20.9150 C   0  0  0  0  0  3  0  0  0  0  0  0
  -31.7440  -20.9240   20.8650 C   0  0  0  0  0  3  0  0  0  0  0  0
  -29.3980  -19.8660   19.7500 C   0  0  0  0  0  3  0  0  0  0  0  0
  -30.3130  -18.9890   20.3780 C   0  0  0  0  0  0  0  0  0  0  0  0
  -30.8080  -21.8010   20.2760 C   0  0  0  0  0  0  0  0  0  0  0  0
  -29.6390  -21.2550   19.7010 C   0  0  0  0  0  0  0  0  0  0  0  0
  -28.7340  -22.0600   19.0940 F   0  0  0  0  0  0  0  0  0  0  0  0
  -30.0060  -17.5220   20.4250 C   0  0  0  0  0  0  0  0  0  0  0  0
  -29.0450  -17.0570   19.7990 O   0  0  0  0  0  0  0  0  0  0  0  0
  -30.8700  -16.5890   21.3290 C   0  0  0  0  0  3  0  0  0  0  0  0
  -30.9300  -14.3550   20.2200 C   0  0  0  0  0  0  0  0  0  0  0  0
  -30.4850  -12.3000   18.9310 C   0  0  0  0  0  2  0  0  0  0  0  0
  -29.5040  -12.5820   17.7770 C   0  0  0  0  0  2  0  0  0  0  0  0
  -28.0450  -12.4770   18.2580 C   0  0  0  0  0  2  0  0  0  0  0  0
  -27.7850  -13.2820   19.5560 C   0  0  0  0  0  3  0  0  0  0  0  0
  -28.8640  -12.9630   20.6140 C   0  0  0  0  0  2  0  0  0  0  0  0
  -30.1890  -13.2340   20.0250 N   0  0  0  0  0  0  0  0  0  0  0  0
  -31.9510  -14.6220   19.5810 O   0  0  0  0  0  0  0  0  0  0  0  0
  -30.4480  -15.1880   21.1530 N   0  0  0  0  0  0  0  0  0  0  0  0
  -29.5600  -14.9150   21.5470 H   0  0  0  0  0  0  0  0  0  0  0  0
  -25.4190  -13.9510   20.3260 C   0  0  0  0  0  0  0  0  0  0  0  0
  -24.3430  -13.2070   20.7320 C   0  0  0  0  0  0  0  0  0  0  0  0
  -24.7720  -11.8430   20.6940 C   0  0  0  0  0  0  0  0  0  0  0  0
  -26.4360  -13.0440   20.0700 N   0  0  0  0  0  0  0  0  0  0  0  0
  -26.0490  -11.7730   20.3450 N   0  0  0  0  0  0  0  0  0  0  0  0
  -24.0230  -10.5980   20.9150 C   0  0  0  0  0  0  0  0  0  0  0  0
  -24.4590   -9.6290   21.8450 C   0  0  0  0  0  3  0  0  0  0  0  0
  -23.7150   -8.4470   22.0510 C   0  0  0  0  0  3  0  0  0  0  0  0
  -22.5170   -8.2280   21.3300 C   0  0  0  0  0  0  0  0  0  0  0  0
  -22.0970   -9.1870   20.3900 C   0  0  0  0  0  3  0  0  0  0  0  0
  -22.8450  -10.3590   20.1820 C   0  0  0  0  0  3  0  0  0  0  0  0
  -21.7450   -7.0970   21.4430 O   0  0  0  0  0  0  0  0  0  0  0  0
  -21.7070   -6.3670   22.6040 C   0  0  0  0  0  0  0  0  0  0  0  0
  -21.3320   -6.9440   23.8360 C   0  0  0  0  0  3  0  0  0  0  0  0
  -21.2400   -6.1440   24.9920 C   0  0  0  0  0  3  0  0  0  0  0  0
  -21.5070   -4.7650   24.9160 C   0  0  0  0  0  0  0  0  0  0  0  0
  -21.8700   -4.1840   23.6880 C   0  0  0  0  0  3  0  0  0  0  0  0
  -21.9690   -4.9840   22.5370 C   0  0  0  0  0  0  0  0  0  0  0  0
  -22.3000   -4.4160   21.3530 F   0  0  0  0  0  0  0  0  0  0  0  0
  -21.4080   -3.9930   26.0250 F   0  0  0  0  0  0  0  0  0  0  0  0
  -22.9660  -13.7190   21.0410 C   0  0  0  0  0  0  0  0  0  0  0  0
  -22.2450  -13.0550   21.9380 N   0  0  0  0  0  0  0  0  0  0  0  0
  -22.5370  -14.7480   20.5230 O   0  0  0  0  0  0  0  0  0  0  0  0
  -22.6020  -12.2230   22.3850 H   0  0  0  0  0  0  0  0  0  0  0  0
  -21.3230  -13.3870   22.1820 H   0  0  0  0  0  0  0  0  0  0  0  0
  -25.6140  -15.3160   20.1380 N   0  0  0  0  0  0  0  0  0  0  0  0
  -24.8630  -15.9870   20.2530 H   0  0  0  0  0  0  0  0  0  0  0  0
  -26.4640  -15.7280   19.7690 H   0  0  0  0  0  0  0  0  0  0  0  0
  -30.6510  -17.0000   22.8100 C   0  0  0  0  0  2  0  0  0  0  0  0
  -31.3260  -16.0970   23.7680 N   0  0  0  0  0  4  0  0  0  0  0  0
  -30.9710  -15.1610   23.7010 H   0  0  0  0  0  0  0  0  0  0  0  0
  -31.1760  -16.4180   24.7080 H   0  0  0  0  0  0  0  0  0  0  0  0
  -32.3180  -16.0740   23.6040 H   0  0  0  0  0  0  0  0  0  0  0  0
  -31.1030  -23.3030   20.2400 C   0  0  0  0  0  2  0  0  0  0  0  0
  -30.0270  -25.3970   21.0610 C   0  0  0  0  0  0  0  0  0  0  0  0
  -29.9530  -24.1660   20.5300 N   0  0  0  0  0  0  0  0  0  0  0  0
  -31.1050  -25.9250   21.3480 O   0  0  0  0  0  0  0  0  0  0  0  0
  -29.0430  -23.8160   20.2630 H   0  0  0  0  0  0  0  0  0  0  0  0
  -28.7150  -26.1590   21.3080 C   0  0  0  0  0  2  0  0  0  0  0  0
  -28.2350  -26.6770   20.0710 O   0  0  0  0  0  0  0  0  0  0  0  0
  -24.5230  -31.9180   23.2190 C   0  0  0  0  0  0  0  0  0  0  0  0
  -27.0890  -27.4280   20.1580 C   0  0  0  0  0  0  0  0  0  0  0  0
  -23.2810  -30.5130   21.6040 C   0  0  0  0  0  3  0  0  0  0  0  0
  -24.7040  -28.9370   20.1890 C   0  0  0  0  0  0  0  0  0  0  0  0
  -25.8060  -30.8400   21.3760 C   0  0  0  0  0  2  0  0  0  0  0  0
  -25.8700  -29.4590   20.7640 C   0  0  0  0  0  0  0  0  0  0  0  0
  -27.0670  -28.7080   20.7550 C   0  0  0  0  0  3  0  0  0  0  0  0
  -25.9130  -26.9150   19.5770 C   0  0  0  0  0  3  0  0  0  0  0  0
  -24.7170  -27.6620   19.5960 C   0  0  0  0  0  3  0  0  0  0  0  0
  -23.4700  -29.8120   20.2310 C   0  0  0  0  0  2  0  0  0  0  0  0
  -24.5550  -31.1070   22.1250 N   0  0  0  0  0  0  0  0  0  0  0  0
  -23.4510  -32.2130   23.7670 O   0  0  0  0  0  0  0  0  0  0  0  0
  -22.6240  -29.5140   22.5830 C   0  0  0  0  0  0  0  0  0  0  0  0
  -21.2970  -29.3500   22.4680 N   0  0  0  0  0  0  0  0  0  0  0  0
  -23.3070  -28.8890   23.3970 O   0  0  0  0  0  0  0  0  0  0  0  0
  -20.8080  -29.9110   21.7850 H   0  0  0  0  0  0  0  0  0  0  0  0
  -17.9120  -28.1980   22.9950 C   0  0  0  0  0  0  0  0  0  0  0  0
  -20.4740  -28.4300   23.2540 C   0  0  0  0  0  3  0  0  0  0  0  0
  -20.5570  -26.9900   22.6970 C   0  0  0  0  0  2  0  0  0  0  0  0
  -19.4470  -26.6650   21.6920 C   0  0  0  0  0  2  0  0  0  0  0  0
  -18.0700  -26.8370   22.3400 C   0  0  0  0  0  2  0  0  0  0  0  0
  -19.0410  -28.9520   23.4100 C   0  0  0  0  0  0  0  0  0  0  0  0
  -18.8410  -30.2270   23.9820 C   0  0  0  0  0  3  0  0  0  0  0  0
  -17.5430  -30.7480   24.1450 C   0  0  0  0  0  3  0  0  0  0  0  0
  -16.4280  -29.9890   23.7480 C   0  0  0  0  0  3  0  0  0  0  0  0
  -16.6130  -28.7160   23.1790 C   0  0  0  0  0  3  0  0  0  0  0  0
  -25.8240  -32.5360   23.8190 C   0  0  0  0  0  3  0  0  0  0  0  0
  -26.3650  -31.7490   25.0750 C   0  0  1  0  0  0  0  0  0  0  0  0
  -25.2950  -31.5070   26.1640 C   0  0  0  0  0  1  0  0  0  0  0  0
  -26.9350  -30.3730   24.6560 C   0  0  0  0  0  1  0  0  0  0  0  0
  -27.5350  -32.5300   25.7210 C   0  0  0  0  0  1  0  0  0  0  0  0
  -25.5320  -33.9330   24.1660 N   0  0  0  0  0  0  0  0  0  0  0  0
  -25.8620  -34.9890   23.4090 C   0  0  0  0  0  0  0  0  0  0  0  0
  -26.5190  -34.8870   22.3690 O   0  0  0  0  0  0  0  0  0  0  0  0
  -24.9500  -34.0870   24.9760 H   0  0  0  0  0  0  0  0  0  0  0  0
  -24.1450  -36.7960   23.0850 C   0  0  0  0  0  1  0  0  0  0  0  0
  -25.3900  -36.3760   23.8810 C   0  0  0  0  0  3  0  0  0  0  0  0
  -27.5450  -37.2330   24.6920 C   0  0  0  0  0  1  0  0  0  0  0  0
  -26.4300  -37.4220   23.7680 N   0  0  0  0  0  0  0  0  0  0  0  0
  -26.0340  -38.3430   23.9300 H   0  0  0  0  0  0  0  0  0  0  0  0
  2  1  1  0
  3  4  1  0
  4  8  1  0
  4  1  2  0
  5  2  2  0
  6  3  2  0
  6  5  1  0
  7  6  1  0
  8 10  1  0
  9  8  2  0
 10 49  1  0
 11 19  1  0
 12 17  1  0
 13 14  1  0
 13 12  1  0
 15 14  1  0
 15 24  1  0
 15 16  1  0
 17 11  1  0
 17 16  1  0
 18 11  2  0
 19 10  1  0
 19 20  1  0
 21 22  2  0
 22 41  1  0
 23 22  1  0
 23 26  1  0
 24 21  1  0
 24 25  1  0
 25 23  2  0
 26 27  1  0
 27 28  2  0
 29 32  1  0
 29 28  1  0
 30 29  2  0
 31 30  1  0
 31 26  2  0
 32 33  1  0
 33 34  1  0
 34 35  2  0
 36 35  1  0
 36 40  1  0
 37 36  2  0
 38 33  2  0
 38 37  1  0
 39 38  1  0
 41 42  1  0
 42 45  1  0
 42 44  1  0
 43 41  2  0
 46 47  1  0
 46 21  1  0
 48 46  1  0
 49 50  1  0
 50 52  1  0
 51 50  1  0
 53 50  1  0
 54  5  1  0
 54 56  1  0
 55 59  1  0
 55 57  2  0
 56 55  1  0
 58 56  1  0
 60 62  1  0
 60 59  1  0
 61 72  2  0
 62 67  1  0
 63 71  1  0
 63 73  1  0
 64 70  1  0
 64 66  1  0
 65 71  1  0
 66 65  1  0
 67 66  2  0
 68 69  1  0
 68 62  2  0
 69 64  2  0
 70 63  1  0
 71 61  1  0
 73 75  2  0
 74 73  1  0
 76 74  1  0
 77 86  2  0
 77 82  1  0
 78 74  1  0
 78 82  1  0
 79 78  1  0
 80 81  1  0
 80 79  1  0
 81 77  1  0
 82 83  2  0
 83 84  1  0
 85 84  2  0
 86 85  1  0
 87 61  1  0
 87 92  1  0
 87 88  1  0
 88 91  1  1
 88 89  1  0
 90 88  1  0
 92 95  1  0
 93 97  1  0
 93 92  1  0
 94 93  2  0
 97 96  1  0
 99 97  1  0
 99100  1  0
 99 98  1  0
M  ISO  4  11 100  19 100  59 101  60 101
M  END
>  <TORSDO>  (3) 
F 23

>  <SCORE>  (3) 
-11.660

>  <name>  (3) 
2

>  <ligand_id>  (3) 
2

>  <original_smiles>  (3) 
[H]c1c([H])c([H])c2c(c1[H])C([H])([H])C([H])([H])C([H])([H])C2([H])N([H])C(=O)C1([H])N(C(=O)C([H])(N([H])C(=O)C([H])(N([H])C([H])([H])[H])C([H])([H])[H])C(C([H])([H])[H])(C([H])([H])[H])C([H])([H])[H])C([H])([H])c2c([H])c(OC([H])([H])C(=O)N([H])C([H])([H])c3c([H])c([H])c(C(=O)C([H])(N([H])C(=O)N4C([H])([H])C([H])([H])C([H])([H])C([H])(n5nc(-c6c([H])c([H])c(Oc7c([H])c([H])c(F)c([H])c7F)c([H])c6[H])c(C(=O)N([H])[H])c5N([H])[H])C4([H])[H])C([H])([H])[N+]([H])([H])[H])c([H])c3F)c([H])c([H])c2C1([H])[H]

>  <smiles>  (3) 
[H]c1c([H])c([H])c2c(c1[H])C([H])([H])C([H])([H])C([H])([H])C2([H])N([H])C(=O)C1([H])N(C(=O)C([H])(N([H])C(=O)C([H])(N([H])C([H])([H])[H])C([H])([H])[H])C(C([H])([H])[H])(C([H])([H])[H])C([H])([H])[H])C([H])([H])c2c([H])c(OC([H])([H])C(=O)N([H])C([H])([H])c3c([H])c([H])c(C(=O)C([H])(N([H])C(=O)N4C([H])([H])C([H])([H])C([H])([H])C([H])(n5nc(-c6c([H])c([H])c(Oc7c([H])c([H])c(F)c([H])c7F)c([H])c6[H])c(C(=O)N([H])[H])c5N([H])[H])C4([H])[H])C([H])([H])[N+]([H])([H])[H])c([H])c3F)c([H])c([H])c2C1([H])[H]

$$$$
3:0:0
     RDKit          3D

 96104  0  0  1  0  0  0  0  0999 V2000
  -29.5930  -22.5370   18.2320 C   0  0  0  0  0  1  0  0  0  0  0  0
  -29.7350  -22.6660   19.7630 C   0  0  0  0  0  3  0  0  0  0  0  0
  -28.9710  -21.4870   20.4740 C   0  0  0  0  0  0  0  0  0  0  0  0
  -28.9770  -17.7460   21.1300 C   0  0  0  0  0  2  0  0  0  0  0  0
  -28.9000  -19.2410   21.5720 C   0  0  0  0  0  2  0  0  0  0  0  0
  -30.8380  -19.7350   20.1830 C   0  0  0  0  0  2  0  0  0  0  0  0
  -30.8980  -18.2410   19.6650 C   0  0  0  0  0  3  0  0  0  0  0  0
  -30.3770  -17.2130   20.7330 C   0  0  0  0  0  3  0  0  0  0  0  0
  -32.3320  -17.9560   19.1700 C   0  0  0  0  0  1  0  0  0  0  0  0
  -29.5110  -20.2180   20.6420 N   0  0  0  0  0  0  0  0  0  0  0  0
  -27.8440  -21.7580   20.8960 O   0  0  0  0  0  0  0  0  0  0  0  0
  -31.0000  -14.6900   20.0450 C   0  0  0  0  0  0  0  0  0  0  0  0
  -30.7020  -12.4740   18.9510 C   0  0  0  0  0  2  0  0  0  0  0  0
  -29.7270  -12.6480   17.7640 C   0  0  0  0  0  2  0  0  0  0  0  0
  -28.2610  -12.5180   18.2290 C   0  0  0  0  0  2  0  0  0  0  0  0
  -27.9550  -13.3650   19.4940 C   0  0  0  0  0  3  0  0  0  0  0  0
  -29.0440  -13.1730   20.5730 C   0  0  0  0  0  2  0  0  0  0  0  0
  -30.3420  -13.4910   19.9570 N   0  0  0  0  0  0  0  0  0  0  0  0
  -32.1670  -14.8120   19.6740 O   0  0  0  0  0  0  0  0  0  0  0  0
  -30.2060  -15.7480   20.4010 N   0  0  0  0  0  0  0  0  0  0  0  0
  -29.2720  -15.4270   20.5920 H   0  0  0  0  0  0  0  0  0  0  0  0
  -25.5980  -14.0090   20.2950 C   0  0  0  0  0  0  0  0  0  0  0  0
  -24.5270  -13.2580   20.6960 C   0  0  0  0  0  0  0  0  0  0  0  0
  -24.9590  -11.8960   20.6440 C   0  0  0  0  0  0  0  0  0  0  0  0
  -26.6150  -13.1070   20.0170 N   0  0  0  0  0  0  0  0  0  0  0  0
  -26.2350  -11.8310   20.2870 N   0  0  0  0  0  0  0  0  0  0  0  0
  -24.2100  -10.6470   20.8560 C   0  0  0  0  0  0  0  0  0  0  0  0
  -24.6090   -9.7050   21.8290 C   0  0  0  0  0  3  0  0  0  0  0  0
  -23.8640   -8.5230   22.0280 C   0  0  0  0  0  3  0  0  0  0  0  0
  -22.7070   -8.2740   21.2540 C   0  0  0  0  0  0  0  0  0  0  0  0
  -22.3250   -9.2070   20.2740 C   0  0  0  0  0  3  0  0  0  0  0  0
  -23.0700  -10.3810   20.0720 C   0  0  0  0  0  3  0  0  0  0  0  0
  -21.9360   -7.1410   21.3550 O   0  0  0  0  0  0  0  0  0  0  0  0
  -21.7980   -6.4720   22.5440 C   0  0  0  0  0  0  0  0  0  0  0  0
  -21.2820   -7.1030   23.6970 C   0  0  0  0  0  3  0  0  0  0  0  0
  -21.0870   -6.3600   24.8780 C   0  0  0  0  0  3  0  0  0  0  0  0
  -21.3990   -4.9870   24.9080 C   0  0  0  0  0  0  0  0  0  0  0  0
  -21.9100   -4.3560   23.7600 C   0  0  0  0  0  3  0  0  0  0  0  0
  -22.1080   -5.0970   22.5810 C   0  0  0  0  0  0  0  0  0  0  0  0
  -22.5770   -4.4810   21.4700 F   0  0  0  0  0  0  0  0  0  0  0  0
  -21.2080   -4.2710   26.0420 F   0  0  0  0  0  0  0  0  0  0  0  0
  -23.1480  -13.7650   21.0120 C   0  0  0  0  0  0  0  0  0  0  0  0
  -22.4350  -13.0950   21.9100 N   0  0  0  0  0  0  0  0  0  0  0  0
  -22.7110  -14.7940   20.4990 O   0  0  0  0  0  0  0  0  0  0  0  0
  -22.8010  -12.2650   22.3540 H   0  0  0  0  0  0  0  0  0  0  0  0
  -21.5120  -13.4200   22.1620 H   0  0  0  0  0  0  0  0  0  0  0  0
  -25.7840  -15.3760   20.1230 N   0  0  0  0  0  0  0  0  0  0  0  0
  -25.0370  -16.0420   20.2890 H   0  0  0  0  0  0  0  0  0  0  0  0
  -26.6100  -15.8040   19.7240 H   0  0  0  0  0  0  0  0  0  0  0  0
  -29.5240  -24.1760   20.2970 C   0  0  0  0  0  3  0  0  0  0  0  0
  -30.8050  -24.9160   20.2330 N   0  0  0  0  0  4  0  0  0  0  0  0
  -31.1160  -25.0320   19.2830 H   0  0  0  0  0  0  0  0  0  0  0  0
  -31.5260  -24.4540   20.7600 H   0  0  0  0  0  0  0  0  0  0  0  0
  -30.6730  -25.8350   20.6200 H   0  0  0  0  0  0  0  0  0  0  0  0
  -28.3980  -25.1200   19.7060 C   0  0  0  0  0  2  0  0  0  0  0  0
  -28.5140  -26.5540   20.0620 O   0  0  0  0  0  0  0  0  0  0  0  0
  -24.6540  -31.7950   23.1150 C   0  0  0  0  0  0  0  0  0  0  0  0
  -27.3780  -27.3680   19.9880 C   0  0  0  0  0  0  0  0  0  0  0  0
  -23.4920  -30.4080   21.4360 C   0  0  0  0  0  3  0  0  0  0  0  0
  -24.9830  -28.9270   19.9830 C   0  0  0  0  0  0  0  0  0  0  0  0
  -26.0240  -30.7820   21.2840 C   0  0  0  0  0  2  0  0  0  0  0  0
  -26.1340  -29.4220   20.6110 C   0  0  0  0  0  0  0  0  0  0  0  0
  -27.3310  -28.6530   20.6120 C   0  0  0  0  0  3  0  0  0  0  0  0
  -26.2100  -26.9350   19.3170 C   0  0  0  0  0  3  0  0  0  0  0  0
  -25.0240  -27.6900   19.3280 C   0  0  0  0  0  3  0  0  0  0  0  0
  -23.7300  -29.7740   20.0400 C   0  0  0  0  0  2  0  0  0  0  0  0
  -24.7410  -31.0110   22.0020 N   0  0  0  0  0  0  0  0  0  0  0  0
  -23.5620  -32.0410   23.6450 O   0  0  0  0  0  0  0  0  0  0  0  0
  -22.8470  -29.3540   22.3650 C   0  0  0  0  0  0  0  0  0  0  0  0
  -21.5250  -29.1610   22.2300 N   0  0  0  0  0  0  0  0  0  0  0  0
  -23.5330  -28.7150   23.1670 O   0  0  0  0  0  0  0  0  0  0  0  0
  -21.0290  -29.7280   21.5580 H   0  0  0  0  0  0  0  0  0  0  0  0
  -18.1560  -27.9300   22.7090 C   0  0  0  0  0  0  0  0  0  0  0  0
  -20.7140  -28.1950   22.9750 C   0  0  0  0  0  3  0  0  0  0  0  0
  -20.8220  -26.7830   22.3560 C   0  0  0  0  0  2  0  0  0  0  0  0
  -19.7180  -26.4860   21.3360 C   0  0  0  0  0  2  0  0  0  0  0  0
  -18.3380  -26.6030   21.9900 C   0  0  0  0  0  2  0  0  0  0  0  0
  -19.2720  -28.6850   23.1560 C   0  0  0  0  0  0  0  0  0  0  0  0
  -19.0500  -29.9270   23.7880 C   0  0  0  0  0  3  0  0  0  0  0  0
  -17.7450  -30.4160   23.9750 C   0  0  0  0  0  3  0  0  0  0  0  0
  -16.6420  -29.6590   23.5430 C   0  0  0  0  0  3  0  0  0  0  0  0
  -16.8480  -28.4170   22.9160 C   0  0  0  0  0  3  0  0  0  0  0  0
  -25.9200  -32.4360   23.7610 C   0  0  0  0  0  3  0  0  0  0  0  0
  -26.4440  -31.6450   25.0220 C   0  0  1  0  0  0  0  0  0  0  0  0
  -25.3480  -31.3580   26.0750 C   0  0  0  0  0  1  0  0  0  0  0  0
  -27.0610  -30.2890   24.6020 C   0  0  0  0  0  1  0  0  0  0  0  0
  -27.5710  -32.4490   25.7140 C   0  0  0  0  0  1  0  0  0  0  0  0
  -25.5780  -33.8200   24.1220 N   0  0  0  0  0  0  0  0  0  0  0  0
  -25.8850  -34.8970   23.3870 C   0  0  0  0  0  0  0  0  0  0  0  0
  -26.5590  -34.8330   22.3550 O   0  0  0  0  0  0  0  0  0  0  0  0
  -24.9810  -33.9430   24.9270 H   0  0  0  0  0  0  0  0  0  0  0  0
  -24.1150  -36.6560   23.0690 C   0  0  0  0  0  1  0  0  0  0  0  0
  -25.3630  -36.2630   23.8740 C   0  0  0  0  0  3  0  0  0  0  0  0
  -27.4740  -37.1810   24.7290 C   0  0  0  0  0  1  0  0  0  0  0  0
  -26.3700  -37.3420   23.7870 N   0  0  0  0  0  0  0  0  0  0  0  0
  -25.9400  -38.2490   23.9520 H   0  0  0  0  0  0  0  0  0  0  0  0
  2  1  1  0
  2 50  1  0
  2  3  1  0
  3 10  1  0
  3 11  2  0
  4  5  1  0
  6 10  1  0
  7  9  1  0
  7  6  1  0
  7  8  1  0
  8 20  1  0
  8  4  1  0
 10  5  1  0
 12 20  1  0
 13 18  1  0
 14 15  1  0
 14 13  1  0
 16 15  1  0
 16 25  1  0
 16 17  1  0
 18 12  1  0
 18 17  1  0
 19 12  2  0
 20 21  1  0
 22 23  2  0
 23 42  1  0
 24 23  1  0
 24 27  1  0
 25 26  1  0
 25 22  1  0
 26 24  2  0
 27 28  1  0
 28 29  2  0
 30 33  1  0
 30 29  1  0
 31 30  2  0
 32 31  1  0
 32 27  2  0
 33 34  1  0
 34 39  2  0
 34 35  1  0
 35 36  2  0
 36 37  1  0
 37 41  1  0
 38 37  2  0
 39 38  1  0
 40 39  1  0
 42 43  1  0
 43 46  1  0
 43 45  1  0
 44 42  2  0
 47 48  1  0
 47 22  1  0
 49 47  1  0
 50 55  1  0
 51 50  1  0
 51 54  1  0
 51 53  1  0
 52 51  1  0
 55 56  1  0
 57 68  2  0
 58 56  1  0
 58 63  1  0
 59 67  1  0
 59 69  1  0
 60 66  1  0
 60 62  1  0
 61 67  1  0
 62 63  2  0
 62 61  1  0
 64 65  1  0
 64 58  2  0
 65 60  2  0
 66 59  1  0
 67 57  1  0
 69 71  2  0
 70 69  1  0
 72 70  1  0
 73 82  2  0
 73 78  1  0
 74 70  1  0
 74 78  1  0
 75 74  1  0
 76 77  1  0
 76 75  1  0
 77 73  1  0
 78 79  2  0
 79 80  1  0
 81 80  2  0
 82 81  1  0
 83 57  1  0
 83 88  1  0
 83 84  1  0
 84 87  1  1
 84 85  1  0
 86 84  1  0
 88 91  1  0
 89 93  1  0
 89 88  1  0
 90 89  2  0
 93 92  1  0
 95 93  1  0
 95 96  1  0
 95 94  1  0
M  ISO  4  12 100  20 100  55 101  56 101
M  END
>  <TORSDO>  (4) 
F 20

>  <SCORE>  (4) 
-12.652

>  <name>  (4) 
3

>  <ligand_id>  (4) 
3

>  <original_smiles>  (4) 
[H]c1c([H])c([H])c2c(c1[H])C([H])([H])C([H])([H])C([H])([H])C2([H])N([H])C(=O)C1([H])N(C(=O)C([H])(N([H])C(=O)C([H])(N([H])C([H])([H])[H])C([H])([H])[H])C(C([H])([H])[H])(C([H])([H])[H])C([H])([H])[H])C([H])([H])c2c([H])c(OC([H])([H])C([H])(C([H])(C(=O)N3C([H])([H])C([H])([H])C([H])(N([H])C(=O)N4C([H])([H])C([H])([H])C([H])([H])C([H])(n5nc(-c6c([H])c([H])c(Oc7c([H])c([H])c(F)c([H])c7F)c([H])c6[H])c(C(=O)N([H])[H])c5N([H])[H])C4([H])[H])C([H])(C([H])([H])[H])C3([H])[H])C([H])([H])[H])[N+]([H])([H])[H])c([H])c([H])c2C1([H])[H]

>  <smiles>  (4) 
[H]c1c([H])c([H])c2c(c1[H])C([H])([H])C([H])([H])C([H])([H])C2([H])N([H])C(=O)C1([H])N(C(=O)C([H])(N([H])C(=O)C([H])(N([H])C([H])([H])[H])C([H])([H])[H])C(C([H])([H])[H])(C([H])([H])[H])C([H])([H])[H])C([H])([H])c2c([H])c(OC([H])([H])C([H])(C([H])(C(=O)N3C([H])([H])C([H])([H])C([H])(N([H])C(=O)N4C([H])([H])C([H])([H])C([H])([H])C([H])(n5nc(-c6c([H])c([H])c(Oc7c([H])c([H])c(F)c([H])c7F)c([H])c6[H])c(C(=O)N([H])[H])c5N([H])[H])C4([H])[H])C([H])(C([H])([H])[H])C3([H])[H])C([H])([H])[H])[N+]([H])([H])[H])c([H])c([H])c2C1([H])[H]

$$$$
4:0:0
     RDKit          3D

 95103  0  0  1  0  0  0  0  0999 V2000
  -29.0370  -22.6470   20.0620 C   0  0  0  0  0  3  0  0  0  0  0  0
  -27.1980  -19.2040   18.9990 C   0  0  0  0  0  3  0  0  0  0  0  0
  -27.5510  -20.5450   19.3020 C   0  0  0  0  0  3  0  0  0  0  0  0
  -27.9830  -18.0680   19.3270 C   0  0  0  0  0  3  0  0  0  0  0  0
  -29.5320  -19.6070   20.3400 C   0  0  0  0  0  3  0  0  0  0  0  0
  -28.7400  -20.9060   19.9680 C   0  0  0  0  0  0  0  0  0  0  0  0
  -29.2040  -18.1130   20.0350 C   0  0  0  0  0  0  0  0  0  0  0  0
  -30.4000  -15.3670   20.1490 C   0  0  0  0  0  0  0  0  0  0  0  0
  -30.4130  -12.8880   19.3370 C   0  0  0  0  0  2  0  0  0  0  0  0
  -29.4900  -12.6700   18.1080 C   0  0  0  0  0  2  0  0  0  0  0  0
  -28.0440  -12.3930   18.5520 C   0  0  0  0  0  2  0  0  0  0  0  0
  -27.5980  -13.3550   19.6820 C   0  0  0  0  0  3  0  0  0  0  0  0
  -28.6530  -13.5150   20.8010 C   0  0  0  0  0  2  0  0  0  0  0  0
  -29.8810  -14.0330   20.1740 N   0  0  0  0  0  0  0  0  0  0  0  0
  -31.5860  -15.4010   19.7870 O   0  0  0  0  0  0  0  0  0  0  0  0
  -29.6450  -16.6060   20.5100 N   0  0  0  0  0  0  0  0  0  0  0  0
  -28.8600  -16.2290   21.0220 H   0  0  0  0  0  0  0  0  0  0  0  0
  -25.2380  -13.9100   20.4560 C   0  0  0  0  0  0  0  0  0  0  0  0
  -24.1770  -13.1380   20.8370 C   0  0  0  0  0  0  0  0  0  0  0  0
  -24.6390  -11.7860   20.7990 C   0  0  0  0  0  0  0  0  0  0  0  0
  -26.2760  -13.0340   20.1990 N   0  0  0  0  0  0  0  0  0  0  0  0
  -25.9290  -11.7480   20.4730 N   0  0  0  0  0  0  0  0  0  0  0  0
  -23.9070  -10.5260   20.9910 C   0  0  0  0  0  0  0  0  0  0  0  0
  -24.3360   -9.5620   21.9290 C   0  0  0  0  0  3  0  0  0  0  0  0
  -23.6050   -8.3690   22.1170 C   0  0  0  0  0  3  0  0  0  0  0  0
  -22.4310   -8.1320   21.3640 C   0  0  0  0  0  0  0  0  0  0  0  0
  -22.0190   -9.0850   20.4150 C   0  0  0  0  0  3  0  0  0  0  0  0
  -22.7500  -10.2690   20.2260 C   0  0  0  0  0  3  0  0  0  0  0  0
  -21.6710   -6.9920   21.4590 O   0  0  0  0  0  0  0  0  0  0  0  0
  -21.6050   -6.2640   22.6190 C   0  0  0  0  0  0  0  0  0  0  0  0
  -21.1490   -6.8280   23.8300 C   0  0  0  0  0  3  0  0  0  0  0  0
  -21.0310   -6.0260   24.9820 C   0  0  0  0  0  3  0  0  0  0  0  0
  -21.3600   -4.6590   24.9240 C   0  0  0  0  0  0  0  0  0  0  0  0
  -21.8080   -4.0910   23.7180 C   0  0  0  0  0  3  0  0  0  0  0  0
  -21.9270   -4.8920   22.5690 C   0  0  0  0  0  0  0  0  0  0  0  0
  -22.3380   -4.3350   21.4030 F   0  0  0  0  0  0  0  0  0  0  0  0
  -21.2400   -3.8860   26.0280 F   0  0  0  0  0  0  0  0  0  0  0  0
  -22.7830  -13.6200   21.1160 C   0  0  0  0  0  0  0  0  0  0  0  0
  -22.0550  -12.9350   21.9880 N   0  0  0  0  0  0  0  0  0  0  0  0
  -22.3520  -14.6510   20.6000 O   0  0  0  0  0  0  0  0  0  0  0  0
  -22.4130  -12.1020   22.4330 H   0  0  0  0  0  0  0  0  0  0  0  0
  -21.1250  -13.2520   22.2150 H   0  0  0  0  0  0  0  0  0  0  0  0
  -25.3990  -15.2800   20.2750 N   0  0  0  0  0  0  0  0  0  0  0  0
  -24.6330  -15.9340   20.3840 H   0  0  0  0  0  0  0  0  0  0  0  0
  -26.2330  -15.7060   19.8980 H   0  0  0  0  0  0  0  0  0  0  0  0
  -30.4940  -23.9130   21.5790 C   0  0  0  0  0  1  0  0  0  0  0  0
  -30.3990  -22.8270   20.6080 N   0  0  0  0  0  0  0  0  0  0  0  0
  -31.4060  -22.9390   19.5320 C   0  0  0  0  0  2  0  0  0  0  0  0
  -32.8770  -22.7860   20.0050 C   0  0  0  0  0  2  0  0  0  0  0  0
  -33.8750  -22.8500   17.7020 C   0  0  0  0  0  1  0  0  0  0  0  0
  -35.1480  -21.9240   19.5800 C   0  0  0  0  0  1  0  0  0  0  0  0
  -33.7960  -22.1540   19.0120 N   0  0  1  0  0  4  0  0  0  0  0  0
  -33.4240  -21.2340   18.8230 H   0  0  0  0  0  0  0  0  0  0  0  0
  -27.9840  -24.1520   20.2500 C   0  0  0  0  0  2  0  0  0  0  0  0
  -28.2050  -25.8140   20.2260 O   0  0  0  0  0  0  0  0  0  0  0  0
  -24.5920  -31.8340   23.1600 C   0  0  0  0  0  0  0  0  0  0  0  0
  -27.1830  -26.9170   20.1850 C   0  0  0  0  0  0  0  0  0  0  0  0
  -23.4150  -30.4250   21.5230 C   0  0  0  0  0  3  0  0  0  0  0  0
  -24.8780  -28.8110   20.1200 C   0  0  0  0  0  0  0  0  0  0  0  0
  -25.9840  -30.6360   21.3940 C   0  0  0  0  0  2  0  0  0  0  0  0
  -26.0650  -29.2200   20.7430 C   0  0  0  0  0  0  0  0  0  0  0  0
  -27.2110  -28.2950   20.7450 C   0  0  0  0  0  3  0  0  0  0  0  0
  -25.9630  -26.6710   19.5130 C   0  0  0  0  0  3  0  0  0  0  0  0
  -24.8540  -27.5590   19.4860 C   0  0  0  0  0  3  0  0  0  0  0  0
  -23.6540  -29.7280   20.1550 C   0  0  0  0  0  2  0  0  0  0  0  0
  -24.6860  -30.9930   22.0780 N   0  0  0  0  0  0  0  0  0  0  0  0
  -23.4970  -32.1240   23.6710 O   0  0  0  0  0  0  0  0  0  0  0  0
  -22.7180  -29.4320   22.4910 C   0  0  0  0  0  0  0  0  0  0  0  0
  -21.3860  -29.2770   22.3720 N   0  0  0  0  0  0  0  0  0  0  0  0
  -23.3800  -28.8010   23.3200 O   0  0  0  0  0  0  0  0  0  0  0  0
  -20.9040  -29.8360   21.6820 H   0  0  0  0  0  0  0  0  0  0  0  0
  -17.9950  -28.0940   22.8920 C   0  0  0  0  0  0  0  0  0  0  0  0
  -20.5580  -28.3410   23.1400 C   0  0  0  0  0  3  0  0  0  0  0  0
  -20.6430  -26.9120   22.5570 C   0  0  0  0  0  2  0  0  0  0  0  0
  -19.5320  -26.6040   21.5470 C   0  0  0  0  0  2  0  0  0  0  0  0
  -18.1570  -26.7500   22.2040 C   0  0  0  0  0  2  0  0  0  0  0  0
  -19.1220  -28.8490   23.3170 C   0  0  0  0  0  0  0  0  0  0  0  0
  -18.9110  -30.1060   23.9250 C   0  0  0  0  0  3  0  0  0  0  0  0
  -17.6090  -30.6090   24.1110 C   0  0  0  0  0  3  0  0  0  0  0  0
  -16.4980  -29.8500   23.7020 C   0  0  0  0  0  3  0  0  0  0  0  0
  -16.6930  -28.5950   23.0990 C   0  0  0  0  0  3  0  0  0  0  0  0
  -25.8540  -32.4850   23.8010 C   0  0  0  0  0  3  0  0  0  0  0  0
  -25.5220  -33.8810   24.1410 N   0  0  0  0  0  0  0  0  0  0  0  0
  -25.8420  -34.9510   23.3990 C   0  0  0  0  0  0  0  0  0  0  0  0
  -26.5080  -34.8690   22.3660 O   0  0  0  0  0  0  0  0  0  0  0  0
  -24.9310  -34.0190   24.9460 H   0  0  0  0  0  0  0  0  0  0  0  0
  -24.0980  -36.7400   23.0830 C   0  0  0  0  0  1  0  0  0  0  0  0
  -25.3460  -36.3320   23.8800 C   0  0  0  0  0  3  0  0  0  0  0  0
  -27.4760  -37.2330   24.7130 C   0  0  0  0  0  1  0  0  0  0  0  0
  -26.3700  -37.3960   23.7750 N   0  0  0  0  0  0  0  0  0  0  0  0
  -25.9550  -38.3110   23.9270 H   0  0  0  0  0  0  0  0  0  0  0  0
  -26.3610  -31.7210   25.0870 C   0  0  1  0  0  0  0  0  0  0  0  0
  -25.2580  -31.4790   26.1450 C   0  0  0  0  0  1  0  0  0  0  0  0
  -26.9580  -30.3450   24.7130 C   0  0  0  0  0  1  0  0  0  0  0  0
  -27.4990  -32.5270   25.7570 C   0  0  0  0  0  1  0  0  0  0  0  0
  1 54  1  0
  1 47  1  0
  2  3  2  0
  2  4  1  0
  3  6  1  0
  4  7  2  0
  6  1  1  0
  6  5  2  0
  7  5  1  0
  7 16  1  0
  8 14  1  0
  8 16  1  0
  9 14  1  0
 10 11  1  0
 10  9  1  0
 12 11  1  0
 12 21  1  0
 12 13  1  0
 14 13  1  0
 15  8  2  0
 16 17  1  0
 18 19  2  0
 19 38  1  0
 20 19  1  0
 20 23  1  0
 21 18  1  0
 21 22  1  0
 22 20  2  0
 23 24  1  0
 24 25  2  0
 26 29  1  0
 26 25  1  0
 27 26  2  0
 28 27  1  0
 28 23  2  0
 29 30  1  0
 30 31  1  0
 31 32  2  0
 33 32  1  0
 33 37  1  0
 34 33  2  0
 35 30  2  0
 35 34  1  0
 36 35  1  0
 38 39  1  0
 39 42  1  0
 39 41  1  0
 40 38  2  0
 43 44  1  0
 43 18  1  0
 45 43  1  0
 47 46  1  0
 48 49  1  0
 48 47  1  0
 50 52  1  0
 52 51  1  0
 52 49  1  0
 52 53  1  6
 55 54  1  0
 56 67  2  0
 57 55  1  0
 57 62  1  0
 58 66  1  0
 58 68  1  0
 59 65  1  0
 59 61  1  0
 60 66  1  0
 61 62  2  0
 61 60  1  0
 63 57  2  0
 64 63  1  0
 64 59  2  0
 65 58  1  0
 66 56  1  0
 68 70  2  0
 69 68  1  0
 71 69  1  0
 72 81  2  0
 72 77  1  0
 73 69  1  0
 73 77  1  0
 74 73  1  0
 75 76  1  0
 75 74  1  0
 76 72  1  0
 77 78  2  0
 78 79  1  0
 80 79  2  0
 81 80  1  0
 82 56  1  0
 82 83  1  0
 82 92  1  0
 83 86  1  0
 84 88  1  0
 84 83  1  0
 85 84  2  0
 88 87  1  0
 90 88  1  0
 90 91  1  0
 90 89  1  0
 92 95  1  1
 92 93  1  0
 94 92  1  0
M  ISO  4   8 100  16 100  54 101  55 101
M  END
>  <TORSDO>  (5) 
F 22

>  <SCORE>  (5) 
-14.788

>  <name>  (5) 
4

>  <ligand_id>  (5) 
4

>  <original_smiles>  (5) 
[H]c1c([H])c([H])c2c(c1[H])C([H])([H])C([H])([H])C([H])([H])C2([H])N([H])C(=O)C1([H])N(C(=O)C([H])(N([H])C(=O)C([H])(N([H])C([H])([H])[H])C([H])([H])[H])C(C([H])([H])[H])(C([H])([H])[H])C([H])([H])[H])C([H])([H])c2c([H])c(OC([H])([H])C([H])(c3c([H])c([H])c([H])c(N([H])C(=O)N4C([H])([H])C([H])([H])C([H])([H])C([H])(n5nc(-c6c([H])c([H])c(Oc7c([H])c([H])c(F)c([H])c7F)c([H])c6[H])c(C(=O)N([H])[H])c5N([H])[H])C4([H])[H])c3[H])N(C([H])([H])[H])C([H])([H])C([H])([H])[N+]([H])(C([H])([H])[H])C([H])([H])[H])c([H])c([H])c2C1([H])[H]

>  <smiles>  (5) 
[H]c1c([H])c([H])c2c(c1[H])C([H])([H])C([H])([H])C([H])([H])C2([H])N([H])C(=O)C1([H])N(C(=O)C([H])(N([H])C(=O)C([H])(N([H])C([H])([H])[H])C([H])([H])[H])C(C([H])([H])[H])(C([H])([H])[H])C([H])([H])[H])C([H])([H])c2c([H])c(OC([H])([H])C([H])(c3c([H])c([H])c([H])c(N([H])C(=O)N4C([H])([H])C([H])([H])C([H])([H])C([H])(n5nc(-c6c([H])c([H])c(Oc7c([H])c([H])c(F)c([H])c7F)c([H])c6[H])c(C(=O)N([H])[H])c5N([H])[H])C4([H])[H])c3[H])N(C([H])([H])[H])C([H])([H])C([H])([H])[N+]([H])(C([H])([H])[H])C([H])([H])[H])c([H])c([H])c2C1([H])[H]

$$$$
5:0:0
     RDKit          3D

 99108  0  0  1  0  0  0  0  0999 V2000
  -29.2380  -21.4180   21.1030 C   0  0  0  0  0  0  0  0  0  0  0  0
  -29.8070  -20.2010   20.9200 N   0  0  0  0  0  0  0  0  0  0  0  0
  -28.9290  -21.8640   22.2130 O   0  0  0  0  0  0  0  0  0  0  0  0
  -29.8790  -19.9030   19.9580 H   0  0  0  0  0  0  0  0  0  0  0  0
  -29.1590  -24.6750   20.4340 C   0  0  0  0  0  0  0  0  0  0  0  0
  -26.4910  -22.1910   19.6990 C   0  0  0  0  0  2  0  0  0  0  0  0
  -27.7390  -21.5900   19.0680 C   0  0  0  0  0  2  0  0  0  0  0  0
  -26.9170  -23.6160   20.0590 C   0  0  0  0  0  2  0  0  0  0  0  0
  -28.9010  -22.2450   19.8330 C   0  0  0  0  0  3  0  0  0  0  0  0
  -28.3810  -23.5960   20.1550 N   0  0  0  0  0  0  0  0  0  0  0  0
  -30.3900  -24.6230   20.3430 O   0  0  0  0  0  0  0  0  0  0  0  0
  -28.5140  -26.0000   20.9070 C   0  0  0  0  0  2  0  0  0  0  0  0
  -28.4540  -26.9810   19.8570 O   0  0  0  0  0  0  0  0  0  0  0  0
  -24.5800  -31.9830   23.1460 C   0  0  0  0  0  0  0  0  0  0  0  0
  -27.2970  -27.7210   19.8900 C   0  0  0  0  0  0  0  0  0  0  0  0
  -23.3890  -30.6040   21.4730 C   0  0  0  0  0  3  0  0  0  0  0  0
  -24.8660  -29.1520   19.9840 C   0  0  0  0  0  0  0  0  0  0  0  0
  -25.9030  -31.0370   21.2580 C   0  0  0  0  0  2  0  0  0  0  0  0
  -26.0170  -29.6900   20.5750 C   0  0  0  0  0  0  0  0  0  0  0  0
  -27.2400  -28.9800   20.5290 C   0  0  0  0  0  3  0  0  0  0  0  0
  -26.1360  -27.1980   19.2880 C   0  0  0  0  0  3  0  0  0  0  0  0
  -24.9190  -27.9030   19.3400 C   0  0  0  0  0  3  0  0  0  0  0  0
  -23.6000  -29.9720   20.0710 C   0  0  0  0  0  2  0  0  0  0  0  0
  -24.6430  -31.2210   22.0170 N   0  0  0  0  0  0  0  0  0  0  0  0
  -23.4980  -32.2080   23.7070 O   0  0  0  0  0  0  0  0  0  0  0  0
  -22.7760  -29.5360   22.4070 C   0  0  0  0  0  0  0  0  0  0  0  0
  -21.4590  -29.3100   22.2740 N   0  0  0  0  0  0  0  0  0  0  0  0
  -23.4810  -28.9150   23.2070 O   0  0  0  0  0  0  0  0  0  0  0  0
  -20.9500  -29.8650   21.6000 H   0  0  0  0  0  0  0  0  0  0  0  0
  -18.1280  -27.9890   22.7350 C   0  0  0  0  0  0  0  0  0  0  0  0
  -20.6750  -28.3250   23.0190 C   0  0  0  0  0  3  0  0  0  0  0  0
  -20.8280  -26.9150   22.4040 C   0  0  0  0  0  2  0  0  0  0  0  0
  -19.7380  -26.5810   21.3810 C   0  0  0  0  0  2  0  0  0  0  0  0
  -18.3510  -26.6640   22.0260 C   0  0  0  0  0  2  0  0  0  0  0  0
  -19.2200  -28.7770   23.1880 C   0  0  0  0  0  0  0  0  0  0  0  0
  -18.9580  -30.0170   23.8090 C   0  0  0  0  0  3  0  0  0  0  0  0
  -17.6360  -30.4690   23.9840 C   0  0  0  0  0  3  0  0  0  0  0  0
  -16.5590  -29.6780   23.5500 C   0  0  0  0  0  3  0  0  0  0  0  0
  -16.8060  -28.4390   22.9310 C   0  0  0  0  0  3  0  0  0  0  0  0
  -25.8560  -32.6250   23.7730 C   0  0  0  0  0  3  0  0  0  0  0  0
  -26.3900  -31.8450   25.0380 C   0  0  1  0  0  0  0  0  0  0  0  0
  -25.3000  -31.5640   26.0990 C   0  0  0  0  0  1  0  0  0  0  0  0
  -27.0050  -30.4890   24.6210 C   0  0  0  0  0  1  0  0  0  0  0  0
  -27.5200  -32.6550   25.7140 C   0  0  0  0  0  1  0  0  0  0  0  0
  -25.5300  -34.0150   24.1180 N   0  0  0  0  0  0  0  0  0  0  0  0
  -25.8540  -35.0780   23.3710 C   0  0  0  0  0  0  0  0  0  0  0  0
  -26.5280  -34.9940   22.3410 O   0  0  0  0  0  0  0  0  0  0  0  0
  -24.9310  -34.1550   24.9190 H   0  0  0  0  0  0  0  0  0  0  0  0
  -24.1030  -36.8510   23.0300 C   0  0  0  0  0  1  0  0  0  0  0  0
  -25.3470  -36.4550   23.8410 C   0  0  0  0  0  3  0  0  0  0  0  0
  -27.4640  -37.3620   24.6900 C   0  0  0  0  0  1  0  0  0  0  0  0
  -26.3660  -37.5220   23.7410 N   0  0  0  0  0  0  0  0  0  0  0  0
  -25.9480  -38.4360   23.8910 H   0  0  0  0  0  0  0  0  0  0  0  0
  -31.3780  -17.5280   23.8740 C   0  0  0  0  0  3  0  0  0  0  0  0
  -31.3280  -18.9080   24.1150 C   0  0  0  0  0  3  0  0  0  0  0  0
  -30.9320  -17.0210   22.6410 C   0  0  0  0  0  3  0  0  0  0  0  0
  -30.8150  -19.7700   23.1350 C   0  0  0  0  0  3  0  0  0  0  0  0
  -30.3980  -17.8700   21.6400 C   0  0  0  0  0  0  0  0  0  0  0  0
  -30.3180  -19.2810   21.8990 C   0  0  0  0  0  0  0  0  0  0  0  0
  -30.7100  -17.7450   19.0980 C   0  0  0  0  0  1  0  0  0  0  0  0
  -29.9140  -17.2330   20.3210 C   0  0  0  0  0  3  0  0  0  0  0  0
  -30.4980  -14.7650   19.8160 C   0  0  0  0  0  0  0  0  0  0  0  0
  -30.1520  -12.6390   18.6180 C   0  0  0  0  0  2  0  0  0  0  0  0
  -29.0900  -12.8700   17.5230 C   0  0  0  0  0  2  0  0  0  0  0  0
  -27.6720  -12.6710   18.0910 C   0  0  0  0  0  2  0  0  0  0  0  0
  -27.4390  -13.4520   19.4130 C   0  0  0  0  0  3  0  0  0  0  0  0
  -28.6020  -13.2110   20.4020 C   0  0  0  0  0  2  0  0  0  0  0  0
  -29.8580  -13.5680   19.7200 N   0  0  0  0  0  0  0  0  0  0  0  0
  -31.5940  -14.9700   19.2900 O   0  0  0  0  0  0  0  0  0  0  0  0
  -29.7520  -15.7560   20.3490 N   0  0  0  0  0  0  0  0  0  0  0  0
  -28.8740  -15.4420   20.7330 H   0  0  0  0  0  0  0  0  0  0  0  0
  -25.1060  -13.9700   20.3660 C   0  0  0  0  0  0  0  0  0  0  0  0
  -24.0970  -13.1560   20.8100 C   0  0  0  0  0  0  0  0  0  0  0  0
  -24.5870  -11.8200   20.6860 C   0  0  0  0  0  0  0  0  0  0  0  0
  -26.1450  -13.1250   20.0080 N   0  0  0  0  0  0  0  0  0  0  0  0
  -25.8430  -11.8250   20.2560 N   0  0  0  0  0  0  0  0  0  0  0  0
  -23.9150  -10.5310   20.9000 C   0  0  0  0  0  0  0  0  0  0  0  0
  -24.4050   -9.5890   21.8300 C   0  0  0  0  0  3  0  0  0  0  0  0
  -23.7320   -8.3640   22.0300 C   0  0  0  0  0  3  0  0  0  0  0  0
  -22.5540   -8.0750   21.3010 C   0  0  0  0  0  0  0  0  0  0  0  0
  -22.0840   -9.0060   20.3580 C   0  0  0  0  0  3  0  0  0  0  0  0
  -22.7580  -10.2230   20.1570 C   0  0  0  0  0  3  0  0  0  0  0  0
  -21.8480   -6.9020   21.4120 O   0  0  0  0  0  0  0  0  0  0  0  0
  -21.7970   -6.2020   22.5890 C   0  0  0  0  0  0  0  0  0  0  0  0
  -21.2960   -6.7760   23.7790 C   0  0  0  0  0  3  0  0  0  0  0  0
  -21.1960   -5.9980   24.9490 C   0  0  0  0  0  3  0  0  0  0  0  0
  -21.5860   -4.6450   24.9310 C   0  0  0  0  0  0  0  0  0  0  0  0
  -22.0780   -4.0700   23.7460 C   0  0  0  0  0  3  0  0  0  0  0  0
  -22.1800   -4.8450   22.5780 C   0  0  0  0  0  0  0  0  0  0  0  0
  -22.6350   -4.2810   21.4340 F   0  0  0  0  0  0  0  0  0  0  0  0
  -21.4820   -3.8930   26.0520 F   0  0  0  0  0  0  0  0  0  0  0  0
  -22.7210  -13.5840   21.2340 C   0  0  0  0  0  0  0  0  0  0  0  0
  -22.1020  -12.8420   22.1460 N   0  0  0  0  0  0  0  0  0  0  0  0
  -22.2040  -14.6080   20.7890 O   0  0  0  0  0  0  0  0  0  0  0  0
  -22.5330  -12.0090   22.5190 H   0  0  0  0  0  0  0  0  0  0  0  0
  -21.1810  -13.1070   22.4680 H   0  0  0  0  0  0  0  0  0  0  0  0
  -25.2150  -15.3490   20.2210 N   0  0  0  0  0  0  0  0  0  0  0  0
  -26.0180  -15.8260   19.8310 H   0  0  0  0  0  0  0  0  0  0  0  0
  -24.4350  -15.9730   20.4000 H   0  0  0  0  0  0  0  0  0  0  0  0
  1  3  2  0
  2  1  1  0
  2 59  1  0
  4  2  1  0
  5 12  1  0
  6  8  1  0
  7  6  1  0
  7  9  1  0
  8 10  1  0
  9 10  1  0
  9  1  1  0
 10  5  1  0
 11  5  2  0
 13 15  1  0
 13 12  1  0
 14 25  2  0
 15 20  1  0
 16 24  1  0
 16 26  1  0
 17 23  1  0
 17 19  1  0
 18 24  1  0
 19 18  1  0
 20 19  2  0
 21 22  1  0
 21 15  2  0
 22 17  2  0
 23 16  1  0
 24 14  1  0
 26 28  2  0
 27 26  1  0
 29 27  1  0
 30 39  2  0
 30 35  1  0
 31 27  1  0
 31 35  1  0
 32 31  1  0
 33 34  1  0
 33 32  1  0
 34 30  1  0
 35 36  2  0
 36 37  1  0
 38 37  2  0
 39 38  1  0
 40 14  1  0
 40 45  1  0
 40 41  1  0
 41 44  1  1
 41 42  1  0
 43 41  1  0
 45 48  1  0
 46 50  1  0
 46 45  1  0
 47 46  2  0
 50 49  1  0
 52 50  1  0
 52 53  1  0
 52 51  1  0
 54 55  1  0
 56 54  2  0
 57 55  2  0
 58 59  2  0
 58 56  1  0
 59 57  1  0
 61 60  1  0
 61 70  1  0
 61 58  1  0
 62 70  1  0
 63 68  1  0
 64 65  1  0
 64 63  1  0
 66 65  1  0
 66 75  1  0
 66 67  1  0
 68 62  1  0
 68 67  1  0
 69 62  2  0
 70 71  1  0
 72 73  2  0
 73 92  1  0
 74 73  1  0
 74 77  1  0
 75 76  1  0
 75 72  1  0
 76 74  2  0
 77 78  1  0
 78 79  2  0
 80 83  1  0
 80 79  1  0
 81 80  2  0
 82 81  1  0
 82 77  2  0
 83 84  1  0
 84 85  1  0
 85 86  2  0
 87 86  1  0
 87 91  1  0
 88 87  2  0
 89 84  2  0
 89 88  1  0
 90 89  1  0
 92 93  1  0
 93 96  1  0
 93 95  1  0
 94 92  2  0
 97 72  1  0
 97 99  1  0
 98 97  1  0
M  ISO  4  12 101  13 101  62 100  70 100
M  END
>  <TORSDO>  (6) 
F 20

>  <SCORE>  (6) 
-10.966

>  <name>  (6) 
5

>  <ligand_id>  (6) 
5

>  <original_smiles>  (6) 
[H]c1c([H])c([H])c(C([H])(N([H])C(=O)N2C([H])([H])C([H])([H])C([H])([H])C([H])(n3nc(-c4c([H])c([H])c(Oc5c([H])c([H])c(F)c([H])c5F)c([H])c4[H])c(C(=O)N([H])[H])c3N([H])[H])C2([H])[H])C([H])([H])[H])c(N([H])C(=O)C2([H])N(C(=O)C([H])([H])Oc3c([H])c([H])c4c(c3[H])C([H])([H])N(C(=O)C([H])(N([H])C(=O)C([H])(N([H])C([H])([H])[H])C([H])([H])[H])C(C([H])([H])[H])(C([H])([H])[H])C([H])([H])[H])C([H])(C(=O)N([H])C3([H])c5c([H])c([H])c([H])c([H])c5C([H])([H])C([H])([H])C3([H])[H])C4([H])[H])C([H])([H])C([H])([H])C2([H])[H])c1[H]

>  <smiles>  (6) 
[H]c1c([H])c([H])c(C([H])(N([H])C(=O)N2C([H])([H])C([H])([H])C([H])([H])C([H])(n3nc(-c4c([H])c([H])c(Oc5c([H])c([H])c(F)c([H])c5F)c([H])c4[H])c(C(=O)N([H])[H])c3N([H])[H])C2([H])[H])C([H])([H])[H])c(N([H])C(=O)C2([H])N(C(=O)C([H])([H])Oc3c([H])c([H])c4c(c3[H])C([H])([H])N(C(=O)C([H])(N([H])C(=O)C([H])(N([H])C([H])([H])[H])C([H])([H])[H])C(C([H])([H])[H])(C([H])([H])[H])C([H])([H])[H])C([H])(C(=O)N([H])C3([H])c5c([H])c([H])c([H])c([H])c5C([H])([H])C([H])([H])C3([H])[H])C4([H])[H])C([H])([H])C([H])([H])C2([H])[H])c1[H]

$$$$
6:0:0
     RDKit          3D

101110  0  0  1  0  0  0  0  0999 V2000
  -30.5500  -22.5430   20.0490 C   0  0  0  0  0  2  0  0  0  0  0  0
  -28.3780  -23.4530   20.4650 C   0  0  0  0  0  2  0  0  0  0  0  0
  -29.6890  -21.4810   20.7730 C   0  0  0  0  0  3  0  0  0  0  0  0
  -28.2490  -21.9100   20.4230 C   0  0  2  0  0  0  0  0  0  0  0  0
  -27.8090  -21.4190   19.0250 C   0  0  0  0  0  1  0  0  0  0  0  0
  -27.2200  -21.4160   21.4600 C   0  0  0  0  0  1  0  0  0  0  0  0
  -29.7430  -23.8100   19.9970 N   0  0  1  0  0  4  0  0  0  0  0  0
  -29.6740  -24.0370   19.0140 H   0  0  0  0  0  0  0  0  0  0  0  0
  -30.0300  -19.2790   19.3810 C   0  0  0  0  0  3  0  0  0  0  0  0
  -30.2700  -17.8790   19.3280 C   0  0  0  0  0  3  0  0  0  0  0  0
  -30.3150  -19.2290   21.7830 C   0  0  0  0  0  3  0  0  0  0  0  0
  -30.0300  -19.9740   20.6160 C   0  0  0  0  0  0  0  0  0  0  0  0
  -30.5430  -17.8350   21.7430 C   0  0  0  0  0  0  0  0  0  0  0  0
  -30.5100  -17.1340   20.5110 C   0  0  0  0  0  0  0  0  0  0  0  0
  -30.8050  -17.0980   23.0470 C   0  0  0  0  0  1  0  0  0  0  0  0
  -31.1470  -14.8150   19.6950 C   0  0  0  0  0  0  0  0  0  0  0  0
  -30.8060  -12.6180   18.6010 C   0  0  0  0  0  2  0  0  0  0  0  0
  -29.7540  -12.7710   17.4820 C   0  0  0  0  0  2  0  0  0  0  0  0
  -28.3240  -12.6280   18.0410 C   0  0  0  0  0  2  0  0  0  0  0  0
  -28.0890  -13.4970   19.3040 C   0  0  0  0  0  3  0  0  0  0  0  0
  -29.2350  -13.2920   20.3210 C   0  0  0  0  0  2  0  0  0  0  0  0
  -30.5100  -13.6090   19.6480 N   0  0  0  0  0  0  0  0  0  0  0  0
  -32.1500  -15.0700   19.0190 O   0  0  0  0  0  0  0  0  0  0  0  0
  -30.6020  -15.7010   20.5520 N   0  0  0  0  0  0  0  0  0  0  0  0
  -29.9850  -15.2670   21.2210 H   0  0  0  0  0  0  0  0  0  0  0  0
  -25.7900  -14.1300   20.2790 C   0  0  0  0  0  0  0  0  0  0  0  0
  -24.7420  -13.3680   20.7190 C   0  0  0  0  0  0  0  0  0  0  0  0
  -25.1560  -12.0080   20.5760 C   0  0  0  0  0  0  0  0  0  0  0  0
  -26.7810  -13.2350   19.9010 N   0  0  0  0  0  0  0  0  0  0  0  0
  -26.4060  -11.9500   20.1340 N   0  0  0  0  0  0  0  0  0  0  0  0
  -24.4150  -10.7560   20.7810 C   0  0  0  0  0  0  0  0  0  0  0  0
  -24.8000   -9.8260   21.7740 C   0  0  0  0  0  3  0  0  0  0  0  0
  -24.0610   -8.6380   21.9640 C   0  0  0  0  0  3  0  0  0  0  0  0
  -22.9260   -8.3710   21.1640 C   0  0  0  0  0  0  0  0  0  0  0  0
  -22.5600   -9.2900   20.1640 C   0  0  0  0  0  3  0  0  0  0  0  0
  -23.2990  -10.4700   19.9710 C   0  0  0  0  0  3  0  0  0  0  0  0
  -22.1650   -7.2310   21.2600 O   0  0  0  0  0  0  0  0  0  0  0  0
  -21.8890   -6.6500   22.4720 C   0  0  0  0  0  0  0  0  0  0  0  0
  -21.2420   -7.3600   23.5070 C   0  0  0  0  0  3  0  0  0  0  0  0
  -20.9140   -6.7040   24.7100 C   0  0  0  0  0  3  0  0  0  0  0  0
  -21.2220   -5.3410   24.8780 C   0  0  0  0  0  0  0  0  0  0  0  0
  -21.8620   -4.6320   23.8450 C   0  0  0  0  0  3  0  0  0  0  0  0
  -22.1910   -5.2840   22.6440 C   0  0  0  0  0  0  0  0  0  0  0  0
  -22.7870   -4.5920   21.6440 F   0  0  0  0  0  0  0  0  0  0  0  0
  -20.9000   -4.7090   26.0300 F   0  0  0  0  0  0  0  0  0  0  0  0
  -23.3950  -13.8650   21.1570 C   0  0  0  0  0  0  0  0  0  0  0  0
  -22.7590  -13.1710   22.0940 N   0  0  0  0  0  0  0  0  0  0  0  0
  -22.9190  -14.9050   20.7050 O   0  0  0  0  0  0  0  0  0  0  0  0
  -23.1580  -12.3300   22.4830 H   0  0  0  0  0  0  0  0  0  0  0  0
  -21.8600  -13.4870   22.4280 H   0  0  0  0  0  0  0  0  0  0  0  0
  -25.9800  -15.5020   20.1530 N   0  0  0  0  0  0  0  0  0  0  0  0
  -25.2540  -16.1740   20.3780 H   0  0  0  0  0  0  0  0  0  0  0  0
  -26.8210  -15.9340   19.7900 H   0  0  0  0  0  0  0  0  0  0  0  0
  -30.3700  -25.0290   20.6230 C   0  0  0  0  0  3  0  0  0  0  0  0
  -31.6180  -25.4610   19.8370 C   0  0  0  0  0  0  0  0  0  0  0  0
  -32.6580  -25.9550   20.5020 N   0  0  0  0  0  0  0  0  0  0  0  0
  -31.6570  -25.3240   18.6150 O   0  0  0  0  0  0  0  0  0  0  0  0
  -32.6450  -26.0560   21.5070 H   0  0  0  0  0  0  0  0  0  0  0  0
  -33.4890  -26.2360   20.0000 H   0  0  0  0  0  0  0  0  0  0  0  0
  -29.4270  -26.2670   20.8630 C   0  0  0  0  0  2  0  0  0  0  0  0
  -29.0850  -27.0350   19.6950 O   0  0  0  0  0  0  0  0  0  0  0  0
  -24.6850  -31.5940   23.0480 C   0  0  0  0  0  0  0  0  0  0  0  0
  -27.8660  -27.6770   19.7610 C   0  0  0  0  0  0  0  0  0  0  0  0
  -23.6720  -30.1650   21.3020 C   0  0  0  0  0  3  0  0  0  0  0  0
  -25.3150  -28.8970   19.8160 C   0  0  0  0  0  0  0  0  0  0  0  0
  -26.1420  -30.8240   21.1750 C   0  0  0  0  0  2  0  0  0  0  0  0
  -26.3960  -29.5100   20.4620 C   0  0  0  0  0  0  0  0  0  0  0  0
  -27.6770  -28.9060   20.4390 C   0  0  0  0  0  3  0  0  0  0  0  0
  -26.7700  -27.0820   19.1050 C   0  0  0  0  0  3  0  0  0  0  0  0
  -25.4970  -27.6800   19.1370 C   0  0  0  0  0  3  0  0  0  0  0  0
  -23.9780  -29.6000   19.8890 C   0  0  0  0  0  2  0  0  0  0  0  0
  -24.8480  -30.8740   21.9020 N   0  0  0  0  0  0  0  0  0  0  0  0
  -23.5740  -31.7050   23.5840 O   0  0  0  0  0  0  0  0  0  0  0  0
  -23.1330  -29.0190   22.1870 C   0  0  0  0  0  0  0  0  0  0  0  0
  -21.8500  -28.6670   21.9990 N   0  0  0  0  0  0  0  0  0  0  0  0
  -23.8670  -28.4490   22.9990 O   0  0  0  0  0  0  0  0  0  0  0  0
  -21.3130  -29.1880   21.3200 H   0  0  0  0  0  0  0  0  0  0  0  0
  -18.6650  -26.9850   22.2780 C   0  0  0  0  0  0  0  0  0  0  0  0
  -21.1430  -27.5900   22.6900 C   0  0  0  0  0  3  0  0  0  0  0  0
  -21.4770  -26.2150   22.0670 C   0  0  0  0  0  2  0  0  0  0  0  0
  -20.4800  -25.7850   20.9860 C   0  0  0  0  0  2  0  0  0  0  0  0
  -19.0630  -25.7050   21.5630 C   0  0  0  0  0  2  0  0  0  0  0  0
  -19.6410  -27.8770   22.7940 C   0  0  0  0  0  0  0  0  0  0  0  0
  -19.2170  -29.0700   23.4200 C   0  0  0  0  0  3  0  0  0  0  0  0
  -17.8470  -29.3740   23.5350 C   0  0  0  0  0  3  0  0  0  0  0  0
  -16.8850  -28.4800   23.0360 C   0  0  0  0  0  3  0  0  0  0  0  0
  -17.2930  -27.2870   22.4150 C   0  0  0  0  0  3  0  0  0  0  0  0
  -25.8820  -32.3310   23.7290 C   0  0  0  0  0  3  0  0  0  0  0  0
  -26.4360  -31.5760   24.9980 C   0  0  1  0  0  0  0  0  0  0  0  0
  -25.3400  -31.1920   26.0200 C   0  0  0  0  0  1  0  0  0  0  0  0
  -27.1720  -30.2790   24.5860 C   0  0  0  0  0  1  0  0  0  0  0  0
  -27.4760  -32.4630   25.7230 C   0  0  0  0  0  1  0  0  0  0  0  0
  -25.4260  -33.6810   24.0840 N   0  0  0  0  0  0  0  0  0  0  0  0
  -25.6830  -34.7820   23.3660 C   0  0  0  0  0  0  0  0  0  0  0  0
  -26.4000  -34.7750   22.3610 O   0  0  0  0  0  0  0  0  0  0  0  0
  -24.7890  -33.7530   24.8640 H   0  0  0  0  0  0  0  0  0  0  0  0
  -23.8030  -36.4090   22.9860 C   0  0  0  0  0  1  0  0  0  0  0  0
  -25.0450  -36.1030   23.8390 C   0  0  0  0  0  3  0  0  0  0  0  0
  -27.0510  -37.1610   24.7800 C   0  0  0  0  0  1  0  0  0  0  0  0
  -25.9740  -37.2540   23.7980 N   0  0  0  0  0  0  0  0  0  0  0  0
  -25.4740  -38.1250   23.9560 H   0  0  0  0  0  0  0  0  0  0  0  0
  1  3  1  0
  3 12  1  0
  4  2  1  0
  4  3  1  0
  4  6  1  1
  5  4  1  0
  7  1  1  0
  7  2  1  0
  7 54  1  0
  7  8  1  6
  9 12  1  0
 10  9  2  0
 10 14  1  0
 12 11  2  0
 13 11  1  0
 13 15  1  0
 14 24  1  0
 14 13  2  0
 16 24  1  0
 17 22  1  0
 18 19  1  0
 18 17  1  0
 20 19  1  0
 20 29  1  0
 20 21  1  0
 22 16  1  0
 22 21  1  0
 23 16  2  0
 24 25  1  0
 26 27  2  0
 27 46  1  0
 28 27  1  0
 28 31  1  0
 29 30  1  0
 29 26  1  0
 30 28  2  0
 31 32  1  0
 32 33  2  0
 34 37  1  0
 34 33  1  0
 35 34  2  0
 36 35  1  0
 36 31  2  0
 37 38  1  0
 38 43  2  0
 38 39  1  0
 39 40  2  0
 40 41  1  0
 41 45  1  0
 42 41  2  0
 43 42  1  0
 44 43  1  0
 46 47  1  0
 47 50  1  0
 47 49  1  0
 48 46  2  0
 51 26  1  0
 51 52  1  0
 53 51  1  0
 54 60  1  0
 55 56  1  0
 55 54  1  0
 56 58  1  0
 57 55  2  0
 59 56  1  0
 61 63  1  0
 61 60  1  0
 62 73  2  0
 63 68  1  0
 64 72  1  0
 64 74  1  0
 65 71  1  0
 65 67  1  0
 66 72  1  0
 67 66  1  0
 68 67  2  0
 69 70  1  0
 69 63  2  0
 70 65  2  0
 71 64  1  0
 72 62  1  0
 74 76  2  0
 75 74  1  0
 77 75  1  0
 78 87  2  0
 78 83  1  0
 79 75  1  0
 79 83  1  0
 80 79  1  0
 81 82  1  0
 81 80  1  0
 82 78  1  0
 83 84  2  0
 84 85  1  0
 86 85  2  0
 87 86  1  0
 88 62  1  0
 88 93  1  0
 88 89  1  0
 89 92  1  1
 89 90  1  0
 91 89  1  0
 93 96  1  0
 94 98  1  0
 94 93  1  0
 95 94  2  0
 98 97  1  0
100 98  1  0
100101  1  0
100 99  1  0
M  ISO  4  16 100  24 100  60 101  61 101
M  END
>  <TORSDO>  (7) 
F 20

>  <SCORE>  (7) 
-10.442

>  <name>  (7) 
6

>  <ligand_id>  (7) 
6

>  <original_smiles>  (7) 
[H]c1c([H])c([H])c2c(c1[H])C([H])([H])C([H])([H])C([H])([H])C2([H])N([H])C(=O)C1([H])N(C(=O)C([H])(N([H])C(=O)C([H])(N([H])C([H])([H])[H])C([H])([H])[H])C(C([H])([H])[H])(C([H])([H])[H])C([H])([H])[H])C([H])([H])c2c([H])c(OC([H])([H])C([H])(C(=O)N([H])[H])[N+]3([H])C([H])([H])C([H])(c4c([H])c([H])c(N([H])C(=O)N5C([H])([H])C([H])([H])C([H])([H])C([H])(n6nc(-c7c([H])c([H])c(Oc8c([H])c([H])c(F)c([H])c8F)c([H])c7[H])c(C(=O)N([H])[H])c6N([H])[H])C5([H])[H])c(C([H])([H])[H])c4[H])C(C([H])([H])[H])(C([H])([H])[H])C3([H])[H])c([H])c([H])c2C1([H])[H]

>  <smiles>  (7) 
[H]c1c([H])c([H])c2c(c1[H])C([H])([H])C([H])([H])C([H])([H])C2([H])N([H])C(=O)C1([H])N(C(=O)C([H])(N([H])C(=O)C([H])(N([H])C([H])([H])[H])C([H])([H])[H])C(C([H])([H])[H])(C([H])([H])[H])C([H])([H])[H])C([H])([H])c2c([H])c(OC([H])([H])C([H])(C(=O)N([H])[H])[N+]3([H])C([H])([H])C([H])(c4c([H])c([H])c(N([H])C(=O)N5C([H])([H])C([H])([H])C([H])([H])C([H])(n6nc(-c7c([H])c([H])c(Oc8c([H])c([H])c(F)c([H])c8F)c([H])c7[H])c(C(=O)N([H])[H])c6N([H])[H])C5([H])[H])c(C([H])([H])[H])c4[H])C(C([H])([H])[H])(C([H])([H])[H])C3([H])[H])c([H])c([H])c2C1([H])[H]

$$$$
7:0:0
     RDKit          3D

105115  0  0  1  0  0  0  0  0999 V2000
  -30.9140  -19.6690   22.0830 C   0  0  0  0  0  3  0  0  0  0  0  0
  -31.8090  -17.6920   20.3280 C   0  0  0  0  0  3  0  0  0  0  0  0
  -30.9770  -18.3300   22.5330 C   0  0  0  0  0  0  0  0  0  0  0  0
  -31.4380  -17.3290   21.6380 C   0  0  0  0  0  0  0  0  0  0  0  0
  -31.2790  -20.0440   20.7680 C   0  0  0  0  0  0  0  0  0  0  0  0
  -31.7350  -19.0250   19.8890 C   0  0  0  0  0  0  0  0  0  0  0  0
  -32.1100  -19.2940   18.6150 F   0  0  0  0  0  0  0  0  0  0  0  0
  -31.3740  -18.8020   25.0120 C   0  0  0  0  0  2  0  0  0  0  0  0
  -29.0480  -18.2520   24.2090 C   0  0  0  0  0  2  0  0  0  0  0  0
  -30.9360  -18.4500   26.4470 C   0  0  0  0  0  2  0  0  0  0  0  0
  -28.6540  -17.9090   25.6590 C   0  0  0  0  0  2  0  0  0  0  0  0
  -30.5530  -18.0140   23.9730 C   0  0  0  0  0  3  0  0  0  0  0  0
  -29.4820  -18.6530   26.6350 N   0  0  0  0  0  4  0  0  0  0  0  0
  -29.2720  -19.6360   26.5710 H   0  0  0  0  0  0  0  0  0  0  0  0
  -29.2330  -18.3610   27.5660 H   0  0  0  0  0  0  0  0  0  0  0  0
  -31.4250  -23.4140   19.1930 C   0  0  0  0  0  2  0  0  0  0  0  0
  -31.9520  -21.9850   19.2920 C   0  0  0  0  0  2  0  0  0  0  0  0
  -29.9490  -22.1470   20.5820 C   0  0  0  0  0  2  0  0  0  0  0  0
  -29.9240  -23.2550   19.5110 C   0  0  0  0  0  3  0  0  0  0  0  0
  -31.1890  -21.4050   20.3860 N   0  0  0  0  0  0  0  0  0  0  0  0
  -29.5910  -25.7120   20.1270 C   0  0  0  0  0  0  0  0  0  0  0  0
  -27.6980  -24.1380   20.0310 C   0  0  0  0  0  1  0  0  0  0  0  0
  -29.1380  -24.4390   19.9460 N   0  0  0  0  0  0  0  0  0  0  0  0
  -30.7710  -26.0470   19.9890 O   0  0  0  0  0  0  0  0  0  0  0  0
  -28.5970  -26.8220   20.5100 C   0  0  0  0  0  2  0  0  0  0  0  0
  -27.8350  -27.1790   19.3570 O   0  0  0  0  0  0  0  0  0  0  0  0
  -24.4750  -32.0640   23.3130 C   0  0  0  0  0  0  0  0  0  0  0  0
  -26.7060  -27.9160   19.6020 C   0  0  0  0  0  0  0  0  0  0  0  0
  -23.0700  -30.8160   21.7010 C   0  0  0  0  0  3  0  0  0  0  0  0
  -24.3380  -29.3950   20.0010 C   0  0  0  0  0  0  0  0  0  0  0  0
  -25.5590  -31.1810   21.2580 C   0  0  0  0  0  2  0  0  0  0  0  0
  -25.5540  -29.8660   20.5090 C   0  0  0  0  0  0  0  0  0  0  0  0
  -26.7420  -29.1310   20.3190 C   0  0  0  0  0  3  0  0  0  0  0  0
  -25.4820  -27.4540   19.0820 C   0  0  0  0  0  3  0  0  0  0  0  0
  -24.2920  -28.1830   19.2890 C   0  0  0  0  0  3  0  0  0  0  0  0
  -23.1160  -30.2470   20.2560 C   0  0  0  0  0  2  0  0  0  0  0  0
  -24.3920  -31.3640   22.1480 N   0  0  0  0  0  0  0  0  0  0  0  0
  -23.4660  -32.2980   23.9940 O   0  0  0  0  0  0  0  0  0  0  0  0
  -22.5120  -29.7230   22.6410 C   0  0  0  0  0  0  0  0  0  0  0  0
  -21.1980  -29.4640   22.5400 N   0  0  0  0  0  0  0  0  0  0  0  0
  -23.2570  -29.1120   23.4110 O   0  0  0  0  0  0  0  0  0  0  0  0
  -20.6550  -30.0160   21.8900 H   0  0  0  0  0  0  0  0  0  0  0  0
  -17.9570  -27.9230   22.9380 C   0  0  0  0  0  0  0  0  0  0  0  0
  -20.4630  -28.4480   23.2910 C   0  0  0  0  0  3  0  0  0  0  0  0
  -20.7350  -27.0340   22.7300 C   0  0  0  0  0  2  0  0  0  0  0  0
  -19.7080  -26.5910   21.6850 C   0  0  0  0  0  2  0  0  0  0  0  0
  -18.2980  -26.5950   22.2820 C   0  0  0  0  0  2  0  0  0  0  0  0
  -18.9750  -28.8000   23.3970 C   0  0  0  0  0  0  0  0  0  0  0  0
  -18.6070  -30.0380   23.9670 C   0  0  0  0  0  3  0  0  0  0  0  0
  -17.2530  -30.4030   24.0820 C   0  0  0  0  0  3  0  0  0  0  0  0
  -16.2490  -29.5240   23.6410 C   0  0  0  0  0  3  0  0  0  0  0  0
  -16.6010  -28.2860   23.0750 C   0  0  0  0  0  3  0  0  0  0  0  0
  -25.8350  -32.6240   23.8380 C   0  0  0  0  0  3  0  0  0  0  0  0
  -25.6190  -34.0270   24.2150 N   0  0  0  0  0  0  0  0  0  0  0  0
  -25.9160  -35.0770   23.4370 C   0  0  0  0  0  0  0  0  0  0  0  0
  -26.4770  -34.9630   22.3440 O   0  0  0  0  0  0  0  0  0  0  0  0
  -25.1110  -34.1930   25.0720 H   0  0  0  0  0  0  0  0  0  0  0  0
  -24.2250  -36.9300   23.2820 C   0  0  0  0  0  1  0  0  0  0  0  0
  -25.5290  -36.4750   23.9550 C   0  0  0  0  0  3  0  0  0  0  0  0
  -27.7710  -37.2760   24.5590 C   0  0  0  0  0  1  0  0  0  0  0  0
  -26.5790  -37.4950   23.7440 N   0  0  0  0  0  0  0  0  0  0  0  0
  -26.2240  -38.4250   23.9490 H   0  0  0  0  0  0  0  0  0  0  0  0
  -26.4220  -31.8000   25.0490 C   0  0  1  0  0  0  0  0  0  0  0  0
  -25.4160  -31.5890   26.2030 C   0  0  0  0  0  1  0  0  0  0  0  0
  -26.9010  -30.4070   24.5780 C   0  0  0  0  0  1  0  0  0  0  0  0
  -27.6630  -32.5240   25.6230 C   0  0  0  0  0  1  0  0  0  0  0  0
  -31.5540  -15.8620   22.0250 C   0  0  0  0  0  2  0  0  0  0  0  0
  -30.6120  -14.5500   20.1350 C   0  0  0  0  0  0  0  0  0  0  0  0
  -30.1490  -12.4810   18.8860 C   0  0  0  0  0  2  0  0  0  0  0  0
  -29.1280  -12.6350   17.7500 C   0  0  0  0  0  2  0  0  0  0  0  0
  -27.6980  -12.4570   18.2860 C   0  0  0  0  0  2  0  0  0  0  0  0
  -27.4180  -13.3500   19.5210 C   0  0  0  0  0  3  0  0  0  0  0  0
  -28.5330  -13.2050   20.5780 C   0  0  0  0  0  2  0  0  0  0  0  0
  -29.8400  -13.4560   19.9400 N   0  0  0  0  0  0  0  0  0  0  0  0
  -31.4590  -14.9470   19.3310 O   0  0  0  0  0  0  0  0  0  0  0  0
  -30.5570  -15.0100   21.3890 N   0  0  0  0  0  0  0  0  0  0  0  0
  -29.8870  -14.5610   21.9930 H   0  0  0  0  0  0  0  0  0  0  0  0
  -25.0840  -13.9500   20.4330 C   0  0  0  0  0  0  0  0  0  0  0  0
  -24.0370  -13.1720   20.8500 C   0  0  0  0  0  0  0  0  0  0  0  0
  -24.4800  -11.8190   20.7300 C   0  0  0  0  0  0  0  0  0  0  0  0
  -26.1000  -13.0710   20.0900 N   0  0  0  0  0  0  0  0  0  0  0  0
  -25.7430  -11.7810   20.3240 N   0  0  0  0  0  0  0  0  0  0  0  0
  -23.7570  -10.5550   20.9270 C   0  0  0  0  0  0  0  0  0  0  0  0
  -24.2480   -9.5490   21.7900 C   0  0  0  0  0  3  0  0  0  0  0  0
  -23.5260   -8.3510   21.9750 C   0  0  0  0  0  3  0  0  0  0  0  0
  -22.2990   -8.1490   21.2990 C   0  0  0  0  0  0  0  0  0  0  0  0
  -21.8260   -9.1430   20.4250 C   0  0  0  0  0  3  0  0  0  0  0  0
  -22.5490  -10.3330   20.2370 C   0  0  0  0  0  3  0  0  0  0  0  0
  -21.5430   -7.0060   21.3980 O   0  0  0  0  0  0  0  0  0  0  0  0
  -21.5800   -6.2130   22.5180 C   0  0  0  0  0  0  0  0  0  0  0  0
  -21.2380   -6.7110   23.7940 C   0  0  0  0  0  3  0  0  0  0  0  0
  -21.2210   -5.8440   24.9060 C   0  0  0  0  0  3  0  0  0  0  0  0
  -21.5370   -4.4820   24.7420 C   0  0  0  0  0  0  0  0  0  0  0  0
  -21.8720   -3.9840   23.4700 C   0  0  0  0  0  3  0  0  0  0  0  0
  -21.8900   -4.8470   22.3610 C   0  0  0  0  0  0  0  0  0  0  0  0
  -22.1930   -4.3580   21.1350 F   0  0  0  0  0  0  0  0  0  0  0  0
  -21.5130   -3.6480   25.8070 F   0  0  0  0  0  0  0  0  0  0  0  0
  -22.6680  -13.6480   21.2460 C   0  0  0  0  0  0  0  0  0  0  0  0
  -22.0080  -12.9300   22.1470 N   0  0  0  0  0  0  0  0  0  0  0  0
  -22.1980  -14.6910   20.7930 O   0  0  0  0  0  0  0  0  0  0  0  0
  -22.4030  -12.0860   22.5340 H   0  0  0  0  0  0  0  0  0  0  0  0
  -21.0930  -13.2280   22.4550 H   0  0  0  0  0  0  0  0  0  0  0  0
  -25.2520  -15.3250   20.3010 N   0  0  0  0  0  0  0  0  0  0  0  0
  -24.4890  -15.9750   20.4540 H   0  0  0  0  0  0  0  0  0  0  0  0
  -26.0690  -15.7610   19.8940 H   0  0  0  0  0  0  0  0  0  0  0  0
  1  3  1  0
  2  4  1  0
  3 12  1  0
  4 67  1  0
  4  3  2  0
  5  1  2  0
  6  2  2  0
  6  5  1  0
  7  6  1  0
  8 10  1  0
  9 11  1  0
 10 13  1  0
 11 13  1  0
 12  9  1  0
 12  8  1  0
 13 15  1  0
 14 13  1  0
 16 17  1  0
 16 19  1  0
 17 20  1  0
 19 23  1  0
 19 18  1  0
 20 18  1  0
 20  5  1  0
 21 25  1  0
 23 22  1  0
 23 21  1  0
 24 21  2  0
 26 28  1  0
 26 25  1  0
 27 38  2  0
 28 33  1  0
 29 37  1  0
 29 39  1  0
 30 36  1  0
 30 32  1  0
 31 37  1  0
 32 31  1  0
 33 32  2  0
 34 35  1  0
 34 28  2  0
 35 30  2  0
 36 29  1  0
 37 27  1  0
 39 41  2  0
 40 39  1  0
 42 40  1  0
 43 52  2  0
 43 48  1  0
 44 40  1  0
 44 48  1  0
 45 44  1  0
 46 47  1  0
 46 45  1  0
 47 43  1  0
 48 49  2  0
 49 50  1  0
 51 50  2  0
 52 51  1  0
 53 27  1  0
 53 54  1  0
 53 63  1  0
 54 57  1  0
 55 59  1  0
 55 54  1  0
 56 55  2  0
 59 58  1  0
 61 62  1  0
 61 59  1  0
 61 60  1  0
 63 66  1  1
 63 64  1  0
 65 63  1  0
 68 76  1  0
 69 74  1  0
 70 71  1  0
 70 69  1  0
 72 71  1  0
 72 81  1  0
 72 73  1  0
 74 68  1  0
 74 73  1  0
 75 68  2  0
 76 77  1  0
 76 67  1  0
 78 79  2  0
 79 98  1  0
 80 79  1  0
 80 83  1  0
 81 82  1  0
 81 78  1  0
 82 80  2  0
 83 84  1  0
 84 85  2  0
 86 89  1  0
 86 85  1  0
 87 86  2  0
 88 87  1  0
 88 83  2  0
 89 90  1  0
 90 91  1  0
 91 92  2  0
 93 92  1  0
 93 97  1  0
 94 93  2  0
 95 90  2  0
 95 94  1  0
 96 95  1  0
 98 99  1  0
 99102  1  0
 99101  1  0
100 98  2  0
103 78  1  0
103104  1  0
105103  1  0
M  ISO  4  25 101  26 101  68 100  76 100
M  END
>  <TORSDO>  (8) 
F 21

>  <SCORE>  (8) 
5.711

>  <name>  (8) 
7

>  <ligand_id>  (8) 
7

>  <original_smiles>  (8) 
[H]c1c([H])c([H])c2c(c1[H])C([H])([H])C([H])([H])C([H])([H])C2([H])N([H])C(=O)C1([H])N(C(=O)C([H])(N([H])C(=O)C([H])(N([H])C([H])([H])[H])C([H])([H])[H])C(C([H])([H])[H])(C([H])([H])[H])C([H])([H])[H])C([H])([H])c2c([H])c(OC([H])([H])C(=O)N(C([H])([H])[H])C3([H])C([H])([H])N(c4c([H])c(C5([H])C([H])([H])C([H])([H])[N+]([H])([H])C([H])([H])C5([H])[H])c(C([H])([H])N([H])C(=O)N5C([H])([H])C([H])([H])C([H])([H])C([H])(n6nc(-c7c([H])c([H])c(Oc8c([H])c([H])c(F)c([H])c8F)c([H])c7[H])c(C(=O)N([H])[H])c6N([H])[H])C5([H])[H])c([H])c4F)C([H])([H])C3([H])[H])c([H])c([H])c2C1([H])[H]

>  <smiles>  (8) 
[H]c1c([H])c([H])c2c(c1[H])C([H])([H])C([H])([H])C([H])([H])C2([H])N([H])C(=O)C1([H])N(C(=O)C([H])(N([H])C(=O)C([H])(N([H])C([H])([H])[H])C([H])([H])[H])C(C([H])([H])[H])(C([H])([H])[H])C([H])([H])[H])C([H])([H])c2c([H])c(OC([H])([H])C(=O)N(C([H])([H])[H])C3([H])C([H])([H])N(c4c([H])c(C5([H])C([H])([H])C([H])([H])[N+]([H])([H])C([H])([H])C5([H])[H])c(C([H])([H])N([H])C(=O)N5C([H])([H])C([H])([H])C([H])([H])C([H])(n6nc(-c7c([H])c([H])c(Oc8c([H])c([H])c(F)c([H])c8F)c([H])c7[H])c(C(=O)N([H])[H])c6N([H])[H])C5([H])[H])c([H])c4F)C([H])([H])C3([H])[H])c([H])c([H])c2C1([H])[H]

$$$$
8:0:0
     RDKit          3D

 96105  0  0  1  0  0  0  0  0999 V2000
  -28.7670  -21.9390   23.2610 C   0  0  0  0  0  2  0  0  0  0  0  0
  -29.3950  -23.3340   23.2700 C   0  0  0  0  0  2  0  0  0  0  0  0
  -29.1480  -22.7830   21.0040 C   0  0  0  0  0  2  0  0  0  0  0  0
  -28.8620  -21.4750   21.7950 C   0  0  0  0  0  3  0  0  0  0  0  0
  -29.0130  -23.9090   21.9640 N   0  0  2  0  0  4  0  0  0  0  0  0
  -28.0200  -24.0810   22.0420 H   0  0  0  0  0  0  0  0  0  0  0  0
  -29.9550  -20.4100   21.5970 C   0  0  0  0  0  0  0  0  0  0  0  0
  -29.5690  -19.1950   21.1730 N   0  0  0  0  0  0  0  0  0  0  0  0
  -31.1390  -20.7030   21.7780 O   0  0  0  0  0  0  0  0  0  0  0  0
  -28.5740  -19.0290   21.0970 H   0  0  0  0  0  0  0  0  0  0  0  0
  -31.2290  -14.8190   19.9740 C   0  0  0  0  0  0  0  0  0  0  0  0
  -30.8880  -12.5990   18.9890 C   0  0  0  0  0  2  0  0  0  0  0  0
  -29.9120  -12.7510   17.8030 C   0  0  0  0  0  2  0  0  0  0  0  0
  -28.4510  -12.6520   18.2830 C   0  0  0  0  0  2  0  0  0  0  0  0
  -28.1530  -13.5470   19.5180 C   0  0  0  0  0  3  0  0  0  0  0  0
  -29.2450  -13.4000   20.6020 C   0  0  0  0  0  2  0  0  0  0  0  0
  -30.5460  -13.6450   19.9640 N   0  0  0  0  0  0  0  0  0  0  0  0
  -32.4320  -14.8800   19.7030 O   0  0  0  0  0  0  0  0  0  0  0  0
  -31.4830  -17.6770   18.2720 C   0  0  0  0  0  2  0  0  0  0  0  0
  -30.8050  -18.7280   19.1410 C   0  0  0  0  0  2  0  0  0  0  0  0
  -30.6210  -16.4120   18.2390 C   0  0  0  0  0  2  0  0  0  0  0  0
  -29.7750  -16.7960   20.5160 C   0  0  0  0  0  2  0  0  0  0  0  0
  -30.4510  -18.2020   20.5520 C   0  0  0  0  0  3  0  0  0  0  0  0
  -30.4560  -15.8670   19.5950 N   0  0  0  0  0  0  0  0  0  0  0  0
  -25.8140  -14.2020   20.3540 C   0  0  0  0  0  0  0  0  0  0  0  0
  -24.7360  -13.4530   20.7380 C   0  0  0  0  0  0  0  0  0  0  0  0
  -25.1520  -12.0900   20.6430 C   0  0  0  0  0  0  0  0  0  0  0  0
  -26.8180  -13.2970   20.0500 N   0  0  0  0  0  0  0  0  0  0  0  0
  -26.4260  -12.0190   20.2830 N   0  0  0  0  0  0  0  0  0  0  0  0
  -24.3930  -10.8460   20.8180 C   0  0  0  0  0  0  0  0  0  0  0  0
  -24.7870   -9.8670   21.7560 C   0  0  0  0  0  3  0  0  0  0  0  0
  -24.0340   -8.6850   21.9190 C   0  0  0  0  0  3  0  0  0  0  0  0
  -22.8700   -8.4750   21.1410 C   0  0  0  0  0  0  0  0  0  0  0  0
  -22.4940   -9.4400   20.1930 C   0  0  0  0  0  3  0  0  0  0  0  0
  -23.2480  -10.6140   20.0290 C   0  0  0  0  0  3  0  0  0  0  0  0
  -22.0910   -7.3440   21.2130 O   0  0  0  0  0  0  0  0  0  0  0  0
  -21.9260   -6.6570   22.3880 C   0  0  0  0  0  0  0  0  0  0  0  0
  -21.3930   -7.2720   23.5420 C   0  0  0  0  0  3  0  0  0  0  0  0
  -21.1750   -6.5110   24.7080 C   0  0  0  0  0  3  0  0  0  0  0  0
  -21.4780   -5.1360   24.7200 C   0  0  0  0  0  0  0  0  0  0  0  0
  -22.0030   -4.5210   23.5700 C   0  0  0  0  0  3  0  0  0  0  0  0
  -22.2230   -5.2800   22.4070 C   0  0  0  0  0  0  0  0  0  0  0  0
  -22.7090   -4.6770   21.2940 F   0  0  0  0  0  0  0  0  0  0  0  0
  -21.2630   -4.4040   25.8380 F   0  0  0  0  0  0  0  0  0  0  0  0
  -23.3670  -13.9650   21.0820 C   0  0  0  0  0  0  0  0  0  0  0  0
  -22.6620  -13.2720   21.9680 N   0  0  0  0  0  0  0  0  0  0  0  0
  -22.9350  -15.0120   20.6020 O   0  0  0  0  0  0  0  0  0  0  0  0
  -23.0280  -12.4230   22.3720 H   0  0  0  0  0  0  0  0  0  0  0  0
  -21.7460  -13.5920   22.2440 H   0  0  0  0  0  0  0  0  0  0  0  0
  -26.0200  -15.5710   20.2130 N   0  0  0  0  0  0  0  0  0  0  0  0
  -25.2800  -16.2470   20.3680 H   0  0  0  0  0  0  0  0  0  0  0  0
  -26.8700  -15.9820   19.8510 H   0  0  0  0  0  0  0  0  0  0  0  0
  -29.5760  -26.2480   22.7180 C   0  0  0  0  0  1  0  0  0  0  0  0
  -29.6490  -25.2140   21.5680 C   0  0  0  0  0  3  0  0  0  0  0  0
  -28.9680  -25.7670   20.2830 C   0  0  0  0  0  2  0  0  0  0  0  0
  -29.0630  -27.1990   20.1220 O   0  0  0  0  0  0  0  0  0  0  0  0
  -24.7400  -31.8660   23.2590 C   0  0  0  0  0  0  0  0  0  0  0  0
  -27.8540  -27.8600   20.0480 C   0  0  0  0  0  0  0  0  0  0  0  0
  -23.7110  -30.4520   21.5090 C   0  0  0  0  0  3  0  0  0  0  0  0
  -25.3370  -29.1450   20.0440 C   0  0  0  0  0  0  0  0  0  0  0  0
  -26.1940  -31.0570   21.4060 C   0  0  0  0  0  2  0  0  0  0  0  0
  -26.4250  -29.7390   20.6960 C   0  0  0  0  0  0  0  0  0  0  0  0
  -27.6880  -29.1050   20.6940 C   0  0  0  0  0  3  0  0  0  0  0  0
  -26.7540  -27.2970   19.3590 C   0  0  0  0  0  3  0  0  0  0  0  0
  -25.4970  -27.9240   19.3690 C   0  0  0  0  0  3  0  0  0  0  0  0
  -24.0150  -29.8740   20.1020 C   0  0  0  0  0  2  0  0  0  0  0  0
  -24.8970  -31.1380   22.1170 N   0  0  0  0  0  0  0  0  0  0  0  0
  -23.6260  -32.0070   23.7810 O   0  0  0  0  0  0  0  0  0  0  0  0
  -23.1360  -29.3230   22.3930 C   0  0  0  0  0  0  0  0  0  0  0  0
  -21.8350  -29.0340   22.2240 N   0  0  0  0  0  0  0  0  0  0  0  0
  -23.8570  -28.7110   23.1870 O   0  0  0  0  0  0  0  0  0  0  0  0
  -21.3120  -29.5900   21.5620 H   0  0  0  0  0  0  0  0  0  0  0  0
  -18.5620  -27.5510   22.5910 C   0  0  0  0  0  0  0  0  0  0  0  0
  -21.0890  -27.9860   22.9170 C   0  0  0  0  0  3  0  0  0  0  0  0
  -21.3080  -26.6100   22.2480 C   0  0  0  0  0  2  0  0  0  0  0  0
  -20.2440  -26.2730   21.1980 C   0  0  0  0  0  2  0  0  0  0  0  0
  -18.8490  -26.2660   21.8300 C   0  0  0  0  0  2  0  0  0  0  0  0
  -19.6130  -28.3660   23.0860 C   0  0  0  0  0  0  0  0  0  0  0  0
  -19.2920  -29.5670   23.7540 C   0  0  0  0  0  3  0  0  0  0  0  0
  -17.9520  -29.9550   23.9360 C   0  0  0  0  0  3  0  0  0  0  0  0
  -16.9140  -29.1360   23.4570 C   0  0  0  0  0  3  0  0  0  0  0  0
  -17.2200  -27.9360   22.7910 C   0  0  0  0  0  3  0  0  0  0  0  0
  -25.9460  -32.5760   23.9490 C   0  0  0  0  0  3  0  0  0  0  0  0
  -26.4260  -31.8490   25.2670 C   0  0  1  0  0  0  0  0  0  0  0  0
  -25.2820  -31.5530   26.2650 C   0  0  0  0  0  1  0  0  0  0  0  0
  -27.1180  -30.5080   24.9270 C   0  0  0  0  0  1  0  0  0  0  0  0
  -27.4790  -32.7200   25.9910 C   0  0  0  0  0  1  0  0  0  0  0  0
  -25.5410  -33.9580   24.2360 N   0  0  0  0  0  0  0  0  0  0  0  0
  -25.8530  -35.0150   23.4730 C   0  0  0  0  0  0  0  0  0  0  0  0
  -26.5830  -34.9340   22.4810 O   0  0  0  0  0  0  0  0  0  0  0  0
  -24.8970  -34.0920   25.0010 H   0  0  0  0  0  0  0  0  0  0  0  0
  -24.0330  -36.6880   23.0020 C   0  0  0  0  0  1  0  0  0  0  0  0
  -25.2610  -36.3790   23.8760 C   0  0  0  0  0  3  0  0  0  0  0  0
  -27.2950  -37.4140   24.7810 C   0  0  0  0  0  1  0  0  0  0  0  0
  -26.2300  -37.4920   23.7840 N   0  0  0  0  0  0  0  0  0  0  0  0
  -25.7610  -38.3880   23.8890 H   0  0  0  0  0  0  0  0  0  0  0  0
  1  2  1  0
  3  4  1  0
  3  5  1  0
  4  7  1  0
  4  1  1  0
  5  6  1  1
  5  2  1  0
  7  9  2  0
  8  7  1  0
 10  8  1  0
 12 17  1  0
 13 14  1  0
 13 12  1  0
 15 14  1  0
 15 28  1  0
 15 16  1  0
 17 11  1  0
 17 16  1  0
 18 11  2  0
 19 20  1  0
 20 23  1  0
 21 19  1  0
 21 24  1  0
 22 23  1  0
 23  8  1  0
 24 11  1  0
 24 22  1  0
 25 26  2  0
 26 45  1  0
 27 26  1  0
 27 30  1  0
 28 29  1  0
 28 25  1  0
 29 27  2  0
 30 31  1  0
 31 32  2  0
 33 36  1  0
 33 32  1  0
 34 33  2  0
 35 34  1  0
 35 30  2  0
 36 37  1  0
 37 42  2  0
 37 38  1  0
 38 39  2  0
 39 40  1  0
 40 44  1  0
 41 40  2  0
 42 41  1  0
 43 42  1  0
 45 46  1  0
 46 49  1  0
 46 48  1  0
 47 45  2  0
 50 25  1  0
 50 51  1  0
 52 50  1  0
 54  5  1  0
 54 53  1  0
 55 54  1  0
 56 55  1  0
 57 68  2  0
 58 56  1  0
 58 63  1  0
 59 67  1  0
 59 69  1  0
 60 66  1  0
 60 62  1  0
 61 67  1  0
 62 61  1  0
 63 62  2  0
 64 65  1  0
 64 58  2  0
 65 60  2  0
 66 59  1  0
 67 57  1  0
 69 71  2  0
 70 69  1  0
 72 70  1  0
 73 82  2  0
 73 78  1  0
 74 70  1  0
 74 78  1  0
 75 74  1  0
 76 77  1  0
 76 75  1  0
 77 73  1  0
 78 79  2  0
 79 80  1  0
 81 80  2  0
 82 81  1  0
 83 57  1  0
 83 88  1  0
 83 84  1  0
 84 87  1  1
 84 85  1  0
 86 84  1  0
 88 91  1  0
 89 93  1  0
 89 88  1  0
 90 89  2  0
 93 92  1  0
 95 93  1  0
 95 96  1  0
 95 94  1  0
M  ISO  4  11 100  24 100  55 101  56 101
M  END
>  <TORSDO>  (9) 
F 19

>  <SCORE>  (9) 
-12.040

>  <name>  (9) 
8

>  <ligand_id>  (9) 
8

>  <original_smiles>  (9) 
[H]c1c([H])c([H])c2c(c1[H])C([H])([H])C([H])([H])C([H])([H])C2([H])N([H])C(=O)C1([H])N(C(=O)C([H])(N([H])C(=O)C([H])(N([H])C([H])([H])[H])C([H])([H])[H])C(C([H])([H])[H])(C([H])([H])[H])C([H])([H])[H])C([H])([H])c2c([H])c(OC([H])([H])C([H])(C([H])([H])[H])[N+]3([H])C([H])([H])C([H])([H])C([H])(C(=O)N([H])C4([H])C([H])([H])N(C(=O)N5C([H])([H])C([H])([H])C([H])([H])C([H])(n6nc(-c7c([H])c([H])c(Oc8c([H])c([H])c(F)c([H])c8F)c([H])c7[H])c(C(=O)N([H])[H])c6N([H])[H])C5([H])[H])C([H])([H])C([H])([H])C4([H])[H])C3([H])[H])c([H])c([H])c2C1([H])[H]

>  <smiles>  (9) 
[H]c1c([H])c([H])c2c(c1[H])C([H])([H])C([H])([H])C([H])([H])C2([H])N([H])C(=O)C1([H])N(C(=O)C([H])(N([H])C(=O)C([H])(N([H])C([H])([H])[H])C([H])([H])[H])C(C([H])([H])[H])(C([H])([H])[H])C([H])([H])[H])C([H])([H])c2c([H])c(OC([H])([H])C([H])(C([H])([H])[H])[N+]3([H])C([H])([H])C([H])([H])C([H])(C(=O)N([H])C4([H])C([H])([H])N(C(=O)N5C([H])([H])C([H])([H])C([H])([H])C([H])(n6nc(-c7c([H])c([H])c(Oc8c([H])c([H])c(F)c([H])c8F)c([H])c7[H])c(C(=O)N([H])[H])c6N([H])[H])C5([H])[H])C([H])([H])C([H])([H])C4([H])[H])C3([H])[H])c([H])c([H])c2C1([H])[H]

$$$$
9:0:0
     RDKit          3D

 98107  0  0  1  0  0  0  0  0999 V2000
  -28.9320  -23.5510   22.2600 C   0  0  0  0  0  2  0  0  0  0  0  0
  -28.2510  -24.7640   21.6330 C   0  0  0  0  0  2  0  0  0  0  0  0
  -28.1160  -23.1310   20.0230 C   0  0  0  0  0  2  0  0  0  0  0  0
  -28.4820  -22.4230   21.3400 C   0  0  0  0  0  3  0  0  0  0  0  0
  -28.3770  -24.5760   20.1830 N   0  0  0  0  0  0  0  0  0  0  0  0
  -29.2620  -20.0460   21.0030 C   0  0  0  0  0  0  0  0  0  0  0  0
  -28.0300  -19.5170   20.9340 N   0  0  0  0  0  4  0  0  0  0  0  0
  -29.4870  -21.3640   21.1610 N   0  0  0  0  0  0  0  0  0  0  0  0
  -27.9020  -18.5190   20.8670 H   0  0  0  0  0  0  0  0  0  0  0  0
  -27.1950  -20.0780   20.9230 H   0  0  0  0  0  0  0  0  0  0  0  0
  -30.4500  -21.6630   21.0970 H   0  0  0  0  0  0  0  0  0  0  0  0
  -31.0860  -18.7600   22.2740 C   0  0  0  0  0  2  0  0  0  0  0  0
  -30.4480  -19.1460   20.9650 C   0  0  0  0  0  3  0  0  0  0  0  0
  -30.4600  -17.6910   21.4080 C   0  0  0  0  0  3  0  0  0  0  0  0
  -31.5380  -14.5240   19.8890 C   0  0  0  0  0  0  0  0  0  0  0  0
  -31.1080  -12.2910   18.9500 C   0  0  0  0  0  2  0  0  0  0  0  0
  -30.1280  -12.4150   17.7690 C   0  0  0  0  0  2  0  0  0  0  0  0
  -28.6670  -12.3650   18.2570 C   0  0  0  0  0  2  0  0  0  0  0  0
  -28.4000  -13.3310   19.4410 C   0  0  0  0  0  3  0  0  0  0  0  0
  -29.4920  -13.1850   20.5270 C   0  0  0  0  0  2  0  0  0  0  0  0
  -30.8100  -13.3790   19.8890 N   0  0  0  0  0  0  0  0  0  0  0  0
  -32.5920  -14.6340   19.2510 O   0  0  0  0  0  0  0  0  0  0  0  0
  -31.4160  -16.7880   20.7090 C   0  0  0  0  0  0  0  0  0  0  0  0
  -30.9760  -15.5290   20.5730 N   0  0  0  0  0  0  0  0  0  0  0  0
  -32.5090  -17.2030   20.3020 O   0  0  0  0  0  0  0  0  0  0  0  0
  -30.0940  -15.3020   21.0050 H   0  0  0  0  0  0  0  0  0  0  0  0
  -26.1080  -14.0960   20.3280 C   0  0  0  0  0  0  0  0  0  0  0  0
  -25.0070  -13.3950   20.7360 C   0  0  0  0  0  0  0  0  0  0  0  0
  -25.3540  -12.0130   20.6200 C   0  0  0  0  0  0  0  0  0  0  0  0
  -27.0610  -13.1460   19.9920 N   0  0  0  0  0  0  0  0  0  0  0  0
  -26.6130  -11.8860   20.2220 N   0  0  0  0  0  0  0  0  0  0  0  0
  -24.5410  -10.8040   20.8070 C   0  0  0  0  0  0  0  0  0  0  0  0
  -24.9070   -9.8080   21.7370 C   0  0  0  0  0  3  0  0  0  0  0  0
  -24.1050   -8.6600   21.9110 C   0  0  0  0  0  3  0  0  0  0  0  0
  -22.9200   -8.5030   21.1530 C   0  0  0  0  0  0  0  0  0  0  0  0
  -22.5700   -9.4880   20.2120 C   0  0  0  0  0  3  0  0  0  0  0  0
  -23.3730  -10.6260   20.0370 C   0  0  0  0  0  3  0  0  0  0  0  0
  -22.0870   -7.4130   21.2410 O   0  0  0  0  0  0  0  0  0  0  0  0
  -21.9030   -6.7380   22.4210 C   0  0  0  0  0  0  0  0  0  0  0  0
  -21.4380   -7.3860   23.5860 C   0  0  0  0  0  3  0  0  0  0  0  0
  -21.2000   -6.6410   24.7590 C   0  0  0  0  0  3  0  0  0  0  0  0
  -21.4120   -5.2490   24.7650 C   0  0  0  0  0  0  0  0  0  0  0  0
  -21.8640   -4.6000   23.6040 C   0  0  0  0  0  3  0  0  0  0  0  0
  -22.1080   -5.3420   22.4330 C   0  0  0  0  0  0  0  0  0  0  0  0
  -22.5260   -4.7100   21.3110 F   0  0  0  0  0  0  0  0  0  0  0  0
  -21.1720   -4.5320   25.8870 F   0  0  0  0  0  0  0  0  0  0  0  0
  -23.6720  -13.9680   21.1190 C   0  0  0  0  0  0  0  0  0  0  0  0
  -22.9590  -13.3040   22.0220 N   0  0  0  0  0  0  0  0  0  0  0  0
  -23.2730  -15.0350   20.6550 O   0  0  0  0  0  0  0  0  0  0  0  0
  -23.2930  -12.4390   22.4210 H   0  0  0  0  0  0  0  0  0  0  0  0
  -22.0640  -13.6630   22.3160 H   0  0  0  0  0  0  0  0  0  0  0  0
  -26.3790  -15.4550   20.1880 N   0  0  0  0  0  0  0  0  0  0  0  0
  -25.6800  -16.1700   20.3620 H   0  0  0  0  0  0  0  0  0  0  0  0
  -27.2130  -15.8190   19.7470 H   0  0  0  0  0  0  0  0  0  0  0  0
  -30.0910  -24.3420   18.3800 C   0  0  0  0  0  1  0  0  0  0  0  0
  -29.6890  -25.0590   19.6850 C   0  0  0  0  0  3  0  0  0  0  0  0
  -29.7240  -26.5840   19.3820 C   0  0  0  0  0  2  0  0  0  0  0  0
  -29.3430  -27.4520   20.4470 O   0  0  0  0  0  0  0  0  0  0  0  0
  -24.9770  -32.0020   23.6710 C   0  0  0  0  0  0  0  0  0  0  0  0
  -28.0940  -28.0340   20.4220 C   0  0  0  0  0  0  0  0  0  0  0  0
  -23.9610  -30.6640   21.8540 C   0  0  0  0  0  3  0  0  0  0  0  0
  -25.5930  -29.3510   20.4060 C   0  0  0  0  0  0  0  0  0  0  0  0
  -26.4570  -31.2130   21.8350 C   0  0  0  0  0  2  0  0  0  0  0  0
  -26.6730  -29.9070   21.1000 C   0  0  0  0  0  0  0  0  0  0  0  0
  -27.9220  -29.2520   21.1130 C   0  0  0  0  0  3  0  0  0  0  0  0
  -26.9820  -27.4660   19.7520 C   0  0  0  0  0  3  0  0  0  0  0  0
  -25.7390  -28.1260   19.7310 C   0  0  0  0  0  3  0  0  0  0  0  0
  -24.2910  -30.1180   20.4380 C   0  0  0  0  0  2  0  0  0  0  0  0
  -25.1460  -31.3030   22.5140 N   0  0  0  0  0  0  0  0  0  0  0  0
  -23.8530  -32.1520   24.1670 O   0  0  0  0  0  0  0  0  0  0  0  0
  -23.3370  -29.5230   22.6890 C   0  0  0  0  0  0  0  0  0  0  0  0
  -22.0490  -29.2340   22.4400 N   0  0  0  0  0  0  0  0  0  0  0  0
  -24.0100  -28.9040   23.5180 O   0  0  0  0  0  0  0  0  0  0  0  0
  -21.5620  -29.7960   21.7550 H   0  0  0  0  0  0  0  0  0  0  0  0
  -18.7820  -27.6990   22.5500 C   0  0  0  0  0  0  0  0  0  0  0  0
  -21.2660  -28.1780   23.0810 C   0  0  0  0  0  3  0  0  0  0  0  0
  -21.5610  -26.7990   22.4460 C   0  0  0  0  0  2  0  0  0  0  0  0
  -20.5950  -26.4350   21.3150 C   0  0  0  0  0  2  0  0  0  0  0  0
  -19.1520  -26.4130   21.8290 C   0  0  0  0  0  2  0  0  0  0  0  0
  -19.7770  -28.5350   23.1250 C   0  0  0  0  0  0  0  0  0  0  0  0
  -19.3820  -29.7360   23.7520 C   0  0  0  0  0  3  0  0  0  0  0  0
  -18.0240  -30.1060   23.8140 C   0  0  0  0  0  3  0  0  0  0  0  0
  -17.0430  -29.2660   23.2570 C   0  0  0  0  0  3  0  0  0  0  0  0
  -17.4230  -28.0640   22.6340 C   0  0  0  0  0  3  0  0  0  0  0  0
  -26.1820  -32.6660   24.4110 C   0  0  0  0  0  3  0  0  0  0  0  0
  -26.6000  -31.9030   25.7270 C   0  0  1  0  0  0  0  0  0  0  0  0
  -25.4160  -31.5970   26.6720 C   0  0  0  0  0  1  0  0  0  0  0  0
  -27.2890  -30.5630   25.3840 C   0  0  0  0  0  1  0  0  0  0  0  0
  -27.6320  -32.7430   26.5140 C   0  0  0  0  0  1  0  0  0  0  0  0
  -25.8040  -34.0540   24.7100 N   0  0  0  0  0  0  0  0  0  0  0  0
  -26.1780  -35.1180   23.9870 C   0  0  0  0  0  0  0  0  0  0  0  0
  -26.9470  -35.0360   23.0240 O   0  0  0  0  0  0  0  0  0  0  0  0
  -25.1360  -34.1900   25.4550 H   0  0  0  0  0  0  0  0  0  0  0  0
  -24.4380  -36.8580   23.4690 C   0  0  0  0  0  1  0  0  0  0  0  0
  -25.6080  -36.4890   24.3960 C   0  0  0  0  0  3  0  0  0  0  0  0
  -27.6320  -37.4260   25.4210 C   0  0  0  0  0  1  0  0  0  0  0  0
  -26.6130  -37.5730   24.3840 N   0  0  0  0  0  0  0  0  0  0  0  0
  -26.1700  -38.4790   24.5040 H   0  0  0  0  0  0  0  0  0  0  0  0
  2  1  1  0
  3  5  1  0
  3  4  1  0
  4  8  1  0
  4  1  1  0
  5  2  1  0
  6  8  1  0
  7  6  2  0
  9  7  1  0
 10  7  1  0
 11  8  1  0
 13  6  1  0
 13 14  1  0
 13 12  1  0
 14 23  1  0
 14 12  1  0
 15 24  1  0
 16 21  1  0
 17 18  1  0
 17 16  1  0
 19 18  1  0
 19 30  1  0
 19 20  1  0
 21 15  1  0
 21 20  1  0
 22 15  2  0
 24 23  1  0
 24 26  1  0
 25 23  2  0
 27 28  2  0
 28 47  1  0
 29 28  1  0
 29 32  1  0
 30 31  1  0
 30 27  1  0
 31 29  2  0
 32 33  1  0
 33 34  2  0
 35 38  1  0
 35 34  1  0
 36 35  2  0
 37 36  1  0
 37 32  2  0
 38 39  1  0
 39 44  2  0
 39 40  1  0
 40 41  2  0
 41 42  1  0
 42 46  1  0
 43 42  2  0
 44 43  1  0
 45 44  1  0
 47 48  1  0
 48 51  1  0
 48 50  1  0
 49 47  2  0
 52 27  1  0
 52 53  1  0
 54 52  1  0
 56 55  1  0
 56  5  1  0
 57 56  1  0
 57 58  1  0
 59 70  2  0
 60 58  1  0
 60 65  1  0
 61 69  1  0
 61 71  1  0
 62 68  1  0
 62 64  1  0
 63 69  1  0
 64 65  2  0
 64 63  1  0
 66 60  2  0
 67 66  1  0
 67 62  2  0
 68 61  1  0
 69 59  1  0
 71 73  2  0
 72 71  1  0
 74 72  1  0
 75 84  2  0
 75 80  1  0
 76 72  1  0
 76 80  1  0
 77 76  1  0
 78 79  1  0
 78 77  1  0
 79 75  1  0
 80 81  2  0
 81 82  1  0
 83 82  2  0
 84 83  1  0
 85 59  1  0
 85 90  1  0
 85 86  1  0
 86 89  1  1
 86 87  1  0
 88 86  1  0
 90 93  1  0
 91 95  1  0
 91 90  1  0
 92 91  2  0
 95 94  1  0
 97 95  1  0
 97 98  1  0
 97 96  1  0
M  ISO  4  15 100  24 100  57 101  58 101
M  END
>  <TORSDO>  (10) 
F 20

>  <SCORE>  (10) 
-12.369

>  <name>  (10) 
9

>  <ligand_id>  (10) 
9

>  <original_smiles>  (10) 
[H]c1c([H])c([H])c2c(c1[H])C([H])([H])C([H])([H])C([H])([H])C2([H])N([H])C(=O)C1([H])N(C(=O)C([H])(N([H])C(=O)C([H])(N([H])C([H])([H])[H])C([H])([H])[H])C(C([H])([H])[H])(C([H])([H])[H])C([H])([H])[H])C([H])([H])c2c([H])c(OC([H])([H])C([H])(N3C([H])([H])C([H])([H])C([H])([N+]([H])=C(N([H])[H])C4([H])C([H])([H])C4([H])C(=O)N([H])C(=O)N4C([H])([H])C([H])([H])C([H])([H])C([H])(n5nc(-c6c([H])c([H])c(Oc7c([H])c([H])c(F)c([H])c7F)c([H])c6[H])c(C(=O)N([H])[H])c5N([H])[H])C4([H])[H])C3([H])[H])C([H])([H])[H])c([H])c([H])c2C1([H])[H]

>  <smiles>  (10) 
[H]c1c([H])c([H])c2c(c1[H])C([H])([H])C([H])([H])C([H])([H])C2([H])N([H])C(=O)C1([H])N(C(=O)C([H])(N([H])C(=O)C([H])(N([H])C([H])([H])[H])C([H])([H])[H])C(C([H])([H])[H])(C([H])([H])[H])C([H])([H])[H])C([H])([H])c2c([H])c(OC([H])([H])C([H])(N3C([H])([H])C([H])([H])C([H])([N+]([H])=C(N([H])[H])C4([H])C([H])([H])C4([H])C(=O)N([H])C(=O)N4C([H])([H])C([H])([H])C([H])([H])C([H])(n5nc(-c6c([H])c([H])c(Oc7c([H])c([H])c(F)c([H])c7F)c([H])c6[H])c(C(=O)N([H])[H])c5N([H])[H])C4([H])[H])C3([H])[H])C([H])([H])[H])c([H])c([H])c2C1([H])[H]

$$$$
10:0:0
     RDKit          3D

 98 98  0  0  1  0  0  0  0  0999 V2000
  -23.9680  -22.5750   18.9480 C   0  0  0  0  0  3  0  0  0  0  0  0
  -24.2090  -21.1760   18.6830 C   0  0  0  0  0  3  0  0  0  0  0  0
  -26.2570  -22.4740   19.5750 C   0  0  0  0  0  3  0  0  0  0  0  0
  -24.8870  -23.5180   19.4780 C   0  0  0  0  0  3  0  0  0  0  0  0
  -25.3920  -20.3530   18.8600 C   0  0  0  0  0  0  0  0  0  0  0  0
  -26.6820  -20.8260   19.2810 C   0  0  0  0  0  3  0  0  0  0  0  0
  -24.1230  -25.4160   19.7860 C   0  0  0  0  0 15  0  0  0  0  0  0
  -22.2200  -28.4770   20.0680 C   0  0  0  0  0  2  0  0  0  0  0  0
  -22.9020  -26.9680   19.5470 N   0  0  0  0  0  2  0  0  0  0  0  0
  -21.5240  -29.0380   19.2260 O   0  0  0  0  0  1  0  0  0  0  0  0
  -22.4620  -26.7950   18.6520 H   0  0  0  0  0  0  0  0  0  0  0  0
  -22.4000  -29.6690   21.9240 C   0  0  0  0  0 15  0  0  0  0  0  0
  -24.0300  -29.2310   23.5100 C   0  0  0  0  0 15  0  0  0  0  0  0
  -25.9280  -28.6290   22.9780 O   0  0  0  0  0  1  0  0  0  0  0  0
  -24.5610  -31.6500   22.8110 C   0  0  0  0  0  0  0  0  0  0  0  0
  -26.8430  -27.9640   21.9170 C   0  0  0  0  0  3  0  0  0  0  0  0
  -24.4150  -29.1610   21.1340 C   0  0  0  0  0  2  0  0  0  0  0  0
  -25.9840  -28.8720   19.7090 C   0  0  0  0  0  3  0  0  0  0  0  0
  -26.2410  -30.9500   21.1850 C   0  0  0  0  0  2  0  0  0  0  0  0
  -26.7950  -29.6680   20.5790 C   0  0  0  0  0  3  0  0  0  0  0  0
  -27.6570  -28.9580   21.4080 C   0  0  0  0  0  2  0  0  0  0  0  0
  -26.6060  -26.9860   20.8660 C   0  0  0  0  0  2  0  0  0  0  0  0
  -26.1230  -27.4870   19.6550 C   0  0  0  0  0  2  0  0  0  0  0  0
  -24.6200  -29.2430   19.6230 C   0  0  0  0  0  2  0  0  0  0  0  0
  -24.9260  -30.6960   21.7510 N   0  0  0  0  0  0  0  0  0  0  0  0
  -23.3680  -31.8490   23.1300 O   0  0  0  0  0  0  0  0  0  0  0  0
  -23.9100  -27.3400   22.1290 C   0  0  0  0  0  2  0  0  0  0  0  0
  -22.5920  -27.0410   22.8590 N   0  0  0  0  0  0  0  0  0  0  0  0
  -24.5550  -26.7360   22.9300 O   0  0  0  0  0  1  0  0  0  0  0  0
  -22.8890  -26.3820   23.5660 H   0  0  0  0  0  0  0  0  0  0  0  0
  -18.3600  -27.5100   22.1970 C   0  0  0  0  0  0  0  0  0  0  0  0
  -20.9370  -27.0980   22.9430 C   0  0  0  0  0  3  0  0  0  0  0  0
  -20.6770  -25.7920   22.2440 C   0  0  0  0  0  2  0  0  0  0  0  0
  -19.7620  -25.8080   21.0330 C   0  0  0  0  0  2  0  0  0  0  0  0
  -18.3920  -26.1820   21.4960 C   0  0  0  0  0  2  0  0  0  0  0  0
  -19.5420  -28.0710   22.8200 C   0  0  0  0  0  0  0  0  0  0  0  0
  -19.2180  -29.3150   23.4950 C   0  0  0  0  0  3  0  0  0  0  0  0
  -17.9180  -29.9150   23.5020 C   0  0  0  0  0  3  0  0  0  0  0  0
  -16.8220  -29.2880   22.8940 C   0  0  0  0  0  3  0  0  0  0  0  0
  -17.0600  -28.0800   22.2420 C   0  0  0  0  0  3  0  0  0  0  0  0
  -25.5710  -32.3370   23.8880 C   0  0  0  0  0  3  0  0  0  0  0  0
  -25.7850  -31.7080   25.3710 C   0  0  1  0  0  0  0  0  0  0  0  0
  -24.5000  -31.4940   26.2310 C   0  0  0  0  0  1  0  0  0  0  0  0
  -26.5760  -30.3870   25.3520 C   0  0  0  0  0  1  0  0  0  0  0  0
  -26.6870  -32.6490   26.2270 C   0  0  0  0  0  1  0  0  0  0  0  0
  -25.1230  -33.7250   24.1210 N   0  0  0  0  0  0  0  0  0  0  0  0
  -25.5990  -34.7940   23.4760 C   0  0  0  0  0  0  0  0  0  0  0  0
  -26.4670  -34.6920   22.6060 O   0  0  0  0  0  0  0  0  0  0  0  0
  -24.3540  -33.8450   24.7650 H   0  0  0  0  0  0  0  0  0  0  0  0
  -23.8780  -36.5170   22.8480 C   0  0  0  0  0  1  0  0  0  0  0  0
  -25.0180  -36.1810   23.8210 C   0  0  0  0  0  3  0  0  0  0  0  0
  -26.9940  -37.1840   24.8850 C   0  0  0  0  0  1  0  0  0  0  0  0
  -26.0260  -37.2650   23.7940 N   0  0  0  0  0  0  0  0  0  0  0  0
  -25.5780  -38.1770   23.8400 H   0  0  0  0  0  0  0  0  0  0  0  0
  -28.2400  -19.4640   19.2630 C   0  0  0  0  0 15  0  0  0  0  0  0
  -30.1000  -16.4340   19.3930 C   0  0  0  0  0  0  0  0  0  0  0  0
  -30.9260  -13.8170   18.8810 C   0  0  0  0  0  2  0  0  0  0  0  0
  -30.1530  -13.0060   17.7880 C   0  0  0  0  0  2  0  0  0  0  0  0
  -28.7830  -12.5460   18.3130 C   0  0  0  0  0  2  0  0  0  0  0  0
  -28.1820  -13.6380   19.2180 C   0  0  0  0  0  3  0  0  0  0  0  0
  -29.1200  -14.1540   20.3010 C   0  0  0  0  0  2  0  0  0  0  0  0
  -30.0500  -14.9470   19.5180 N   0  0  0  0  0  0  0  0  0  0  0  0
  -31.3520  -16.5630   19.1930 O   0  0  0  0  0  0  0  0  0  0  0  0
  -28.8910  -17.6110   19.3710 N   0  0  0  0  0  2  0  0  0  0  0  0
  -28.0660  -17.0610   19.5800 H   0  0  0  0  0  0  0  0  0  0  0  0
  -25.9800  -14.2660   20.1940 C   0  0  0  0  0  0  0  0  0  0  0  0
  -24.9190  -13.5330   20.6240 C   0  0  0  0  0  0  0  0  0  0  0  0
  -25.3110  -12.1640   20.4930 C   0  0  0  0  0  0  0  0  0  0  0  0
  -26.9170  -13.3390   19.8000 N   0  0  0  0  0  0  0  0  0  0  0  0
  -26.5580  -12.0680   20.0580 N   0  0  0  0  0  0  0  0  0  0  0  0
  -24.5420  -10.9370   20.6770 C   0  0  0  0  0  0  0  0  0  0  0  0
  -24.9020   -9.9830   21.6540 C   0  0  0  0  0  3  0  0  0  0  0  0
  -24.1300   -8.8150   21.8210 C   0  0  0  0  0  3  0  0  0  0  0  0
  -22.9910   -8.5980   21.0100 C   0  0  0  0  0  0  0  0  0  0  0  0
  -22.6570   -9.5390   20.0210 C   0  0  0  0  0  3  0  0  0  0  0  0
  -23.4280  -10.6990   19.8520 C   0  0  0  0  0  3  0  0  0  0  0  0
  -22.1940   -7.4820   21.0860 O   0  0  0  0  0  0  0  0  0  0  0  0
  -21.9010   -6.8930   22.2890 C   0  0  0  0  0  0  0  0  0  0  0  0
  -21.2470   -7.5960   23.3240 C   0  0  0  0  0  3  0  0  0  0  0  0
  -20.9030   -6.9310   24.5180 C   0  0  0  0  0  3  0  0  0  0  0  0
  -21.2030   -5.5640   24.6730 C   0  0  0  0  0  0  0  0  0  0  0  0
  -21.8490   -4.8610   23.6410 C   0  0  0  0  0  3  0  0  0  0  0  0
  -22.1960   -5.5240   22.4520 C   0  0  0  0  0  0  0  0  0  0  0  0
  -22.8000   -4.8400   21.4500 F   0  0  0  0  0  0  0  0  0  0  0  0
  -20.8650   -4.9210   25.8160 F   0  0  0  0  0  0  0  0  0  0  0  0
  -23.5810  -14.0780   21.0080 C   0  0  0  0  0  0  0  0  0  0  0  0
  -22.8790  -13.4000   21.9050 N   0  0  0  0  0  0  0  0  0  0  0  0
  -23.1820  -15.1480   20.5440 O   0  0  0  0  0  0  0  0  0  0  0  0
  -23.2270  -12.5380   22.3000 H   0  0  0  0  0  0  0  0  0  0  0  0
  -21.9800  -13.7480   22.2060 H   0  0  0  0  0  0  0  0  0  0  0  0
  -26.2110  -15.6320   20.0530 N   0  0  0  0  0  0  0  0  0  0  0  0
  -25.3430  -16.1170   20.2180 H   0  0  0  0  0  0  0  0  0  0  0  0
  -26.6080  -15.8510   19.1490 H   0  0  0  0  0  0  0  0  0  0  0  0
  -25.1900  -18.8690   18.5520 C   0  0  0  0  0  2  0  0  0  0  0  0
  -24.1290  -18.2930   19.3990 N   0  0  0  0  0  4  0  0  0  0  0  0
  -24.3750  -18.3600   20.3710 H   0  0  0  0  0  0  0  0  0  0  0  0
  -23.9650  -17.3320   19.1620 H   0  0  0  0  0  0  0  0  0  0  0  0
  -23.2700  -18.7890   19.2540 H   0  0  0  0  0  0  0  0  0  0  0  0
  1  4  1  0
  2  5  1  0
  2  1  2  0
  4  3  2  0
  5  6  2  0
  6  3  1  0
  9  8  1  0
 10  8  1  0
 11  9  1  0
 15 26  2  0
 16 14  1  0
 17 25  1  0
 18 24  1  0
 18 20  1  0
 19 25  1  0
 20 19  1  0
 20 21  1  0
 21 16  1  0
 22 16  1  0
 23 18  1  0
 23 22  1  0
 24 17  1  0
 25 15  1  0
 27 28  1  0
 27 29  1  0
 28 30  1  0
 31 40  2  0
 31 36  1  0
 32 28  1  0
 33 32  1  0
 34 35  1  0
 34 33  1  0
 35 31  1  0
 36 32  1  0
 36 37  2  0
 37 38  1  0
 39 38  2  0
 40 39  1  0
 41 15  1  0
 41 46  1  0
 41 42  1  0
 42 45  1  1
 42 43  1  0
 44 42  1  0
 46 49  1  0
 47 51  1  0
 47 46  1  0
 48 47  2  0
 51 50  1  0
 53 51  1  0
 53 54  1  0
 53 52  1  0
 56 62  1  0
 57 62  1  0
 58 59  1  0
 58 57  1  0
 60 59  1  0
 60 69  1  0
 60 61  1  0
 62 61  1  0
 63 56  2  0
 64 56  1  0
 64 65  1  0
 66 67  2  0
 67 86  1  0
 68 67  1  0
 68 71  1  0
 69 70  1  0
 69 66  1  0
 70 68  2  0
 71 72  1  0
 72 73  2  0
 74 77  1  0
 74 73  1  0
 75 74  2  0
 76 75  1  0
 76 71  2  0
 77 78  1  0
 78 83  2  0
 78 79  1  0
 79 80  2  0
 80 81  1  0
 81 85  1  0
 82 81  2  0
 83 82  1  0
 84 83  1  0
 86 87  1  0
 87 90  1  0
 87 89  1  0
 88 86  2  0
 91 66  1  0
 91 92  1  0
 93 91  1  0
 94  5  1  0
 94 95  1  0
 95 96  1  0
 97 95  1  0
 98 95  1  0
M  ISO  4  13 101  14 101  56 100  64 100
M  END
>  <TORSDO>  (11) 
F 23

>  <SCORE>  (11) 
-9.777

>  <name>  (11) 
10

>  <ligand_id>  (11) 
10

>  <original_smiles>  (11) 
[H]c1c([H])c([H])c2c(c1[H])C([H])([H])C([H])([H])C([H])([H])C2([H])N([H])C(=O)C1([H])N(C(=O)C([H])(N([H])C(=O)C([H])(N([H])C([H])([H])[H])C([H])([H])[H])C(C([H])([H])[H])(C([H])([H])[H])C([H])([H])[H])C([H])([H])c2c([H])c(OC([H])([H])C([H])([H])C(=O)N([H])C([H])([H])c3c([H])c([H])c(C([H])([H])[N+]([H])([H])[H])c(C([H])([H])N([H])C(=O)N4C([H])([H])C([H])([H])C([H])([H])C([H])(n5nc(-c6c([H])c([H])c(Oc7c([H])c([H])c(F)c([H])c7F)c([H])c6[H])c(C(=O)N([H])[H])c5N([H])[H])C4([H])[H])c3[H])c([H])c([H])c2C1([H])[H]

>  <smiles>  (11) 
[H]c1c([H])c([H])c2c(c1[H])C([H])([H])C([H])([H])C([H])([H])C2([H])N([H])C(=O)C1([H])N(C(=O)C([H])(N([H])C(=O)C([H])(N([H])C([H])([H])[H])C([H])([H])[H])C(C([H])([H])[H])(C([H])([H])[H])C([H])([H])[H])C([H])([H])c2c([H])c(OC([H])([H])C([H])([H])C(=O)N([H])C([H])([H])c3c([H])c([H])c(C([H])([H])[N+]([H])([H])[H])c(C([H])([H])N([H])C(=O)N4C([H])([H])C([H])([H])C([H])([H])C([H])(n5nc(-c6c([H])c([H])c(Oc7c([H])c([H])c(F)c([H])c7F)c([H])c6[H])c(C(=O)N([H])[H])c5N([H])[H])C4([H])[H])c3[H])c([H])c([H])c2C1([H])[H]

$$$$
11:0:0
     RDKit          3D

 98107  0  0  1  0  0  0  0  0999 V2000
  -30.4150  -21.6770   18.6780 C   0  0  0  0  0  0  0  0  0  0  0  0
  -29.7260  -20.7020   19.2760 N   0  0  0  0  0  0  0  0  0  0  0  0
  -31.6410  -21.7730   18.7610 O   0  0  0  0  0  0  0  0  0  0  0  0
  -28.7210  -20.7060   19.1650 H   0  0  0  0  0  0  0  0  0  0  0  0
  -30.0870  -18.3800   18.6830 C   0  0  0  0  0  0  0  0  0  0  0  0
  -29.5470  -18.8480   20.9310 C   0  0  0  0  0  2  0  0  0  0  0  0
  -30.3230  -19.4550   19.7450 C   0  0  0  0  0  3  0  0  0  0  0  0
  -29.4660  -17.3350   20.6600 C   0  0  0  0  0  3  0  0  0  0  0  0
  -29.6290  -17.2600   19.2220 N   0  0  0  0  0  0  0  0  0  0  0  0
  -30.2680  -18.5520   17.4780 O   0  0  0  0  0  0  0  0  0  0  0  0
  -29.3880  -16.4450   18.6800 H   0  0  0  0  0  0  0  0  0  0  0  0
  -30.5790  -16.5300   21.3670 C   0  0  0  0  0  2  0  0  0  0  0  0
  -30.7740  -14.3090   20.2590 C   0  0  0  0  0  0  0  0  0  0  0  0
  -30.3510  -12.2550   18.9690 C   0  0  0  0  0  2  0  0  0  0  0  0
  -29.3590  -12.5480   17.8250 C   0  0  0  0  0  2  0  0  0  0  0  0
  -27.9030  -12.4030   18.3120 C   0  0  0  0  0  2  0  0  0  0  0  0
  -27.6430  -13.1990   19.6180 C   0  0  0  0  0  3  0  0  0  0  0  0
  -28.7340  -12.8890   20.6690 C   0  0  0  0  0  2  0  0  0  0  0  0
  -30.0550  -13.1720   20.0750 N   0  0  0  0  0  0  0  0  0  0  0  0
  -31.7510  -14.6210   19.5730 O   0  0  0  0  0  0  0  0  0  0  0  0
  -30.3110  -15.1020   21.2300 N   0  0  0  0  0  0  0  0  0  0  0  0
  -29.5670  -14.7230   21.7990 H   0  0  0  0  0  0  0  0  0  0  0  0
  -25.2880  -13.8410   20.4470 C   0  0  0  0  0  0  0  0  0  0  0  0
  -24.2250  -13.0790   20.8550 C   0  0  0  0  0  0  0  0  0  0  0  0
  -24.6580  -11.7210   20.7710 C   0  0  0  0  0  0  0  0  0  0  0  0
  -26.3030  -12.9450   20.1460 N   0  0  0  0  0  0  0  0  0  0  0  0
  -25.9280  -11.6640   20.3970 N   0  0  0  0  0  0  0  0  0  0  0  0
  -23.9180  -10.4680   20.9720 C   0  0  0  0  0  0  0  0  0  0  0  0
  -24.3550   -9.4940   21.9000 C   0  0  0  0  0  3  0  0  0  0  0  0
  -23.6220   -8.3020   22.0850 C   0  0  0  0  0  3  0  0  0  0  0  0
  -22.4380   -8.0750   21.3440 C   0  0  0  0  0  0  0  0  0  0  0  0
  -22.0180   -9.0360   20.4070 C   0  0  0  0  0  3  0  0  0  0  0  0
  -22.7510  -10.2200   20.2200 C   0  0  0  0  0  3  0  0  0  0  0  0
  -21.6720   -6.9380   21.4440 O   0  0  0  0  0  0  0  0  0  0  0  0
  -21.6060   -6.2130   22.6070 C   0  0  0  0  0  0  0  0  0  0  0  0
  -21.1260   -6.7770   23.8110 C   0  0  0  0  0  3  0  0  0  0  0  0
  -21.0070   -5.9750   24.9630 C   0  0  0  0  0  3  0  0  0  0  0  0
  -21.3580   -4.6130   24.9160 C   0  0  0  0  0  0  0  0  0  0  0  0
  -21.8310   -4.0500   23.7180 C   0  0  0  0  0  3  0  0  0  0  0  0
  -21.9510   -4.8480   22.5660 C   0  0  0  0  0  0  0  0  0  0  0  0
  -22.3860   -4.2940   21.4090 F   0  0  0  0  0  0  0  0  0  0  0  0
  -21.2360   -3.8410   26.0220 F   0  0  0  0  0  0  0  0  0  0  0  0
  -22.8510  -13.5730   21.2090 C   0  0  0  0  0  0  0  0  0  0  0  0
  -22.1530  -12.8690   22.0940 N   0  0  0  0  0  0  0  0  0  0  0  0
  -22.4040  -14.6150   20.7320 O   0  0  0  0  0  0  0  0  0  0  0  0
  -22.5260  -12.0270   22.5070 H   0  0  0  0  0  0  0  0  0  0  0  0
  -21.2280  -13.1790   22.3640 H   0  0  0  0  0  0  0  0  0  0  0  0
  -25.4720  -15.2110   20.2890 N   0  0  0  0  0  0  0  0  0  0  0  0
  -24.7220  -15.8800   20.4300 H   0  0  0  0  0  0  0  0  0  0  0  0
  -26.3070  -15.6310   19.9010 H   0  0  0  0  0  0  0  0  0  0  0  0
  -29.0150  -24.7240   19.0780 C   0  0  0  0  0  0  0  0  0  0  0  0
  -30.2360  -23.0180   16.4650 C   0  0  0  0  0  2  0  0  0  0  0  0
  -29.8520  -24.4710   16.7600 C   0  0  0  0  0  2  0  0  0  0  0  0
  -29.6000  -22.6570   17.8190 C   0  0  0  0  0  3  0  0  0  0  0  0
  -29.8250  -24.0580   18.1580 N   0  0  0  0  0  0  0  0  0  0  0  0
  -28.3150  -24.1030   19.8840 O   0  0  0  0  0  0  0  0  0  0  0  0
  -28.9850  -26.2580   18.9990 C   0  0  0  0  0  2  0  0  0  0  0  0
  -28.4890  -26.8210   20.2150 O   0  0  0  0  0  0  0  0  0  0  0  0
  -24.5440  -31.8830   23.2020 C   0  0  0  0  0  0  0  0  0  0  0  0
  -27.2900  -27.4910   20.1680 C   0  0  0  0  0  0  0  0  0  0  0  0
  -23.3730  -30.4660   21.5440 C   0  0  0  0  0  3  0  0  0  0  0  0
  -24.8650  -28.9380   20.1460 C   0  0  0  0  0  0  0  0  0  0  0  0
  -25.8910  -30.8550   21.3820 C   0  0  0  0  0  2  0  0  0  0  0  0
  -26.0000  -29.4810   20.7570 C   0  0  0  0  0  0  0  0  0  0  0  0
  -27.2090  -28.7560   20.7830 C   0  0  0  0  0  3  0  0  0  0  0  0
  -26.1380  -26.9470   19.5570 C   0  0  0  0  0  3  0  0  0  0  0  0
  -24.9240  -27.6640   19.5490 C   0  0  0  0  0  3  0  0  0  0  0  0
  -23.6090  -29.7810   20.1700 C   0  0  0  0  0  2  0  0  0  0  0  0
  -24.6190  -31.0810   22.1030 N   0  0  0  0  0  0  0  0  0  0  0  0
  -23.4530  -32.1490   23.7250 O   0  0  0  0  0  0  0  0  0  0  0  0
  -22.7150  -29.4430   22.4970 C   0  0  0  0  0  0  0  0  0  0  0  0
  -21.3930  -29.2580   22.3550 N   0  0  0  0  0  0  0  0  0  0  0  0
  -23.3930  -28.8200   23.3190 O   0  0  0  0  0  0  0  0  0  0  0  0
  -20.9070  -29.8140   21.6640 H   0  0  0  0  0  0  0  0  0  0  0  0
  -18.0100  -28.1020   22.8470 C   0  0  0  0  0  0  0  0  0  0  0  0
  -20.5710  -28.3200   23.1160 C   0  0  0  0  0  3  0  0  0  0  0  0
  -20.6540  -26.8970   22.5190 C   0  0  0  0  0  2  0  0  0  0  0  0
  -19.5450  -26.6030   21.5040 C   0  0  0  0  0  2  0  0  0  0  0  0
  -18.1670  -26.7580   22.1540 C   0  0  0  0  0  2  0  0  0  0  0  0
  -19.1390  -28.8410   23.2850 C   0  0  0  0  0  0  0  0  0  0  0  0
  -18.9400  -30.1000   23.8930 C   0  0  0  0  0  3  0  0  0  0  0  0
  -17.6440  -30.6190   24.0660 C   0  0  0  0  0  3  0  0  0  0  0  0
  -16.5270  -29.8760   23.6430 C   0  0  0  0  0  3  0  0  0  0  0  0
  -16.7120  -28.6180   23.0410 C   0  0  0  0  0  3  0  0  0  0  0  0
  -25.8190  -32.5230   23.8380 C   0  0  0  0  0  3  0  0  0  0  0  0
  -26.3280  -31.7540   25.1190 C   0  0  1  0  0  0  0  0  0  0  0  0
  -25.2210  -31.5030   26.1680 C   0  0  0  0  0  1  0  0  0  0  0  0
  -26.9280  -30.3820   24.7300 C   0  0  0  0  0  1  0  0  0  0  0  0
  -27.4580  -32.5590   25.8030 C   0  0  0  0  0  1  0  0  0  0  0  0
  -25.4940  -33.9190   24.1590 N   0  0  0  0  0  0  0  0  0  0  0  0
  -25.8420  -34.9710   23.4060 C   0  0  0  0  0  0  0  0  0  0  0  0
  -26.5370  -34.8700   22.3910 O   0  0  0  0  0  0  0  0  0  0  0  0
  -24.8710  -34.0720   24.9370 H   0  0  0  0  0  0  0  0  0  0  0  0
  -24.1270  -36.7650   22.9950 C   0  0  0  0  0  1  0  0  0  0  0  0
  -25.3360  -36.3570   23.8490 C   0  0  0  0  0  3  0  0  0  0  0  0
  -27.4330  -37.2460   24.7690 C   0  0  0  0  0  1  0  0  0  0  0  0
  -26.3710  -37.4110   23.7800 N   0  0  0  0  0  0  0  0  0  0  0  0
  -25.9580  -38.3300   23.9110 H   0  0  0  0  0  0  0  0  0  0  0  0
  1  3  2  0
  1  2  1  0
  4  2  1  0
  5  9  1  0
  5  7  1  0
  7  2  1  0
  7  6  1  0
  8  6  1  0
  8 12  1  0
  9  8  1  0
 10  5  2  0
 11  9  1  0
 13 21  1  0
 14 19  1  0
 15 16  1  0
 15 14  1  0
 17 16  1  0
 17 26  1  0
 17 18  1  0
 19 13  1  0
 19 18  1  0
 20 13  2  0
 21 12  1  0
 21 22  1  0
 23 24  2  0
 24 43  1  0
 25 24  1  0
 25 28  1  0
 26 27  1  0
 26 23  1  0
 27 25  2  0
 28 29  1  0
 29 30  2  0
 31 34  1  0
 31 30  1  0
 32 31  2  0
 33 32  1  0
 33 28  2  0
 34 35  1  0
 35 36  1  0
 36 37  2  0
 38 37  1  0
 38 42  1  0
 39 38  2  0
 40 35  2  0
 40 39  1  0
 41 40  1  0
 43 44  1  0
 44 47  1  0
 44 46  1  0
 45 43  2  0
 48 49  1  0
 48 23  1  0
 50 48  1  0
 51 56  2  0
 52 53  1  0
 52 54  1  0
 53 55  1  0
 54 55  1  0
 54  1  1  0
 55 51  1  0
 57 51  1  0
 57 58  1  0
 59 70  2  0
 60 58  1  0
 60 65  1  0
 61 69  1  0
 61 71  1  0
 62 68  1  0
 62 64  1  0
 63 69  1  0
 64 65  2  0
 64 63  1  0
 66 60  2  0
 67 66  1  0
 67 62  2  0
 68 61  1  0
 69 59  1  0
 71 73  2  0
 72 71  1  0
 74 72  1  0
 75 84  2  0
 75 80  1  0
 76 72  1  0
 76 80  1  0
 77 76  1  0
 78 79  1  0
 78 77  1  0
 79 75  1  0
 80 81  2  0
 81 82  1  0
 83 82  2  0
 84 83  1  0
 85 59  1  0
 85 90  1  0
 85 86  1  0
 86 89  1  1
 86 87  1  0
 88 86  1  0
 90 93  1  0
 91 95  1  0
 91 90  1  0
 92 91  2  0
 95 94  1  0
 97 95  1  0
 97 98  1  0
 97 96  1  0
M  ISO  4  13 100  21 100  57 101  58 101
M  END
>  <TORSDO>  (12) 
F 20

>  <SCORE>  (12) 
-14.008

>  <name>  (12) 
11

>  <ligand_id>  (12) 
11

>  <original_smiles>  (12) 
[H]c1c([H])c([H])c2c(c1[H])C([H])([H])C([H])([H])C([H])([H])C2([H])N([H])C(=O)C1([H])N(C(=O)C([H])(N([H])C(=O)C([H])(N([H])C([H])([H])[H])C([H])([H])[H])C(C([H])([H])[H])(C([H])([H])[H])C([H])([H])[H])C([H])([H])c2c([H])c(OC([H])([H])C(=O)N3C([H])([H])C([H])([H])C3([H])C(=O)N([H])C3([H])C(=O)N([H])C([H])(C([H])([H])N([H])C(=O)N4C([H])([H])C([H])([H])C([H])([H])C([H])(n5nc(-c6c([H])c([H])c(Oc7c([H])c([H])c(F)c([H])c7F)c([H])c6[H])c(C(=O)N([H])[H])c5N([H])[H])C4([H])[H])C3([H])[H])c([H])c([H])c2C1([H])[H]

>  <smiles>  (12) 
[H]c1c([H])c([H])c2c(c1[H])C([H])([H])C([H])([H])C([H])([H])C2([H])N([H])C(=O)C1([H])N(C(=O)C([H])(N([H])C(=O)C([H])(N([H])C([H])([H])[H])C([H])([H])[H])C(C([H])([H])[H])(C([H])([H])[H])C([H])([H])[H])C([H])([H])c2c([H])c(OC([H])([H])C(=O)N3C([H])([H])C([H])([H])C3([H])C(=O)N([H])C3([H])C(=O)N([H])C([H])(C([H])([H])N([H])C(=O)N4C([H])([H])C([H])([H])C([H])([H])C([H])(n5nc(-c6c([H])c([H])c(Oc7c([H])c([H])c(F)c([H])c7F)c([H])c6[H])c(C(=O)N([H])[H])c5N([H])[H])C4([H])[H])C3([H])[H])c([H])c([H])c2C1([H])[H]

$$$$
12:0:0
     RDKit          3D

 99107  0  0  1  0  0  0  0  0999 V2000
  -28.2670  -22.4620   19.8600 C   0  0  0  0  0  0  0  0  0  0  0  0
  -30.3550  -19.6070   21.3830 C   0  0  0  0  0  2  0  0  0  0  0  0
  -28.4390  -18.6560   20.2050 C   0  0  0  0  0  2  0  0  0  0  0  0
  -30.2090  -20.9670   20.6140 C   0  0  0  0  0  2  0  0  0  0  0  0
  -28.3170  -19.9940   19.4000 C   0  0  0  0  0  2  0  0  0  0  0  0
  -29.8760  -18.3080   20.6500 C   0  0  0  0  0  3  0  0  0  0  0  0
  -28.8740  -21.2260   20.0410 N   0  0  0  0  0  0  0  0  0  0  0  0
  -27.1610  -22.5020   19.3150 O   0  0  0  0  0  0  0  0  0  0  0  0
  -28.8900  -23.8750   20.2390 C   0  0  0  0  0  3  0  0  0  0  0  0
  -30.1940  -24.0800   19.5710 N   0  0  0  0  0  4  0  0  0  0  0  0
  -30.0980  -24.0290   18.5720 H   0  0  0  0  0  0  0  0  0  0  0  0
  -30.8650  -23.3910   19.8600 H   0  0  0  0  0  0  0  0  0  0  0  0
  -30.5600  -24.9880   19.8050 H   0  0  0  0  0  0  0  0  0  0  0  0
  -27.9120  -25.0910   19.8870 C   0  0  0  0  0  2  0  0  0  0  0  0
  -28.1870  -26.5090   20.2290 O   0  0  0  0  0  0  0  0  0  0  0  0
  -24.5930  -31.9880   23.2730 C   0  0  0  0  0  0  0  0  0  0  0  0
  -27.0900  -27.3930   20.1770 C   0  0  0  0  0  0  0  0  0  0  0  0
  -23.3470  -30.6160   21.6450 C   0  0  0  0  0  3  0  0  0  0  0  0
  -24.7550  -29.0510   20.1990 C   0  0  0  0  0  0  0  0  0  0  0  0
  -25.8920  -30.8880   21.4380 C   0  0  0  0  0  2  0  0  0  0  0  0
  -25.9400  -29.5120   20.7860 C   0  0  0  0  0  0  0  0  0  0  0  0
  -27.1100  -28.6950   20.7680 C   0  0  0  0  0  3  0  0  0  0  0  0
  -25.8770  -26.9960   19.5580 C   0  0  0  0  0  3  0  0  0  0  0  0
  -24.7260  -27.7970   19.5770 C   0  0  0  0  0  3  0  0  0  0  0  0
  -23.5350  -29.9450   20.2610 C   0  0  0  0  0  2  0  0  0  0  0  0
  -24.6310  -31.1800   22.1750 N   0  0  0  0  0  0  0  0  0  0  0  0
  -23.5210  -32.2850   23.8180 O   0  0  0  0  0  0  0  0  0  0  0  0
  -22.6780  -29.6060   22.6080 C   0  0  0  0  0  0  0  0  0  0  0  0
  -21.3510  -29.4330   22.4750 N   0  0  0  0  0  0  0  0  0  0  0  0
  -23.3500  -28.9820   23.4340 O   0  0  0  0  0  0  0  0  0  0  0  0
  -20.8690  -29.9870   21.7820 H   0  0  0  0  0  0  0  0  0  0  0  0
  -17.9660  -28.2550   22.9630 C   0  0  0  0  0  0  0  0  0  0  0  0
  -20.5230  -28.5060   23.2490 C   0  0  0  0  0  3  0  0  0  0  0  0
  -20.6220  -27.0680   22.6910 C   0  0  0  0  0  2  0  0  0  0  0  0
  -19.5270  -26.7390   21.6720 C   0  0  0  0  0  2  0  0  0  0  0  0
  -18.1410  -26.8970   22.3040 C   0  0  0  0  0  2  0  0  0  0  0  0
  -19.0840  -29.0180   23.3920 C   0  0  0  0  0  0  0  0  0  0  0  0
  -18.8670  -30.2880   23.9690 C   0  0  0  0  0  3  0  0  0  0  0  0
  -17.5630  -30.7960   24.1190 C   0  0  0  0  0  3  0  0  0  0  0  0
  -16.4590  -30.0310   23.7050 C   0  0  0  0  0  3  0  0  0  0  0  0
  -16.6600  -28.7630   23.1330 C   0  0  0  0  0  3  0  0  0  0  0  0
  -25.8930  -32.5960   23.8830 C   0  0  0  0  0  3  0  0  0  0  0  0
  -25.6260  -34.0110   24.1740 N   0  0  0  0  0  0  0  0  0  0  0  0
  -25.9630  -35.0300   23.3730 C   0  0  0  0  0  0  0  0  0  0  0  0
  -26.6020  -34.8780   22.3280 O   0  0  0  0  0  0  0  0  0  0  0  0
  -25.0560  -34.2060   24.9840 H   0  0  0  0  0  0  0  0  0  0  0  0
  -24.2600  -36.8470   23.0180 C   0  0  0  0  0  1  0  0  0  0  0  0
  -25.5210  -36.4440   23.7970 C   0  0  0  0  0  3  0  0  0  0  0  0
  -27.7000  -37.3150   24.5230 C   0  0  0  0  0  1  0  0  0  0  0  0
  -26.5700  -37.4700   23.6090 N   0  0  0  0  0  0  0  0  0  0  0  0
  -26.1890  -38.4030   23.7330 H   0  0  0  0  0  0  0  0  0  0  0  0
  -26.3800  -31.8430   25.1810 C   0  0  1  0  0  0  0  0  0  0  0  0
  -25.2750  -31.6650   26.2480 C   0  0  0  0  0  1  0  0  0  0  0  0
  -26.9260  -30.4390   24.8300 C   0  0  0  0  0  1  0  0  0  0  0  0
  -27.5500  -32.6210   25.8290 C   0  0  0  0  0  1  0  0  0  0  0  0
  -30.0050  -16.9680   21.5290 C   0  0  0  0  0  3  0  0  0  0  0  0
  -30.1990  -14.6820   20.2470 C   0  0  0  0  0  0  0  0  0  0  0  0
  -29.9350  -12.5550   18.9850 C   0  0  0  0  0  2  0  0  0  0  0  0
  -28.9030  -12.7310   17.8520 C   0  0  0  0  0  2  0  0  0  0  0  0
  -27.4740  -12.4800   18.3710 C   0  0  0  0  0  2  0  0  0  0  0  0
  -27.1740  -13.2400   19.6910 C   0  0  0  0  0  3  0  0  0  0  0  0
  -28.3130  -13.0550   20.7170 C   0  0  0  0  0  2  0  0  0  0  0  0
  -29.5660  -13.4820   20.0740 N   0  0  0  0  0  0  0  0  0  0  0  0
  -31.3070  -14.9010   19.7590 O   0  0  0  0  0  0  0  0  0  0  0  0
  -29.5380  -15.6520   20.9470 N   0  0  0  0  0  0  0  0  0  0  0  0
  -28.6060  -15.3810   21.2280 H   0  0  0  0  0  0  0  0  0  0  0  0
  -24.7930  -13.6780   20.5500 C   0  0  0  0  0  0  0  0  0  0  0  0
  -23.7970  -12.8340   20.9610 C   0  0  0  0  0  0  0  0  0  0  0  0
  -24.3390  -11.5140   20.8800 C   0  0  0  0  0  0  0  0  0  0  0  0
  -25.8750  -12.8680   20.2440 N   0  0  0  0  0  0  0  0  0  0  0  0
  -25.6110  -11.5610   20.5030 N   0  0  0  0  0  0  0  0  0  0  0  0
  -23.7020  -10.2070   21.0850 C   0  0  0  0  0  0  0  0  0  0  0  0
  -24.2080   -9.2770   22.0200 C   0  0  0  0  0  3  0  0  0  0  0  0
  -23.5670   -8.0330   22.2120 C   0  0  0  0  0  3  0  0  0  0  0  0
  -22.4070   -7.7110   21.4700 C   0  0  0  0  0  0  0  0  0  0  0  0
  -21.9200   -8.6320   20.5240 C   0  0  0  0  0  3  0  0  0  0  0  0
  -22.5620   -9.8660   20.3300 C   0  0  0  0  0  3  0  0  0  0  0  0
  -21.7330   -6.5180   21.5700 O   0  0  0  0  0  0  0  0  0  0  0  0
  -21.7230   -5.7940   22.7350 C   0  0  0  0  0  0  0  0  0  0  0  0
  -21.2360   -6.3340   23.9450 C   0  0  0  0  0  3  0  0  0  0  0  0
  -21.1800   -5.5320   25.1030 C   0  0  0  0  0  3  0  0  0  0  0  0
  -21.6000   -4.1900   25.0510 C   0  0  0  0  0  0  0  0  0  0  0  0
  -22.0810   -3.6490   23.8460 C   0  0  0  0  0  3  0  0  0  0  0  0
  -22.1390   -4.4470   22.6900 C   0  0  0  0  0  0  0  0  0  0  0  0
  -22.5830   -3.9150   21.5270 F   0  0  0  0  0  0  0  0  0  0  0  0
  -21.5400   -3.4170   26.1610 F   0  0  0  0  0  0  0  0  0  0  0  0
  -22.3900  -13.2190   21.3150 C   0  0  0  0  0  0  0  0  0  0  0  0
  -21.7540  -12.4670   22.2080 N   0  0  0  0  0  0  0  0  0  0  0  0
  -21.8620  -14.2230   20.8380 O   0  0  0  0  0  0  0  0  0  0  0  0
  -22.1940  -11.6550   22.6140 H   0  0  0  0  0  0  0  0  0  0  0  0
  -20.8140  -12.7070   22.4880 H   0  0  0  0  0  0  0  0  0  0  0  0
  -24.8630  -15.0590   20.3890 N   0  0  0  0  0  0  0  0  0  0  0  0
  -24.0630  -15.6610   20.5460 H   0  0  0  0  0  0  0  0  0  0  0  0
  -25.6600  -15.5540   20.0080 H   0  0  0  0  0  0  0  0  0  0  0  0
  -31.3860  -16.8480   22.2470 C   0  0  0  0  0  2  0  0  0  0  0  0
  -31.4920  -15.6890   23.1520 N   0  0  0  0  0  4  0  0  0  0  0  0
  -30.7460  -15.6900   23.8250 H   0  0  0  0  0  0  0  0  0  0  0  0
  -32.3630  -15.7320   23.6510 H   0  0  0  0  0  0  0  0  0  0  0  0
  -31.4770  -14.8310   22.6330 H   0  0  0  0  0  0  0  0  0  0  0  0
  1  7  1  0
  1  9  1  0
  3  6  1  0
  4  2  1  0
  5  7  1  0
  5  3  1  0
  6  2  1  0
  6 56  1  0
  7  4  1  0
  8  1  2  0
  9 14  1  0
 10 13  1  0
 10 12  1  0
 10  9  1  0
 11 10  1  0
 14 15  1  0
 16 27  2  0
 17 15  1  0
 17 22  1  0
 18 26  1  0
 18 28  1  0
 19 25  1  0
 19 21  1  0
 20 26  1  0
 21 20  1  0
 22 21  2  0
 23 24  1  0
 23 17  2  0
 24 19  2  0
 25 18  1  0
 26 16  1  0
 28 30  2  0
 29 28  1  0
 31 29  1  0
 32 41  2  0
 32 37  1  0
 33 29  1  0
 33 37  1  0
 34 33  1  0
 35 36  1  0
 35 34  1  0
 36 32  1  0
 37 38  2  0
 38 39  1  0
 40 39  2  0
 41 40  1  0
 42 16  1  0
 42 43  1  0
 42 52  1  0
 43 46  1  0
 44 48  1  0
 44 43  1  0
 45 44  2  0
 48 47  1  0
 50 51  1  0
 50 48  1  0
 50 49  1  0
 52 55  1  1
 52 53  1  0
 54 52  1  0
 56 95  1  0
 57 65  1  0
 58 63  1  0
 59 60  1  0
 59 58  1  0
 61 60  1  0
 61 70  1  0
 61 62  1  0
 63 57  1  0
 63 62  1  0
 64 57  2  0
 65 66  1  0
 65 56  1  0
 67 68  2  0
 68 87  1  0
 69 68  1  0
 69 72  1  0
 70 71  1  0
 70 67  1  0
 71 69  2  0
 72 73  1  0
 73 74  2  0
 75 78  1  0
 75 74  1  0
 76 75  2  0
 77 76  1  0
 77 72  2  0
 78 79  1  0
 79 80  1  0
 80 81  2  0
 82 81  1  0
 82 86  1  0
 83 82  2  0
 84 79  2  0
 84 83  1  0
 85 84  1  0
 87 88  1  0
 88 91  1  0
 88 90  1  0
 89 87  2  0
 92 93  1  0
 92 67  1  0
 94 92  1  0
 95 96  1  0
 96 98  1  0
 96 97  1  0
 99 96  1  0
M  ISO  4  14 101  15 101  57 100  65 100
M  END
>  <TORSDO>  (13) 
F 22

>  <SCORE>  (13) 
-11.781

>  <name>  (13) 
12

>  <ligand_id>  (13) 
12

>  <original_smiles>  (13) 
[H]c1c([H])c([H])c2c(c1[H])C([H])([H])C([H])([H])C([H])([H])C2([H])N([H])C(=O)C1([H])N(C(=O)C([H])(N([H])C(=O)C([H])(N([H])C([H])([H])[H])C([H])([H])[H])C(C([H])([H])[H])(C([H])([H])[H])C([H])([H])[H])C([H])([H])c2c([H])c(OC([H])([H])C([H])(C(=O)N3C([H])([H])C([H])([H])C([H])(C([H])(N([H])C(=O)N4C([H])([H])C([H])([H])C([H])([H])C([H])(n5nc(-c6c([H])c([H])c(Oc7c([H])c([H])c(F)c([H])c7F)c([H])c6[H])c(C(=O)N([H])[H])c5N([H])[H])C4([H])[H])C([H])([H])[N+]([H])([H])[H])C([H])([H])C3([H])[H])[N+]([H])([H])[H])c([H])c([H])c2C1([H])[H]

>  <smiles>  (13) 
[H]c1c([H])c([H])c2c(c1[H])C([H])([H])C([H])([H])C([H])([H])C2([H])N([H])C(=O)C1([H])N(C(=O)C([H])(N([H])C(=O)C([H])(N([H])C([H])([H])[H])C([H])([H])[H])C(C([H])([H])[H])(C([H])([H])[H])C([H])([H])[H])C([H])([H])c2c([H])c(OC([H])([H])C([H])(C(=O)N3C([H])([H])C([H])([H])C([H])(C([H])(N([H])C(=O)N4C([H])([H])C([H])([H])C([H])([H])C([H])(n5nc(-c6c([H])c([H])c(Oc7c([H])c([H])c(F)c([H])c7F)c([H])c6[H])c(C(=O)N([H])[H])c5N([H])[H])C4([H])[H])C([H])([H])[N+]([H])([H])[H])C([H])([H])C3([H])[H])[N+]([H])([H])[H])c([H])c([H])c2C1([H])[H]

$$$$
13:0:0
     RDKit          3D

 93101  0  0  1  0  0  0  0  0999 V2000
  -28.2890  -23.2590   19.7250 C   0  0  0  0  0  3  0  0  0  0  0  0
  -31.4740  -21.0080   19.3260 C   0  0  0  0  0  3  0  0  0  0  0  0
  -31.1490  -19.6650   19.6080 C   0  0  0  0  0  3  0  0  0  0  0  0
  -30.5590  -22.0670   19.4900 C   0  0  0  0  0  3  0  0  0  0  0  0
  -29.8950  -19.2830   20.1270 C   0  0  0  0  0  0  0  0  0  0  0  0
  -29.2300  -21.8790   19.9260 C   0  0  0  0  0  0  0  0  0  0  0  0
  -28.9320  -20.4390   20.2770 C   0  0  0  0  0  0  0  0  0  0  0  0
  -27.5520  -20.1130   20.8320 C   0  0  0  0  0  1  0  0  0  0  0  0
  -29.8580  -17.7180   20.7190 C   0  0  0  0  0  2  0  0  0  0  0  0
  -30.6460  -15.0890   19.9900 C   0  0  0  0  0  0  0  0  0  0  0  0
  -30.5130  -12.7500   18.9870 C   0  0  0  0  0  2  0  0  0  0  0  0
  -29.5200  -12.7060   17.8030 C   0  0  0  0  0  2  0  0  0  0  0  0
  -28.0720  -12.4980   18.2980 C   0  0  0  0  0  2  0  0  0  0  0  0
  -27.7200  -13.4040   19.5070 C   0  0  0  0  0  3  0  0  0  0  0  0
  -28.8300  -13.3850   20.5760 C   0  0  0  0  0  2  0  0  0  0  0  0
  -30.0550  -13.8280   19.9040 N   0  0  0  0  0  0  0  0  0  0  0  0
  -31.8660  -15.1420   19.7980 O   0  0  0  0  0  0  0  0  0  0  0  0
  -29.8300  -16.2670   20.0500 N   0  0  0  0  0  0  0  0  0  0  0  0
  -28.8740  -16.0100   19.8620 H   0  0  0  0  0  0  0  0  0  0  0  0
  -25.3830  -13.9880   20.3650 C   0  0  0  0  0  0  0  0  0  0  0  0
  -24.3330  -13.2160   20.7770 C   0  0  0  0  0  0  0  0  0  0  0  0
  -24.7880  -11.8630   20.7160 C   0  0  0  0  0  0  0  0  0  0  0  0
  -26.4090  -13.1050   20.0680 N   0  0  0  0  0  0  0  0  0  0  0  0
  -26.0670  -11.8230   20.3500 N   0  0  0  0  0  0  0  0  0  0  0  0
  -24.0630  -10.6040   20.9230 C   0  0  0  0  0  0  0  0  0  0  0  0
  -24.5030   -9.6430   21.8580 C   0  0  0  0  0  3  0  0  0  0  0  0
  -23.7770   -8.4470   22.0550 C   0  0  0  0  0  3  0  0  0  0  0  0
  -22.5970   -8.2040   21.3140 C   0  0  0  0  0  0  0  0  0  0  0  0
  -22.1760   -9.1530   20.3650 C   0  0  0  0  0  3  0  0  0  0  0  0
  -22.9030  -10.3380   20.1670 C   0  0  0  0  0  3  0  0  0  0  0  0
  -21.8420   -7.0600   21.4180 O   0  0  0  0  0  0  0  0  0  0  0  0
  -21.7680   -6.3500   22.5880 C   0  0  0  0  0  0  0  0  0  0  0  0
  -21.3100   -6.9350   23.7890 C   0  0  0  0  0  3  0  0  0  0  0  0
  -21.1910   -6.1510   24.9530 C   0  0  0  0  0  3  0  0  0  0  0  0
  -21.5160   -4.7830   24.9150 C   0  0  0  0  0  0  0  0  0  0  0  0
  -21.9620   -4.1940   23.7190 C   0  0  0  0  0  3  0  0  0  0  0  0
  -22.0860   -4.9760   22.5580 C   0  0  0  0  0  0  0  0  0  0  0  0
  -22.5000   -4.4030   21.4020 F   0  0  0  0  0  0  0  0  0  0  0  0
  -21.3890   -4.0260   26.0300 F   0  0  0  0  0  0  0  0  0  0  0  0
  -22.9500  -13.6970   21.0990 C   0  0  0  0  0  0  0  0  0  0  0  0
  -22.2500  -13.0040   21.9900 N   0  0  0  0  0  0  0  0  0  0  0  0
  -22.4990  -14.7260   20.5960 O   0  0  0  0  0  0  0  0  0  0  0  0
  -22.6290  -12.1740   22.4220 H   0  0  0  0  0  0  0  0  0  0  0  0
  -21.3210  -13.3080   22.2410 H   0  0  0  0  0  0  0  0  0  0  0  0
  -25.5390  -15.3600   20.1850 N   0  0  0  0  0  0  0  0  0  0  0  0
  -24.7640  -16.0010   20.3170 H   0  0  0  0  0  0  0  0  0  0  0  0
  -26.3430  -15.7950   19.7520 H   0  0  0  0  0  0  0  0  0  0  0  0
  -26.9060  -22.8910   19.3650 N   0  0  0  0  0  4  0  0  0  0  0  0
  -26.9060  -22.1140   18.7250 H   0  0  0  0  0  0  0  0  0  0  0  0
  -26.4450  -23.6600   18.9100 H   0  0  0  0  0  0  0  0  0  0  0  0
  -26.3680  -22.6510   20.1770 H   0  0  0  0  0  0  0  0  0  0  0  0
  -28.2960  -24.7180   20.5990 C   0  0  0  0  0  2  0  0  0  0  0  0
  -28.3280  -26.2180   20.1260 O   0  0  0  0  0  0  0  0  0  0  0  0
  -24.5310  -31.8260   23.1380 C   0  0  0  0  0  0  0  0  0  0  0  0
  -27.2270  -27.1490   20.1480 C   0  0  0  0  0  0  0  0  0  0  0  0
  -23.3800  -30.4140   21.4750 C   0  0  0  0  0  3  0  0  0  0  0  0
  -24.8740  -28.8600   20.0760 C   0  0  0  0  0  0  0  0  0  0  0  0
  -25.9310  -30.7240   21.3470 C   0  0  0  0  0  2  0  0  0  0  0  0
  -26.0350  -29.3280   20.7040 C   0  0  0  0  0  0  0  0  0  0  0  0
  -27.2140  -28.4890   20.7190 C   0  0  0  0  0  3  0  0  0  0  0  0
  -26.0390  -26.7830   19.4860 C   0  0  0  0  0  3  0  0  0  0  0  0
  -24.8880  -27.6010   19.4550 C   0  0  0  0  0  3  0  0  0  0  0  0
  -23.6350  -29.7400   20.0990 C   0  0  0  0  0  2  0  0  0  0  0  0
  -24.6330  -31.0110   22.0410 N   0  0  0  0  0  0  0  0  0  0  0  0
  -23.4310  -32.0910   23.6470 O   0  0  0  0  0  0  0  0  0  0  0  0
  -22.7010  -29.3940   22.4220 C   0  0  0  0  0  0  0  0  0  0  0  0
  -21.3790  -29.2100   22.2780 N   0  0  0  0  0  0  0  0  0  0  0  0
  -23.3690  -28.7710   23.2500 O   0  0  0  0  0  0  0  0  0  0  0  0
  -20.8940  -29.7670   21.5870 H   0  0  0  0  0  0  0  0  0  0  0  0
  -18.0010  -27.9860   22.7390 C   0  0  0  0  0  0  0  0  0  0  0  0
  -20.5570  -28.2620   23.0330 C   0  0  0  0  0  3  0  0  0  0  0  0
  -20.6710  -26.8370   22.4410 C   0  0  0  0  0  2  0  0  0  0  0  0
  -19.5780  -26.5180   21.4150 C   0  0  0  0  0  2  0  0  0  0  0  0
  -18.1910  -26.6460   22.0500 C   0  0  0  0  0  2  0  0  0  0  0  0
  -19.1110  -28.7530   23.1850 C   0  0  0  0  0  0  0  0  0  0  0  0
  -18.8740  -30.0070   23.7900 C   0  0  0  0  0  3  0  0  0  0  0  0
  -17.5620  -30.4920   23.9560 C   0  0  0  0  0  3  0  0  0  0  0  0
  -16.4680  -29.7220   23.5230 C   0  0  0  0  0  3  0  0  0  0  0  0
  -16.6890  -28.4720   22.9190 C   0  0  0  0  0  3  0  0  0  0  0  0
  -25.7860  -32.4780   23.7920 C   0  0  0  0  0  3  0  0  0  0  0  0
  -26.2920  -31.7080   25.0740 C   0  0  1  0  0  0  0  0  0  0  0  0
  -25.1810  -31.4460   26.1180 C   0  0  0  0  0  1  0  0  0  0  0  0
  -26.9050  -30.3430   24.6850 C   0  0  0  0  0  1  0  0  0  0  0  0
  -27.4220  -32.5120   25.7570 C   0  0  0  0  0  1  0  0  0  0  0  0
  -25.4460  -33.8700   24.1280 N   0  0  0  0  0  0  0  0  0  0  0  0
  -25.7740  -34.9360   23.3870 C   0  0  0  0  0  0  0  0  0  0  0  0
  -26.4580  -34.8530   22.3640 O   0  0  0  0  0  0  0  0  0  0  0  0
  -24.8460  -34.0110   24.9270 H   0  0  0  0  0  0  0  0  0  0  0  0
  -24.0260  -36.7090   23.0280 C   0  0  0  0  0  1  0  0  0  0  0  0
  -25.2610  -36.3130   23.8530 C   0  0  0  0  0  3  0  0  0  0  0  0
  -27.3700  -37.2200   24.7260 C   0  0  0  0  0  1  0  0  0  0  0  0
  -26.2800  -37.3820   23.7670 N   0  0  0  0  0  0  0  0  0  0  0  0
  -25.8580  -38.2950   23.9150 H   0  0  0  0  0  0  0  0  0  0  0  0
  1  6  1  0
  1 52  1  0
  2  4  2  0
  2  3  1  0
  3  5  2  0
  4  6  1  0
  5  7  1  0
  5  9  1  0
  6  7  2  0
  7  8  1  0
 10 18  1  0
 11 16  1  0
 12 13  1  0
 12 11  1  0
 14 13  1  0
 14 23  1  0
 14 15  1  0
 16 10  1  0
 16 15  1  0
 17 10  2  0
 18  9  1  0
 19 18  1  0
 20 21  2  0
 21 40  1  0
 22 21  1  0
 22 25  1  0
 23 24  1  0
 23 20  1  0
 24 22  2  0
 25 26  1  0
 26 27  2  0
 28 31  1  0
 28 27  1  0
 29 28  2  0
 30 29  1  0
 30 25  2  0
 31 32  1  0
 32 33  1  0
 33 34  2  0
 35 34  1  0
 35 39  1  0
 36 35  2  0
 37 32  2  0
 37 36  1  0
 38 37  1  0
 40 41  1  0
 41 44  1  0
 41 43  1  0
 42 40  2  0
 45 46  1  0
 45 20  1  0
 47 45  1  0
 48  1  1  0
 48 51  1  0
 49 48  1  0
 50 48  1  0
 53 55  1  0
 53 52  1  0
 54 65  2  0
 55 60  1  0
 56 64  1  0
 56 66  1  0
 57 63  1  0
 57 59  1  0
 58 64  1  0
 59 60  2  0
 59 58  1  0
 61 55  2  0
 62 61  1  0
 62 57  2  0
 63 56  1  0
 64 54  1  0
 66 68  2  0
 67 66  1  0
 69 67  1  0
 70 79  2  0
 70 75  1  0
 71 67  1  0
 71 75  1  0
 72 71  1  0
 73 74  1  0
 73 72  1  0
 74 70  1  0
 75 76  2  0
 76 77  1  0
 78 77  2  0
 79 78  1  0
 80 54  1  0
 80 85  1  0
 80 81  1  0
 81 84  1  1
 81 82  1  0
 83 81  1  0
 85 88  1  0
 86 90  1  0
 86 85  1  0
 87 86  2  0
 90 89  1  0
 92 90  1  0
 92 93  1  0
 92 91  1  0
M  ISO  4  10 100  18 100  52 101  53 101
M  END
>  <TORSDO>  (14) 
F 20

>  <SCORE>  (14) 
-13.784

>  <name>  (14) 
13

>  <ligand_id>  (14) 
13

>  <original_smiles>  (14) 
[H]c1c([H])c([H])c2c(c1[H])C([H])([H])C([H])([H])C([H])([H])C2([H])N([H])C(=O)C1([H])N(C(=O)C([H])(N([H])C(=O)C([H])(N([H])C([H])([H])[H])C([H])([H])[H])C(C([H])([H])[H])(C([H])([H])[H])C([H])([H])[H])C([H])([H])c2c([H])c(OC([H])([H])C([H])(c3c([H])c([H])c([H])c(C([H])([H])N([H])C(=O)N4C([H])([H])C([H])([H])C([H])([H])C([H])(n5nc(-c6c([H])c([H])c(Oc7c([H])c([H])c(F)c([H])c7F)c([H])c6[H])c(C(=O)N([H])[H])c5N([H])[H])C4([H])[H])c3C([H])([H])[H])[N+]([H])([H])[H])c([H])c([H])c2C1([H])[H]

>  <smiles>  (14) 
[H]c1c([H])c([H])c2c(c1[H])C([H])([H])C([H])([H])C([H])([H])C2([H])N([H])C(=O)C1([H])N(C(=O)C([H])(N([H])C(=O)C([H])(N([H])C([H])([H])[H])C([H])([H])[H])C(C([H])([H])[H])(C([H])([H])[H])C([H])([H])[H])C([H])([H])c2c([H])c(OC([H])([H])C([H])(c3c([H])c([H])c([H])c(C([H])([H])N([H])C(=O)N4C([H])([H])C([H])([H])C([H])([H])C([H])(n5nc(-c6c([H])c([H])c(Oc7c([H])c([H])c(F)c([H])c7F)c([H])c6[H])c(C(=O)N([H])[H])c5N([H])[H])C4([H])[H])c3C([H])([H])[H])[N+]([H])([H])[H])c([H])c([H])c2C1([H])[H]

$$$$
14:0:0
     RDKit          3D

 92100  0  0  1  0  0  0  0  0999 V2000
  -29.5880  -23.4240   18.5620 C   0  0  0  0  0  1  0  0  0  0  0  0
  -29.2480  -22.9000   20.0140 C   0  0  1  0  0  0  0  0  0  0  0  0
  -31.5310  -19.7240   18.9820 C   0  0  0  0  0  3  0  0  0  0  0  0
  -30.8640  -20.9320   19.2720 C   0  0  0  0  0  3  0  0  0  0  0  0
  -31.0590  -18.4570   19.3430 C   0  0  0  0  0  3  0  0  0  0  0  0
  -29.1390  -19.6520   20.2940 C   0  0  0  0  0  3  0  0  0  0  0  0
  -29.5910  -21.1060   19.8950 C   0  0  0  0  0  0  0  0  0  0  0  0
  -29.8650  -18.2650   20.0550 C   0  0  0  0  0  0  0  0  0  0  0  0
  -30.3470  -15.3690   20.2170 C   0  0  0  0  0  0  0  0  0  0  0  0
  -30.3270  -12.8970   19.3800 C   0  0  0  0  0  2  0  0  0  0  0  0
  -29.4150  -12.6760   18.1480 C   0  0  0  0  0  2  0  0  0  0  0  0
  -27.9670  -12.3920   18.5900 C   0  0  0  0  0  2  0  0  0  0  0  0
  -27.5080  -13.3480   19.7190 C   0  0  0  0  0  3  0  0  0  0  0  0
  -28.5600  -13.5330   20.8360 C   0  0  0  0  0  2  0  0  0  0  0  0
  -29.7820  -14.0530   20.1950 N   0  0  0  0  0  0  0  0  0  0  0  0
  -31.5620  -15.3340   19.9710 O   0  0  0  0  0  0  0  0  0  0  0  0
  -29.6060  -16.6740   20.3590 N   0  0  0  0  0  0  0  0  0  0  0  0
  -28.6660  -16.4950   20.6780 H   0  0  0  0  0  0  0  0  0  0  0  0
  -25.1430  -13.8780   20.5030 C   0  0  0  0  0  0  0  0  0  0  0  0
  -24.0920  -13.0920   20.8850 C   0  0  0  0  0  0  0  0  0  0  0  0
  -24.5700  -11.7450   20.8470 C   0  0  0  0  0  0  0  0  0  0  0  0
  -26.1900  -13.0120   20.2430 N   0  0  0  0  0  0  0  0  0  0  0  0
  -25.8600  -11.7230   20.5210 N   0  0  0  0  0  0  0  0  0  0  0  0
  -23.8520  -10.4780   21.0390 C   0  0  0  0  0  0  0  0  0  0  0  0
  -24.2960   -9.5080   21.9650 C   0  0  0  0  0  3  0  0  0  0  0  0
  -23.5730   -8.3090   22.1470 C   0  0  0  0  0  3  0  0  0  0  0  0
  -22.3930   -8.0690   21.4060 C   0  0  0  0  0  0  0  0  0  0  0  0
  -21.9680   -9.0270   20.4700 C   0  0  0  0  0  3  0  0  0  0  0  0
  -22.6910  -10.2180   20.2840 C   0  0  0  0  0  3  0  0  0  0  0  0
  -21.6410   -6.9230   21.4990 O   0  0  0  0  0  0  0  0  0  0  0  0
  -21.6080   -6.1750   22.6470 C   0  0  0  0  0  0  0  0  0  0  0  0
  -21.1850   -6.7190   23.8790 C   0  0  0  0  0  3  0  0  0  0  0  0
  -21.1010   -5.8970   25.0200 C   0  0  0  0  0  3  0  0  0  0  0  0
  -21.4280   -4.5310   24.9310 C   0  0  0  0  0  0  0  0  0  0  0  0
  -21.8420   -3.9850   23.7040 C   0  0  0  0  0  3  0  0  0  0  0  0
  -21.9300   -4.8040   22.5650 C   0  0  0  0  0  0  0  0  0  0  0  0
  -22.3090   -4.2690   21.3800 F   0  0  0  0  0  0  0  0  0  0  0  0
  -21.3390   -3.7390   26.0260 F   0  0  0  0  0  0  0  0  0  0  0  0
  -22.6940  -13.5580   21.1610 C   0  0  0  0  0  0  0  0  0  0  0  0
  -21.9730  -12.8660   22.0370 N   0  0  0  0  0  0  0  0  0  0  0  0
  -22.2460  -14.5760   20.6330 O   0  0  0  0  0  0  0  0  0  0  0  0
  -22.3460  -12.0450   22.4900 H   0  0  0  0  0  0  0  0  0  0  0  0
  -21.0330  -13.1610   22.2590 H   0  0  0  0  0  0  0  0  0  0  0  0
  -25.2920  -15.2510   20.3280 N   0  0  0  0  0  0  0  0  0  0  0  0
  -24.5120  -15.8890   20.4400 H   0  0  0  0  0  0  0  0  0  0  0  0
  -26.1190  -15.6930   19.9500 H   0  0  0  0  0  0  0  0  0  0  0  0
  -30.4050  -22.5320   22.2470 C   0  0  0  0  0  1  0  0  0  0  0  0
  -31.4000  -24.1480   20.6670 C   0  0  0  0  0  1  0  0  0  0  0  0
  -30.1700  -23.4270   21.0860 N   0  0  1  0  0  4  0  0  0  0  0  0
  -29.6150  -24.1700   21.4930 H   0  0  0  0  0  0  0  0  0  0  0  0
  -27.9540  -24.1510   20.2060 C   0  0  0  0  0  2  0  0  0  0  0  0
  -28.1290  -25.8180   20.2090 O   0  0  0  0  0  0  0  0  0  0  0  0
  -24.5830  -31.8360   23.1870 C   0  0  0  0  0  0  0  0  0  0  0  0
  -27.1080  -26.9190   20.1750 C   0  0  0  0  0  0  0  0  0  0  0  0
  -23.3790  -30.4370   21.5600 C   0  0  0  0  0  3  0  0  0  0  0  0
  -24.8150  -28.8190   20.1340 C   0  0  0  0  0  0  0  0  0  0  0  0
  -25.9460  -30.6360   21.3990 C   0  0  0  0  0  2  0  0  0  0  0  0
  -26.0090  -29.2220   20.7460 C   0  0  0  0  0  0  0  0  0  0  0  0
  -27.1480  -28.2930   20.7390 C   0  0  0  0  0  3  0  0  0  0  0  0
  -25.8830  -26.6750   19.5170 C   0  0  0  0  0  3  0  0  0  0  0  0
  -24.7790  -27.5670   19.4980 C   0  0  0  0  0  3  0  0  0  0  0  0
  -23.6000  -29.7480   20.1840 C   0  0  0  0  0  2  0  0  0  0  0  0
  -24.6580  -30.9980   22.1020 N   0  0  0  0  0  0  0  0  0  0  0  0
  -23.4970  -32.1270   23.7130 O   0  0  0  0  0  0  0  0  0  0  0  0
  -22.6870  -29.4460   22.5310 C   0  0  0  0  0  0  0  0  0  0  0  0
  -21.3550  -29.2860   22.4150 N   0  0  0  0  0  0  0  0  0  0  0  0
  -23.3530  -28.8210   23.3590 O   0  0  0  0  0  0  0  0  0  0  0  0
  -20.8700  -29.8400   21.7220 H   0  0  0  0  0  0  0  0  0  0  0  0
  -17.9710  -28.0780   22.9380 C   0  0  0  0  0  0  0  0  0  0  0  0
  -20.5330  -28.3520   23.1910 C   0  0  0  0  0  3  0  0  0  0  0  0
  -20.6340  -26.9160   22.6240 C   0  0  0  0  0  2  0  0  0  0  0  0
  -19.5280  -26.5870   21.6150 C   0  0  0  0  0  2  0  0  0  0  0  0
  -18.1490  -26.7290   22.2640 C   0  0  0  0  0  2  0  0  0  0  0  0
  -19.0900  -28.8470   23.3600 C   0  0  0  0  0  0  0  0  0  0  0  0
  -18.8660  -30.1090   23.9540 C   0  0  0  0  0  3  0  0  0  0  0  0
  -17.5590  -30.6000   24.1310 C   0  0  0  0  0  3  0  0  0  0  0  0
  -16.4560  -29.8290   23.7230 C   0  0  0  0  0  3  0  0  0  0  0  0
  -16.6630  -28.5700   23.1320 C   0  0  0  0  0  3  0  0  0  0  0  0
  -25.8560  -32.4810   23.8150 C   0  0  0  0  0  3  0  0  0  0  0  0
  -26.3690  -31.7130   25.0950 C   0  0  1  0  0  0  0  0  0  0  0  0
  -25.2770  -31.4830   26.1670 C   0  0  0  0  0  1  0  0  0  0  0  0
  -26.9500  -30.3300   24.7190 C   0  0  0  0  0  1  0  0  0  0  0  0
  -27.5220  -32.5070   25.7530 C   0  0  0  0  0  1  0  0  0  0  0  0
  -25.5360  -33.8780   24.1570 N   0  0  0  0  0  0  0  0  0  0  0  0
  -25.8490  -34.9450   23.4090 C   0  0  0  0  0  0  0  0  0  0  0  0
  -26.4980  -34.8550   22.3630 O   0  0  0  0  0  0  0  0  0  0  0  0
  -24.9560  -34.0210   24.9720 H   0  0  0  0  0  0  0  0  0  0  0  0
  -24.1020  -36.7390   23.1190 C   0  0  0  0  0  1  0  0  0  0  0  0
  -25.3690  -36.3310   23.8900 C   0  0  0  0  0  3  0  0  0  0  0  0
  -27.5220  -37.2260   24.6650 C   0  0  0  0  0  1  0  0  0  0  0  0
  -26.3930  -37.3920   23.7540 N   0  0  0  0  0  0  0  0  0  0  0  0
  -25.9870  -38.3100   23.9140 H   0  0  0  0  0  0  0  0  0  0  0  0
  2  1  1  6
  2 51  1  0
  2 49  1  0
  3  4  2  0
  3  5  1  0
  4  7  1  0
  5  8  2  0
  7  2  1  0
  7  6  2  0
  8  6  1  0
  8 17  1  0
  9 17  1  0
 10 15  1  0
 11 12  1  0
 11 10  1  0
 13 12  1  0
 13 22  1  0
 13 14  1  0
 15  9  1  0
 15 14  1  0
 16  9  2  0
 17 18  1  0
 19 20  2  0
 20 39  1  0
 21 20  1  0
 21 24  1  0
 22 19  1  0
 22 23  1  0
 23 21  2  0
 24 25  1  0
 25 26  2  0
 27 30  1  0
 27 26  1  0
 28 27  2  0
 29 28  1  0
 29 24  2  0
 30 31  1  0
 31 32  1  0
 32 33  2  0
 34 33  1  0
 34 38  1  0
 35 34  2  0
 36 31  2  0
 36 35  1  0
 37 36  1  0
 39 40  1  0
 40 43  1  0
 40 42  1  0
 41 39  2  0
 44 45  1  0
 44 19  1  0
 46 44  1  0
 48 49  1  0
 49 50  1  1
 49 47  1  0
 51 52  1  0
 53 64  2  0
 54 52  1  0
 54 59  1  0
 55 63  1  0
 55 65  1  0
 56 62  1  0
 56 58  1  0
 57 63  1  0
 58 57  1  0
 59 58  2  0
 60 54  2  0
 61 60  1  0
 61 56  2  0
 62 55  1  0
 63 53  1  0
 65 67  2  0
 66 65  1  0
 68 66  1  0
 69 78  2  0
 69 74  1  0
 70 66  1  0
 70 74  1  0
 71 70  1  0
 72 73  1  0
 72 71  1  0
 73 69  1  0
 74 75  2  0
 75 76  1  0
 77 76  2  0
 78 77  1  0
 79 53  1  0
 79 84  1  0
 79 80  1  0
 80 83  1  1
 80 81  1  0
 82 80  1  0
 84 87  1  0
 85 89  1  0
 85 84  1  0
 86 85  2  0
 89 88  1  0
 91 89  1  0
 91 92  1  0
 91 90  1  0
M  ISO  4   9 100  17 100  51 101  52 101
M  END
>  <TORSDO>  (15) 
F 19

>  <SCORE>  (15) 
-15.794

>  <name>  (15) 
14

>  <ligand_id>  (15) 
14

>  <original_smiles>  (15) 
[H]c1c([H])c([H])c2c(c1[H])C([H])([H])C([H])([H])C([H])([H])C2([H])N([H])C(=O)C1([H])N(C(=O)C([H])(N([H])C(=O)C([H])(N([H])C([H])([H])[H])C([H])([H])[H])C(C([H])([H])[H])(C([H])([H])[H])C([H])([H])[H])C([H])([H])c2c([H])c(OC([H])([H])C(c3c([H])c([H])c([H])c(N([H])C(=O)N4C([H])([H])C([H])([H])C([H])([H])C([H])(n5nc(-c6c([H])c([H])c(Oc7c([H])c([H])c(F)c([H])c7F)c([H])c6[H])c(C(=O)N([H])[H])c5N([H])[H])C4([H])[H])c3[H])(C([H])([H])[H])[N+]([H])(C([H])([H])[H])C([H])([H])[H])c([H])c([H])c2C1([H])[H]

>  <smiles>  (15) 
[H]c1c([H])c([H])c2c(c1[H])C([H])([H])C([H])([H])C([H])([H])C2([H])N([H])C(=O)C1([H])N(C(=O)C([H])(N([H])C(=O)C([H])(N([H])C([H])([H])[H])C([H])([H])[H])C(C([H])([H])[H])(C([H])([H])[H])C([H])([H])[H])C([H])([H])c2c([H])c(OC([H])([H])C(c3c([H])c([H])c([H])c(N([H])C(=O)N4C([H])([H])C([H])([H])C([H])([H])C([H])(n5nc(-c6c([H])c([H])c(Oc7c([H])c([H])c(F)c([H])c7F)c([H])c6[H])c(C(=O)N([H])[H])c5N([H])[H])C4([H])[H])c3[H])(C([H])([H])[H])[N+]([H])(C([H])([H])[H])C([H])([H])[H])c([H])c([H])c2C1([H])[H]

$$$$
15:0:0
     RDKit          3D

106115  0  0  1  0  0  0  0  0999 V2000
  -27.9840  -20.9300   20.7340 C   0  0  0  0  0  2  0  0  0  0  0  0
  -30.0500  -21.0310   19.5000 C   0  0  0  0  0  3  0  0  0  0  0  0
  -29.3960  -21.5120   20.8190 C   0  0  0  0  0  3  0  0  0  0  0  0
  -27.6510  -20.9280   19.2380 C   0  0  0  0  0  3  0  0  0  0  0  0
  -29.0940  -21.1290   17.2570 C   0  0  0  0  0  1  0  0  0  0  0  0
  -28.9420  -20.6230   18.6190 N   0  0  0  0  0  0  0  0  0  0  0  0
  -32.4530  -20.2040   19.4480 C   0  0  0  0  0  3  0  0  0  0  0  0
  -30.7410  -18.5940   20.0870 C   0  0  0  0  0  3  0  0  0  0  0  0
  -33.0730  -17.8990   19.9560 C   0  0  0  0  0  3  0  0  0  0  0  0
  -31.0920  -19.9130   19.6890 C   0  0  0  0  0  0  0  0  0  0  0  0
  -33.4460  -19.2110   19.5940 C   0  0  0  0  0  0  0  0  0  0  0  0
  -31.7190  -17.5760   20.1930 C   0  0  0  0  0  0  0  0  0  0  0  0
  -32.0880  -15.1470   20.5620 C   0  0  0  0  0  0  0  0  0  0  0  0
  -31.9830  -12.6780   20.4900 C   0  0  0  0  0  2  0  0  0  0  0  0
  -31.2630  -12.2210   19.2060 C   0  0  0  0  0  2  0  0  0  0  0  0
  -29.7370  -12.1820   19.4180 C   0  0  0  0  0  2  0  0  0  0  0  0
  -29.1890  -13.4810   20.0650 C   0  0  0  0  0  3  0  0  0  0  0  0
  -30.0320  -13.8790   21.2970 C   0  0  0  0  0  2  0  0  0  0  0  0
  -31.4360  -13.9910   20.8680 N   0  0  0  0  0  0  0  0  0  0  0  0
  -33.2650  -15.1690   20.1900 O   0  0  0  0  0  0  0  0  0  0  0  0
  -31.3260  -16.2590   20.5770 N   0  0  0  0  0  0  0  0  0  0  0  0
  -30.3460  -16.1090   20.7630 H   0  0  0  0  0  0  0  0  0  0  0  0
  -26.8050  -14.3440   20.5070 C   0  0  0  0  0  0  0  0  0  0  0  0
  -25.6280  -13.6920   20.7620 C   0  0  0  0  0  0  0  0  0  0  0  0
  -25.9460  -12.3000   20.7830 C   0  0  0  0  0  0  0  0  0  0  0  0
  -27.7700  -13.3560   20.3950 N   0  0  0  0  0  0  0  0  0  0  0  0
  -27.2500  -12.1220   20.6140 N   0  0  0  0  0  0  0  0  0  0  0  0
  -25.0760  -11.1220   20.8960 C   0  0  0  0  0  0  0  0  0  0  0  0
  -25.3020  -10.1260   21.8720 C   0  0  0  0  0  3  0  0  0  0  0  0
  -24.4400   -9.0130   21.9720 C   0  0  0  0  0  3  0  0  0  0  0  0
  -23.3370   -8.8870   21.0940 C   0  0  0  0  0  0  0  0  0  0  0  0
  -23.1300   -9.8690   20.1090 C   0  0  0  0  0  3  0  0  0  0  0  0
  -23.9930  -10.9740   20.0070 C   0  0  0  0  0  3  0  0  0  0  0  0
  -22.4630   -7.8280   21.1010 O   0  0  0  0  0  0  0  0  0  0  0  0
  -22.1060   -7.1970   22.2660 C   0  0  0  0  0  0  0  0  0  0  0  0
  -21.5160   -7.8950   23.3410 C   0  0  0  0  0  3  0  0  0  0  0  0
  -21.1010   -7.1970   24.4930 C   0  0  0  0  0  3  0  0  0  0  0  0
  -21.2670   -5.8000   24.5670 C   0  0  0  0  0  0  0  0  0  0  0  0
  -21.8500   -5.1020   23.4950 C   0  0  0  0  0  3  0  0  0  0  0  0
  -22.2660   -5.7990   22.3460 C   0  0  0  0  0  0  0  0  0  0  0  0
  -22.8070   -5.1180   21.3070 F   0  0  0  0  0  0  0  0  0  0  0  0
  -20.8620   -5.1260   25.6690 F   0  0  0  0  0  0  0  0  0  0  0  0
  -24.2670  -14.3150   20.8840 C   0  0  0  0  0  0  0  0  0  0  0  0
  -23.3970  -13.7320   21.7000 N   0  0  0  0  0  0  0  0  0  0  0  0
  -23.9850  -15.3560   20.2900 O   0  0  0  0  0  0  0  0  0  0  0  0
  -23.6360  -12.8900   22.2020 H   0  0  0  0  0  0  0  0  0  0  0  0
  -22.4790  -14.1340   21.8240 H   0  0  0  0  0  0  0  0  0  0  0  0
  -27.1300  -15.6880   20.3430 N   0  0  0  0  0  0  0  0  0  0  0  0
  -26.4190  -16.4110   20.3380 H   0  0  0  0  0  0  0  0  0  0  0  0
  -28.0450  -16.0250   20.0750 H   0  0  0  0  0  0  0  0  0  0  0  0
  -34.9110  -19.5400   19.3400 C   0  0  1  0  0  0  0  0  0  0  0  0
  -35.1680  -20.8220   19.6020 F   0  0  0  0  0  0  0  0  0  0  0  0
  -35.7080  -18.7930   20.1070 F   0  0  0  0  0  0  0  0  0  0  0  0
  -35.2040  -19.3000   18.0630 F   0  0  0  0  0  0  0  0  0  0  0  0
  -29.3660  -23.0500   21.0590 C   0  0  0  0  0  0  0  0  0  0  0  0
  -28.6750  -23.8460   20.2220 N   0  0  0  0  0  0  0  0  0  0  0  0
  -29.8870  -23.5040   22.0800 O   0  0  0  0  0  0  0  0  0  0  0  0
  -28.3410  -23.4300   19.3640 H   0  0  0  0  0  0  0  0  0  0  0  0
  -28.0640  -25.1330   20.5940 C   0  0  0  0  0  2  0  0  0  0  0  0
  -28.8720  -26.4140   20.2360 C   0  0  0  0  0  2  0  0  0  0  0  0
  -28.3310  -27.2060   19.1690 O   0  0  0  0  0  0  0  0  0  0  0  0
  -24.4940  -31.6650   23.2550 C   0  0  0  0  0  0  0  0  0  0  0  0
  -27.1460  -27.8580   19.4250 C   0  0  0  0  0  0  0  0  0  0  0  0
  -23.2400  -30.3590   21.5690 C   0  0  0  0  0  3  0  0  0  0  0  0
  -24.6590  -29.1320   19.8390 C   0  0  0  0  0  0  0  0  0  0  0  0
  -25.6950  -30.9630   21.1850 C   0  0  0  0  0  2  0  0  0  0  0  0
  -25.8270  -29.6820   20.3860 C   0  0  0  0  0  0  0  0  0  0  0  0
  -27.0760  -29.0480   20.1860 C   0  0  0  0  0  3  0  0  0  0  0  0
  -25.9680  -27.3350   18.8570 C   0  0  0  0  0  3  0  0  0  0  0  0
  -24.7220  -27.9540   19.0750 C   0  0  0  0  0  3  0  0  0  0  0  0
  -23.3630  -29.8670   20.1020 C   0  0  0  0  0  2  0  0  0  0  0  0
  -24.4990  -31.0060   22.0620 N   0  0  0  0  0  0  0  0  0  0  0  0
  -23.4560  -31.7760   23.9220 O   0  0  0  0  0  0  0  0  0  0  0  0
  -22.7720  -29.1800   22.4510 C   0  0  0  0  0  0  0  0  0  0  0  0
  -21.5130  -28.7530   22.2600 N   0  0  0  0  0  0  0  0  0  0  0  0
  -23.5370  -28.6520   23.2620 O   0  0  0  0  0  0  0  0  0  0  0  0
  -20.9450  -29.2470   21.5850 H   0  0  0  0  0  0  0  0  0  0  0  0
  -18.4850  -26.7870   22.4220 C   0  0  0  0  0  0  0  0  0  0  0  0
  -20.8700  -27.6330   22.9480 C   0  0  0  0  0  3  0  0  0  0  0  0
  -21.3640  -26.2790   22.3890 C   0  0  0  0  0  2  0  0  0  0  0  0
  -20.4730  -25.7270   21.2710 C   0  0  0  0  0  2  0  0  0  0  0  0
  -19.0400  -25.5300   21.7740 C   0  0  0  0  0  2  0  0  0  0  0  0
  -19.3450  -27.7810   22.9590 C   0  0  0  0  0  0  0  0  0  0  0  0
  -18.7790  -28.9460   23.5200 C   0  0  0  0  0  3  0  0  0  0  0  0
  -17.3820  -29.1240   23.5540 C   0  0  0  0  0  3  0  0  0  0  0  0
  -16.5360  -28.1290   23.0340 C   0  0  0  0  0  3  0  0  0  0  0  0
  -17.0860  -26.9630   22.4740 C   0  0  0  0  0  3  0  0  0  0  0  0
  -25.7850  -32.3300   23.8270 C   0  0  0  0  0  3  0  0  0  0  0  0
  -26.3750  -31.5710   25.0790 C   0  0  1  0  0  0  0  0  0  0  0  0
  -25.3110  -31.2050   26.1410 C   0  0  0  0  0  1  0  0  0  0  0  0
  -27.0740  -30.2610   24.6430 C   0  0  0  0  0  1  0  0  0  0  0  0
  -27.4560  -32.4420   25.7600 C   0  0  0  0  0  1  0  0  0  0  0  0
  -25.4530  -33.7190   24.1670 N   0  0  0  0  0  0  0  0  0  0  0  0
  -25.7450  -34.7790   23.4020 C   0  0  0  0  0  0  0  0  0  0  0  0
  -26.3950  -34.6920   22.3560 O   0  0  0  0  0  0  0  0  0  0  0  0
  -24.8710  -33.8580   24.9790 H   0  0  0  0  0  0  0  0  0  0  0  0
  -23.9590  -36.5230   23.0970 C   0  0  0  0  0  1  0  0  0  0  0  0
  -25.2360  -36.1550   23.8700 C   0  0  0  0  0  3  0  0  0  0  0  0
  -27.3820  -37.0880   24.6140 C   0  0  0  0  0  1  0  0  0  0  0  0
  -26.2360  -37.2350   23.7210 N   0  0  0  0  0  0  0  0  0  0  0  0
  -25.8150  -38.1440   23.8920 H   0  0  0  0  0  0  0  0  0  0  0  0
  -26.5860  -19.8760   18.8470 C   0  0  0  0  0  2  0  0  0  0  0  0
  -25.2420  -20.4610   18.7260 N   0  0  0  0  0  4  0  0  0  0  0  0
  -24.9440  -20.8590   19.5970 H   0  0  0  0  0  0  0  0  0  0  0  0
  -24.5840  -19.7470   18.4670 H   0  0  0  0  0  0  0  0  0  0  0  0
  -25.2250  -21.1700   18.0160 H   0  0  0  0  0  0  0  0  0  0  0  0
  1  3  1  0
  2 10  1  0
  2  3  1  0
  3 55  1  0
  4102  1  0
  4  1  1  0
  5  6  1  0
  6  4  1  0
  6  2  1  0
  7 11  2  0
  7 10  1  0
  8 12  1  0
  9 12  2  0
 10  8  2  0
 11  9  1  0
 12 21  1  0
 13 21  1  0
 13 19  1  0
 14 19  1  0
 15 16  1  0
 15 14  1  0
 17 16  1  0
 17 26  1  0
 17 18  1  0
 19 18  1  0
 20 13  2  0
 21 22  1  0
 23 24  2  0
 24 25  1  0
 24 43  1  0
 25 28  1  0
 26 23  1  0
 26 27  1  0
 27 25  2  0
 28 29  1  0
 29 30  2  0
 31 34  1  0
 31 30  1  0
 32 31  2  0
 33 32  1  0
 33 28  2  0
 34 35  1  0
 35 40  2  0
 35 36  1  0
 36 37  2  0
 37 38  1  0
 38 42  1  0
 39 38  2  0
 40 39  1  0
 41 40  1  0
 43 44  1  0
 44 47  1  0
 44 46  1  0
 45 43  2  0
 48 23  1  0
 49 48  1  0
 50 48  1  0
 51 11  1  0
 51 52  1  1
 51 53  1  0
 54 51  1  0
 55 57  2  0
 56 59  1  0
 56 55  1  0
 58 56  1  0
 60 59  1  0
 61 63  1  0
 61 60  1  0
 62 73  2  0
 63 68  1  0
 64 72  1  0
 64 74  1  0
 65 71  1  0
 65 67  1  0
 66 72  1  0
 67 66  1  0
 68 67  2  0
 69 70  1  0
 69 63  2  0
 70 65  2  0
 71 64  1  0
 72 62  1  0
 74 76  2  0
 75 74  1  0
 77 75  1  0
 78 87  2  0
 78 83  1  0
 79 75  1  0
 79 83  1  0
 80 79  1  0
 81 82  1  0
 81 80  1  0
 82 78  1  0
 83 84  2  0
 84 85  1  0
 86 85  2  0
 87 86  1  0
 88 62  1  0
 88 93  1  0
 88 89  1  0
 89 92  1  1
 89 90  1  0
 91 89  1  0
 93 96  1  0
 94 98  1  0
 94 93  1  0
 95 94  2  0
 98 97  1  0
100 98  1  0
100101  1  0
100 99  1  0
103102  1  0
103104  1  0
105103  1  0
106103  1  0
M  ISO  4  13 100  21 100  60 101  61 101
M  END
>  <TORSDO>  (16) 
F 23

>  <SCORE>  (16) 
-10.793

>  <name>  (16) 
15

>  <ligand_id>  (16) 
15

>  <original_smiles>  (16) 
[H]c1c([H])c([H])c2c(c1[H])C([H])([H])C([H])([H])C([H])([H])C2([H])N([H])C(=O)C1([H])N(C(=O)C([H])(N([H])C(=O)C([H])(N([H])C([H])([H])[H])C([H])([H])[H])C(C([H])([H])[H])(C([H])([H])[H])C([H])([H])[H])C([H])([H])c2c([H])c(OC([H])([H])C([H])([H])N([H])C(=O)C3([H])C([H])(c4c([H])c(N([H])C(=O)N5C([H])([H])C([H])([H])C([H])([H])C([H])(n6nc(-c7c([H])c([H])c(Oc8c([H])c([H])c(F)c([H])c8F)c([H])c7[H])c(C(=O)N([H])[H])c6N([H])[H])C5([H])[H])c([H])c(C(F)(F)F)c4[H])N(C([H])([H])[H])C([H])(C([H])([H])[N+]([H])([H])[H])C3([H])[H])c([H])c([H])c2C1([H])[H]

>  <smiles>  (16) 
[H]c1c([H])c([H])c2c(c1[H])C([H])([H])C([H])([H])C([H])([H])C2([H])N([H])C(=O)C1([H])N(C(=O)C([H])(N([H])C(=O)C([H])(N([H])C([H])([H])[H])C([H])([H])[H])C(C([H])([H])[H])(C([H])([H])[H])C([H])([H])[H])C([H])([H])c2c([H])c(OC([H])([H])C([H])([H])N([H])C(=O)C3([H])C([H])(c4c([H])c(N([H])C(=O)N5C([H])([H])C([H])([H])C([H])([H])C([H])(n6nc(-c7c([H])c([H])c(Oc8c([H])c([H])c(F)c([H])c8F)c([H])c7[H])c(C(=O)N([H])[H])c6N([H])[H])C5([H])[H])c([H])c(C(F)(F)F)c4[H])N(C([H])([H])[H])C([H])(C([H])([H])[N+]([H])([H])[H])C3([H])[H])c([H])c([H])c2C1([H])[H]

$$$$
16:0:0
     RDKit          3D

100109  0  0  1  0  0  0  0  0999 V2000
  -30.5310  -24.3160   20.0620 C   0  0  0  0  0  0  0  0  0  0  0  0
  -29.2270  -21.3050   21.7970 C   0  0  0  0  0  2  0  0  0  0  0  0
  -30.0820  -20.6840   19.5340 C   0  0  0  0  0  2  0  0  0  0  0  0
  -30.1640  -22.5330   21.8140 C   0  0  0  0  0  2  0  0  0  0  0  0
  -30.9860  -21.9350   19.5720 C   0  0  0  0  0  2  0  0  0  0  0  0
  -29.7790  -20.1380   20.9470 C   0  0  0  0  0  3  0  0  0  0  0  0
  -30.4720  -23.0080   20.4510 N   0  0  0  0  0  0  0  0  0  0  0  0
  -30.7680  -24.6290   18.8900 O   0  0  0  0  0  0  0  0  0  0  0  0
  -30.4070  -25.4800   21.0740 C   0  0  0  0  0  3  0  0  0  0  0  0
  -31.3720  -26.5390   20.7060 N   0  0  0  0  0  4  0  0  0  0  0  0
  -31.1660  -26.8270   19.7630 H   0  0  0  0  0  0  0  0  0  0  0  0
  -32.3090  -26.1750   20.7140 H   0  0  0  0  0  0  0  0  0  0  0  0
  -31.3170  -27.3350   21.3160 H   0  0  0  0  0  0  0  0  0  0  0  0
  -28.9840  -26.0870   21.1780 C   0  0  0  0  0  2  0  0  0  0  0  0
  -28.6760  -26.8760   20.0210 O   0  0  0  0  0  0  0  0  0  0  0  0
  -24.6970  -31.9000   23.1810 C   0  0  0  0  0  0  0  0  0  0  0  0
  -27.4930  -27.5740   20.0840 C   0  0  0  0  0  0  0  0  0  0  0  0
  -23.5460  -30.4980   21.4970 C   0  0  0  0  0  3  0  0  0  0  0  0
  -25.0570  -29.0080   20.0790 C   0  0  0  0  0  0  0  0  0  0  0  0
  -26.0630  -30.9170   21.3460 C   0  0  0  0  0  2  0  0  0  0  0  0
  -26.1910  -29.5540   20.6960 C   0  0  0  0  0  0  0  0  0  0  0  0
  -27.4110  -28.8420   20.7010 C   0  0  0  0  0  3  0  0  0  0  0  0
  -26.3470  -27.0380   19.4590 C   0  0  0  0  0  3  0  0  0  0  0  0
  -25.1290  -27.7470   19.4600 C   0  0  0  0  0  3  0  0  0  0  0  0
  -23.7940  -29.8390   20.1120 C   0  0  0  0  0  2  0  0  0  0  0  0
  -24.7850  -31.1200   22.0670 N   0  0  0  0  0  0  0  0  0  0  0  0
  -23.6030  -32.1420   23.7100 O   0  0  0  0  0  0  0  0  0  0  0  0
  -22.9000  -29.4520   22.4330 C   0  0  0  0  0  0  0  0  0  0  0  0
  -21.5810  -29.2460   22.2810 N   0  0  0  0  0  0  0  0  0  0  0  0
  -23.5830  -28.8290   23.2490 O   0  0  0  0  0  0  0  0  0  0  0  0
  -21.0920  -29.8020   21.5940 H   0  0  0  0  0  0  0  0  0  0  0  0
  -18.2240  -27.9780   22.7030 C   0  0  0  0  0  0  0  0  0  0  0  0
  -20.7710  -28.2800   23.0230 C   0  0  0  0  0  3  0  0  0  0  0  0
  -20.9120  -26.8600   22.4250 C   0  0  0  0  0  2  0  0  0  0  0  0
  -19.8340  -26.5340   21.3880 C   0  0  0  0  0  2  0  0  0  0  0  0
  -18.4380  -26.6430   22.0100 C   0  0  0  0  0  2  0  0  0  0  0  0
  -19.3210  -28.7540   23.1640 C   0  0  0  0  0  0  0  0  0  0  0  0
  -19.0690  -30.0040   23.7700 C   0  0  0  0  0  3  0  0  0  0  0  0
  -17.7520  -30.4790   23.9210 C   0  0  0  0  0  3  0  0  0  0  0  0
  -16.6700  -29.7000   23.4760 C   0  0  0  0  0  3  0  0  0  0  0  0
  -16.9060  -28.4520   22.8740 C   0  0  0  0  0  3  0  0  0  0  0  0
  -25.9610  -32.5460   23.8320 C   0  0  0  0  0  3  0  0  0  0  0  0
  -25.6290  -33.9370   24.1600 N   0  0  0  0  0  0  0  0  0  0  0  0
  -25.9540  -34.9950   23.4040 C   0  0  0  0  0  0  0  0  0  0  0  0
  -26.6380  -34.9010   22.3800 O   0  0  0  0  0  0  0  0  0  0  0  0
  -25.0240  -34.0830   24.9550 H   0  0  0  0  0  0  0  0  0  0  0  0
  -24.2030  -36.7590   23.0280 C   0  0  0  0  0  1  0  0  0  0  0  0
  -25.4410  -36.3760   23.8560 C   0  0  0  0  0  3  0  0  0  0  0  0
  -27.5480  -37.2970   24.7150 C   0  0  0  0  0  1  0  0  0  0  0  0
  -26.4590  -37.4430   23.7530 N   0  0  0  0  0  0  0  0  0  0  0  0
  -26.0360  -38.3580   23.8880 H   0  0  0  0  0  0  0  0  0  0  0  0
  -26.4670  -31.7740   25.1120 C   0  0  1  0  0  0  0  0  0  0  0  0
  -25.3570  -31.5120   26.1570 C   0  0  0  0  0  1  0  0  0  0  0  0
  -27.0780  -30.4090   24.7210 C   0  0  0  0  0  1  0  0  0  0  0  0
  -27.5920  -32.5810   25.8010 C   0  0  0  0  0  1  0  0  0  0  0  0
  -28.8650  -18.8680   20.9780 C   0  0  0  0  0  3  0  0  0  0  0  0
  -30.7290  -14.5720   20.2080 C   0  0  0  0  0  0  0  0  0  0  0  0
  -30.4930  -12.3200   19.2020 C   0  0  0  0  0  2  0  0  0  0  0  0
  -29.5410  -12.3690   17.9900 C   0  0  0  0  0  2  0  0  0  0  0  0
  -28.0800  -12.1810   18.4370 C   0  0  0  0  0  2  0  0  0  0  0  0
  -27.7050  -13.1150   19.6130 C   0  0  0  0  0  3  0  0  0  0  0  0
  -28.7660  -13.0530   20.7370 C   0  0  0  0  0  2  0  0  0  0  0  0
  -30.0770  -13.3720   20.1490 N   0  0  0  0  0  0  0  0  0  0  0  0
  -31.8360  -14.7350   19.6860 O   0  0  0  0  0  0  0  0  0  0  0  0
  -28.8290  -16.2170   20.6550 C   0  0  0  0  0  2  0  0  0  0  0  0
  -30.7170  -16.9060   21.2220 C   0  0  0  0  0  2  0  0  0  0  0  0
  -29.5390  -17.5590   20.4850 C   0  0  0  0  0  3  0  0  0  0  0  0
  -30.1380  -15.5870   20.8930 N   0  0  0  0  0  0  0  0  0  0  0  0
  -25.3340  -13.7470   20.3840 C   0  0  0  0  0  0  0  0  0  0  0  0
  -24.2690  -12.9790   20.7740 C   0  0  0  0  0  0  0  0  0  0  0  0
  -24.7200  -11.6260   20.7220 C   0  0  0  0  0  0  0  0  0  0  0  0
  -26.3640  -12.8570   20.1210 N   0  0  0  0  0  0  0  0  0  0  0  0
  -26.0020  -11.5770   20.3850 N   0  0  0  0  0  0  0  0  0  0  0  0
  -23.9940  -10.3660   20.9120 C   0  0  0  0  0  0  0  0  0  0  0  0
  -24.4050   -9.4150   21.8730 C   0  0  0  0  0  3  0  0  0  0  0  0
  -23.6790   -8.2180   22.0470 C   0  0  0  0  0  3  0  0  0  0  0  0
  -22.5310   -7.9630   21.2610 C   0  0  0  0  0  0  0  0  0  0  0  0
  -22.1400   -8.9020   20.2910 C   0  0  0  0  0  3  0  0  0  0  0  0
  -22.8650  -10.0910   20.1130 C   0  0  0  0  0  3  0  0  0  0  0  0
  -21.7800   -6.8160   21.3460 O   0  0  0  0  0  0  0  0  0  0  0  0
  -21.6420   -6.1300   22.5260 C   0  0  0  0  0  0  0  0  0  0  0  0
  -21.0920   -6.7340   23.6780 C   0  0  0  0  0  3  0  0  0  0  0  0
  -20.9050   -5.9750   24.8500 C   0  0  0  0  0  3  0  0  0  0  0  0
  -21.2580   -4.6120   24.8700 C   0  0  0  0  0  0  0  0  0  0  0  0
  -21.8010   -4.0070   23.7230 C   0  0  0  0  0  3  0  0  0  0  0  0
  -21.9900   -4.7640   22.5540 C   0  0  0  0  0  0  0  0  0  0  0  0
  -22.4950   -4.1720   21.4430 F   0  0  0  0  0  0  0  0  0  0  0  0
  -21.0700   -3.8790   25.9930 F   0  0  0  0  0  0  0  0  0  0  0  0
  -22.8800  -13.4620   21.0760 C   0  0  0  0  0  0  0  0  0  0  0  0
  -22.1690  -12.7690   21.9570 N   0  0  0  0  0  0  0  0  0  0  0  0
  -22.4370  -14.4900   20.5650 O   0  0  0  0  0  0  0  0  0  0  0  0
  -22.5430  -11.9400   22.3940 H   0  0  0  0  0  0  0  0  0  0  0  0
  -21.2400  -13.0760   22.2070 H   0  0  0  0  0  0  0  0  0  0  0  0
  -25.4980  -15.1190   20.2050 N   0  0  0  0  0  0  0  0  0  0  0  0
  -24.6810  -15.7200   20.2200 H   0  0  0  0  0  0  0  0  0  0  0  0
  -26.2510  -15.4870   19.6410 H   0  0  0  0  0  0  0  0  0  0  0  0
  -27.6120  -19.1200   20.2360 N   0  0  0  0  0  4  0  0  0  0  0  0
  -27.7800  -19.2220   19.2520 H   0  0  0  0  0  0  0  0  0  0  0  0
  -27.1710  -19.9580   20.5730 H   0  0  0  0  0  0  0  0  0  0  0  0
  -26.9610  -18.3660   20.3720 H   0  0  0  0  0  0  0  0  0  0  0  0
  1  7  1  0
  1  9  1  0
  2  4  1  0
  3  5  1  0
  3  6  1  0
  5  7  1  0
  6 56  1  0
  6  2  1  0
  7  4  1  0
  8  1  2  0
  9 14  1  0
 10 12  1  0
 10  9  1  0
 10 13  1  0
 11 10  1  0
 15 17  1  0
 15 14  1  0
 16 27  2  0
 17 22  1  0
 18 26  1  0
 18 28  1  0
 19 25  1  0
 19 21  1  0
 20 26  1  0
 21 22  2  0
 21 20  1  0
 23 24  1  0
 23 17  2  0
 24 19  2  0
 25 18  1  0
 26 16  1  0
 28 30  2  0
 29 28  1  0
 31 29  1  0
 32 41  2  0
 32 37  1  0
 33 29  1  0
 33 37  1  0
 34 33  1  0
 35 36  1  0
 35 34  1  0
 36 32  1  0
 37 38  2  0
 38 39  1  0
 40 39  2  0
 41 40  1  0
 42 16  1  0
 42 43  1  0
 42 52  1  0
 43 46  1  0
 44 48  1  0
 44 43  1  0
 45 44  2  0
 48 47  1  0
 50 48  1  0
 50 51  1  0
 50 49  1  0
 52 55  1  1
 52 53  1  0
 54 52  1  0
 56 97  1  0
 57 68  1  0
 58 63  1  0
 59 60  1  0
 59 58  1  0
 61 60  1  0
 61 72  1  0
 61 62  1  0
 63 57  1  0
 63 62  1  0
 64 57  2  0
 65 68  1  0
 67 65  1  0
 67 56  1  0
 67 66  1  0
 68 66  1  0
 69 70  2  0
 70 89  1  0
 71 70  1  0
 71 74  1  0
 72 69  1  0
 72 73  1  0
 73 71  2  0
 74 75  1  0
 75 76  2  0
 77 80  1  0
 77 76  1  0
 78 77  2  0
 79 78  1  0
 79 74  2  0
 80 81  1  0
 81 86  2  0
 81 82  1  0
 82 83  2  0
 83 84  1  0
 84 88  1  0
 85 84  2  0
 86 85  1  0
 87 86  1  0
 89 90  1  0
 90 93  1  0
 90 92  1  0
 91 89  2  0
 94 95  1  0
 94 69  1  0
 96 94  1  0
 97100  1  0
 97 99  1  0
 98 97  1  0
M  ISO  4  14 101  15 101  57 100  68 100
M  END
>  <TORSDO>  (17) 
F 21

>  <SCORE>  (17) 
-13.820

>  <name>  (17) 
16

>  <ligand_id>  (17) 
16

>  <original_smiles>  (17) 
[H]c1c([H])c([H])c2c(c1[H])C([H])([H])C([H])([H])C([H])([H])C2([H])N([H])C(=O)C1([H])N(C(=O)C([H])(N([H])C(=O)C([H])(N([H])C([H])([H])[H])C([H])([H])[H])C(C([H])([H])[H])(C([H])([H])[H])C([H])([H])[H])C([H])([H])c2c([H])c(OC([H])([H])C([H])(C(=O)N3C([H])([H])C([H])([H])C([H])(C([H])(C4([H])C([H])([H])N(C(=O)N5C([H])([H])C([H])([H])C([H])([H])C([H])(n6nc(-c7c([H])c([H])c(Oc8c([H])c([H])c(F)c([H])c8F)c([H])c7[H])c(C(=O)N([H])[H])c6N([H])[H])C5([H])[H])C4([H])[H])[N+]([H])([H])[H])C([H])([H])C3([H])[H])[N+]([H])([H])[H])c([H])c([H])c2C1([H])[H]

>  <smiles>  (17) 
[H]c1c([H])c([H])c2c(c1[H])C([H])([H])C([H])([H])C([H])([H])C2([H])N([H])C(=O)C1([H])N(C(=O)C([H])(N([H])C(=O)C([H])(N([H])C([H])([H])[H])C([H])([H])[H])C(C([H])([H])[H])(C([H])([H])[H])C([H])([H])[H])C([H])([H])c2c([H])c(OC([H])([H])C([H])(C(=O)N3C([H])([H])C([H])([H])C([H])(C([H])(C4([H])C([H])([H])N(C(=O)N5C([H])([H])C([H])([H])C([H])([H])C([H])(n6nc(-c7c([H])c([H])c(Oc8c([H])c([H])c(F)c([H])c8F)c([H])c7[H])c(C(=O)N([H])[H])c6N([H])[H])C5([H])[H])C4([H])[H])[N+]([H])([H])[H])C([H])([H])C3([H])[H])[N+]([H])([H])[H])c([H])c([H])c2C1([H])[H]

$$$$
17:0:0
     RDKit          3D

 98106  0  0  1  0  0  0  0  0999 V2000
  -29.6960  -19.3790   19.1050 C   0  0  0  0  0  2  0  0  0  0  0  0
  -28.3590  -20.1080   19.4040 C   0  0  0  0  0  2  0  0  0  0  0  0
  -28.6560  -22.5690   19.1610 C   0  0  0  0  0  0  0  0  0  0  0  0
  -28.5160  -21.5540   21.4180 C   0  0  0  0  0  1  0  0  0  0  0  0
  -28.5520  -21.4670   19.9510 N   0  0  0  0  0  0  0  0  0  0  0  0
  -28.7770  -22.4810   17.9330 O   0  0  0  0  0  0  0  0  0  0  0  0
  -28.5710  -23.9730   19.8040 C   0  0  0  0  0  2  0  0  0  0  0  0
  -28.1230  -25.0730   18.8230 C   0  0  0  0  0  2  0  0  0  0  0  0
  -28.0960  -26.3420   19.4920 O   0  0  0  0  0  0  0  0  0  0  0  0
  -24.7120  -31.5580   22.9390 C   0  0  0  0  0  0  0  0  0  0  0  0
  -26.9260  -27.0690   19.5900 C   0  0  0  0  0  0  0  0  0  0  0  0
  -23.3450  -30.2590   21.3500 C   0  0  0  0  0  3  0  0  0  0  0  0
  -24.6180  -28.7000   19.8000 C   0  0  0  0  0  0  0  0  0  0  0  0
  -25.8710  -30.4930   21.0070 C   0  0  0  0  0  2  0  0  0  0  0  0
  -25.8400  -29.1470   20.3190 C   0  0  0  0  0  0  0  0  0  0  0  0
  -26.9930  -28.3390   20.2100 C   0  0  0  0  0  3  0  0  0  0  0  0
  -25.6680  -26.6270   19.1000 C   0  0  0  0  0  3  0  0  0  0  0  0
  -24.5290  -27.4410   19.1920 C   0  0  0  0  0  3  0  0  0  0  0  0
  -23.4290  -29.6210   19.9430 C   0  0  0  0  0  2  0  0  0  0  0  0
  -24.6670  -30.7810   21.8210 N   0  0  0  0  0  0  0  0  0  0  0  0
  -23.6800  -31.8630   23.5500 O   0  0  0  0  0  0  0  0  0  0  0  0
  -22.7020  -29.2390   22.3160 C   0  0  0  0  0  0  0  0  0  0  0  0
  -21.3710  -29.0850   22.2240 N   0  0  0  0  0  0  0  0  0  0  0  0
  -23.3940  -28.5920   23.1060 O   0  0  0  0  0  0  0  0  0  0  0  0
  -20.8700  -29.6580   21.5600 H   0  0  0  0  0  0  0  0  0  0  0  0
  -17.9860  -27.9500   22.7840 C   0  0  0  0  0  0  0  0  0  0  0  0
  -20.5530  -28.1580   23.0070 C   0  0  0  0  0  3  0  0  0  0  0  0
  -20.6190  -26.7280   22.4250 C   0  0  0  0  0  2  0  0  0  0  0  0
  -19.4900  -26.4290   21.4320 C   0  0  0  0  0  2  0  0  0  0  0  0
  -18.1230  -26.5980   22.1020 C   0  0  0  0  0  2  0  0  0  0  0  0
  -19.1270  -28.6910   23.1900 C   0  0  0  0  0  0  0  0  0  0  0  0
  -18.9460  -29.9600   23.7790 C   0  0  0  0  0  3  0  0  0  0  0  0
  -17.6560  -30.4890   23.9730 C   0  0  0  0  0  3  0  0  0  0  0  0
  -16.5280  -29.7430   23.5870 C   0  0  0  0  0  3  0  0  0  0  0  0
  -16.6940  -28.4770   22.9960 C   0  0  0  0  0  3  0  0  0  0  0  0
  -26.0580  -32.1140   23.4900 C   0  0  0  0  0  3  0  0  0  0  0  0
  -26.6570  -31.2330   24.6520 C   0  0  1  0  0  0  0  0  0  0  0  0
  -25.6510  -30.9100   25.7800 C   0  0  0  0  0  1  0  0  0  0  0  0
  -27.1810  -29.8940   24.0900 C   0  0  0  0  0  1  0  0  0  0  0  0
  -27.8710  -31.9560   25.2790 C   0  0  0  0  0  1  0  0  0  0  0  0
  -25.8180  -33.4870   23.9530 N   0  0  0  0  0  0  0  0  0  0  0  0
  -26.1290  -34.5910   23.2650 C   0  0  0  0  0  0  0  0  0  0  0  0
  -26.7230  -34.5600   22.1820 O   0  0  0  0  0  0  0  0  0  0  0  0
  -25.2910  -33.5840   24.8080 H   0  0  0  0  0  0  0  0  0  0  0  0
  -24.4430  -36.4510   23.1600 C   0  0  0  0  0  1  0  0  0  0  0  0
  -25.7130  -35.9470   23.8660 C   0  0  0  0  0  3  0  0  0  0  0  0
  -27.9080  -36.7000   24.6550 C   0  0  0  0  0  1  0  0  0  0  0  0
  -26.7700  -36.9800   23.7870 N   0  0  0  0  0  0  0  0  0  0  0  0
  -26.4010  -37.8950   24.0310 H   0  0  0  0  0  0  0  0  0  0  0  0
  -29.6910  -17.8190   19.2230 C   0  0  0  0  0  3  0  0  0  0  0  0
  -30.1290  -17.5960   23.0560 C   0  0  0  0  0  3  0  0  0  0  0  0
  -31.1550  -16.6410   23.1880 C   0  0  0  0  0  3  0  0  0  0  0  0
  -29.6450  -17.9330   21.7750 C   0  0  0  0  0  3  0  0  0  0  0  0
  -31.6210  -15.9590   22.0480 C   0  0  0  0  0  3  0  0  0  0  0  0
  -30.1470  -17.3030   20.6080 C   0  0  0  0  0  0  0  0  0  0  0  0
  -31.0930  -16.2430   20.7610 C   0  0  0  0  0  0  0  0  0  0  0  0
  -32.1840  -14.3140   19.6260 C   0  0  0  0  0  0  0  0  0  0  0  0
  -31.6110  -12.1560   18.6400 C   0  0  0  0  0  2  0  0  0  0  0  0
  -30.6250  -12.5040   17.5040 C   0  0  0  0  0  2  0  0  0  0  0  0
  -29.1720  -12.5120   18.0340 C   0  0  0  0  0  2  0  0  0  0  0  0
  -29.0120  -13.3570   19.3330 C   0  0  0  0  0  3  0  0  0  0  0  0
  -30.1300  -13.0330   20.3500 C   0  0  0  0  0  2  0  0  0  0  0  0
  -31.4250  -13.1890   19.6690 N   0  0  0  0  0  0  0  0  0  0  0  0
  -33.3370  -14.3420   19.1990 O   0  0  0  0  0  0  0  0  0  0  0  0
  -31.4980  -15.4700   19.6320 N   0  0  0  0  0  0  0  0  0  0  0  0
  -31.7660  -16.0400   18.8290 H   0  0  0  0  0  0  0  0  0  0  0  0
  -26.7820  -14.2100   20.2960 C   0  0  0  0  0  0  0  0  0  0  0  0
  -25.6540  -13.5550   20.7120 C   0  0  0  0  0  0  0  0  0  0  0  0
  -25.9400  -12.1660   20.5900 C   0  0  0  0  0  0  0  0  0  0  0  0
  -27.6790  -13.2240   19.9240 N   0  0  0  0  0  0  0  0  0  0  0  0
  -27.1840  -11.9840   20.1640 N   0  0  0  0  0  0  0  0  0  0  0  0
  -25.0830  -10.9900   20.8020 C   0  0  0  0  0  0  0  0  0  0  0  0
  -25.3620  -10.0480   21.8140 C   0  0  0  0  0  3  0  0  0  0  0  0
  -24.5240   -8.9270   22.0090 C   0  0  0  0  0  3  0  0  0  0  0  0
  -23.3850   -8.7490   21.1890 C   0  0  0  0  0  0  0  0  0  0  0  0
  -23.1210   -9.6820   20.1710 C   0  0  0  0  0  3  0  0  0  0  0  0
  -23.9580  -10.7920   19.9770 C   0  0  0  0  0  3  0  0  0  0  0  0
  -22.5180   -7.6880   21.2940 O   0  0  0  0  0  0  0  0  0  0  0  0
  -22.1880   -7.1420   22.5090 C   0  0  0  0  0  0  0  0  0  0  0  0
  -21.6290   -7.9080   23.5550 C   0  0  0  0  0  3  0  0  0  0  0  0
  -21.2400   -7.2860   24.7570 C   0  0  0  0  0  3  0  0  0  0  0  0
  -21.4150   -5.8990   24.9210 C   0  0  0  0  0  0  0  0  0  0  0  0
  -21.9670   -5.1310   23.8810 C   0  0  0  0  0  3  0  0  0  0  0  0
  -22.3540   -5.7480   22.6790 C   0  0  0  0  0  0  0  0  0  0  0  0
  -22.8730   -5.0000   21.6790 F   0  0  0  0  0  0  0  0  0  0  0  0
  -21.0280   -5.3050   26.0730 F   0  0  0  0  0  0  0  0  0  0  0  0
  -24.3600  -14.1850   21.1350 C   0  0  0  0  0  0  0  0  0  0  0  0
  -23.6500  -13.5940   22.0900 N   0  0  0  0  0  0  0  0  0  0  0  0
  -23.9820  -15.2440   20.6390 O   0  0  0  0  0  0  0  0  0  0  0  0
  -23.9410  -12.7360   22.5280 H   0  0  0  0  0  0  0  0  0  0  0  0
  -22.7820  -14.0180   22.3850 H   0  0  0  0  0  0  0  0  0  0  0  0
  -27.1250  -15.5550   20.2010 N   0  0  0  0  0  0  0  0  0  0  0  0
  -26.4870  -16.1370   20.7350 H   0  0  0  0  0  0  0  0  0  0  0  0
  -28.0770  -15.6960   20.5050 H   0  0  0  0  0  0  0  0  0  0  0  0
  -28.4270  -17.2010   18.7690 N   0  0  0  0  0  4  0  0  0  0  0  0
  -28.2360  -17.4280   17.8070 H   0  0  0  0  0  0  0  0  0  0  0  0
  -27.6560  -17.5090   19.3300 H   0  0  0  0  0  0  0  0  0  0  0  0
  -28.4720  -16.1970   18.8310 H   0  0  0  0  0  0  0  0  0  0  0  0
  1  2  1  0
  2  5  1  0
  3  7  1  0
  3  5  1  0
  5  4  1  0
  6  3  2  0
  8  9  1  0
  8  7  1  0
  9 11  1  0
 10 21  2  0
 11 16  1  0
 12 20  1  0
 12 22  1  0
 13 19  1  0
 13 15  1  0
 14 20  1  0
 15 14  1  0
 16 15  2  0
 17 18  1  0
 17 11  2  0
 18 13  2  0
 19 12  1  0
 20 10  1  0
 22 24  2  0
 23 22  1  0
 25 23  1  0
 26 35  2  0
 26 31  1  0
 27 23  1  0
 27 31  1  0
 28 27  1  0
 29 30  1  0
 29 28  1  0
 30 26  1  0
 31 32  2  0
 32 33  1  0
 34 33  2  0
 35 34  1  0
 36 10  1  0
 36 41  1  0
 36 37  1  0
 37 40  1  1
 37 38  1  0
 39 37  1  0
 41 44  1  0
 42 46  1  0
 42 41  1  0
 43 42  2  0
 46 45  1  0
 48 46  1  0
 48 49  1  0
 48 47  1  0
 50  1  1  0
 50 55  1  0
 51 52  1  0
 53 51  2  0
 54 52  2  0
 55 56  2  0
 55 53  1  0
 56 54  1  0
 57 65  1  0
 57 63  1  0
 58 63  1  0
 59 60  1  0
 59 58  1  0
 61 60  1  0
 61 70  1  0
 61 62  1  0
 63 62  1  0
 64 57  2  0
 65 56  1  0
 66 65  1  0
 67 68  2  0
 68 87  1  0
 69 68  1  0
 69 72  1  0
 70 71  1  0
 70 67  1  0
 71 69  2  0
 72 73  1  0
 73 74  2  0
 75 78  1  0
 75 74  1  0
 76 75  2  0
 77 76  1  0
 77 72  2  0
 78 79  1  0
 79 84  2  0
 79 80  1  0
 80 81  2  0
 81 82  1  0
 82 86  1  0
 83 82  2  0
 84 83  1  0
 85 84  1  0
 87 88  1  0
 88 91  1  0
 88 90  1  0
 89 87  2  0
 92 67  1  0
 92 94  1  0
 92 93  1  0
 95 98  1  0
 95 50  1  0
 95 97  1  0
 96 95  1  0
M  ISO  4   8 101   9 101  57 100  65 100
M  END
>  <TORSDO>  (18) 
F 23

>  <SCORE>  (18) 
-8.626

>  <name>  (18) 
17

>  <ligand_id>  (18) 
17

>  <original_smiles>  (18) 
[H]c1c([H])c([H])c(C([H])(C([H])([H])C([H])([H])N(C(=O)C([H])([H])C([H])([H])Oc2c([H])c([H])c3c(c2[H])C([H])([H])N(C(=O)C([H])(N([H])C(=O)C([H])(N([H])C([H])([H])[H])C([H])([H])[H])C(C([H])([H])[H])(C([H])([H])[H])C([H])([H])[H])C([H])(C(=O)N([H])C2([H])c4c([H])c([H])c([H])c([H])c4C([H])([H])C([H])([H])C2([H])[H])C3([H])[H])C([H])([H])[H])[N+]([H])([H])[H])c(N([H])C(=O)N2C([H])([H])C([H])([H])C([H])([H])C([H])(n3nc(-c4c([H])c([H])c(Oc5c([H])c([H])c(F)c([H])c5F)c([H])c4[H])c(C(=O)N([H])[H])c3N([H])[H])C2([H])[H])c1[H]

>  <smiles>  (18) 
[H]c1c([H])c([H])c(C([H])(C([H])([H])C([H])([H])N(C(=O)C([H])([H])C([H])([H])Oc2c([H])c([H])c3c(c2[H])C([H])([H])N(C(=O)C([H])(N([H])C(=O)C([H])(N([H])C([H])([H])[H])C([H])([H])[H])C(C([H])([H])[H])(C([H])([H])[H])C([H])([H])[H])C([H])(C(=O)N([H])C2([H])c4c([H])c([H])c([H])c([H])c4C([H])([H])C([H])([H])C2([H])[H])C3([H])[H])C([H])([H])[H])[N+]([H])([H])[H])c(N([H])C(=O)N2C([H])([H])C([H])([H])C([H])([H])C([H])(n3nc(-c4c([H])c([H])c(Oc5c([H])c([H])c(F)c([H])c5F)c([H])c4[H])c(C(=O)N([H])[H])c3N([H])[H])C2([H])[H])c1[H]

$$$$
18:0:0
     RDKit          3D

108110  0  0  1  0  0  0  0  0999 V2000
  -24.8550  -26.2050   21.0360 C   0  0  0  0  0  0  0  0  0  0  0  0
  -25.8520  -25.1130   21.3490 N   0  0  0  0  0  0  0  0  0  0  0  0
  -23.9610  -25.7000   20.3580 O   0  0  0  0  0  0  0  0  0  0  0  0
  -26.5190  -25.3820   22.0630 H   0  0  0  0  0  0  0  0  0  0  0  0
  -26.2060  -28.1710   22.6450 C   0  0  0  0  0  0  0  0  0  0  0  0
  -24.2530  -30.3340   19.8940 C   0  0  0  0  0  3  0  0  0  0  0  0
  -24.8930  -30.6390   20.3810 C   0  0  0  0  0  3  0  0  0  0  0  0
  -24.5470  -28.0550   21.3140 C   0  0  0  0  0  2  0  0  0  0  0  0
  -25.2680  -28.8600   21.6720 N   0  0  0  0  0  2  0  0  0  0  0  0
  -25.6990  -27.6010   23.6190 O   0  0  0  0  0  0  0  0  0  0  0  0
  -27.8020  -27.9570   22.6270 C   0  0  0  0  0  3  0  0  0  0  0  0
  -28.3000  -27.8810   24.0350 N   0  0  0  0  0  4  0  0  0  0  0  0
  -27.8030  -27.1510   24.5220 H   0  0  0  0  0  0  0  0  0  0  0  0
  -28.1240  -28.7380   24.5420 H   0  0  0  0  0  0  0  0  0  0  0  0
  -29.2940  -27.7040   24.0950 H   0  0  0  0  0  0  0  0  0  0  0  0
  -28.4190  -26.6860   21.8730 C   0  0  0  0  0  2  0  0  0  0  0  0
  -28.5090  -26.5270   20.4190 O   0  0  0  0  0  0  0  0  0  0  0  0
  -24.6400  -31.8900   23.4750 C   0  0  0  0  0  0  0  0  0  0  0  0
  -27.6520  -27.2750   19.7150 C   0  0  0  0  0  3  0  0  0  0  0  0
  -23.1190  -30.0300   21.8720 C   0  0  0  0  0  1  0  0  0  0  0  0
  -25.2220  -28.4400   19.1420 C   0  0  0  0  0  3  0  0  0  0  0  0
  -26.6820  -30.6940   21.6680 C   0  0  0  0  0 15  0  0  0  0  0  0
  -26.6830  -29.3030   19.9060 C   0  0  0  0  0  3  0  0  0  0  0  0
  -27.8310  -28.6280   19.8730 C   0  0  0  0  0  2  0  0  0  0  0  0
  -26.6590  -26.6760   18.9120 C   0  0  0  0  0  2  0  0  0  0  0  0
  -25.4840  -27.3010   18.4970 C   0  0  0  0  0  2  0  0  0  0  0  0
  -22.9830  -28.5990   19.8590 C   0  0  0  0  0 15  0  0  0  0  0  0
  -24.8170  -30.9080   22.6210 N   0  0  0  0  0  1  0  0  0  0  0  0
  -23.5200  -32.2380   23.8530 O   0  0  0  0  0  0  0  0  0  0  0  0
  -22.4450  -29.3970   22.9470 C   0  0  0  0  0  0  0  0  0  0  0  0
  -21.2100  -29.1790   22.6120 N   0  0  0  0  0  0  0  0  0  0  0  0
  -23.0840  -28.9110   23.8700 O   0  0  0  0  0  0  0  0  0  0  0  0
  -20.8170  -29.5900   21.7790 H   0  0  0  0  0  0  0  0  0  0  0  0
  -17.9330  -28.1200   22.8580 C   0  0  0  0  0  0  0  0  0  0  0  0
  -20.4210  -28.2350   23.3050 C   0  0  0  0  0  3  0  0  0  0  0  0
  -20.5630  -26.8640   22.6190 C   0  0  0  0  0  2  0  0  0  0  0  0
  -19.5160  -26.6370   21.5370 C   0  0  0  0  0  2  0  0  0  0  0  0
  -18.1110  -26.7910   22.1370 C   0  0  0  0  0  2  0  0  0  0  0  0
  -19.0410  -28.8190   23.3740 C   0  0  0  0  0  0  0  0  0  0  0  0
  -18.8760  -30.0950   23.9600 C   0  0  0  0  0  3  0  0  0  0  0  0
  -17.5950  -30.6570   24.0680 C   0  0  0  0  0  3  0  0  0  0  0  0
  -16.4790  -29.9350   23.6100 C   0  0  0  0  0  3  0  0  0  0  0  0
  -16.6490  -28.6750   23.0060 C   0  0  0  0  0  3  0  0  0  0  0  0
  -25.9210  -32.5360   23.9980 C   0  0  0  0  0  3  0  0  0  0  0  0
  -26.4730  -31.7700   25.2520 C   0  0  1  0  0  0  0  0  0  0  0  0
  -25.3890  -31.4660   26.3080 C   0  0  0  0  0  1  0  0  0  0  0  0
  -27.0980  -30.4200   24.9290 C   0  0  0  0  0  1  0  0  0  0  0  0
  -27.6270  -32.5770   25.8660 C   0  0  0  0  0  1  0  0  0  0  0  0
  -25.5970  -33.9190   24.3070 N   0  0  0  0  0  0  0  0  0  0  0  0
  -25.9000  -34.9650   23.5330 C   0  0  0  0  0  0  0  0  0  0  0  0
  -26.5500  -34.8760   22.4870 O   0  0  0  0  0  0  0  0  0  0  0  0
  -25.0020  -34.0670   25.1090 H   0  0  0  0  0  0  0  0  0  0  0  0
  -24.1540  -36.7500   23.2420 C   0  0  0  0  0  1  0  0  0  0  0  0
  -25.4070  -36.3340   24.0240 C   0  0  0  0  0  3  0  0  0  0  0  0
  -27.5580  -37.1840   24.8430 C   0  0  0  0  0  1  0  0  0  0  0  0
  -26.4340  -37.3900   23.9320 N   0  0  0  0  0  0  0  0  0  0  0  0
  -26.0290  -38.3010   24.1280 H   0  0  0  0  0  0  0  0  0  0  0  0
  -26.2030  -23.5300   20.7770 C   0  0  0  0  0  2  0  0  0  0  0  0
  -27.2390  -22.1680   21.3000 C   0  0  0  0  0  0  0  0  0  0  0  0
  -27.6550  -20.8540   20.6890 N   0  0  0  0  0  0  0  0  0  0  0  0
  -27.7150  -22.3780   22.4120 O   0  0  0  0  0  0  0  0  0  0  0  0
  -27.3200  -20.8260   19.7370 H   0  0  0  0  0  0  0  0  0  0  0  0
  -30.2590  -15.3790   20.4620 C   0  0  0  0  0  0  0  0  0  0  0  0
  -30.4280  -12.9090   19.5800 C   0  0  0  0  0  2  0  0  0  0  0  0
  -29.5470  -12.6110   18.3340 C   0  0  0  0  0  2  0  0  0  0  0  0
  -28.1020  -12.2900   18.7480 C   0  0  0  0  0  2  0  0  0  0  0  0
  -27.6000  -13.2680   19.8390 C   0  0  0  0  0  3  0  0  0  0  0  0
  -28.6040  -13.4190   20.9940 C   0  0  0  0  0  2  0  0  0  0  0  0
  -29.8020  -14.0240   20.4030 N   0  0  0  0  0  0  0  0  0  0  0  0
  -31.4560  -15.4340   20.1130 O   0  0  0  0  0  0  0  0  0  0  0  0
  -27.6650  -18.2770   21.7000 C   0  0  0  0  0  2  0  0  0  0  0  0
  -29.4330  -18.2070   20.2030 C   0  0  0  0  0  2  0  0  0  0  0  0
  -28.4130  -16.8490   21.7430 C   0  0  0  0  0  3  0  0  0  0  0  0
  -28.5060  -19.4190   21.0840 C   0  0  0  0  0  3  0  0  0  0  0  0
  -29.4210  -16.6340   20.6680 N   0  0  0  0  0  0  0  0  0  0  0  0
  -25.2290  -13.8220   20.5720 C   0  0  0  0  0  0  0  0  0  0  0  0
  -24.1640  -13.0410   20.9260 C   0  0  0  0  0  0  0  0  0  0  0  0
  -24.6330  -11.6930   20.8790 C   0  0  0  0  0  0  0  0  0  0  0  0
  -26.2700  -12.9480   20.3220 N   0  0  0  0  0  0  0  0  0  0  0  0
  -25.9260  -11.6600   20.5740 N   0  0  0  0  0  0  0  0  0  0  0  0
  -23.9040  -10.4300   21.0440 C   0  0  0  0  0  0  0  0  0  0  0  0
  -24.3620   -9.4220   21.9200 C   0  0  0  0  0  3  0  0  0  0  0  0
  -23.6300   -8.2260   22.0780 C   0  0  0  0  0  3  0  0  0  0  0  0
  -22.4280   -8.0300   21.3570 C   0  0  0  0  0  0  0  0  0  0  0  0
  -21.9900   -9.0270   20.4670 C   0  0  0  0  0  3  0  0  0  0  0  0
  -22.7230  -10.2150   20.3060 C   0  0  0  0  0  3  0  0  0  0  0  0
  -21.6630   -6.8900   21.4270 O   0  0  0  0  0  0  0  0  0  0  0  0
  -21.6850   -6.0750   22.5300 C   0  0  0  0  0  0  0  0  0  0  0  0
  -21.4010   -6.5650   23.8230 C   0  0  0  0  0  3  0  0  0  0  0  0
  -21.3630   -5.6800   24.9180 C   0  0  0  0  0  3  0  0  0  0  0  0
  -21.6040   -4.3060   24.7230 C   0  0  0  0  0  0  0  0  0  0  0  0
  -21.8810   -3.8160   23.4350 C   0  0  0  0  0  3  0  0  0  0  0  0
  -21.9210   -4.6980   22.3410 C   0  0  0  0  0  0  0  0  0  0  0  0
  -22.1670   -4.2160   21.0990 F   0  0  0  0  0  0  0  0  0  0  0  0
  -21.5610   -3.4540   25.7740 F   0  0  0  0  0  0  0  0  0  0  0  0
  -22.7690  -13.5230   21.1910 C   0  0  0  0  0  0  0  0  0  0  0  0
  -22.0290  -12.8250   22.0460 N   0  0  0  0  0  0  0  0  0  0  0  0
  -22.3440  -14.5550   20.6750 O   0  0  0  0  0  0  0  0  0  0  0  0
  -22.3860  -11.9950   22.4950 H   0  0  0  0  0  0  0  0  0  0  0  0
  -21.0920  -13.1310   22.2600 H   0  0  0  0  0  0  0  0  0  0  0  0
  -25.3790  -15.1950   20.4110 N   0  0  0  0  0  0  0  0  0  0  0  0
  -24.5750  -15.8100   20.4800 H   0  0  0  0  0  0  0  0  0  0  0  0
  -26.1880  -15.6550   20.0150 H   0  0  0  0  0  0  0  0  0  0  0  0
  -28.9570  -16.5170   23.1390 C   0  0  0  0  0  0  0  0  0  0  0  0
  -28.0550  -16.1640   24.0410 N   0  0  0  0  0  0  0  0  0  0  0  0
  -30.1540  -16.5880   23.4060 O   0  0  0  0  0  0  0  0  0  0  0  0
  -27.0750  -16.1530   23.7890 H   0  0  0  0  0  0  0  0  0  0  0  0
  -28.3250  -15.9510   24.9880 H   0  0  0  0  0  0  0  0  0  0  0  0
  1  8  1  0
  1  2  1  0
  2  4  1  0
  3  1  2  0
  5 10  2  0
  6  7  3  0
  8  9  1  0
  9  5  1  0
 11 16  1  0
 11  5  1  0
 11 12  1  0
 12 15  1  0
 12 13  1  0
 12 14  1  0
 17 16  1  0
 18 29  2  0
 19 24  1  0
 19 17  1  0
 20 30  1  0
 21 23  2  0
 24 23  1  0
 25 19  1  0
 26 25  1  0
 26 21  1  0
 28 18  1  0
 30 32  2  0
 31 30  1  0
 33 31  1  0
 34 43  2  0
 34 39  1  0
 35 31  1  0
 35 39  1  0
 36 35  1  0
 37 38  1  0
 37 36  1  0
 38 34  1  0
 39 40  2  0
 40 41  1  0
 42 41  2  0
 43 42  1  0
 44 18  1  0
 44 49  1  0
 44 45  1  0
 45 48  1  1
 45 46  1  0
 47 45  1  0
 49 52  1  0
 50 54  1  0
 50 49  1  0
 51 50  2  0
 54 53  1  0
 56 54  1  0
 56 57  1  0
 56 55  1  0
 58 59  1  0
 58  2  1  0
 59 61  2  0
 60 59  1  0
 62 60  1  0
 63 75  1  0
 64 69  1  0
 65 66  1  0
 65 64  1  0
 67 66  1  0
 67 79  1  0
 67 68  1  0
 69 63  1  0
 69 68  1  0
 70 63  2  0
 71 73  1  0
 72 75  1  0
 72 74  1  0
 73104  1  0
 74 60  1  0
 74 71  1  0
 75 73  1  0
 76 77  2  0
 77 96  1  0
 78 77  1  0
 78 81  1  0
 79 76  1  0
 79 80  1  0
 80 78  2  0
 81 82  1  0
 82 83  2  0
 84 87  1  0
 84 83  1  0
 85 84  2  0
 86 85  1  0
 86 81  2  0
 87 88  1  0
 88 89  1  0
 89 90  2  0
 91 90  1  0
 91 95  1  0
 92 91  2  0
 93 88  2  0
 93 92  1  0
 94 93  1  0
 96 97  1  0
 97100  1  0
 97 99  1  0
 98 96  2  0
101102  1  0
101 76  1  0
103101  1  0
104106  2  0
104105  1  0
105108  1  0
107105  1  0
M  ISO  4  16 101  17 101  63 100  75 100
M  END
>  <TORSDO>  (19) 
F 23

>  <SCORE>  (19) 
6.557

>  <name>  (19) 
18

>  <ligand_id>  (19) 
18

>  <original_smiles>  (19) 
[H]c1c([H])c([H])c2c(c1[H])C([H])([H])C([H])([H])C([H])([H])C2([H])N([H])C(=O)C1([H])N(C(=O)C([H])(N([H])C(=O)C([H])(N([H])C([H])([H])[H])C([H])([H])[H])C(C([H])([H])[H])(C([H])([H])[H])C([H])([H])[H])C([H])([H])c2c([H])c(OC([H])([H])C([H])(C(=O)N3C([H])([H])C([H])([H])C3([H])C(=O)N([H])C([H])([H])C(=O)N([H])C3([H])C([H])([H])N(C(=O)N4C([H])([H])C([H])([H])C([H])([H])C([H])(n5nc(-c6c([H])c([H])c(Oc7c([H])c([H])c(F)c([H])c7F)c([H])c6[H])c(C(=O)N([H])[H])c5N([H])[H])C4([H])[H])C([H])(C(=O)N([H])[H])C3([H])[H])[N+]([H])([H])[H])c([H])c([H])c2C1([H])[H]

>  <smiles>  (19) 
[H]c1c([H])c([H])c2c(c1[H])C([H])([H])C([H])([H])C([H])([H])C2([H])N([H])C(=O)C1([H])N(C(=O)C([H])(N([H])C(=O)C([H])(N([H])C([H])([H])[H])C([H])([H])[H])C(C([H])([H])[H])(C([H])([H])[H])C([H])([H])[H])C([H])([H])c2c([H])c(OC([H])([H])C([H])(C(=O)N3C([H])([H])C([H])([H])C3([H])C(=O)N([H])C([H])([H])C(=O)N([H])C3([H])C([H])([H])N(C(=O)N4C([H])([H])C([H])([H])C([H])([H])C([H])(n5nc(-c6c([H])c([H])c(Oc7c([H])c([H])c(F)c([H])c7F)c([H])c6[H])c(C(=O)N([H])[H])c5N([H])[H])C4([H])[H])C([H])(C(=O)N([H])[H])C3([H])[H])[N+]([H])([H])[H])c([H])c([H])c2C1([H])[H]

$$$$
19:0:0
     RDKit          3D

 90 98  0  0  1  0  0  0  0  0999 V2000
  -28.6660  -21.1770   19.2560 C   0  0  0  0  0  3  0  0  0  0  0  0
  -28.9420  -19.7490   19.2170 C   0  0  0  0  0  3  0  0  0  0  0  0
  -29.9040  -21.3290   21.2620 C   0  0  0  0  0  3  0  0  0  0  0  0
  -29.1770  -22.0570   20.2630 C   0  0  0  0  0  0  0  0  0  0  0  0
  -29.7580  -19.0440   20.1670 C   0  0  0  0  0  0  0  0  0  0  0  0
  -30.1950  -19.9090   21.2230 C   0  0  0  0  0  0  0  0  0  0  0  0
  -31.0990  -19.3410   22.3010 C   0  0  0  0  0  1  0  0  0  0  0  0
  -30.3260  -24.0350   19.1430 C   0  0  0  0  0  1  0  0  0  0  0  0
  -29.2590  -23.6960   20.1940 C   0  0  0  0  0  3  0  0  0  0  0  0
  -28.0450  -24.7970   20.0000 C   0  0  0  0  0  2  0  0  0  0  0  0
  -28.2890  -26.3080   20.1700 O   0  0  0  0  0  0  0  0  0  0  0  0
  -24.6120  -31.8770   23.2050 C   0  0  0  0  0  0  0  0  0  0  0  0
  -27.2130  -27.2470   20.1240 C   0  0  0  0  0  0  0  0  0  0  0  0
  -23.4190  -30.4860   21.5570 C   0  0  0  0  0  3  0  0  0  0  0  0
  -24.8730  -28.9420   20.1170 C   0  0  0  0  0  0  0  0  0  0  0  0
  -25.9680  -30.7850   21.3870 C   0  0  0  0  0  2  0  0  0  0  0  0
  -26.0490  -29.4030   20.7220 C   0  0  0  0  0  0  0  0  0  0  0  0
  -27.2230  -28.5690   20.7100 C   0  0  0  0  0  3  0  0  0  0  0  0
  -26.0080  -26.8720   19.4910 C   0  0  0  0  0  3  0  0  0  0  0  0
  -24.8610  -27.6910   19.4890 C   0  0  0  0  0  3  0  0  0  0  0  0
  -23.6420  -29.8270   20.1710 C   0  0  0  0  0  2  0  0  0  0  0  0
  -24.6870  -31.0690   22.1060 N   0  0  0  0  0  0  0  0  0  0  0  0
  -23.5260  -32.1490   23.7370 O   0  0  0  0  0  0  0  0  0  0  0  0
  -22.7560  -29.4620   22.5090 C   0  0  0  0  0  0  0  0  0  0  0  0
  -21.4250  -29.2900   22.3930 N   0  0  0  0  0  0  0  0  0  0  0  0
  -23.4360  -28.8230   23.3170 O   0  0  0  0  0  0  0  0  0  0  0  0
  -20.9320  -29.8580   21.7180 H   0  0  0  0  0  0  0  0  0  0  0  0
  -18.0470  -28.0980   22.9170 C   0  0  0  0  0  0  0  0  0  0  0  0
  -20.6110  -28.3450   23.1600 C   0  0  0  0  0  3  0  0  0  0  0  0
  -20.7000  -26.9210   22.5640 C   0  0  0  0  0  2  0  0  0  0  0  0
  -19.5860  -26.6170   21.5570 C   0  0  0  0  0  2  0  0  0  0  0  0
  -18.2110  -26.7580   22.2200 C   0  0  0  0  0  2  0  0  0  0  0  0
  -19.1740  -28.8510   23.3450 C   0  0  0  0  0  0  0  0  0  0  0  0
  -18.9660  -30.1040   23.9600 C   0  0  0  0  0  3  0  0  0  0  0  0
  -17.6650  -30.6080   24.1490 C   0  0  0  0  0  3  0  0  0  0  0  0
  -16.5550  -29.8520   23.7350 C   0  0  0  0  0  3  0  0  0  0  0  0
  -16.7460  -28.6000   23.1270 C   0  0  0  0  0  3  0  0  0  0  0  0
  -25.8880  -32.5170   23.8330 C   0  0  0  0  0  3  0  0  0  0  0  0
  -26.4070  -31.7410   25.1050 C   0  0  1  0  0  0  0  0  0  0  0  0
  -25.3120  -31.4850   26.1660 C   0  0  0  0  0  1  0  0  0  0  0  0
  -27.0070  -30.3720   24.7090 C   0  0  0  0  0  1  0  0  0  0  0  0
  -27.5470  -32.5400   25.7780 C   0  0  0  0  0  1  0  0  0  0  0  0
  -25.5630  -33.9100   24.1780 N   0  0  0  0  0  0  0  0  0  0  0  0
  -25.8640  -34.9730   23.4200 C   0  0  0  0  0  0  0  0  0  0  0  0
  -26.5070  -34.8840   22.3710 O   0  0  0  0  0  0  0  0  0  0  0  0
  -24.9800  -34.0500   24.9900 H   0  0  0  0  0  0  0  0  0  0  0  0
  -24.0970  -36.7450   23.1320 C   0  0  0  0  0  1  0  0  0  0  0  0
  -25.3710  -36.3530   23.8990 C   0  0  0  0  0  3  0  0  0  0  0  0
  -27.5160  -37.2700   24.6650 C   0  0  0  0  0  1  0  0  0  0  0  0
  -26.3830  -37.4220   23.7550 N   0  0  0  0  0  0  0  0  0  0  0  0
  -25.9680  -38.3350   23.9150 H   0  0  0  0  0  0  0  0  0  0  0  0
  -30.4090  -17.5710   19.8730 C   0  0  0  0  0  2  0  0  0  0  0  0
  -30.6860  -14.9500   20.1030 C   0  0  0  0  0  0  0  0  0  0  0  0
  -30.4530  -12.6550   19.1080 C   0  0  0  0  0  2  0  0  0  0  0  0
  -29.4680  -12.6940   17.9200 C   0  0  0  0  0  2  0  0  0  0  0  0
  -28.0180  -12.5180   18.4080 C   0  0  0  0  0  2  0  0  0  0  0  0
  -27.6890  -13.3980   19.6440 C   0  0  0  0  0  3  0  0  0  0  0  0
  -28.7940  -13.3410   20.7190 C   0  0  0  0  0  2  0  0  0  0  0  0
  -30.0490  -13.7210   20.0650 N   0  0  0  0  0  0  0  0  0  0  0  0
  -31.8660  -15.0010   19.7450 O   0  0  0  0  0  0  0  0  0  0  0  0
  -29.9650  -16.1450   20.3020 N   0  0  0  0  0  0  0  0  0  0  0  0
  -29.0020  -16.0490   20.5840 H   0  0  0  0  0  0  0  0  0  0  0  0
  -25.3430  -13.9660   20.4970 C   0  0  0  0  0  0  0  0  0  0  0  0
  -24.2940  -13.1840   20.8970 C   0  0  0  0  0  0  0  0  0  0  0  0
  -24.7530  -11.8330   20.8160 C   0  0  0  0  0  0  0  0  0  0  0  0
  -26.3730  -13.0920   20.1940 N   0  0  0  0  0  0  0  0  0  0  0  0
  -26.0290  -11.8030   20.4520 N   0  0  0  0  0  0  0  0  0  0  0  0
  -24.0310  -10.5680   21.0090 C   0  0  0  0  0  0  0  0  0  0  0  0
  -24.4800   -9.5920   21.9260 C   0  0  0  0  0  3  0  0  0  0  0  0
  -23.7560   -8.3950   22.1090 C   0  0  0  0  0  3  0  0  0  0  0  0
  -22.5680   -8.1630   21.3760 C   0  0  0  0  0  0  0  0  0  0  0  0
  -22.1370   -9.1280   20.4480 C   0  0  0  0  0  3  0  0  0  0  0  0
  -22.8620  -10.3170   20.2630 C   0  0  0  0  0  3  0  0  0  0  0  0
  -21.8150   -7.0170   21.4680 O   0  0  0  0  0  0  0  0  0  0  0  0
  -21.7600   -6.2840   22.6250 C   0  0  0  0  0  0  0  0  0  0  0  0
  -21.2970   -6.8380   23.8380 C   0  0  0  0  0  3  0  0  0  0  0  0
  -21.1940   -6.0300   24.9880 C   0  0  0  0  0  3  0  0  0  0  0  0
  -21.5410   -4.6670   24.9250 C   0  0  0  0  0  0  0  0  0  0  0  0
  -21.9970   -4.1120   23.7150 C   0  0  0  0  0  3  0  0  0  0  0  0
  -22.1030   -4.9180   22.5680 C   0  0  0  0  0  0  0  0  0  0  0  0
  -22.5220   -4.3730   21.4000 F   0  0  0  0  0  0  0  0  0  0  0  0
  -21.4340   -3.8870   26.0250 F   0  0  0  0  0  0  0  0  0  0  0  0
  -22.9100  -13.6580   21.2360 C   0  0  0  0  0  0  0  0  0  0  0  0
  -22.2150  -12.9510   22.1180 N   0  0  0  0  0  0  0  0  0  0  0  0
  -22.4530  -14.6920   20.7490 O   0  0  0  0  0  0  0  0  0  0  0  0
  -22.5950  -12.1150   22.5380 H   0  0  0  0  0  0  0  0  0  0  0  0
  -21.2880  -13.2530   22.3820 H   0  0  0  0  0  0  0  0  0  0  0  0
  -25.5000  -15.3410   20.3370 N   0  0  0  0  0  0  0  0  0  0  0  0
  -24.7300  -15.9860   20.4790 H   0  0  0  0  0  0  0  0  0  0  0  0
  -26.3210  -15.7830   19.9460 H   0  0  0  0  0  0  0  0  0  0  0  0
  1  4  1  0
  2  1  2  0
  2  5  1  0
  4  3  2  0
  5  6  2  0
  6  3  1  0
  6  7  1  0
  9  8  1  0
  9  4  1  0
 10 11  1  0
 10  9  1  0
 12 23  2  0
 13 11  1  0
 13 18  1  0
 14 22  1  0
 14 24  1  0
 15 21  1  0
 15 17  1  0
 16 22  1  0
 17 16  1  0
 18 17  2  0
 19 13  2  0
 20 19  1  0
 20 15  2  0
 21 14  1  0
 22 12  1  0
 24 26  2  0
 25 24  1  0
 27 25  1  0
 28 37  2  0
 28 33  1  0
 29 25  1  0
 29 33  1  0
 30 29  1  0
 31 32  1  0
 31 30  1  0
 32 28  1  0
 33 34  2  0
 34 35  1  0
 36 35  2  0
 37 36  1  0
 38 12  1  0
 38 43  1  0
 38 39  1  0
 39 42  1  1
 39 40  1  0
 41 39  1  0
 43 46  1  0
 44 48  1  0
 44 43  1  0
 45 44  2  0
 48 47  1  0
 50 48  1  0
 50 51  1  0
 50 49  1  0
 52  5  1  0
 52 61  1  0
 53 61  1  0
 54 59  1  0
 55 56  1  0
 55 54  1  0
 57 56  1  0
 57 66  1  0
 57 58  1  0
 59 53  1  0
 59 58  1  0
 60 53  2  0
 61 62  1  0
 63 64  2  0
 64 83  1  0
 65 64  1  0
 65 68  1  0
 66 67  1  0
 66 63  1  0
 67 65  2  0
 68 69  1  0
 69 70  2  0
 71 74  1  0
 71 70  1  0
 72 71  2  0
 73 72  1  0
 73 68  2  0
 74 75  1  0
 75 76  1  0
 76 77  2  0
 78 77  1  0
 78 82  1  0
 79 78  2  0
 80 75  2  0
 80 79  1  0
 81 80  1  0
 83 84  1  0
 84 87  1  0
 84 86  1  0
 85 83  2  0
 88 89  1  0
 88 63  1  0
 90 88  1  0
M  ISO  4  10 101  11 101  53 100  61 100
M  END
>  <TORSDO>  (20) 
F 19

>  <SCORE>  (20) 
-14.216

>  <name>  (20) 
19

>  <ligand_id>  (20) 
19

>  <original_smiles>  (20) 
[H]c1c([H])c([H])c2c(c1[H])C([H])([H])C([H])([H])C([H])([H])C2([H])N([H])C(=O)C1([H])N(C(=O)C([H])(N([H])C(=O)C([H])(N([H])C([H])([H])[H])C([H])([H])[H])C(C([H])([H])[H])(C([H])([H])[H])C([H])([H])[H])C([H])([H])c2c([H])c(OC([H])([H])C([H])(c3c([H])c([H])c(C([H])([H])N([H])C(=O)N4C([H])([H])C([H])([H])C([H])([H])C([H])(n5nc(-c6c([H])c([H])c(Oc7c([H])c([H])c(F)c([H])c7F)c([H])c6[H])c(C(=O)N([H])[H])c5N([H])[H])C4([H])[H])c(C([H])([H])[H])c3[H])C([H])([H])[H])c([H])c([H])c2C1([H])[H]

>  <smiles>  (20) 
[H]c1c([H])c([H])c2c(c1[H])C([H])([H])C([H])([H])C([H])([H])C2([H])N([H])C(=O)C1([H])N(C(=O)C([H])(N([H])C(=O)C([H])(N([H])C([H])([H])[H])C([H])([H])[H])C(C([H])([H])[H])(C([H])([H])[H])C([H])([H])[H])C([H])([H])c2c([H])c(OC([H])([H])C([H])(c3c([H])c([H])c(C([H])([H])N([H])C(=O)N4C([H])([H])C([H])([H])C([H])([H])C([H])(n5nc(-c6c([H])c([H])c(Oc7c([H])c([H])c(F)c([H])c7F)c([H])c6[H])c(C(=O)N([H])[H])c5N([H])[H])C4([H])[H])c(C([H])([H])[H])c3[H])C([H])([H])[H])c([H])c([H])c2C1([H])[H]

$$$$
20:0:0
     RDKit          3D

104112  0  0  1  0  0  0  0  0999 V2000
  -30.5830  -18.0790   23.7550 C   0  0  0  0  0  3  0  0  0  0  0  0
  -30.5940  -17.3240   22.5780 C   0  0  0  0  0  3  0  0  0  0  0  0
  -30.3410  -20.0760   22.4250 C   0  0  0  0  0  3  0  0  0  0  0  0
  -30.4600  -19.4670   23.6890 C   0  0  0  0  0  0  0  0  0  0  0  0
  -30.4600  -17.8830   21.2780 C   0  0  0  0  0  0  0  0  0  0  0  0
  -30.3560  -19.3710   21.1840 C   0  0  0  0  0  0  0  0  0  0  0  0
  -30.4270  -20.2760   24.9540 C   0  0  0  0  0  0  0  0  0  0  0  0
  -31.0070  -21.4690   24.9020 N   0  0  0  0  0  0  0  0  0  0  0  0
  -29.9380  -19.8340   25.9930 O   0  0  0  0  0  0  0  0  0  0  0  0
  -31.4700  -21.7720   24.0610 H   0  0  0  0  0  0  0  0  0  0  0  0
  -31.0370  -22.0530   25.7240 H   0  0  0  0  0  0  0  0  0  0  0  0
  -30.2840  -20.3650   19.9200 C   0  0  0  0  0  2  0  0  0  0  0  0
  -29.7620  -21.8040   20.1740 N   0  0  0  0  0  4  0  0  0  0  0  0
  -30.3310  -22.1560   20.9270 H   0  0  0  0  0  0  0  0  0  0  0  0
  -28.8330  -21.6870   20.5520 H   0  0  0  0  0  0  0  0  0  0  0  0
  -31.0630  -23.2210   18.5040 C   0  0  0  0  0  1  0  0  0  0  0  0
  -29.6810  -22.9410   19.1250 C   0  0  0  0  0  3  0  0  0  0  0  0
  -29.0330  -24.3360   19.6620 C   0  0  0  0  0  2  0  0  0  0  0  0
  -29.0320  -25.6240   18.8780 O   0  0  0  0  0  0  0  0  0  0  0  0
  -25.2040  -30.4980   22.6800 C   0  0  0  0  0  0  0  0  0  0  0  0
  -27.9130  -26.4760   18.9910 C   0  0  0  0  0  0  0  0  0  0  0  0
  -24.0300  -29.3200   20.8560 C   0  0  0  0  0  3  0  0  0  0  0  0
  -25.5150  -28.0330   19.2150 C   0  0  0  0  0  0  0  0  0  0  0  0
  -26.5610  -29.7260   20.7160 C   0  0  0  0  0  2  0  0  0  0  0  0
  -26.6770  -28.4560   19.8740 C   0  0  0  0  0  0  0  0  0  0  0  0
  -27.8820  -27.6930   19.7510 C   0  0  0  0  0  3  0  0  0  0  0  0
  -26.7310  -26.1270   18.3040 C   0  0  0  0  0  3  0  0  0  0  0  0
  -25.5460  -26.8780   18.4200 C   0  0  0  0  0  3  0  0  0  0  0  0
  -24.2560  -28.8590   19.3920 C   0  0  0  0  0  2  0  0  0  0  0  0
  -25.2840  -29.8580   21.4760 N   0  0  0  0  0  0  0  0  0  0  0  0
  -24.1170  -30.6620   23.2520 O   0  0  0  0  0  0  0  0  0  0  0  0
  -23.4010  -28.1560   21.6590 C   0  0  0  0  0  0  0  0  0  0  0  0
  -22.0820  -27.9530   21.5020 N   0  0  0  0  0  0  0  0  0  0  0  0
  -24.0990  -27.4440   22.3850 O   0  0  0  0  0  0  0  0  0  0  0  0
  -21.5740  -28.5850   20.8980 H   0  0  0  0  0  0  0  0  0  0  0  0
  -18.7410  -26.6020   21.8390 C   0  0  0  0  0  0  0  0  0  0  0  0
  -21.2950  -26.8890   22.1280 C   0  0  0  0  0  3  0  0  0  0  0  0
  -21.4280  -25.5630   21.3450 C   0  0  0  0  0  2  0  0  0  0  0  0
  -20.3240  -25.3660   20.3010 C   0  0  0  0  0  2  0  0  0  0  0  0
  -18.9460  -25.3740   20.9680 C   0  0  0  0  0  2  0  0  0  0  0  0
  -19.8450  -27.3210   22.3720 C   0  0  0  0  0  0  0  0  0  0  0  0
  -19.5980  -28.4740   23.1490 C   0  0  0  0  0  3  0  0  0  0  0  0
  -18.2820  -28.9080   23.3980 C   0  0  0  0  0  3  0  0  0  0  0  0
  -17.1940  -28.1840   22.8800 C   0  0  0  0  0  3  0  0  0  0  0  0
  -17.4250  -27.0320   22.1070 C   0  0  0  0  0  3  0  0  0  0  0  0
  -26.4720  -31.0710   23.3850 C   0  0  0  0  0  3  0  0  0  0  0  0
  -27.0920  -30.0800   24.4470 C   0  0  1  0  0  0  0  0  0  0  0  0
  -26.0550  -29.5060   25.4420 C   0  0  0  0  0  1  0  0  0  0  0  0
  -27.7830  -28.8870   23.7460 C   0  0  0  0  0  1  0  0  0  0  0  0
  -28.1860  -30.8080   25.2640 C   0  0  0  0  0  1  0  0  0  0  0  0
  -26.0910  -32.3390   24.0230 N   0  0  0  0  0  0  0  0  0  0  0  0
  -26.3180  -33.5520   23.5010 C   0  0  0  0  0  0  0  0  0  0  0  0
  -26.9390  -33.7210   22.4480 O   0  0  0  0  0  0  0  0  0  0  0  0
  -25.5300  -32.2730   24.8600 H   0  0  0  0  0  0  0  0  0  0  0  0
  -24.4630  -35.2480   23.6130 C   0  0  0  0  0  1  0  0  0  0  0  0
  -25.7690  -34.7710   24.2680 C   0  0  0  0  0  3  0  0  0  0  0  0
  -27.9000  -35.6020   25.1640 C   0  0  0  0  0  1  0  0  0  0  0  0
  -26.7250  -35.8970   24.3460 N   0  0  0  0  0  0  0  0  0  0  0  0
  -26.2760  -36.7260   24.7250 H   0  0  0  0  0  0  0  0  0  0  0  0
  -30.4910  -16.7280   20.1740 C   0  0  0  0  0  3  0  0  0  0  0  0
  -30.9180  -14.1320   20.8950 C   0  0  0  0  0  0  0  0  0  0  0  0
  -30.7750  -11.6630   20.5400 C   0  0  0  0  0  2  0  0  0  0  0  0
  -30.0190  -11.3810   19.2230 C   0  0  0  0  0  2  0  0  0  0  0  0
  -28.5010  -11.3180   19.4770 C   0  0  0  0  0  2  0  0  0  0  0  0
  -27.9890  -12.5080   20.3320 C   0  0  0  0  0  3  0  0  0  0  0  0
  -28.8810  -12.7580   21.5670 C   0  0  0  0  0  2  0  0  0  0  0  0
  -30.2550  -12.9390   21.0840 N   0  0  0  0  0  0  0  0  0  0  0  0
  -32.1400  -14.1100   20.7390 O   0  0  0  0  0  0  0  0  0  0  0  0
  -30.1700  -15.2860   20.6680 N   0  0  0  0  0  0  0  0  0  0  0  0
  -29.1820  -15.1310   20.7960 H   0  0  0  0  0  0  0  0  0  0  0  0
  -25.6250  -13.3290   20.8880 C   0  0  0  0  0  0  0  0  0  0  0  0
  -24.4540  -12.6620   21.1260 C   0  0  0  0  0  0  0  0  0  0  0  0
  -24.7710  -11.2710   21.0650 C   0  0  0  0  0  0  0  0  0  0  0  0
  -26.5850  -12.3500   20.6940 N   0  0  0  0  0  0  0  0  0  0  0  0
  -26.0730  -11.1030   20.8650 N   0  0  0  0  0  0  0  0  0  0  0  0
  -23.8990  -10.0900   21.1250 C   0  0  0  0  0  0  0  0  0  0  0  0
  -24.0420   -9.1160   22.1380 C   0  0  0  0  0  3  0  0  0  0  0  0
  -23.1770   -8.0010   22.1850 C   0  0  0  0  0  3  0  0  0  0  0  0
  -22.1560   -7.8530   21.2170 C   0  0  0  0  0  0  0  0  0  0  0  0
  -22.0340   -8.8130   20.1970 C   0  0  0  0  0  3  0  0  0  0  0  0
  -22.8990   -9.9180   20.1480 C   0  0  0  0  0  3  0  0  0  0  0  0
  -21.2870   -6.7890   21.1700 O   0  0  0  0  0  0  0  0  0  0  0  0
  -20.8110   -6.1970   22.3130 C   0  0  0  0  0  0  0  0  0  0  0  0
  -20.0930   -6.9250   23.2850 C   0  0  0  0  0  3  0  0  0  0  0  0
  -19.5610   -6.2630   24.4100 C   0  0  0  0  0  3  0  0  0  0  0  0
  -19.7390   -4.8750   24.5600 C   0  0  0  0  0  0  0  0  0  0  0  0
  -20.4500   -4.1470   23.5890 C   0  0  0  0  0  3  0  0  0  0  0  0
  -20.9830   -4.8070   22.4680 C   0  0  0  0  0  0  0  0  0  0  0  0
  -21.6490   -4.0970   21.5260 F   0  0  0  0  0  0  0  0  0  0  0  0
  -19.2220   -4.2370   25.6360 F   0  0  0  0  0  0  0  0  0  0  0  0
  -23.0980  -13.2810   21.3010 C   0  0  0  0  0  0  0  0  0  0  0  0
  -22.2370  -12.6570   22.0980 N   0  0  0  0  0  0  0  0  0  0  0  0
  -22.8090  -14.3510   20.7670 O   0  0  0  0  0  0  0  0  0  0  0  0
  -22.4810  -11.7890   22.5530 H   0  0  0  0  0  0  0  0  0  0  0  0
  -21.3220  -13.0540   22.2590 H   0  0  0  0  0  0  0  0  0  0  0  0
  -25.9470  -14.6800   20.7960 N   0  0  0  0  0  0  0  0  0  0  0  0
  -25.2410  -15.4030   20.8750 H   0  0  0  0  0  0  0  0  0  0  0  0
  -26.8550  -15.0420   20.5370 H   0  0  0  0  0  0  0  0  0  0  0  0
  -31.8310  -16.7340   19.3830 C   0  0  0  0  0  2  0  0  0  0  0  0
  -32.3010  -18.0620   18.7640 C   0  0  0  0  0  2  0  0  0  0  0  0
  -33.5490  -17.9080   17.9930 N   0  0  0  0  0  4  0  0  0  0  0  0
  -34.2980  -17.5830   18.5790 H   0  0  0  0  0  0  0  0  0  0  0  0
  -33.8240  -18.7890   17.5960 H   0  0  0  0  0  0  0  0  0  0  0  0
  -33.4270  -17.2580   17.2370 H   0  0  0  0  0  0  0  0  0  0  0  0
  2  1  2  0
  3  4  2  0
  4  1  1  0
  4  7  1  0
  5  2  1  0
  6  5  2  0
  6  3  1  0
  7  9  2  0
  8  7  1  0
  8 11  1  0
 10  8  1  0
 12 13  1  0
 12  6  1  0
 13 15  1  0
 13 14  1  0
 17 16  1  0
 17 18  1  0
 17 13  1  0
 19 21  1  0
 19 18  1  0
 20 31  2  0
 21 26  1  0
 22 30  1  0
 22 32  1  0
 23 29  1  0
 23 25  1  0
 24 30  1  0
 25 24  1  0
 26 25  2  0
 27 28  1  0
 27 21  2  0
 28 23  2  0
 29 22  1  0
 30 20  1  0
 32 34  2  0
 33 32  1  0
 35 33  1  0
 36 45  2  0
 36 41  1  0
 37 33  1  0
 37 41  1  0
 38 37  1  0
 39 40  1  0
 39 38  1  0
 40 36  1  0
 41 42  2  0
 42 43  1  0
 44 43  2  0
 45 44  1  0
 46 20  1  0
 46 51  1  0
 46 47  1  0
 47 50  1  1
 47 48  1  0
 49 47  1  0
 51 54  1  0
 52 51  1  0
 52 56  1  0
 53 52  2  0
 56 55  1  0
 56 58  1  0
 58 59  1  0
 58 57  1  0
 60 99  1  0
 60 69  1  0
 60  5  1  0
 61 67  1  0
 62 67  1  0
 63 64  1  0
 63 62  1  0
 65 64  1  0
 65 74  1  0
 65 66  1  0
 67 66  1  0
 68 61  2  0
 69 70  1  0
 69 61  1  0
 71 72  2  0
 72 91  1  0
 73 76  1  0
 73 72  1  0
 74 75  1  0
 74 71  1  0
 75 73  2  0
 76 77  1  0
 77 78  2  0
 79 78  1  0
 80 79  2  0
 81 80  1  0
 81 76  2  0
 82 79  1  0
 82 83  1  0
 83 88  2  0
 83 84  1  0
 84 85  2  0
 85 86  1  0
 86 90  1  0
 87 86  2  0
 88 87  1  0
 89 88  1  0
 91 92  1  0
 92 95  1  0
 92 94  1  0
 93 91  2  0
 96 97  1  0
 96 71  1  0
 98 96  1  0
100 99  1  0
101102  1  0
101100  1  0
103101  1  0
104101  1  0
M  ISO  4  18 101  19 101  61 100  69 100
M  END
>  <TORSDO>  (21) 
F 25

>  <SCORE>  (21) 
-5.393

>  <name>  (21) 
20

>  <ligand_id>  (21) 
20

>  <original_smiles>  (21) 
[H]c1c([H])c([H])c2c(c1[H])C([H])([H])C([H])([H])C([H])([H])C2([H])N([H])C(=O)C1([H])N(C(=O)C([H])(N([H])C(=O)C([H])(N([H])C([H])([H])[H])C([H])([H])[H])C(C([H])([H])[H])(C([H])([H])[H])C([H])([H])[H])C([H])([H])c2c([H])c(OC([H])([H])C([H])(C([H])([H])[H])[N+]([H])([H])C([H])([H])c3c([H])c(C(=O)N([H])[H])c([H])c([H])c3C([H])(N([H])C(=O)N3C([H])([H])C([H])([H])C([H])([H])C([H])(n4nc(-c5c([H])c([H])c(Oc6c([H])c([H])c(F)c([H])c6F)c([H])c5[H])c(C(=O)N([H])[H])c4N([H])[H])C3([H])[H])C([H])([H])C([H])([H])[N+]([H])([H])[H])c([H])c([H])c2C1([H])[H]

>  <smiles>  (21) 
[H]c1c([H])c([H])c2c(c1[H])C([H])([H])C([H])([H])C([H])([H])C2([H])N([H])C(=O)C1([H])N(C(=O)C([H])(N([H])C(=O)C([H])(N([H])C([H])([H])[H])C([H])([H])[H])C(C([H])([H])[H])(C([H])([H])[H])C([H])([H])[H])C([H])([H])c2c([H])c(OC([H])([H])C([H])(C([H])([H])[H])[N+]([H])([H])C([H])([H])c3c([H])c(C(=O)N([H])[H])c([H])c([H])c3C([H])(N([H])C(=O)N3C([H])([H])C([H])([H])C([H])([H])C([H])(n4nc(-c5c([H])c([H])c(Oc6c([H])c([H])c(F)c([H])c6F)c([H])c5[H])c(C(=O)N([H])[H])c4N([H])[H])C3([H])[H])C([H])([H])C([H])([H])[N+]([H])([H])[H])c([H])c([H])c2C1([H])[H]

$$$$
21:0:0
     RDKit          3D

100105  0  0  1  0  0  0  0  0999 V2000
  -26.7860  -25.7220   22.1860 C   0  0  0  0  0  1  0  0  0  0  0  0
  -28.2180  -26.3620   21.7870 C   0  0  0  0  0  1  0  0  0  0  0  0
  -26.2840  -24.0290   21.1170 C   0  0  0  0  0 15  0  0  0  0  0  0
  -29.2440  -25.3360   20.3240 C   0  0  0  0  0  2  0  0  0  0  0  0
  -27.9770  -23.6220   19.7900 C   0  0  0  0  0  1  0  0  0  0  0  0
  -28.7350  -21.9860   19.6480 C   0  0  0  0  0  0  0  0  0  0  0  0
  -30.1260  -21.9640   19.0300 C   0  0  0  0  0  2  0  0  0  0  0  0
  -30.6730  -20.4960   19.0970 C   0  0  0  0  0  2  0  0  0  0  0  0
  -29.6780  -19.6030   19.8900 C   0  0  0  0  0  3  0  0  0  0  0  0
  -28.4620  -20.6670   19.9150 N   0  0  0  0  0  0  0  0  0  0  0  0
  -30.4010  -15.3990   19.6540 C   0  0  0  0  0  0  0  0  0  0  0  0
  -30.3380  -12.9160   18.9840 C   0  0  0  0  0  2  0  0  0  0  0  0
  -29.3610  -12.7050   17.8000 C   0  0  0  0  0  2  0  0  0  0  0  0
  -27.9360  -12.4460   18.3180 C   0  0  0  0  0  2  0  0  0  0  0  0
  -27.5440  -13.4310   19.4470 C   0  0  0  0  0  3  0  0  0  0  0  0
  -28.6520  -13.6390   20.5090 C   0  0  0  0  0  2  0  0  0  0  0  0
  -29.8650  -14.0920   19.8070 N   0  0  0  0  0  0  0  0  0  0  0  0
  -31.5380  -15.3990   19.1640 O   0  0  0  0  0  0  0  0  0  0  0  0
  -29.6910  -17.9720   19.2850 C   0  0  0  0  0  0  0  0  0  0  0  0
  -29.7280  -16.6690   19.9520 N   0  0  0  0  0  0  0  0  0  0  0  0
  -29.7540  -17.9280   18.0540 O   0  0  0  0  0  0  0  0  0  0  0  0
  -29.2230  -16.6500   20.8240 H   0  0  0  0  0  0  0  0  0  0  0  0
  -25.2390  -13.9660   20.4040 C   0  0  0  0  0  0  0  0  0  0  0  0
  -24.2060  -13.1800   20.8260 C   0  0  0  0  0  0  0  0  0  0  0  0
  -24.6570  -11.8290   20.7030 C   0  0  0  0  0  0  0  0  0  0  0  0
  -26.2540  -13.1000   20.0430 N   0  0  0  0  0  0  0  0  0  0  0  0
  -25.9210  -11.8040   20.2880 N   0  0  0  0  0  0  0  0  0  0  0  0
  -23.9380  -10.5630   20.9040 C   0  0  0  0  0  0  0  0  0  0  0  0
  -24.3830   -9.5970   21.8340 C   0  0  0  0  0  3  0  0  0  0  0  0
  -23.6590   -8.3980   22.0230 C   0  0  0  0  0  3  0  0  0  0  0  0
  -22.4760   -8.1580   21.2850 C   0  0  0  0  0  0  0  0  0  0  0  0
  -22.0480   -9.1150   20.3480 C   0  0  0  0  0  3  0  0  0  0  0  0
  -22.7710  -10.3040   20.1570 C   0  0  0  0  0  3  0  0  0  0  0  0
  -21.7220   -7.0120   21.3840 O   0  0  0  0  0  0  0  0  0  0  0  0
  -21.6280   -6.3130   22.5600 C   0  0  0  0  0  0  0  0  0  0  0  0
  -21.1480   -6.9120   23.7450 C   0  0  0  0  0  3  0  0  0  0  0  0
  -21.0020   -6.1400   24.9150 C   0  0  0  0  0  3  0  0  0  0  0  0
  -21.3240   -4.7700   24.9000 C   0  0  0  0  0  0  0  0  0  0  0  0
  -21.7950   -4.1700   23.7200 C   0  0  0  0  0  3  0  0  0  0  0  0
  -21.9440   -4.9390   22.5520 C   0  0  0  0  0  0  0  0  0  0  0  0
  -22.3790   -4.3520   21.4110 F   0  0  0  0  0  0  0  0  0  0  0  0
  -21.1760   -4.0240   26.0220 F   0  0  0  0  0  0  0  0  0  0  0  0
  -22.8380  -13.6510   21.2250 C   0  0  0  0  0  0  0  0  0  0  0  0
  -22.1810  -12.9360   22.1320 N   0  0  0  0  0  0  0  0  0  0  0  0
  -22.3670  -14.6940   20.7730 O   0  0  0  0  0  0  0  0  0  0  0  0
  -22.5740  -12.0940   22.5210 H   0  0  0  0  0  0  0  0  0  0  0  0
  -21.2680  -13.2370   22.4410 H   0  0  0  0  0  0  0  0  0  0  0  0
  -25.3930  -15.3430   20.2710 N   0  0  0  0  0  0  0  0  0  0  0  0
  -24.6460  -15.9930   20.4920 H   0  0  0  0  0  0  0  0  0  0  0  0
  -26.2220  -15.7980   19.9060 H   0  0  0  0  0  0  0  0  0  0  0  0
  -31.3740  -26.3010   20.9340 C   0  0  0  0  0  1  0  0  0  0  0  0
  -30.6690  -25.0590   20.6040 N   0  0  0  0  0  0  0  0  0  0  0  0
  -30.8810  -24.0830   21.6670 C   0  0  0  0  0  2  0  0  0  0  0  0
  -29.6800  -24.0930   22.5930 C   0  0  0  0  0  3  0  0  0  0  0  0
  -29.7150  -22.9330   23.5230 N   0  0  0  0  0  4  0  0  0  0  0  0
  -29.6650  -22.0460   23.0490 H   0  0  0  0  0  0  0  0  0  0  0  0
  -28.9470  -22.9750   24.1750 H   0  0  0  0  0  0  0  0  0  0  0  0
  -30.5600  -22.9380   24.0710 H   0  0  0  0  0  0  0  0  0  0  0  0
  -28.3530  -24.1350   21.7130 C   0  0  0  0  0  1  0  0  0  0  0  0
  -27.6770  -25.9080   19.6570 O   0  0  0  0  0  0  0  0  0  0  0  0
  -24.6150  -31.9050   23.0060 C   0  0  0  0  0  0  0  0  0  0  0  0
  -26.8580  -27.2240   19.5010 C   0  0  0  0  0  0  0  0  0  0  0  0
  -23.2680  -30.6130   21.3990 C   0  0  0  0  0  3  0  0  0  0  0  0
  -24.5820  -29.1200   19.7390 C   0  0  0  0  0  0  0  0  0  0  0  0
  -25.8130  -30.8330   21.0420 C   0  0  0  0  0  2  0  0  0  0  0  0
  -25.8160  -29.4720   20.2970 C   0  0  0  0  0  0  0  0  0  0  0  0
  -26.9430  -28.5420   20.1770 C   0  0  0  0  0  3  0  0  0  0  0  0
  -25.6320  -27.0980   18.7990 C   0  0  0  0  0  3  0  0  0  0  0  0
  -24.5140  -27.9530   18.9640 C   0  0  0  0  0  3  0  0  0  0  0  0
  -23.3690  -30.0210   19.9650 C   0  0  0  0  0  2  0  0  0  0  0  0
  -24.5900  -31.1390   21.8680 N   0  0  0  0  0  0  0  0  0  0  0  0
  -23.5780  -32.1710   23.6370 O   0  0  0  0  0  0  0  0  0  0  0  0
  -22.6570  -29.5600   22.3610 C   0  0  0  0  0  0  0  0  0  0  0  0
  -21.3250  -29.3720   22.3160 N   0  0  0  0  0  0  0  0  0  0  0  0
  -23.3850  -28.9180   23.1230 O   0  0  0  0  0  0  0  0  0  0  0  0
  -20.7870  -29.9450   21.6820 H   0  0  0  0  0  0  0  0  0  0  0  0
  -18.0160  -28.0000   22.9070 C   0  0  0  0  0  0  0  0  0  0  0  0
  -20.5680  -28.3880   23.1000 C   0  0  0  0  0  3  0  0  0  0  0  0
  -20.7200  -26.9660   22.5080 C   0  0  0  0  0  2  0  0  0  0  0  0
  -19.6030  -26.6020   21.5220 C   0  0  0  0  0  2  0  0  0  0  0  0
  -18.2370  -26.6700   22.2080 C   0  0  0  0  0  2  0  0  0  0  0  0
  -19.1090  -28.8130   23.3140 C   0  0  0  0  0  0  0  0  0  0  0  0
  -18.8400  -30.0540   23.9320 C   0  0  0  0  0  3  0  0  0  0  0  0
  -17.5170  -30.4830   24.1480 C   0  0  0  0  0  3  0  0  0  0  0  0
  -16.4410  -29.6670   23.7550 C   0  0  0  0  0  3  0  0  0  0  0  0
  -16.6920  -28.4280   23.1390 C   0  0  0  0  0  3  0  0  0  0  0  0
  -25.9430  -32.5060   23.5560 C   0  0  0  0  0  3  0  0  0  0  0  0
  -25.6600  -33.8660   24.0450 N   0  0  0  0  0  0  0  0  0  0  0  0
  -25.9310  -34.9930   23.3730 C   0  0  0  0  0  0  0  0  0  0  0  0
  -26.5140  -34.9980   22.2860 O   0  0  0  0  0  0  0  0  0  0  0  0
  -25.1310  -33.9380   24.9020 H   0  0  0  0  0  0  0  0  0  0  0  0
  -24.1910  -36.8150   23.3500 C   0  0  0  0  0  1  0  0  0  0  0  0
  -25.4930  -36.3290   24.0100 C   0  0  0  0  0  3  0  0  0  0  0  0
  -27.6930  -37.1330   24.7490 C   0  0  0  0  0  1  0  0  0  0  0  0
  -26.5190  -37.3900   23.9200 N   0  0  0  0  0  0  0  0  0  0  0  0
  -26.1300  -38.2900   24.1890 H   0  0  0  0  0  0  0  0  0  0  0  0
  -26.5850  -31.6370   24.7070 C   0  0  1  0  0  0  0  0  0  0  0  0
  -25.6080  -31.3120   25.8620 C   0  0  0  0  0  1  0  0  0  0  0  0
  -27.1200  -30.2950   24.1590 C   0  0  0  0  0  1  0  0  0  0  0  0
  -27.8030  -32.3790   25.3110 C   0  0  0  0  0  1  0  0  0  0  0  0
  2  1  1  0
  4 52  1  0
  6  5  1  0
  6 10  2  0
  7  8  1  0
  7  6  1  0
  8  9  1  0
  9 19  1  0
  9 10  1  0
 11 17  1  0
 11 20  1  0
 12 17  1  0
 13 14  1  0
 13 12  1  0
 15 14  1  0
 15 26  1  0
 15 16  1  0
 17 16  1  0
 18 11  2  0
 19 20  1  0
 20 22  1  0
 21 19  2  0
 23 24  2  0
 24 43  1  0
 25 24  1  0
 25 28  1  0
 26 27  1  0
 26 23  1  0
 27 25  2  0
 28 29  1  0
 29 30  2  0
 31 34  1  0
 31 30  1  0
 32 31  2  0
 33 32  1  0
 33 28  2  0
 34 35  1  0
 35 36  1  0
 36 37  2  0
 38 37  1  0
 38 42  1  0
 39 38  2  0
 40 35  2  0
 40 39  1  0
 41 40  1  0
 43 44  1  0
 44 47  1  0
 44 46  1  0
 45 43  2  0
 48 23  1  0
 48 49  1  0
 50 48  1  0
 52 51  1  0
 52 53  1  0
 53 54  1  0
 54 59  1  0
 54 55  1  0
 55 58  1  0
 55 57  1  0
 56 55  1  0
 60  4  1  0
 61 72  2  0
 62 60  1  0
 62 67  1  0
 63 71  1  0
 63 73  1  0
 64 70  1  0
 64 66  1  0
 65 71  1  0
 66 65  1  0
 67 66  2  0
 68 69  1  0
 68 62  2  0
 69 64  2  0
 70 63  1  0
 71 61  1  0
 73 75  2  0
 74 73  1  0
 76 74  1  0
 77 86  2  0
 77 82  1  0
 78 74  1  0
 78 82  1  0
 79 78  1  0
 80 81  1  0
 80 79  1  0
 81 77  1  0
 82 83  2  0
 83 84  1  0
 85 84  2  0
 86 85  1  0
 87 61  1  0
 87 88  1  0
 87 97  1  0
 88 91  1  0
 89 93  1  0
 89 88  1  0
 90 89  2  0
 93 92  1  0
 95 93  1  0
 95 96  1  0
 95 94  1  0
 97100  1  1
 97 98  1  0
 99 97  1  0
M  ISO  4  11 100  20 100  59 101  60 101
M  END
>  <TORSDO>  (22) 
F 22

>  <SCORE>  (22) 
-15.062

>  <name>  (22) 
21

>  <ligand_id>  (22) 
21

>  <original_smiles>  (22) 
[H]C1=C([H])C([H])(N(C([H])([H])[H])C([H])([H])C([H])(C([H])([H])Oc2c([H])c([H])c3c(c2[H])C([H])([H])N(C(=O)C([H])(N([H])C(=O)C([H])(N([H])C([H])([H])[H])C([H])([H])[H])C(C([H])([H])[H])(C([H])([H])[H])C([H])([H])[H])C([H])(C(=O)N([H])C2([H])c4c([H])c([H])c([H])c([H])c4C([H])([H])C([H])([H])C2([H])[H])C3([H])[H])[N+]([H])([H])[H])C([H])(C2=NC([H])(C(=O)N([H])C(=O)N3C([H])([H])C([H])([H])C([H])([H])C([H])(n4nc(-c5c([H])c([H])c(Oc6c([H])c([H])c(F)c([H])c6F)c([H])c5[H])c(C(=O)N([H])[H])c4N([H])[H])C3([H])[H])C([H])([H])C2([H])[H])C1([H])[H]

>  <smiles>  (22) 
[H]C1=C([H])C([H])(N(C([H])([H])[H])C([H])([H])C([H])(C([H])([H])Oc2c([H])c([H])c3c(c2[H])C([H])([H])N(C(=O)C([H])(N([H])C(=O)C([H])(N([H])C([H])([H])[H])C([H])([H])[H])C(C([H])([H])[H])(C([H])([H])[H])C([H])([H])[H])C([H])(C(=O)N([H])C2([H])c4c([H])c([H])c([H])c([H])c4C([H])([H])C([H])([H])C2([H])[H])C3([H])[H])[N+]([H])([H])[H])C([H])(C2=NC([H])(C(=O)N([H])C(=O)N3C([H])([H])C([H])([H])C([H])([H])C([H])(n4nc(-c5c([H])c([H])c(Oc6c([H])c([H])c(F)c([H])c6F)c([H])c5[H])c(C(=O)N([H])[H])c4N([H])[H])C3([H])[H])C([H])([H])C2([H])[H])C1([H])[H]

$$$$
22:0:0
     RDKit          3D

 94103  0  0  1  0  0  0  0  0999 V2000
  -29.1570  -24.4990   20.4650 C   0  0  0  0  0  0  0  0  0  0  0  0
  -28.1270  -21.7340   22.0950 C   0  0  0  0  0  2  0  0  0  0  0  0
  -27.7320  -23.2120   22.0710 C   0  0  0  0  0  2  0  0  0  0  0  0
  -29.3070  -22.0860   21.1730 C   0  0  0  0  0  3  0  0  0  0  0  0
  -28.5380  -23.3010   20.8610 N   0  0  0  0  0  0  0  0  0  0  0  0
  -30.2190  -24.4800   19.8370 O   0  0  0  0  0  0  0  0  0  0  0  0
  -29.5090  -21.1120   19.9870 C   0  0  0  0  0  0  0  0  0  0  0  0
  -30.1760  -17.9190   21.6820 C   0  0  0  0  0  2  0  0  0  0  0  0
  -30.2610  -17.6350   19.2000 C   0  0  0  0  0  2  0  0  0  0  0  0
  -30.5810  -19.4040   21.5030 C   0  0  0  0  0  2  0  0  0  0  0  0
  -30.6590  -19.1180   19.0620 C   0  0  0  0  0  2  0  0  0  0  0  0
  -30.7390  -17.0500   20.5430 C   0  0  0  0  0  3  0  0  0  0  0  0
  -30.1620  -19.9320   20.1880 N   0  0  0  0  0  0  0  0  0  0  0  0
  -29.1150  -21.4580   18.8680 O   0  0  0  0  0  0  0  0  0  0  0  0
  -31.0270  -14.6130   20.0900 C   0  0  0  0  0  0  0  0  0  0  0  0
  -30.6510  -12.4840   18.9160 C   0  0  0  0  0  2  0  0  0  0  0  0
  -29.6540  -12.7280   17.7640 C   0  0  0  0  0  2  0  0  0  0  0  0
  -28.2020  -12.5890   18.2630 C   0  0  0  0  0  2  0  0  0  0  0  0
  -27.9340  -13.3990   19.5600 C   0  0  0  0  0  3  0  0  0  0  0  0
  -29.0400  -13.1480   20.6110 C   0  0  0  0  0  2  0  0  0  0  0  0
  -30.3390  -13.4460   19.9830 N   0  0  0  0  0  0  0  0  0  0  0  0
  -32.1210  -14.7970   19.5500 O   0  0  0  0  0  0  0  0  0  0  0  0
  -30.3630  -15.6320   20.6670 N   0  0  0  0  0  0  0  0  0  0  0  0
  -29.4700  -15.4150   21.0830 H   0  0  0  0  0  0  0  0  0  0  0  0
  -25.5780  -14.0000   20.4050 C   0  0  0  0  0  0  0  0  0  0  0  0
  -24.5240  -13.2240   20.8050 C   0  0  0  0  0  0  0  0  0  0  0  0
  -24.9720  -11.8710   20.7120 C   0  0  0  0  0  0  0  0  0  0  0  0
  -26.6040  -13.1210   20.0980 N   0  0  0  0  0  0  0  0  0  0  0  0
  -26.2450  -11.8330   20.3380 N   0  0  0  0  0  0  0  0  0  0  0  0
  -24.2470  -10.6080   20.9020 C   0  0  0  0  0  0  0  0  0  0  0  0
  -24.6550   -9.6610   21.8670 C   0  0  0  0  0  3  0  0  0  0  0  0
  -23.9310   -8.4620   22.0440 C   0  0  0  0  0  3  0  0  0  0  0  0
  -22.7850   -8.2020   21.2550 C   0  0  0  0  0  0  0  0  0  0  0  0
  -22.3970   -9.1380   20.2810 C   0  0  0  0  0  3  0  0  0  0  0  0
  -23.1210  -10.3280   20.1020 C   0  0  0  0  0  3  0  0  0  0  0  0
  -22.0350   -7.0540   21.3390 O   0  0  0  0  0  0  0  0  0  0  0  0
  -21.8590   -6.3950   22.5290 C   0  0  0  0  0  0  0  0  0  0  0  0
  -21.2580   -7.0190   23.6440 C   0  0  0  0  0  3  0  0  0  0  0  0
  -21.0340   -6.2830   24.8250 C   0  0  0  0  0  3  0  0  0  0  0  0
  -21.3980   -4.9260   24.8910 C   0  0  0  0  0  0  0  0  0  0  0  0
  -21.9920   -4.3020   23.7800 C   0  0  0  0  0  3  0  0  0  0  0  0
  -22.2180   -5.0340   22.6010 C   0  0  0  0  0  0  0  0  0  0  0  0
  -22.7710   -4.4230   21.5250 F   0  0  0  0  0  0  0  0  0  0  0  0
  -21.1760   -4.2170   26.0220 F   0  0  0  0  0  0  0  0  0  0  0  0
  -23.1460  -13.7020   21.1640 C   0  0  0  0  0  0  0  0  0  0  0  0
  -22.4590  -12.9840   22.0470 N   0  0  0  0  0  0  0  0  0  0  0  0
  -22.6890  -14.7450   20.6970 O   0  0  0  0  0  0  0  0  0  0  0  0
  -22.8420  -12.1400   22.4440 H   0  0  0  0  0  0  0  0  0  0  0  0
  -21.5370  -13.2850   22.3290 H   0  0  0  0  0  0  0  0  0  0  0  0
  -25.7440  -15.3750   20.2580 N   0  0  0  0  0  0  0  0  0  0  0  0
  -24.9900  -16.0310   20.4240 H   0  0  0  0  0  0  0  0  0  0  0  0
  -26.5790  -15.8160   19.8930 H   0  0  0  0  0  0  0  0  0  0  0  0
  -28.5580  -25.8430   20.9440 C   0  0  0  0  0  2  0  0  0  0  0  0
  -28.5420  -26.8250   19.8950 O   0  0  0  0  0  0  0  0  0  0  0  0
  -24.5720  -31.7910   23.0890 C   0  0  0  0  0  0  0  0  0  0  0  0
  -27.3780  -27.5550   19.8840 C   0  0  0  0  0  0  0  0  0  0  0  0
  -23.4200  -30.4020   21.3940 C   0  0  0  0  0  3  0  0  0  0  0  0
  -24.9340  -28.9630   19.9270 C   0  0  0  0  0  0  0  0  0  0  0  0
  -25.9310  -30.8570   21.2210 C   0  0  0  0  0  2  0  0  0  0  0  0
  -26.0690  -29.5130   20.5390 C   0  0  0  0  0  0  0  0  0  0  0  0
  -27.2980  -28.8150   20.5160 C   0  0  0  0  0  3  0  0  0  0  0  0
  -26.2330  -27.0150   19.2670 C   0  0  0  0  0  3  0  0  0  0  0  0
  -25.0110  -27.7110   19.2890 C   0  0  0  0  0  3  0  0  0  0  0  0
  -23.6590  -29.7720   19.9960 C   0  0  0  0  0  2  0  0  0  0  0  0
  -24.6590  -31.0300   21.9610 N   0  0  0  0  0  0  0  0  0  0  0  0
  -23.4800  -32.0090   23.6320 O   0  0  0  0  0  0  0  0  0  0  0  0
  -22.8000  -29.3310   22.3190 C   0  0  0  0  0  0  0  0  0  0  0  0
  -21.4790  -29.1210   22.1890 N   0  0  0  0  0  0  0  0  0  0  0  0
  -23.5020  -28.6910   23.1070 O   0  0  0  0  0  0  0  0  0  0  0  0
  -20.9730  -29.6910   21.5270 H   0  0  0  0  0  0  0  0  0  0  0  0
  -18.1320  -27.8520   22.6750 C   0  0  0  0  0  0  0  0  0  0  0  0
  -20.6890  -28.1360   22.9260 C   0  0  0  0  0  3  0  0  0  0  0  0
  -20.8060  -26.7350   22.2820 C   0  0  0  0  0  2  0  0  0  0  0  0
  -19.6950  -26.4430   21.2690 C   0  0  0  0  0  2  0  0  0  0  0  0
  -18.3200  -26.5380   21.9360 C   0  0  0  0  0  2  0  0  0  0  0  0
  -19.2450  -28.6100   23.1260 C   0  0  0  0  0  0  0  0  0  0  0  0
  -19.0160  -29.8420   23.7760 C   0  0  0  0  0  3  0  0  0  0  0  0
  -17.7060  -30.3160   23.9810 C   0  0  0  0  0  3  0  0  0  0  0  0
  -16.6080  -29.5530   23.5470 C   0  0  0  0  0  3  0  0  0  0  0  0
  -16.8220  -28.3240   22.8990 C   0  0  0  0  0  3  0  0  0  0  0  0
  -25.8350  -32.4430   23.7350 C   0  0  0  0  0  3  0  0  0  0  0  0
  -25.4840  -33.8220   24.0970 N   0  0  0  0  0  0  0  0  0  0  0  0
  -25.7980  -34.9020   23.3700 C   0  0  0  0  0  0  0  0  0  0  0  0
  -26.4850  -34.8430   22.3460 O   0  0  0  0  0  0  0  0  0  0  0  0
  -24.8730  -33.9400   24.8930 H   0  0  0  0  0  0  0  0  0  0  0  0
  -24.0320  -36.6590   23.0250 C   0  0  0  0  0  1  0  0  0  0  0  0
  -25.2650  -36.2640   23.8530 C   0  0  0  0  0  3  0  0  0  0  0  0
  -27.3530  -37.1820   24.7630 C   0  0  0  0  0  1  0  0  0  0  0  0
  -26.2730  -37.3450   23.7930 N   0  0  0  0  0  0  0  0  0  0  0  0
  -25.8400  -38.2510   23.9510 H   0  0  0  0  0  0  0  0  0  0  0  0
  -26.3680  -31.6530   24.9930 C   0  0  1  0  0  0  0  0  0  0  0  0
  -25.2760  -31.3510   26.0460 C   0  0  0  0  0  1  0  0  0  0  0  0
  -26.9960  -30.3060   24.5660 C   0  0  0  0  0  1  0  0  0  0  0  0
  -27.4880  -32.4630   25.6860 C   0  0  0  0  0  1  0  0  0  0  0  0
  1  5  1  0
  1 53  1  0
  3  2  1  0
  4  7  1  0
  4  2  1  0
  5  4  1  0
  5  3  1  0
  6  1  2  0
  7 13  1  0
  9 12  1  0
 10  8  1  0
 11  9  1  0
 11 13  1  0
 12 23  1  0
 12  8  1  0
 13 10  1  0
 14  7  2  0
 15 23  1  0
 16 21  1  0
 17 18  1  0
 17 16  1  0
 19 18  1  0
 19 28  1  0
 19 20  1  0
 21 15  1  0
 21 20  1  0
 22 15  2  0
 23 24  1  0
 25 26  2  0
 26 45  1  0
 27 26  1  0
 27 30  1  0
 28 29  1  0
 28 25  1  0
 29 27  2  0
 30 31  1  0
 31 32  2  0
 33 36  1  0
 33 32  1  0
 34 33  2  0
 35 34  1  0
 35 30  2  0
 36 37  1  0
 37 42  2  0
 37 38  1  0
 38 39  2  0
 39 40  1  0
 40 44  1  0
 41 40  2  0
 42 41  1  0
 43 42  1  0
 45 46  1  0
 46 49  1  0
 46 48  1  0
 47 45  2  0
 50 25  1  0
 50 51  1  0
 52 50  1  0
 54 53  1  0
 55 66  2  0
 56 54  1  0
 56 61  1  0
 57 65  1  0
 57 67  1  0
 58 64  1  0
 58 60  1  0
 59 65  1  0
 60 59  1  0
 61 60  2  0
 62 63  1  0
 62 56  2  0
 63 58  2  0
 64 57  1  0
 65 55  1  0
 67 69  2  0
 68 67  1  0
 70 68  1  0
 71 80  2  0
 71 76  1  0
 72 68  1  0
 72 76  1  0
 73 72  1  0
 74 75  1  0
 74 73  1  0
 75 71  1  0
 76 77  2  0
 77 78  1  0
 79 78  2  0
 80 79  1  0
 81 55  1  0
 81 82  1  0
 81 91  1  0
 82 85  1  0
 83 87  1  0
 83 82  1  0
 84 83  2  0
 87 86  1  0
 89 87  1  0
 89 90  1  0
 89 88  1  0
 91 94  1  1
 91 92  1  0
 93 91  1  0
M  ISO  4  15 100  23 100  53 101  54 101
M  END
>  <TORSDO>  (23) 
F 18

>  <SCORE>  (23) 
-13.713

>  <name>  (23) 
22

>  <ligand_id>  (23) 
22

>  <original_smiles>  (23) 
[H]c1c([H])c([H])c2c(c1[H])C([H])([H])C([H])([H])C([H])([H])C2([H])N([H])C(=O)C1([H])N(C(=O)C([H])(N([H])C(=O)C([H])(N([H])C([H])([H])[H])C([H])([H])[H])C(C([H])([H])[H])(C([H])([H])[H])C([H])([H])[H])C([H])([H])c2c([H])c(OC([H])([H])C(=O)N3C([H])([H])C([H])([H])C3([H])C(=O)N3C([H])([H])C([H])([H])C([H])(N([H])C(=O)N4C([H])([H])C([H])([H])C([H])([H])C([H])(n5nc(-c6c([H])c([H])c(Oc7c([H])c([H])c(F)c([H])c7F)c([H])c6[H])c(C(=O)N([H])[H])c5N([H])[H])C4([H])[H])C([H])([H])C3([H])[H])c([H])c([H])c2C1([H])[H]

>  <smiles>  (23) 
[H]c1c([H])c([H])c2c(c1[H])C([H])([H])C([H])([H])C([H])([H])C2([H])N([H])C(=O)C1([H])N(C(=O)C([H])(N([H])C(=O)C([H])(N([H])C([H])([H])[H])C([H])([H])[H])C(C([H])([H])[H])(C([H])([H])[H])C([H])([H])[H])C([H])([H])c2c([H])c(OC([H])([H])C(=O)N3C([H])([H])C([H])([H])C3([H])C(=O)N3C([H])([H])C([H])([H])C([H])(N([H])C(=O)N4C([H])([H])C([H])([H])C([H])([H])C([H])(n5nc(-c6c([H])c([H])c(Oc7c([H])c([H])c(F)c([H])c7F)c([H])c6[H])c(C(=O)N([H])[H])c5N([H])[H])C4([H])[H])C([H])([H])C3([H])[H])c([H])c([H])c2C1([H])[H]

$$$$
23:0:0
     RDKit          3D

101110  0  0  1  0  0  0  0  0999 V2000
  -31.2440  -22.6340   18.7540 C   0  0  0  0  0  0  0  0  0  0  0  0
  -31.4560  -21.5600   19.5180 N   0  0  0  0  0  0  0  0  0  0  0  0
  -31.2310  -22.5850   17.5220 O   0  0  0  0  0  0  0  0  0  0  0  0
  -31.4610  -21.6920   20.5190 H   0  0  0  0  0  0  0  0  0  0  0  0
  -32.1400  -24.9750   19.3160 C   0  0  0  0  0  2  0  0  0  0  0  0
  -31.4630  -26.3380   19.1620 C   0  0  0  0  0  2  0  0  0  0  0  0
  -29.7180  -24.6750   18.9830 C   0  0  0  0  0  2  0  0  0  0  0  0
  -30.9900  -23.9580   19.4900 C   0  0  0  0  0  3  0  0  0  0  0  0
  -30.1810  -26.0150   18.3970 C   0  0  0  0  0  3  0  0  0  0  0  0
  -29.1110  -27.1180   18.4100 C   0  0  0  0  0  2  0  0  0  0  0  0
  -28.6810  -27.3930   19.7440 O   0  0  0  0  0  0  0  0  0  0  0  0
  -24.7120  -32.0460   23.3790 C   0  0  0  0  0  0  0  0  0  0  0  0
  -27.4660  -28.0250   19.8590 C   0  0  0  0  0  0  0  0  0  0  0  0
  -23.5220  -30.7300   21.6540 C   0  0  0  0  0  3  0  0  0  0  0  0
  -25.0010  -29.3820   20.0770 C   0  0  0  0  0  0  0  0  0  0  0  0
  -26.0210  -31.2200   21.4300 C   0  0  0  0  0  2  0  0  0  0  0  0
  -26.1480  -29.9120   20.6810 C   0  0  0  0  0  0  0  0  0  0  0  0
  -27.3810  -29.2330   20.5840 C   0  0  0  0  0  3  0  0  0  0  0  0
  -26.2950  -27.4850   19.2820 C   0  0  0  0  0  3  0  0  0  0  0  0
  -25.0650  -28.1620   19.3830 C   0  0  0  0  0  3  0  0  0  0  0  0
  -23.7220  -30.1750   20.2200 C   0  0  0  0  0  2  0  0  0  0  0  0
  -24.7700  -31.3430   22.2130 N   0  0  0  0  0  0  0  0  0  0  0  0
  -23.6350  -32.2240   23.9660 O   0  0  0  0  0  0  0  0  0  0  0  0
  -22.9440  -29.6050   22.5410 C   0  0  0  0  0  0  0  0  0  0  0  0
  -21.6490  -29.3030   22.3530 N   0  0  0  0  0  0  0  0  0  0  0  0
  -23.6580  -29.0070   23.3510 O   0  0  0  0  0  0  0  0  0  0  0  0
  -21.1330  -29.8460   21.6750 H   0  0  0  0  0  0  0  0  0  0  0  0
  -18.4130  -27.7140   22.5940 C   0  0  0  0  0  0  0  0  0  0  0  0
  -20.8990  -28.2550   23.0460 C   0  0  0  0  0  3  0  0  0  0  0  0
  -21.2050  -26.8640   22.4460 C   0  0  0  0  0  2  0  0  0  0  0  0
  -20.2170  -26.4470   21.3530 C   0  0  0  0  0  2  0  0  0  0  0  0
  -18.7890  -26.4130   21.9050 C   0  0  0  0  0  2  0  0  0  0  0  0
  -19.4050  -28.5870   23.1150 C   0  0  0  0  0  0  0  0  0  0  0  0
  -19.0030  -29.8020   23.7130 C   0  0  0  0  0  3  0  0  0  0  0  0
  -17.6410  -30.1470   23.7970 C   0  0  0  0  0  3  0  0  0  0  0  0
  -16.6620  -29.2720   23.2930 C   0  0  0  0  0  3  0  0  0  0  0  0
  -17.0480  -28.0570   22.6990 C   0  0  0  0  0  3  0  0  0  0  0  0
  -25.9870  -32.6800   24.0190 C   0  0  0  0  0  3  0  0  0  0  0  0
  -25.6330  -34.0320   24.4660 N   0  0  0  0  0  0  0  0  0  0  0  0
  -25.8950  -35.1530   23.7820 C   0  0  0  0  0  0  0  0  0  0  0  0
  -26.5360  -35.1590   22.7270 O   0  0  0  0  0  0  0  0  0  0  0  0
  -25.0620  -34.0980   25.2970 H   0  0  0  0  0  0  0  0  0  0  0  0
  -24.0920  -36.8960   23.6030 C   0  0  0  0  0  1  0  0  0  0  0  0
  -25.3640  -36.4790   24.3580 C   0  0  0  0  0  3  0  0  0  0  0  0
  -27.4720  -37.3830   25.2310 C   0  0  0  0  0  1  0  0  0  0  0  0
  -26.3520  -37.5780   24.3150 N   0  0  0  0  0  0  0  0  0  0  0  0
  -25.9110  -38.4670   24.5360 H   0  0  0  0  0  0  0  0  0  0  0  0
  -26.5730  -31.8300   25.2140 C   0  0  1  0  0  0  0  0  0  0  0  0
  -25.5140  -31.4220   26.2630 C   0  0  0  0  0  1  0  0  0  0  0  0
  -27.2390  -30.5370   24.6870 C   0  0  0  0  0  1  0  0  0  0  0  0
  -27.6770  -32.6360   25.9370 C   0  0  0  0  0  1  0  0  0  0  0  0
  -31.6570  -20.2000   19.0310 C   0  0  0  0  0  2  0  0  0  0  0  0
  -31.5740  -18.4220   22.4490 C   0  0  0  0  0  3  0  0  0  0  0  0
  -31.6680  -19.4430   21.4880 C   0  0  0  0  0  3  0  0  0  0  0  0
  -31.3810  -17.7910   19.7300 C   0  0  0  0  0  3  0  0  0  0  0  0
  -31.3950  -17.0740   22.0740 C   0  0  0  0  0  0  0  0  0  0  0  0
  -31.5720  -19.1320   20.1160 C   0  0  0  0  0  0  0  0  0  0  0  0
  -31.2850  -16.7460   20.6860 C   0  0  0  0  0  0  0  0  0  0  0  0
  -31.1850  -14.7740   19.1160 C   0  0  0  0  0  0  0  0  0  0  0  0
  -30.4980  -12.8210   17.7660 C   0  0  0  0  0  2  0  0  0  0  0  0
  -29.3330  -13.1820   16.8240 C   0  0  0  0  0  2  0  0  0  0  0  0
  -27.9770  -13.0390   17.5410 C   0  0  0  0  0  2  0  0  0  0  0  0
  -27.9560  -13.7540   18.9170 C   0  0  0  0  0  3  0  0  0  0  0  0
  -29.1960  -13.3610   19.7490 C   0  0  0  0  0  2  0  0  0  0  0  0
  -30.4090  -13.6700   18.9630 N   0  0  0  0  0  0  0  0  0  0  0  0
  -32.0450  -15.1140   18.2970 O   0  0  0  0  0  0  0  0  0  0  0  0
  -30.9960  -15.4040   20.2870 N   0  0  0  0  0  0  0  0  0  0  0  0
  -30.4280  -14.8750   20.9310 H   0  0  0  0  0  0  0  0  0  0  0  0
  -25.7860  -14.3710   20.1640 C   0  0  0  0  0  0  0  0  0  0  0  0
  -24.7800  -13.6020   20.6820 C   0  0  0  0  0  0  0  0  0  0  0  0
  -25.1550  -12.2460   20.4370 C   0  0  0  0  0  0  0  0  0  0  0  0
  -26.7150  -13.4840   19.6420 N   0  0  0  0  0  0  0  0  0  0  0  0
  -26.3480  -12.1940   19.8580 N   0  0  0  0  0  0  0  0  0  0  0  0
  -24.4220  -10.9950   20.6670 C   0  0  0  0  0  0  0  0  0  0  0  0
  -24.9480   -9.9690   21.4840 C   0  0  0  0  0  3  0  0  0  0  0  0
  -24.2180   -8.7820   21.7040 C   0  0  0  0  0  3  0  0  0  0  0  0
  -22.9450   -8.6110   21.1070 C   0  0  0  0  0  0  0  0  0  0  0  0
  -22.4350   -9.6250   20.2770 C   0  0  0  0  0  3  0  0  0  0  0  0
  -23.1660  -10.8040   20.0550 C   0  0  0  0  0  3  0  0  0  0  0  0
  -22.1760   -7.4800   21.2430 O   0  0  0  0  0  0  0  0  0  0  0  0
  -22.1020   -6.7990   22.4310 C   0  0  0  0  0  0  0  0  0  0  0  0
  -21.7090   -7.4330   23.6310 C   0  0  0  0  0  3  0  0  0  0  0  0
  -21.5780   -6.6800   24.8150 C   0  0  0  0  0  3  0  0  0  0  0  0
  -21.8310   -5.2960   24.8000 C   0  0  0  0  0  0  0  0  0  0  0  0
  -22.2180   -4.6610   23.6070 C   0  0  0  0  0  3  0  0  0  0  0  0
  -22.3500   -5.4120   22.4250 C   0  0  0  0  0  0  0  0  0  0  0  0
  -22.7020   -4.7920   21.2720 F   0  0  0  0  0  0  0  0  0  0  0  0
  -21.6990   -4.5700   25.9360 F   0  0  0  0  0  0  0  0  0  0  0  0
  -23.4970  -14.0950   21.2870 C   0  0  0  0  0  0  0  0  0  0  0  0
  -22.9710  -13.3790   22.2760 N   0  0  0  0  0  0  0  0  0  0  0  0
  -22.9780  -15.1460   20.9190 O   0  0  0  0  0  0  0  0  0  0  0  0
  -23.4070  -12.5260   22.5910 H   0  0  0  0  0  0  0  0  0  0  0  0
  -22.1210  -13.6910   22.7220 H   0  0  0  0  0  0  0  0  0  0  0  0
  -25.9820  -15.7470   20.0760 N   0  0  0  0  0  0  0  0  0  0  0  0
  -25.2990  -16.4190   20.4080 H   0  0  0  0  0  0  0  0  0  0  0  0
  -26.7810  -16.1820   19.6310 H   0  0  0  0  0  0  0  0  0  0  0  0
  -31.2870  -16.0580   23.1850 C   0  0  0  0  0  0  0  0  0  0  0  0
  -31.7530  -14.8420   22.9330 N   0  0  0  0  0  0  0  0  0  0  0  0
  -30.8450  -16.3630   24.2930 O   0  0  0  0  0  0  0  0  0  0  0  0
  -32.1790  -14.6410   22.0400 H   0  0  0  0  0  0  0  0  0  0  0  0
  -31.7430  -14.1350   23.6530 H   0  0  0  0  0  0  0  0  0  0  0  0
  1  2  1  0
  2  4  1  0
  3  1  2  0
  5  8  1  0
  6  5  1  0
  7  8  1  0
  8  1  1  0
  9 10  1  0
  9  7  1  0
  9  6  1  0
 10 11  1  0
 11 13  1  0
 12 23  2  0
 13 18  1  0
 14 22  1  0
 14 24  1  0
 15 21  1  0
 15 17  1  0
 16 22  1  0
 17 16  1  0
 18 17  2  0
 19 20  1  0
 19 13  2  0
 20 15  2  0
 21 14  1  0
 22 12  1  0
 24 26  2  0
 25 24  1  0
 27 25  1  0
 28 37  2  0
 28 33  1  0
 29 25  1  0
 29 33  1  0
 30 29  1  0
 31 32  1  0
 31 30  1  0
 32 28  1  0
 33 34  2  0
 34 35  1  0
 36 35  2  0
 37 36  1  0
 38 12  1  0
 38 39  1  0
 38 48  1  0
 39 42  1  0
 40 44  1  0
 40 39  1  0
 41 40  2  0
 44 43  1  0
 46 44  1  0
 46 47  1  0
 46 45  1  0
 48 51  1  1
 48 49  1  0
 50 48  1  0
 52  2  1  0
 52 57  1  0
 54 53  2  0
 55 57  2  0
 55 58  1  0
 56 53  1  0
 56 97  1  0
 57 54  1  0
 58 56  2  0
 59 67  1  0
 60 65  1  0
 61 62  1  0
 61 60  1  0
 63 62  1  0
 63 72  1  0
 63 64  1  0
 65 59  1  0
 65 64  1  0
 66 59  2  0
 67 58  1  0
 67 68  1  0
 69 70  2  0
 70 89  1  0
 71 74  1  0
 71 70  1  0
 72 73  1  0
 72 69  1  0
 73 71  2  0
 74 75  1  0
 75 76  2  0
 77 80  1  0
 77 76  1  0
 78 77  2  0
 79 78  1  0
 79 74  2  0
 80 81  1  0
 81 82  1  0
 82 83  2  0
 84 83  1  0
 84 88  1  0
 85 84  2  0
 86 81  2  0
 86 85  1  0
 87 86  1  0
 89 90  1  0
 90 92  1  0
 90 93  1  0
 91 89  2  0
 94 69  1  0
 94 95  1  0
 96 94  1  0
 97 99  2  0
 98 97  1  0
 98101  1  0
100 98  1  0
M  ISO  4  10 101  11 101  59 100  67 100
M  END
>  <TORSDO>  (24) 
F 21

>  <SCORE>  (24) 
-3.221

>  <name>  (24) 
23

>  <ligand_id>  (24) 
23

>  <original_smiles>  (24) 
[H]c1c([H])c([H])c2c(c1[H])C([H])([H])C([H])([H])C([H])([H])C2([H])N([H])C(=O)C1([H])N(C(=O)C([H])(N([H])C(=O)C([H])(N([H])C([H])([H])[H])C([H])([H])[H])C(C([H])([H])[H])(C([H])([H])[H])C([H])([H])[H])C([H])([H])c2c([H])c(OC([H])([H])C3([H])C([H])([H])C([H])([H])C([H])(C(=O)N([H])C([H])([H])c4c([H])c([H])c(C(=O)N([H])[H])c(N([H])C(=O)N5C([H])([H])C([H])([H])C([H])([H])C([H])(n6nc(-c7c([H])c([H])c(Oc8c([H])c([H])c(F)c([H])c8F)c([H])c7[H])c(C(=O)N([H])[H])c6N([H])[H])C5([H])[H])c4[H])C3([H])[H])c([H])c([H])c2C1([H])[H]

>  <smiles>  (24) 
[H]c1c([H])c([H])c2c(c1[H])C([H])([H])C([H])([H])C([H])([H])C2([H])N([H])C(=O)C1([H])N(C(=O)C([H])(N([H])C(=O)C([H])(N([H])C([H])([H])[H])C([H])([H])[H])C(C([H])([H])[H])(C([H])([H])[H])C([H])([H])[H])C([H])([H])c2c([H])c(OC([H])([H])C3([H])C([H])([H])C([H])([H])C([H])(C(=O)N([H])C([H])([H])c4c([H])c([H])c(C(=O)N([H])[H])c(N([H])C(=O)N5C([H])([H])C([H])([H])C([H])([H])C([H])(n6nc(-c7c([H])c([H])c(Oc8c([H])c([H])c(F)c([H])c8F)c([H])c7[H])c(C(=O)N([H])[H])c6N([H])[H])C5([H])[H])c4[H])C3([H])[H])c([H])c([H])c2C1([H])[H]

$$$$
24:0:0
     RDKit          3D

 95103  0  0  1  0  0  0  0  0999 V2000
  -29.1330  -22.4700   19.5810 C   0  0  0  0  0  0  0  0  0  0  0  0
  -29.0120  -22.4790   18.3530 O   0  0  0  0  0  0  0  0  0  0  0  0
  -29.8110  -19.9020   19.6100 C   0  0  0  0  0  3  0  0  0  0  0  0
  -30.3520  -21.2850   21.5270 C   0  0  0  0  0  3  0  0  0  0  0  0
  -30.9540  -18.8920   21.5020 C   0  0  0  0  0  3  0  0  0  0  0  0
  -29.7580  -21.2070   20.2450 C   0  0  0  0  0  0  0  0  0  0  0  0
  -30.4040  -18.7260   20.2160 C   0  0  0  0  0  0  0  0  0  0  0  0
  -30.9330  -20.1520   22.1410 C   0  0  0  0  0  0  0  0  0  0  0  0
  -31.4920  -20.2800   23.3670 F   0  0  0  0  0  0  0  0  0  0  0  0
  -30.5190  -17.3340   19.4720 C   0  0  0  0  0  2  0  0  0  0  0  0
  -31.0550  -14.8640   20.0350 C   0  0  0  0  0  0  0  0  0  0  0  0
  -30.8160  -12.5360   19.1940 C   0  0  0  0  0  2  0  0  0  0  0  0
  -29.8700  -12.5610   17.9740 C   0  0  0  0  0  2  0  0  0  0  0  0
  -28.3990  -12.4500   18.4220 C   0  0  0  0  0  2  0  0  0  0  0  0
  -28.0550  -13.4120   19.5900 C   0  0  0  0  0  3  0  0  0  0  0  0
  -29.1200  -13.3670   20.7080 C   0  0  0  0  0  2  0  0  0  0  0  0
  -30.4220  -13.6470   20.0890 N   0  0  0  0  0  0  0  0  0  0  0  0
  -32.2260  -14.9380   19.6500 O   0  0  0  0  0  0  0  0  0  0  0  0
  -30.2850  -16.0010   20.1620 N   0  0  0  0  0  0  0  0  0  0  0  0
  -29.3510  -15.8500   20.5090 H   0  0  0  0  0  0  0  0  0  0  0  0
  -25.7220  -14.0990   20.4100 C   0  0  0  0  0  0  0  0  0  0  0  0
  -24.6270  -13.3680   20.7800 C   0  0  0  0  0  0  0  0  0  0  0  0
  -25.0160  -11.9970   20.6840 C   0  0  0  0  0  0  0  0  0  0  0  0
  -26.7100  -13.1770   20.1080 N   0  0  0  0  0  0  0  0  0  0  0  0
  -26.2930  -11.9040   20.3330 N   0  0  0  0  0  0  0  0  0  0  0  0
  -24.2300  -10.7670   20.8470 C   0  0  0  0  0  0  0  0  0  0  0  0
  -24.6120   -9.7610   21.7610 C   0  0  0  0  0  3  0  0  0  0  0  0
  -23.8290   -8.5960   21.9140 C   0  0  0  0  0  3  0  0  0  0  0  0
  -22.6480   -8.4310   21.1510 C   0  0  0  0  0  0  0  0  0  0  0  0
  -22.2850   -9.4250   20.2240 C   0  0  0  0  0  3  0  0  0  0  0  0
  -23.0680  -10.5810   20.0700 C   0  0  0  0  0  3  0  0  0  0  0  0
  -21.8380   -7.3230   21.2140 O   0  0  0  0  0  0  0  0  0  0  0  0
  -21.6960   -6.5990   22.3710 C   0  0  0  0  0  0  0  0  0  0  0  0
  -21.2230   -7.1880   23.5650 C   0  0  0  0  0  3  0  0  0  0  0  0
  -21.0270   -6.3940   24.7110 C   0  0  0  0  0  3  0  0  0  0  0  0
  -21.2920   -5.0120   24.6650 C   0  0  0  0  0  0  0  0  0  0  0  0
  -21.7570   -4.4230   23.4760 C   0  0  0  0  0  3  0  0  0  0  0  0
  -21.9560   -5.2140   22.3310 C   0  0  0  0  0  0  0  0  0  0  0  0
  -22.3850   -4.6390   21.1830 F   0  0  0  0  0  0  0  0  0  0  0  0
  -21.0950   -4.2460   25.7640 F   0  0  0  0  0  0  0  0  0  0  0  0
  -23.2650  -13.9060   21.1090 C   0  0  0  0  0  0  0  0  0  0  0  0
  -22.5340  -13.2320   21.9890 N   0  0  0  0  0  0  0  0  0  0  0  0
  -22.8610  -14.9590   20.6210 O   0  0  0  0  0  0  0  0  0  0  0  0
  -22.8720  -12.3780   22.4080 H   0  0  0  0  0  0  0  0  0  0  0  0
  -21.6200  -13.5770   22.2470 H   0  0  0  0  0  0  0  0  0  0  0  0
  -25.9490  -15.4670   20.2810 N   0  0  0  0  0  0  0  0  0  0  0  0
  -25.2120  -16.1450   20.4440 H   0  0  0  0  0  0  0  0  0  0  0  0
  -26.7970  -15.8850   19.9250 H   0  0  0  0  0  0  0  0  0  0  0  0
  -28.5780  -23.7440   20.4060 C   0  0  0  0  0  3  0  0  0  0  0  0
  -27.2290  -23.3470   20.8700 N   0  0  0  0  0  4  0  0  0  0  0  0
  -26.6370  -23.1440   20.0820 H   0  0  0  0  0  0  0  0  0  0  0  0
  -26.8050  -24.0750   21.4180 H   0  0  0  0  0  0  0  0  0  0  0  0
  -27.2700  -22.5170   21.4350 H   0  0  0  0  0  0  0  0  0  0  0  0
  -28.4840  -25.1400   19.5940 C   0  0  0  0  0  2  0  0  0  0  0  0
  -28.3500  -26.4770   20.2560 O   0  0  0  0  0  0  0  0  0  0  0  0
  -24.6430  -31.9180   23.2310 C   0  0  0  0  0  0  0  0  0  0  0  0
  -27.2150  -27.3080   20.1820 C   0  0  0  0  0  0  0  0  0  0  0  0
  -23.4190  -30.5080   21.6140 C   0  0  0  0  0  3  0  0  0  0  0  0
  -24.8510  -28.9360   20.1850 C   0  0  0  0  0  0  0  0  0  0  0  0
  -25.9560  -30.8120   21.4030 C   0  0  0  0  0  2  0  0  0  0  0  0
  -26.0260  -29.4260   20.7690 C   0  0  0  0  0  0  0  0  0  0  0  0
  -27.2060  -28.6210   20.7590 C   0  0  0  0  0  3  0  0  0  0  0  0
  -26.0160  -26.8760   19.5710 C   0  0  0  0  0  3  0  0  0  0  0  0
  -24.8500  -27.6700   19.5800 C   0  0  0  0  0  3  0  0  0  0  0  0
  -23.6170  -29.8160   20.2380 C   0  0  0  0  0  2  0  0  0  0  0  0
  -24.6930  -31.0990   22.1400 N   0  0  0  0  0  0  0  0  0  0  0  0
  -23.5660  -32.2040   23.7750 O   0  0  0  0  0  0  0  0  0  0  0  0
  -22.7620  -29.5030   22.5920 C   0  0  0  0  0  0  0  0  0  0  0  0
  -21.4380  -29.3120   22.4700 N   0  0  0  0  0  0  0  0  0  0  0  0
  -23.4460  -28.8980   23.4220 O   0  0  0  0  0  0  0  0  0  0  0  0
  -20.9440  -29.8580   21.7790 H   0  0  0  0  0  0  0  0  0  0  0  0
  -18.0800  -28.0580   22.9540 C   0  0  0  0  0  0  0  0  0  0  0  0
  -20.6280  -28.3780   23.2550 C   0  0  0  0  0  3  0  0  0  0  0  0
  -20.7680  -26.9320   22.7230 C   0  0  0  0  0  2  0  0  0  0  0  0
  -19.6890  -26.5580   21.7010 C   0  0  0  0  0  2  0  0  0  0  0  0
  -18.2950  -26.6940   22.3190 C   0  0  0  0  0  2  0  0  0  0  0  0
  -19.1760  -28.8550   23.3780 C   0  0  0  0  0  0  0  0  0  0  0  0
  -18.9210  -30.1300   23.9290 C   0  0  0  0  0  3  0  0  0  0  0  0
  -17.6040  -30.6080   24.0610 C   0  0  0  0  0  3  0  0  0  0  0  0
  -16.5220  -29.8070   23.6550 C   0  0  0  0  0  3  0  0  0  0  0  0
  -16.7610  -28.5350   23.1060 C   0  0  0  0  0  3  0  0  0  0  0  0
  -25.9330  -32.5560   23.8350 C   0  0  0  0  0  3  0  0  0  0  0  0
  -25.6210  -33.9500   24.1850 N   0  0  0  0  0  0  0  0  0  0  0  0
  -25.9210  -35.0130   23.4270 C   0  0  0  0  0  0  0  0  0  0  0  0
  -26.5630  -34.9240   22.3770 O   0  0  0  0  0  0  0  0  0  0  0  0
  -25.0560  -34.0910   25.0090 H   0  0  0  0  0  0  0  0  0  0  0  0
  -24.1700  -36.7950   23.1370 C   0  0  0  0  0  1  0  0  0  0  0  0
  -25.4360  -36.3930   23.9110 C   0  0  0  0  0  3  0  0  0  0  0  0
  -27.5820  -37.2930   24.6960 C   0  0  0  0  0  1  0  0  0  0  0  0
  -26.4550  -37.4570   23.7810 N   0  0  0  0  0  0  0  0  0  0  0  0
  -26.0420  -38.3710   23.9460 H   0  0  0  0  0  0  0  0  0  0  0  0
  -26.4770  -31.7800   25.0970 C   0  0  1  0  0  0  0  0  0  0  0  0
  -25.4040  -31.5220   26.1800 C   0  0  0  0  0  1  0  0  0  0  0  0
  -27.0700  -30.4130   24.6830 C   0  0  0  0  0  1  0  0  0  0  0  0
  -27.6280  -32.5820   25.7510 C   0  0  0  0  0  1  0  0  0  0  0  0
  1  6  1  0
  1 49  1  0
  2  1  2  0
  3  7  2  0
  3  6  1  0
  4  8  1  0
  5  8  2  0
  6  4  2  0
  7  5  1  0
  8  9  1  0
 10 19  1  0
 10  7  1  0
 11 17  1  0
 11 19  1  0
 12 17  1  0
 13 14  1  0
 13 12  1  0
 15 14  1  0
 15 24  1  0
 15 16  1  0
 17 16  1  0
 18 11  2  0
 19 20  1  0
 21 22  2  0
 22 41  1  0
 23 22  1  0
 23 26  1  0
 24 25  1  0
 24 21  1  0
 25 23  2  0
 26 27  1  0
 27 28  2  0
 29 32  1  0
 29 28  1  0
 30 29  2  0
 31 30  1  0
 31 26  2  0
 32 33  1  0
 33 34  1  0
 34 35  2  0
 36 35  1  0
 36 40  1  0
 37 36  2  0
 38 33  2  0
 38 37  1  0
 39 38  1  0
 41 42  1  0
 42 45  1  0
 42 44  1  0
 43 41  2  0
 46 21  1  0
 46 47  1  0
 48 46  1  0
 49 54  1  0
 49 50  1  0
 50 52  1  0
 50 53  1  0
 51 50  1  0
 54 55  1  0
 56 67  2  0
 57 55  1  0
 57 62  1  0
 58 66  1  0
 58 68  1  0
 59 65  1  0
 59 61  1  0
 60 66  1  0
 61 60  1  0
 62 61  2  0
 63 64  1  0
 63 57  2  0
 64 59  2  0
 65 58  1  0
 66 56  1  0
 68 70  2  0
 69 68  1  0
 71 69  1  0
 72 81  2  0
 72 77  1  0
 73 69  1  0
 73 77  1  0
 74 73  1  0
 75 76  1  0
 75 74  1  0
 76 72  1  0
 77 78  2  0
 78 79  1  0
 80 79  2  0
 81 80  1  0
 82 56  1  0
 82 83  1  0
 82 92  1  0
 83 86  1  0
 84 88  1  0
 84 83  1  0
 85 84  2  0
 88 87  1  0
 90 88  1  0
 90 91  1  0
 90 89  1  0
 92 95  1  1
 92 93  1  0
 94 92  1  0
M  ISO  4  11 100  19 100  54 101  55 101
M  END
>  <TORSDO>  (25) 
F 21

>  <SCORE>  (25) 
-13.682

>  <name>  (25) 
24

>  <ligand_id>  (25) 
24

>  <original_smiles>  (25) 
[H]c1c([H])c([H])c2c(c1[H])C([H])([H])C([H])([H])C([H])([H])C2([H])N([H])C(=O)C1([H])N(C(=O)C([H])(N([H])C(=O)C([H])(N([H])C([H])([H])[H])C([H])([H])[H])C(C([H])([H])[H])(C([H])([H])[H])C([H])([H])[H])C([H])([H])c2c([H])c(OC([H])([H])C([H])(C(=O)c3c([H])c(F)c([H])c(C([H])([H])N([H])C(=O)N4C([H])([H])C([H])([H])C([H])([H])C([H])(n5nc(-c6c([H])c([H])c(Oc7c([H])c([H])c(F)c([H])c7F)c([H])c6[H])c(C(=O)N([H])[H])c5N([H])[H])C4([H])[H])c3[H])[N+]([H])([H])[H])c([H])c([H])c2C1([H])[H]

>  <smiles>  (25) 
[H]c1c([H])c([H])c2c(c1[H])C([H])([H])C([H])([H])C([H])([H])C2([H])N([H])C(=O)C1([H])N(C(=O)C([H])(N([H])C(=O)C([H])(N([H])C([H])([H])[H])C([H])([H])[H])C(C([H])([H])[H])(C([H])([H])[H])C([H])([H])[H])C([H])([H])c2c([H])c(OC([H])([H])C([H])(C(=O)c3c([H])c(F)c([H])c(C([H])([H])N([H])C(=O)N4C([H])([H])C([H])([H])C([H])([H])C([H])(n5nc(-c6c([H])c([H])c(Oc7c([H])c([H])c(F)c([H])c7F)c([H])c6[H])c(C(=O)N([H])[H])c5N([H])[H])C4([H])[H])c3[H])[N+]([H])([H])[H])c([H])c([H])c2C1([H])[H]

$$$$
25:0:0
     RDKit          3D

104113  0  0  1  0  0  0  0  0999 V2000
  -30.6750  -21.9240   23.1890 C   0  0  0  0  0  2  0  0  0  0  0  0
  -28.7280  -22.3370   21.5710 C   0  0  0  0  0  2  0  0  0  0  0  0
  -30.4530  -23.4090   23.4630 C   0  0  0  0  0  2  0  0  0  0  0  0
  -29.5540  -23.5690   21.1180 C   0  0  0  0  0  2  0  0  0  0  0  0
  -29.5030  -21.2860   22.4120 C   0  0  0  0  0  3  0  0  0  0  0  0
  -30.4120  -24.1560   22.1860 N   0  0  1  0  0  4  0  0  0  0  0  0
  -31.3540  -24.1090   21.8010 H   0  0  0  0  0  0  0  0  0  0  0  0
  -29.8000  -19.9720   20.2430 C   0  0  0  0  0  3  0  0  0  0  0  0
  -30.3370  -18.9140   19.4840 C   0  0  0  0  0  3  0  0  0  0  0  0
  -31.2500  -17.9450   21.5110 C   0  0  0  0  0  3  0  0  0  0  0  0
  -30.7180  -18.9950   22.2910 C   0  0  0  0  0  0  0  0  0  0  0  0
  -29.9980  -20.0470   21.6460 C   0  0  0  0  0  0  0  0  0  0  0  0
  -31.0820  -17.9010   20.1150 C   0  0  0  0  0  0  0  0  0  0  0  0
  -30.9990  -18.9660   23.7710 C   0  0  0  0  0  0  0  0  0  0  0  0
  -30.5890  -17.8750   24.4010 N   0  0  0  0  0  0  0  0  0  0  0  0
  -31.5720  -19.8770   24.3620 O   0  0  0  0  0  0  0  0  0  0  0  0
  -30.1080  -17.1500   23.8880 H   0  0  0  0  0  0  0  0  0  0  0  0
  -30.7440  -17.7700   25.3930 H   0  0  0  0  0  0  0  0  0  0  0  0
  -32.2740  -17.4210   17.9720 C   0  0  0  0  0  1  0  0  0  0  0  0
  -31.8110  -16.8250   19.3190 C   0  0  0  0  0  3  0  0  0  0  0  0
  -31.3160  -14.4250   18.5560 C   0  0  0  0  0  0  0  0  0  0  0  0
  -31.2360  -11.9640   18.6980 C   0  0  0  0  0  2  0  0  0  0  0  0
  -30.2070  -11.3270   17.7490 C   0  0  0  0  0  2  0  0  0  0  0  0
  -28.8260  -11.2610   18.4230 C   0  0  0  0  0  2  0  0  0  0  0  0
  -28.4000  -12.6230   19.0280 C   0  0  0  0  0  3  0  0  0  0  0  0
  -29.5280  -13.2400   19.8850 C   0  0  0  0  0  2  0  0  0  0  0  0
  -30.7640  -13.3010   19.0840 N   0  0  0  0  0  0  0  0  0  0  0  0
  -32.1000  -14.3920   17.6040 O   0  0  0  0  0  0  0  0  0  0  0  0
  -31.0910  -15.5380   19.2740 N   0  0  0  0  0  0  0  0  0  0  0  0
  -30.4330  -15.4080   20.0260 H   0  0  0  0  0  0  0  0  0  0  0  0
  -26.4050  -13.4840   20.4110 C   0  0  0  0  0  0  0  0  0  0  0  0
  -25.2940  -12.8540   20.9060 C   0  0  0  0  0  0  0  0  0  0  0  0
  -25.4200  -11.4810   20.5350 C   0  0  0  0  0  0  0  0  0  0  0  0
  -27.1520  -12.5010   19.7810 N   0  0  0  0  0  0  0  0  0  0  0  0
  -26.5710  -11.2780   19.9050 N   0  0  0  0  0  0  0  0  0  0  0  0
  -24.4860  -10.3580   20.6920 C   0  0  0  0  0  0  0  0  0  0  0  0
  -24.8100   -9.2310   21.4780 C   0  0  0  0  0  3  0  0  0  0  0  0
  -23.8870   -8.1740   21.6300 C   0  0  0  0  0  3  0  0  0  0  0  0
  -22.6240   -8.2370   20.9950 C   0  0  0  0  0  0  0  0  0  0  0  0
  -22.3150   -9.3510   20.1950 C   0  0  0  0  0  3  0  0  0  0  0  0
  -23.2360  -10.4000   20.0410 C   0  0  0  0  0  3  0  0  0  0  0  0
  -21.6760   -7.2450   21.0650 O   0  0  0  0  0  0  0  0  0  0  0  0
  -21.4990   -6.4950   22.1990 C   0  0  0  0  0  0  0  0  0  0  0  0
  -21.1210   -7.0810   23.4280 C   0  0  0  0  0  3  0  0  0  0  0  0
  -20.8830   -6.2650   24.5520 C   0  0  0  0  0  3  0  0  0  0  0  0
  -21.0120   -4.8670   24.4490 C   0  0  0  0  0  0  0  0  0  0  0  0
  -21.3830   -4.2820   23.2250 C   0  0  0  0  0  3  0  0  0  0  0  0
  -21.6230   -5.0950   22.1030 C   0  0  0  0  0  0  0  0  0  0  0  0
  -21.9590   -4.5240   20.9210 F   0  0  0  0  0  0  0  0  0  0  0  0
  -20.7750   -4.0830   25.5260 F   0  0  0  0  0  0  0  0  0  0  0  0
  -24.1340  -13.5040   21.6050 C   0  0  0  0  0  0  0  0  0  0  0  0
  -23.4860  -12.7840   22.5160 N   0  0  0  0  0  0  0  0  0  0  0  0
  -23.8240  -14.6720   21.3780 O   0  0  0  0  0  0  0  0  0  0  0  0
  -23.7540  -11.8310   22.7140 H   0  0  0  0  0  0  0  0  0  0  0  0
  -22.7130  -13.1910   23.0220 H   0  0  0  0  0  0  0  0  0  0  0  0
  -26.8310  -14.8070   20.4280 N   0  0  0  0  0  0  0  0  0  0  0  0
  -26.2750  -15.5540   20.8310 H   0  0  0  0  0  0  0  0  0  0  0  0
  -27.6860  -15.1400   19.9970 H   0  0  0  0  0  0  0  0  0  0  0  0
  -30.3200  -25.6210   22.3510 C   0  0  0  0  0  2  0  0  0  0  0  0
  -30.4720  -26.3050   20.9790 C   0  0  0  0  0  3  0  0  0  0  0  0
  -31.7420  -25.9760   20.4250 O   0  0  0  0  0  0  0  0  0  0  0  0
  -31.8720  -26.5570   19.6790 H   0  0  0  0  0  0  0  0  0  0  0  0
  -30.4020  -27.8350   21.0740 C   0  0  0  0  0  2  0  0  0  0  0  0
  -29.7060  -28.3160   19.9250 O   0  0  0  0  0  0  0  0  0  0  0  0
  -25.0850  -30.8000   24.6940 C   0  0  0  0  0  0  0  0  0  0  0  0
  -28.4150  -28.6860   20.1880 C   0  0  0  0  0  0  0  0  0  0  0  0
  -24.1000  -29.8690   22.6220 C   0  0  0  0  0  3  0  0  0  0  0  0
  -25.7450  -29.3960   20.7300 C   0  0  0  0  0  0  0  0  0  0  0  0
  -26.4350  -30.9040   22.6070 C   0  0  0  0  0  2  0  0  0  0  0  0
  -26.7820  -29.9420   21.4930 C   0  0  0  0  0  0  0  0  0  0  0  0
  -28.1170  -29.5960   21.2240 C   0  0  0  0  0  3  0  0  0  0  0  0
  -27.3680  -28.1500   19.4100 C   0  0  0  0  0  3  0  0  0  0  0  0
  -26.0300  -28.4980   19.6840 C   0  0  0  0  0  3  0  0  0  0  0  0
  -24.3420  -29.8270   21.0880 C   0  0  0  0  0  2  0  0  0  0  0  0
  -25.2270  -30.5170   23.3690 N   0  0  0  0  0  0  0  0  0  0  0  0
  -24.0200  -30.5730   25.2870 O   0  0  0  0  0  0  0  0  0  0  0  0
  -23.7900  -28.4350   23.1040 C   0  0  0  0  0  0  0  0  0  0  0  0
  -22.7560  -27.8220   22.5090 N   0  0  0  0  0  0  0  0  0  0  0  0
  -24.4860  -27.8930   23.9670 O   0  0  0  0  0  0  0  0  0  0  0  0
  -22.2350  -28.3370   21.8140 H   0  0  0  0  0  0  0  0  0  0  0  0
  -20.7120  -25.1450   21.2080 C   0  0  0  0  0  0  0  0  0  0  0  0
  -22.3000  -26.4570   22.7690 C   0  0  0  0  0  3  0  0  0  0  0  0
  -23.3810  -25.4250   22.3720 C   0  0  0  0  0  2  0  0  0  0  0  0
  -23.2180  -24.9010   20.9420 C   0  0  0  0  0  2  0  0  0  0  0  0
  -21.8480  -24.2380   20.7660 C   0  0  0  0  0  2  0  0  0  0  0  0
  -20.9280  -26.1980   22.1350 C   0  0  0  0  0  0  0  0  0  0  0  0
  -19.8470  -27.0360   22.4820 C   0  0  0  0  0  3  0  0  0  0  0  0
  -18.5690  -26.8320   21.9250 C   0  0  0  0  0  3  0  0  0  0  0  0
  -18.3570  -25.7770   21.0230 C   0  0  0  0  0  3  0  0  0  0  0  0
  -19.4260  -24.9350   20.6660 C   0  0  0  0  0  3  0  0  0  0  0  0
  -26.2420  -31.4410   25.5250 C   0  0  0  0  0  3  0  0  0  0  0  0
  -26.0060  -32.8890   25.5660 N   0  0  0  0  0  0  0  0  0  0  0  0
  -26.6530  -33.7860   24.8100 C   0  0  0  0  0  0  0  0  0  0  0  0
  -27.5750  -33.4800   24.0470 O   0  0  0  0  0  0  0  0  0  0  0  0
  -25.2280  -33.2040   26.1260 H   0  0  0  0  0  0  0  0  0  0  0  0
  -25.2850  -35.6020   23.7360 C   0  0  0  0  0  1  0  0  0  0  0  0
  -26.2080  -35.2570   24.9150 C   0  0  0  0  0  3  0  0  0  0  0  0
  -28.1780  -36.0560   26.1440 C   0  0  0  0  0  1  0  0  0  0  0  0
  -27.3350  -36.2120   24.9610 N   0  0  0  0  0  0  0  0  0  0  0  0
  -26.9990  -37.1710   24.9380 H   0  0  0  0  0  0  0  0  0  0  0  0
  -26.3610  -30.8520   26.9850 C   0  0  1  0  0  0  0  0  0  0  0  0
  -25.0230  -30.8340   27.7580 C   0  0  0  0  0  1  0  0  0  0  0  0
  -26.9040  -29.4050   26.9390 C   0  0  0  0  0  1  0  0  0  0  0  0
  -27.3780  -31.6830   27.8020 C   0  0  0  0  0  1  0  0  0  0  0  0
  1  3  1  0
  2  5  1  0
  4  2  1  0
  4  6  1  0
  5 12  1  0
  5  1  1  0
  6 59  1  0
  6  3  1  0
  6  7  1  6
  8 12  1  0
  9 13  1  0
  9  8  2  0
 10 11  1  0
 11 14  1  0
 12 11  2  0
 13 10  2  0
 14 16  2  0
 14 15  1  0
 15 18  1  0
 17 15  1  0
 20 19  1  0
 20 13  1  0
 21 27  1  0
 21 29  1  0
 22 27  1  0
 23 24  1  0
 23 22  1  0
 25 24  1  0
 25 34  1  0
 25 26  1  0
 27 26  1  0
 28 21  2  0
 29 20  1  0
 29 30  1  0
 31 56  1  0
 31 32  2  0
 32 51  1  0
 33 36  1  0
 33 32  1  0
 34 35  1  0
 34 31  1  0
 35 33  2  0
 36 37  1  0
 37 38  2  0
 39 42  1  0
 39 38  1  0
 40 39  2  0
 41 40  1  0
 41 36  2  0
 42 43  1  0
 43 44  1  0
 44 45  2  0
 46 45  1  0
 46 50  1  0
 47 46  2  0
 48 43  2  0
 48 47  1  0
 49 48  1  0
 51 52  1  0
 52 54  1  0
 52 55  1  0
 53 51  2  0
 56 57  1  0
 58 56  1  0
 60 63  1  0
 60 59  1  0
 61 60  1  0
 62 61  1  0
 64 66  1  0
 64 63  1  0
 65 76  2  0
 66 71  1  0
 67 77  1  0
 67 75  1  0
 68 74  1  0
 68 70  1  0
 69 75  1  0
 70 69  1  0
 71 70  2  0
 72 73  1  0
 72 66  2  0
 73 68  2  0
 74 67  1  0
 75 65  1  0
 77 79  2  0
 78 77  1  0
 80 78  1  0
 81 86  1  0
 82 78  1  0
 83 82  1  0
 84 83  1  0
 85 84  1  0
 85 81  1  0
 86 87  2  0
 86 82  1  0
 88 87  1  0
 89 88  2  0
 90 89  1  0
 90 81  2  0
 91 65  1  0
 91 92  1  0
 91101  1  0
 92 95  1  0
 93 97  1  0
 93 92  1  0
 94 93  2  0
 97 96  1  0
 97 99  1  0
 99 98  1  0
100 99  1  0
101102  1  1
101104  1  0
103101  1  0
M  ISO  4  21 100  29 100  63 101  64 101
M  END
>  <TORSDO>  (26) 
F 23

>  <SCORE>  (26) 
-6.368

>  <name>  (26) 
25

>  <ligand_id>  (26) 
25

>  <original_smiles>  (26) 
[H]OC([H])(C([H])([H])Oc1c([H])c([H])c2c(c1[H])C([H])([H])N(C(=O)C([H])(N([H])C(=O)C([H])(N([H])C([H])([H])[H])C([H])([H])[H])C(C([H])([H])[H])(C([H])([H])[H])C([H])([H])[H])C([H])(C(=O)N([H])C1([H])c3c([H])c([H])c([H])c([H])c3C([H])([H])C([H])([H])C1([H])[H])C2([H])[H])C([H])([H])[N+]1([H])C([H])([H])C([H])([H])C([H])(c2c([H])c([H])c(C([H])(N([H])C(=O)N3C([H])([H])C([H])([H])C([H])([H])C([H])(n4nc(-c5c([H])c([H])c(Oc6c([H])c([H])c(F)c([H])c6F)c([H])c5[H])c(C(=O)N([H])[H])c4N([H])[H])C3([H])[H])C([H])([H])[H])c([H])c2C(=O)N([H])[H])C([H])([H])C1([H])[H]

>  <smiles>  (26) 
[H]OC([H])(C([H])([H])Oc1c([H])c([H])c2c(c1[H])C([H])([H])N(C(=O)C([H])(N([H])C(=O)C([H])(N([H])C([H])([H])[H])C([H])([H])[H])C(C([H])([H])[H])(C([H])([H])[H])C([H])([H])[H])C([H])(C(=O)N([H])C1([H])c3c([H])c([H])c([H])c([H])c3C([H])([H])C([H])([H])C1([H])[H])C2([H])[H])C([H])([H])[N+]1([H])C([H])([H])C([H])([H])C([H])(c2c([H])c([H])c(C([H])(N([H])C(=O)N3C([H])([H])C([H])([H])C([H])([H])C([H])(n4nc(-c5c([H])c([H])c(Oc6c([H])c([H])c(F)c([H])c6F)c([H])c5[H])c(C(=O)N([H])[H])c4N([H])[H])C3([H])[H])C([H])([H])[H])c([H])c2C(=O)N([H])[H])C([H])([H])C1([H])[H]

$$$$
26:0:0
     RDKit          3D

 96104  0  0  1  0  0  0  0  0999 V2000
  -28.7000  -20.0600   18.5510 C   0  0  0  0  0  3  0  0  0  0  0  0
  -29.4520  -19.0150   19.1210 C   0  0  0  0  0  3  0  0  0  0  0  0
  -28.6850  -21.3450   19.1280 C   0  0  0  0  0  3  0  0  0  0  0  0
  -30.1910  -20.5450   20.8740 C   0  0  0  0  0  3  0  0  0  0  0  0
  -30.2320  -19.2280   20.2760 C   0  0  0  0  0  0  0  0  0  0  0  0
  -29.4040  -21.6180   20.3140 C   0  0  0  0  0  0  0  0  0  0  0  0
  -29.0970  -24.1450   20.3640 C   0  0  0  0  0  0  0  0  0  0  0  0
  -29.1870  -22.9090   20.9590 N   0  0  0  0  0  0  0  0  0  0  0  0
  -29.6960  -24.3800   19.3100 O   0  0  0  0  0  0  0  0  0  0  0  0
  -28.8770  -22.8650   21.9230 H   0  0  0  0  0  0  0  0  0  0  0  0
  -28.2780  -25.3160   21.0340 C   0  0  0  0  0  2  0  0  0  0  0  0
  -28.3420  -26.5810   20.2790 O   0  0  0  0  0  0  0  0  0  0  0  0
  -24.5620  -31.8960   23.2370 C   0  0  0  0  0  0  0  0  0  0  0  0
  -27.1960  -27.3740   20.2330 C   0  0  0  0  0  0  0  0  0  0  0  0
  -23.3540  -30.4930   21.5900 C   0  0  0  0  0  3  0  0  0  0  0  0
  -24.8160  -28.9390   20.1710 C   0  0  0  0  0  0  0  0  0  0  0  0
  -25.8860  -30.8270   21.4050 C   0  0  0  0  0  2  0  0  0  0  0  0
  -25.9730  -29.4510   20.7730 C   0  0  0  0  0  0  0  0  0  0  0  0
  -27.1650  -28.6770   20.7930 C   0  0  0  0  0  3  0  0  0  0  0  0
  -26.0280  -26.8990   19.5950 C   0  0  0  0  0  3  0  0  0  0  0  0
  -24.8460  -27.6700   19.5630 C   0  0  0  0  0  3  0  0  0  0  0  0
  -23.5700  -29.8010   20.2150 C   0  0  0  0  0  2  0  0  0  0  0  0
  -24.6180  -31.0910   22.1350 N   0  0  0  0  0  0  0  0  0  0  0  0
  -23.4810  -32.1730   23.7770 O   0  0  0  0  0  0  0  0  0  0  0  0
  -22.6960  -29.4840   22.5590 C   0  0  0  0  0  0  0  0  0  0  0  0
  -21.3680  -29.3070   22.4380 N   0  0  0  0  0  0  0  0  0  0  0  0
  -23.3770  -28.8570   23.3760 O   0  0  0  0  0  0  0  0  0  0  0  0
  -20.8780  -29.8700   21.7560 H   0  0  0  0  0  0  0  0  0  0  0  0
  -17.9900  -28.1210   22.9450 C   0  0  0  0  0  0  0  0  0  0  0  0
  -20.5490  -28.3710   23.2110 C   0  0  0  0  0  3  0  0  0  0  0  0
  -20.6460  -26.9390   22.6350 C   0  0  0  0  0  2  0  0  0  0  0  0
  -19.5430  -26.6200   21.6200 C   0  0  0  0  0  2  0  0  0  0  0  0
  -18.1620  -26.7690   22.2680 C   0  0  0  0  0  2  0  0  0  0  0  0
  -19.1130  -28.8770   23.3730 C   0  0  0  0  0  0  0  0  0  0  0  0
  -18.9020  -30.1390   23.9690 C   0  0  0  0  0  3  0  0  0  0  0  0
  -17.6010  -30.6470   24.1380 C   0  0  0  0  0  3  0  0  0  0  0  0
  -16.4920  -29.8880   23.7260 C   0  0  0  0  0  3  0  0  0  0  0  0
  -16.6870  -28.6270   23.1360 C   0  0  0  0  0  3  0  0  0  0  0  0
  -25.8460  -32.5280   23.8620 C   0  0  0  0  0  3  0  0  0  0  0  0
  -25.5430  -33.9280   24.1870 N   0  0  0  0  0  0  0  0  0  0  0  0
  -25.8860  -34.9770   23.4280 C   0  0  0  0  0  0  0  0  0  0  0  0
  -26.5590  -34.8680   22.4000 O   0  0  0  0  0  0  0  0  0  0  0  0
  -24.9410  -34.0880   24.9810 H   0  0  0  0  0  0  0  0  0  0  0  0
  -24.1740  -36.7830   23.0550 C   0  0  0  0  0  1  0  0  0  0  0  0
  -25.4040  -36.3690   23.8780 C   0  0  0  0  0  3  0  0  0  0  0  0
  -27.5340  -37.2430   24.7300 C   0  0  0  0  0  1  0  0  0  0  0  0
  -26.4450  -37.4150   23.7730 N   0  0  0  0  0  0  0  0  0  0  0  0
  -26.0430  -38.3370   23.9120 H   0  0  0  0  0  0  0  0  0  0  0  0
  -26.3580  -31.7570   25.1400 C   0  0  1  0  0  0  0  0  0  0  0  0
  -25.2630  -31.5290   26.2090 C   0  0  0  0  0  1  0  0  0  0  0  0
  -26.9330  -30.3760   24.7500 C   0  0  0  0  0  1  0  0  0  0  0  0
  -27.5130  -32.5470   25.8010 C   0  0  0  0  0  1  0  0  0  0  0  0
  -31.1080  -18.0130   20.7560 C   0  0  0  0  0  3  0  0  0  0  0  0
  -32.3230  -18.4760   21.4520 N   0  0  0  0  0  4  0  0  0  0  0  0
  -32.1070  -18.8970   22.3370 H   0  0  0  0  0  0  0  0  0  0  0  0
  -32.8350  -19.1310   20.8910 H   0  0  0  0  0  0  0  0  0  0  0  0
  -32.9210  -17.6850   21.6240 H   0  0  0  0  0  0  0  0  0  0  0  0
  -30.3930  -16.8880   21.6050 C   0  0  0  0  0  2  0  0  0  0  0  0
  -30.6780  -14.5980   20.4800 C   0  0  0  0  0  0  0  0  0  0  0  0
  -30.4080  -12.4280   19.2980 C   0  0  0  0  0  2  0  0  0  0  0  0
  -29.4630  -12.6080   18.0910 C   0  0  0  0  0  2  0  0  0  0  0  0
  -27.9860  -12.4740   18.5140 C   0  0  0  0  0  2  0  0  0  0  0  0
  -27.6450  -13.3040   19.7830 C   0  0  0  0  0  3  0  0  0  0  0  0
  -28.6980  -13.0820   20.8870 C   0  0  0  0  0  2  0  0  0  0  0  0
  -30.0120  -13.4160   20.3130 N   0  0  0  0  0  0  0  0  0  0  0  0
  -31.8410  -14.7720   20.1180 O   0  0  0  0  0  0  0  0  0  0  0  0
  -29.9340  -15.6300   20.9510 N   0  0  0  0  0  0  0  0  0  0  0  0
  -28.9560  -15.4130   21.0660 H   0  0  0  0  0  0  0  0  0  0  0  0
  -25.2440  -13.9110   20.4730 C   0  0  0  0  0  0  0  0  0  0  0  0
  -24.1780  -13.1430   20.8460 C   0  0  0  0  0  0  0  0  0  0  0  0
  -24.6400  -11.7900   20.8300 C   0  0  0  0  0  0  0  0  0  0  0  0
  -26.2910  -13.0300   20.2580 N   0  0  0  0  0  0  0  0  0  0  0  0
  -25.9320  -11.7500   20.5310 N   0  0  0  0  0  0  0  0  0  0  0  0
  -23.9160  -10.5280   21.0230 C   0  0  0  0  0  0  0  0  0  0  0  0
  -24.3380   -9.5620   21.9660 C   0  0  0  0  0  3  0  0  0  0  0  0
  -23.6070   -8.3680   22.1420 C   0  0  0  0  0  3  0  0  0  0  0  0
  -22.4390   -8.1290   21.3770 C   0  0  0  0  0  0  0  0  0  0  0  0
  -22.0390   -9.0820   20.4230 C   0  0  0  0  0  3  0  0  0  0  0  0
  -22.7720  -10.2680   20.2430 C   0  0  0  0  0  3  0  0  0  0  0  0
  -21.6850   -6.9850   21.4630 O   0  0  0  0  0  0  0  0  0  0  0  0
  -21.6240   -6.2490   22.6200 C   0  0  0  0  0  0  0  0  0  0  0  0
  -21.1780   -6.8110   23.8360 C   0  0  0  0  0  3  0  0  0  0  0  0
  -21.0630   -6.0020   24.9850 C   0  0  0  0  0  3  0  0  0  0  0  0
  -21.3840   -4.6310   24.9190 C   0  0  0  0  0  0  0  0  0  0  0  0
  -21.8200   -4.0720   23.7050 C   0  0  0  0  0  3  0  0  0  0  0  0
  -21.9350   -4.8770   22.5580 C   0  0  0  0  0  0  0  0  0  0  0  0
  -22.3370   -4.3240   21.3880 F   0  0  0  0  0  0  0  0  0  0  0  0
  -21.2660   -3.8520   26.0190 F   0  0  0  0  0  0  0  0  0  0  0  0
  -22.7770  -13.6180   21.1040 C   0  0  0  0  0  0  0  0  0  0  0  0
  -22.0420  -12.9270   21.9650 N   0  0  0  0  0  0  0  0  0  0  0  0
  -22.3430  -14.6420   20.5740 O   0  0  0  0  0  0  0  0  0  0  0  0
  -22.4050  -12.0980   22.4120 H   0  0  0  0  0  0  0  0  0  0  0  0
  -21.1030  -13.2300   22.1830 H   0  0  0  0  0  0  0  0  0  0  0  0
  -25.4090  -15.2830   20.2770 N   0  0  0  0  0  0  0  0  0  0  0  0
  -24.6430  -15.9390   20.3710 H   0  0  0  0  0  0  0  0  0  0  0  0
  -26.2460  -15.7100   19.9000 H   0  0  0  0  0  0  0  0  0  0  0  0
  1  2  2  0
  1  3  1  0
  2  5  1  0
  3  6  2  0
  5 53  1  0
  5  4  2  0
  6  4  1  0
  6  8  1  0
  7  8  1  0
  7 11  1  0
  8 10  1  0
  9  7  2  0
 12 11  1  0
 13 24  2  0
 14 12  1  0
 14 19  1  0
 15 23  1  0
 15 25  1  0
 16 22  1  0
 16 18  1  0
 17 23  1  0
 18 19  2  0
 18 17  1  0
 20 14  2  0
 21 20  1  0
 21 16  2  0
 22 15  1  0
 23 13  1  0
 25 27  2  0
 26 25  1  0
 28 26  1  0
 29 38  2  0
 29 34  1  0
 30 26  1  0
 30 34  1  0
 31 30  1  0
 32 33  1  0
 32 31  1  0
 33 29  1  0
 34 35  2  0
 35 36  1  0
 37 36  2  0
 38 37  1  0
 39 13  1  0
 39 40  1  0
 39 49  1  0
 40 43  1  0
 41 45  1  0
 41 40  1  0
 42 41  2  0
 45 44  1  0
 47 45  1  0
 47 48  1  0
 47 46  1  0
 49 52  1  1
 49 50  1  0
 51 49  1  0
 53 54  1  0
 53 58  1  0
 54 57  1  0
 54 55  1  0
 56 54  1  0
 59 67  1  0
 60 65  1  0
 61 62  1  0
 61 60  1  0
 63 62  1  0
 63 72  1  0
 63 64  1  0
 65 59  1  0
 65 64  1  0
 66 59  2  0
 67 68  1  0
 67 58  1  0
 69 70  2  0
 70 89  1  0
 71 70  1  0
 71 74  1  0
 72 69  1  0
 72 73  1  0
 73 71  2  0
 74 75  1  0
 75 76  2  0
 77 80  1  0
 77 76  1  0
 78 77  2  0
 79 78  1  0
 79 74  2  0
 80 81  1  0
 81 82  1  0
 82 83  2  0
 84 83  1  0
 84 88  1  0
 85 84  2  0
 86 81  2  0
 86 85  1  0
 87 86  1  0
 89 90  1  0
 90 93  1  0
 90 92  1  0
 91 89  2  0
 94 95  1  0
 94 69  1  0
 96 94  1  0
M  ISO  4  11 101  12 101  59 100  67 100
M  END
>  <TORSDO>  (27) 
F 21

>  <SCORE>  (27) 
-13.894

>  <name>  (27) 
26

>  <ligand_id>  (27) 
26

>  <original_smiles>  (27) 
[H]c1c([H])c([H])c2c(c1[H])C([H])([H])C([H])([H])C([H])([H])C2([H])N([H])C(=O)C1([H])N(C(=O)C([H])(N([H])C(=O)C([H])(N([H])C([H])([H])[H])C([H])([H])[H])C(C([H])([H])[H])(C([H])([H])[H])C([H])([H])[H])C([H])([H])c2c([H])c(OC([H])([H])C(=O)N([H])c3c([H])c([H])c([H])c(C([H])(C([H])([H])N([H])C(=O)N4C([H])([H])C([H])([H])C([H])([H])C([H])(n5nc(-c6c([H])c([H])c(Oc7c([H])c([H])c(F)c([H])c7F)c([H])c6[H])c(C(=O)N([H])[H])c5N([H])[H])C4([H])[H])[N+]([H])([H])[H])c3[H])c([H])c([H])c2C1([H])[H]

>  <smiles>  (27) 
[H]c1c([H])c([H])c2c(c1[H])C([H])([H])C([H])([H])C([H])([H])C2([H])N([H])C(=O)C1([H])N(C(=O)C([H])(N([H])C(=O)C([H])(N([H])C([H])([H])[H])C([H])([H])[H])C(C([H])([H])[H])(C([H])([H])[H])C([H])([H])[H])C([H])([H])c2c([H])c(OC([H])([H])C(=O)N([H])c3c([H])c([H])c([H])c(C([H])(C([H])([H])N([H])C(=O)N4C([H])([H])C([H])([H])C([H])([H])C([H])(n5nc(-c6c([H])c([H])c(Oc7c([H])c([H])c(F)c([H])c7F)c([H])c6[H])c(C(=O)N([H])[H])c5N([H])[H])C4([H])[H])[N+]([H])([H])[H])c3[H])c([H])c([H])c2C1([H])[H]

$$$$
27:0:0
     RDKit          3D

101110  0  0  1  0  0  0  0  0999 V2000
  -30.4860  -20.7880   20.6470 C   0  0  0  0  0  3  0  0  0  0  0  0
  -30.8560  -20.1640   18.3580 C   0  0  0  0  0  3  0  0  0  0  0  0
  -30.0250  -22.0770   20.2410 C   0  0  0  0  0  3  0  0  0  0  0  0
  -30.4200  -21.4580   17.9590 C   0  0  0  0  0  3  0  0  0  0  0  0
  -30.8830  -19.7820   19.7170 C   0  0  0  0  0  0  0  0  0  0  0  0
  -29.9720  -22.4630   18.8730 C   0  0  0  0  0  0  0  0  0  0  0  0
  -31.8580  -14.6380   19.4150 C   0  0  0  0  0  0  0  0  0  0  0  0
  -31.4070  -12.4000   18.4090 C   0  0  0  0  0  2  0  0  0  0  0  0
  -30.3210  -12.5280   17.3170 C   0  0  0  0  0  2  0  0  0  0  0  0
  -28.9020  -12.4660   17.9200 C   0  0  0  0  0  2  0  0  0  0  0  0
  -28.7460  -13.3610   19.1800 C   0  0  0  0  0  3  0  0  0  0  0  0
  -29.9230  -13.1120   20.1510 C   0  0  0  0  0  2  0  0  0  0  0  0
  -31.1510  -13.4550   19.4190 N   0  0  0  0  0  0  0  0  0  0  0  0
  -32.9630  -14.6720   18.8570 O   0  0  0  0  0  0  0  0  0  0  0  0
  -31.6330  -17.1860   19.1790 C   0  0  0  0  0  2  0  0  0  0  0  0
  -30.3130  -16.1260   20.8320 C   0  0  0  0  0  2  0  0  0  0  0  0
  -31.1670  -18.3070   20.1830 C   0  0  0  0  0  3  0  0  0  0  0  0
  -29.9510  -17.6270   20.8110 C   0  0  0  0  0  3  0  0  0  0  0  0
  -31.2200  -15.8390   19.7080 N   0  0  0  0  0  0  0  0  0  0  0  0
  -26.5220  -14.1250   20.2190 C   0  0  0  0  0  0  0  0  0  0  0  0
  -25.4440  -13.4240   20.6930 C   0  0  0  0  0  0  0  0  0  0  0  0
  -25.7740  -12.0440   20.5370 C   0  0  0  0  0  0  0  0  0  0  0  0
  -27.4470  -13.1730   19.8170 N   0  0  0  0  0  0  0  0  0  0  0  0
  -27.0060  -11.9130   20.0580 N   0  0  0  0  0  0  0  0  0  0  0  0
  -24.9650  -10.8370   20.7590 C   0  0  0  0  0  0  0  0  0  0  0  0
  -25.2700   -9.9240   21.7920 C   0  0  0  0  0  3  0  0  0  0  0  0
  -24.4640   -8.7820   21.9970 C   0  0  0  0  0  3  0  0  0  0  0  0
  -23.3420   -8.5480   21.1690 C   0  0  0  0  0  0  0  0  0  0  0  0
  -23.0560   -9.4490   20.1280 C   0  0  0  0  0  3  0  0  0  0  0  0
  -23.8610  -10.5820   19.9200 C   0  0  0  0  0  3  0  0  0  0  0  0
  -22.5190   -7.4520   21.2790 O   0  0  0  0  0  0  0  0  0  0  0  0
  -22.0770   -7.0050   22.4970 C   0  0  0  0  0  0  0  0  0  0  0  0
  -21.3470   -7.8350   23.3760 C   0  0  0  0  0  3  0  0  0  0  0  0
  -20.8490   -7.3140   24.5880 C   0  0  0  0  0  3  0  0  0  0  0  0
  -21.0730   -5.9640   24.9180 C   0  0  0  0  0  0  0  0  0  0  0  0
  -21.7960   -5.1340   24.0430 C   0  0  0  0  0  3  0  0  0  0  0  0
  -22.2930   -5.6530   22.8350 C   0  0  0  0  0  0  0  0  0  0  0  0
  -22.9710   -4.8430   21.9850 F   0  0  0  0  0  0  0  0  0  0  0  0
  -20.5900   -5.4620   26.0790 F   0  0  0  0  0  0  0  0  0  0  0  0
  -24.1430  -14.0020   21.1690 C   0  0  0  0  0  0  0  0  0  0  0  0
  -23.5160  -13.3680   22.1540 N   0  0  0  0  0  0  0  0  0  0  0  0
  -23.6980  -15.0490   20.7020 O   0  0  0  0  0  0  0  0  0  0  0  0
  -23.8900  -12.5190   22.5520 H   0  0  0  0  0  0  0  0  0  0  0  0
  -22.6510  -13.7380   22.5180 H   0  0  0  0  0  0  0  0  0  0  0  0
  -26.7780  -15.4850   20.0770 N   0  0  0  0  0  0  0  0  0  0  0  0
  -26.0560  -16.1730   20.2630 H   0  0  0  0  0  0  0  0  0  0  0  0
  -27.5590  -15.8620   19.5570 H   0  0  0  0  0  0  0  0  0  0  0  0
  -29.5200  -18.1510   22.2030 C   0  0  0  0  0  2  0  0  0  0  0  0
  -29.1430  -19.5750   22.2070 N   0  0  0  0  0  4  0  0  0  0  0  0
  -29.9000  -20.1300   21.8430 H   0  0  0  0  0  0  0  0  0  0  0  0
  -28.9510  -19.8760   23.1470 H   0  0  0  0  0  0  0  0  0  0  0  0
  -28.3230  -19.7370   21.6520 H   0  0  0  0  0  0  0  0  0  0  0  0
  -27.8020  -23.5320   18.4000 C   0  0  0  0  0  1  0  0  0  0  0  0
  -29.3260  -23.8340   18.3740 C   0  0  2  0  0  0  0  0  0  0  0  0
  -29.8700  -24.1900   16.9470 C   0  0  0  0  0  2  0  0  0  0  0  0
  -29.1000  -23.6130   15.8250 N   0  0  0  0  0  4  0  0  0  0  0  0
  -29.0590  -22.6120   15.8860 H   0  0  0  0  0  0  0  0  0  0  0  0
  -29.5330  -23.8590   14.9510 H   0  0  0  0  0  0  0  0  0  0  0  0
  -28.1620  -23.9660   15.8140 H   0  0  0  0  0  0  0  0  0  0  0  0
  -29.5500  -25.1480   19.2770 C   0  0  0  0  0  2  0  0  0  0  0  0
  -29.2600  -26.5320   18.8150 O   0  0  0  0  0  0  0  0  0  0  0  0
  -24.9830  -30.7920   22.7830 C   0  0  0  0  0  0  0  0  0  0  0  0
  -28.0230  -27.1600   18.9970 C   0  0  0  0  0  0  0  0  0  0  0  0
  -23.9100  -29.5520   20.9380 C   0  0  0  0  0  3  0  0  0  0  0  0
  -25.4920  -28.4510   19.2670 C   0  0  0  0  0  0  0  0  0  0  0  0
  -26.3850  -30.1960   20.8010 C   0  0  0  0  0  2  0  0  0  0  0  0
  -26.6070  -28.9580   19.9460 C   0  0  0  0  0  0  0  0  0  0  0  0
  -27.8700  -28.3130   19.8190 C   0  0  0  0  0  3  0  0  0  0  0  0
  -26.8910  -26.7360   18.2710 C   0  0  0  0  0  3  0  0  0  0  0  0
  -25.6320  -27.3400   18.4240 C   0  0  0  0  0  3  0  0  0  0  0  0
  -24.1670  -29.1520   19.4630 C   0  0  0  0  0  2  0  0  0  0  0  0
  -25.1110  -30.1920   21.5660 N   0  0  0  0  0  0  0  0  0  0  0  0
  -23.8890  -30.8450   23.3610 O   0  0  0  0  0  0  0  0  0  0  0  0
  -23.3980  -28.3150   21.7140 C   0  0  0  0  0  0  0  0  0  0  0  0
  -22.1200  -27.9560   21.5000 N   0  0  0  0  0  0  0  0  0  0  0  0
  -24.1480  -27.6880   22.4660 O   0  0  0  0  0  0  0  0  0  0  0  0
  -21.5650  -28.5210   20.8720 H   0  0  0  0  0  0  0  0  0  0  0  0
  -18.9670  -26.1980   21.6660 C   0  0  0  0  0  0  0  0  0  0  0  0
  -21.4420  -26.8050   22.0970 C   0  0  0  0  0  3  0  0  0  0  0  0
  -21.7890  -25.5040   21.3370 C   0  0  0  0  0  2  0  0  0  0  0  0
  -20.7800  -25.1610   20.2370 C   0  0  0  0  0  2  0  0  0  0  0  0
  -19.3750  -25.0020   20.8240 C   0  0  0  0  0  2  0  0  0  0  0  0
  -19.9360  -27.0540   22.2520 C   0  0  0  0  0  0  0  0  0  0  0  0
  -19.5030  -28.1710   22.9980 C   0  0  0  0  0  3  0  0  0  0  0  0
  -18.1310  -28.4360   23.1680 C   0  0  0  0  0  3  0  0  0  0  0  0
  -17.1740  -27.5770   22.5970 C   0  0  0  0  0  3  0  0  0  0  0  0
  -17.5930  -26.4600   21.8530 C   0  0  0  0  0  3  0  0  0  0  0  0
  -26.2000  -31.4590   23.4960 C   0  0  0  0  0  3  0  0  0  0  0  0
  -25.7530  -32.7570   24.0150 N   0  0  0  0  0  0  0  0  0  0  0  0
  -26.0320  -33.9400   23.4510 C   0  0  0  0  0  0  0  0  0  0  0  0
  -26.7600  -34.0570   22.4610 O   0  0  0  0  0  0  0  0  0  0  0  0
  -25.1070  -32.7370   24.7910 H   0  0  0  0  0  0  0  0  0  0  0  0
  -24.1890  -35.6410   23.2540 C   0  0  0  0  0  1  0  0  0  0  0  0
  -25.4010  -35.1930   24.0860 C   0  0  0  0  0  3  0  0  0  0  0  0
  -27.3830  -36.0760   25.2340 C   0  0  0  0  0  1  0  0  0  0  0  0
  -26.3490  -36.3190   24.2310 N   0  0  0  0  0  0  0  0  0  0  0  0
  -25.8570  -37.1710   24.4850 H   0  0  0  0  0  0  0  0  0  0  0  0
  -26.8060  -30.5740   24.6520 C   0  0  1  0  0  0  0  0  0  0  0  0
  -25.7480  -30.0640   25.6580 C   0  0  0  0  0  1  0  0  0  0  0  0
  -27.5420  -29.3430   24.0720 C   0  0  0  0  0  1  0  0  0  0  0  0
  -27.8590  -31.3890   25.4400 C   0  0  0  0  0  1  0  0  0  0  0  0
  2  5  1  0
  3  1  1  0
  4  2  2  0
  4  6  1  0
  5  1  2  0
  6  3  2  0
  7 13  1  0
  7 19  1  0
  8 13  1  0
  9 10  1  0
  9  8  1  0
 11 10  1  0
 11 23  1  0
 11 12  1  0
 13 12  1  0
 14  7  2  0
 15 19  1  0
 15 17  1  0
 17  5  1  0
 17 18  1  0
 18 16  1  0
 18 48  1  0
 19 16  1  0
 20 21  2  0
 21 40  1  0
 22 21  1  0
 22 25  1  0
 23 24  1  0
 23 20  1  0
 24 22  2  0
 25 26  1  0
 26 27  2  0
 28 31  1  0
 28 27  1  0
 29 28  2  0
 30 29  1  0
 30 25  2  0
 31 32  1  0
 32 37  2  0
 32 33  1  0
 33 34  2  0
 34 35  1  0
 35 39  1  0
 36 35  2  0
 37 36  1  0
 38 37  1  0
 40 41  1  0
 41 44  1  0
 41 43  1  0
 42 40  2  0
 45 20  1  0
 45 46  1  0
 47 45  1  0
 48 49  1  0
 49 51  1  0
 50 49  1  0
 52 49  1  0
 54 53  1  6
 54  6  1  0
 54 60  1  0
 55 54  1  0
 56 57  1  0
 56 55  1  0
 58 56  1  0
 59 56  1  0
 61 63  1  0
 61 60  1  0
 62 73  2  0
 63 68  1  0
 64 72  1  0
 64 74  1  0
 65 71  1  0
 65 67  1  0
 66 72  1  0
 67 66  1  0
 68 67  2  0
 69 70  1  0
 69 63  2  0
 70 65  2  0
 71 64  1  0
 72 62  1  0
 74 76  2  0
 75 74  1  0
 77 75  1  0
 78 87  2  0
 78 83  1  0
 79 75  1  0
 79 83  1  0
 80 79  1  0
 81 82  1  0
 81 80  1  0
 82 78  1  0
 83 84  2  0
 84 85  1  0
 86 85  2  0
 87 86  1  0
 88 62  1  0
 88 89  1  0
 88 98  1  0
 89 92  1  0
 90 89  1  0
 90 94  1  0
 91 90  2  0
 94 93  1  0
 94 96  1  0
 96 97  1  0
 96 95  1  0
 98101  1  1
 98 99  1  0
100 98  1  0
M  ISO  4   7 100  19 100  60 101  61 101
M  END
>  <TORSDO>  (28) 
F 22

>  <SCORE>  (28) 
-6.292

>  <name>  (28) 
27

>  <ligand_id>  (28) 
27

>  <original_smiles>  (28) 
[H]c1c([H])c([H])c2c(c1[H])C([H])([H])C([H])([H])C([H])([H])C2([H])N([H])C(=O)C1([H])N(C(=O)C([H])(N([H])C(=O)C([H])(N([H])C([H])([H])[H])C([H])([H])[H])C(C([H])([H])[H])(C([H])([H])[H])C([H])([H])[H])C([H])([H])c2c([H])c(OC([H])([H])C(c3c([H])c([H])c(C4([H])C([H])([H])N(C(=O)N5C([H])([H])C([H])([H])C([H])([H])C([H])(n6nc(-c7c([H])c([H])c(Oc8c([H])c([H])c(F)c([H])c8F)c([H])c7[H])c(C(=O)N([H])[H])c6N([H])[H])C5([H])[H])C([H])([H])C4([H])C([H])([H])[N+]([H])([H])[H])c([H])c3[H])(C([H])([H])[H])C([H])([H])[N+]([H])([H])[H])c([H])c([H])c2C1([H])[H]

>  <smiles>  (28) 
[H]c1c([H])c([H])c2c(c1[H])C([H])([H])C([H])([H])C([H])([H])C2([H])N([H])C(=O)C1([H])N(C(=O)C([H])(N([H])C(=O)C([H])(N([H])C([H])([H])[H])C([H])([H])[H])C(C([H])([H])[H])(C([H])([H])[H])C([H])([H])[H])C([H])([H])c2c([H])c(OC([H])([H])C(c3c([H])c([H])c(C4([H])C([H])([H])N(C(=O)N5C([H])([H])C([H])([H])C([H])([H])C([H])(n6nc(-c7c([H])c([H])c(Oc8c([H])c([H])c(F)c([H])c8F)c([H])c7[H])c(C(=O)N([H])[H])c6N([H])[H])C5([H])[H])C([H])([H])C4([H])C([H])([H])[N+]([H])([H])[H])c([H])c3[H])(C([H])([H])[H])C([H])([H])[N+]([H])([H])[H])c([H])c([H])c2C1([H])[H]

$$$$
28:0:0
     RDKit          3D

 96104  0  0  1  0  0  0  0  0999 V2000
  -29.7900  -21.9140   21.0560 C   0  0  0  0  0  0  0  0  0  0  0  0
  -29.5380  -20.6100   21.3480 N   0  0  0  0  0  0  0  0  0  0  0  0
  -30.7520  -22.2620   20.3660 O   0  0  0  0  0  0  0  0  0  0  0  0
  -28.6540  -20.4220   21.8030 H   0  0  0  0  0  0  0  0  0  0  0  0
  -32.6480  -18.4790   21.1250 C   0  0  0  0  0  3  0  0  0  0  0  0
  -31.8070  -19.6040   21.2290 C   0  0  0  0  0  3  0  0  0  0  0  0
  -32.1040  -17.1950   20.9380 C   0  0  0  0  0  3  0  0  0  0  0  0
  -29.8620  -18.1480   21.0000 C   0  0  0  0  0  3  0  0  0  0  0  0
  -30.4020  -19.4630   21.1640 C   0  0  0  0  0  0  0  0  0  0  0  0
  -30.7030  -16.9980   20.8490 C   0  0  0  0  0  0  0  0  0  0  0  0
  -30.7230  -14.6060   20.0360 C   0  0  0  0  0  0  0  0  0  0  0  0
  -30.3210  -12.4220   18.9310 C   0  0  0  0  0  2  0  0  0  0  0  0
  -29.3170  -12.5760   17.7730 C   0  0  0  0  0  2  0  0  0  0  0  0
  -27.8740  -12.4270   18.2870 C   0  0  0  0  0  2  0  0  0  0  0  0
  -27.5920  -13.2880   19.5490 C   0  0  0  0  0  3  0  0  0  0  0  0
  -28.7180  -13.1500   20.6020 C   0  0  0  0  0  2  0  0  0  0  0  0
  -30.0030  -13.4460   19.9480 N   0  0  0  0  0  0  0  0  0  0  0  0
  -31.8050  -14.7220   19.4600 O   0  0  0  0  0  0  0  0  0  0  0  0
  -30.1440  -15.6720   20.6550 N   0  0  0  0  0  0  0  0  0  0  0  0
  -29.1870  -15.5390   20.9440 H   0  0  0  0  0  0  0  0  0  0  0  0
  -25.2490  -13.8680   20.4320 C   0  0  0  0  0  0  0  0  0  0  0  0
  -24.2060  -13.0850   20.8510 C   0  0  0  0  0  0  0  0  0  0  0  0
  -24.6610  -11.7340   20.7570 C   0  0  0  0  0  0  0  0  0  0  0  0
  -26.2750  -12.9920   20.1090 N   0  0  0  0  0  0  0  0  0  0  0  0
  -25.9300  -11.7030   20.3660 N   0  0  0  0  0  0  0  0  0  0  0  0
  -23.9450  -10.4690   20.9630 C   0  0  0  0  0  0  0  0  0  0  0  0
  -24.3790   -9.5200   21.9140 C   0  0  0  0  0  3  0  0  0  0  0  0
  -23.6620   -8.3200   22.1090 C   0  0  0  0  0  3  0  0  0  0  0  0
  -22.4970   -8.0580   21.3510 C   0  0  0  0  0  0  0  0  0  0  0  0
  -22.0810   -8.9940   20.3880 C   0  0  0  0  0  3  0  0  0  0  0  0
  -22.7990  -10.1850   20.1930 C   0  0  0  0  0  3  0  0  0  0  0  0
  -21.7520   -6.9080   21.4530 O   0  0  0  0  0  0  0  0  0  0  0  0
  -21.6450   -6.2220   22.6370 C   0  0  0  0  0  0  0  0  0  0  0  0
  -21.1150   -6.8210   23.8010 C   0  0  0  0  0  3  0  0  0  0  0  0
  -20.9620   -6.0580   24.9770 C   0  0  0  0  0  3  0  0  0  0  0  0
  -21.3260   -4.6970   24.9860 C   0  0  0  0  0  0  0  0  0  0  0  0
  -21.8470   -4.1000   23.8280 C   0  0  0  0  0  3  0  0  0  0  0  0
  -22.0050   -4.8600   22.6550 C   0  0  0  0  0  0  0  0  0  0  0  0
  -22.4900   -4.2740   21.5340 F   0  0  0  0  0  0  0  0  0  0  0  0
  -21.1700   -3.9620   26.1110 F   0  0  0  0  0  0  0  0  0  0  0  0
  -22.8300  -13.5560   21.2230 C   0  0  0  0  0  0  0  0  0  0  0  0
  -22.1490  -12.8360   22.1070 N   0  0  0  0  0  0  0  0  0  0  0  0
  -22.3690  -14.6020   20.7650 O   0  0  0  0  0  0  0  0  0  0  0  0
  -22.5300  -11.9910   22.5050 H   0  0  0  0  0  0  0  0  0  0  0  0
  -21.2280  -13.1370   22.3900 H   0  0  0  0  0  0  0  0  0  0  0  0
  -25.4020  -15.2430   20.2780 N   0  0  0  0  0  0  0  0  0  0  0  0
  -24.6390  -15.8890   20.4480 H   0  0  0  0  0  0  0  0  0  0  0  0
  -26.2270  -15.6930   19.9000 H   0  0  0  0  0  0  0  0  0  0  0  0
  -28.8390  -23.0190   21.6130 C   0  0  0  0  0  2  0  0  0  0  0  0
  -28.3250  -24.1360   20.6120 C   0  0  0  0  0  3  0  0  0  0  0  0
  -27.0010  -23.7590   20.0480 N   0  0  0  0  0  4  0  0  0  0  0  0
  -26.2670  -23.7980   20.7390 H   0  0  0  0  0  0  0  0  0  0  0  0
  -27.0210  -22.8260   19.6710 H   0  0  0  0  0  0  0  0  0  0  0  0
  -26.7400  -24.3650   19.2900 H   0  0  0  0  0  0  0  0  0  0  0  0
  -28.2880  -25.5890   21.2330 C   0  0  0  0  0  2  0  0  0  0  0  0
  -28.2700  -26.6900   20.2820 O   0  0  0  0  0  0  0  0  0  0  0  0
  -24.5300  -31.9910   23.3160 C   0  0  0  0  0  0  0  0  0  0  0  0
  -27.1360  -27.4830   20.2880 C   0  0  0  0  0  0  0  0  0  0  0  0
  -23.3140  -30.5810   21.6900 C   0  0  0  0  0  3  0  0  0  0  0  0
  -24.7580  -29.0270   20.2740 C   0  0  0  0  0  0  0  0  0  0  0  0
  -25.8430  -30.9250   21.4830 C   0  0  0  0  0  2  0  0  0  0  0  0
  -25.9220  -29.5420   20.8590 C   0  0  0  0  0  0  0  0  0  0  0  0
  -27.1170  -28.7780   20.8620 C   0  0  0  0  0  3  0  0  0  0  0  0
  -25.9590  -26.9970   19.6790 C   0  0  0  0  0  3  0  0  0  0  0  0
  -24.7740  -27.7540   19.6790 C   0  0  0  0  0  3  0  0  0  0  0  0
  -23.5150  -29.8930   20.3140 C   0  0  0  0  0  2  0  0  0  0  0  0
  -24.5800  -31.1830   22.2210 N   0  0  0  0  0  0  0  0  0  0  0  0
  -23.4530  -32.2700   23.8620 O   0  0  0  0  0  0  0  0  0  0  0  0
  -22.6610  -29.5670   22.6580 C   0  0  0  0  0  0  0  0  0  0  0  0
  -21.3450  -29.3480   22.5040 N   0  0  0  0  0  0  0  0  0  0  0  0
  -23.3380  -28.9800   23.5070 O   0  0  0  0  0  0  0  0  0  0  0  0
  -20.8560  -29.8740   21.7920 H   0  0  0  0  0  0  0  0  0  0  0  0
  -18.0040  -28.0380   22.9040 C   0  0  0  0  0  0  0  0  0  0  0  0
  -20.5370  -28.4020   23.2750 C   0  0  0  0  0  3  0  0  0  0  0  0
  -20.7180  -26.9580   22.7500 C   0  0  0  0  0  2  0  0  0  0  0  0
  -19.6730  -26.5710   21.6980 C   0  0  0  0  0  2  0  0  0  0  0  0
  -18.2620  -26.6770   22.2840 C   0  0  0  0  0  2  0  0  0  0  0  0
  -19.0740  -28.8530   23.3590 C   0  0  0  0  0  0  0  0  0  0  0  0
  -18.7820  -30.1300   23.8930 C   0  0  0  0  0  3  0  0  0  0  0  0
  -17.4540  -30.5850   23.9810 C   0  0  0  0  0  3  0  0  0  0  0  0
  -16.3970  -29.7660   23.5460 C   0  0  0  0  0  3  0  0  0  0  0  0
  -16.6740  -28.4950   23.0110 C   0  0  0  0  0  3  0  0  0  0  0  0
  -25.8210  -32.6200   23.9270 C   0  0  0  0  0  3  0  0  0  0  0  0
  -25.5260  -34.0250   24.2370 N   0  0  0  0  0  0  0  0  0  0  0  0
  -25.8730  -35.0620   23.4620 C   0  0  0  0  0  0  0  0  0  0  0  0
  -26.5470  -34.9350   22.4380 O   0  0  0  0  0  0  0  0  0  0  0  0
  -24.9270  -34.2000   25.0310 H   0  0  0  0  0  0  0  0  0  0  0  0
  -24.1720  -36.8680   23.0610 C   0  0  0  0  0  1  0  0  0  0  0  0
  -25.3980  -36.4630   23.8960 C   0  0  0  0  0  3  0  0  0  0  0  0
  -27.5260  -37.3360   24.7490 C   0  0  0  0  0  1  0  0  0  0  0  0
  -26.4450  -37.5030   23.7800 N   0  0  0  0  0  0  0  0  0  0  0  0
  -26.0490  -38.4310   23.9040 H   0  0  0  0  0  0  0  0  0  0  0  0
  -26.3340  -31.8620   25.2120 C   0  0  1  0  0  0  0  0  0  0  0  0
  -25.2340  -31.6190   26.2720 C   0  0  0  0  0  1  0  0  0  0  0  0
  -26.9330  -30.4880   24.8340 C   0  0  0  0  0  1  0  0  0  0  0  0
  -27.4780  -32.6660   25.8740 C   0  0  0  0  0  1  0  0  0  0  0  0
  1  2  1  0
  1 49  1  0
  2  4  1  0
  3  1  2  0
  5  6  1  0
  7  5  2  0
  8  9  1  0
  9  6  2  0
  9  2  1  0
 10  7  1  0
 10  8  2  0
 11 19  1  0
 12 17  1  0
 13 14  1  0
 13 12  1  0
 15 14  1  0
 15 24  1  0
 15 16  1  0
 17 11  1  0
 17 16  1  0
 18 11  2  0
 19 10  1  0
 19 20  1  0
 21 22  2  0
 22 41  1  0
 23 22  1  0
 23 26  1  0
 24 25  1  0
 24 21  1  0
 25 23  2  0
 26 27  1  0
 27 28  2  0
 29 32  1  0
 29 28  1  0
 30 29  2  0
 31 30  1  0
 31 26  2  0
 32 33  1  0
 33 38  2  0
 33 34  1  0
 34 35  2  0
 35 36  1  0
 36 40  1  0
 37 36  2  0
 38 37  1  0
 39 38  1  0
 41 42  1  0
 42 45  1  0
 42 44  1  0
 43 41  2  0
 46 21  1  0
 46 47  1  0
 48 46  1  0
 50 55  1  0
 50 49  1  0
 51 50  1  0
 51 52  1  0
 53 51  1  0
 54 51  1  0
 56 58  1  0
 56 55  1  0
 57 68  2  0
 58 63  1  0
 59 67  1  0
 59 69  1  0
 60 66  1  0
 60 62  1  0
 61 67  1  0
 62 63  2  0
 62 61  1  0
 64 58  2  0
 65 64  1  0
 65 60  2  0
 66 59  1  0
 67 57  1  0
 69 71  2  0
 70 69  1  0
 72 70  1  0
 73 82  2  0
 73 78  1  0
 74 70  1  0
 74 78  1  0
 75 74  1  0
 76 77  1  0
 76 75  1  0
 77 73  1  0
 78 79  2  0
 79 80  1  0
 81 80  2  0
 82 81  1  0
 83 57  1  0
 83 84  1  0
 83 93  1  0
 84 87  1  0
 85 89  1  0
 85 84  1  0
 86 85  2  0
 89 88  1  0
 91 89  1  0
 91 92  1  0
 91 90  1  0
 93 96  1  1
 93 94  1  0
 95 93  1  0
M  ISO  4  11 100  19 100  55 101  56 101
M  END
>  <TORSDO>  (29) 
F 21

>  <SCORE>  (29) 
-13.592

>  <name>  (29) 
28

>  <ligand_id>  (29) 
28

>  <original_smiles>  (29) 
[H]c1c([H])c(N([H])C(=O)N2C([H])([H])C([H])([H])C([H])([H])C([H])(n3nc(-c4c([H])c([H])c(Oc5c([H])c([H])c(F)c([H])c5F)c([H])c4[H])c(C(=O)N([H])[H])c3N([H])[H])C2([H])[H])c([H])c(N([H])C(=O)C([H])([H])C([H])(C([H])([H])Oc2c([H])c([H])c3c(c2[H])C([H])([H])N(C(=O)C([H])(N([H])C(=O)C([H])(N([H])C([H])([H])[H])C([H])([H])[H])C(C([H])([H])[H])(C([H])([H])[H])C([H])([H])[H])C([H])(C(=O)N([H])C2([H])c4c([H])c([H])c([H])c([H])c4C([H])([H])C([H])([H])C2([H])[H])C3([H])[H])[N+]([H])([H])[H])c1[H]

>  <smiles>  (29) 
[H]c1c([H])c(N([H])C(=O)N2C([H])([H])C([H])([H])C([H])([H])C([H])(n3nc(-c4c([H])c([H])c(Oc5c([H])c([H])c(F)c([H])c5F)c([H])c4[H])c(C(=O)N([H])[H])c3N([H])[H])C2([H])[H])c([H])c(N([H])C(=O)C([H])([H])C([H])(C([H])([H])Oc2c([H])c([H])c3c(c2[H])C([H])([H])N(C(=O)C([H])(N([H])C(=O)C([H])(N([H])C([H])([H])[H])C([H])([H])[H])C(C([H])([H])[H])(C([H])([H])[H])C([H])([H])[H])C([H])(C(=O)N([H])C2([H])c4c([H])c([H])c([H])c([H])c4C([H])([H])C([H])([H])C2([H])[H])C3([H])[H])[N+]([H])([H])[H])c1[H]

$$$$
29:0:0
     RDKit          3D

 97105  0  0  1  0  0  0  0  0999 V2000
  -30.0160  -18.7690   18.2930 C   0  0  0  0  0  3  0  0  0  0  0  0
  -29.9320  -20.0260   18.9090 C   0  0  0  0  0  3  0  0  0  0  0  0
  -29.8430  -18.8920   21.0610 C   0  0  0  0  0  3  0  0  0  0  0  0
  -30.0260  -17.5600   19.0230 C   0  0  0  0  0  0  0  0  0  0  0  0
  -29.8200  -20.1390   20.3060 C   0  0  0  0  0  0  0  0  0  0  0  0
  -29.9750  -17.5700   20.4580 C   0  0  0  0  0  0  0  0  0  0  0  0
  -30.7600  -15.2160   21.2960 C   0  0  0  0  0  0  0  0  0  0  0  0
  -30.8290  -12.8220   20.6080 C   0  0  0  0  0  2  0  0  0  0  0  0
  -30.1010  -12.6640   19.2540 C   0  0  0  0  0  2  0  0  0  0  0  0
  -28.5830  -12.4890   19.4550 C   0  0  0  0  0  2  0  0  0  0  0  0
  -27.9820  -13.4930   20.4760 C   0  0  0  0  0  3  0  0  0  0  0  0
  -28.8470  -13.6030   21.7520 C   0  0  0  0  0  2  0  0  0  0  0  0
  -30.2090  -13.9560   21.3310 N   0  0  0  0  0  0  0  0  0  0  0  0
  -31.9780  -15.3550   21.1530 O   0  0  0  0  0  0  0  0  0  0  0  0
  -29.9060  -16.3090   21.2520 N   0  0  0  0  0  0  0  0  0  0  0  0
  -28.9930  -16.1120   21.6360 H   0  0  0  0  0  0  0  0  0  0  0  0
  -25.5020  -14.0300   20.8650 C   0  0  0  0  0  0  0  0  0  0  0  0
  -24.4150  -13.2310   21.0980 C   0  0  0  0  0  0  0  0  0  0  0  0
  -24.9120  -11.8920   21.1510 C   0  0  0  0  0  0  0  0  0  0  0  0
  -26.5910  -13.1760   20.7860 N   0  0  0  0  0  0  0  0  0  0  0  0
  -26.2330  -11.8870   21.0240 N   0  0  0  0  0  0  0  0  0  0  0  0
  -24.1990  -10.6120   21.2580 C   0  0  0  0  0  0  0  0  0  0  0  0
  -24.5320   -9.6600   22.2470 C   0  0  0  0  0  3  0  0  0  0  0  0
  -23.8190   -8.4460   22.3420 C   0  0  0  0  0  3  0  0  0  0  0  0
  -22.7570   -8.1750   21.4470 C   0  0  0  0  0  0  0  0  0  0  0  0
  -22.4430   -9.1170   20.4510 C   0  0  0  0  0  3  0  0  0  0  0  0
  -23.1580  -10.3210   20.3530 C   0  0  0  0  0  3  0  0  0  0  0  0
  -22.0260   -7.0120   21.4480 O   0  0  0  0  0  0  0  0  0  0  0  0
  -21.8480   -6.2750   22.5910 C   0  0  0  0  0  0  0  0  0  0  0  0
  -21.2470   -6.8220   23.7450 C   0  0  0  0  0  3  0  0  0  0  0  0
  -21.0190   -6.0090   24.8730 C   0  0  0  0  0  3  0  0  0  0  0  0
  -21.3840   -4.6500   24.8480 C   0  0  0  0  0  0  0  0  0  0  0  0
  -21.9800   -4.1030   23.6990 C   0  0  0  0  0  3  0  0  0  0  0  0
  -22.2080   -4.9130   22.5730 C   0  0  0  0  0  0  0  0  0  0  0  0
  -22.7630   -4.3740   21.4590 F   0  0  0  0  0  0  0  0  0  0  0  0
  -21.1580   -3.8660   25.9280 F   0  0  0  0  0  0  0  0  0  0  0  0
  -22.9820  -13.6730   21.1690 C   0  0  0  0  0  0  0  0  0  0  0  0
  -22.1610  -12.9710   21.9410 N   0  0  0  0  0  0  0  0  0  0  0  0
  -22.5940  -14.6780   20.5740 O   0  0  0  0  0  0  0  0  0  0  0  0
  -22.4870  -12.1590   22.4450 H   0  0  0  0  0  0  0  0  0  0  0  0
  -21.1960  -13.2510   22.0310 H   0  0  0  0  0  0  0  0  0  0  0  0
  -25.6530  -15.4020   20.6890 N   0  0  0  0  0  0  0  0  0  0  0  0
  -24.8590  -16.0310   20.6750 H   0  0  0  0  0  0  0  0  0  0  0  0
  -26.5260  -15.8620   20.4670 H   0  0  0  0  0  0  0  0  0  0  0  0
  -30.0210  -16.3150   18.1870 C   0  0  0  0  0  0  0  0  0  0  0  0
  -28.8180  -15.8920   17.8250 N   0  0  0  0  0  0  0  0  0  0  0  0
  -31.0570  -15.7750   17.8090 O   0  0  0  0  0  0  0  0  0  0  0  0
  -27.9980  -16.4020   18.1210 H   0  0  0  0  0  0  0  0  0  0  0  0
  -28.7160  -15.0930   17.2170 H   0  0  0  0  0  0  0  0  0  0  0  0
  -29.7850  -21.6090   20.9120 C   0  0  0  0  0  2  0  0  0  0  0  0
  -29.0670  -22.7320   20.1470 N   0  0  0  0  0  4  0  0  0  0  0  0
  -28.0790  -22.5560   20.2540 H   0  0  0  0  0  0  0  0  0  0  0  0
  -29.2700  -22.5920   19.1710 H   0  0  0  0  0  0  0  0  0  0  0  0
  -29.4560  -24.4640   21.9740 C   0  0  0  0  0  1  0  0  0  0  0  0
  -29.3510  -24.2210   20.4560 C   0  0  0  0  0  3  0  0  0  0  0  0
  -28.3290  -25.2970   19.8120 C   0  0  0  0  0  2  0  0  0  0  0  0
  -28.5200  -26.7790   19.9700 O   0  0  0  0  0  0  0  0  0  0  0  0
  -24.6400  -31.9450   23.2480 C   0  0  0  0  0  0  0  0  0  0  0  0
  -27.3890  -27.6280   19.9390 C   0  0  0  0  0  0  0  0  0  0  0  0
  -23.4810  -30.6020   21.5320 C   0  0  0  0  0  3  0  0  0  0  0  0
  -24.9780  -29.1870   20.0150 C   0  0  0  0  0  0  0  0  0  0  0  0
  -26.0100  -31.0060   21.3680 C   0  0  0  0  0  2  0  0  0  0  0  0
  -26.1340  -29.6690   20.6410 C   0  0  0  0  0  0  0  0  0  0  0  0
  -27.3400  -28.9030   20.5950 C   0  0  0  0  0  3  0  0  0  0  0  0
  -26.2100  -27.2190   19.2730 C   0  0  0  0  0  3  0  0  0  0  0  0
  -25.0210  -27.9710   19.3180 C   0  0  0  0  0  3  0  0  0  0  0  0
  -23.7130  -30.0160   20.1150 C   0  0  0  0  0  2  0  0  0  0  0  0
  -24.7280  -31.2000   22.1060 N   0  0  0  0  0  0  0  0  0  0  0  0
  -23.5490  -32.1550   23.7960 O   0  0  0  0  0  0  0  0  0  0  0  0
  -22.8540  -29.5100   22.4330 C   0  0  0  0  0  0  0  0  0  0  0  0
  -21.5380  -29.2800   22.2810 N   0  0  0  0  0  0  0  0  0  0  0  0
  -23.5510  -28.8750   23.2290 O   0  0  0  0  0  0  0  0  0  0  0  0
  -21.0330  -29.8460   21.6130 H   0  0  0  0  0  0  0  0  0  0  0  0
  -18.2200  -27.8830   22.6500 C   0  0  0  0  0  0  0  0  0  0  0  0
  -20.7540  -28.2720   22.9950 C   0  0  0  0  0  3  0  0  0  0  0  0
  -20.9480  -26.8700   22.3700 C   0  0  0  0  0  2  0  0  0  0  0  0
  -19.8900  -26.5260   21.3170 C   0  0  0  0  0  2  0  0  0  0  0  0
  -18.4870  -26.5720   21.9300 C   0  0  0  0  0  2  0  0  0  0  0  0
  -19.2840  -28.6880   23.1360 C   0  0  0  0  0  0  0  0  0  0  0  0
  -18.9820  -29.9140   23.7680 C   0  0  0  0  0  3  0  0  0  0  0  0
  -17.6470  -30.3360   23.9180 C   0  0  0  0  0  3  0  0  0  0  0  0
  -16.5970  -29.5280   23.4480 C   0  0  0  0  0  3  0  0  0  0  0  0
  -16.8850  -28.3030   22.8190 C   0  0  0  0  0  3  0  0  0  0  0  0
  -25.9020  -32.5840   23.9040 C   0  0  0  0  0  3  0  0  0  0  0  0
  -25.5460  -33.9510   24.3110 N   0  0  0  0  0  0  0  0  0  0  0  0
  -25.8730  -35.0580   23.6310 C   0  0  0  0  0  0  0  0  0  0  0  0
  -26.5760  -35.0360   22.6170 O   0  0  0  0  0  0  0  0  0  0  0  0
  -24.9240  -34.0400   25.1010 H   0  0  0  0  0  0  0  0  0  0  0  0
  -24.1240  -36.8380   23.3270 C   0  0  0  0  0  1  0  0  0  0  0  0
  -25.3390  -36.4030   24.1610 C   0  0  0  0  0  3  0  0  0  0  0  0
  -27.4200  -37.2670   25.1370 C   0  0  0  0  0  1  0  0  0  0  0  0
  -26.3530  -37.4800   24.1630 N   0  0  0  0  0  0  0  0  0  0  0  0
  -25.9220  -38.3800   24.3560 H   0  0  0  0  0  0  0  0  0  0  0  0
  -26.4430  -31.7620   25.1370 C   0  0  1  0  0  0  0  0  0  0  0  0
  -25.3580  -31.4360   26.1910 C   0  0  0  0  0  1  0  0  0  0  0  0
  -27.0660  -30.4250   24.6740 C   0  0  0  0  0  1  0  0  0  0  0  0
  -27.5710  -32.5550   25.8390 C   0  0  0  0  0  1  0  0  0  0  0  0
  1  2  2  0
  1  4  1  0
  2  5  1  0
  4  6  2  0
  5 50  1  0
  5  3  2  0
  6  3  1  0
  6 15  1  0
  7 13  1  0
  8 13  1  0
  9 10  1  0
  9  8  1  0
 11 10  1  0
 11 20  1  0
 11 12  1  0
 13 12  1  0
 14  7  2  0
 15  7  1  0
 15 16  1  0
 17 18  2  0
 18 19  1  0
 18 37  1  0
 19 22  1  0
 20 17  1  0
 20 21  1  0
 21 19  2  0
 22 23  1  0
 23 24  2  0
 25 28  1  0
 25 24  1  0
 26 25  2  0
 27 26  1  0
 27 22  2  0
 28 29  1  0
 29 30  1  0
 30 31  2  0
 32 31  1  0
 32 36  1  0
 33 32  2  0
 34 29  2  0
 34 33  1  0
 35 34  1  0
 37 38  1  0
 38 41  1  0
 38 40  1  0
 39 37  2  0
 42 17  1  0
 43 42  1  0
 44 42  1  0
 45  4  1  0
 46 48  1  0
 46 45  1  0
 47 45  2  0
 49 46  1  0
 51 52  1  0
 51 55  1  0
 51 50  1  0
 53 51  1  0
 55 54  1  0
 56 57  1  0
 56 55  1  0
 58 69  2  0
 59 57  1  0
 59 64  1  0
 60 68  1  0
 60 70  1  0
 61 67  1  0
 61 63  1  0
 62 68  1  0
 63 62  1  0
 64 63  2  0
 65 66  1  0
 65 59  2  0
 66 61  2  0
 67 60  1  0
 68 58  1  0
 70 72  2  0
 71 70  1  0
 73 71  1  0
 74 83  2  0
 74 79  1  0
 75 71  1  0
 75 79  1  0
 76 75  1  0
 77 78  1  0
 77 76  1  0
 78 74  1  0
 79 80  2  0
 80 81  1  0
 82 81  2  0
 83 82  1  0
 84 58  1  0
 84 85  1  0
 84 94  1  0
 85 88  1  0
 86 90  1  0
 86 85  1  0
 87 86  2  0
 90 89  1  0
 90 92  1  0
 92 93  1  0
 92 91  1  0
 94 97  1  1
 94 95  1  0
 96 94  1  0
M  ISO  4   7 100  15 100  56 101  57 101
M  END
>  <TORSDO>  (30) 
F 21

>  <SCORE>  (30) 
-10.513

>  <name>  (30) 
29

>  <ligand_id>  (30) 
29

>  <original_smiles>  (30) 
[H]c1c([H])c([H])c2c(c1[H])C([H])([H])C([H])([H])C([H])([H])C2([H])N([H])C(=O)C1([H])N(C(=O)C([H])(N([H])C(=O)C([H])(N([H])C([H])([H])[H])C([H])([H])[H])C(C([H])([H])[H])(C([H])([H])[H])C([H])([H])[H])C([H])([H])c2c([H])c(OC([H])([H])C([H])(C([H])([H])[H])[N+]([H])([H])C([H])([H])c3c([H])c([H])c(C(=O)N([H])[H])c(N([H])C(=O)N4C([H])([H])C([H])([H])C([H])([H])C([H])(n5nc(-c6c([H])c([H])c(Oc7c([H])c([H])c(F)c([H])c7F)c([H])c6[H])c(C(=O)N([H])[H])c5N([H])[H])C4([H])[H])c3[H])c([H])c([H])c2C1([H])[H]

>  <smiles>  (30) 
[H]c1c([H])c([H])c2c(c1[H])C([H])([H])C([H])([H])C([H])([H])C2([H])N([H])C(=O)C1([H])N(C(=O)C([H])(N([H])C(=O)C([H])(N([H])C([H])([H])[H])C([H])([H])[H])C(C([H])([H])[H])(C([H])([H])[H])C([H])([H])[H])C([H])([H])c2c([H])c(OC([H])([H])C([H])(C([H])([H])[H])[N+]([H])([H])C([H])([H])c3c([H])c([H])c(C(=O)N([H])[H])c(N([H])C(=O)N4C([H])([H])C([H])([H])C([H])([H])C([H])(n5nc(-c6c([H])c([H])c(Oc7c([H])c([H])c(F)c([H])c7F)c([H])c6[H])c(C(=O)N([H])[H])c5N([H])[H])C4([H])[H])c3[H])c([H])c([H])c2C1([H])[H]

$$$$
30:0:0
     RDKit          3D

103112  0  0  1  0  0  0  0  0999 V2000
  -29.7860  -21.6870   20.9550 C   0  0  0  0  0  2  0  0  0  0  0  0
  -30.9750  -18.9550   23.4990 C   0  0  0  0  0  3  0  0  0  0  0  0
  -30.9920  -17.8400   22.6360 C   0  0  0  0  0  3  0  0  0  0  0  0
  -30.2110  -19.2640   20.8390 C   0  0  0  0  0  3  0  0  0  0  0  0
  -30.6240  -20.2460   23.0280 C   0  0  0  0  0  0  0  0  0  0  0  0
  -30.6450  -18.0000   21.2800 C   0  0  0  0  0  0  0  0  0  0  0  0
  -30.1940  -20.3950   21.6760 C   0  0  0  0  0  0  0  0  0  0  0  0
  -30.7570  -14.4350   20.2100 C   0  0  0  0  0  0  0  0  0  0  0  0
  -30.3070  -12.2820   19.1430 C   0  0  0  0  0  2  0  0  0  0  0  0
  -29.3430  -12.4810   17.9580 C   0  0  0  0  0  2  0  0  0  0  0  0
  -27.8870  -12.3570   18.4420 C   0  0  0  0  0  2  0  0  0  0  0  0
  -27.5820  -13.2090   19.7020 C   0  0  0  0  0  3  0  0  0  0  0  0
  -28.6880  -13.0720   20.7770 C   0  0  0  0  0  2  0  0  0  0  0  0
  -29.9880  -13.3160   20.1390 N   0  0  0  0  0  0  0  0  0  0  0  0
  -31.9450  -14.4220   19.8890 O   0  0  0  0  0  0  0  0  0  0  0  0
  -30.4500  -16.9940   18.8110 C   0  0  0  0  0  2  0  0  0  0  0  0
  -29.2740  -16.1520   19.2640 C   0  0  0  0  0  2  0  0  0  0  0  0
  -30.9240  -16.8980   20.2590 C   0  0  0  0  0  3  0  0  0  0  0  0
  -30.1350  -15.6330   20.3480 N   0  0  0  0  0  0  0  0  0  0  0  0
  -25.2190  -13.8110   20.5030 C   0  0  0  0  0  0  0  0  0  0  0  0
  -24.1630  -13.0320   20.8920 C   0  0  0  0  0  0  0  0  0  0  0  0
  -24.6260  -11.6810   20.8320 C   0  0  0  0  0  0  0  0  0  0  0  0
  -26.2550  -12.9300   20.2340 N   0  0  0  0  0  0  0  0  0  0  0  0
  -25.9070  -11.6450   20.4930 N   0  0  0  0  0  0  0  0  0  0  0  0
  -23.9080  -10.4160   21.0230 C   0  0  0  0  0  0  0  0  0  0  0  0
  -24.3620   -9.4450   21.9420 C   0  0  0  0  0  3  0  0  0  0  0  0
  -23.6460   -8.2430   22.1230 C   0  0  0  0  0  3  0  0  0  0  0  0
  -22.4630   -8.0030   21.3840 C   0  0  0  0  0  0  0  0  0  0  0  0
  -22.0300   -8.9630   20.4520 C   0  0  0  0  0  3  0  0  0  0  0  0
  -22.7460  -10.1580   20.2690 C   0  0  0  0  0  3  0  0  0  0  0  0
  -21.7160   -6.8550   21.4770 O   0  0  0  0  0  0  0  0  0  0  0  0
  -21.6780   -6.1130   22.6310 C   0  0  0  0  0  0  0  0  0  0  0  0
  -21.2450   -6.6640   23.8570 C   0  0  0  0  0  3  0  0  0  0  0  0
  -21.1540   -5.8490   25.0020 C   0  0  0  0  0  3  0  0  0  0  0  0
  -21.4840   -4.4840   24.9230 C   0  0  0  0  0  0  0  0  0  0  0  0
  -21.9110   -3.9320   23.7020 C   0  0  0  0  0  3  0  0  0  0  0  0
  -22.0050   -4.7440   22.5590 C   0  0  0  0  0  0  0  0  0  0  0  0
  -22.3950   -4.2030   21.3800 F   0  0  0  0  0  0  0  0  0  0  0  0
  -21.3900   -3.6980   26.0220 F   0  0  0  0  0  0  0  0  0  0  0  0
  -22.7740  -13.5030   21.2130 C   0  0  0  0  0  0  0  0  0  0  0  0
  -22.0710  -12.7890   22.0840 N   0  0  0  0  0  0  0  0  0  0  0  0
  -22.3230  -14.5380   20.7240 O   0  0  0  0  0  0  0  0  0  0  0  0
  -22.4500  -11.9510   22.5030 H   0  0  0  0  0  0  0  0  0  0  0  0
  -21.1390  -13.0850   22.3410 H   0  0  0  0  0  0  0  0  0  0  0  0
  -25.3830  -15.1840   20.3330 N   0  0  0  0  0  0  0  0  0  0  0  0
  -24.6370  -15.8530   20.4870 H   0  0  0  0  0  0  0  0  0  0  0  0
  -26.2450  -15.6190   20.0300 H   0  0  0  0  0  0  0  0  0  0  0  0
  -30.7940  -21.3990   23.9710 C   0  0  0  0  0  0  0  0  0  0  0  0
  -31.8080  -22.2080   23.7050 N   0  0  0  0  0  0  0  0  0  0  0  0
  -30.0540  -21.5590   24.9400 O   0  0  0  0  0  0  0  0  0  0  0  0
  -32.4040  -22.0120   22.9140 H   0  0  0  0  0  0  0  0  0  0  0  0
  -32.0120  -22.9900   24.3080 H   0  0  0  0  0  0  0  0  0  0  0  0
  -29.6650  -24.0960   21.4860 C   0  0  0  0  0  0  0  0  0  0  0  0
  -29.2870  -22.8270   21.7210 N   0  0  0  0  0  0  0  0  0  0  0  0
  -30.5530  -24.3640   20.6740 O   0  0  0  0  0  0  0  0  0  0  0  0
  -28.5940  -22.6230   22.4230 H   0  0  0  0  0  0  0  0  0  0  0  0
  -28.9450  -25.2340   22.2320 C   0  0  0  0  0  3  0  0  0  0  0  0
  -27.5190  -24.9310   22.5100 N   0  0  0  0  0  4  0  0  0  0  0  0
  -27.0650  -24.6240   21.6670 H   0  0  0  0  0  0  0  0  0  0  0  0
  -27.0410  -25.7500   22.8430 H   0  0  0  0  0  0  0  0  0  0  0  0
  -27.4200  -24.2180   23.2100 H   0  0  0  0  0  0  0  0  0  0  0  0
  -29.1100  -26.6090   21.5380 C   0  0  0  0  0  2  0  0  0  0  0  0
  -28.4120  -26.6650   20.2790 O   0  0  0  0  0  0  0  0  0  0  0  0
  -24.5740  -31.8710   23.2080 C   0  0  0  0  0  0  0  0  0  0  0  0
  -27.2690  -27.4300   20.2410 C   0  0  0  0  0  0  0  0  0  0  0  0
  -23.3770  -30.4350   21.5840 C   0  0  0  0  0  3  0  0  0  0  0  0
  -24.8490  -28.8830   20.1920 C   0  0  0  0  0  0  0  0  0  0  0  0
  -25.8910  -30.8260   21.3750 C   0  0  0  0  0  2  0  0  0  0  0  0
  -25.9930  -29.4440   20.7720 C   0  0  0  0  0  0  0  0  0  0  0  0
  -27.2050  -28.7320   20.7880 C   0  0  0  0  0  3  0  0  0  0  0  0
  -26.1190  -26.8860   19.6310 C   0  0  0  0  0  3  0  0  0  0  0  0
  -24.9060  -27.6020   19.6130 C   0  0  0  0  0  3  0  0  0  0  0  0
  -23.5930  -29.7250   20.2200 C   0  0  0  0  0  2  0  0  0  0  0  0
  -24.6320  -31.0590   22.1160 N   0  0  0  0  0  0  0  0  0  0  0  0
  -23.4920  -32.1460   23.7450 O   0  0  0  0  0  0  0  0  0  0  0  0
  -22.7310  -29.4280   22.5620 C   0  0  0  0  0  0  0  0  0  0  0  0
  -21.4070  -29.2440   22.4370 N   0  0  0  0  0  0  0  0  0  0  0  0
  -23.4180  -28.8120   23.3810 O   0  0  0  0  0  0  0  0  0  0  0  0
  -20.9180  -29.7940   21.7440 H   0  0  0  0  0  0  0  0  0  0  0  0
  -18.0320  -28.0660   22.9500 C   0  0  0  0  0  0  0  0  0  0  0  0
  -20.5900  -28.3170   23.2160 C   0  0  0  0  0  3  0  0  0  0  0  0
  -20.6870  -26.8800   22.6530 C   0  0  0  0  0  2  0  0  0  0  0  0
  -19.5830  -26.5500   21.6420 C   0  0  0  0  0  2  0  0  0  0  0  0
  -18.2020  -26.7080   22.2870 C   0  0  0  0  0  2  0  0  0  0  0  0
  -19.1540  -28.8270   23.3700 C   0  0  0  0  0  0  0  0  0  0  0  0
  -18.9420  -30.1000   23.9460 C   0  0  0  0  0  3  0  0  0  0  0  0
  -17.6410  -30.6110   24.1030 C   0  0  0  0  0  3  0  0  0  0  0  0
  -16.5330  -29.8460   23.7020 C   0  0  0  0  0  3  0  0  0  0  0  0
  -16.7280  -28.5750   23.1320 C   0  0  0  0  0  3  0  0  0  0  0  0
  -25.8590  -32.5140   23.8230 C   0  0  0  0  0  3  0  0  0  0  0  0
  -25.5410  -33.9080   24.1540 N   0  0  0  0  0  0  0  0  0  0  0  0
  -25.8640  -34.9600   23.3910 C   0  0  0  0  0  0  0  0  0  0  0  0
  -26.5340  -34.8610   22.3590 O   0  0  0  0  0  0  0  0  0  0  0  0
  -24.9470  -34.0590   24.9570 H   0  0  0  0  0  0  0  0  0  0  0  0
  -24.1220  -36.7360   23.0280 C   0  0  0  0  0  1  0  0  0  0  0  0
  -25.3640  -36.3430   23.8450 C   0  0  0  0  0  3  0  0  0  0  0  0
  -27.4900  -37.2430   24.6810 C   0  0  0  0  0  1  0  0  0  0  0  0
  -26.3890  -37.4040   23.7360 N   0  0  0  0  0  0  0  0  0  0  0  0
  -25.9750  -38.3200   23.8830 H   0  0  0  0  0  0  0  0  0  0  0  0
  -26.3920  -31.7450   25.0930 C   0  0  1  0  0  0  0  0  0  0  0  0
  -25.3070  -31.4900   26.1660 C   0  0  0  0  0  1  0  0  0  0  0  0
  -26.9900  -30.3780   24.6860 C   0  0  0  0  0  1  0  0  0  0  0  0
  -27.5370  -32.5510   25.7510 C   0  0  0  0  0  1  0  0  0  0  0  0
  1  7  1  0
  1 54  1  0
  3  2  2  0
  4  6  2  0
  4  7  1  0
  5  2  1  0
  5 48  1  0
  6  3  1  0
  7  5  2  0
  8 19  1  0
  9 14  1  0
 10 11  1  0
 10  9  1  0
 12 11  1  0
 12 23  1  0
 12 13  1  0
 14  8  1  0
 14 13  1  0
 15  8  2  0
 16 17  1  0
 16 18  1  0
 17 19  1  0
 18 19  1  0
 18  6  1  0
 20 21  2  0
 21 40  1  0
 22 21  1  0
 22 25  1  0
 23 24  1  0
 23 20  1  0
 24 22  2  0
 25 26  1  0
 26 27  2  0
 28 31  1  0
 28 27  1  0
 29 28  2  0
 30 29  1  0
 30 25  2  0
 31 32  1  0
 32 33  1  0
 33 34  2  0
 35 34  1  0
 35 39  1  0
 36 35  2  0
 37 32  2  0
 37 36  1  0
 38 37  1  0
 40 41  1  0
 41 44  1  0
 41 43  1  0
 42 40  2  0
 45 46  1  0
 45 20  1  0
 47 45  1  0
 48 50  2  0
 49 48  1  0
 49 52  1  0
 51 49  1  0
 53 54  1  0
 53 57  1  0
 54 56  1  0
 55 53  2  0
 57 62  1  0
 57 58  1  0
 58 60  1  0
 58 61  1  0
 59 58  1  0
 63 62  1  0
 64 75  2  0
 65 63  1  0
 65 70  1  0
 66 74  1  0
 66 76  1  0
 67 73  1  0
 67 69  1  0
 68 74  1  0
 69 70  2  0
 69 68  1  0
 71 65  2  0
 72 71  1  0
 72 67  2  0
 73 66  1  0
 74 64  1  0
 76 78  2  0
 77 76  1  0
 79 77  1  0
 80 89  2  0
 80 85  1  0
 81 77  1  0
 81 85  1  0
 82 81  1  0
 83 84  1  0
 83 82  1  0
 84 80  1  0
 85 86  2  0
 86 87  1  0
 88 87  2  0
 89 88  1  0
 90 64  1  0
 90 91  1  0
 90100  1  0
 91 94  1  0
 92 96  1  0
 92 91  1  0
 93 92  2  0
 96 95  1  0
 98 96  1  0
 98 99  1  0
 98 97  1  0
100103  1  1
100101  1  0
102100  1  0
M  ISO  4   8 100  19 100  62 101  63 101
M  END
>  <TORSDO>  (31) 
F 22

>  <SCORE>  (31) 
-13.308

>  <name>  (31) 
30

>  <ligand_id>  (31) 
30

>  <original_smiles>  (31) 
[H]c1c([H])c([H])c2c(c1[H])C([H])([H])C([H])([H])C([H])([H])C2([H])N([H])C(=O)C1([H])N(C(=O)C([H])(N([H])C(=O)C([H])(N([H])C([H])([H])[H])C([H])([H])[H])C(C([H])([H])[H])(C([H])([H])[H])C([H])([H])[H])C([H])([H])c2c([H])c(OC([H])([H])C([H])(C(=O)N([H])C([H])([H])c3c([H])c(C4([H])N(C(=O)N5C([H])([H])C([H])([H])C([H])([H])C([H])(n6nc(-c7c([H])c([H])c(Oc8c([H])c([H])c(F)c([H])c8F)c([H])c7[H])c(C(=O)N([H])[H])c6N([H])[H])C5([H])[H])C([H])([H])C4([H])[H])c([H])c([H])c3C(=O)N([H])[H])[N+]([H])([H])[H])c([H])c([H])c2C1([H])[H]

>  <smiles>  (31) 
[H]c1c([H])c([H])c2c(c1[H])C([H])([H])C([H])([H])C([H])([H])C2([H])N([H])C(=O)C1([H])N(C(=O)C([H])(N([H])C(=O)C([H])(N([H])C([H])([H])[H])C([H])([H])[H])C(C([H])([H])[H])(C([H])([H])[H])C([H])([H])[H])C([H])([H])c2c([H])c(OC([H])([H])C([H])(C(=O)N([H])C([H])([H])c3c([H])c(C4([H])N(C(=O)N5C([H])([H])C([H])([H])C([H])([H])C([H])(n6nc(-c7c([H])c([H])c(Oc8c([H])c([H])c(F)c([H])c8F)c([H])c7[H])c(C(=O)N([H])[H])c6N([H])[H])C5([H])[H])C([H])([H])C4([H])[H])c([H])c([H])c3C(=O)N([H])[H])[N+]([H])([H])[H])c([H])c([H])c2C1([H])[H]

$$$$
31:0:0
     RDKit          3D

 93101  0  0  1  0  0  0  0  0999 V2000
  -28.1410  -23.1510   20.0200 C   0  0  0  0  0  3  0  0  0  0  0  0
  -31.1630  -20.8250   18.9650 C   0  0  0  0  0  3  0  0  0  0  0  0
  -30.8910  -19.5080   19.4020 C   0  0  0  0  0  3  0  0  0  0  0  0
  -30.3380  -21.9320   19.2750 C   0  0  0  0  0  3  0  0  0  0  0  0
  -28.9160  -20.4010   20.4960 C   0  0  0  0  0  3  0  0  0  0  0  0
  -29.7810  -19.2050   20.2150 C   0  0  0  0  0  0  0  0  0  0  0  0
  -29.1460  -21.8070   20.0220 C   0  0  0  0  0  0  0  0  0  0  0  0
  -29.7770  -17.6870   20.9000 C   0  0  0  0  0  2  0  0  0  0  0  0
  -30.5270  -15.0420   20.2430 C   0  0  0  0  0  0  0  0  0  0  0  0
  -30.4340  -12.6920   19.2550 C   0  0  0  0  0  2  0  0  0  0  0  0
  -29.4780  -12.6210   18.0410 C   0  0  0  0  0  2  0  0  0  0  0  0
  -28.0220  -12.3970   18.4990 C   0  0  0  0  0  2  0  0  0  0  0  0
  -27.6230  -13.3180   19.6800 C   0  0  0  0  0  3  0  0  0  0  0  0
  -28.6960  -13.3350   20.7860 C   0  0  0  0  0  2  0  0  0  0  0  0
  -29.9430  -13.7770   20.1490 N   0  0  0  0  0  0  0  0  0  0  0  0
  -31.7490  -15.1080   20.0740 O   0  0  0  0  0  0  0  0  0  0  0  0
  -29.7060  -16.2120   20.2990 N   0  0  0  0  0  0  0  0  0  0  0  0
  -28.7450  -15.9470   20.1560 H   0  0  0  0  0  0  0  0  0  0  0  0
  -25.2490  -13.8870   20.4450 C   0  0  0  0  0  0  0  0  0  0  0  0
  -24.1920  -13.1070   20.8260 C   0  0  0  0  0  0  0  0  0  0  0  0
  -24.6650  -11.7590   20.7960 C   0  0  0  0  0  0  0  0  0  0  0  0
  -26.2950  -13.0140   20.1980 N   0  0  0  0  0  0  0  0  0  0  0  0
  -25.9530  -11.7280   20.4760 N   0  0  0  0  0  0  0  0  0  0  0  0
  -23.9460  -10.4930   20.9930 C   0  0  0  0  0  0  0  0  0  0  0  0
  -24.3820   -9.5350   21.9330 C   0  0  0  0  0  3  0  0  0  0  0  0
  -23.6620   -8.3340   22.1180 C   0  0  0  0  0  3  0  0  0  0  0  0
  -22.4910   -8.0870   21.3640 C   0  0  0  0  0  0  0  0  0  0  0  0
  -22.0730   -9.0340   20.4130 C   0  0  0  0  0  3  0  0  0  0  0  0
  -22.7940  -10.2260   20.2260 C   0  0  0  0  0  3  0  0  0  0  0  0
  -21.7420   -6.9390   21.4580 O   0  0  0  0  0  0  0  0  0  0  0  0
  -21.6910   -6.2060   22.6170 C   0  0  0  0  0  0  0  0  0  0  0  0
  -21.2460   -6.7660   23.8340 C   0  0  0  0  0  3  0  0  0  0  0  0
  -21.1440   -5.9590   24.9840 C   0  0  0  0  0  3  0  0  0  0  0  0
  -21.4770   -4.5930   24.9200 C   0  0  0  0  0  0  0  0  0  0  0  0
  -21.9150   -4.0320   23.7060 C   0  0  0  0  0  3  0  0  0  0  0  0
  -22.0190   -4.8360   22.5580 C   0  0  0  0  0  0  0  0  0  0  0  0
  -22.4210   -4.2860   21.3870 F   0  0  0  0  0  0  0  0  0  0  0  0
  -21.3720   -3.8150   26.0220 F   0  0  0  0  0  0  0  0  0  0  0  0
  -22.7940  -13.5780   21.1010 C   0  0  0  0  0  0  0  0  0  0  0  0
  -22.0720  -12.8790   21.9710 N   0  0  0  0  0  0  0  0  0  0  0  0
  -22.3510  -14.6010   20.5810 O   0  0  0  0  0  0  0  0  0  0  0  0
  -22.4450  -12.0530   22.4120 H   0  0  0  0  0  0  0  0  0  0  0  0
  -21.1350  -13.1770   22.1980 H   0  0  0  0  0  0  0  0  0  0  0  0
  -25.4000  -15.2590   20.2620 N   0  0  0  0  0  0  0  0  0  0  0  0
  -24.6240  -15.9000   20.3750 H   0  0  0  0  0  0  0  0  0  0  0  0
  -26.2250  -15.7030   19.8820 H   0  0  0  0  0  0  0  0  0  0  0  0
  -27.6110  -23.3240   18.5780 C   0  0  0  0  0  2  0  0  0  0  0  0
  -26.9810  -22.1010   18.0460 N   0  0  0  0  0  4  0  0  0  0  0  0
  -27.6400  -21.3420   18.0520 H   0  0  0  0  0  0  0  0  0  0  0  0
  -26.6790  -22.2520   17.0990 H   0  0  0  0  0  0  0  0  0  0  0  0
  -26.1800  -21.8400   18.5940 H   0  0  0  0  0  0  0  0  0  0  0  0
  -28.4320  -24.7130   20.6630 C   0  0  0  0  0  2  0  0  0  0  0  0
  -28.3100  -26.1960   20.1330 O   0  0  0  0  0  0  0  0  0  0  0  0
  -24.6160  -31.8720   23.2230 C   0  0  0  0  0  0  0  0  0  0  0  0
  -27.2040  -27.1270   20.2220 C   0  0  0  0  0  0  0  0  0  0  0  0
  -23.4220  -30.4690   21.5890 C   0  0  0  0  0  3  0  0  0  0  0  0
  -24.8720  -28.8810   20.1830 C   0  0  0  0  0  0  0  0  0  0  0  0
  -25.9760  -30.7340   21.4220 C   0  0  0  0  0  2  0  0  0  0  0  0
  -26.0540  -29.3320   20.7840 C   0  0  0  0  0  0  0  0  0  0  0  0
  -27.2230  -28.4770   20.7750 C   0  0  0  0  0  3  0  0  0  0  0  0
  -25.9880  -26.7740   19.6050 C   0  0  0  0  0  3  0  0  0  0  0  0
  -24.8530  -27.6140   19.5800 C   0  0  0  0  0  3  0  0  0  0  0  0
  -23.6470  -29.7830   20.2150 C   0  0  0  0  0  2  0  0  0  0  0  0
  -24.6930  -31.0480   22.1330 N   0  0  0  0  0  0  0  0  0  0  0  0
  -23.5290  -32.1560   23.7490 O   0  0  0  0  0  0  0  0  0  0  0  0
  -22.7430  -29.4650   22.5540 C   0  0  0  0  0  0  0  0  0  0  0  0
  -21.4150  -29.2920   22.4260 N   0  0  0  0  0  0  0  0  0  0  0  0
  -23.4140  -28.8420   23.3800 O   0  0  0  0  0  0  0  0  0  0  0  0
  -20.9290  -29.8450   21.7340 H   0  0  0  0  0  0  0  0  0  0  0  0
  -18.0360  -28.0830   22.9290 C   0  0  0  0  0  0  0  0  0  0  0  0
  -20.5940  -28.3540   23.1990 C   0  0  0  0  0  3  0  0  0  0  0  0
  -20.7010  -26.9210   22.6290 C   0  0  0  0  0  2  0  0  0  0  0  0
  -19.6020  -26.5920   21.6140 C   0  0  0  0  0  2  0  0  0  0  0  0
  -18.2190  -26.7330   22.2560 C   0  0  0  0  0  2  0  0  0  0  0  0
  -19.1520  -28.8520   23.3570 C   0  0  0  0  0  0  0  0  0  0  0  0
  -18.9280  -30.1130   23.9490 C   0  0  0  0  0  3  0  0  0  0  0  0
  -17.6210  -30.6080   24.1160 C   0  0  0  0  0  3  0  0  0  0  0  0
  -16.5200  -29.8380   23.7020 C   0  0  0  0  0  3  0  0  0  0  0  0
  -16.7280  -28.5780   23.1160 C   0  0  0  0  0  3  0  0  0  0  0  0
  -25.8910  -32.5140   23.8510 C   0  0  0  0  0  3  0  0  0  0  0  0
  -25.5760  -33.9150   24.1740 N   0  0  0  0  0  0  0  0  0  0  0  0
  -25.9120  -34.9690   23.4180 C   0  0  0  0  0  0  0  0  0  0  0  0
  -26.5850  -34.8640   22.3890 O   0  0  0  0  0  0  0  0  0  0  0  0
  -24.9810  -34.0700   24.9750 H   0  0  0  0  0  0  0  0  0  0  0  0
  -24.1900  -36.7700   23.0560 C   0  0  0  0  0  1  0  0  0  0  0  0
  -25.4260  -36.3590   23.8750 C   0  0  0  0  0  3  0  0  0  0  0  0
  -27.5540  -37.2420   24.7230 C   0  0  0  0  0  1  0  0  0  0  0  0
  -26.4610  -37.4100   23.7700 N   0  0  0  0  0  0  0  0  0  0  0  0
  -26.0550  -38.3310   23.9120 H   0  0  0  0  0  0  0  0  0  0  0  0
  -26.3970  -31.7550   25.1390 C   0  0  1  0  0  0  0  0  0  0  0  0
  -25.2960  -31.5290   26.2010 C   0  0  0  0  0  1  0  0  0  0  0  0
  -26.9820  -30.3720   24.7690 C   0  0  0  0  0  1  0  0  0  0  0  0
  -27.5440  -32.5550   25.8020 C   0  0  0  0  0  1  0  0  0  0  0  0
  1 47  1  0
  1  7  1  0
  1 52  1  0
  2  4  2  0
  2  3  1  0
  3  6  2  0
  4  7  1  0
  6  5  1  0
  6  8  1  0
  7  5  2  0
  9 17  1  0
 10 15  1  0
 11 12  1  0
 11 10  1  0
 13 12  1  0
 13 22  1  0
 13 14  1  0
 15  9  1  0
 15 14  1  0
 16  9  2  0
 17  8  1  0
 18 17  1  0
 19 20  2  0
 20 39  1  0
 21 20  1  0
 21 24  1  0
 22 19  1  0
 22 23  1  0
 23 21  2  0
 24 25  1  0
 25 26  2  0
 27 30  1  0
 27 26  1  0
 28 27  2  0
 29 28  1  0
 29 24  2  0
 30 31  1  0
 31 32  1  0
 32 33  2  0
 34 33  1  0
 34 38  1  0
 35 34  2  0
 36 31  2  0
 36 35  1  0
 37 36  1  0
 39 40  1  0
 40 43  1  0
 40 42  1  0
 41 39  2  0
 44 45  1  0
 44 19  1  0
 46 44  1  0
 48 49  1  0
 48 47  1  0
 48 51  1  0
 50 48  1  0
 53 55  1  0
 53 52  1  0
 54 65  2  0
 55 60  1  0
 56 64  1  0
 56 66  1  0
 57 63  1  0
 57 59  1  0
 58 64  1  0
 59 58  1  0
 60 59  2  0
 61 55  2  0
 62 61  1  0
 62 57  2  0
 63 56  1  0
 64 54  1  0
 66 68  2  0
 67 66  1  0
 69 67  1  0
 70 79  2  0
 70 75  1  0
 71 67  1  0
 71 75  1  0
 72 71  1  0
 73 74  1  0
 73 72  1  0
 74 70  1  0
 75 76  2  0
 76 77  1  0
 78 77  2  0
 79 78  1  0
 80 54  1  0
 80 81  1  0
 80 90  1  0
 81 84  1  0
 82 86  1  0
 82 81  1  0
 83 82  2  0
 86 85  1  0
 88 86  1  0
 88 89  1  0
 88 87  1  0
 90 93  1  1
 90 91  1  0
 92 90  1  0
M  ISO  4   9 100  17 100  52 101  53 101
M  END
>  <TORSDO>  (32) 
F 21

>  <SCORE>  (32) 
-14.242

>  <name>  (32) 
31

>  <ligand_id>  (32) 
31

>  <original_smiles>  (32) 
[H]c1c([H])c([H])c2c(c1[H])C([H])([H])C([H])([H])C([H])([H])C2([H])N([H])C(=O)C1([H])N(C(=O)C([H])(N([H])C(=O)C([H])(N([H])C([H])([H])[H])C([H])([H])[H])C(C([H])([H])[H])(C([H])([H])[H])C([H])([H])[H])C([H])([H])c2c([H])c(OC([H])([H])C([H])(c3c([H])c([H])c([H])c(C([H])([H])N([H])C(=O)N4C([H])([H])C([H])([H])C([H])([H])C([H])(n5nc(-c6c([H])c([H])c(Oc7c([H])c([H])c(F)c([H])c7F)c([H])c6[H])c(C(=O)N([H])[H])c5N([H])[H])C4([H])[H])c3[H])C([H])([H])[N+]([H])([H])[H])c([H])c([H])c2C1([H])[H]

>  <smiles>  (32) 
[H]c1c([H])c([H])c2c(c1[H])C([H])([H])C([H])([H])C([H])([H])C2([H])N([H])C(=O)C1([H])N(C(=O)C([H])(N([H])C(=O)C([H])(N([H])C([H])([H])[H])C([H])([H])[H])C(C([H])([H])[H])(C([H])([H])[H])C([H])([H])[H])C([H])([H])c2c([H])c(OC([H])([H])C([H])(c3c([H])c([H])c([H])c(C([H])([H])N([H])C(=O)N4C([H])([H])C([H])([H])C([H])([H])C([H])(n5nc(-c6c([H])c([H])c(Oc7c([H])c([H])c(F)c([H])c7F)c([H])c6[H])c(C(=O)N([H])[H])c5N([H])[H])C4([H])[H])c3[H])C([H])([H])[N+]([H])([H])[H])c([H])c([H])c2C1([H])[H]

$$$$
32:0:0
     RDKit          3D

101110  0  0  1  0  0  0  0  0999 V2000
  -31.4580  -21.2930   23.8040 C   0  0  0  0  0  2  0  0  0  0  0  0
  -30.1030  -21.9090   24.1510 C   0  0  0  0  0  2  0  0  0  0  0  0
  -31.0180  -21.3590   22.3390 C   0  0  0  0  0  3  0  0  0  0  0  0
  -29.9820  -22.3370   22.7490 N   0  0  2  0  0  4  0  0  0  0  0  0
  -29.0880  -22.0910   22.3480 H   0  0  0  0  0  0  0  0  0  0  0  0
  -30.4320  -20.0040   21.8460 C   0  0  0  0  0  0  0  0  0  0  0  0
  -32.3830  -18.0830   19.8590 C   0  0  0  0  0  2  0  0  0  0  0  0
  -32.4600  -19.5110   20.4240 C   0  0  0  0  0  2  0  0  0  0  0  0
  -31.2600  -17.8130   20.8760 C   0  0  0  0  0  3  0  0  0  0  0  0
  -31.0860  -19.2770   20.8390 N   0  0  0  0  0  0  0  0  0  0  0  0
  -29.4440  -19.5280   22.4070 O   0  0  0  0  0  0  0  0  0  0  0  0
  -30.8610  -14.7130   20.2120 C   0  0  0  0  0  0  0  0  0  0  0  0
  -30.6520  -12.5120   19.1210 C   0  0  0  0  0  2  0  0  0  0  0  0
  -29.6830  -12.6900   17.9290 C   0  0  0  0  0  2  0  0  0  0  0  0
  -28.2130  -12.5350   18.3740 C   0  0  0  0  0  2  0  0  0  0  0  0
  -27.8780  -13.3790   19.6310 C   0  0  0  0  0  3  0  0  0  0  0  0
  -28.9510  -13.1610   20.7260 C   0  0  0  0  0  2  0  0  0  0  0  0
  -30.2670  -13.4920   20.1440 N   0  0  0  0  0  0  0  0  0  0  0  0
  -32.0160  -14.9230   19.8330 O   0  0  0  0  0  0  0  0  0  0  0  0
  -30.0230  -17.0160   20.3910 C   0  0  0  0  0  0  0  0  0  0  0  0
  -29.9560  -15.6770   20.4590 N   0  0  0  0  0  0  0  0  0  0  0  0
  -29.0130  -17.6310   20.0380 O   0  0  0  0  0  0  0  0  0  0  0  0
  -29.0190  -15.3160   20.4940 H   0  0  0  0  0  0  0  0  0  0  0  0
  -25.4970  -13.9990   20.3890 C   0  0  0  0  0  0  0  0  0  0  0  0
  -24.4300  -13.2320   20.7750 C   0  0  0  0  0  0  0  0  0  0  0  0
  -24.8850  -11.8770   20.7250 C   0  0  0  0  0  0  0  0  0  0  0  0
  -26.5320  -13.1130   20.1300 N   0  0  0  0  0  0  0  0  0  0  0  0
  -26.1660  -11.8320   20.3850 N   0  0  0  0  0  0  0  0  0  0  0  0
  -24.1570  -10.6190   20.9230 C   0  0  0  0  0  0  0  0  0  0  0  0
  -24.5840   -9.6640   21.8720 C   0  0  0  0  0  3  0  0  0  0  0  0
  -23.8610   -8.4650   22.0550 C   0  0  0  0  0  3  0  0  0  0  0  0
  -22.6990   -8.2150   21.2900 C   0  0  0  0  0  0  0  0  0  0  0  0
  -22.2930   -9.1580   20.3290 C   0  0  0  0  0  3  0  0  0  0  0  0
  -23.0160  -10.3470   20.1430 C   0  0  0  0  0  3  0  0  0  0  0  0
  -21.9500   -7.0660   21.3790 O   0  0  0  0  0  0  0  0  0  0  0  0
  -21.8500   -6.3620   22.5520 C   0  0  0  0  0  0  0  0  0  0  0  0
  -21.3250   -6.9440   23.7270 C   0  0  0  0  0  3  0  0  0  0  0  0
  -21.1740   -6.1640   24.8920 C   0  0  0  0  0  3  0  0  0  0  0  0
  -21.5390   -4.8050   24.8810 C   0  0  0  0  0  0  0  0  0  0  0  0
  -22.0580   -4.2230   23.7110 C   0  0  0  0  0  3  0  0  0  0  0  0
  -22.2110   -5.0000   22.5490 C   0  0  0  0  0  0  0  0  0  0  0  0
  -22.6900   -4.4300   21.4170 F   0  0  0  0  0  0  0  0  0  0  0  0
  -21.3890   -4.0530   25.9960 F   0  0  0  0  0  0  0  0  0  0  0  0
  -23.0410  -13.7150   21.0800 C   0  0  0  0  0  0  0  0  0  0  0  0
  -22.3400  -13.0350   21.9810 N   0  0  0  0  0  0  0  0  0  0  0  0
  -22.5860  -14.7300   20.5560 O   0  0  0  0  0  0  0  0  0  0  0  0
  -22.7200  -12.2180   22.4350 H   0  0  0  0  0  0  0  0  0  0  0  0
  -21.4070  -13.3380   22.2210 H   0  0  0  0  0  0  0  0  0  0  0  0
  -25.6630  -15.3720   20.2210 N   0  0  0  0  0  0  0  0  0  0  0  0
  -24.8990  -16.0230   20.3560 H   0  0  0  0  0  0  0  0  0  0  0  0
  -26.5010  -15.8230   19.8770 H   0  0  0  0  0  0  0  0  0  0  0  0
  -30.2820  -23.7950   22.5910 C   0  0  0  0  0  2  0  0  0  0  0  0
  -30.1270  -24.3080   21.1490 C   0  0  0  0  0  0  0  0  0  0  0  0
  -29.7500  -23.5430   20.2540 O   0  0  0  0  0  0  0  0  0  0  0  0
  -30.5100  -25.7900   20.8900 C   0  0  0  0  0  3  0  0  0  0  0  0
  -30.9480  -25.9080   19.4790 N   0  0  0  0  0  4  0  0  0  0  0  0
  -30.1620  -25.7530   18.8700 H   0  0  0  0  0  0  0  0  0  0  0  0
  -31.6490  -25.2220   19.2600 H   0  0  0  0  0  0  0  0  0  0  0  0
  -31.3230  -26.8210   19.2880 H   0  0  0  0  0  0  0  0  0  0  0  0
  -29.3770  -26.8080   21.1920 C   0  0  0  0  0  2  0  0  0  0  0  0
  -28.4240  -26.7770   20.1260 O   0  0  0  0  0  0  0  0  0  0  0  0
  -24.5850  -31.9460   23.3030 C   0  0  0  0  0  0  0  0  0  0  0  0
  -27.2920  -27.5590   20.2110 C   0  0  0  0  0  0  0  0  0  0  0  0
  -23.3950  -30.5390   21.6500 C   0  0  0  0  0  3  0  0  0  0  0  0
  -24.8700  -29.0230   20.2250 C   0  0  0  0  0  0  0  0  0  0  0  0
  -25.9140  -30.9320   21.4550 C   0  0  0  0  0  2  0  0  0  0  0  0
  -26.0180  -29.5600   20.8230 C   0  0  0  0  0  0  0  0  0  0  0  0
  -27.2310  -28.8320   20.8280 C   0  0  0  0  0  3  0  0  0  0  0  0
  -26.1320  -27.0420   19.6000 C   0  0  0  0  0  3  0  0  0  0  0  0
  -24.9200  -27.7590   19.6130 C   0  0  0  0  0  3  0  0  0  0  0  0
  -23.6160  -29.8670   20.2690 C   0  0  0  0  0  2  0  0  0  0  0  0
  -24.6500  -31.1530   22.1950 N   0  0  0  0  0  0  0  0  0  0  0  0
  -23.5010  -32.2030   23.8430 O   0  0  0  0  0  0  0  0  0  0  0  0
  -22.7540  -29.5060   22.6050 C   0  0  0  0  0  0  0  0  0  0  0  0
  -21.4340  -29.3010   22.4660 N   0  0  0  0  0  0  0  0  0  0  0  0
  -23.4420  -28.8910   23.4250 O   0  0  0  0  0  0  0  0  0  0  0  0
  -20.9410  -29.8510   21.7770 H   0  0  0  0  0  0  0  0  0  0  0  0
  -18.0740  -28.0630   22.9460 C   0  0  0  0  0  0  0  0  0  0  0  0
  -20.6280  -28.3480   23.2280 C   0  0  0  0  0  3  0  0  0  0  0  0
  -20.7470  -26.9210   22.6440 C   0  0  0  0  0  2  0  0  0  0  0  0
  -19.6530  -26.5930   21.6240 C   0  0  0  0  0  2  0  0  0  0  0  0
  -18.2680  -26.7190   22.2640 C   0  0  0  0  0  2  0  0  0  0  0  0
  -19.1830  -28.8350   23.3840 C   0  0  0  0  0  0  0  0  0  0  0  0
  -18.9470  -30.0920   23.9820 C   0  0  0  0  0  3  0  0  0  0  0  0
  -17.6370  -30.5790   24.1440 C   0  0  0  0  0  3  0  0  0  0  0  0
  -16.5430  -29.8050   23.7220 C   0  0  0  0  0  3  0  0  0  0  0  0
  -16.7620  -28.5480   23.1300 C   0  0  0  0  0  3  0  0  0  0  0  0
  -25.8660  -32.5850   23.9250 C   0  0  0  0  0  3  0  0  0  0  0  0
  -25.5590  -33.9910   24.2190 N   0  0  0  0  0  0  0  0  0  0  0  0
  -25.9150  -35.0240   23.4430 C   0  0  0  0  0  0  0  0  0  0  0  0
  -26.6080  -34.8940   22.4290 O   0  0  0  0  0  0  0  0  0  0  0  0
  -24.9480  -34.1680   25.0010 H   0  0  0  0  0  0  0  0  0  0  0  0
  -24.2230  -36.8260   22.9870 C   0  0  0  0  0  1  0  0  0  0  0  0
  -25.4240  -36.4240   23.8570 C   0  0  0  0  0  3  0  0  0  0  0  0
  -27.5260  -37.3040   24.7700 C   0  0  0  0  0  1  0  0  0  0  0  0
  -26.4730  -37.4630   23.7720 N   0  0  0  0  0  0  0  0  0  0  0  0
  -26.0690  -38.3910   23.8810 H   0  0  0  0  0  0  0  0  0  0  0  0
  -26.3660  -31.8380   25.2220 C   0  0  1  0  0  0  0  0  0  0  0  0
  -25.2590  -31.6160   26.2780 C   0  0  0  0  0  1  0  0  0  0  0  0
  -26.9580  -30.4550   24.8610 C   0  0  0  0  0  1  0  0  0  0  0  0
  -27.5050  -32.6480   25.8870 C   0  0  0  0  0  1  0  0  0  0  0  0
  1  2  1  0
  3  6  1  0
  3  4  1  0
  3  1  1  0
  4  2  1  0
  4  5  1  6
  6 11  2  0
  7  8  1  0
  7  9  1  0
  8 10  1  0
  9 20  1  0
 10  9  1  0
 10  6  1  0
 12 21  1  0
 13 18  1  0
 14 15  1  0
 14 13  1  0
 16 15  1  0
 16 27  1  0
 16 17  1  0
 18 12  1  0
 18 17  1  0
 19 12  2  0
 20 21  1  0
 21 23  1  0
 22 20  2  0
 24 25  2  0
 25 44  1  0
 26 25  1  0
 26 29  1  0
 27 28  1  0
 27 24  1  0
 28 26  2  0
 29 30  1  0
 30 31  2  0
 32 35  1  0
 32 31  1  0
 33 32  2  0
 34 33  1  0
 34 29  2  0
 35 36  1  0
 36 37  1  0
 37 38  2  0
 39 38  1  0
 39 43  1  0
 40 39  2  0
 41 36  2  0
 41 40  1  0
 42 41  1  0
 44 45  1  0
 45 48  1  0
 45 47  1  0
 46 44  2  0
 49 50  1  0
 49 24  1  0
 51 49  1  0
 52  4  1  0
 53 52  1  0
 54 53  2  0
 55 53  1  0
 55 60  1  0
 56 55  1  0
 57 56  1  0
 58 56  1  0
 59 56  1  0
 61 63  1  0
 61 60  1  0
 62 73  2  0
 63 68  1  0
 64 72  1  0
 64 74  1  0
 65 71  1  0
 65 67  1  0
 66 72  1  0
 67 68  2  0
 67 66  1  0
 69 70  1  0
 69 63  2  0
 70 65  2  0
 71 64  1  0
 72 62  1  0
 74 76  2  0
 75 74  1  0
 77 75  1  0
 78 87  2  0
 78 83  1  0
 79 75  1  0
 79 83  1  0
 80 79  1  0
 81 82  1  0
 81 80  1  0
 82 78  1  0
 83 84  2  0
 84 85  1  0
 86 85  2  0
 87 86  1  0
 88 62  1  0
 88 89  1  0
 88 98  1  0
 89 92  1  0
 90 94  1  0
 90 89  1  0
 91 90  2  0
 94 93  1  0
 96 94  1  0
 96 97  1  0
 96 95  1  0
 98101  1  1
 98 99  1  0
100 98  1  0
M  ISO  4  12 100  21 100  60 101  61 101
M  END
>  <TORSDO>  (33) 
F 22

>  <SCORE>  (33) 
-12.730

>  <name>  (33) 
32

>  <ligand_id>  (33) 
32

>  <original_smiles>  (33) 
[H]c1c([H])c([H])c2c(c1[H])C([H])([H])C([H])([H])C([H])([H])C2([H])N([H])C(=O)C1([H])N(C(=O)C([H])(N([H])C(=O)C([H])(N([H])C([H])([H])[H])C([H])([H])[H])C(C([H])([H])[H])(C([H])([H])[H])C([H])([H])[H])C([H])([H])c2c([H])c(OC([H])([H])C([H])(C(=O)C([H])([H])[N+]3([H])C([H])([H])C([H])([H])C3([H])C(=O)N3C([H])([H])C([H])([H])C3([H])C(=O)N([H])C(=O)N3C([H])([H])C([H])([H])C([H])([H])C([H])(n4nc(-c5c([H])c([H])c(Oc6c([H])c([H])c(F)c([H])c6F)c([H])c5[H])c(C(=O)N([H])[H])c4N([H])[H])C3([H])[H])[N+]([H])([H])[H])c([H])c([H])c2C1([H])[H]

>  <smiles>  (33) 
[H]c1c([H])c([H])c2c(c1[H])C([H])([H])C([H])([H])C([H])([H])C2([H])N([H])C(=O)C1([H])N(C(=O)C([H])(N([H])C(=O)C([H])(N([H])C([H])([H])[H])C([H])([H])[H])C(C([H])([H])[H])(C([H])([H])[H])C([H])([H])[H])C([H])([H])c2c([H])c(OC([H])([H])C([H])(C(=O)C([H])([H])[N+]3([H])C([H])([H])C([H])([H])C3([H])C(=O)N3C([H])([H])C([H])([H])C3([H])C(=O)N([H])C(=O)N3C([H])([H])C([H])([H])C([H])([H])C([H])(n4nc(-c5c([H])c([H])c(Oc6c([H])c([H])c(F)c([H])c6F)c([H])c5[H])c(C(=O)N([H])[H])c4N([H])[H])C3([H])[H])[N+]([H])([H])[H])c([H])c([H])c2C1([H])[H]

$$$$
33:0:0
     RDKit          3D

 96105  0  0  1  0  0  0  0  0999 V2000
  -29.6330  -23.0610   19.2220 C   0  0  0  0  0  2  0  0  0  0  0  0
  -29.9000  -24.1480   21.3920 C   0  0  0  0  0  2  0  0  0  0  0  0
  -29.9640  -21.9940   20.2920 C   0  0  0  0  0  3  0  0  0  0  0  0
  -29.7270  -24.4610   19.8890 C   0  0  1  0  0  0  0  0  0  0  0  0
  -30.9480  -25.2280   19.3370 C   0  0  0  0  0  1  0  0  0  0  0  0
  -30.6750  -22.1680   22.6710 C   0  0  0  0  0  1  0  0  0  0  0  0
  -29.8020  -22.6820   21.5900 N   0  0  1  0  0  4  0  0  0  0  0  0
  -28.8430  -22.4850   21.8470 H   0  0  0  0  0  0  0  0  0  0  0  0
  -28.9390  -20.8270   20.3070 C   0  0  0  0  0  0  0  0  0  0  0  0
  -27.7360  -21.1140   20.2870 O   0  0  0  0  0  0  0  0  0  0  0  0
  -30.7020  -18.9230   20.2310 C   0  0  0  0  0  3  0  0  0  0  0  0
  -28.3890  -18.4260   20.7640 C   0  0  0  0  0  3  0  0  0  0  0  0
  -31.0240  -17.5480   20.3610 C   0  0  0  0  0  3  0  0  0  0  0  0
  -28.7070  -17.0610   20.8990 C   0  0  0  0  0  3  0  0  0  0  0  0
  -29.3740  -19.3870   20.4350 C   0  0  0  0  0  0  0  0  0  0  0  0
  -30.0220  -16.6010   20.6930 C   0  0  0  0  0  0  0  0  0  0  0  0
  -30.8420  -14.3170   20.0420 C   0  0  0  0  0  0  0  0  0  0  0  0
  -30.5330  -12.1370   18.9130 C   0  0  0  0  0  2  0  0  0  0  0  0
  -29.5110  -12.3030   17.7690 C   0  0  0  0  0  2  0  0  0  0  0  0
  -28.0630  -12.1650   18.2850 C   0  0  0  0  0  2  0  0  0  0  0  0
  -27.7960  -13.0190   19.5510 C   0  0  0  0  0  3  0  0  0  0  0  0
  -28.9110  -12.7920   20.5950 C   0  0  0  0  0  2  0  0  0  0  0  0
  -30.2060  -13.1150   19.9620 N   0  0  0  0  0  0  0  0  0  0  0  0
  -31.8770  -14.5760   19.4170 O   0  0  0  0  0  0  0  0  0  0  0  0
  -30.2340  -15.1980   20.8550 N   0  0  0  0  0  0  0  0  0  0  0  0
  -29.5320  -14.7450   21.4220 H   0  0  0  0  0  0  0  0  0  0  0  0
  -25.4430  -13.6410   20.3990 C   0  0  0  0  0  0  0  0  0  0  0  0
  -24.3950  -12.8740   20.8330 C   0  0  0  0  0  0  0  0  0  0  0  0
  -24.8490  -11.5200   20.7780 C   0  0  0  0  0  0  0  0  0  0  0  0
  -26.4700  -12.7550   20.1080 N   0  0  0  0  0  0  0  0  0  0  0  0
  -26.1160  -11.4740   20.3900 N   0  0  0  0  0  0  0  0  0  0  0  0
  -24.1310  -10.2610   21.0170 C   0  0  0  0  0  0  0  0  0  0  0  0
  -24.5390   -9.3600   22.0250 C   0  0  0  0  0  3  0  0  0  0  0  0
  -23.8230   -8.1630   22.2470 C   0  0  0  0  0  3  0  0  0  0  0  0
  -22.6880   -7.8600   21.4600 C   0  0  0  0  0  0  0  0  0  0  0  0
  -22.2990   -8.7490   20.4430 C   0  0  0  0  0  3  0  0  0  0  0  0
  -23.0140   -9.9370   20.2200 C   0  0  0  0  0  3  0  0  0  0  0  0
  -21.9480   -6.7090   21.5870 O   0  0  0  0  0  0  0  0  0  0  0  0
  -21.7700   -6.0970   22.8030 C   0  0  0  0  0  0  0  0  0  0  0  0
  -21.1560   -6.7610   23.8870 C   0  0  0  0  0  3  0  0  0  0  0  0
  -20.9290   -6.0730   25.0960 C   0  0  0  0  0  3  0  0  0  0  0  0
  -21.3050   -4.7230   25.2190 C   0  0  0  0  0  0  0  0  0  0  0  0
  -21.9120   -4.0590   24.1380 C   0  0  0  0  0  3  0  0  0  0  0  0
  -22.1400   -4.7440   22.9330 C   0  0  0  0  0  0  0  0  0  0  0  0
  -22.7060   -4.0940   21.8870 F   0  0  0  0  0  0  0  0  0  0  0  0
  -21.0800   -4.0590   26.3770 F   0  0  0  0  0  0  0  0  0  0  0  0
  -23.0190  -13.3580   21.1920 C   0  0  0  0  0  0  0  0  0  0  0  0
  -22.3580  -12.6860   22.1280 N   0  0  0  0  0  0  0  0  0  0  0  0
  -22.5400  -14.3660   20.6750 O   0  0  0  0  0  0  0  0  0  0  0  0
  -22.7580  -11.8720   22.5690 H   0  0  0  0  0  0  0  0  0  0  0  0
  -21.4380  -12.9940   22.4100 H   0  0  0  0  0  0  0  0  0  0  0  0
  -25.6050  -15.0110   20.2110 N   0  0  0  0  0  0  0  0  0  0  0  0
  -24.8510  -15.6720   20.3650 H   0  0  0  0  0  0  0  0  0  0  0  0
  -26.4390  -15.4410   19.8310 H   0  0  0  0  0  0  0  0  0  0  0  0
  -28.4420  -25.2940   19.6160 C   0  0  0  0  0  2  0  0  0  0  0  0
  -28.4800  -26.6400   20.1280 O   0  0  0  0  0  0  0  0  0  0  0  0
  -24.5660  -31.7310   23.2440 C   0  0  0  0  0  0  0  0  0  0  0  0
  -27.2990  -27.3660   20.1020 C   0  0  0  0  0  0  0  0  0  0  0  0
  -23.4070  -30.3750   21.5330 C   0  0  0  0  0  3  0  0  0  0  0  0
  -24.8990  -28.8820   20.1040 C   0  0  0  0  0  0  0  0  0  0  0  0
  -25.9400  -30.7350   21.4150 C   0  0  0  0  0  2  0  0  0  0  0  0
  -26.0430  -29.3830   20.7360 C   0  0  0  0  0  0  0  0  0  0  0  0
  -27.2440  -28.6330   20.7320 C   0  0  0  0  0  3  0  0  0  0  0  0
  -26.1270  -26.8860   19.4670 C   0  0  0  0  0  3  0  0  0  0  0  0
  -24.9360  -27.6310   19.4690 C   0  0  0  0  0  3  0  0  0  0  0  0
  -23.6550  -29.7390   20.1400 C   0  0  0  0  0  2  0  0  0  0  0  0
  -24.6540  -30.9610   22.1220 N   0  0  0  0  0  0  0  0  0  0  0  0
  -23.4700  -31.9870   23.7600 O   0  0  0  0  0  0  0  0  0  0  0  0
  -22.7320  -29.3240   22.4450 C   0  0  0  0  0  0  0  0  0  0  0  0
  -21.4110  -29.1460   22.2780 N   0  0  0  0  0  0  0  0  0  0  0  0
  -23.3950  -28.6750   23.2570 O   0  0  0  0  0  0  0  0  0  0  0  0
  -20.9390  -29.7230   21.5960 H   0  0  0  0  0  0  0  0  0  0  0  0
  -18.0190  -27.9690   22.6840 C   0  0  0  0  0  0  0  0  0  0  0  0
  -20.5760  -28.1880   23.0000 C   0  0  0  0  0  3  0  0  0  0  0  0
  -20.6720  -26.7790   22.3700 C   0  0  0  0  0  2  0  0  0  0  0  0
  -19.5810  -26.5090   21.3280 C   0  0  0  0  0  2  0  0  0  0  0  0
  -18.1910  -26.6450   21.9590 C   0  0  0  0  0  2  0  0  0  0  0  0
  -19.1390  -28.7010   23.1590 C   0  0  0  0  0  0  0  0  0  0  0  0
  -18.9260  -29.9440   23.7950 C   0  0  0  0  0  3  0  0  0  0  0  0
  -17.6250  -30.4520   23.9620 C   0  0  0  0  0  3  0  0  0  0  0  0
  -16.5190  -29.7170   23.5040 C   0  0  0  0  0  3  0  0  0  0  0  0
  -16.7160  -28.4770   22.8710 C   0  0  0  0  0  3  0  0  0  0  0  0
  -25.8340  -32.3450   23.9140 C   0  0  0  0  0  3  0  0  0  0  0  0
  -26.3010  -31.5590   25.1990 C   0  0  1  0  0  0  0  0  0  0  0  0
  -25.1710  -31.3140   26.2240 C   0  0  0  0  0  1  0  0  0  0  0  0
  -26.8950  -30.1840   24.8120 C   0  0  0  0  0  1  0  0  0  0  0  0
  -27.4290  -32.3430   25.9110 C   0  0  0  0  0  1  0  0  0  0  0  0
  -25.5250  -33.7430   24.2440 N   0  0  0  0  0  0  0  0  0  0  0  0
  -25.8600  -34.7960   23.4840 C   0  0  0  0  0  0  0  0  0  0  0  0
  -26.5320  -34.6910   22.4550 O   0  0  0  0  0  0  0  0  0  0  0  0
  -24.9290  -33.8980   25.0430 H   0  0  0  0  0  0  0  0  0  0  0  0
  -24.1190  -36.5780   23.1410 C   0  0  0  0  0  1  0  0  0  0  0  0
  -25.3700  -36.1830   23.9410 C   0  0  0  0  0  3  0  0  0  0  0  0
  -27.5030  -37.0870   24.7530 C   0  0  0  0  0  1  0  0  0  0  0  0
  -26.3960  -37.2410   23.8140 N   0  0  0  0  0  0  0  0  0  0  0  0
  -25.9840  -38.1590   23.9560 H   0  0  0  0  0  0  0  0  0  0  0  0
  1  4  1  0
  1  3  1  0
  2  7  1  0
  3  9  1  0
  3  7  1  0
  4  5  1  6
  4  2  1  0
  7  8  1  1
  7  6  1  0
  9 15  1  0
 10  9  2  0
 11 13  2  0
 11 15  1  0
 12 14  1  0
 13 16  1  0
 15 12  2  0
 16 25  1  0
 16 14  2  0
 17 25  1  0
 18 23  1  0
 19 20  1  0
 19 18  1  0
 21 20  1  0
 21 30  1  0
 21 22  1  0
 23 17  1  0
 23 22  1  0
 24 17  2  0
 25 26  1  0
 27 28  2  0
 28 47  1  0
 29 28  1  0
 29 32  1  0
 30 31  1  0
 30 27  1  0
 31 29  2  0
 32 33  1  0
 33 34  2  0
 35 38  1  0
 35 34  1  0
 36 35  2  0
 37 36  1  0
 37 32  2  0
 38 39  1  0
 39 44  2  0
 39 40  1  0
 40 41  2  0
 41 42  1  0
 42 46  1  0
 43 42  2  0
 44 43  1  0
 45 44  1  0
 47 48  1  0
 48 51  1  0
 48 50  1  0
 49 47  2  0
 52 53  1  0
 52 27  1  0
 54 52  1  0
 55  4  1  0
 55 56  1  0
 57 68  2  0
 58 56  1  0
 58 63  1  0
 59 67  1  0
 59 69  1  0
 60 66  1  0
 60 62  1  0
 61 67  1  0
 62 61  1  0
 63 62  2  0
 64 65  1  0
 64 58  2  0
 65 60  2  0
 66 59  1  0
 67 57  1  0
 69 71  2  0
 70 69  1  0
 72 70  1  0
 73 82  2  0
 73 78  1  0
 74 70  1  0
 74 78  1  0
 75 74  1  0
 76 77  1  0
 76 75  1  0
 77 73  1  0
 78 79  2  0
 79 80  1  0
 81 80  2  0
 82 81  1  0
 83 57  1  0
 83 88  1  0
 83 84  1  0
 84 87  1  1
 84 85  1  0
 86 84  1  0
 88 91  1  0
 89 93  1  0
 89 88  1  0
 90 89  2  0
 93 92  1  0
 95 93  1  0
 95 96  1  0
 95 94  1  0
M  ISO  4  17 100  25 100  55 101  56 101
M  END
>  <TORSDO>  (34) 
F 19

>  <SCORE>  (34) 
-13.668

>  <name>  (34) 
33

>  <ligand_id>  (34) 
33

>  <original_smiles>  (34) 
[H]c1c([H])c([H])c2c(c1[H])C([H])([H])C([H])([H])C([H])([H])C2([H])N([H])C(=O)C1([H])N(C(=O)C([H])(N([H])C(=O)C([H])(N([H])C([H])([H])[H])C([H])([H])[H])C(C([H])([H])[H])(C([H])([H])[H])C([H])([H])[H])C([H])([H])c2c([H])c(OC([H])([H])C3(C([H])([H])[H])C([H])([H])C([H])(C(=O)c4c([H])c([H])c(N([H])C(=O)N5C([H])([H])C([H])([H])C([H])([H])C([H])(n6nc(-c7c([H])c([H])c(Oc8c([H])c([H])c(F)c([H])c8F)c([H])c7[H])c(C(=O)N([H])[H])c6N([H])[H])C5([H])[H])c([H])c4[H])[N+]([H])(C([H])([H])[H])C3([H])[H])c([H])c([H])c2C1([H])[H]

>  <smiles>  (34) 
[H]c1c([H])c([H])c2c(c1[H])C([H])([H])C([H])([H])C([H])([H])C2([H])N([H])C(=O)C1([H])N(C(=O)C([H])(N([H])C(=O)C([H])(N([H])C([H])([H])[H])C([H])([H])[H])C(C([H])([H])[H])(C([H])([H])[H])C([H])([H])[H])C([H])([H])c2c([H])c(OC([H])([H])C3(C([H])([H])[H])C([H])([H])C([H])(C(=O)c4c([H])c([H])c(N([H])C(=O)N5C([H])([H])C([H])([H])C([H])([H])C([H])(n6nc(-c7c([H])c([H])c(Oc8c([H])c([H])c(F)c([H])c8F)c([H])c7[H])c(C(=O)N([H])[H])c6N([H])[H])C5([H])[H])c([H])c4[H])[N+]([H])(C([H])([H])[H])C3([H])[H])c([H])c([H])c2C1([H])[H]

$$$$
34:0:0
     RDKit          3D

100108  0  0  1  0  0  0  0  0999 V2000
  -32.0980  -19.4490   19.9210 C   0  0  0  0  0  3  0  0  0  0  0  0
  -32.1160  -20.8410   19.7180 C   0  0  0  0  0  3  0  0  0  0  0  0
  -31.0620  -19.7830   22.0990 C   0  0  0  0  0  3  0  0  0  0  0  0
  -31.5060  -18.9060   21.0820 C   0  0  0  0  0  0  0  0  0  0  0  0
  -31.5650  -21.7170   20.6780 C   0  0  0  0  0  0  0  0  0  0  0  0
  -31.0820  -21.1860   21.9040 C   0  0  0  0  0  0  0  0  0  0  0  0
  -30.5560  -22.0910   23.0110 C   0  0  0  0  0  1  0  0  0  0  0  0
  -31.3750  -17.4290   21.2700 C   0  0  0  0  0  0  0  0  0  0  0  0
  -32.2630  -16.7850   21.8390 O   0  0  0  0  0  0  0  0  0  0  0  0
  -30.0260  -16.7830   20.8000 C   0  0  0  0  0  3  0  0  0  0  0  0
  -30.5640  -14.4120   20.2020 C   0  0  0  0  0  0  0  0  0  0  0  0
  -30.1490  -12.3720   18.8890 C   0  0  0  0  0  2  0  0  0  0  0  0
  -29.1390  -12.7230   17.7770 C   0  0  0  0  0  2  0  0  0  0  0  0
  -27.6930  -12.5560   18.2840 C   0  0  0  0  0  2  0  0  0  0  0  0
  -27.4470  -13.2550   19.6450 C   0  0  0  0  0  3  0  0  0  0  0  0
  -28.5690  -12.9200   20.6560 C   0  0  0  0  0  2  0  0  0  0  0  0
  -29.8700  -13.2510   20.0380 N   0  0  0  0  0  0  0  0  0  0  0  0
  -31.5700  -14.7000   19.5520 O   0  0  0  0  0  0  0  0  0  0  0  0
  -29.9780  -15.3180   20.9970 N   0  0  0  0  0  0  0  0  0  0  0  0
  -29.1990  -14.9660   21.5320 H   0  0  0  0  0  0  0  0  0  0  0  0
  -25.0560  -13.8050   20.4590 C   0  0  0  0  0  0  0  0  0  0  0  0
  -24.0170  -13.0110   20.8630 C   0  0  0  0  0  0  0  0  0  0  0  0
  -24.5010  -11.6690   20.7930 C   0  0  0  0  0  0  0  0  0  0  0  0
  -26.1120  -12.9530   20.1720 N   0  0  0  0  0  0  0  0  0  0  0  0
  -25.7790  -11.6590   20.4220 N   0  0  0  0  0  0  0  0  0  0  0  0
  -23.8080  -10.3910   21.0070 C   0  0  0  0  0  0  0  0  0  0  0  0
  -24.2850   -9.4400   21.9340 C   0  0  0  0  0  3  0  0  0  0  0  0
  -23.5950   -8.2240   22.1310 C   0  0  0  0  0  3  0  0  0  0  0  0
  -22.4100   -7.9560   21.4020 C   0  0  0  0  0  0  0  0  0  0  0  0
  -21.9500   -8.9000   20.4660 C   0  0  0  0  0  3  0  0  0  0  0  0
  -22.6440  -10.1070   20.2660 C   0  0  0  0  0  3  0  0  0  0  0  0
  -21.6780   -6.7970   21.5180 O   0  0  0  0  0  0  0  0  0  0  0  0
  -21.6640   -6.0630   22.6750 C   0  0  0  0  0  0  0  0  0  0  0  0
  -21.2240   -6.6130   23.9020 C   0  0  0  0  0  3  0  0  0  0  0  0
  -21.1620   -5.8030   25.0530 C   0  0  0  0  0  3  0  0  0  0  0  0
  -21.5240   -4.4450   24.9790 C   0  0  0  0  0  0  0  0  0  0  0  0
  -21.9540   -3.8940   23.7600 C   0  0  0  0  0  3  0  0  0  0  0  0
  -22.0230   -4.7010   22.6110 C   0  0  0  0  0  0  0  0  0  0  0  0
  -22.4200   -4.1620   21.4330 F   0  0  0  0  0  0  0  0  0  0  0  0
  -21.4560   -3.6650   26.0830 F   0  0  0  0  0  0  0  0  0  0  0  0
  -22.6270  -13.4670   21.2150 C   0  0  0  0  0  0  0  0  0  0  0  0
  -21.9380  -12.7500   22.0980 N   0  0  0  0  0  0  0  0  0  0  0  0
  -22.1580  -14.4960   20.7370 O   0  0  0  0  0  0  0  0  0  0  0  0
  -22.3300  -11.9190   22.5100 H   0  0  0  0  0  0  0  0  0  0  0  0
  -21.0090  -13.0470   22.3610 H   0  0  0  0  0  0  0  0  0  0  0  0
  -25.1740  -15.1820   20.2940 N   0  0  0  0  0  0  0  0  0  0  0  0
  -24.3570  -15.7750   20.4120 H   0  0  0  0  0  0  0  0  0  0  0  0
  -26.0000  -15.6840   19.9960 H   0  0  0  0  0  0  0  0  0  0  0  0
  -29.5820  -17.1250   19.3400 C   0  0  0  0  0  2  0  0  0  0  0  0
  -28.9860  -18.4630   19.1440 N   0  0  0  0  0  4  0  0  0  0  0  0
  -28.2270  -18.6340   19.7830 H   0  0  0  0  0  0  0  0  0  0  0  0
  -28.6080  -18.5240   18.2110 H   0  0  0  0  0  0  0  0  0  0  0  0
  -29.6720  -19.1910   19.2450 H   0  0  0  0  0  0  0  0  0  0  0  0
  -31.4650  -23.2050   20.3470 C   0  0  0  0  0  2  0  0  0  0  0  0
  -30.0740  -23.5610   19.9800 N   0  0  0  0  0  4  0  0  0  0  0  0
  -29.4570  -23.1970   20.6900 H   0  0  0  0  0  0  0  0  0  0  0  0
  -29.8420  -23.0900   19.1170 H   0  0  0  0  0  0  0  0  0  0  0  0
  -29.8560  -25.0240   19.8460 C   0  0  0  0  0  2  0  0  0  0  0  0
  -28.3710  -25.4230   19.8270 C   0  0  0  0  0  2  0  0  0  0  0  0
  -28.3250  -26.8350   20.0140 O   0  0  0  0  0  0  0  0  0  0  0  0
  -24.5150  -31.9160   23.1870 C   0  0  0  0  0  0  0  0  0  0  0  0
  -27.1100  -27.4810   20.0660 C   0  0  0  0  0  0  0  0  0  0  0  0
  -23.2720  -30.5130   21.5660 C   0  0  0  0  0  3  0  0  0  0  0  0
  -24.7010  -28.9630   20.1280 C   0  0  0  0  0  0  0  0  0  0  0  0
  -25.7940  -30.8700   21.3290 C   0  0  0  0  0  2  0  0  0  0  0  0
  -25.8660  -29.4990   20.6880 C   0  0  0  0  0  0  0  0  0  0  0  0
  -27.0710  -28.7640   20.6550 C   0  0  0  0  0  3  0  0  0  0  0  0
  -25.9180  -26.9420   19.5310 C   0  0  0  0  0  3  0  0  0  0  0  0
  -24.7190  -27.6790   19.5550 C   0  0  0  0  0  3  0  0  0  0  0  0
  -23.4600  -29.8240   20.1860 C   0  0  0  0  0  2  0  0  0  0  0  0
  -24.5430  -31.1140   22.0850 N   0  0  0  0  0  0  0  0  0  0  0  0
  -23.4460  -32.1940   23.7450 O   0  0  0  0  0  0  0  0  0  0  0  0
  -22.6340  -29.4980   22.5390 C   0  0  0  0  0  0  0  0  0  0  0  0
  -21.3070  -29.3200   22.4360 N   0  0  0  0  0  0  0  0  0  0  0  0
  -23.3300  -28.8700   23.3420 O   0  0  0  0  0  0  0  0  0  0  0  0
  -20.8040  -29.8910   21.7720 H   0  0  0  0  0  0  0  0  0  0  0  0
  -17.9340  -28.1490   22.9710 C   0  0  0  0  0  0  0  0  0  0  0  0
  -20.4960  -28.3870   23.2170 C   0  0  0  0  0  3  0  0  0  0  0  0
  -20.5780  -26.9540   22.6420 C   0  0  0  0  0  2  0  0  0  0  0  0
  -19.4630  -26.6410   21.6370 C   0  0  0  0  0  2  0  0  0  0  0  0
  -18.0910  -26.7980   22.2940 C   0  0  0  0  0  2  0  0  0  0  0  0
  -19.0630  -28.9020   23.3880 C   0  0  0  0  0  0  0  0  0  0  0  0
  -18.8630  -30.1700   23.9760 C   0  0  0  0  0  3  0  0  0  0  0  0
  -17.5650  -30.6860   24.1500 C   0  0  0  0  0  3  0  0  0  0  0  0
  -16.4490  -29.9290   23.7530 C   0  0  0  0  0  3  0  0  0  0  0  0
  -16.6340  -28.6620   23.1710 C   0  0  0  0  0  3  0  0  0  0  0  0
  -25.8190  -32.5350   23.7830 C   0  0  0  0  0  3  0  0  0  0  0  0
  -25.5230  -33.9290   24.1330 N   0  0  0  0  0  0  0  0  0  0  0  0
  -25.8560  -34.9900   23.3850 C   0  0  0  0  0  0  0  0  0  0  0  0
  -26.5160  -34.8970   22.3460 O   0  0  0  0  0  0  0  0  0  0  0  0
  -24.9310  -34.0780   24.9370 H   0  0  0  0  0  0  0  0  0  0  0  0
  -24.1370  -36.7920   23.0580 C   0  0  0  0  0  1  0  0  0  0  0  0
  -25.3760  -36.3720   23.8640 C   0  0  0  0  0  3  0  0  0  0  0  0
  -27.5170  -37.2260   24.7080 C   0  0  0  0  0  1  0  0  0  0  0  0
  -26.4140  -37.4210   23.7700 N   0  0  0  0  0  0  0  0  0  0  0  0
  -26.0140  -38.3410   23.9360 H   0  0  0  0  0  0  0  0  0  0  0  0
  -26.3730  -31.7470   25.0340 C   0  0  1  0  0  0  0  0  0  0  0  0
  -25.3080  -31.4980   26.1250 C   0  0  0  0  0  1  0  0  0  0  0  0
  -26.9520  -30.3780   24.6090 C   0  0  0  0  0  1  0  0  0  0  0  0
  -27.5390  -32.5370   25.6760 C   0  0  0  0  0  1  0  0  0  0  0  0
  1  4  1  0
  2  1  2  0
  2  5  1  0
  4  8  1  0
  4  3  2  0
  5  6  2  0
  6  3  1  0
  6  7  1  0
  8  9  2  0
 10 49  1  0
 10 19  1  0
 10  8  1  0
 11 19  1  0
 12 17  1  0
 13 14  1  0
 13 12  1  0
 15 14  1  0
 15 24  1  0
 15 16  1  0
 17 11  1  0
 17 16  1  0
 18 11  2  0
 19 20  1  0
 21 22  2  0
 22 41  1  0
 23 22  1  0
 23 26  1  0
 24 25  1  0
 24 21  1  0
 25 23  2  0
 26 27  1  0
 27 28  2  0
 29 32  1  0
 29 28  1  0
 30 29  2  0
 31 30  1  0
 31 26  2  0
 32 33  1  0
 33 34  1  0
 34 35  2  0
 36 35  1  0
 36 40  1  0
 37 36  2  0
 38 33  2  0
 38 37  1  0
 39 38  1  0
 41 42  1  0
 42 45  1  0
 42 44  1  0
 43 41  2  0
 46 47  1  0
 46 21  1  0
 48 46  1  0
 50 53  1  0
 50 49  1  0
 50 51  1  0
 52 50  1  0
 54  5  1  0
 55 54  1  0
 55 56  1  0
 57 55  1  0
 58 55  1  0
 59 58  1  0
 59 60  1  0
 60 62  1  0
 61 72  2  0
 62 67  1  0
 63 71  1  0
 63 73  1  0
 64 70  1  0
 64 66  1  0
 65 71  1  0
 66 65  1  0
 67 66  2  0
 68 69  1  0
 68 62  2  0
 69 64  2  0
 70 63  1  0
 71 61  1  0
 73 75  2  0
 74 73  1  0
 76 74  1  0
 77 86  2  0
 77 82  1  0
 78 74  1  0
 78 82  1  0
 79 78  1  0
 80 81  1  0
 80 79  1  0
 81 77  1  0
 82 83  2  0
 83 84  1  0
 85 84  2  0
 86 85  1  0
 87 61  1  0
 87 88  1  0
 87 97  1  0
 88 91  1  0
 89 93  1  0
 89 88  1  0
 90 89  2  0
 93 92  1  0
 95 93  1  0
 95 96  1  0
 95 94  1  0
 97100  1  1
 97 98  1  0
 99 97  1  0
M  ISO  4  11 100  19 100  59 101  60 101
M  END
>  <TORSDO>  (35) 
F 24

>  <SCORE>  (35) 
-12.321

>  <name>  (35) 
34

>  <ligand_id>  (35) 
34

>  <original_smiles>  (35) 
[H]c1c([H])c([H])c2c(c1[H])C([H])([H])C([H])([H])C([H])([H])C2([H])N([H])C(=O)C1([H])N(C(=O)C([H])(N([H])C(=O)C([H])(N([H])C([H])([H])[H])C([H])([H])[H])C(C([H])([H])[H])(C([H])([H])[H])C([H])([H])[H])C([H])([H])c2c([H])c(OC([H])([H])C([H])([H])[N+]([H])([H])C([H])([H])c3c([H])c([H])c(C(=O)C([H])(N([H])C(=O)N4C([H])([H])C([H])([H])C([H])([H])C([H])(n5nc(-c6c([H])c([H])c(Oc7c([H])c([H])c(F)c([H])c7F)c([H])c6[H])c(C(=O)N([H])[H])c5N([H])[H])C4([H])[H])C([H])([H])[N+]([H])([H])[H])c([H])c3C([H])([H])[H])c([H])c([H])c2C1([H])[H]

>  <smiles>  (35) 
[H]c1c([H])c([H])c2c(c1[H])C([H])([H])C([H])([H])C([H])([H])C2([H])N([H])C(=O)C1([H])N(C(=O)C([H])(N([H])C(=O)C([H])(N([H])C([H])([H])[H])C([H])([H])[H])C(C([H])([H])[H])(C([H])([H])[H])C([H])([H])[H])C([H])([H])c2c([H])c(OC([H])([H])C([H])([H])[N+]([H])([H])C([H])([H])c3c([H])c([H])c(C(=O)C([H])(N([H])C(=O)N4C([H])([H])C([H])([H])C([H])([H])C([H])(n5nc(-c6c([H])c([H])c(Oc7c([H])c([H])c(F)c([H])c7F)c([H])c6[H])c(C(=O)N([H])[H])c5N([H])[H])C4([H])[H])C([H])([H])[N+]([H])([H])[H])c([H])c3C([H])([H])[H])c([H])c([H])c2C1([H])[H]

$$$$
35:0:0
     RDKit          3D

103111  0  0  1  0  0  0  0  0999 V2000
  -27.6350  -20.9740   20.9020 C   0  0  0  0  0  2  0  0  0  0  0  0
  -28.1320  -22.9150   19.4010 C   0  0  0  0  0  0  0  0  0  0  0  0
  -27.7080  -22.4150   20.5750 N   0  0  0  0  0  0  0  0  0  0  0  0
  -28.6370  -22.1760   18.5500 O   0  0  0  0  0  0  0  0  0  0  0  0
  -27.3000  -23.0410   21.2550 H   0  0  0  0  0  0  0  0  0  0  0  0
  -27.8940  -24.4030   19.0380 C   0  0  0  0  0  3  0  0  0  0  0  0
  -28.7120  -24.7060   17.8480 N   0  0  0  0  0  4  0  0  0  0  0  0
  -29.6390  -24.9800   18.1210 H   0  0  0  0  0  0  0  0  0  0  0  0
  -28.3100  -25.4220   17.2730 H   0  0  0  0  0  0  0  0  0  0  0  0
  -28.7890  -23.8410   17.3340 H   0  0  0  0  0  0  0  0  0  0  0  0
  -28.1720  -25.4410   20.1580 C   0  0  0  0  0  2  0  0  0  0  0  0
  -28.1980  -26.8090   19.6870 O   0  0  0  0  0  0  0  0  0  0  0  0
  -24.6230  -31.9090   23.1600 C   0  0  0  0  0  0  0  0  0  0  0  0
  -27.0360  -27.5440   19.7950 C   0  0  0  0  0  0  0  0  0  0  0  0
  -23.3100  -30.5790   21.5380 C   0  0  0  0  0  3  0  0  0  0  0  0
  -24.6670  -29.0810   19.9810 C   0  0  0  0  0  0  0  0  0  0  0  0
  -25.8280  -30.9250   21.2100 C   0  0  0  0  0  2  0  0  0  0  0  0
  -25.8620  -29.5770   20.5160 C   0  0  0  0  0  0  0  0  0  0  0  0
  -27.0520  -28.8180   20.4120 C   0  0  0  0  0  3  0  0  0  0  0  0
  -25.8180  -27.0620   19.2660 C   0  0  0  0  0  3  0  0  0  0  0  0
  -24.6400  -27.8240   19.3550 C   0  0  0  0  0  3  0  0  0  0  0  0
  -23.4350  -29.9470   20.1270 C   0  0  0  0  0  2  0  0  0  0  0  0
  -24.6090  -31.1500   22.0260 N   0  0  0  0  0  0  0  0  0  0  0  0
  -23.5770  -32.1710   23.7700 O   0  0  0  0  0  0  0  0  0  0  0  0
  -22.7010  -29.5310   22.4970 C   0  0  0  0  0  0  0  0  0  0  0  0
  -21.3780  -29.3230   22.4000 N   0  0  0  0  0  0  0  0  0  0  0  0
  -23.4170  -28.9040   23.2830 O   0  0  0  0  0  0  0  0  0  0  0  0
  -20.8570  -29.8760   21.7330 H   0  0  0  0  0  0  0  0  0  0  0  0
  -18.0540  -28.0070   22.9180 C   0  0  0  0  0  0  0  0  0  0  0  0
  -20.6020  -28.3580   23.1780 C   0  0  0  0  0  3  0  0  0  0  0  0
  -20.7560  -26.9320   22.6020 C   0  0  0  0  0  2  0  0  0  0  0  0
  -19.6610  -26.5700   21.5920 C   0  0  0  0  0  2  0  0  0  0  0  0
  -18.2760  -26.6660   22.2400 C   0  0  0  0  0  2  0  0  0  0  0  0
  -19.1470  -28.8100   23.3430 C   0  0  0  0  0  0  0  0  0  0  0  0
  -18.8830  -30.0650   23.9340 C   0  0  0  0  0  3  0  0  0  0  0  0
  -17.5620  -30.5200   24.1030 C   0  0  0  0  0  3  0  0  0  0  0  0
  -16.4850  -29.7140   23.6950 C   0  0  0  0  0  3  0  0  0  0  0  0
  -16.7320  -28.4600   23.1090 C   0  0  0  0  0  3  0  0  0  0  0  0
  -25.9490  -32.5060   23.7240 C   0  0  0  0  0  3  0  0  0  0  0  0
  -26.5350  -31.6840   24.9400 C   0  0  1  0  0  0  0  0  0  0  0  0
  -25.5000  -31.3990   26.0510 C   0  0  0  0  0  1  0  0  0  0  0  0
  -27.1030  -30.3280   24.4630 C   0  0  0  0  0  1  0  0  0  0  0  0
  -27.7180  -32.4560   25.5700 C   0  0  0  0  0  1  0  0  0  0  0  0
  -25.6760  -33.8950   24.1210 N   0  0  0  0  0  0  0  0  0  0  0  0
  -25.9920  -34.9700   23.3870 C   0  0  0  0  0  0  0  0  0  0  0  0
  -26.6150  -34.8970   22.3240 O   0  0  0  0  0  0  0  0  0  0  0  0
  -25.1290  -34.0260   24.9590 H   0  0  0  0  0  0  0  0  0  0  0  0
  -24.2880  -36.8030   23.1620 C   0  0  0  0  0  1  0  0  0  0  0  0
  -25.5440  -36.3440   23.9190 C   0  0  0  0  0  3  0  0  0  0  0  0
  -27.7150  -37.1550   24.7230 C   0  0  0  0  0  1  0  0  0  0  0  0
  -26.5900  -37.3830   23.8210 N   0  0  0  0  0  0  0  0  0  0  0  0
  -26.2060  -38.3030   24.0180 H   0  0  0  0  0  0  0  0  0  0  0  0
  -29.0010  -20.2660   21.0200 C   0  0  0  0  0  0  0  0  0  0  0  0
  -30.0330  -20.9100   21.2370 O   0  0  0  0  0  0  0  0  0  0  0  0
  -29.0460  -18.7160   20.8900 C   0  0  0  0  0  2  0  0  0  0  0  0
  -28.1730  -18.5030   18.5730 C   0  0  0  0  0  1  0  0  0  0  0  0
  -29.1740  -18.0740   19.5530 N   0  0  0  0  0  0  0  0  0  0  0  0
  -32.8750  -16.9630   19.3630 C   0  0  0  0  0  2  0  0  0  0  0  0
  -33.4450  -18.3780   19.1720 C   0  0  0  0  0  2  0  0  0  0  0  0
  -31.2290  -19.3080   18.7170 C   0  0  0  0  0  2  0  0  0  0  0  0
  -31.3930  -16.9750   19.8360 C   0  0  0  0  0  3  0  0  0  0  0  0
  -30.5270  -17.9420   18.9680 C   0  0  0  0  0  3  0  0  0  0  0  0
  -32.6100  -19.1430   18.2260 N   0  0  0  0  0  4  0  0  0  0  0  0
  -32.6090  -18.6910   17.3240 H   0  0  0  0  0  0  0  0  0  0  0  0
  -33.0120  -20.0600   18.1010 H   0  0  0  0  0  0  0  0  0  0  0  0
  -31.1860  -14.5290   19.1880 C   0  0  0  0  0  0  0  0  0  0  0  0
  -30.9340  -12.0930   18.8760 C   0  0  0  0  0  2  0  0  0  0  0  0
  -29.9230  -11.7770   17.7610 C   0  0  0  0  0  2  0  0  0  0  0  0
  -28.4910  -11.7180   18.3220 C   0  0  0  0  0  2  0  0  0  0  0  0
  -28.1470  -12.9510   19.1950 C   0  0  0  0  0  3  0  0  0  0  0  0
  -29.2680  -13.2440   20.2200 C   0  0  0  0  0  2  0  0  0  0  0  0
  -30.5500  -13.3690   19.5020 N   0  0  0  0  0  0  0  0  0  0  0  0
  -32.0980  -14.5840   18.3610 O   0  0  0  0  0  0  0  0  0  0  0  0
  -30.8240  -15.6110   19.8980 N   0  0  0  0  0  0  0  0  0  0  0  0
  -30.0660  -15.4710   20.5460 H   0  0  0  0  0  0  0  0  0  0  0  0
  -25.9550  -13.7680   20.2660 C   0  0  0  0  0  0  0  0  0  0  0  0
  -24.8620  -13.0950   20.7420 C   0  0  0  0  0  0  0  0  0  0  0  0
  -25.1460  -11.7050   20.5700 C   0  0  0  0  0  0  0  0  0  0  0  0
  -26.8460  -12.7920   19.8430 N   0  0  0  0  0  0  0  0  0  0  0  0
  -26.3690  -11.5450   20.0790 N   0  0  0  0  0  0  0  0  0  0  0  0
  -24.3050  -10.5230   20.7980 C   0  0  0  0  0  0  0  0  0  0  0  0
  -24.6750   -9.5190   21.7210 C   0  0  0  0  0  3  0  0  0  0  0  0
  -23.8410   -8.4020   21.9360 C   0  0  0  0  0  3  0  0  0  0  0  0
  -22.6230   -8.2780   21.2270 C   0  0  0  0  0  0  0  0  0  0  0  0
  -22.2710   -9.2660   20.2890 C   0  0  0  0  0  3  0  0  0  0  0  0
  -23.1040  -10.3760   20.0750 C   0  0  0  0  0  3  0  0  0  0  0  0
  -21.7640   -7.2110   21.3460 O   0  0  0  0  0  0  0  0  0  0  0  0
  -21.6060   -6.5460   22.5350 C   0  0  0  0  0  0  0  0  0  0  0  0
  -21.1600   -7.2010   23.7020 C   0  0  0  0  0  3  0  0  0  0  0  0
  -20.9420   -6.4660   24.8840 C   0  0  0  0  0  3  0  0  0  0  0  0
  -21.1650   -5.0760   24.9000 C   0  0  0  0  0  0  0  0  0  0  0  0
  -21.6040   -4.4200   23.7360 C   0  0  0  0  0  3  0  0  0  0  0  0
  -21.8220   -5.1530   22.5560 C   0  0  0  0  0  0  0  0  0  0  0  0
  -22.2260   -4.5110   21.4340 F   0  0  0  0  0  0  0  0  0  0  0  0
  -20.9490   -4.3700   26.0330 F   0  0  0  0  0  0  0  0  0  0  0  0
  -23.5830  -13.7040   21.2410 C   0  0  0  0  0  0  0  0  0  0  0  0
  -22.9210  -13.0510   22.1890 N   0  0  0  0  0  0  0  0  0  0  0  0
  -23.1860  -14.7930   20.8240 O   0  0  0  0  0  0  0  0  0  0  0  0
  -23.2560  -12.1680   22.5460 H   0  0  0  0  0  0  0  0  0  0  0  0
  -22.0670  -13.4390   22.5630 H   0  0  0  0  0  0  0  0  0  0  0  0
  -26.2630  -15.1220   20.1470 N   0  0  0  0  0  0  0  0  0  0  0  0
  -25.6220  -15.8570   20.4170 H   0  0  0  0  0  0  0  0  0  0  0  0
  -27.1340  -15.4810   19.7700 H   0  0  0  0  0  0  0  0  0  0  0  0
  1 53  1  0
  2  3  1  0
  3  1  1  0
  3  5  1  0
  4  2  2  0
  6  2  1  0
  6 11  1  0
  7  8  1  0
  7  6  1  0
  9  7  1  0
 10  7  1  0
 12 14  1  0
 12 11  1  0
 13 24  2  0
 14 19  1  0
 15 23  1  0
 15 25  1  0
 16 22  1  0
 16 18  1  0
 17 23  1  0
 18 17  1  0
 19 18  2  0
 20 21  1  0
 20 14  2  0
 21 16  2  0
 22 15  1  0
 23 13  1  0
 25 27  2  0
 26 25  1  0
 28 26  1  0
 29 38  2  0
 29 34  1  0
 30 26  1  0
 30 34  1  0
 31 30  1  0
 32 33  1  0
 32 31  1  0
 33 29  1  0
 34 35  2  0
 35 36  1  0
 37 36  2  0
 38 37  1  0
 39 13  1  0
 39 44  1  0
 39 40  1  0
 40 43  1  1
 40 41  1  0
 42 40  1  0
 44 47  1  0
 45 49  1  0
 45 44  1  0
 46 45  2  0
 49 48  1  0
 51 49  1  0
 51 52  1  0
 51 50  1  0
 53 54  2  0
 55 53  1  0
 56 57  1  0
 57 55  1  0
 58 61  1  0
 59 58  1  0
 60 62  1  0
 61 74  1  0
 62 57  1  0
 62 61  1  0
 63 60  1  0
 63 59  1  0
 64 63  1  0
 65 63  1  0
 66 72  1  0
 66 74  1  0
 67 72  1  0
 68 69  1  0
 68 67  1  0
 70 69  1  0
 70 79  1  0
 70 71  1  0
 72 71  1  0
 73 66  2  0
 74 75  1  0
 76 77  2  0
 77 96  1  0
 78 77  1  0
 78 81  1  0
 79 80  1  0
 79 76  1  0
 80 78  2  0
 81 82  1  0
 82 83  2  0
 84 87  1  0
 84 83  1  0
 85 84  2  0
 86 85  1  0
 86 81  2  0
 87 88  1  0
 88 93  2  0
 88 89  1  0
 89 90  2  0
 90 91  1  0
 91 95  1  0
 92 91  2  0
 93 92  1  0
 94 93  1  0
 96 97  1  0
 97 99  1  0
 97100  1  0
 98 96  2  0
101 76  1  0
101102  1  0
103101  1  0
M  ISO  4  11 101  12 101  66 100  74 100
M  END
>  <TORSDO>  (36) 
F 24

>  <SCORE>  (36) 
-11.676

>  <name>  (36) 
35

>  <ligand_id>  (36) 
35

>  <original_smiles>  (36) 
[H]c1c([H])c([H])c2c(c1[H])C([H])([H])C([H])([H])C([H])([H])C2([H])N([H])C(=O)C1([H])N(C(=O)C([H])(N([H])C(=O)C([H])(N([H])C([H])([H])[H])C([H])([H])[H])C(C([H])([H])[H])(C([H])([H])[H])C([H])([H])[H])C([H])([H])c2c([H])c(OC([H])([H])C([H])(C(=O)N([H])C([H])([H])C(=O)C([H])([H])N(C([H])([H])[H])C3([H])C([H])(N([H])C(=O)N4C([H])([H])C([H])([H])C([H])([H])C([H])(n5nc(-c6c([H])c([H])c(Oc7c([H])c([H])c(F)c([H])c7F)c([H])c6[H])c(C(=O)N([H])[H])c5N([H])[H])C4([H])[H])C([H])([H])C([H])([H])[N+]([H])([H])C3([H])[H])[N+]([H])([H])[H])c([H])c([H])c2C1([H])[H]

>  <smiles>  (36) 
[H]c1c([H])c([H])c2c(c1[H])C([H])([H])C([H])([H])C([H])([H])C2([H])N([H])C(=O)C1([H])N(C(=O)C([H])(N([H])C(=O)C([H])(N([H])C([H])([H])[H])C([H])([H])[H])C(C([H])([H])[H])(C([H])([H])[H])C([H])([H])[H])C([H])([H])c2c([H])c(OC([H])([H])C([H])(C(=O)N([H])C([H])([H])C(=O)C([H])([H])N(C([H])([H])[H])C3([H])C([H])(N([H])C(=O)N4C([H])([H])C([H])([H])C([H])([H])C([H])(n5nc(-c6c([H])c([H])c(Oc7c([H])c([H])c(F)c([H])c7F)c([H])c6[H])c(C(=O)N([H])[H])c5N([H])[H])C4([H])[H])C([H])([H])C([H])([H])[N+]([H])([H])C3([H])[H])[N+]([H])([H])[H])c([H])c([H])c2C1([H])[H]

$$$$
36:0:0
     RDKit          3D

 98106  0  0  1  0  0  0  0  0999 V2000
  -30.9160  -19.2280   21.5740 C   0  0  0  0  0  3  0  0  0  0  0  0
  -30.8140  -17.8470   21.8610 C   0  0  0  0  0  3  0  0  0  0  0  0
  -29.4040  -18.9370   19.7000 C   0  0  0  0  0  3  0  0  0  0  0  0
  -30.2120  -19.7820   20.4830 C   0  0  0  0  0  0  0  0  0  0  0  0
  -29.2640  -17.5620   19.9920 C   0  0  0  0  0  0  0  0  0  0  0  0
  -30.0030  -16.9930   21.0740 C   0  0  0  0  0  0  0  0  0  0  0  0
  -30.6960  -14.6150   21.1460 C   0  0  0  0  0  0  0  0  0  0  0  0
  -30.5950  -12.3600   20.1510 C   0  0  0  0  0  2  0  0  0  0  0  0
  -29.7610  -12.4270   18.8540 C   0  0  0  0  0  2  0  0  0  0  0  0
  -28.2480  -12.3180   19.1450 C   0  0  0  0  0  2  0  0  0  0  0  0
  -27.7790  -13.2140   20.3230 C   0  0  0  0  0  3  0  0  0  0  0  0
  -28.7330  -13.0830   21.5310 C   0  0  0  0  0  2  0  0  0  0  0  0
  -30.0950  -13.3960   21.0660 N   0  0  0  0  0  0  0  0  0  0  0  0
  -31.8690  -14.8140   20.8130 O   0  0  0  0  0  0  0  0  0  0  0  0
  -29.8660  -15.6250   21.4720 N   0  0  0  0  0  0  0  0  0  0  0  0
  -28.9350  -15.3280   21.7190 H   0  0  0  0  0  0  0  0  0  0  0  0
  -25.3270  -13.8110   20.8380 C   0  0  0  0  0  0  0  0  0  0  0  0
  -24.2380  -13.0320   21.1240 C   0  0  0  0  0  0  0  0  0  0  0  0
  -24.7100  -11.6840   21.1310 C   0  0  0  0  0  0  0  0  0  0  0  0
  -26.3930  -12.9360   20.6920 N   0  0  0  0  0  0  0  0  0  0  0  0
  -26.0190  -11.6520   20.9270 N   0  0  0  0  0  0  0  0  0  0  0  0
  -23.9810  -10.4170   21.2640 C   0  0  0  0  0  0  0  0  0  0  0  0
  -24.3470   -9.4530   22.2290 C   0  0  0  0  0  3  0  0  0  0  0  0
  -23.6220   -8.2480   22.3480 C   0  0  0  0  0  3  0  0  0  0  0  0
  -22.5160   -7.9990   21.5010 C   0  0  0  0  0  0  0  0  0  0  0  0
  -22.1700   -8.9510   20.5270 C   0  0  0  0  0  3  0  0  0  0  0  0
  -22.8960  -10.1480   20.4050 C   0  0  0  0  0  3  0  0  0  0  0  0
  -21.7680   -6.8470   21.5290 O   0  0  0  0  0  0  0  0  0  0  0  0
  -21.6370   -6.1020   22.6720 C   0  0  0  0  0  0  0  0  0  0  0  0
  -21.0700   -6.6360   23.8500 C   0  0  0  0  0  3  0  0  0  0  0  0
  -20.8920   -5.8140   24.9800 C   0  0  0  0  0  3  0  0  0  0  0  0
  -21.2690   -4.4580   24.9330 C   0  0  0  0  0  0  0  0  0  0  0  0
  -21.8280   -3.9230   23.7600 C   0  0  0  0  0  3  0  0  0  0  0  0
  -22.0080   -4.7430   22.6310 C   0  0  0  0  0  0  0  0  0  0  0  0
  -22.5270   -4.2160   21.4960 F   0  0  0  0  0  0  0  0  0  0  0  0
  -21.0910   -3.6660   26.0160 F   0  0  0  0  0  0  0  0  0  0  0  0
  -22.8210  -13.4990   21.2840 C   0  0  0  0  0  0  0  0  0  0  0  0
  -22.0320  -12.7950   22.0880 N   0  0  0  0  0  0  0  0  0  0  0  0
  -22.4170  -14.5220   20.7310 O   0  0  0  0  0  0  0  0  0  0  0  0
  -22.3690  -11.9660   22.5560 H   0  0  0  0  0  0  0  0  0  0  0  0
  -21.0770  -13.0890   22.2410 H   0  0  0  0  0  0  0  0  0  0  0  0
  -25.4980  -15.1820   20.6710 N   0  0  0  0  0  0  0  0  0  0  0  0
  -24.7130  -15.8250   20.6960 H   0  0  0  0  0  0  0  0  0  0  0  0
  -26.3550  -15.6160   20.3530 H   0  0  0  0  0  0  0  0  0  0  0  0
  -28.3470  -16.7750   19.1030 C   0  0  0  0  0  0  0  0  0  0  0  0
  -27.1160  -17.2550   18.9790 N   0  0  0  0  0  0  0  0  0  0  0  0
  -28.7200  -15.7670   18.5130 O   0  0  0  0  0  0  0  0  0  0  0  0
  -26.8510  -18.1010   19.4640 H   0  0  0  0  0  0  0  0  0  0  0  0
  -26.4530  -16.8040   18.3660 H   0  0  0  0  0  0  0  0  0  0  0  0
  -30.3500  -21.2030   20.0610 C   0  0  0  0  0  0  0  0  0  0  0  0
  -30.6300  -21.5170   18.8960 O   0  0  0  0  0  0  0  0  0  0  0  0
  -30.0360  -22.3030   21.0850 C   0  0  0  0  0  2  0  0  0  0  0  0
  -28.8800  -24.4980   20.6620 C   0  0  0  0  0  0  0  0  0  0  0  0
  -29.8050  -23.5710   20.3810 N   0  0  0  0  0  0  0  0  0  0  0  0
  -28.1560  -24.4260   21.6570 O   0  0  0  0  0  0  0  0  0  0  0  0
  -30.3400  -23.6820   19.5280 H   0  0  0  0  0  0  0  0  0  0  0  0
  -28.7490  -25.6700   19.6710 C   0  0  0  0  0  2  0  0  0  0  0  0
  -28.5080  -26.8980   20.3690 O   0  0  0  0  0  0  0  0  0  0  0  0
  -24.5640  -31.9870   23.3320 C   0  0  0  0  0  0  0  0  0  0  0  0
  -27.2830  -27.5370   20.3310 C   0  0  0  0  0  0  0  0  0  0  0  0
  -23.3830  -30.5610   21.6900 C   0  0  0  0  0  3  0  0  0  0  0  0
  -24.8620  -29.0100   20.3050 C   0  0  0  0  0  0  0  0  0  0  0  0
  -25.9060  -30.9350   21.5150 C   0  0  0  0  0  2  0  0  0  0  0  0
  -26.0060  -29.5540   20.8990 C   0  0  0  0  0  0  0  0  0  0  0  0
  -27.2120  -28.8220   20.9140 C   0  0  0  0  0  3  0  0  0  0  0  0
  -26.1130  -26.9940   19.7490 C   0  0  0  0  0  3  0  0  0  0  0  0
  -24.9090  -27.7270   19.7320 C   0  0  0  0  0  3  0  0  0  0  0  0
  -23.6110  -29.8580   20.3240 C   0  0  0  0  0  2  0  0  0  0  0  0
  -24.6340  -31.1780   22.2380 N   0  0  0  0  0  0  0  0  0  0  0  0
  -23.4750  -32.2600   23.8570 O   0  0  0  0  0  0  0  0  0  0  0  0
  -22.7240  -29.5510   22.6560 C   0  0  0  0  0  0  0  0  0  0  0  0
  -21.4060  -29.3460   22.5000 N   0  0  0  0  0  0  0  0  0  0  0  0
  -23.3970  -28.9510   23.4990 O   0  0  0  0  0  0  0  0  0  0  0  0
  -20.9240  -29.8860   21.7950 H   0  0  0  0  0  0  0  0  0  0  0  0
  -18.0420  -28.1020   22.9160 C   0  0  0  0  0  0  0  0  0  0  0  0
  -20.5830  -28.4110   23.2640 C   0  0  0  0  0  3  0  0  0  0  0  0
  -20.7290  -26.9690   22.7220 C   0  0  0  0  0  2  0  0  0  0  0  0
  -19.6660  -26.6050   21.6820 C   0  0  0  0  0  2  0  0  0  0  0  0
  -18.2620  -26.7420   22.2790 C   0  0  0  0  0  2  0  0  0  0  0  0
  -19.1310  -28.8920   23.3650 C   0  0  0  0  0  0  0  0  0  0  0  0
  -18.8720  -30.1660   23.9170 C   0  0  0  0  0  3  0  0  0  0  0  0
  -17.5560  -30.6480   24.0280 C   0  0  0  0  0  3  0  0  0  0  0  0
  -16.4770  -29.8530   23.6000 C   0  0  0  0  0  3  0  0  0  0  0  0
  -16.7210  -28.5830   23.0490 C   0  0  0  0  0  3  0  0  0  0  0  0
  -25.8410  -32.6290   23.9620 C   0  0  0  0  0  3  0  0  0  0  0  0
  -25.5300  -34.0350   24.2500 N   0  0  0  0  0  0  0  0  0  0  0  0
  -25.8820  -35.0670   23.4730 C   0  0  0  0  0  0  0  0  0  0  0  0
  -26.5730  -34.9370   22.4580 O   0  0  0  0  0  0  0  0  0  0  0  0
  -24.9230  -34.2100   25.0370 H   0  0  0  0  0  0  0  0  0  0  0  0
  -24.1720  -36.8570   23.0330 C   0  0  0  0  0  1  0  0  0  0  0  0
  -25.3900  -36.4670   23.8850 C   0  0  0  0  0  3  0  0  0  0  0  0
  -27.5050  -37.3670   24.7500 C   0  0  0  0  0  1  0  0  0  0  0  0
  -26.4290  -37.5140   23.7730 N   0  0  0  0  0  0  0  0  0  0  0  0
  -26.0220  -38.4380   23.8840 H   0  0  0  0  0  0  0  0  0  0  0  0
  -26.3330  -31.8870   25.2650 C   0  0  1  0  0  0  0  0  0  0  0  0
  -25.2190  -31.6680   26.3150 C   0  0  0  0  0  1  0  0  0  0  0  0
  -26.9260  -30.5030   24.9100 C   0  0  0  0  0  1  0  0  0  0  0  0
  -27.4670  -32.6980   25.9360 C   0  0  0  0  0  1  0  0  0  0  0  0
  1  2  1  0
  3  5  2  0
  3  4  1  0
  4  1  2  0
  5  6  1  0
  6 15  1  0
  6  2  2  0
  7 15  1  0
  8 13  1  0
  9 10  1  0
  9  8  1  0
 11 10  1  0
 11 20  1  0
 11 12  1  0
 13  7  1  0
 13 12  1  0
 14  7  2  0
 15 16  1  0
 17 18  2  0
 18 19  1  0
 18 37  1  0
 19 22  1  0
 20 17  1  0
 20 21  1  0
 21 19  2  0
 22 23  1  0
 23 24  2  0
 25 28  1  0
 25 24  1  0
 26 25  2  0
 27 26  1  0
 27 22  2  0
 28 29  1  0
 29 30  1  0
 30 31  2  0
 32 31  1  0
 32 36  1  0
 33 32  2  0
 34 29  2  0
 34 33  1  0
 35 34  1  0
 37 38  1  0
 38 41  1  0
 38 40  1  0
 39 37  2  0
 42 43  1  0
 42 17  1  0
 44 42  1  0
 45  5  1  0
 46 45  1  0
 46 48  1  0
 47 45  2  0
 49 46  1  0
 50  4  1  0
 50 52  1  0
 51 50  2  0
 53 55  2  0
 54 53  1  0
 54 52  1  0
 56 54  1  0
 57 58  1  0
 57 53  1  0
 59 70  2  0
 60 58  1  0
 60 65  1  0
 61 69  1  0
 61 71  1  0
 62 68  1  0
 62 64  1  0
 63 69  1  0
 64 65  2  0
 64 63  1  0
 66 60  2  0
 67 66  1  0
 67 62  2  0
 68 61  1  0
 69 59  1  0
 71 73  2  0
 72 71  1  0
 74 72  1  0
 75 84  2  0
 75 80  1  0
 76 72  1  0
 76 80  1  0
 77 76  1  0
 78 79  1  0
 78 77  1  0
 79 75  1  0
 80 81  2  0
 81 82  1  0
 83 82  2  0
 84 83  1  0
 85 59  1  0
 85 86  1  0
 85 95  1  0
 86 89  1  0
 87 91  1  0
 87 86  1  0
 88 87  2  0
 91 90  1  0
 93 94  1  0
 93 91  1  0
 93 92  1  0
 95 98  1  1
 95 96  1  0
 97 95  1  0
M  ISO  4   7 100  15 100  57 101  58 101
M  END
>  <TORSDO>  (37) 
F 21

>  <SCORE>  (37) 
-13.106

>  <name>  (37) 
36

>  <ligand_id>  (37) 
36

>  <original_smiles>  (37) 
[H]c1c([H])c([H])c2c(c1[H])C([H])([H])C([H])([H])C([H])([H])C2([H])N([H])C(=O)C1([H])N(C(=O)C([H])(N([H])C(=O)C([H])(N([H])C([H])([H])[H])C([H])([H])[H])C(C([H])([H])[H])(C([H])([H])[H])C([H])([H])[H])C([H])([H])c2c([H])c(OC([H])([H])C(=O)N([H])C([H])([H])C(=O)c3c([H])c([H])c(N([H])C(=O)N4C([H])([H])C([H])([H])C([H])([H])C([H])(n5nc(-c6c([H])c([H])c(Oc7c([H])c([H])c(F)c([H])c7F)c([H])c6[H])c(C(=O)N([H])[H])c5N([H])[H])C4([H])[H])c(C(=O)N([H])[H])c3[H])c([H])c([H])c2C1([H])[H]

>  <smiles>  (37) 
[H]c1c([H])c([H])c2c(c1[H])C([H])([H])C([H])([H])C([H])([H])C2([H])N([H])C(=O)C1([H])N(C(=O)C([H])(N([H])C(=O)C([H])(N([H])C([H])([H])[H])C([H])([H])[H])C(C([H])([H])[H])(C([H])([H])[H])C([H])([H])[H])C([H])([H])c2c([H])c(OC([H])([H])C(=O)N([H])C([H])([H])C(=O)c3c([H])c([H])c(N([H])C(=O)N4C([H])([H])C([H])([H])C([H])([H])C([H])(n5nc(-c6c([H])c([H])c(Oc7c([H])c([H])c(F)c([H])c7F)c([H])c6[H])c(C(=O)N([H])[H])c5N([H])[H])C4([H])[H])c(C(=O)N([H])[H])c3[H])c([H])c([H])c2C1([H])[H]

$$$$
37:0:0
     RDKit          3D

 97105  0  0  1  0  0  0  0  0999 V2000
  -30.2380  -19.1420   22.4420 C   0  0  0  0  0  3  0  0  0  0  0  0
  -30.5950  -17.7670   22.3750 C   0  0  0  0  0  3  0  0  0  0  0  0
  -29.4350  -19.0210   20.1700 C   0  0  0  0  0  3  0  0  0  0  0  0
  -29.7600  -17.6390   20.0880 C   0  0  0  0  0  0  0  0  0  0  0  0
  -29.5950  -19.7760   21.3530 C   0  0  0  0  0  0  0  0  0  0  0  0
  -30.3370  -16.9750   21.2220 C   0  0  0  0  0  0  0  0  0  0  0  0
  -31.0430  -14.6220   20.5590 C   0  0  0  0  0  0  0  0  0  0  0  0
  -30.7560  -12.4640   19.3670 C   0  0  0  0  0  2  0  0  0  0  0  0
  -29.8310  -12.6480   18.1440 C   0  0  0  0  0  2  0  0  0  0  0  0
  -28.3480  -12.5340   18.5410 C   0  0  0  0  0  2  0  0  0  0  0  0
  -27.9940  -13.3760   19.7960 C   0  0  0  0  0  3  0  0  0  0  0  0
  -29.0240  -13.1380   20.9260 C   0  0  0  0  0  2  0  0  0  0  0  0
  -30.3700  -13.4430   20.4000 N   0  0  0  0  0  0  0  0  0  0  0  0
  -32.1230  -14.8530   20.0070 O   0  0  0  0  0  0  0  0  0  0  0  0
  -30.4440  -15.5360   21.3640 N   0  0  0  0  0  0  0  0  0  0  0  0
  -29.7610  -15.1240   21.9820 H   0  0  0  0  0  0  0  0  0  0  0  0
  -25.5870  -14.0130   20.4400 C   0  0  0  0  0  0  0  0  0  0  0  0
  -24.5030  -13.2560   20.7950 C   0  0  0  0  0  0  0  0  0  0  0  0
  -24.9510  -11.9000   20.7890 C   0  0  0  0  0  0  0  0  0  0  0  0
  -26.6260  -13.1170   20.2420 N   0  0  0  0  0  0  0  0  0  0  0  0
  -26.2470  -11.8420   20.5100 N   0  0  0  0  0  0  0  0  0  0  0  0
  -24.2080  -10.6500   20.9770 C   0  0  0  0  0  0  0  0  0  0  0  0
  -24.6100   -9.6930   21.9320 C   0  0  0  0  0  3  0  0  0  0  0  0
  -23.8710   -8.5040   22.1060 C   0  0  0  0  0  3  0  0  0  0  0  0
  -22.7170   -8.2650   21.3220 C   0  0  0  0  0  0  0  0  0  0  0  0
  -22.3330   -9.2120   20.3550 C   0  0  0  0  0  3  0  0  0  0  0  0
  -23.0730  -10.3930   20.1810 C   0  0  0  0  0  3  0  0  0  0  0  0
  -21.9480   -7.1300   21.4090 O   0  0  0  0  0  0  0  0  0  0  0  0
  -21.8520   -6.4120   22.5740 C   0  0  0  0  0  0  0  0  0  0  0  0
  -21.3740   -6.9910   23.7700 C   0  0  0  0  0  3  0  0  0  0  0  0
  -21.2210   -6.1950   24.9230 C   0  0  0  0  0  3  0  0  0  0  0  0
  -21.5380   -4.8240   24.8830 C   0  0  0  0  0  0  0  0  0  0  0  0
  -22.0100   -4.2460   23.6920 C   0  0  0  0  0  3  0  0  0  0  0  0
  -22.1650   -5.0380   22.5400 C   0  0  0  0  0  0  0  0  0  0  0  0
  -22.5990   -4.4700   21.3900 F   0  0  0  0  0  0  0  0  0  0  0  0
  -21.3890   -4.0590   25.9900 F   0  0  0  0  0  0  0  0  0  0  0  0
  -23.1070  -13.7530   21.0370 C   0  0  0  0  0  0  0  0  0  0  0  0
  -22.3610  -13.0830   21.9060 N   0  0  0  0  0  0  0  0  0  0  0  0
  -22.6830  -14.7740   20.4960 O   0  0  0  0  0  0  0  0  0  0  0  0
  -22.7140  -12.2610   22.3750 H   0  0  0  0  0  0  0  0  0  0  0  0
  -21.4250  -13.4010   22.1110 H   0  0  0  0  0  0  0  0  0  0  0  0
  -25.7690  -15.3790   20.2570 N   0  0  0  0  0  0  0  0  0  0  0  0
  -25.0080  -16.0440   20.3440 H   0  0  0  0  0  0  0  0  0  0  0  0
  -26.6420  -15.8030   19.9760 H   0  0  0  0  0  0  0  0  0  0  0  0
  -29.4000  -16.9340   18.8050 C   0  0  0  0  0  0  0  0  0  0  0  0
  -28.1750  -17.1620   18.3490 N   0  0  0  0  0  0  0  0  0  0  0  0
  -30.1720  -16.1850   18.2170 O   0  0  0  0  0  0  0  0  0  0  0  0
  -27.5750  -17.8150   18.8270 H   0  0  0  0  0  0  0  0  0  0  0  0
  -27.8560  -16.7110   17.5040 H   0  0  0  0  0  0  0  0  0  0  0  0
  -28.8290  -21.1160   21.5020 C   0  0  0  0  0  2  0  0  0  0  0  0
  -29.0810  -23.5270   20.8700 C   0  0  0  0  0  0  0  0  0  0  0  0
  -29.5210  -22.4300   21.5500 N   0  0  0  0  0  0  0  0  0  0  0  0
  -28.7200  -23.4430   19.6950 O   0  0  0  0  0  0  0  0  0  0  0  0
  -29.9870  -22.6100   22.4290 H   0  0  0  0  0  0  0  0  0  0  0  0
  -28.8490  -24.8650   21.6430 C   0  0  0  0  0  2  0  0  0  0  0  0
  -29.4080  -26.2230   21.0810 C   0  0  0  0  0  2  0  0  0  0  0  0
  -28.7370  -26.8140   19.9500 O   0  0  0  0  0  0  0  0  0  0  0  0
  -24.6800  -31.8380   23.1960 C   0  0  0  0  0  0  0  0  0  0  0  0
  -27.5640  -27.5320   20.1020 C   0  0  0  0  0  0  0  0  0  0  0  0
  -23.5660  -30.4280   21.4990 C   0  0  0  0  0  3  0  0  0  0  0  0
  -25.1110  -28.9640   20.0920 C   0  0  0  0  0  0  0  0  0  0  0  0
  -26.0840  -30.8720   21.3740 C   0  0  0  0  0  2  0  0  0  0  0  0
  -26.2370  -29.5100   20.7210 C   0  0  0  0  0  0  0  0  0  0  0  0
  -27.4710  -28.8010   20.7290 C   0  0  0  0  0  3  0  0  0  0  0  0
  -26.4190  -27.0090   19.4730 C   0  0  0  0  0  3  0  0  0  0  0  0
  -25.1950  -27.7050   19.4740 C   0  0  0  0  0  3  0  0  0  0  0  0
  -23.8340  -29.7800   20.1180 C   0  0  0  0  0  2  0  0  0  0  0  0
  -24.7930  -31.0640   22.0800 N   0  0  0  0  0  0  0  0  0  0  0  0
  -23.5780  -32.0550   23.7170 O   0  0  0  0  0  0  0  0  0  0  0  0
  -22.9270  -29.3680   22.4260 C   0  0  0  0  0  0  0  0  0  0  0  0
  -21.6060  -29.1680   22.2940 N   0  0  0  0  0  0  0  0  0  0  0  0
  -23.6220  -28.7270   23.2190 O   0  0  0  0  0  0  0  0  0  0  0  0
  -21.1060  -29.7260   21.6160 H   0  0  0  0  0  0  0  0  0  0  0  0
  -18.2500  -27.9250   22.8170 C   0  0  0  0  0  0  0  0  0  0  0  0
  -20.8090  -28.1930   23.0410 C   0  0  0  0  0  3  0  0  0  0  0  0
  -20.9100  -26.7870   22.4050 C   0  0  0  0  0  2  0  0  0  0  0  0
  -19.7870  -26.4840   21.4080 C   0  0  0  0  0  2  0  0  0  0  0  0
  -18.4180  -26.6050   22.0850 C   0  0  0  0  0  2  0  0  0  0  0  0
  -19.3720  -28.6800   23.2510 C   0  0  0  0  0  0  0  0  0  0  0  0
  -19.1560  -29.9200   23.8920 C   0  0  0  0  0  3  0  0  0  0  0  0
  -17.8510  -30.4020   24.1070 C   0  0  0  0  0  3  0  0  0  0  0  0
  -16.7440  -29.6400   23.6960 C   0  0  0  0  0  3  0  0  0  0  0  0
  -16.9450  -28.4030   23.0580 C   0  0  0  0  0  3  0  0  0  0  0  0
  -25.9250  -32.5060   23.8530 C   0  0  0  0  0  3  0  0  0  0  0  0
  -25.5640  -33.8940   24.1740 N   0  0  0  0  0  0  0  0  0  0  0  0
  -25.8870  -34.9560   23.4240 C   0  0  0  0  0  0  0  0  0  0  0  0
  -26.5860  -34.8730   22.4100 O   0  0  0  0  0  0  0  0  0  0  0  0
  -24.9420  -34.0270   24.9570 H   0  0  0  0  0  0  0  0  0  0  0  0
  -24.1110  -36.6940   23.0260 C   0  0  0  0  0  1  0  0  0  0  0  0
  -25.3460  -36.3310   23.8650 C   0  0  0  0  0  3  0  0  0  0  0  0
  -27.4330  -37.2860   24.7400 C   0  0  0  0  0  1  0  0  0  0  0  0
  -26.3470  -37.4150   23.7720 N   0  0  0  0  0  0  0  0  0  0  0  0
  -25.9090  -38.3230   23.9040 H   0  0  0  0  0  0  0  0  0  0  0  0
  -26.4290  -31.7480   25.1430 C   0  0  1  0  0  0  0  0  0  0  0  0
  -25.3160  -31.4740   26.1800 C   0  0  0  0  0  1  0  0  0  0  0  0
  -27.0630  -30.3890   24.7650 C   0  0  0  0  0  1  0  0  0  0  0  0
  -27.5360  -32.5740   25.8370 C   0  0  0  0  0  1  0  0  0  0  0  0
  2  1  1  0
  3  5  1  0
  4  3  2  0
  4  6  1  0
  5 50  1  0
  5  1  2  0
  6 15  1  0
  6  2  2  0
  7 15  1  0
  8 13  1  0
  9 10  1  0
  9  8  1  0
 11 10  1  0
 11 20  1  0
 11 12  1  0
 13  7  1  0
 13 12  1  0
 14  7  2  0
 15 16  1  0
 17 18  2  0
 18 37  1  0
 19 18  1  0
 19 22  1  0
 20 17  1  0
 20 21  1  0
 21 19  2  0
 22 23  1  0
 23 24  2  0
 25 28  1  0
 25 24  1  0
 26 25  2  0
 27 26  1  0
 27 22  2  0
 28 29  1  0
 29 30  1  0
 30 31  2  0
 32 31  1  0
 32 36  1  0
 33 32  2  0
 34 29  2  0
 34 33  1  0
 35 34  1  0
 37 38  1  0
 38 41  1  0
 38 40  1  0
 39 37  2  0
 42 43  1  0
 42 17  1  0
 44 42  1  0
 45  4  1  0
 46 45  1  0
 46 48  1  0
 47 45  2  0
 49 46  1  0
 50 52  1  0
 51 52  1  0
 51 55  1  0
 52 54  1  0
 53 51  2  0
 56 55  1  0
 57 59  1  0
 57 56  1  0
 58 69  2  0
 59 64  1  0
 60 68  1  0
 60 70  1  0
 61 67  1  0
 61 63  1  0
 62 68  1  0
 63 64  2  0
 63 62  1  0
 65 66  1  0
 65 59  2  0
 66 61  2  0
 67 60  1  0
 68 58  1  0
 70 72  2  0
 71 70  1  0
 73 71  1  0
 74 83  2  0
 74 79  1  0
 75 71  1  0
 75 79  1  0
 76 75  1  0
 77 78  1  0
 77 76  1  0
 78 74  1  0
 79 80  2  0
 80 81  1  0
 82 81  2  0
 83 82  1  0
 84 58  1  0
 84 85  1  0
 84 94  1  0
 85 88  1  0
 86 90  1  0
 86 85  1  0
 87 86  2  0
 90 89  1  0
 92 90  1  0
 92 93  1  0
 92 91  1  0
 94 97  1  1
 94 95  1  0
 96 94  1  0
M  ISO  4   7 100  15 100  56 101  57 101
M  END
>  <TORSDO>  (38) 
F 21

>  <SCORE>  (38) 
-12.495

>  <name>  (38) 
37

>  <ligand_id>  (38) 
37

>  <original_smiles>  (38) 
[H]c1c([H])c([H])c2c(c1[H])C([H])([H])C([H])([H])C([H])([H])C2([H])N([H])C(=O)C1([H])N(C(=O)C([H])(N([H])C(=O)C([H])(N([H])C([H])([H])[H])C([H])([H])[H])C(C([H])([H])[H])(C([H])([H])[H])C([H])([H])[H])C([H])([H])c2c([H])c(OC([H])([H])C([H])([H])C(=O)N([H])C([H])([H])c3c([H])c([H])c(N([H])C(=O)N4C([H])([H])C([H])([H])C([H])([H])C([H])(n5nc(-c6c([H])c([H])c(Oc7c([H])c([H])c(F)c([H])c7F)c([H])c6[H])c(C(=O)N([H])[H])c5N([H])[H])C4([H])[H])c(C(=O)N([H])[H])c3[H])c([H])c([H])c2C1([H])[H]

>  <smiles>  (38) 
[H]c1c([H])c([H])c2c(c1[H])C([H])([H])C([H])([H])C([H])([H])C2([H])N([H])C(=O)C1([H])N(C(=O)C([H])(N([H])C(=O)C([H])(N([H])C([H])([H])[H])C([H])([H])[H])C(C([H])([H])[H])(C([H])([H])[H])C([H])([H])[H])C([H])([H])c2c([H])c(OC([H])([H])C([H])([H])C(=O)N([H])C([H])([H])c3c([H])c([H])c(N([H])C(=O)N4C([H])([H])C([H])([H])C([H])([H])C([H])(n5nc(-c6c([H])c([H])c(Oc7c([H])c([H])c(F)c([H])c7F)c([H])c6[H])c(C(=O)N([H])[H])c5N([H])[H])C4([H])[H])c(C(=O)N([H])[H])c3[H])c([H])c([H])c2C1([H])[H]

$$$$
38:0:0
     RDKit          3D

 94103  0  0  1  0  0  0  0  0999 V2000
  -29.6030  -20.1240   21.1920 C   0  0  0  0  0  2  0  0  0  0  0  0
  -29.3460  -19.6100   19.7890 C   0  0  0  0  0  3  0  0  0  0  0  0
  -29.7050  -21.1560   20.0720 C   0  0  0  0  0  3  0  0  0  0  0  0
  -31.9960  -17.4040   17.0040 C   0  0  0  0  0  3  0  0  0  0  0  0
  -31.5490  -16.6740   18.1080 C   0  0  0  0  0  3  0  0  0  0  0  0
  -31.5830  -18.7220   16.8500 C   0  0  0  0  0  3  0  0  0  0  0  0
  -30.2920  -18.6230   18.9870 C   0  0  0  0  0  0  0  0  0  0  0  0
  -30.7130  -17.1970   19.1440 C   0  0  0  0  0  0  0  0  0  0  0  0
  -30.7370  -19.2970   17.8030 C   0  0  0  0  0  0  0  0  0  0  0  0
  -30.3080  -20.5500   17.5160 F   0  0  0  0  0  0  0  0  0  0  0  0
  -31.0020  -14.9320   20.3540 C   0  0  0  0  0  0  0  0  0  0  0  0
  -30.7330  -12.6490   19.4190 C   0  0  0  0  0  2  0  0  0  0  0  0
  -29.8190  -12.7160   18.1770 C   0  0  0  0  0  2  0  0  0  0  0  0
  -28.3420  -12.5820   18.5890 C   0  0  0  0  0  2  0  0  0  0  0  0
  -27.9610  -13.4950   19.7860 C   0  0  0  0  0  3  0  0  0  0  0  0
  -29.0050  -13.4380   20.9210 C   0  0  0  0  0  2  0  0  0  0  0  0
  -30.3080  -13.7440   20.3210 N   0  0  0  0  0  0  0  0  0  0  0  0
  -32.2320  -14.9030   20.2740 O   0  0  0  0  0  0  0  0  0  0  0  0
  -30.3340  -16.1470   20.1420 N   0  0  0  0  0  0  0  0  0  0  0  0
  -29.3670  -16.1590   20.4310 H   0  0  0  0  0  0  0  0  0  0  0  0
  -25.5680  -14.1180   20.4620 C   0  0  0  0  0  0  0  0  0  0  0  0
  -24.4850  -13.3600   20.8110 C   0  0  0  0  0  0  0  0  0  0  0  0
  -24.9340  -12.0030   20.8120 C   0  0  0  0  0  0  0  0  0  0  0  0
  -26.6070  -13.2240   20.2620 N   0  0  0  0  0  0  0  0  0  0  0  0
  -26.2320  -11.9480   20.5410 N   0  0  0  0  0  0  0  0  0  0  0  0
  -24.1880  -10.7520   20.9950 C   0  0  0  0  0  0  0  0  0  0  0  0
  -24.5790   -9.7930   21.9570 C   0  0  0  0  0  3  0  0  0  0  0  0
  -23.8340   -8.6060   22.1290 C   0  0  0  0  0  3  0  0  0  0  0  0
  -22.6830   -8.3690   21.3400 C   0  0  0  0  0  0  0  0  0  0  0  0
  -22.3120   -9.3150   20.3690 C   0  0  0  0  0  3  0  0  0  0  0  0
  -23.0580  -10.4930   20.1950 C   0  0  0  0  0  3  0  0  0  0  0  0
  -21.9140   -7.2330   21.4210 O   0  0  0  0  0  0  0  0  0  0  0  0
  -21.8110   -6.5130   22.5850 C   0  0  0  0  0  0  0  0  0  0  0  0
  -21.3330   -7.0960   23.7800 C   0  0  0  0  0  3  0  0  0  0  0  0
  -21.1780   -6.3030   24.9340 C   0  0  0  0  0  3  0  0  0  0  0  0
  -21.4890   -4.9300   24.8940 C   0  0  0  0  0  0  0  0  0  0  0  0
  -21.9590   -4.3490   23.7040 C   0  0  0  0  0  3  0  0  0  0  0  0
  -22.1160   -5.1380   22.5520 C   0  0  0  0  0  0  0  0  0  0  0  0
  -22.5490   -4.5680   21.4010 F   0  0  0  0  0  0  0  0  0  0  0  0
  -21.3330   -4.1680   26.0010 F   0  0  0  0  0  0  0  0  0  0  0  0
  -23.0840  -13.8530   21.0350 C   0  0  0  0  0  0  0  0  0  0  0  0
  -22.3300  -13.1830   21.8980 N   0  0  0  0  0  0  0  0  0  0  0  0
  -22.6700  -14.8680   20.4780 O   0  0  0  0  0  0  0  0  0  0  0  0
  -22.6800  -12.3620   22.3680 H   0  0  0  0  0  0  0  0  0  0  0  0
  -21.3870  -13.4920   22.0880 H   0  0  0  0  0  0  0  0  0  0  0  0
  -25.7510  -15.4830   20.2670 N   0  0  0  0  0  0  0  0  0  0  0  0
  -24.9900  -16.1480   20.3450 H   0  0  0  0  0  0  0  0  0  0  0  0
  -26.6090  -15.9040   19.9360 H   0  0  0  0  0  0  0  0  0  0  0  0
  -27.3570  -22.0220   20.6590 C   0  0  0  0  0  1  0  0  0  0  0  0
  -28.6500  -22.2990   19.9830 N   0  0  1  0  0  4  0  0  0  0  0  0
  -28.4070  -22.2930   19.0010 H   0  0  0  0  0  0  0  0  0  0  0  0
  -29.1360  -23.7550   20.2240 C   0  0  0  0  0  3  0  0  0  0  0  0
  -28.1190  -24.9900   19.9310 C   0  0  0  0  0  3  0  0  0  0  0  0
  -28.4030  -26.4530   20.1920 O   0  0  0  0  0  0  0  0  0  0  0  0
  -24.6490  -31.9070   23.2450 C   0  0  0  0  0  0  0  0  0  0  0  0
  -27.3100  -27.3610   20.1470 C   0  0  0  0  0  0  0  0  0  0  0  0
  -23.4710  -30.5130   21.5870 C   0  0  0  0  0  3  0  0  0  0  0  0
  -24.9450  -28.9990   20.1510 C   0  0  0  0  0  0  0  0  0  0  0  0
  -26.0170  -30.8430   21.4290 C   0  0  0  0  0  2  0  0  0  0  0  0
  -26.1130  -29.4730   20.7610 C   0  0  0  0  0  0  0  0  0  0  0  0
  -27.3010  -28.6660   20.7500 C   0  0  0  0  0  3  0  0  0  0  0  0
  -26.1120  -26.9660   19.5070 C   0  0  0  0  0  3  0  0  0  0  0  0
  -24.9490  -27.7510   19.5170 C   0  0  0  0  0  3  0  0  0  0  0  0
  -23.7000  -29.8640   20.2020 C   0  0  0  0  0  2  0  0  0  0  0  0
  -24.7320  -31.1050   22.1430 N   0  0  0  0  0  0  0  0  0  0  0  0
  -23.5580  -32.1720   23.7710 O   0  0  0  0  0  0  0  0  0  0  0  0
  -22.8130  -29.4770   22.5310 C   0  0  0  0  0  0  0  0  0  0  0  0
  -21.4900  -29.2870   22.3960 N   0  0  0  0  0  0  0  0  0  0  0  0
  -23.4940  -28.8500   23.3460 O   0  0  0  0  0  0  0  0  0  0  0  0
  -20.9970  -29.8470   21.7150 H   0  0  0  0  0  0  0  0  0  0  0  0
  -18.1220  -28.0540   22.8760 C   0  0  0  0  0  0  0  0  0  0  0  0
  -20.6780  -28.3330   23.1550 C   0  0  0  0  0  3  0  0  0  0  0  0
  -20.7940  -26.9090   22.5640 C   0  0  0  0  0  2  0  0  0  0  0  0
  -19.6960  -26.5880   21.5460 C   0  0  0  0  0  2  0  0  0  0  0  0
  -18.3110  -26.7140   22.1870 C   0  0  0  0  0  2  0  0  0  0  0  0
  -19.2330  -28.8210   23.3150 C   0  0  0  0  0  0  0  0  0  0  0  0
  -19.0020  -30.0730   23.9240 C   0  0  0  0  0  3  0  0  0  0  0  0
  -17.6940  -30.5600   24.0960 C   0  0  0  0  0  3  0  0  0  0  0  0
  -16.5960  -29.7910   23.6730 C   0  0  0  0  0  3  0  0  0  0  0  0
  -16.8110  -28.5410   23.0660 C   0  0  0  0  0  3  0  0  0  0  0  0
  -25.9180  -32.5500   23.8810 C   0  0  0  0  0  3  0  0  0  0  0  0
  -26.4150  -31.7950   25.1740 C   0  0  1  0  0  0  0  0  0  0  0  0
  -25.3040  -31.5670   26.2250 C   0  0  0  0  0  1  0  0  0  0  0  0
  -27.0120  -30.4140   24.8130 C   0  0  0  0  0  1  0  0  0  0  0  0
  -27.5480  -32.6030   25.8480 C   0  0  0  0  0  1  0  0  0  0  0  0
  -25.5990  -33.9510   24.1910 N   0  0  0  0  0  0  0  0  0  0  0  0
  -25.9350  -34.9980   23.4300 C   0  0  0  0  0  0  0  0  0  0  0  0
  -26.6170  -34.8900   22.4080 O   0  0  0  0  0  0  0  0  0  0  0  0
  -24.9930  -34.1110   24.9850 H   0  0  0  0  0  0  0  0  0  0  0  0
  -24.2030  -36.7800   23.0410 C   0  0  0  0  0  1  0  0  0  0  0  0
  -25.4350  -36.3870   23.8710 C   0  0  0  0  0  3  0  0  0  0  0  0
  -27.5540  -37.2870   24.7230 C   0  0  0  0  0  1  0  0  0  0  0  0
  -26.4640  -37.4440   23.7640 N   0  0  0  0  0  0  0  0  0  0  0  0
  -26.0510  -38.3630   23.9050 H   0  0  0  0  0  0  0  0  0  0  0  0
  2  7  1  0
  2  3  1  0
  2  1  1  0
  3 50  1  0
  3  1  1  0
  4  5  1  0
  5  8  2  0
  6  4  2  0
  6  9  1  0
  7  8  1  0
  8 19  1  0
  9  7  2  0
 10  9  1  0
 12 17  1  0
 13 14  1  0
 13 12  1  0
 15 14  1  0
 15 24  1  0
 15 16  1  0
 17 11  1  0
 17 16  1  0
 18 11  2  0
 19 11  1  0
 19 20  1  0
 21 22  2  0
 22 23  1  0
 22 41  1  0
 23 26  1  0
 24 21  1  0
 24 25  1  0
 25 23  2  0
 26 27  1  0
 27 28  2  0
 29 32  1  0
 29 28  1  0
 30 29  2  0
 31 30  1  0
 31 26  2  0
 32 33  1  0
 33 34  1  0
 34 35  2  0
 36 35  1  0
 36 40  1  0
 37 36  2  0
 38 33  2  0
 38 37  1  0
 39 38  1  0
 41 42  1  0
 42 45  1  0
 42 44  1  0
 43 41  2  0
 46 47  1  0
 46 21  1  0
 48 46  1  0
 50 52  1  0
 50 49  1  0
 50 51  1  6
 53 54  1  0
 53 52  2  0
 55 66  2  0
 56 54  1  0
 56 61  1  0
 57 65  1  0
 57 67  1  0
 58 64  1  0
 58 60  1  0
 59 65  1  0
 60 59  1  0
 61 60  2  0
 62 63  1  0
 62 56  2  0
 63 58  2  0
 64 57  1  0
 65 55  1  0
 67 69  2  0
 68 67  1  0
 70 68  1  0
 71 80  2  0
 71 76  1  0
 72 68  1  0
 72 76  1  0
 73 72  1  0
 74 75  1  0
 74 73  1  0
 75 71  1  0
 76 77  2  0
 77 78  1  0
 79 78  2  0
 80 79  1  0
 81 55  1  0
 81 86  1  0
 81 82  1  0
 82 85  1  1
 82 83  1  0
 84 82  1  0
 86 89  1  0
 87 91  1  0
 87 86  1  0
 88 87  2  0
 91 90  1  0
 93 91  1  0
 93 94  1  0
 93 92  1  0
M  ISO  4  11 100  19 100  53 101  54 101
M  END
>  <TORSDO>  (39) 
F 20

>  <SCORE>  (39) 
-13.625

>  <name>  (39) 
38

>  <ligand_id>  (39) 
38

>  <original_smiles>  (39) 
[H]c1c([H])c(F)c(C2([H])C([H])([H])C2([H])[N+]([H])(C([H])([H])[H])C([H])([H])C([H])([H])Oc2c([H])c([H])c3c(c2[H])C([H])([H])N(C(=O)C([H])(N([H])C(=O)C([H])(N([H])C([H])([H])[H])C([H])([H])[H])C(C([H])([H])[H])(C([H])([H])[H])C([H])([H])[H])C([H])(C(=O)N([H])C2([H])c4c([H])c([H])c([H])c([H])c4C([H])([H])C([H])([H])C2([H])[H])C3([H])[H])c(N([H])C(=O)N2C([H])([H])C([H])([H])C([H])([H])C([H])(n3nc(-c4c([H])c([H])c(Oc5c([H])c([H])c(F)c([H])c5F)c([H])c4[H])c(C(=O)N([H])[H])c3N([H])[H])C2([H])[H])c1[H]

>  <smiles>  (39) 
[H]c1c([H])c(F)c(C2([H])C([H])([H])C2([H])[N+]([H])(C([H])([H])[H])C([H])([H])C([H])([H])Oc2c([H])c([H])c3c(c2[H])C([H])([H])N(C(=O)C([H])(N([H])C(=O)C([H])(N([H])C([H])([H])[H])C([H])([H])[H])C(C([H])([H])[H])(C([H])([H])[H])C([H])([H])[H])C([H])(C(=O)N([H])C2([H])c4c([H])c([H])c([H])c([H])c4C([H])([H])C([H])([H])C2([H])[H])C3([H])[H])c(N([H])C(=O)N2C([H])([H])C([H])([H])C([H])([H])C([H])(n3nc(-c4c([H])c([H])c(Oc5c([H])c([H])c(F)c([H])c5F)c([H])c4[H])c(C(=O)N([H])[H])c3N([H])[H])C2([H])[H])c1[H]

$$$$
39:0:0
     RDKit          3D

 98106  0  0  1  0  0  0  0  0999 V2000
  -27.4370  -19.9140   20.0510 C   0  0  0  0  0  3  0  0  0  0  0  0
  -27.2070  -18.5610   20.3840 C   0  0  0  0  0  3  0  0  0  0  0  0
  -29.7530  -19.3590   19.5240 C   0  0  0  0  0  3  0  0  0  0  0  0
  -28.7090  -20.3260   19.5870 C   0  0  0  0  0  0  0  0  0  0  0  0
  -29.5440  -17.9950   19.8860 C   0  0  0  0  0  0  0  0  0  0  0  0
  -28.2490  -17.6120   20.3040 C   0  0  0  0  0  0  0  0  0  0  0  0
  -28.0020  -16.3200   20.6390 F   0  0  0  0  0  0  0  0  0  0  0  0
  -28.9040  -21.7570   19.0420 C   0  0  0  0  0  2  0  0  0  0  0  0
  -28.7520  -24.1860   19.6610 C   0  0  0  0  0  0  0  0  0  0  0  0
  -28.6520  -22.8680   19.9760 N   0  0  0  0  0  0  0  0  0  0  0  0
  -29.1030  -24.5530   18.5390 O   0  0  0  0  0  0  0  0  0  0  0  0
  -28.3720  -22.6100   20.9130 H   0  0  0  0  0  0  0  0  0  0  0  0
  -28.4250  -25.2430   20.7560 C   0  0  0  0  0  2  0  0  0  0  0  0
  -28.6100  -26.6280   20.3430 O   0  0  0  0  0  0  0  0  0  0  0  0
  -24.6810  -31.8620   23.2540 C   0  0  0  0  0  0  0  0  0  0  0  0
  -27.4630  -27.3950   20.2980 C   0  0  0  0  0  0  0  0  0  0  0  0
  -23.5420  -30.4390   21.5820 C   0  0  0  0  0  3  0  0  0  0  0  0
  -25.0640  -28.9040   20.2080 C   0  0  0  0  0  0  0  0  0  0  0  0
  -26.0720  -30.8200   21.4590 C   0  0  0  0  0  2  0  0  0  0  0  0
  -26.1980  -29.4410   20.8350 C   0  0  0  0  0  0  0  0  0  0  0  0
  -27.4060  -28.6950   20.8710 C   0  0  0  0  0  3  0  0  0  0  0  0
  -26.3130  -26.8900   19.6620 C   0  0  0  0  0  3  0  0  0  0  0  0
  -25.1190  -27.6330   19.6120 C   0  0  0  0  0  3  0  0  0  0  0  0
  -23.8080  -29.7510   20.2140 C   0  0  0  0  0  2  0  0  0  0  0  0
  -24.7820  -31.0550   22.1570 N   0  0  0  0  0  0  0  0  0  0  0  0
  -23.5790  -32.1250   23.7580 O   0  0  0  0  0  0  0  0  0  0  0  0
  -22.8630  -29.4210   22.5290 C   0  0  0  0  0  0  0  0  0  0  0  0
  -21.5430  -29.2300   22.3580 N   0  0  0  0  0  0  0  0  0  0  0  0
  -23.5210  -28.8060   23.3720 O   0  0  0  0  0  0  0  0  0  0  0  0
  -21.0740  -29.7740   21.6480 H   0  0  0  0  0  0  0  0  0  0  0  0
  -18.1650  -28.0010   22.7530 C   0  0  0  0  0  0  0  0  0  0  0  0
  -20.7100  -28.2850   23.1030 C   0  0  0  0  0  3  0  0  0  0  0  0
  -20.8400  -26.8580   22.5360 C   0  0  0  0  0  2  0  0  0  0  0  0
  -19.7690  -26.5170   21.4920 C   0  0  0  0  0  2  0  0  0  0  0  0
  -18.3690  -26.6470   22.0920 C   0  0  0  0  0  2  0  0  0  0  0  0
  -19.2620  -28.7740   23.2170 C   0  0  0  0  0  0  0  0  0  0  0  0
  -19.0110  -30.0360   23.7930 C   0  0  0  0  0  3  0  0  0  0  0  0
  -17.7000  -30.5270   23.9220 C   0  0  0  0  0  3  0  0  0  0  0  0
  -16.6190  -29.7510   23.4710 C   0  0  0  0  0  3  0  0  0  0  0  0
  -16.8540  -28.4960   22.8860 C   0  0  0  0  0  3  0  0  0  0  0  0
  -25.9350  -32.5050   23.9140 C   0  0  0  0  0  3  0  0  0  0  0  0
  -25.6090  -33.9030   24.2190 N   0  0  0  0  0  0  0  0  0  0  0  0
  -25.9550  -34.9500   23.4560 C   0  0  0  0  0  0  0  0  0  0  0  0
  -26.6510  -34.8380   22.4430 O   0  0  0  0  0  0  0  0  0  0  0  0
  -24.9940  -34.0630   25.0030 H   0  0  0  0  0  0  0  0  0  0  0  0
  -24.2170  -36.7200   23.0310 C   0  0  0  0  0  1  0  0  0  0  0  0
  -25.4410  -36.3390   23.8800 C   0  0  0  0  0  3  0  0  0  0  0  0
  -27.5450  -37.2570   24.7520 C   0  0  0  0  0  1  0  0  0  0  0  0
  -26.4660  -37.3990   23.7790 N   0  0  0  0  0  0  0  0  0  0  0  0
  -26.0480  -38.3170   23.9030 H   0  0  0  0  0  0  0  0  0  0  0  0
  -26.4170  -31.7490   25.2140 C   0  0  1  0  0  0  0  0  0  0  0  0
  -25.2850  -31.4880   26.2340 C   0  0  0  0  0  1  0  0  0  0  0  0
  -27.0500  -30.3860   24.8460 C   0  0  0  0  0  1  0  0  0  0  0  0
  -27.5200  -32.5720   25.9230 C   0  0  0  0  0  1  0  0  0  0  0  0
  -30.7330  -16.9970   19.8790 C   0  0  0  0  0  3  0  0  0  0  0  0
  -31.1680  -14.4930   19.6480 C   0  0  0  0  0  0  0  0  0  0  0  0
  -30.9670  -12.1300   18.9440 C   0  0  0  0  0  2  0  0  0  0  0  0
  -29.9760  -12.0520   17.7620 C   0  0  0  0  0  2  0  0  0  0  0  0
  -28.5190  -11.9790   18.2690 C   0  0  0  0  0  2  0  0  0  0  0  0
  -28.2000  -13.0390   19.3590 C   0  0  0  0  0  3  0  0  0  0  0  0
  -29.2920  -13.0270   20.4510 C   0  0  0  0  0  2  0  0  0  0  0  0
  -30.5750  -13.2750   19.7780 N   0  0  0  0  0  0  0  0  0  0  0  0
  -32.3100  -14.6250   19.1940 O   0  0  0  0  0  0  0  0  0  0  0  0
  -30.3660  -15.5560   19.9020 N   0  0  0  0  0  0  0  0  0  0  0  0
  -29.4140  -15.3510   20.1680 H   0  0  0  0  0  0  0  0  0  0  0  0
  -25.9120  -13.7940   20.2550 C   0  0  0  0  0  0  0  0  0  0  0  0
  -24.8210  -13.0940   20.6850 C   0  0  0  0  0  0  0  0  0  0  0  0
  -25.1730  -11.7120   20.5760 C   0  0  0  0  0  0  0  0  0  0  0  0
  -26.8680  -12.8480   19.9210 N   0  0  0  0  0  0  0  0  0  0  0  0
  -26.4310  -11.5870   20.1730 N   0  0  0  0  0  0  0  0  0  0  0  0
  -24.3700  -10.5040   20.7780 C   0  0  0  0  0  0  0  0  0  0  0  0
  -24.7120   -9.5460   21.7570 C   0  0  0  0  0  3  0  0  0  0  0  0
  -23.9140   -8.3980   21.9380 C   0  0  0  0  0  3  0  0  0  0  0  0
  -22.7610   -8.1990   21.1410 C   0  0  0  0  0  0  0  0  0  0  0  0
  -22.4420   -9.1460   20.1510 C   0  0  0  0  0  3  0  0  0  0  0  0
  -23.2400  -10.2870   19.9680 C   0  0  0  0  0  3  0  0  0  0  0  0
  -21.9390   -7.1030   21.2340 O   0  0  0  0  0  0  0  0  0  0  0  0
  -21.6950   -6.4850   22.4350 C   0  0  0  0  0  0  0  0  0  0  0  0
  -21.1030   -7.1700   23.5160 C   0  0  0  0  0  3  0  0  0  0  0  0
  -20.8040   -6.4810   24.7080 C   0  0  0  0  0  3  0  0  0  0  0  0
  -21.0830   -5.1070   24.8170 C   0  0  0  0  0  0  0  0  0  0  0  0
  -21.6660   -4.4200   23.7380 C   0  0  0  0  0  3  0  0  0  0  0  0
  -21.9680   -5.1060   22.5480 C   0  0  0  0  0  0  0  0  0  0  0  0
  -22.5100   -4.4340   21.5050 F   0  0  0  0  0  0  0  0  0  0  0  0
  -20.7890   -4.4420   25.9610 F   0  0  0  0  0  0  0  0  0  0  0  0
  -23.4930  -13.6640   21.0920 C   0  0  0  0  0  0  0  0  0  0  0  0
  -22.7870  -13.0000   21.9980 N   0  0  0  0  0  0  0  0  0  0  0  0
  -23.0950  -14.7400   20.6450 O   0  0  0  0  0  0  0  0  0  0  0  0
  -23.1220  -12.1300   22.3890 H   0  0  0  0  0  0  0  0  0  0  0  0
  -21.8980  -13.3720   22.3050 H   0  0  0  0  0  0  0  0  0  0  0  0
  -26.1630  -15.1510   20.0990 N   0  0  0  0  0  0  0  0  0  0  0  0
  -25.4950  -15.8580   20.3770 H   0  0  0  0  0  0  0  0  0  0  0  0
  -27.0540  -15.5410   19.8270 H   0  0  0  0  0  0  0  0  0  0  0  0
  -31.6970  -17.2810   21.0650 C   0  0  0  0  0  2  0  0  0  0  0  0
  -32.0850  -18.6940   21.2000 N   0  0  0  0  0  4  0  0  0  0  0  0
  -32.5650  -19.0120   20.3770 H   0  0  0  0  0  0  0  0  0  0  0  0
  -32.7120  -18.8160   21.9790 H   0  0  0  0  0  0  0  0  0  0  0  0
  -31.2840  -19.2710   21.3720 H   0  0  0  0  0  0  0  0  0  0  0  0
  1  2  1  0
  3  4  1  0
  3  5  2  0
  4  1  2  0
  5  6  1  0
  6  2  2  0
  6  7  1  0
  8  4  1  0
  8 10  1  0
  9 10  1  0
  9 13  1  0
 10 12  1  0
 11  9  2  0
 14 13  1  0
 15 26  2  0
 16 14  1  0
 16 21  1  0
 17 25  1  0
 17 27  1  0
 18 24  1  0
 18 20  1  0
 19 25  1  0
 20 21  2  0
 20 19  1  0
 22 16  2  0
 23 22  1  0
 23 18  2  0
 24 17  1  0
 25 15  1  0
 27 29  2  0
 28 27  1  0
 30 28  1  0
 31 40  2  0
 31 36  1  0
 32 28  1  0
 32 36  1  0
 33 32  1  0
 34 35  1  0
 34 33  1  0
 35 31  1  0
 36 37  2  0
 37 38  1  0
 39 38  2  0
 40 39  1  0
 41 15  1  0
 41 42  1  0
 41 51  1  0
 42 45  1  0
 43 47  1  0
 43 42  1  0
 44 43  2  0
 47 46  1  0
 49 47  1  0
 49 50  1  0
 49 48  1  0
 51 54  1  1
 51 52  1  0
 53 51  1  0
 55  5  1  0
 55 64  1  0
 55 94  1  0
 56 62  1  0
 56 64  1  0
 57 62  1  0
 58 59  1  0
 58 57  1  0
 60 59  1  0
 60 69  1  0
 60 61  1  0
 62 61  1  0
 63 56  2  0
 64 65  1  0
 66 67  2  0
 67 86  1  0
 68 67  1  0
 68 71  1  0
 69 70  1  0
 69 66  1  0
 70 68  2  0
 71 72  1  0
 72 73  2  0
 74 77  1  0
 74 73  1  0
 75 74  2  0
 76 75  1  0
 76 71  2  0
 77 78  1  0
 78 83  2  0
 78 79  1  0
 79 80  2  0
 80 81  1  0
 81 85  1  0
 82 81  2  0
 83 82  1  0
 84 83  1  0
 86 87  1  0
 87 90  1  0
 87 89  1  0
 88 86  2  0
 91 66  1  0
 91 92  1  0
 93 91  1  0
 94 95  1  0
 95 98  1  0
 95 97  1  0
 96 95  1  0
M  ISO  4  13 101  14 101  56 100  64 100
M  END
>  <TORSDO>  (40) 
F 22

>  <SCORE>  (40) 
-12.452

>  <name>  (40) 
39

>  <ligand_id>  (40) 
39

>  <original_smiles>  (40) 
[H]c1c([H])c([H])c2c(c1[H])C([H])([H])C([H])([H])C([H])([H])C2([H])N([H])C(=O)C1([H])N(C(=O)C([H])(N([H])C(=O)C([H])(N([H])C([H])([H])[H])C([H])([H])[H])C(C([H])([H])[H])(C([H])([H])[H])C([H])([H])[H])C([H])([H])c2c([H])c(OC([H])([H])C(=O)N([H])C([H])([H])c3c([H])c([H])c(F)c(C([H])(N([H])C(=O)N4C([H])([H])C([H])([H])C([H])([H])C([H])(n5nc(-c6c([H])c([H])c(Oc7c([H])c([H])c(F)c([H])c7F)c([H])c6[H])c(C(=O)N([H])[H])c5N([H])[H])C4([H])[H])C([H])([H])[N+]([H])([H])[H])c3[H])c([H])c([H])c2C1([H])[H]

>  <smiles>  (40) 
[H]c1c([H])c([H])c2c(c1[H])C([H])([H])C([H])([H])C([H])([H])C2([H])N([H])C(=O)C1([H])N(C(=O)C([H])(N([H])C(=O)C([H])(N([H])C([H])([H])[H])C([H])([H])[H])C(C([H])([H])[H])(C([H])([H])[H])C([H])([H])[H])C([H])([H])c2c([H])c(OC([H])([H])C(=O)N([H])C([H])([H])c3c([H])c([H])c(F)c(C([H])(N([H])C(=O)N4C([H])([H])C([H])([H])C([H])([H])C([H])(n5nc(-c6c([H])c([H])c(Oc7c([H])c([H])c(F)c([H])c7F)c([H])c6[H])c(C(=O)N([H])[H])c5N([H])[H])C4([H])[H])C([H])([H])[N+]([H])([H])[H])c3[H])c([H])c([H])c2C1([H])[H]

$$$$
40:0:0
     RDKit          3D

105114  0  0  1  0  0  0  0  0999 V2000
  -31.6440  -22.5810   18.0750 C   0  0  0  0  0  0  0  0  0  0  0  0
  -32.5670  -21.6270   18.2390 N   0  0  0  0  0  0  0  0  0  0  0  0
  -30.5340  -22.3630   17.5810 O   0  0  0  0  0  0  0  0  0  0  0  0
  -33.4510  -21.8990   18.6430 H   0  0  0  0  0  0  0  0  0  0  0  0
  -33.2280  -24.5670   17.7590 C   0  0  0  0  0  2  0  0  0  0  0  0
  -31.3570  -25.9180   17.2080 C   0  0  0  0  0  2  0  0  0  0  0  0
  -32.0070  -24.0070   18.5150 C   0  0  0  0  0  3  0  0  0  0  0  0
  -32.6290  -25.3350   16.5840 C   0  0  0  0  0  3  0  0  0  0  0  0
  -33.5820  -26.3750   15.9760 C   0  0  0  0  0  1  0  0  0  0  0  0
  -30.8750  -24.9050   18.1790 N   0  0  1  0  0  4  0  0  0  0  0  0
  -30.2600  -24.2540   17.6960 H   0  0  0  0  0  0  0  0  0  0  0  0
  -30.1610  -25.4650   19.3570 C   0  0  0  0  0  2  0  0  0  0  0  0
  -28.7440  -25.9710   19.0320 C   0  0  0  0  0  2  0  0  0  0  0  0
  -28.3840  -26.8120   20.1180 O   0  0  0  0  0  0  0  0  0  0  0  0
  -24.5250  -31.8780   23.1860 C   0  0  0  0  0  0  0  0  0  0  0  0
  -27.1840  -27.4790   20.0770 C   0  0  0  0  0  0  0  0  0  0  0  0
  -23.3180  -30.4750   21.5420 C   0  0  0  0  0  3  0  0  0  0  0  0
  -24.7720  -28.9440   20.1100 C   0  0  0  0  0  0  0  0  0  0  0  0
  -25.8360  -30.8470   21.3360 C   0  0  0  0  0  2  0  0  0  0  0  0
  -25.9220  -29.4770   20.7010 C   0  0  0  0  0  0  0  0  0  0  0  0
  -27.1250  -28.7440   20.6940 C   0  0  0  0  0  3  0  0  0  0  0  0
  -26.0160  -26.9450   19.4850 C   0  0  0  0  0  3  0  0  0  0  0  0
  -24.8100  -27.6740   19.5050 C   0  0  0  0  0  3  0  0  0  0  0  0
  -23.5240  -29.7970   20.1600 C   0  0  0  0  0  2  0  0  0  0  0  0
  -24.5770  -31.0830   22.0800 N   0  0  0  0  0  0  0  0  0  0  0  0
  -23.4460  -32.1470   23.7300 O   0  0  0  0  0  0  0  0  0  0  0  0
  -22.6770  -29.4490   22.5030 C   0  0  0  0  0  0  0  0  0  0  0  0
  -21.3520  -29.2690   22.3820 N   0  0  0  0  0  0  0  0  0  0  0  0
  -23.3660  -28.8200   23.3110 O   0  0  0  0  0  0  0  0  0  0  0  0
  -20.8600  -29.8320   21.7030 H   0  0  0  0  0  0  0  0  0  0  0  0
  -17.9780  -28.0900   22.8960 C   0  0  0  0  0  0  0  0  0  0  0  0
  -20.5380  -28.3290   23.1500 C   0  0  0  0  0  3  0  0  0  0  0  0
  -20.6270  -26.9030   22.5600 C   0  0  0  0  0  2  0  0  0  0  0  0
  -19.5150  -26.5950   21.5520 C   0  0  0  0  0  2  0  0  0  0  0  0
  -18.1400  -26.7440   22.2090 C   0  0  0  0  0  2  0  0  0  0  0  0
  -19.1040  -28.8420   23.3230 C   0  0  0  0  0  0  0  0  0  0  0  0
  -18.9020  -30.1030   23.9250 C   0  0  0  0  0  3  0  0  0  0  0  0
  -17.6020  -30.6110   24.1080 C   0  0  0  0  0  3  0  0  0  0  0  0
  -16.4890  -29.8560   23.6970 C   0  0  0  0  0  3  0  0  0  0  0  0
  -16.6770  -28.5990   23.0960 C   0  0  0  0  0  3  0  0  0  0  0  0
  -25.8140  -32.5090   23.8020 C   0  0  0  0  0  3  0  0  0  0  0  0
  -25.5010  -33.9010   24.1480 N   0  0  0  0  0  0  0  0  0  0  0  0
  -25.8270  -34.9630   23.3980 C   0  0  0  0  0  0  0  0  0  0  0  0
  -26.4970  -34.8730   22.3650 O   0  0  0  0  0  0  0  0  0  0  0  0
  -24.9060  -34.0470   24.9510 H   0  0  0  0  0  0  0  0  0  0  0  0
  -24.0970  -36.7550   23.0550 C   0  0  0  0  0  1  0  0  0  0  0  0
  -25.3340  -36.3430   23.8700 C   0  0  0  0  0  3  0  0  0  0  0  0
  -27.4610  -37.2230   24.7240 C   0  0  0  0  0  1  0  0  0  0  0  0
  -26.3640  -37.3990   23.7770 N   0  0  0  0  0  0  0  0  0  0  0  0
  -25.9550  -38.3170   23.9320 H   0  0  0  0  0  0  0  0  0  0  0  0
  -26.3490  -31.7250   25.0640 C   0  0  1  0  0  0  0  0  0  0  0  0
  -25.2690  -31.4670   26.1410 C   0  0  0  0  0  1  0  0  0  0  0  0
  -26.9380  -30.3580   24.6430 C   0  0  0  0  0  1  0  0  0  0  0  0
  -27.4990  -32.5200   25.7260 C   0  0  0  0  0  1  0  0  0  0  0  0
  -32.4460  -20.2420   17.7980 C   0  0  0  0  0  2  0  0  0  0  0  0
  -30.3280  -18.2410   20.2780 C   0  0  0  0  0  3  0  0  0  0  0  0
  -30.7330  -19.1660   19.2960 C   0  0  0  0  0  3  0  0  0  0  0  0
  -32.6510  -17.5860   20.5940 C   0  0  0  0  0  3  0  0  0  0  0  0
  -33.0680  -18.5070   19.6130 C   0  0  0  0  0  0  0  0  0  0  0  0
  -31.2890  -17.4440   20.9280 C   0  0  0  0  0  0  0  0  0  0  0  0
  -32.0930  -19.2940   18.9380 C   0  0  0  0  0  0  0  0  0  0  0  0
  -34.5350  -18.5880   19.3000 C   0  0  0  0  0  0  0  0  0  0  0  0
  -35.1240  -19.7360   19.6020 N   0  0  0  0  0  0  0  0  0  0  0  0
  -35.1510  -17.6320   18.8340 O   0  0  0  0  0  0  0  0  0  0  0  0
  -34.6000  -20.4450   20.0890 H   0  0  0  0  0  0  0  0  0  0  0  0
  -36.1130  -19.8600   19.4430 H   0  0  0  0  0  0  0  0  0  0  0  0
  -30.8740  -16.4020   21.9560 C   0  0  0  0  0  2  0  0  0  0  0  0
  -30.7220  -14.4050   20.4510 C   0  0  0  0  0  0  0  0  0  0  0  0
  -30.3330  -12.3590   19.1320 C   0  0  0  0  0  2  0  0  0  0  0  0
  -29.3740  -12.6280   17.9580 C   0  0  0  0  0  2  0  0  0  0  0  0
  -27.9060  -12.4910   18.4050 C   0  0  0  0  0  2  0  0  0  0  0  0
  -27.5990  -13.2800   19.7050 C   0  0  0  0  0  3  0  0  0  0  0  0
  -28.6620  -12.9850   20.7850 C   0  0  0  0  0  2  0  0  0  0  0  0
  -29.9900  -13.2870   20.2200 N   0  0  0  0  0  0  0  0  0  0  0  0
  -31.7750  -14.6510   19.8570 O   0  0  0  0  0  0  0  0  0  0  0  0
  -30.2230  -15.2250   21.3860 N   0  0  0  0  0  0  0  0  0  0  0  0
  -29.3500  -14.9410   21.8040 H   0  0  0  0  0  0  0  0  0  0  0  0
  -25.1990  -13.8800   20.4230 C   0  0  0  0  0  0  0  0  0  0  0  0
  -24.1370  -13.1020   20.8020 C   0  0  0  0  0  0  0  0  0  0  0  0
  -24.6060  -11.7540   20.7750 C   0  0  0  0  0  0  0  0  0  0  0  0
  -26.2480  -13.0030   20.1910 N   0  0  0  0  0  0  0  0  0  0  0  0
  -25.8940  -11.7200   20.4570 N   0  0  0  0  0  0  0  0  0  0  0  0
  -23.8890  -10.4880   20.9770 C   0  0  0  0  0  0  0  0  0  0  0  0
  -24.3260   -9.5350   21.9220 C   0  0  0  0  0  3  0  0  0  0  0  0
  -23.6090   -8.3330   22.1100 C   0  0  0  0  0  3  0  0  0  0  0  0
  -22.4430   -8.0750   21.3500 C   0  0  0  0  0  0  0  0  0  0  0  0
  -22.0270   -9.0170   20.3930 C   0  0  0  0  0  3  0  0  0  0  0  0
  -22.7450  -10.2110   20.2050 C   0  0  0  0  0  3  0  0  0  0  0  0
  -21.7000   -6.9240   21.4450 O   0  0  0  0  0  0  0  0  0  0  0  0
  -21.6450   -6.1970   22.6070 C   0  0  0  0  0  0  0  0  0  0  0  0
  -21.1920   -6.7620   23.8200 C   0  0  0  0  0  3  0  0  0  0  0  0
  -21.0850   -5.9590   24.9730 C   0  0  0  0  0  3  0  0  0  0  0  0
  -21.4200   -4.5930   24.9150 C   0  0  0  0  0  0  0  0  0  0  0  0
  -21.8670   -4.0280   23.7080 C   0  0  0  0  0  3  0  0  0  0  0  0
  -21.9760   -4.8280   22.5570 C   0  0  0  0  0  0  0  0  0  0  0  0
  -22.3850   -4.2720   21.3900 F   0  0  0  0  0  0  0  0  0  0  0  0
  -21.3100   -3.8210   26.0210 F   0  0  0  0  0  0  0  0  0  0  0  0
  -22.7390  -13.5720   21.0820 C   0  0  0  0  0  0  0  0  0  0  0  0
  -22.0180  -12.8710   21.9500 N   0  0  0  0  0  0  0  0  0  0  0  0
  -22.2920  -14.5960   20.5670 O   0  0  0  0  0  0  0  0  0  0  0  0
  -22.3920  -12.0430   22.3900 H   0  0  0  0  0  0  0  0  0  0  0  0
  -21.0810  -13.1680   22.1800 H   0  0  0  0  0  0  0  0  0  0  0  0
  -25.3570  -15.2510   20.2400 N   0  0  0  0  0  0  0  0  0  0  0  0
  -24.5940  -15.9070   20.3560 H   0  0  0  0  0  0  0  0  0  0  0  0
  -26.2100  -15.6890   19.9160 H   0  0  0  0  0  0  0  0  0  0  0  0
  1  2  1  0
  2  4  1  0
  3  1  2  0
  5  7  1  0
  6 10  1  0
  7  1  1  0
  8  9  1  0
  8  6  1  0
  8  5  1  0
 10  7  1  0
 10 12  1  0
 10 11  1  6
 13 12  1  0
 13 14  1  0
 15 26  2  0
 16 14  1  0
 16 21  1  0
 17 25  1  0
 17 27  1  0
 18 24  1  0
 18 20  1  0
 19 25  1  0
 20 19  1  0
 21 20  2  0
 22 23  1  0
 22 16  2  0
 23 18  2  0
 24 17  1  0
 25 15  1  0
 27 29  2  0
 28 27  1  0
 30 28  1  0
 31 40  2  0
 31 36  1  0
 32 28  1  0
 32 36  1  0
 33 32  1  0
 34 35  1  0
 34 33  1  0
 35 31  1  0
 36 37  2  0
 37 38  1  0
 39 38  2  0
 40 39  1  0
 41 15  1  0
 41 42  1  0
 41 51  1  0
 42 45  1  0
 43 47  1  0
 43 42  1  0
 44 43  2  0
 47 46  1  0
 49 47  1  0
 49 50  1  0
 49 48  1  0
 51 54  1  1
 51 52  1  0
 53 51  1  0
 55  2  1  0
 55 61  1  0
 56 60  1  0
 57 56  2  0
 58 60  2  0
 59 58  1  0
 60 67  1  0
 61 57  1  0
 61 59  2  0
 62 63  1  0
 62 59  1  0
 63 65  1  0
 64 62  2  0
 66 63  1  0
 68 76  1  0
 69 74  1  0
 70 71  1  0
 70 69  1  0
 72 71  1  0
 72 81  1  0
 72 73  1  0
 74 68  1  0
 74 73  1  0
 75 68  2  0
 76 77  1  0
 76 67  1  0
 78 79  2  0
 79 98  1  0
 80 79  1  0
 80 83  1  0
 81 78  1  0
 81 82  1  0
 82 80  2  0
 83 84  1  0
 84 85  2  0
 86 89  1  0
 86 85  1  0
 87 86  2  0
 88 87  1  0
 88 83  2  0
 89 90  1  0
 90 91  1  0
 91 92  2  0
 93 92  1  0
 93 97  1  0
 94 93  2  0
 95 90  2  0
 95 94  1  0
 96 95  1  0
 98 99  1  0
 99102  1  0
 99101  1  0
100 98  2  0
103104  1  0
103 78  1  0
105103  1  0
M  ISO  4  13 101  14 101  68 100  76 100
M  END
>  <TORSDO>  (41) 
F 23

>  <SCORE>  (41) 
-12.852

>  <name>  (41) 
40

>  <ligand_id>  (41) 
40

>  <original_smiles>  (41) 
[H]c1c([H])c([H])c2c(c1[H])C([H])([H])C([H])([H])C([H])([H])C2([H])N([H])C(=O)C1([H])N(C(=O)C([H])(N([H])C(=O)C([H])(N([H])C([H])([H])[H])C([H])([H])[H])C(C([H])([H])[H])(C([H])([H])[H])C([H])([H])[H])C([H])([H])c2c([H])c(OC([H])([H])C([H])([H])[N+]3([H])C([H])([H])C([H])(C([H])([H])[H])C([H])([H])C3([H])C(=O)N([H])C([H])([H])c3c([H])c([H])c(C([H])([H])N([H])C(=O)N4C([H])([H])C([H])([H])C([H])([H])C([H])(n5nc(-c6c([H])c([H])c(Oc7c([H])c([H])c(F)c([H])c7F)c([H])c6[H])c(C(=O)N([H])[H])c5N([H])[H])C4([H])[H])c([H])c3C(=O)N([H])[H])c([H])c([H])c2C1([H])[H]

>  <smiles>  (41) 
[H]c1c([H])c([H])c2c(c1[H])C([H])([H])C([H])([H])C([H])([H])C2([H])N([H])C(=O)C1([H])N(C(=O)C([H])(N([H])C(=O)C([H])(N([H])C([H])([H])[H])C([H])([H])[H])C(C([H])([H])[H])(C([H])([H])[H])C([H])([H])[H])C([H])([H])c2c([H])c(OC([H])([H])C([H])([H])[N+]3([H])C([H])([H])C([H])(C([H])([H])[H])C([H])([H])C3([H])C(=O)N([H])C([H])([H])c3c([H])c([H])c(C([H])([H])N([H])C(=O)N4C([H])([H])C([H])([H])C([H])([H])C([H])(n5nc(-c6c([H])c([H])c(Oc7c([H])c([H])c(F)c([H])c7F)c([H])c6[H])c(C(=O)N([H])[H])c5N([H])[H])C4([H])[H])c([H])c3C(=O)N([H])[H])c([H])c([H])c2C1([H])[H]

$$$$
41:0:0
     RDKit          3D

 99108  0  0  1  0  0  0  0  0999 V2000
  -29.3310  -22.0240   19.9100 C   0  0  0  0  0  2  0  0  0  0  0  0
  -30.8210  -21.8340   21.8830 C   0  0  0  0  0  2  0  0  0  0  0  0
  -29.6130  -23.5470   19.8420 C   0  0  0  0  0  2  0  0  0  0  0  0
  -31.1200  -23.3450   21.8010 C   0  0  0  0  0  2  0  0  0  0  0  0
  -30.5400  -21.2640   20.4840 C   0  0  0  0  0  3  0  0  0  0  0  0
  -30.0240  -24.1290   21.1560 N   0  0  1  0  0  4  0  0  0  0  0  0
  -29.2280  -24.0590   21.7730 H   0  0  0  0  0  0  0  0  0  0  0  0
  -29.5350  -19.0960   21.3890 C   0  0  0  0  0  3  0  0  0  0  0  0
  -29.4440  -17.6890   21.4730 C   0  0  0  0  0  3  0  0  0  0  0  0
  -31.0620  -17.4890   19.6830 C   0  0  0  0  0  3  0  0  0  0  0  0
  -31.1470  -18.8950   19.5760 C   0  0  0  0  0  0  0  0  0  0  0  0
  -30.3980  -19.7260   20.4620 C   0  0  0  0  0  0  0  0  0  0  0  0
  -30.2190  -16.8620   20.6330 C   0  0  0  0  0  0  0  0  0  0  0  0
  -30.7180  -14.4560   20.1040 C   0  0  0  0  0  0  0  0  0  0  0  0
  -30.3380  -12.3360   18.9130 C   0  0  0  0  0  2  0  0  0  0  0  0
  -29.3300  -12.5930   17.7730 C   0  0  0  0  0  2  0  0  0  0  0  0
  -27.8830  -12.4480   18.2840 C   0  0  0  0  0  2  0  0  0  0  0  0
  -27.6260  -13.2400   19.5940 C   0  0  0  0  0  3  0  0  0  0  0  0
  -28.7430  -12.9740   20.6290 C   0  0  0  0  0  2  0  0  0  0  0  0
  -30.0370  -13.2840   19.9970 N   0  0  0  0  0  0  0  0  0  0  0  0
  -31.8150  -14.6320   19.5680 O   0  0  0  0  0  0  0  0  0  0  0  0
  -30.0650  -15.4420   20.7510 N   0  0  0  0  0  0  0  0  0  0  0  0
  -29.2570  -15.1320   21.2690 H   0  0  0  0  0  0  0  0  0  0  0  0
  -25.2730  -13.8270   20.4590 C   0  0  0  0  0  0  0  0  0  0  0  0
  -24.2270  -13.0440   20.8660 C   0  0  0  0  0  0  0  0  0  0  0  0
  -24.6820  -11.6930   20.7650 C   0  0  0  0  0  0  0  0  0  0  0  0
  -26.3020  -12.9530   20.1410 N   0  0  0  0  0  0  0  0  0  0  0  0
  -25.9520  -11.6630   20.3800 N   0  0  0  0  0  0  0  0  0  0  0  0
  -23.9650  -10.4260   20.9550 C   0  0  0  0  0  0  0  0  0  0  0  0
  -24.4070   -9.4610   21.8880 C   0  0  0  0  0  3  0  0  0  0  0  0
  -23.6910   -8.2580   22.0670 C   0  0  0  0  0  3  0  0  0  0  0  0
  -22.5180   -8.0120   21.3150 C   0  0  0  0  0  0  0  0  0  0  0  0
  -22.0950   -8.9650   20.3710 C   0  0  0  0  0  3  0  0  0  0  0  0
  -22.8130  -10.1600   20.1900 C   0  0  0  0  0  3  0  0  0  0  0  0
  -21.7720   -6.8620   21.4040 O   0  0  0  0  0  0  0  0  0  0  0  0
  -21.6700   -6.1590   22.5770 C   0  0  0  0  0  0  0  0  0  0  0  0
  -21.1520   -6.7440   23.7540 C   0  0  0  0  0  3  0  0  0  0  0  0
  -21.0000   -5.9650   24.9190 C   0  0  0  0  0  3  0  0  0  0  0  0
  -21.3550   -4.6040   24.9070 C   0  0  0  0  0  0  0  0  0  0  0  0
  -21.8650   -4.0180   23.7350 C   0  0  0  0  0  3  0  0  0  0  0  0
  -22.0190   -4.7940   22.5720 C   0  0  0  0  0  0  0  0  0  0  0  0
  -22.4910   -4.2190   21.4400 F   0  0  0  0  0  0  0  0  0  0  0  0
  -21.2010   -3.8530   26.0240 F   0  0  0  0  0  0  0  0  0  0  0  0
  -22.8490  -13.5130   21.2370 C   0  0  0  0  0  0  0  0  0  0  0  0
  -22.1740  -12.7890   22.1240 N   0  0  0  0  0  0  0  0  0  0  0  0
  -22.3820  -14.5540   20.7780 O   0  0  0  0  0  0  0  0  0  0  0  0
  -22.5640  -11.9440   22.5160 H   0  0  0  0  0  0  0  0  0  0  0  0
  -21.2520  -13.0830   22.4150 H   0  0  0  0  0  0  0  0  0  0  0  0
  -25.4320  -15.2020   20.3160 N   0  0  0  0  0  0  0  0  0  0  0  0
  -24.6780  -15.8570   20.4910 H   0  0  0  0  0  0  0  0  0  0  0  0
  -26.2680  -15.6490   19.9590 H   0  0  0  0  0  0  0  0  0  0  0  0
  -32.0530  -19.4410   18.5090 C   0  0  0  0  0  0  0  0  0  0  0  0
  -31.4670  -20.1790   17.5790 N   0  0  0  0  0  0  0  0  0  0  0  0
  -33.2540  -19.1750   18.4820 O   0  0  0  0  0  0  0  0  0  0  0  0
  -30.4670  -20.3090   17.6040 H   0  0  0  0  0  0  0  0  0  0  0  0
  -32.0030  -20.5620   16.8150 H   0  0  0  0  0  0  0  0  0  0  0  0
  -30.3830  -25.5790   21.0580 C   0  0  0  0  0  2  0  0  0  0  0  0
  -29.1980  -26.5590   21.1850 C   0  0  0  0  0  2  0  0  0  0  0  0
  -28.4520  -26.6450   19.9700 O   0  0  0  0  0  0  0  0  0  0  0  0
  -24.5250  -31.7330   23.1190 C   0  0  0  0  0  0  0  0  0  0  0  0
  -27.3020  -27.4040   20.0140 C   0  0  0  0  0  0  0  0  0  0  0  0
  -23.3640  -30.3370   21.4340 C   0  0  0  0  0  3  0  0  0  0  0  0
  -24.8680  -28.8470   20.0080 C   0  0  0  0  0  0  0  0  0  0  0  0
  -25.8810  -30.7500   21.2750 C   0  0  0  0  0  2  0  0  0  0  0  0
  -26.0020  -29.3880   20.6270 C   0  0  0  0  0  0  0  0  0  0  0  0
  -27.2190  -28.6730   20.6370 C   0  0  0  0  0  3  0  0  0  0  0  0
  -26.1560  -26.8820   19.3790 C   0  0  0  0  0  3  0  0  0  0  0  0
  -24.9380  -27.5900   19.3830 C   0  0  0  0  0  3  0  0  0  0  0  0
  -23.6060  -29.6790   20.0480 C   0  0  0  0  0  2  0  0  0  0  0  0
  -24.6070  -30.9550   22.0020 N   0  0  0  0  0  0  0  0  0  0  0  0
  -23.4330  -31.9770   23.6500 O   0  0  0  0  0  0  0  0  0  0  0  0
  -22.7190  -29.2910   22.3700 C   0  0  0  0  0  0  0  0  0  0  0  0
  -21.3970  -29.1010   22.2320 N   0  0  0  0  0  0  0  0  0  0  0  0
  -23.4040  -28.6530   23.1740 O   0  0  0  0  0  0  0  0  0  0  0  0
  -20.9050  -29.6670   21.5550 H   0  0  0  0  0  0  0  0  0  0  0  0
  -18.0260  -27.8890   22.7010 C   0  0  0  0  0  0  0  0  0  0  0  0
  -20.5840  -28.1400   22.9770 C   0  0  0  0  0  3  0  0  0  0  0  0
  -20.6870  -26.7270   22.3590 C   0  0  0  0  0  2  0  0  0  0  0  0
  -19.5840  -26.4340   21.3370 C   0  0  0  0  0  2  0  0  0  0  0  0
  -18.2030  -26.5600   21.9860 C   0  0  0  0  0  2  0  0  0  0  0  0
  -19.1450  -28.6380   23.1530 C   0  0  0  0  0  0  0  0  0  0  0  0
  -18.9280  -29.8840   23.7800 C   0  0  0  0  0  3  0  0  0  0  0  0
  -17.6230  -30.3810   23.9610 C   0  0  0  0  0  3  0  0  0  0  0  0
  -16.5180  -29.6280   23.5280 C   0  0  0  0  0  3  0  0  0  0  0  0
  -16.7210  -28.3840   22.9040 C   0  0  0  0  0  3  0  0  0  0  0  0
  -25.7930  -32.3730   23.7660 C   0  0  0  0  0  3  0  0  0  0  0  0
  -26.3130  -31.5830   25.0290 C   0  0  1  0  0  0  0  0  0  0  0  0
  -25.2150  -31.3000   26.0800 C   0  0  0  0  0  1  0  0  0  0  0  0
  -26.9270  -30.2260   24.6080 C   0  0  0  0  0  1  0  0  0  0  0  0
  -27.4420  -32.3840   25.7200 C   0  0  0  0  0  1  0  0  0  0  0  0
  -25.4580  -33.7580   24.1190 N   0  0  0  0  0  0  0  0  0  0  0  0
  -25.7730  -34.8290   23.3770 C   0  0  0  0  0  0  0  0  0  0  0  0
  -26.4500  -34.7550   22.3480 O   0  0  0  0  0  0  0  0  0  0  0  0
  -24.8580  -33.8880   24.9200 H   0  0  0  0  0  0  0  0  0  0  0  0
  -24.0120  -36.5910   23.0430 C   0  0  0  0  0  1  0  0  0  0  0  0
  -25.2580  -36.2000   23.8540 C   0  0  0  0  0  3  0  0  0  0  0  0
  -27.3690  -37.1140   24.7100 C   0  0  0  0  0  1  0  0  0  0  0  0
  -26.2690  -37.2750   23.7630 N   0  0  0  0  0  0  0  0  0  0  0  0
  -25.8440  -38.1840   23.9250 H   0  0  0  0  0  0  0  0  0  0  0  0
  1  5  1  0
  3  1  1  0
  3  6  1  0
  4  2  1  0
  5 12  1  0
  5  2  1  0
  6  7  1  1
  6  4  1  0
  8  9  1  0
 10 13  1  0
 11 10  2  0
 11 12  1  0
 12  8  2  0
 13 22  1  0
 13  9  2  0
 14 22  1  0
 15 20  1  0
 16 17  1  0
 16 15  1  0
 18 17  1  0
 18 27  1  0
 18 19  1  0
 20 14  1  0
 20 19  1  0
 21 14  2  0
 22 23  1  0
 24 25  2  0
 25 44  1  0
 26 25  1  0
 26 29  1  0
 27 28  1  0
 27 24  1  0
 28 26  2  0
 29 30  1  0
 30 31  2  0
 32 35  1  0
 32 31  1  0
 33 32  2  0
 34 33  1  0
 34 29  2  0
 35 36  1  0
 36 37  1  0
 37 38  2  0
 39 38  1  0
 39 43  1  0
 40 39  2  0
 41 36  2  0
 41 40  1  0
 42 41  1  0
 44 45  1  0
 45 48  1  0
 45 47  1  0
 46 44  2  0
 49 24  1  0
 49 50  1  0
 51 49  1  0
 52 11  1  0
 53 55  1  0
 53 52  1  0
 54 52  2  0
 56 53  1  0
 57  6  1  0
 57 58  1  0
 59 61  1  0
 59 58  1  0
 60 71  2  0
 61 66  1  0
 62 70  1  0
 62 72  1  0
 63 69  1  0
 63 65  1  0
 64 70  1  0
 65 66  2  0
 65 64  1  0
 67 68  1  0
 67 61  2  0
 68 63  2  0
 69 62  1  0
 70 60  1  0
 72 74  2  0
 73 72  1  0
 75 73  1  0
 76 85  2  0
 76 81  1  0
 77 73  1  0
 77 81  1  0
 78 77  1  0
 79 80  1  0
 79 78  1  0
 80 76  1  0
 81 82  2  0
 82 83  1  0
 84 83  2  0
 85 84  1  0
 86 60  1  0
 86 91  1  0
 86 87  1  0
 87 90  1  1
 87 88  1  0
 89 87  1  0
 91 94  1  0
 92 96  1  0
 92 91  1  0
 93 92  2  0
 96 95  1  0
 98 96  1  0
 98 99  1  0
 98 97  1  0
M  ISO  4  14 100  22 100  58 101  59 101
M  END
>  <TORSDO>  (42) 
F 20

>  <SCORE>  (42) 
-13.009

>  <name>  (42) 
41

>  <ligand_id>  (42) 
41

>  <original_smiles>  (42) 
[H]c1c([H])c([H])c2c(c1[H])C([H])([H])C([H])([H])C([H])([H])C2([H])N([H])C(=O)C1([H])N(C(=O)C([H])(N([H])C(=O)C([H])(N([H])C([H])([H])[H])C([H])([H])[H])C(C([H])([H])[H])(C([H])([H])[H])C([H])([H])[H])C([H])([H])c2c([H])c(OC([H])([H])C([H])([H])[N+]3([H])C([H])([H])C([H])([H])C([H])(c4c([H])c([H])c(N([H])C(=O)N5C([H])([H])C([H])([H])C([H])([H])C([H])(n6nc(-c7c([H])c([H])c(Oc8c([H])c([H])c(F)c([H])c8F)c([H])c7[H])c(C(=O)N([H])[H])c6N([H])[H])C5([H])[H])c([H])c4C(=O)N([H])[H])C([H])([H])C3([H])[H])c([H])c([H])c2C1([H])[H]

>  <smiles>  (42) 
[H]c1c([H])c([H])c2c(c1[H])C([H])([H])C([H])([H])C([H])([H])C2([H])N([H])C(=O)C1([H])N(C(=O)C([H])(N([H])C(=O)C([H])(N([H])C([H])([H])[H])C([H])([H])[H])C(C([H])([H])[H])(C([H])([H])[H])C([H])([H])[H])C([H])([H])c2c([H])c(OC([H])([H])C([H])([H])[N+]3([H])C([H])([H])C([H])([H])C([H])(c4c([H])c([H])c(N([H])C(=O)N5C([H])([H])C([H])([H])C([H])([H])C([H])(n6nc(-c7c([H])c([H])c(Oc8c([H])c([H])c(F)c([H])c8F)c([H])c7[H])c(C(=O)N([H])[H])c6N([H])[H])C5([H])[H])c([H])c4C(=O)N([H])[H])C([H])([H])C3([H])[H])c([H])c([H])c2C1([H])[H]

$$$$
42:0:0
     RDKit          3D

104113  0  0  1  0  0  0  0  0999 V2000
  -27.8400  -24.6800   22.1850 C   0  0  0  0  0  0  0  0  0  0  0  0
  -25.6600  -22.2710   21.3970 C   0  0  0  0  0  2  0  0  0  0  0  0
  -25.5850  -23.7480   21.7980 C   0  0  0  0  0  2  0  0  0  0  0  0
  -27.1650  -22.3520   21.6750 C   0  0  0  0  0  3  0  0  0  0  0  0
  -27.0110  -23.7940   21.5010 N   0  0  0  0  0  0  0  0  0  0  0  0
  -28.5400  -24.3290   23.1350 O   0  0  0  0  0  0  0  0  0  0  0  0
  -28.0610  -21.7240   20.6010 C   0  0  0  0  0  0  0  0  0  0  0  0
  -28.6190  -20.5570   20.9130 N   0  0  0  0  0  0  0  0  0  0  0  0
  -28.2710  -22.2940   19.5270 O   0  0  0  0  0  0  0  0  0  0  0  0
  -28.3800  -20.1370   21.8010 H   0  0  0  0  0  0  0  0  0  0  0  0
  -29.6120  -18.3240   20.5550 C   0  0  0  0  0  0  0  0  0  0  0  0
  -30.8950  -20.4570   19.9300 C   0  0  0  0  0  2  0  0  0  0  0  0
  -32.0150  -18.2530   19.8070 C   0  0  0  0  0  2  0  0  0  0  0  0
  -29.5120  -19.7740   20.0600 C   0  0  0  0  0  3  0  0  0  0  0  0
  -30.6650  -17.4780   19.8280 C   0  0  0  0  0  3  0  0  0  0  0  0
  -31.8700  -19.6040   19.2130 N   0  0  0  0  0  4  0  0  0  0  0  0
  -28.9020  -17.8710   21.4620 O   0  0  0  0  0  0  0  0  0  0  0  0
  -32.7670  -20.0620   19.2230 H   0  0  0  0  0  0  0  0  0  0  0  0
  -31.6060  -19.5280   18.2440 H   0  0  0  0  0  0  0  0  0  0  0  0
  -31.4410  -15.0990   20.0590 C   0  0  0  0  0  0  0  0  0  0  0  0
  -31.0880  -12.9000   19.0480 C   0  0  0  0  0  2  0  0  0  0  0  0
  -30.1280  -13.1040   17.8560 C   0  0  0  0  0  2  0  0  0  0  0  0
  -28.6640  -13.0030   18.3200 C   0  0  0  0  0  2  0  0  0  0  0  0
  -28.3620  -13.8750   19.5670 C   0  0  0  0  0  3  0  0  0  0  0  0
  -29.4430  -13.6810   20.6610 C   0  0  0  0  0  2  0  0  0  0  0  0
  -30.7650  -13.9210   20.0540 N   0  0  0  0  0  0  0  0  0  0  0  0
  -32.5430  -15.2510   19.5360 O   0  0  0  0  0  0  0  0  0  0  0  0
  -30.7150  -16.1460   20.4570 N   0  0  0  0  0  0  0  0  0  0  0  0
  -29.8890  -15.9270   20.9950 H   0  0  0  0  0  0  0  0  0  0  0  0
  -26.0110  -14.5270   20.4020 C   0  0  0  0  0  0  0  0  0  0  0  0
  -24.9310  -13.7730   20.7750 C   0  0  0  0  0  0  0  0  0  0  0  0
  -25.3390  -12.4110   20.6480 C   0  0  0  0  0  0  0  0  0  0  0  0
  -27.0140  -13.6240   20.0820 N   0  0  0  0  0  0  0  0  0  0  0  0
  -26.6130  -12.3430   20.2840 N   0  0  0  0  0  0  0  0  0  0  0  0
  -24.5740  -11.1670   20.7990 C   0  0  0  0  0  0  0  0  0  0  0  0
  -24.9510  -10.1740   21.7300 C   0  0  0  0  0  3  0  0  0  0  0  0
  -24.1860   -8.9940   21.8670 C   0  0  0  0  0  3  0  0  0  0  0  0
  -23.0320   -8.8000   21.0730 C   0  0  0  0  0  0  0  0  0  0  0  0
  -22.6750   -9.7800   20.1310 C   0  0  0  0  0  3  0  0  0  0  0  0
  -23.4390  -10.9500   19.9920 C   0  0  0  0  0  3  0  0  0  0  0  0
  -22.2490   -7.6720   21.1160 O   0  0  0  0  0  0  0  0  0  0  0  0
  -22.0540   -6.9750   22.2820 C   0  0  0  0  0  0  0  0  0  0  0  0
  -21.5580   -7.5980   23.4480 C   0  0  0  0  0  3  0  0  0  0  0  0
  -21.3060   -6.8320   24.6030 C   0  0  0  0  0  3  0  0  0  0  0  0
  -21.5420   -5.4440   24.5920 C   0  0  0  0  0  0  0  0  0  0  0  0
  -22.0340   -4.8210   23.4320 C   0  0  0  0  0  3  0  0  0  0  0  0
  -22.2850   -5.5850   22.2790 C   0  0  0  0  0  0  0  0  0  0  0  0
  -22.7380   -4.9770   21.1570 F   0  0  0  0  0  0  0  0  0  0  0  0
  -21.2960   -4.7060   25.7000 F   0  0  0  0  0  0  0  0  0  0  0  0
  -23.5660  -14.2850   21.1390 C   0  0  0  0  0  0  0  0  0  0  0  0
  -22.8680  -13.5940   22.0330 N   0  0  0  0  0  0  0  0  0  0  0  0
  -23.1280  -15.3310   20.6620 O   0  0  0  0  0  0  0  0  0  0  0  0
  -23.2340  -12.7460   22.4390 H   0  0  0  0  0  0  0  0  0  0  0  0
  -21.9550  -13.9200   22.3200 H   0  0  0  0  0  0  0  0  0  0  0  0
  -26.2180  -15.8990   20.2910 N   0  0  0  0  0  0  0  0  0  0  0  0
  -25.4720  -16.5670   20.4540 H   0  0  0  0  0  0  0  0  0  0  0  0
  -27.0580  -16.3310   19.9330 H   0  0  0  0  0  0  0  0  0  0  0  0
  -27.9080  -26.1100   21.6460 C   0  0  0  0  0  3  0  0  0  0  0  0
  -27.7450  -27.0450   22.7780 N   0  0  0  0  0  4  0  0  0  0  0  0
  -28.4750  -26.8880   23.4520 H   0  0  0  0  0  0  0  0  0  0  0  0
  -26.8660  -26.8750   23.2400 H   0  0  0  0  0  0  0  0  0  0  0  0
  -27.7590  -28.0020   22.4770 H   0  0  0  0  0  0  0  0  0  0  0  0
  -29.2160  -26.3900   20.8260 C   0  0  0  0  0  2  0  0  0  0  0  0
  -29.0490  -27.2120   19.6570 O   0  0  0  0  0  0  0  0  0  0  0  0
  -24.8260  -31.6730   23.2050 C   0  0  0  0  0  0  0  0  0  0  0  0
  -27.8930  -27.9420   19.6510 C   0  0  0  0  0  0  0  0  0  0  0  0
  -23.7780  -30.4220   21.3430 C   0  0  0  0  0  3  0  0  0  0  0  0
  -25.3910  -29.2190   19.7750 C   0  0  0  0  0  0  0  0  0  0  0  0
  -26.2640  -31.0060   21.2900 C   0  0  0  0  0  2  0  0  0  0  0  0
  -26.4820  -29.7490   20.4780 C   0  0  0  0  0  0  0  0  0  0  0  0
  -27.7400  -29.1140   20.4230 C   0  0  0  0  0  3  0  0  0  0  0  0
  -26.8020  -27.4370   18.9180 C   0  0  0  0  0  3  0  0  0  0  0  0
  -25.5460  -28.0620   18.9900 C   0  0  0  0  0  3  0  0  0  0  0  0
  -24.0780  -29.9600   19.8930 C   0  0  0  0  0  2  0  0  0  0  0  0
  -24.9730  -31.0390   22.0090 N   0  0  0  0  0  0  0  0  0  0  0  0
  -23.7140  -31.7840   23.7370 O   0  0  0  0  0  0  0  0  0  0  0  0
  -23.1880  -29.2290   22.1290 C   0  0  0  0  0  0  0  0  0  0  0  0
  -21.8670  -29.0230   21.9930 N   0  0  0  0  0  0  0  0  0  0  0  0
  -23.9150  -28.5020   22.8100 O   0  0  0  0  0  0  0  0  0  0  0  0
  -21.3400  -29.6760   21.4270 H   0  0  0  0  0  0  0  0  0  0  0  0
  -18.5280  -27.7220   22.4520 C   0  0  0  0  0  0  0  0  0  0  0  0
  -21.1000  -27.9370   22.6040 C   0  0  0  0  0  3  0  0  0  0  0  0
  -21.1560  -26.6570   21.7390 C   0  0  0  0  0  2  0  0  0  0  0  0
  -19.9850  -26.5260   20.7600 C   0  0  0  0  0  2  0  0  0  0  0  0
  -18.6500  -26.5340   21.5140 C   0  0  0  0  0  2  0  0  0  0  0  0
  -19.6790  -28.3880   22.9540 C   0  0  0  0  0  0  0  0  0  0  0  0
  -19.5120  -29.5050   23.8000 C   0  0  0  0  0  3  0  0  0  0  0  0
  -18.2290  -29.9540   24.1550 C   0  0  0  0  0  3  0  0  0  0  0  0
  -17.0930  -29.2830   23.6700 C   0  0  0  0  0  3  0  0  0  0  0  0
  -17.2430  -28.1700   22.8220 C   0  0  0  0  0  3  0  0  0  0  0  0
  -26.0450  -32.3050   23.9500 C   0  0  0  0  0  3  0  0  0  0  0  0
  -25.6600  -33.6640   24.3500 N   0  0  0  0  0  0  0  0  0  0  0  0
  -25.9930  -34.7760   23.6810 C   0  0  0  0  0  0  0  0  0  0  0  0
  -26.7300  -34.7700   22.6920 O   0  0  0  0  0  0  0  0  0  0  0  0
  -25.0120  -33.7390   25.1180 H   0  0  0  0  0  0  0  0  0  0  0  0
  -24.2200  -36.5200   23.3240 C   0  0  0  0  0  1  0  0  0  0  0  0
  -25.4190  -36.1100   24.1920 C   0  0  0  0  0  3  0  0  0  0  0  0
  -27.4550  -37.0130   25.2260 C   0  0  0  0  0  1  0  0  0  0  0  0
  -26.4130  -37.2050   24.2210 N   0  0  0  0  0  0  0  0  0  0  0  0
  -25.9590  -38.0980   24.3960 H   0  0  0  0  0  0  0  0  0  0  0  0
  -26.5110  -31.4630   25.2010 C   0  0  1  0  0  0  0  0  0  0  0  0
  -25.3620  -31.1040   26.1710 C   0  0  0  0  0  1  0  0  0  0  0  0
  -27.1770  -30.1410   24.7520 C   0  0  0  0  0  1  0  0  0  0  0  0
  -27.5740  -32.2550   25.9960 C   0  0  0  0  0  1  0  0  0  0  0  0
  1  6  2  0
  2  4  1  0
  2  3  1  0
  4  7  1  0
  5  4  1  0
  5  3  1  0
  5  1  1  0
  7  8  1  0
  8 10  1  0
  9  7  2  0
 11 17  2  0
 12 14  1  0
 13 15  1  0
 14 11  1  0
 14  8  1  0
 15 28  1  0
 15 11  1  0
 16 18  1  0
 16 13  1  0
 16 12  1  0
 19 16  1  0
 20 28  1  0
 21 26  1  0
 22 23  1  0
 22 21  1  0
 24 23  1  0
 24 33  1  0
 24 25  1  0
 26 20  1  0
 26 25  1  0
 27 20  2  0
 28 29  1  0
 30 31  2  0
 31 50  1  0
 32 31  1  0
 32 35  1  0
 33 34  1  0
 33 30  1  0
 34 32  2  0
 35 36  1  0
 36 37  2  0
 38 41  1  0
 38 37  1  0
 39 38  2  0
 40 39  1  0
 40 35  2  0
 41 42  1  0
 42 43  1  0
 43 44  2  0
 45 44  1  0
 45 49  1  0
 46 45  2  0
 47 42  2  0
 47 46  1  0
 48 47  1  0
 50 51  1  0
 51 54  1  0
 51 53  1  0
 52 50  2  0
 55 30  1  0
 55 56  1  0
 57 55  1  0
 58 63  1  0
 58  1  1  0
 58 59  1  0
 59 61  1  0
 59 60  1  0
 62 59  1  0
 64 63  1  0
 65 76  2  0
 66 64  1  0
 66 71  1  0
 67 75  1  0
 67 77  1  0
 68 74  1  0
 68 70  1  0
 69 75  1  0
 70 69  1  0
 71 70  2  0
 72 73  1  0
 72 66  2  0
 73 68  2  0
 74 67  1  0
 75 65  1  0
 77 79  2  0
 78 77  1  0
 80 78  1  0
 81 90  2  0
 81 86  1  0
 82 78  1  0
 82 86  1  0
 83 82  1  0
 84 85  1  0
 84 83  1  0
 85 81  1  0
 86 87  2  0
 87 88  1  0
 89 88  2  0
 90 89  1  0
 91 65  1  0
 91 92  1  0
 91101  1  0
 92 95  1  0
 93 97  1  0
 93 92  1  0
 94 93  2  0
 97 96  1  0
 97 99  1  0
 99100  1  0
 99 98  1  0
101104  1  1
101102  1  0
103101  1  0
M  ISO  4  20 100  28 100  63 101  64 101
M  END
>  <TORSDO>  (43) 
F 21

>  <SCORE>  (43) 
-8.938

>  <name>  (43) 
42

>  <ligand_id>  (43) 
42

>  <original_smiles>  (43) 
[H]c1c([H])c([H])c2c(c1[H])C([H])([H])C([H])([H])C([H])([H])C2([H])N([H])C(=O)C1([H])N(C(=O)C([H])(N([H])C(=O)C([H])(N([H])C([H])([H])[H])C([H])([H])[H])C(C([H])([H])[H])(C([H])([H])[H])C([H])([H])[H])C([H])([H])c2c([H])c(OC([H])([H])C([H])(C(=O)N3C([H])([H])C([H])([H])C3([H])C(=O)N([H])C3([H])C(=O)C([H])(N([H])C(=O)N4C([H])([H])C([H])([H])C([H])([H])C([H])(n5nc(-c6c([H])c([H])c(Oc7c([H])c([H])c(F)c([H])c7F)c([H])c6[H])c(C(=O)N([H])[H])c5N([H])[H])C4([H])[H])C([H])([H])[N+]([H])([H])C3([H])[H])[N+]([H])([H])[H])c([H])c([H])c2C1([H])[H]

>  <smiles>  (43) 
[H]c1c([H])c([H])c2c(c1[H])C([H])([H])C([H])([H])C([H])([H])C2([H])N([H])C(=O)C1([H])N(C(=O)C([H])(N([H])C(=O)C([H])(N([H])C([H])([H])[H])C([H])([H])[H])C(C([H])([H])[H])(C([H])([H])[H])C([H])([H])[H])C([H])([H])c2c([H])c(OC([H])([H])C([H])(C(=O)N3C([H])([H])C([H])([H])C3([H])C(=O)N([H])C3([H])C(=O)C([H])(N([H])C(=O)N4C([H])([H])C([H])([H])C([H])([H])C([H])(n5nc(-c6c([H])c([H])c(Oc7c([H])c([H])c(F)c([H])c7F)c([H])c6[H])c(C(=O)N([H])[H])c5N([H])[H])C4([H])[H])C([H])([H])[N+]([H])([H])C3([H])[H])[N+]([H])([H])[H])c([H])c([H])c2C1([H])[H]

$$$$
43:0:0
     RDKit          3D

102105  0  0  1  0  0  0  0  0999 V2000
  -28.8290  -14.1840   18.4220 C   0  0  0  0  0  1  0  0  0  0  0  0
  -27.7280  -10.9180   20.5380 C   0  0  0  0  0  2  0  0  0  0  0  0
  -25.1770  -11.7670   19.7390 C   0  0  0  0  0 15  0  0  0  0  0  0
  -27.3470  -10.4230   21.9530 C   0  0  0  0  0  3  0  0  0  0  0  0
  -24.3780  -11.1230   21.7150 C   0  0  0  0  0 15  0  0  0  0  0  0
  -27.1420  -11.9830   19.5500 C   0  0  0  0  0  1  0  0  0  0  0  0
  -26.0210  -10.6490   22.7770 C   0  0  0  0  0  2  0  0  0  0  0  0
  -27.6260  -11.5100   23.3710 C   0  0  2  0  0  0  0  0  0  0  0  0
  -30.0590  -12.7710   21.4950 C   0  0  0  0  0  0  0  0  0  0  0  0
  -29.6100  -12.1560   18.8180 C   0  0  0  0  0  2  0  0  0  0  0  0
  -28.2550  -12.3540   17.5210 C   0  0  0  0  0  1  0  0  0  0  0  0
  -26.6940  -13.6030   17.9000 C   0  0  0  0  0 15  0  0  0  0  0  0
  -26.9280  -14.4450   19.8670 C   0  0  0  0  0  2  0  0  0  0  0  0
  -28.5790  -14.0920   20.8030 C   0  0  0  0  0  2  0  0  0  0  0  0
  -29.4720  -12.8960   20.3310 N   0  0  0  0  0  0  0  0  0  0  0  0
  -31.2000  -13.3640   21.3530 O   0  0  0  0  0  0  0  0  0  0  0  0
  -29.2100  -12.0840   22.6210 N   0  0  0  0  0  0  0  0  0  0  0  0
  -29.8810  -12.0280   23.3720 H   0  0  0  0  0  0  0  0  0  0  0  0
  -25.2320  -14.7000   21.4300 C   0  0  0  0  0  3  0  0  0  0  0  0
  -24.7340  -13.6320   21.9830 C   0  0  0  0  0  3  0  0  0  0  0  0
  -25.9080  -12.6230   21.6740 C   0  0  0  0  0  2  0  0  0  0  0  0
  -26.2350  -14.1300   20.9470 N   0  0  0  0  0  0  0  0  0  0  0  0
  -26.7110  -13.3230   21.8460 N   0  0  0  0  0  2  0  0  0  0  0  0
  -25.4450   -9.8240   20.5220 C   0  0  0  0  0  2  0  0  0  0  0  0
  -25.3150   -8.6050   21.3940 C   0  0  0  0  0  2  0  0  0  0  0  0
  -24.1900   -7.8640   21.9230 C   0  0  0  0  0  3  0  0  0  0  0  0
  -22.8830   -7.9640   21.4200 C   0  0  0  0  0  0  0  0  0  0  0  0
  -22.7890   -8.9250   20.4060 C   0  0  0  0  0  2  0  0  0  0  0  0
  -24.0060   -9.5670   19.8910 C   0  0  0  0  0  2  0  0  0  0  0  0
  -21.8590   -7.0420   21.6630 O   0  0  0  0  0  0  0  0  0  0  0  0
  -21.9900   -6.0060   22.5770 C   0  0  0  0  0  0  0  0  0  0  0  0
  -21.9100   -6.2820   23.9580 C   0  0  0  0  0  3  0  0  0  0  0  0
  -21.9930   -5.2430   24.9060 C   0  0  0  0  0  3  0  0  0  0  0  0
  -22.1450   -3.9090   24.4870 C   0  0  0  0  0  0  0  0  0  0  0  0
  -22.2030   -3.6170   23.1120 C   0  0  0  0  0  3  0  0  0  0  0  0
  -22.1210   -4.6550   22.1600 C   0  0  0  0  0  0  0  0  0  0  0  0
  -22.1600   -4.3410   20.8440 F   0  0  0  0  0  0  0  0  0  0  0  0
  -22.2220   -2.9100   25.4020 F   0  0  0  0  0  0  0  0  0  0  0  0
  -23.1910  -13.6600   22.1470 C   0  0  0  0  0  0  0  0  0  0  0  0
  -22.5700  -12.9040   23.0450 N   0  0  0  0  0  0  0  0  0  0  0  0
  -22.5130  -14.4790   21.5310 O   0  0  0  0  0  0  0  0  0  0  0  0
  -23.0870  -12.2910   23.6550 H   0  0  0  0  0  0  0  0  0  0  0  0
  -21.5700  -12.9900   23.1600 H   0  0  0  0  0  0  0  0  0  0  0  0
  -24.9520  -15.9910   21.1370 N   0  0  0  0  0  0  0  0  0  0  0  0
  -24.0600  -16.3970   21.3930 H   0  0  0  0  0  0  0  0  0  0  0  0
  -25.5820  -16.6520   20.7030 H   0  0  0  0  0  0  0  0  0  0  0  0
  -28.0040  -10.8580   24.7320 C   0  0  0  0  0  2  0  0  0  0  0  0
  -26.8750  -10.9200   25.6810 N   0  0  0  0  0  4  0  0  0  0  0  0
  -27.1620  -10.6030   26.5940 H   0  0  0  0  0  0  0  0  0  0  0  0
  -26.1160  -10.3530   25.3490 H   0  0  0  0  0  0  0  0  0  0  0  0
  -26.5510  -11.8720   25.7590 H   0  0  0  0  0  0  0  0  0  0  0  0
  -28.4630  -17.4030   18.3540 C   0  0  0  0  0  0  0  0  0  0  0  0
  -28.8020  -15.9750   18.7440 N   0  0  0  0  0  0  0  0  0  0  0  0
  -28.0770  -17.5180   17.1890 O   0  0  0  0  0  0  0  0  0  0  0  0
  -29.1390  -16.0590   19.6930 H   0  0  0  0  0  0  0  0  0  0  0  0
  -29.7080  -19.8000   19.6590 C   0  0  0  0  0  2  0  0  0  0  0  0
  -29.3990  -21.2820   20.2830 C   0  0  0  0  0  2  0  0  0  0  0  0
  -27.7010  -20.5960   18.9010 C   0  0  0  0  0  2  0  0  0  0  0  0
  -28.4160  -19.0060   19.2340 C   0  0  0  0  0  3  0  0  0  0  0  0
  -28.3980  -22.1500   19.4260 C   0  0  0  0  0  3  0  0  0  0  0  0
  -27.7140  -23.8440   19.9530 C   0  0  0  0  0  2  0  0  0  0  0  0
  -28.1340  -25.4960   20.2330 O   0  0  0  0  0  0  0  0  0  0  0  0
  -24.7750  -31.7400   23.4820 C   0  0  0  0  0  0  0  0  0  0  0  0
  -27.2350  -26.7290   20.3310 C   0  0  0  0  0  0  0  0  0  0  0  0
  -23.6090  -30.4090   21.7870 C   0  0  0  0  0  3  0  0  0  0  0  0
  -25.0430  -28.7800   20.3750 C   0  0  0  0  0  0  0  0  0  0  0  0
  -26.1970  -30.4930   21.7460 C   0  0  0  0  0  2  0  0  0  0  0  0
  -26.2380  -29.0880   21.0350 C   0  0  0  0  0  0  0  0  0  0  0  0
  -27.3350  -28.0820   20.9900 C   0  0  0  0  0  3  0  0  0  0  0  0
  -26.0050  -26.6210   19.6610 C   0  0  0  0  0  3  0  0  0  0  0  0
  -24.9570  -27.5690   19.6800 C   0  0  0  0  0  3  0  0  0  0  0  0
  -23.8690  -29.7580   20.4060 C   0  0  0  0  0  2  0  0  0  0  0  0
  -24.8850  -30.9090   22.3930 N   0  0  0  0  0  0  0  0  0  0  0  0
  -23.6710  -32.0540   23.9590 O   0  0  0  0  0  0  0  0  0  0  0  0
  -22.8480  -29.4140   22.7050 C   0  0  0  0  0  0  0  0  0  0  0  0
  -21.5160  -29.3010   22.5400 N   0  0  0  0  0  0  0  0  0  0  0  0
  -23.4650  -28.7480   23.5400 O   0  0  0  0  0  0  0  0  0  0  0  0
  -21.0700  -29.8910   21.8510 H   0  0  0  0  0  0  0  0  0  0  0  0
  -18.0850  -28.1680   22.9140 C   0  0  0  0  0  0  0  0  0  0  0  0
  -20.6410  -28.3710   23.2650 C   0  0  0  0  0  3  0  0  0  0  0  0
  -20.7270  -26.9460   22.6710 C   0  0  0  0  0  2  0  0  0  0  0  0
  -19.6530  -26.6660   21.6150 C   0  0  0  0  0  2  0  0  0  0  0  0
  -18.2540  -26.8290   22.2150 C   0  0  0  0  0  2  0  0  0  0  0  0
  -19.2060  -28.8990   23.3920 C   0  0  0  0  0  0  0  0  0  0  0  0
  -18.9920  -30.1510   24.0090 C   0  0  0  0  0  3  0  0  0  0  0  0
  -17.6920  -30.6730   24.1480 C   0  0  0  0  0  3  0  0  0  0  0  0
  -16.5860  -29.9410   23.6820 C   0  0  0  0  0  3  0  0  0  0  0  0
  -16.7830  -28.6900   23.0710 C   0  0  0  0  0  3  0  0  0  0  0  0
  -26.0280  -32.3520   24.1780 C   0  0  0  0  0  3  0  0  0  0  0  0
  -26.4920  -31.5290   25.4440 C   0  0  1  0  0  0  0  0  0  0  0  0
  -25.3630  -31.2700   26.4700 C   0  0  0  0  0  1  0  0  0  0  0  0
  -27.0720  -30.1570   25.0340 C   0  0  0  0  0  1  0  0  0  0  0  0
  -27.6300  -32.2850   26.1700 C   0  0  0  0  0  1  0  0  0  0  0  0
  -25.7020  -33.7360   24.5730 N   0  0  0  0  0  0  0  0  0  0  0  0
  -26.0530  -34.8350   23.8930 C   0  0  0  0  0  0  0  0  0  0  0  0
  -26.7450  -34.7910   22.8730 O   0  0  0  0  0  0  0  0  0  0  0  0
  -25.0880  -33.8420   25.3670 H   0  0  0  0  0  0  0  0  0  0  0  0
  -24.3310  -36.6580   23.6310 C   0  0  0  0  0  1  0  0  0  0  0  0
  -25.5650  -36.2010   24.4260 C   0  0  0  0  0  3  0  0  0  0  0  0
  -27.6970  -37.0330   25.3180 C   0  0  0  0  0  1  0  0  0  0  0  0
  -26.5990  -37.2570   24.3820 N   0  0  0  0  0  0  0  0  0  0  0  0
  -26.1930  -38.1680   24.5810 H   0  0  0  0  0  0  0  0  0  0  0  0
  1 53  1  0
  4  2  1  0
  4  7  1  0
  4  8  1  0
  6  2  1  0
  7  8  1  0
  8 47  1  1
  9 17  1  0
 10 15  1  0
 11 10  1  0
 13 14  1  0
 13 22  1  0
 15 14  1  0
 15  9  1  0
 16  9  2  0
 17  8  1  0
 17 18  1  0
 19 44  1  0
 19 20  1  0
 20 39  1  0
 21 23  1  0
 21 20  1  0
 22 19  1  0
 22 23  1  0
 24 25  1  0
 25 26  1  0
 27 30  1  0
 27 26  2  0
 28 27  1  0
 29 28  1  0
 29 24  1  0
 30 31  1  0
 31 32  1  0
 32 33  2  0
 34 33  1  0
 34 38  1  0
 35 34  2  0
 36 31  2  0
 36 35  1  0
 37 36  1  0
 39 40  1  0
 40 43  1  0
 40 42  1  0
 41 39  2  0
 44 45  1  0
 46 44  1  0
 47 48  1  0
 48 51  1  0
 48 49  1  0
 50 48  1  0
 52 53  1  0
 53 55  1  0
 54 52  2  0
 56 57  1  0
 58 59  1  0
 58 60  1  0
 59 52  1  0
 59 56  1  0
 60 61  1  0
 60 57  1  0
 61 62  1  0
 62 64  1  0
 63 74  2  0
 64 69  1  0
 65 73  1  0
 65 75  1  0
 66 72  1  0
 66 68  1  0
 67 73  1  0
 68 67  1  0
 69 68  2  0
 70 71  1  0
 70 64  2  0
 71 66  2  0
 72 65  1  0
 73 63  1  0
 75 77  2  0
 76 75  1  0
 78 76  1  0
 79 88  2  0
 79 84  1  0
 80 76  1  0
 80 84  1  0
 81 80  1  0
 82 83  1  0
 82 81  1  0
 83 79  1  0
 84 85  2  0
 85 86  1  0
 87 86  2  0
 88 87  1  0
 89 63  1  0
 89 94  1  0
 89 90  1  0
 90 93  1  1
 90 91  1  0
 92 90  1  0
 94 97  1  0
 95 99  1  0
 95 94  1  0
 96 95  2  0
 99 98  1  0
101 99  1  0
101102  1  0
101100  1  0
M  ISO  4   9 100  17 100  61 101  62 101
M  END
>  <TORSDO>  (44) 
F 23

>  <SCORE>  (44) 
-1.777

>  <name>  (44) 
43

>  <ligand_id>  (44) 
43

>  <original_smiles>  (44) 
[H]c1c([H])c([H])c2c(c1[H])C([H])([H])C([H])([H])C([H])([H])C2([H])N([H])C(=O)C1([H])N(C(=O)C([H])(N([H])C(=O)C([H])(N([H])C([H])([H])[H])C([H])([H])[H])C(C([H])([H])[H])(C([H])([H])[H])C([H])([H])[H])C([H])([H])c2c([H])c(OC([H])([H])C3([H])C([H])([H])C([H])([H])C([H])(C(=O)N([H])C([H])([H])c4c([H])c([H])c(C([H])(N([H])C(=O)N5C([H])([H])C([H])([H])C([H])([H])C([H])(n6nc(-c7c([H])c([H])c(Oc8c([H])c([H])c(F)c([H])c8F)c([H])c7[H])c(C(=O)N([H])[H])c6N([H])[H])C5([H])[H])C([H])([H])[N+]([H])([H])[H])c([H])c4[H])C3([H])[H])c([H])c([H])c2C1([H])[H]

>  <smiles>  (44) 
[H]c1c([H])c([H])c2c(c1[H])C([H])([H])C([H])([H])C([H])([H])C2([H])N([H])C(=O)C1([H])N(C(=O)C([H])(N([H])C(=O)C([H])(N([H])C([H])([H])[H])C([H])([H])[H])C(C([H])([H])[H])(C([H])([H])[H])C([H])([H])[H])C([H])([H])c2c([H])c(OC([H])([H])C3([H])C([H])([H])C([H])([H])C([H])(C(=O)N([H])C([H])([H])c4c([H])c([H])c(C([H])(N([H])C(=O)N5C([H])([H])C([H])([H])C([H])([H])C([H])(n6nc(-c7c([H])c([H])c(Oc8c([H])c([H])c(F)c([H])c8F)c([H])c7[H])c(C(=O)N([H])[H])c6N([H])[H])C5([H])[H])C([H])([H])[N+]([H])([H])[H])c([H])c4[H])C3([H])[H])c([H])c([H])c2C1([H])[H]

$$$$
44:0:0
     RDKit          3D

109118  0  0  1  0  0  0  0  0999 V2000
  -27.9540  -21.7240   22.9160 C   0  0  0  0  0  3  0  0  0  0  0  0
  -28.2490  -19.5140   21.8500 C   0  0  0  0  0  0  0  0  0  0  0  0
  -28.4290  -20.3260   22.9030 N   0  0  0  0  0  0  0  0  0  0  0  0
  -28.5190  -19.8780   20.7020 O   0  0  0  0  0  0  0  0  0  0  0  0
  -28.5080  -19.8970   23.8110 H   0  0  0  0  0  0  0  0  0  0  0  0
  -27.6160  -15.9730   23.0550 C   0  0  0  0  0  2  0  0  0  0  0  0
  -26.4390  -16.7160   23.6720 C   0  0  0  0  0  2  0  0  0  0  0  0
  -28.0620  -16.8120   21.8390 C   0  0  0  0  0  3  0  0  0  0  0  0
  -27.4340  -18.2140   22.0590 C   0  0  0  0  0  3  0  0  0  0  0  0
  -25.3030  -18.8300   23.2330 C   0  0  0  0  0  1  0  0  0  0  0  0
  -26.6130  -18.1380   23.3070 N   0  0  1  0  0  4  0  0  0  0  0  0
  -27.1540  -18.5630   24.0430 H   0  0  0  0  0  0  0  0  0  0  0  0
  -30.5940  -14.4310   20.5900 C   0  0  0  0  0  0  0  0  0  0  0  0
  -30.4320  -12.3130   19.3160 C   0  0  0  0  0  2  0  0  0  0  0  0
  -29.4650  -12.5580   18.1290 C   0  0  0  0  0  2  0  0  0  0  0  0
  -27.9830  -12.3920   18.5560 C   0  0  0  0  0  2  0  0  0  0  0  0
  -27.6560  -13.1520   19.8740 C   0  0  0  0  0  3  0  0  0  0  0  0
  -28.7150  -12.7840   20.9380 C   0  0  0  0  0  2  0  0  0  0  0  0
  -30.0330  -13.2000   20.4090 N   0  0  0  0  0  0  0  0  0  0  0  0
  -31.7000  -14.7610   20.1440 O   0  0  0  0  0  0  0  0  0  0  0  0
  -29.5370  -16.5340   21.4370 C   0  0  0  0  0  0  0  0  0  0  0  0
  -29.6770  -15.2290   21.1630 N   0  0  0  0  0  0  0  0  0  0  0  0
  -30.4120  -17.3950   21.3560 O   0  0  0  0  0  0  0  0  0  0  0  0
  -28.8280  -14.7160   21.3200 H   0  0  0  0  0  0  0  0  0  0  0  0
  -25.2560  -13.7980   20.5590 C   0  0  0  0  0  0  0  0  0  0  0  0
  -24.1840  -13.0290   20.9220 C   0  0  0  0  0  0  0  0  0  0  0  0
  -24.6340  -11.6780   20.8730 C   0  0  0  0  0  0  0  0  0  0  0  0
  -26.2970  -12.9040   20.3340 N   0  0  0  0  0  0  0  0  0  0  0  0
  -25.9230  -11.6260   20.5740 N   0  0  0  0  0  0  0  0  0  0  0  0
  -23.9010  -10.4210   21.0410 C   0  0  0  0  0  0  0  0  0  0  0  0
  -24.3600   -9.4160   21.9190 C   0  0  0  0  0  3  0  0  0  0  0  0
  -23.6260   -8.2210   22.0790 C   0  0  0  0  0  3  0  0  0  0  0  0
  -22.4230   -8.0260   21.3550 C   0  0  0  0  0  0  0  0  0  0  0  0
  -21.9850   -9.0220   20.4650 C   0  0  0  0  0  3  0  0  0  0  0  0
  -22.7190  -10.2070   20.3030 C   0  0  0  0  0  3  0  0  0  0  0  0
  -21.6620   -6.8840   21.4230 O   0  0  0  0  0  0  0  0  0  0  0  0
  -21.6830   -6.0730   22.5290 C   0  0  0  0  0  0  0  0  0  0  0  0
  -21.4030   -6.5640   23.8230 C   0  0  0  0  0  3  0  0  0  0  0  0
  -21.3640   -5.6790   24.9190 C   0  0  0  0  0  3  0  0  0  0  0  0
  -21.6050   -4.3050   24.7240 C   0  0  0  0  0  0  0  0  0  0  0  0
  -21.8820   -3.8150   23.4350 C   0  0  0  0  0  3  0  0  0  0  0  0
  -21.9200   -4.6970   22.3410 C   0  0  0  0  0  0  0  0  0  0  0  0
  -22.1700   -4.2150   21.1000 F   0  0  0  0  0  0  0  0  0  0  0  0
  -21.5580   -3.4530   25.7750 F   0  0  0  0  0  0  0  0  0  0  0  0
  -22.7900  -13.5150   21.1840 C   0  0  0  0  0  0  0  0  0  0  0  0
  -22.0500  -12.8160   22.0400 N   0  0  0  0  0  0  0  0  0  0  0  0
  -22.3690  -14.5490   20.6740 O   0  0  0  0  0  0  0  0  0  0  0  0
  -22.4020  -11.9800   22.4830 H   0  0  0  0  0  0  0  0  0  0  0  0
  -21.1160  -13.1340   22.2530 H   0  0  0  0  0  0  0  0  0  0  0  0
  -25.4080  -15.1700   20.3830 N   0  0  0  0  0  0  0  0  0  0  0  0
  -24.5500  -15.7100   20.3880 H   0  0  0  0  0  0  0  0  0  0  0  0
  -26.1000  -15.5470   19.7450 H   0  0  0  0  0  0  0  0  0  0  0  0
  -27.3940  -21.9630   24.3520 C   0  0  0  0  0  2  0  0  0  0  0  0
  -23.8190  -24.4250   24.6520 C   0  0  0  0  0  3  0  0  0  0  0  0
  -25.0600  -25.0170   24.3440 C   0  0  0  0  0  3  0  0  0  0  0  0
  -23.7420  -23.0390   24.8720 C   0  0  0  0  0  3  0  0  0  0  0  0
  -26.2210  -24.2250   24.2500 C   0  0  0  0  0  3  0  0  0  0  0  0
  -24.9000  -22.2480   24.7650 C   0  0  0  0  0  3  0  0  0  0  0  0
  -26.1460  -22.8310   24.4360 C   0  0  0  0  0  0  0  0  0  0  0  0
  -29.0530  -22.7360   22.4590 C   0  0  0  0  0  2  0  0  0  0  0  0
  -28.5400  -23.9200   21.5780 C   0  0  0  0  0  2  0  0  0  0  0  0
  -28.5510  -24.3550   19.0480 C   0  0  0  0  0  0  0  0  0  0  0  0
  -28.5200  -23.7440   17.8570 N   0  0  0  0  0  4  0  0  0  0  0  0
  -28.4940  -23.5690   20.1500 N   0  0  0  0  0  0  0  0  0  0  0  0
  -28.6310  -24.2990   17.0210 H   0  0  0  0  0  0  0  0  0  0  0  0
  -28.5230  -22.7440   17.7380 H   0  0  0  0  0  0  0  0  0  0  0  0
  -28.3640  -22.5830   19.9930 H   0  0  0  0  0  0  0  0  0  0  0  0
  -28.7120  -25.8690   18.9950 C   0  0  0  0  0  2  0  0  0  0  0  0
  -28.3720  -26.6470   20.1530 O   0  0  0  0  0  0  0  0  0  0  0  0
  -24.6150  -31.8690   23.2080 C   0  0  0  0  0  0  0  0  0  0  0  0
  -27.2200  -27.4090   20.1060 C   0  0  0  0  0  0  0  0  0  0  0  0
  -23.4010  -30.4990   21.5480 C   0  0  0  0  0  3  0  0  0  0  0  0
  -24.8380  -28.9560   20.1140 C   0  0  0  0  0  0  0  0  0  0  0  0
  -25.9330  -30.8190   21.3680 C   0  0  0  0  0  2  0  0  0  0  0  0
  -25.9990  -29.4520   20.7210 C   0  0  0  0  0  0  0  0  0  0  0  0
  -27.1900  -28.6850   20.7190 C   0  0  0  0  0  3  0  0  0  0  0  0
  -26.0380  -26.9210   19.5060 C   0  0  0  0  0  3  0  0  0  0  0  0
  -24.8540  -27.6890   19.5030 C   0  0  0  0  0  3  0  0  0  0  0  0
  -23.6030  -29.8320   20.1620 C   0  0  0  0  0  2  0  0  0  0  0  0
  -24.6700  -31.0770   22.1000 N   0  0  0  0  0  0  0  0  0  0  0  0
  -23.5340  -32.1460   23.7460 O   0  0  0  0  0  0  0  0  0  0  0  0
  -22.7350  -29.4760   22.4940 C   0  0  0  0  0  0  0  0  0  0  0  0
  -21.4110  -29.2980   22.3510 N   0  0  0  0  0  0  0  0  0  0  0  0
  -23.4140  -28.8400   23.3070 O   0  0  0  0  0  0  0  0  0  0  0  0
  -20.9280  -29.8250   21.6350 H   0  0  0  0  0  0  0  0  0  0  0  0
  -18.0320  -28.1370   22.8380 C   0  0  0  0  0  0  0  0  0  0  0  0
  -20.5890  -28.3630   23.1130 C   0  0  0  0  0  3  0  0  0  0  0  0
  -20.6800  -26.9320   22.5270 C   0  0  0  0  0  2  0  0  0  0  0  0
  -19.5670  -26.6250   21.5200 C   0  0  0  0  0  2  0  0  0  0  0  0
  -18.1900  -26.7920   22.1560 C   0  0  0  0  0  2  0  0  0  0  0  0
  -19.1570  -28.8830   23.2770 C   0  0  0  0  0  0  0  0  0  0  0  0
  -18.9550  -30.1360   23.8920 C   0  0  0  0  0  3  0  0  0  0  0  0
  -17.6560  -30.6510   24.0580 C   0  0  0  0  0  3  0  0  0  0  0  0
  -16.5400  -29.9070   23.6370 C   0  0  0  0  0  3  0  0  0  0  0  0
  -16.7310  -28.6510   23.0310 C   0  0  0  0  0  3  0  0  0  0  0  0
  -25.9060  -32.4810   23.8390 C   0  0  0  0  0  3  0  0  0  0  0  0
  -25.5930  -33.8610   24.2350 N   0  0  0  0  0  0  0  0  0  0  0  0
  -25.9000  -34.9450   23.5110 C   0  0  0  0  0  0  0  0  0  0  0  0
  -26.5610  -34.8940   22.4700 O   0  0  0  0  0  0  0  0  0  0  0  0
  -25.0020  -33.9730   25.0450 H   0  0  0  0  0  0  0  0  0  0  0  0
  -24.1470  -36.7300   23.2650 C   0  0  0  0  0  1  0  0  0  0  0  0
  -25.4090  -36.3110   24.0340 C   0  0  0  0  0  3  0  0  0  0  0  0
  -27.5560  -37.1810   24.8460 C   0  0  0  0  0  1  0  0  0  0  0  0
  -26.4290  -37.3790   23.9370 N   0  0  0  0  0  0  0  0  0  0  0  0
  -26.0150  -38.2860   24.1340 H   0  0  0  0  0  0  0  0  0  0  0  0
  -26.4500  -31.6570   25.0710 C   0  0  1  0  0  0  0  0  0  0  0  0
  -25.3790  -31.3700   26.1500 C   0  0  0  0  0  1  0  0  0  0  0  0
  -27.0230  -30.2980   24.6060 C   0  0  0  0  0  1  0  0  0  0  0  0
  -27.6140  -32.4250   25.7430 C   0  0  0  0  0  1  0  0  0  0  0  0
  1 60  1  0
  1 53  1  0
  2  3  1  0
  3  1  1  0
  3  5  1  0
  4  2  2  0
  6  7  1  0
  8 21  1  0
  8  9  1  0
  8  6  1  0
  9  2  1  0
  9 11  1  0
 10 11  1  0
 11  7  1  0
 11 12  1  1
 13 22  1  0
 14 19  1  0
 15 16  1  0
 15 14  1  0
 17 16  1  0
 17 28  1  0
 17 18  1  0
 19 13  1  0
 19 18  1  0
 20 13  2  0
 22 24  1  0
 22 21  1  0
 23 21  2  0
 25 26  2  0
 26 45  1  0
 27 26  1  0
 27 30  1  0
 28 25  1  0
 28 29  1  0
 29 27  2  0
 30 31  1  0
 31 32  2  0
 33 36  1  0
 33 32  1  0
 34 33  2  0
 35 34  1  0
 35 30  2  0
 36 37  1  0
 37 38  1  0
 38 39  2  0
 40 39  1  0
 40 44  1  0
 41 40  2  0
 42 37  2  0
 42 41  1  0
 43 42  1  0
 45 46  1  0
 46 49  1  0
 46 48  1  0
 47 45  2  0
 50 51  1  0
 50 25  1  0
 52 50  1  0
 53 59  1  0
 54 56  1  0
 55 54  2  0
 57 55  1  0
 57 59  2  0
 58 56  2  0
 59 58  1  0
 61 60  1  0
 62 64  1  0
 63 62  2  0
 64 61  1  0
 65 63  1  0
 66 63  1  0
 67 64  1  0
 68 62  1  0
 68 69  1  0
 70 81  2  0
 71 69  1  0
 71 76  1  0
 72 80  1  0
 72 82  1  0
 73 79  1  0
 73 75  1  0
 74 80  1  0
 75 74  1  0
 76 75  2  0
 77 71  2  0
 78 77  1  0
 78 73  2  0
 79 72  1  0
 80 70  1  0
 82 84  2  0
 83 82  1  0
 85 83  1  0
 86 95  2  0
 86 91  1  0
 87 83  1  0
 87 91  1  0
 88 87  1  0
 89 90  1  0
 89 88  1  0
 90 86  1  0
 91 92  2  0
 92 93  1  0
 94 93  2  0
 95 94  1  0
 96 70  1  0
 96 97  1  0
 96106  1  0
 97100  1  0
 98102  1  0
 98 97  1  0
 99 98  2  0
102101  1  0
104102  1  0
104105  1  0
104103  1  0
106109  1  1
106107  1  0
108106  1  0
M  ISO  4  13 100  22 100  68 101  69 101
M  END
>  <TORSDO>  (45) 
F 24

>  <SCORE>  (45) 
59.942

>  <name>  (45) 
44

>  <ligand_id>  (45) 
44

>  <original_smiles>  (45) 
[H]c1c([H])c([H])c(C([H])([H])C([H])(N([H])C(=O)C2([H])C([H])(C(=O)N([H])C(=O)N3C([H])([H])C([H])([H])C([H])([H])C([H])(n4nc(-c5c([H])c([H])c(Oc6c([H])c([H])c(F)c([H])c6F)c([H])c5[H])c(C(=O)N([H])[H])c4N([H])[H])C3([H])[H])C([H])([H])C([H])([H])[N+]2([H])C([H])([H])[H])C([H])([H])C([H])([H])[N+]([H])=C(N([H])[H])C([H])([H])Oc2c([H])c([H])c3c(c2[H])C([H])([H])N(C(=O)C([H])(N([H])C(=O)C([H])(N([H])C([H])([H])[H])C([H])([H])[H])C(C([H])([H])[H])(C([H])([H])[H])C([H])([H])[H])C([H])(C(=O)N([H])C2([H])c4c([H])c([H])c([H])c([H])c4C([H])([H])C([H])([H])C2([H])[H])C3([H])[H])c([H])c1[H]

>  <smiles>  (45) 
[H]c1c([H])c([H])c(C([H])([H])C([H])(N([H])C(=O)C2([H])C([H])(C(=O)N([H])C(=O)N3C([H])([H])C([H])([H])C([H])([H])C([H])(n4nc(-c5c([H])c([H])c(Oc6c([H])c([H])c(F)c([H])c6F)c([H])c5[H])c(C(=O)N([H])[H])c4N([H])[H])C3([H])[H])C([H])([H])C([H])([H])[N+]2([H])C([H])([H])[H])C([H])([H])C([H])([H])[N+]([H])=C(N([H])[H])C([H])([H])Oc2c([H])c([H])c3c(c2[H])C([H])([H])N(C(=O)C([H])(N([H])C(=O)C([H])(N([H])C([H])([H])[H])C([H])([H])[H])C(C([H])([H])[H])(C([H])([H])[H])C([H])([H])[H])C([H])(C(=O)N([H])C2([H])c4c([H])c([H])c([H])c([H])c4C([H])([H])C([H])([H])C2([H])[H])C3([H])[H])c([H])c1[H]

$$$$
45:0:0
     RDKit          3D

102111  0  0  1  0  0  0  0  0999 V2000
  -29.5060  -21.7360   19.6810 C   0  0  2  0  0  0  0  0  0  0  0  0
  -33.4850  -23.6750   19.6210 C   0  0  0  0  0  3  0  0  0  0  0  0
  -32.4780  -24.0610   18.7240 C   0  0  0  0  0  3  0  0  0  0  0  0
  -33.2100  -22.6870   20.5800 C   0  0  0  0  0  3  0  0  0  0  0  0
  -31.2200  -23.4370   18.7720 C   0  0  0  0  0  3  0  0  0  0  0  0
  -31.9450  -22.0640   20.6470 C   0  0  0  0  0  0  0  0  0  0  0  0
  -30.9220  -22.3980   19.7010 C   0  0  0  0  0  0  0  0  0  0  0  0
  -31.7500  -21.0930   21.8060 C   0  0  0  0  0  1  0  0  0  0  0  0
  -30.7490  -19.3610   19.5800 C   0  0  0  0  0  3  0  0  0  0  0  0
  -28.5750  -19.3520   20.5580 C   0  0  0  0  0  3  0  0  0  0  0  0
  -30.8460  -17.9370   19.7180 C   0  0  0  0  0  3  0  0  0  0  0  0
  -28.6750  -17.9320   20.7200 C   0  0  0  0  0  3  0  0  0  0  0  0
  -29.6050  -20.1390   19.9670 C   0  0  0  0  0  0  0  0  0  0  0  0
  -29.7990  -17.1670   20.2900 C   0  0  0  0  0  0  0  0  0  0  0  0
  -30.6170  -14.6660   20.1000 C   0  0  0  0  0  0  0  0  0  0  0  0
  -30.4380  -12.3850   19.1020 C   0  0  0  0  0  2  0  0  0  0  0  0
  -29.4450  -12.4570   17.9190 C   0  0  0  0  0  2  0  0  0  0  0  0
  -27.9900  -12.2820   18.4030 C   0  0  0  0  0  2  0  0  0  0  0  0
  -27.6610  -13.1670   19.6360 C   0  0  0  0  0  3  0  0  0  0  0  0
  -28.7620  -13.0530   20.7130 C   0  0  0  0  0  2  0  0  0  0  0  0
  -30.0410  -13.4180   20.0820 N   0  0  0  0  0  0  0  0  0  0  0  0
  -31.7610  -14.8400   19.6650 O   0  0  0  0  0  0  0  0  0  0  0  0
  -29.7880  -15.7030   20.4720 N   0  0  0  0  0  0  0  0  0  0  0  0
  -28.9160  -15.3490   20.8310 H   0  0  0  0  0  0  0  0  0  0  0  0
  -25.3070  -13.7550   20.4790 C   0  0  0  0  0  0  0  0  0  0  0  0
  -24.2560  -12.9760   20.8810 C   0  0  0  0  0  0  0  0  0  0  0  0
  -24.7110  -11.6250   20.7950 C   0  0  0  0  0  0  0  0  0  0  0  0
  -26.3360  -12.8770   20.1760 N   0  0  0  0  0  0  0  0  0  0  0  0
  -25.9860  -11.5890   20.4260 N   0  0  0  0  0  0  0  0  0  0  0  0
  -23.9890  -10.3600   20.9880 C   0  0  0  0  0  0  0  0  0  0  0  0
  -24.4360   -9.3860   21.9090 C   0  0  0  0  0  3  0  0  0  0  0  0
  -23.7130   -8.1880   22.0900 C   0  0  0  0  0  3  0  0  0  0  0  0
  -22.5280   -7.9540   21.3510 C   0  0  0  0  0  0  0  0  0  0  0  0
  -22.1010   -8.9150   20.4190 C   0  0  0  0  0  3  0  0  0  0  0  0
  -22.8250  -10.1060   20.2360 C   0  0  0  0  0  3  0  0  0  0  0  0
  -21.7770   -6.8070   21.4420 O   0  0  0  0  0  0  0  0  0  0  0  0
  -21.7250   -6.0720   22.5980 C   0  0  0  0  0  0  0  0  0  0  0  0
  -21.2690   -6.6240   23.8140 C   0  0  0  0  0  3  0  0  0  0  0  0
  -21.1660   -5.8130   24.9610 C   0  0  0  0  0  3  0  0  0  0  0  0
  -21.5090   -4.4500   24.8930 C   0  0  0  0  0  0  0  0  0  0  0  0
  -21.9590   -3.8950   23.6820 C   0  0  0  0  0  3  0  0  0  0  0  0
  -22.0630   -4.7050   22.5370 C   0  0  0  0  0  0  0  0  0  0  0  0
  -22.4760   -4.1620   21.3660 F   0  0  0  0  0  0  0  0  0  0  0  0
  -21.4040   -3.6680   25.9930 F   0  0  0  0  0  0  0  0  0  0  0  0
  -22.8750  -13.4510   21.2300 C   0  0  0  0  0  0  0  0  0  0  0  0
  -22.1850  -12.7370   22.1120 N   0  0  0  0  0  0  0  0  0  0  0  0
  -22.4170  -14.4900   20.7540 O   0  0  0  0  0  0  0  0  0  0  0  0
  -22.5660  -11.8950   22.5170 H   0  0  0  0  0  0  0  0  0  0  0  0
  -21.2620  -13.0400   22.3890 H   0  0  0  0  0  0  0  0  0  0  0  0
  -25.4650  -15.1290   20.3220 N   0  0  0  0  0  0  0  0  0  0  0  0
  -24.6920  -15.7730   20.4610 H   0  0  0  0  0  0  0  0  0  0  0  0
  -26.2730  -15.5710   19.9030 H   0  0  0  0  0  0  0  0  0  0  0  0
  -29.6670  -21.1810   17.1780 C   0  0  0  0  0  1  0  0  0  0  0  0
  -27.4670  -21.4010   18.1520 C   0  0  0  0  0  1  0  0  0  0  0  0
  -28.8960  -21.8170   18.2860 N   0  0  1  0  0  4  0  0  0  0  0  0
  -28.9050  -22.8000   18.0690 H   0  0  0  0  0  0  0  0  0  0  0  0
  -28.5740  -22.6340   20.6810 C   0  0  0  0  0  2  0  0  0  0  0  0
  -27.3570  -24.4690   21.9330 C   0  0  0  0  0  1  0  0  0  0  0  0
  -29.6670  -23.9630   22.6000 C   0  0  0  0  0  1  0  0  0  0  0  0
  -28.7510  -24.1280   21.3570 C   0  0  1  0  0  0  0  0  0  0  0  0
  -29.2920  -25.4990   20.6730 C   0  0  0  0  0  2  0  0  0  0  0  0
  -28.6650  -26.3330   19.6380 O   0  0  0  0  0  0  0  0  0  0  0  0
  -24.7470  -31.5090   23.0010 C   0  0  0  0  0  0  0  0  0  0  0  0
  -27.5250  -27.1200   19.8390 C   0  0  0  0  0  0  0  0  0  0  0  0
  -23.5940  -30.0980   21.3350 C   0  0  0  0  0  3  0  0  0  0  0  0
  -25.1010  -28.6330   19.8810 C   0  0  0  0  0  0  0  0  0  0  0  0
  -26.1200  -30.5180   21.1560 C   0  0  0  0  0  2  0  0  0  0  0  0
  -26.2530  -29.1510   20.4920 C   0  0  0  0  0  0  0  0  0  0  0  0
  -27.4720  -28.4040   20.4680 C   0  0  0  0  0  3  0  0  0  0  0  0
  -26.3580  -26.6610   19.2040 C   0  0  0  0  0  3  0  0  0  0  0  0
  -25.1540  -27.3890   19.2330 C   0  0  0  0  0  3  0  0  0  0  0  0
  -23.8330  -29.4610   19.9420 C   0  0  0  0  0  2  0  0  0  0  0  0
  -24.8390  -30.7270   21.8860 N   0  0  0  0  0  0  0  0  0  0  0  0
  -23.6550  -31.7310   23.5450 O   0  0  0  0  0  0  0  0  0  0  0  0
  -22.9820  -29.0330   22.2780 C   0  0  0  0  0  0  0  0  0  0  0  0
  -21.6680  -28.7900   22.1400 N   0  0  0  0  0  0  0  0  0  0  0  0
  -23.6890  -28.4300   23.0890 O   0  0  0  0  0  0  0  0  0  0  0  0
  -21.1570  -29.3360   21.4600 H   0  0  0  0  0  0  0  0  0  0  0  0
  -18.3620  -27.3850   22.5710 C   0  0  0  0  0  0  0  0  0  0  0  0
  -20.8930  -27.7970   22.8880 C   0  0  0  0  0  3  0  0  0  0  0  0
  -21.0930  -26.3780   22.3050 C   0  0  0  0  0  2  0  0  0  0  0  0
  -20.0290  -25.9950   21.2710 C   0  0  0  0  0  2  0  0  0  0  0  0
  -18.6290  -26.0530   21.8900 C   0  0  0  0  0  2  0  0  0  0  0  0
  -19.4240  -28.2100   23.0250 C   0  0  0  0  0  0  0  0  0  0  0  0
  -19.1220  -29.4520   23.6220 C   0  0  0  0  0  3  0  0  0  0  0  0
  -17.7880  -29.8730   23.7700 C   0  0  0  0  0  3  0  0  0  0  0  0
  -16.7380  -29.0460   23.3340 C   0  0  0  0  0  3  0  0  0  0  0  0
  -17.0250  -27.8050   22.7390 C   0  0  0  0  0  3  0  0  0  0  0  0
  -26.0050  -32.1790   23.6340 C   0  0  0  0  0  3  0  0  0  0  0  0
  -25.6270  -33.5410   24.0370 N   0  0  0  0  0  0  0  0  0  0  0  0
  -25.8930  -34.6470   23.3290 C   0  0  0  0  0  0  0  0  0  0  0  0
  -26.5510  -34.6300   22.2850 O   0  0  0  0  0  0  0  0  0  0  0  0
  -25.0440  -33.6240   24.8560 H   0  0  0  0  0  0  0  0  0  0  0  0
  -24.0650  -36.3570   23.0910 C   0  0  0  0  0  1  0  0  0  0  0  0
  -25.3410  -35.9820   23.8640 C   0  0  0  0  0  3  0  0  0  0  0  0
  -27.4360  -36.9390   24.7090 C   0  0  0  0  0  1  0  0  0  0  0  0
  -26.3130  -37.0930   23.7880 N   0  0  0  0  0  0  0  0  0  0  0  0
  -25.8630  -37.9830   23.9830 H   0  0  0  0  0  0  0  0  0  0  0  0
  -26.5850  -31.3780   24.8640 C   0  0  1  0  0  0  0  0  0  0  0  0
  -25.5250  -31.0410   25.9390 C   0  0  0  0  0  1  0  0  0  0  0  0
  -27.2290  -30.0520   24.3970 C   0  0  0  0  0  1  0  0  0  0  0  0
  -27.7090  -32.1990   25.5380 C   0  0  0  0  0  1  0  0  0  0  0  0
  1  7  1  0
  1 13  1  0
  1 57  1  1
  2  4  1  0
  3  5  1  0
  3  2  2  0
  4  6  2  0
  5  7  2  0
  6  8  1  0
  7  6  1  0
  9 11  2  0
  9 13  1  0
 10 12  1  0
 11 14  1  0
 13 10  2  0
 14 23  1  0
 14 12  2  0
 15 23  1  0
 16 21  1  0
 17 18  1  0
 17 16  1  0
 19 18  1  0
 19 28  1  0
 19 20  1  0
 21 15  1  0
 21 20  1  0
 22 15  2  0
 23 24  1  0
 25 26  2  0
 26 45  1  0
 27 26  1  0
 27 30  1  0
 28 29  1  0
 28 25  1  0
 29 27  2  0
 30 31  1  0
 31 32  2  0
 33 36  1  0
 33 32  1  0
 34 33  2  0
 35 34  1  0
 35 30  2  0
 36 37  1  0
 37 38  1  0
 38 39  2  0
 40 39  1  0
 40 44  1  0
 41 40  2  0
 42 37  2  0
 42 41  1  0
 43 42  1  0
 45 46  1  0
 46 49  1  0
 46 48  1  0
 47 45  2  0
 50 51  1  0
 50 25  1  0
 52 50  1  0
 53 55  1  0
 54 55  1  0
 55  1  1  0
 55 56  1  6
 57 60  1  0
 60 58  1  1
 60 59  1  0
 61 60  1  0
 62 64  1  0
 62 61  1  0
 63 74  2  0
 64 69  1  0
 65 73  1  0
 65 75  1  0
 66 72  1  0
 66 68  1  0
 67 73  1  0
 68 67  1  0
 69 68  2  0
 70 71  1  0
 70 64  2  0
 71 66  2  0
 72 65  1  0
 73 63  1  0
 75 77  2  0
 76 75  1  0
 78 76  1  0
 79 88  2  0
 79 84  1  0
 80 76  1  0
 80 84  1  0
 81 80  1  0
 82 83  1  0
 82 81  1  0
 83 79  1  0
 84 85  2  0
 85 86  1  0
 87 86  2  0
 88 87  1  0
 89 63  1  0
 89 90  1  0
 89 99  1  0
 90 93  1  0
 91 95  1  0
 91 90  1  0
 92 91  2  0
 95 94  1  0
 97 95  1  0
 97 98  1  0
 97 96  1  0
 99102  1  1
 99100  1  0
101 99  1  0
M  ISO  4  15 100  23 100  61 101  62 101
M  END
>  <TORSDO>  (46) 
F 22

>  <SCORE>  (46) 
-12.408

>  <name>  (46) 
45

>  <ligand_id>  (46) 
45

>  <original_smiles>  (46) 
[H]c1c([H])c([H])c(C(c2c([H])c([H])c(N([H])C(=O)N3C([H])([H])C([H])([H])C([H])([H])C([H])(n4nc(-c5c([H])c([H])c(Oc6c([H])c([H])c(F)c([H])c6F)c([H])c5[H])c(C(=O)N([H])[H])c4N([H])[H])C3([H])[H])c([H])c2[H])(C([H])([H])C(C([H])([H])[H])(C([H])([H])[H])C([H])([H])Oc2c([H])c([H])c3c(c2[H])C([H])([H])N(C(=O)C([H])(N([H])C(=O)C([H])(N([H])C([H])([H])[H])C([H])([H])[H])C(C([H])([H])[H])(C([H])([H])[H])C([H])([H])[H])C([H])(C(=O)N([H])C2([H])c4c([H])c([H])c([H])c([H])c4C([H])([H])C([H])([H])C2([H])[H])C3([H])[H])[N+]([H])(C([H])([H])[H])C([H])([H])[H])c(C([H])([H])[H])c1[H]

>  <smiles>  (46) 
[H]c1c([H])c([H])c(C(c2c([H])c([H])c(N([H])C(=O)N3C([H])([H])C([H])([H])C([H])([H])C([H])(n4nc(-c5c([H])c([H])c(Oc6c([H])c([H])c(F)c([H])c6F)c([H])c5[H])c(C(=O)N([H])[H])c4N([H])[H])C3([H])[H])c([H])c2[H])(C([H])([H])C(C([H])([H])[H])(C([H])([H])[H])C([H])([H])Oc2c([H])c([H])c3c(c2[H])C([H])([H])N(C(=O)C([H])(N([H])C(=O)C([H])(N([H])C([H])([H])[H])C([H])([H])[H])C(C([H])([H])[H])(C([H])([H])[H])C([H])([H])[H])C([H])(C(=O)N([H])C2([H])c4c([H])c([H])c([H])c([H])c4C([H])([H])C([H])([H])C2([H])[H])C3([H])[H])[N+]([H])(C([H])([H])[H])C([H])([H])[H])c(C([H])([H])[H])c1[H]

$$$$
46:0:0
     RDKit          3D

 94103  0  0  1  0  0  0  0  0999 V2000
  -30.9740  -22.5220   23.5320 C   0  0  0  0  0  2  0  0  0  0  0  0
  -30.0170  -21.8220   22.5970 C   0  0  0  0  0  3  0  0  0  0  0  0
  -30.7850  -23.0480   22.1180 C   0  0  0  0  0  3  0  0  0  0  0  0
  -30.2540  -19.3110   22.8920 C   0  0  0  0  0  3  0  0  0  0  0  0
  -30.3270  -20.2170   20.6460 C   0  0  0  0  0  3  0  0  0  0  0  0
  -30.2720  -17.9990   22.3660 C   0  0  0  0  0  3  0  0  0  0  0  0
  -30.3390  -18.9100   20.1150 C   0  0  0  0  0  3  0  0  0  0  0  0
  -30.2440  -20.4360   22.0390 C   0  0  0  0  0  0  0  0  0  0  0  0
  -30.2730  -17.7870   20.9710 C   0  0  0  0  0  0  0  0  0  0  0  0
  -30.1210  -16.3780   20.3970 C   0  0  0  0  0  2  0  0  0  0  0  0
  -31.5550  -14.4190   20.1090 C   0  0  0  0  0  0  0  0  0  0  0  0
  -31.1230  -12.1750   19.1720 C   0  0  0  0  0  2  0  0  0  0  0  0
  -30.1630  -12.2500   17.9700 C   0  0  0  0  0  2  0  0  0  0  0  0
  -28.6990  -12.1950   18.4450 C   0  0  0  0  0  2  0  0  0  0  0  0
  -28.4080  -13.1950   19.5960 C   0  0  0  0  0  3  0  0  0  0  0  0
  -29.4810  -13.0960   20.7040 C   0  0  0  0  0  2  0  0  0  0  0  0
  -30.8030  -13.2860   20.0830 N   0  0  0  0  0  0  0  0  0  0  0  0
  -32.6240  -14.5290   19.5050 O   0  0  0  0  0  0  0  0  0  0  0  0
  -31.1270  -15.4300   20.8780 N   0  0  0  0  0  0  0  0  0  0  0  0
  -31.9050  -15.9390   21.2700 H   0  0  0  0  0  0  0  0  0  0  0  0
  -26.1070  -13.9740   20.4470 C   0  0  0  0  0  0  0  0  0  0  0  0
  -24.9920  -13.2800   20.8320 C   0  0  0  0  0  0  0  0  0  0  0  0
  -25.3290  -11.8950   20.7120 C   0  0  0  0  0  0  0  0  0  0  0  0
  -27.0580  -13.0180   20.1240 N   0  0  0  0  0  0  0  0  0  0  0  0
  -26.5940  -11.7590   20.3370 N   0  0  0  0  0  0  0  0  0  0  0  0
  -24.5010  -10.6920   20.8750 C   0  0  0  0  0  0  0  0  0  0  0  0
  -24.8620   -9.6600   21.7680 C   0  0  0  0  0  3  0  0  0  0  0  0
  -24.0400   -8.5230   21.9210 C   0  0  0  0  0  3  0  0  0  0  0  0
  -22.8410   -8.4100   21.1790 C   0  0  0  0  0  0  0  0  0  0  0  0
  -22.4960   -9.4290   20.2730 C   0  0  0  0  0  3  0  0  0  0  0  0
  -23.3180  -10.5590   20.1200 C   0  0  0  0  0  3  0  0  0  0  0  0
  -21.9950   -7.3280   21.2410 O   0  0  0  0  0  0  0  0  0  0  0  0
  -21.8450   -6.6000   22.3930 C   0  0  0  0  0  0  0  0  0  0  0  0
  -21.4240   -7.1960   23.6020 C   0  0  0  0  0  3  0  0  0  0  0  0
  -21.2130   -6.4000   24.7460 C   0  0  0  0  0  3  0  0  0  0  0  0
  -21.4160   -5.0070   24.6810 C   0  0  0  0  0  0  0  0  0  0  0  0
  -21.8310   -4.4120   23.4770 C   0  0  0  0  0  3  0  0  0  0  0  0
  -22.0420   -5.2060   22.3370 C   0  0  0  0  0  0  0  0  0  0  0  0
  -22.4220   -4.6240   21.1740 F   0  0  0  0  0  0  0  0  0  0  0  0
  -21.2070   -4.2390   25.7760 F   0  0  0  0  0  0  0  0  0  0  0  0
  -23.6580  -13.8630   21.1990 C   0  0  0  0  0  0  0  0  0  0  0  0
  -22.9180  -13.2000   22.0810 N   0  0  0  0  0  0  0  0  0  0  0  0
  -23.2830  -14.9410   20.7390 O   0  0  0  0  0  0  0  0  0  0  0  0
  -23.2300  -12.3240   22.4730 H   0  0  0  0  0  0  0  0  0  0  0  0
  -22.0280  -13.5780   22.3720 H   0  0  0  0  0  0  0  0  0  0  0  0
  -26.3870  -15.3320   20.3290 N   0  0  0  0  0  0  0  0  0  0  0  0
  -25.6840  -16.0430   20.4990 H   0  0  0  0  0  0  0  0  0  0  0  0
  -27.2480  -15.7060   19.9550 H   0  0  0  0  0  0  0  0  0  0  0  0
  -29.4950  -24.4270   20.5890 C   0  0  0  0  0  0  0  0  0  0  0  0
  -29.9240  -25.2690   22.8610 C   0  0  0  0  0  1  0  0  0  0  0  0
  -30.0100  -24.2330   21.8250 N   0  0  0  0  0  0  0  0  0  0  0  0
  -29.8720  -23.7620   19.6180 O   0  0  0  0  0  0  0  0  0  0  0  0
  -28.2620  -25.3300   20.4220 C   0  0  0  0  0  2  0  0  0  0  0  0
  -28.5640  -26.6950   20.0420 O   0  0  0  0  0  0  0  0  0  0  0  0
  -24.5720  -31.7220   23.1320 C   0  0  0  0  0  0  0  0  0  0  0  0
  -27.4170  -27.4630   19.9690 C   0  0  0  0  0  0  0  0  0  0  0  0
  -23.4510  -30.3300   21.4270 C   0  0  0  0  0  3  0  0  0  0  0  0
  -24.9850  -28.9060   19.9750 C   0  0  0  0  0  0  0  0  0  0  0  0
  -25.9680  -30.7840   21.2910 C   0  0  0  0  0  2  0  0  0  0  0  0
  -26.1170  -29.4400   20.6050 C   0  0  0  0  0  0  0  0  0  0  0  0
  -27.3420  -28.7280   20.5970 C   0  0  0  0  0  3  0  0  0  0  0  0
  -26.2700  -26.9680   19.3030 C   0  0  0  0  0  3  0  0  0  0  0  0
  -25.0580  -27.6700   19.3180 C   0  0  0  0  0  3  0  0  0  0  0  0
  -23.7100  -29.7150   20.0280 C   0  0  0  0  0  2  0  0  0  0  0  0
  -24.6810  -30.9570   22.0090 N   0  0  0  0  0  0  0  0  0  0  0  0
  -23.4700  -31.9390   23.6560 O   0  0  0  0  0  0  0  0  0  0  0  0
  -22.8220  -29.2500   22.3390 C   0  0  0  0  0  0  0  0  0  0  0  0
  -21.5030  -29.0370   22.1930 N   0  0  0  0  0  0  0  0  0  0  0  0
  -23.5160  -28.6120   23.1350 O   0  0  0  0  0  0  0  0  0  0  0  0
  -21.0030  -29.6060   21.5250 H   0  0  0  0  0  0  0  0  0  0  0  0
  -18.1560  -27.7460   22.6270 C   0  0  0  0  0  0  0  0  0  0  0  0
  -20.7060  -28.0480   22.9190 C   0  0  0  0  0  3  0  0  0  0  0  0
  -20.8420  -26.6460   22.2860 C   0  0  0  0  0  2  0  0  0  0  0  0
  -19.7500  -26.3410   21.2540 C   0  0  0  0  0  2  0  0  0  0  0  0
  -18.3640  -26.4300   21.8980 C   0  0  0  0  0  2  0  0  0  0  0  0
  -19.2550  -28.5140   23.0920 C   0  0  0  0  0  0  0  0  0  0  0  0
  -19.0070  -29.7500   23.7300 C   0  0  0  0  0  3  0  0  0  0  0  0
  -17.6910  -30.2150   23.9100 C   0  0  0  0  0  3  0  0  0  0  0  0
  -16.6050  -29.4430   23.4610 C   0  0  0  0  0  3  0  0  0  0  0  0
  -16.8390  -28.2110   22.8240 C   0  0  0  0  0  3  0  0  0  0  0  0
  -25.8200  -32.3820   23.7930 C   0  0  0  0  0  3  0  0  0  0  0  0
  -26.3310  -31.6090   25.0710 C   0  0  1  0  0  0  0  0  0  0  0  0
  -25.2200  -31.3140   26.1060 C   0  0  0  0  0  1  0  0  0  0  0  0
  -26.9710  -30.2580   24.6740 C   0  0  0  0  0  1  0  0  0  0  0  0
  -27.4360  -32.4320   25.7720 C   0  0  0  0  0  1  0  0  0  0  0  0
  -25.4600  -33.7660   24.1290 N   0  0  0  0  0  0  0  0  0  0  0  0
  -25.7860  -34.8380   23.3930 C   0  0  0  0  0  0  0  0  0  0  0  0
  -26.4940  -34.7660   22.3840 O   0  0  0  0  0  0  0  0  0  0  0  0
  -24.8290  -33.8920   24.9080 H   0  0  0  0  0  0  0  0  0  0  0  0
  -24.0160  -36.5820   23.0080 C   0  0  0  0  0  1  0  0  0  0  0  0
  -25.2430  -36.2040   23.8500 C   0  0  0  0  0  3  0  0  0  0  0  0
  -27.3240  -37.1410   24.7570 C   0  0  0  0  0  1  0  0  0  0  0  0
  -26.2480  -37.2870   23.7810 N   0  0  0  0  0  0  0  0  0  0  0  0
  -25.8120  -38.1940   23.9230 H   0  0  0  0  0  0  0  0  0  0  0  0
  2  8  1  0
  2  1  1  0
  3 51  1  0
  3  2  1  0
  3  1  1  0
  5  8  1  0
  6  4  1  0
  7  5  2  0
  7  9  1  0
  8  4  2  0
  9  6  2  0
 10 19  1  0
 10  9  1  0
 11 19  1  0
 12 17  1  0
 13 14  1  0
 13 12  1  0
 15 14  1  0
 15 24  1  0
 15 16  1  0
 17 11  1  0
 17 16  1  0
 18 11  2  0
 19 20  1  0
 21 22  2  0
 22 41  1  0
 23 22  1  0
 23 26  1  0
 24 25  1  0
 24 21  1  0
 25 23  2  0
 26 27  1  0
 27 28  2  0
 29 32  1  0
 29 28  1  0
 30 29  2  0
 31 30  1  0
 31 26  2  0
 32 33  1  0
 33 34  1  0
 34 35  2  0
 36 35  1  0
 36 40  1  0
 37 36  2  0
 38 33  2  0
 38 37  1  0
 39 38  1  0
 41 42  1  0
 42 45  1  0
 42 44  1  0
 43 41  2  0
 46 21  1  0
 46 47  1  0
 48 46  1  0
 49 51  1  0
 51 50  1  0
 52 49  2  0
 53 49  1  0
 54 53  1  0
 55 66  2  0
 56 54  1  0
 56 61  1  0
 57 65  1  0
 57 67  1  0
 58 64  1  0
 58 60  1  0
 59 65  1  0
 60 59  1  0
 61 60  2  0
 62 63  1  0
 62 56  2  0
 63 58  2  0
 64 57  1  0
 65 55  1  0
 67 69  2  0
 68 67  1  0
 70 68  1  0
 71 80  2  0
 71 76  1  0
 72 68  1  0
 72 76  1  0
 73 72  1  0
 74 75  1  0
 74 73  1  0
 75 71  1  0
 76 77  2  0
 77 78  1  0
 79 78  2  0
 80 79  1  0
 81 55  1  0
 81 86  1  0
 81 82  1  0
 82 85  1  1
 82 83  1  0
 84 82  1  0
 86 89  1  0
 87 91  1  0
 87 86  1  0
 88 87  2  0
 91 90  1  0
 93 91  1  0
 93 94  1  0
 93 92  1  0
M  ISO  4  11 100  19 100  53 101  54 101
M  END
>  <TORSDO>  (47) 
F 20

>  <SCORE>  (47) 
-11.546

>  <name>  (47) 
46

>  <ligand_id>  (47) 
46

>  <original_smiles>  (47) 
[H]c1c([H])c([H])c2c(c1[H])C([H])([H])C([H])([H])C([H])([H])C2([H])N([H])C(=O)C1([H])N(C(=O)C([H])(N([H])C(=O)C([H])(N([H])C([H])([H])[H])C([H])([H])[H])C(C([H])([H])[H])(C([H])([H])[H])C([H])([H])[H])C([H])([H])c2c([H])c(OC([H])([H])C(=O)N(C([H])([H])[H])C3([H])C([H])([H])C3([H])c3c([H])c([H])c(C([H])([H])N([H])C(=O)N4C([H])([H])C([H])([H])C([H])([H])C([H])(n5nc(-c6c([H])c([H])c(Oc7c([H])c([H])c(F)c([H])c7F)c([H])c6[H])c(C(=O)N([H])[H])c5N([H])[H])C4([H])[H])c([H])c3[H])c([H])c([H])c2C1([H])[H]

>  <smiles>  (47) 
[H]c1c([H])c([H])c2c(c1[H])C([H])([H])C([H])([H])C([H])([H])C2([H])N([H])C(=O)C1([H])N(C(=O)C([H])(N([H])C(=O)C([H])(N([H])C([H])([H])[H])C([H])([H])[H])C(C([H])([H])[H])(C([H])([H])[H])C([H])([H])[H])C([H])([H])c2c([H])c(OC([H])([H])C(=O)N(C([H])([H])[H])C3([H])C([H])([H])C3([H])c3c([H])c([H])c(C([H])([H])N([H])C(=O)N4C([H])([H])C([H])([H])C([H])([H])C([H])(n5nc(-c6c([H])c([H])c(Oc7c([H])c([H])c(F)c([H])c7F)c([H])c6[H])c(C(=O)N([H])[H])c5N([H])[H])C4([H])[H])c([H])c3[H])c([H])c([H])c2C1([H])[H]

$$$$
47:0:0
     RDKit          3D

106114  0  0  1  0  0  0  0  0999 V2000
  -29.9440  -20.4450   19.9930 C   0  0  0  0  0  3  0  0  0  0  0  0
  -30.9490  -17.3050   21.3650 C   0  0  0  0  0  2  0  0  0  0  0  0
  -29.6680  -17.6350   22.1450 C   0  0  0  0  0  2  0  0  0  0  0  0
  -30.5430  -17.4390   19.8910 C   0  0  0  0  0  3  0  0  0  0  0  0
  -29.5260  -18.7850   20.0270 C   0  0  0  0  0  3  0  0  0  0  0  0
  -28.8630  -18.5660   21.3240 N   0  0  0  0  0  4  0  0  0  0  0  0
  -28.7500  -19.4470   21.7940 H   0  0  0  0  0  0  0  0  0  0  0  0
  -27.9430  -18.1850   21.1770 H   0  0  0  0  0  0  0  0  0  0  0  0
  -30.8540  -14.7690   19.3890 C   0  0  0  0  0  0  0  0  0  0  0  0
  -30.5380  -12.4160   18.5210 C   0  0  0  0  0  2  0  0  0  0  0  0
  -29.4730  -12.4000   17.4020 C   0  0  0  0  0  2  0  0  0  0  0  0
  -28.0560  -12.2740   17.9990 C   0  0  0  0  0  2  0  0  0  0  0  0
  -27.8230  -13.2270   19.1970 C   0  0  0  0  0  3  0  0  0  0  0  0
  -28.9980  -13.2100   20.1930 C   0  0  0  0  0  2  0  0  0  0  0  0
  -30.2080  -13.5430   19.4300 N   0  0  0  0  0  0  0  0  0  0  0  0
  -32.0350  -14.7930   19.0300 O   0  0  0  0  0  0  0  0  0  0  0  0
  -30.1140  -15.9610   19.5570 N   0  0  0  0  0  0  0  0  0  0  0  0
  -29.1270  -15.7830   19.6500 H   0  0  0  0  0  0  0  0  0  0  0  0
  -25.5990  -13.9200   20.2670 C   0  0  0  0  0  0  0  0  0  0  0  0
  -24.5340  -13.2010   20.7310 C   0  0  0  0  0  0  0  0  0  0  0  0
  -24.8870  -11.8280   20.5650 C   0  0  0  0  0  0  0  0  0  0  0  0
  -26.5390  -12.9940   19.8480 N   0  0  0  0  0  0  0  0  0  0  0  0
  -26.1250  -11.7240   20.0900 N   0  0  0  0  0  0  0  0  0  0  0  0
  -24.0960  -10.6070   20.7800 C   0  0  0  0  0  0  0  0  0  0  0  0
  -24.5070   -9.6090   21.6910 C   0  0  0  0  0  3  0  0  0  0  0  0
  -23.7170   -8.4580   21.8980 C   0  0  0  0  0  3  0  0  0  0  0  0
  -22.5010   -8.2960   21.1960 C   0  0  0  0  0  0  0  0  0  0  0  0
  -22.1050   -9.2800   20.2750 C   0  0  0  0  0  3  0  0  0  0  0  0
  -22.8950  -10.4250   20.0640 C   0  0  0  0  0  3  0  0  0  0  0  0
  -21.6820   -7.1970   21.3160 O   0  0  0  0  0  0  0  0  0  0  0  0
  -21.5650   -6.5110   22.4970 C   0  0  0  0  0  0  0  0  0  0  0  0
  -21.1210   -7.1390   23.6830 C   0  0  0  0  0  3  0  0  0  0  0  0
  -20.9460   -6.3820   24.8570 C   0  0  0  0  0  3  0  0  0  0  0  0
  -21.2000   -4.9980   24.8490 C   0  0  0  0  0  0  0  0  0  0  0  0
  -21.6370   -4.3690   23.6690 C   0  0  0  0  0  3  0  0  0  0  0  0
  -21.8140   -5.1230   22.4970 C   0  0  0  0  0  0  0  0  0  0  0  0
  -22.2140   -4.5080   21.3570 F   0  0  0  0  0  0  0  0  0  0  0  0
  -21.0240   -4.2700   25.9750 F   0  0  0  0  0  0  0  0  0  0  0  0
  -23.2230  -13.7590   21.2000 C   0  0  0  0  0  0  0  0  0  0  0  0
  -22.5590  -13.0650   22.1210 N   0  0  0  0  0  0  0  0  0  0  0  0
  -22.8060  -14.8390   20.7810 O   0  0  0  0  0  0  0  0  0  0  0  0
  -22.9230  -12.1950   22.4800 H   0  0  0  0  0  0  0  0  0  0  0  0
  -21.6780  -13.4160   22.4690 H   0  0  0  0  0  0  0  0  0  0  0  0
  -25.8300  -15.2870   20.1410 N   0  0  0  0  0  0  0  0  0  0  0  0
  -25.0460  -15.9200   20.2680 H   0  0  0  0  0  0  0  0  0  0  0  0
  -26.5630  -15.6860   19.5750 H   0  0  0  0  0  0  0  0  0  0  0  0
  -30.9530  -20.8110   21.0210 N   0  0  0  0  0  0  0  0  0  0  0  0
  -30.5760  -20.7420   21.9660 H   0  0  0  0  0  0  0  0  0  0  0  0
  -32.2760  -20.1660   20.9630 C   0  0  0  0  0  3  0  0  0  0  0  0
  -32.7740  -19.9850   19.5010 C   0  0  0  0  0  2  0  0  0  0  0  0
  -33.4090  -21.2390   18.8470 C   0  0  0  0  0  2  0  0  0  0  0  0
  -34.0980  -20.9240   17.5820 N   0  0  0  0  0  4  0  0  0  0  0  0
  -34.7800  -20.2020   17.7310 H   0  0  0  0  0  0  0  0  0  0  0  0
  -34.5850  -21.7390   17.2490 H   0  0  0  0  0  0  0  0  0  0  0  0
  -33.4560  -20.6250   16.8710 H   0  0  0  0  0  0  0  0  0  0  0  0
  -33.3030  -20.9080   21.8570 C   0  0  0  0  0  2  0  0  0  0  0  0
  -34.5940  -20.3540   21.6790 O   0  0  0  0  0  0  0  0  0  0  0  0
  -34.5570  -19.4330   21.9150 H   0  0  0  0  0  0  0  0  0  0  0  0
  -28.8050  -21.6870   20.0100 C   0  0  0  0  0  2  0  0  0  0  0  0
  -29.1160  -23.3440   20.1530 C   0  0  0  0  0  3  0  0  0  0  0  0
  -30.2020  -23.7240   19.2270 N   0  0  0  0  0  4  0  0  0  0  0  0
  -29.9430  -23.5620   18.2670 H   0  0  0  0  0  0  0  0  0  0  0  0
  -31.0440  -23.2180   19.4220 H   0  0  0  0  0  0  0  0  0  0  0  0
  -30.3980  -24.7080   19.3230 H   0  0  0  0  0  0  0  0  0  0  0  0
  -27.9480  -24.5270   20.0180 C   0  0  0  0  0  2  0  0  0  0  0  0
  -28.1850  -26.0420   20.1820 O   0  0  0  0  0  0  0  0  0  0  0  0
  -24.4350  -31.6270   23.1160 C   0  0  0  0  0  0  0  0  0  0  0  0
  -27.0980  -26.9750   20.1090 C   0  0  0  0  0  0  0  0  0  0  0  0
  -23.2590  -30.2020   21.4840 C   0  0  0  0  0  3  0  0  0  0  0  0
  -24.7340  -28.6510   20.0680 C   0  0  0  0  0  0  0  0  0  0  0  0
  -25.8050  -30.5190   21.3170 C   0  0  0  0  0  2  0  0  0  0  0  0
  -25.9020  -29.1270   20.6750 C   0  0  0  0  0  0  0  0  0  0  0  0
  -27.0850  -28.3040   20.6810 C   0  0  0  0  0  3  0  0  0  0  0  0
  -25.9000  -26.5890   19.4650 C   0  0  0  0  0  3  0  0  0  0  0  0
  -24.7430  -27.3920   19.4500 C   0  0  0  0  0  3  0  0  0  0  0  0
  -23.4910  -29.5200   20.1100 C   0  0  0  0  0  2  0  0  0  0  0  0
  -24.5190  -30.8040   22.0270 N   0  0  0  0  0  0  0  0  0  0  0  0
  -23.3420  -31.8960   23.6410 O   0  0  0  0  0  0  0  0  0  0  0  0
  -22.6000  -29.1860   22.4520 C   0  0  0  0  0  0  0  0  0  0  0  0
  -21.2810  -28.9670   22.3030 N   0  0  0  0  0  0  0  0  0  0  0  0
  -23.2770  -28.5990   23.3000 O   0  0  0  0  0  0  0  0  0  0  0  0
  -20.7900  -29.4900   21.5920 H   0  0  0  0  0  0  0  0  0  0  0  0
  -17.9400  -27.6390   22.7410 C   0  0  0  0  0  0  0  0  0  0  0  0
  -20.4760  -28.0170   23.0780 C   0  0  0  0  0  3  0  0  0  0  0  0
  -20.6570  -26.5740   22.5490 C   0  0  0  0  0  2  0  0  0  0  0  0
  -19.6010  -26.1750   21.5130 C   0  0  0  0  0  2  0  0  0  0  0  0
  -18.1950  -26.2800   22.1100 C   0  0  0  0  0  2  0  0  0  0  0  0
  -19.0110  -28.4600   23.1820 C   0  0  0  0  0  0  0  0  0  0  0  0
  -18.7200  -29.7280   23.7320 C   0  0  0  0  0  3  0  0  0  0  0  0
  -17.3910  -30.1740   23.8480 C   0  0  0  0  0  3  0  0  0  0  0  0
  -16.3330  -29.3500   23.4240 C   0  0  0  0  0  3  0  0  0  0  0  0
  -16.6090  -28.0850   22.8770 C   0  0  0  0  0  3  0  0  0  0  0  0
  -25.7020  -32.2870   23.7380 C   0  0  0  0  0  3  0  0  0  0  0  0
  -25.3650  -33.6810   24.0680 N   0  0  0  0  0  0  0  0  0  0  0  0
  -25.6710  -34.7410   23.3090 C   0  0  0  0  0  0  0  0  0  0  0  0
  -26.3340  -34.6500   22.2720 O   0  0  0  0  0  0  0  0  0  0  0  0
  -24.7780  -33.8250   24.8780 H   0  0  0  0  0  0  0  0  0  0  0  0
  -23.9050  -36.5000   22.9740 C   0  0  0  0  0  1  0  0  0  0  0  0
  -25.1630  -36.1210   23.7720 C   0  0  0  0  0  3  0  0  0  0  0  0
  -27.2870  -37.0510   24.5820 C   0  0  0  0  0  1  0  0  0  0  0  0
  -26.1740  -37.1930   23.6450 N   0  0  0  0  0  0  0  0  0  0  0  0
  -25.7520  -38.1070   23.7900 H   0  0  0  0  0  0  0  0  0  0  0  0
  -26.2300  -31.5300   25.0180 C   0  0  1  0  0  0  0  0  0  0  0  0
  -25.1380  -31.2740   26.0820 C   0  0  0  0  0  1  0  0  0  0  0  0
  -26.8460  -30.1650   24.6360 C   0  0  0  0  0  1  0  0  0  0  0  0
  -27.3620  -32.3510   25.6800 C   0  0  0  0  0  1  0  0  0  0  0  0
  1 59  1  0
  1 47  1  0
  2  3  1  0
  4 17  1  0
  4  5  1  0
  4  2  1  0
  5  1  1  0
  5  6  1  0
  6  7  1  0
  6  3  1  0
  8  6  1  0
  9 15  1  0
  9 17  1  0
 10 15  1  0
 11 12  1  0
 11 10  1  0
 13 12  1  0
 13 22  1  0
 13 14  1  0
 15 14  1  0
 16  9  2  0
 17 18  1  0
 19 20  2  0
 20 39  1  0
 21 20  1  0
 21 24  1  0
 22 23  1  0
 22 19  1  0
 23 21  2  0
 24 25  1  0
 25 26  2  0
 27 30  1  0
 27 26  1  0
 28 27  2  0
 29 28  1  0
 29 24  2  0
 30 31  1  0
 31 32  1  0
 32 33  2  0
 34 33  1  0
 34 38  1  0
 35 34  2  0
 36 31  2  0
 36 35  1  0
 37 36  1  0
 39 40  1  0
 40 43  1  0
 40 42  1  0
 41 39  2  0
 44 19  1  0
 44 45  1  0
 46 44  1  0
 47 48  1  0
 49 50  1  0
 49 47  1  0
 49 56  1  0
 51 50  1  0
 52 53  1  0
 52 51  1  0
 54 52  1  0
 55 52  1  0
 57 56  1  0
 57 58  1  0
 60 59  1  0
 61 64  1  0
 61 63  1  0
 61 60  1  0
 62 61  1  0
 65 60  1  0
 65 66  1  0
 67 78  2  0
 68 66  1  0
 68 73  1  0
 69 77  1  0
 69 79  1  0
 70 76  1  0
 70 72  1  0
 71 77  1  0
 72 73  2  0
 72 71  1  0
 74 68  2  0
 75 74  1  0
 75 70  2  0
 76 69  1  0
 77 67  1  0
 79 81  2  0
 80 79  1  0
 82 80  1  0
 83 92  2  0
 83 88  1  0
 84 80  1  0
 84 88  1  0
 85 84  1  0
 86 87  1  0
 86 85  1  0
 87 83  1  0
 88 89  2  0
 89 90  1  0
 91 90  2  0
 92 91  1  0
 93 67  1  0
 93 94  1  0
 93103  1  0
 94 97  1  0
 95 99  1  0
 95 94  1  0
 96 95  2  0
 99 98  1  0
101 99  1  0
101102  1  0
101100  1  0
103106  1  1
103104  1  0
105103  1  0
M  ISO  4   9 100  17 100  65 101  66 101
M  END
>  <TORSDO>  (48) 
F 28

>  <SCORE>  (48) 
-10.629

>  <name>  (48) 
47

>  <ligand_id>  (48) 
47

>  <original_smiles>  (48) 
[H]OC([H])([H])C([H])(N([H])C([H])(C([H])([H])C([H])(C([H])([H])Oc1c([H])c([H])c2c(c1[H])C([H])([H])N(C(=O)C([H])(N([H])C(=O)C([H])(N([H])C([H])([H])[H])C([H])([H])[H])C(C([H])([H])[H])(C([H])([H])[H])C([H])([H])[H])C([H])(C(=O)N([H])C1([H])c3c([H])c([H])c([H])c([H])c3C([H])([H])C([H])([H])C1([H])[H])C2([H])[H])[N+]([H])([H])[H])C1([H])C([H])(N([H])C(=O)N2C([H])([H])C([H])([H])C([H])([H])C([H])(n3nc(-c4c([H])c([H])c(Oc5c([H])c([H])c(F)c([H])c5F)c([H])c4[H])c(C(=O)N([H])[H])c3N([H])[H])C2([H])[H])C([H])([H])C([H])([H])[N+]1([H])[H])C([H])([H])C([H])([H])[N+]([H])([H])[H]

>  <smiles>  (48) 
[H]OC([H])([H])C([H])(N([H])C([H])(C([H])([H])C([H])(C([H])([H])Oc1c([H])c([H])c2c(c1[H])C([H])([H])N(C(=O)C([H])(N([H])C(=O)C([H])(N([H])C([H])([H])[H])C([H])([H])[H])C(C([H])([H])[H])(C([H])([H])[H])C([H])([H])[H])C([H])(C(=O)N([H])C1([H])c3c([H])c([H])c([H])c([H])c3C([H])([H])C([H])([H])C1([H])[H])C2([H])[H])[N+]([H])([H])[H])C1([H])C([H])(N([H])C(=O)N2C([H])([H])C([H])([H])C([H])([H])C([H])(n3nc(-c4c([H])c([H])c(Oc5c([H])c([H])c(F)c([H])c5F)c([H])c4[H])c(C(=O)N([H])[H])c3N([H])[H])C2([H])[H])C([H])([H])C([H])([H])[N+]1([H])[H])C([H])([H])C([H])([H])[N+]([H])([H])[H]

$$$$
48:0:0
     RDKit          3D

104113  0  0  1  0  0  0  0  0999 V2000
  -31.0300  -24.3100   18.8880 C   0  0  0  0  0  0  0  0  0  0  0  0
  -30.5800  -22.6410   21.8970 C   0  0  0  0  0  2  0  0  0  0  0  0
  -32.4080  -21.4390   20.5580 C   0  0  0  0  0  2  0  0  0  0  0  0
  -31.1640  -23.9630   21.3620 C   0  0  0  0  0  2  0  0  0  0  0  0
  -32.7320  -22.8030   19.9150 C   0  0  0  0  0  2  0  0  0  0  0  0
  -31.6740  -21.5390   21.9290 C   0  0  0  0  0  3  0  0  0  0  0  0
  -31.5910  -23.7330   19.9820 N   0  0  0  0  0  0  0  0  0  0  0  0
  -31.1810  -23.8430   17.7540 O   0  0  0  0  0  0  0  0  0  0  0  0
  -31.2410  -20.1590   22.5490 C   0  0  0  0  0  3  0  0  0  0  0  0
  -29.5200  -18.4240   19.5560 C   0  0  0  0  0  3  0  0  0  0  0  0
  -29.9730  -19.4250   20.4350 C   0  0  0  0  0  3  0  0  0  0  0  0
  -29.7790  -17.0690   19.8340 C   0  0  0  0  0  3  0  0  0  0  0  0
  -30.9490  -17.7130   21.8740 C   0  0  0  0  0  3  0  0  0  0  0  0
  -30.7200  -19.0830   21.5860 C   0  0  0  0  0  0  0  0  0  0  0  0
  -30.4990  -16.7040   20.9920 C   0  0  0  0  0  0  0  0  0  0  0  0
  -31.2410  -14.4340   20.4890 C   0  0  0  0  0  0  0  0  0  0  0  0
  -30.8610  -12.3450   19.2370 C   0  0  0  0  0  2  0  0  0  0  0  0
  -29.9270  -12.6320   18.0400 C   0  0  0  0  0  2  0  0  0  0  0  0
  -28.4500  -12.5260   18.4640 C   0  0  0  0  0  2  0  0  0  0  0  0
  -28.1460  -13.3590   19.7370 C   0  0  0  0  0  3  0  0  0  0  0  0
  -29.1720  -13.0410   20.8480 C   0  0  0  0  0  2  0  0  0  0  0  0
  -30.5280  -13.2890   20.3160 N   0  0  0  0  0  0  0  0  0  0  0  0
  -32.3110  -14.6610   19.9110 O   0  0  0  0  0  0  0  0  0  0  0  0
  -30.6870  -15.3350   21.3160 N   0  0  0  0  0  0  0  0  0  0  0  0
  -29.9960  -14.9490   21.9420 H   0  0  0  0  0  0  0  0  0  0  0  0
  -25.7650  -14.0800   20.4110 C   0  0  0  0  0  0  0  0  0  0  0  0
  -24.6610  -13.3540   20.7670 C   0  0  0  0  0  0  0  0  0  0  0  0
  -25.0650  -11.9850   20.7480 C   0  0  0  0  0  0  0  0  0  0  0  0
  -26.7730  -13.1520   20.1940 N   0  0  0  0  0  0  0  0  0  0  0  0
  -26.3530  -11.8880   20.4520 N   0  0  0  0  0  0  0  0  0  0  0  0
  -24.2880  -10.7540   20.9340 C   0  0  0  0  0  0  0  0  0  0  0  0
  -24.6590   -9.7860   21.8920 C   0  0  0  0  0  3  0  0  0  0  0  0
  -23.8850   -8.6180   22.0640 C   0  0  0  0  0  3  0  0  0  0  0  0
  -22.7260   -8.4120   21.2780 C   0  0  0  0  0  0  0  0  0  0  0  0
  -22.3760   -9.3700   20.3100 C   0  0  0  0  0  3  0  0  0  0  0  0
  -23.1500  -10.5280   20.1370 C   0  0  0  0  0  3  0  0  0  0  0  0
  -21.9270   -7.2980   21.3590 O   0  0  0  0  0  0  0  0  0  0  0  0
  -21.7850   -6.5990   22.5320 C   0  0  0  0  0  0  0  0  0  0  0  0
  -21.3070   -7.2120   23.7120 C   0  0  0  0  0  3  0  0  0  0  0  0
  -21.1100   -6.4410   24.8750 C   0  0  0  0  0  3  0  0  0  0  0  0
  -21.3770   -5.0590   24.8580 C   0  0  0  0  0  0  0  0  0  0  0  0
  -21.8460   -4.4470   23.6840 C   0  0  0  0  0  3  0  0  0  0  0  0
  -22.0450   -5.2140   22.5230 C   0  0  0  0  0  0  0  0  0  0  0  0
  -22.4770   -4.6160   21.3870 F   0  0  0  0  0  0  0  0  0  0  0  0
  -21.1800   -4.3170   25.9720 F   0  0  0  0  0  0  0  0  0  0  0  0
  -23.2830  -13.8880   21.0300 C   0  0  0  0  0  0  0  0  0  0  0  0
  -22.5250  -13.2280   21.8980 N   0  0  0  0  0  0  0  0  0  0  0  0
  -22.8850  -14.9230   20.4970 O   0  0  0  0  0  0  0  0  0  0  0  0
  -22.8570  -12.3870   22.3470 H   0  0  0  0  0  0  0  0  0  0  0  0
  -21.5980  -13.5670   22.1220 H   0  0  0  0  0  0  0  0  0  0  0  0
  -25.9910  -15.4420   20.2310 N   0  0  0  0  0  0  0  0  0  0  0  0
  -25.2500  -16.1300   20.3240 H   0  0  0  0  0  0  0  0  0  0  0  0
  -26.8700  -15.8440   19.9320 H   0  0  0  0  0  0  0  0  0  0  0  0
  -30.3300  -20.2890   23.6940 N   0  0  0  0  0  4  0  0  0  0  0  0
  -29.4390  -20.6430   23.4050 H   0  0  0  0  0  0  0  0  0  0  0  0
  -30.7180  -20.8920   24.3980 H   0  0  0  0  0  0  0  0  0  0  0  0
  -30.1800  -19.3850   24.1030 H   0  0  0  0  0  0  0  0  0  0  0  0
  -30.2950  -25.6640   19.0220 C   0  0  0  0  0  3  0  0  0  0  0  0
  -30.5630  -26.5160   17.8400 N   0  0  0  0  0  4  0  0  0  0  0  0
  -30.2500  -26.0680   16.9940 H   0  0  0  0  0  0  0  0  0  0  0  0
  -31.5530  -26.6560   17.7490 H   0  0  0  0  0  0  0  0  0  0  0  0
  -30.1210  -27.4120   17.9260 H   0  0  0  0  0  0  0  0  0  0  0  0
  -28.7730  -25.5980   19.3370 C   0  0  0  0  0  2  0  0  0  0  0  0
  -28.5060  -26.7170   20.1950 O   0  0  0  0  0  0  0  0  0  0  0  0
  -24.6090  -31.8550   23.1910 C   0  0  0  0  0  0  0  0  0  0  0  0
  -27.2880  -27.3670   20.1810 C   0  0  0  0  0  0  0  0  0  0  0  0
  -23.4130  -30.4290   21.5580 C   0  0  0  0  0  3  0  0  0  0  0  0
  -24.8770  -28.8530   20.1830 C   0  0  0  0  0  0  0  0  0  0  0  0
  -25.9410  -30.7700   21.3890 C   0  0  0  0  0  2  0  0  0  0  0  0
  -26.0270  -29.3870   20.7730 C   0  0  0  0  0  0  0  0  0  0  0  0
  -27.2260  -28.6460   20.7790 C   0  0  0  0  0  3  0  0  0  0  0  0
  -26.1140  -26.8290   19.6070 C   0  0  0  0  0  3  0  0  0  0  0  0
  -24.9120  -27.5680   19.6070 C   0  0  0  0  0  3  0  0  0  0  0  0
  -23.6370  -29.7190   20.1970 C   0  0  0  0  0  2  0  0  0  0  0  0
  -24.6720  -31.0350   22.1060 N   0  0  0  0  0  0  0  0  0  0  0  0
  -23.5230  -32.1460   23.7130 O   0  0  0  0  0  0  0  0  0  0  0  0
  -22.7450  -29.4320   22.5290 C   0  0  0  0  0  0  0  0  0  0  0  0
  -21.4240  -29.2440   22.3770 N   0  0  0  0  0  0  0  0  0  0  0  0
  -23.4120  -28.8270   23.3720 O   0  0  0  0  0  0  0  0  0  0  0  0
  -20.9470  -29.7850   21.6690 H   0  0  0  0  0  0  0  0  0  0  0  0
  -18.0480  -28.0350   22.8090 C   0  0  0  0  0  0  0  0  0  0  0  0
  -20.5930  -28.3230   23.1500 C   0  0  0  0  0  3  0  0  0  0  0  0
  -20.7240  -26.8770   22.6190 C   0  0  0  0  0  2  0  0  0  0  0  0
  -19.6570  -26.5150   21.5820 C   0  0  0  0  0  2  0  0  0  0  0  0
  -18.2560  -26.6670   22.1800 C   0  0  0  0  0  2  0  0  0  0  0  0
  -19.1470  -28.8190   23.2500 C   0  0  0  0  0  0  0  0  0  0  0  0
  -18.8990  -30.0980   23.7930 C   0  0  0  0  0  3  0  0  0  0  0  0
  -17.5850  -30.5940   23.9010 C   0  0  0  0  0  3  0  0  0  0  0  0
  -16.5010  -29.8050   23.4770 C   0  0  0  0  0  3  0  0  0  0  0  0
  -16.7330  -28.5280   22.9360 C   0  0  0  0  0  3  0  0  0  0  0  0
  -25.8930  -32.4880   23.8140 C   0  0  0  0  0  3  0  0  0  0  0  0
  -25.5740  -33.8790   24.1630 N   0  0  0  0  0  0  0  0  0  0  0  0
  -25.9000  -34.9430   23.4150 C   0  0  0  0  0  0  0  0  0  0  0  0
  -26.5730  -34.8550   22.3850 O   0  0  0  0  0  0  0  0  0  0  0  0
  -24.9790  -34.0230   24.9660 H   0  0  0  0  0  0  0  0  0  0  0  0
  -24.1640  -36.7270   23.0730 C   0  0  0  0  0  1  0  0  0  0  0  0
  -25.4030  -36.3220   23.8870 C   0  0  0  0  0  3  0  0  0  0  0  0
  -27.5300  -37.2110   24.7380 C   0  0  0  0  0  1  0  0  0  0  0  0
  -26.4320  -37.3820   23.7900 N   0  0  0  0  0  0  0  0  0  0  0  0
  -26.0190  -38.2990   23.9420 H   0  0  0  0  0  0  0  0  0  0  0  0
  -26.4190  -31.7020   25.0780 C   0  0  1  0  0  0  0  0  0  0  0  0
  -25.3320  -31.4390   26.1470 C   0  0  0  0  0  1  0  0  0  0  0  0
  -27.0150  -30.3370   24.6650 C   0  0  0  0  0  1  0  0  0  0  0  0
  -27.5660  -32.4960   25.7480 C   0  0  0  0  0  1  0  0  0  0  0  0
  1 58  1  0
  1  7  1  0
  2  6  1  0
  3  6  1  0
  4  2  1  0
  5  7  1  0
  5  3  1  0
  6  9  1  0
  7  4  1  0
  8  1  2  0
  9 54  1  0
 10 12  2  0
 10 11  1  0
 11 14  2  0
 12 15  1  0
 14 13  1  0
 14  9  1  0
 15 24  1  0
 15 13  2  0
 16 24  1  0
 17 22  1  0
 18 19  1  0
 18 17  1  0
 20 19  1  0
 20 29  1  0
 20 21  1  0
 22 16  1  0
 22 21  1  0
 23 16  2  0
 24 25  1  0
 26 27  2  0
 27 46  1  0
 28 27  1  0
 28 31  1  0
 29 26  1  0
 29 30  1  0
 30 28  2  0
 31 32  1  0
 32 33  2  0
 34 37  1  0
 34 33  1  0
 35 34  2  0
 36 35  1  0
 36 31  2  0
 37 38  1  0
 38 39  1  0
 39 40  2  0
 41 40  1  0
 41 45  1  0
 42 41  2  0
 43 38  2  0
 43 42  1  0
 44 43  1  0
 46 47  1  0
 47 50  1  0
 47 49  1  0
 48 46  2  0
 51 52  1  0
 51 26  1  0
 53 51  1  0
 54 57  1  0
 54 56  1  0
 55 54  1  0
 58 63  1  0
 59 62  1  0
 59 58  1  0
 60 59  1  0
 61 59  1  0
 63 64  1  0
 65 76  2  0
 66 64  1  0
 66 71  1  0
 67 75  1  0
 67 77  1  0
 68 74  1  0
 68 70  1  0
 69 75  1  0
 70 71  2  0
 70 69  1  0
 72 66  2  0
 73 72  1  0
 73 68  2  0
 74 67  1  0
 75 65  1  0
 77 79  2  0
 78 77  1  0
 80 78  1  0
 81 90  2  0
 81 86  1  0
 82 78  1  0
 82 86  1  0
 83 82  1  0
 84 85  1  0
 84 83  1  0
 85 81  1  0
 86 87  2  0
 87 88  1  0
 89 88  2  0
 90 89  1  0
 91 65  1  0
 91 92  1  0
 91101  1  0
 92 95  1  0
 93 97  1  0
 93 92  1  0
 94 93  2  0
 97 96  1  0
 99 97  1  0
 99100  1  0
 99 98  1  0
101104  1  1
101102  1  0
103101  1  0
M  ISO  4  16 100  24 100  63 101  64 101
M  END
>  <TORSDO>  (49) 
F 22

>  <SCORE>  (49) 
-13.474

>  <name>  (49) 
48

>  <ligand_id>  (49) 
48

>  <original_smiles>  (49) 
[H]c1c([H])c([H])c2c(c1[H])C([H])([H])C([H])([H])C([H])([H])C2([H])N([H])C(=O)C1([H])N(C(=O)C([H])(N([H])C(=O)C([H])(N([H])C([H])([H])[H])C([H])([H])[H])C(C([H])([H])[H])(C([H])([H])[H])C([H])([H])[H])C([H])([H])c2c([H])c(OC([H])([H])C([H])(C(=O)N3C([H])([H])C([H])([H])C([H])(C([H])(c4c([H])c([H])c([H])c(N([H])C(=O)N5C([H])([H])C([H])([H])C([H])([H])C([H])(n6nc(-c7c([H])c([H])c(Oc8c([H])c([H])c(F)c([H])c8F)c([H])c7[H])c(C(=O)N([H])[H])c6N([H])[H])C5([H])[H])c4[H])[N+]([H])([H])[H])C([H])([H])C3([H])[H])[N+]([H])([H])[H])c([H])c([H])c2C1([H])[H]

>  <smiles>  (49) 
[H]c1c([H])c([H])c2c(c1[H])C([H])([H])C([H])([H])C([H])([H])C2([H])N([H])C(=O)C1([H])N(C(=O)C([H])(N([H])C(=O)C([H])(N([H])C([H])([H])[H])C([H])([H])[H])C(C([H])([H])[H])(C([H])([H])[H])C([H])([H])[H])C([H])([H])c2c([H])c(OC([H])([H])C([H])(C(=O)N3C([H])([H])C([H])([H])C([H])(C([H])(c4c([H])c([H])c([H])c(N([H])C(=O)N5C([H])([H])C([H])([H])C([H])([H])C([H])(n6nc(-c7c([H])c([H])c(Oc8c([H])c([H])c(F)c([H])c8F)c([H])c7[H])c(C(=O)N([H])[H])c6N([H])[H])C5([H])[H])c4[H])[N+]([H])([H])[H])C([H])([H])C3([H])[H])[N+]([H])([H])[H])c([H])c([H])c2C1([H])[H]

$$$$
49:0:0
     RDKit          3D

 99108  0  0  1  0  0  0  0  0999 V2000
  -28.8420  -21.7460   22.0410 C   0  0  0  0  0  2  0  0  0  0  0  0
  -28.8440  -23.2820   22.3070 C   0  0  0  0  0  2  0  0  0  0  0  0
  -30.0880  -21.5040   21.1780 C   0  0  0  0  0  3  0  0  0  0  0  0
  -29.5310  -23.9850   21.0960 C   0  0  0  0  0  3  0  0  0  0  0  0
  -30.2080  -22.8140   20.3930 N   0  0  0  0  0  4  0  0  0  0  0  0
  -29.7180  -22.7150   19.5200 H   0  0  0  0  0  0  0  0  0  0  0  0
  -31.1660  -23.0450   20.1890 H   0  0  0  0  0  0  0  0  0  0  0  0
  -31.4320  -18.9020   18.6330 C   0  0  0  0  0  3  0  0  0  0  0  0
  -31.0480  -20.0870   19.2760 C   0  0  0  0  0  3  0  0  0  0  0  0
  -30.2030  -18.7380   21.1120 C   0  0  0  0  0  3  0  0  0  0  0  0
  -31.2050  -17.6220   19.1840 C   0  0  0  0  0  0  0  0  0  0  0  0
  -30.3940  -20.0680   20.5200 C   0  0  0  0  0  0  0  0  0  0  0  0
  -30.6210  -17.4720   20.4880 C   0  0  0  0  0  0  0  0  0  0  0  0
  -31.0940  -14.9090   20.9630 C   0  0  0  0  0  0  0  0  0  0  0  0
  -30.9090  -12.5870   20.0420 C   0  0  0  0  0  2  0  0  0  0  0  0
  -30.1080  -12.5930   18.7220 C   0  0  0  0  0  2  0  0  0  0  0  0
  -28.5920  -12.5400   18.9870 C   0  0  0  0  0  2  0  0  0  0  0  0
  -28.1270  -13.4760   20.1360 C   0  0  0  0  0  3  0  0  0  0  0  0
  -29.0640  -13.4070   21.3610 C   0  0  0  0  0  2  0  0  0  0  0  0
  -30.4240  -13.7030   20.8930 N   0  0  0  0  0  0  0  0  0  0  0  0
  -32.3110  -14.9320   20.7620 O   0  0  0  0  0  0  0  0  0  0  0  0
  -30.3780  -16.1060   21.0870 N   0  0  0  0  0  0  0  0  0  0  0  0
  -29.4510  -15.9820   21.4700 H   0  0  0  0  0  0  0  0  0  0  0  0
  -25.6950  -14.1410   20.6100 C   0  0  0  0  0  0  0  0  0  0  0  0
  -24.5760  -13.4030   20.8860 C   0  0  0  0  0  0  0  0  0  0  0  0
  -25.0030  -12.0400   20.9320 C   0  0  0  0  0  0  0  0  0  0  0  0
  -26.7330  -13.2310   20.4980 N   0  0  0  0  0  0  0  0  0  0  0  0
  -26.3170  -11.9630   20.7610 N   0  0  0  0  0  0  0  0  0  0  0  0
  -24.2250  -10.8010   21.0720 C   0  0  0  0  0  0  0  0  0  0  0  0
  -24.5790   -9.8090   22.0130 C   0  0  0  0  0  3  0  0  0  0  0  0
  -23.8050   -8.6350   22.1420 C   0  0  0  0  0  3  0  0  0  0  0  0
  -22.6630   -8.4460   21.3290 C   0  0  0  0  0  0  0  0  0  0  0  0
  -22.3280   -9.4250   20.3770 C   0  0  0  0  0  3  0  0  0  0  0  0
  -23.1020  -10.5890   20.2460 C   0  0  0  0  0  3  0  0  0  0  0  0
  -21.8670   -7.3260   21.3670 O   0  0  0  0  0  0  0  0  0  0  0  0
  -21.7650   -6.5520   22.4950 C   0  0  0  0  0  0  0  0  0  0  0  0
  -21.3180   -7.0820   23.7250 C   0  0  0  0  0  3  0  0  0  0  0  0
  -21.1630   -6.2370   24.8420 C   0  0  0  0  0  3  0  0  0  0  0  0
  -21.4430   -4.8630   24.7290 C   0  0  0  0  0  0  0  0  0  0  0  0
  -21.8780   -4.3310   23.5030 C   0  0  0  0  0  3  0  0  0  0  0  0
  -22.0360   -5.1730   22.3890 C   0  0  0  0  0  0  0  0  0  0  0  0
  -22.4400   -4.6510   21.2050 F   0  0  0  0  0  0  0  0  0  0  0  0
  -21.2840   -4.0490   25.7990 F   0  0  0  0  0  0  0  0  0  0  0  0
  -23.1730  -13.9210   20.9990 C   0  0  0  0  0  0  0  0  0  0  0  0
  -22.3480  -13.2820   21.8210 N   0  0  0  0  0  0  0  0  0  0  0  0
  -22.8130  -14.9270   20.3910 O   0  0  0  0  0  0  0  0  0  0  0  0
  -22.6450  -12.4640   22.3320 H   0  0  0  0  0  0  0  0  0  0  0  0
  -21.4030  -13.6150   21.9400 H   0  0  0  0  0  0  0  0  0  0  0  0
  -25.9110  -15.5030   20.4200 N   0  0  0  0  0  0  0  0  0  0  0  0
  -25.1470  -16.1700   20.4320 H   0  0  0  0  0  0  0  0  0  0  0  0
  -26.7920  -15.9130   20.1370 H   0  0  0  0  0  0  0  0  0  0  0  0
  -31.4900  -16.4800   18.2530 C   0  0  0  0  0  0  0  0  0  0  0  0
  -32.7270  -16.4160   17.7690 N   0  0  0  0  0  0  0  0  0  0  0  0
  -30.6020  -15.7050   17.9140 O   0  0  0  0  0  0  0  0  0  0  0  0
  -33.4230  -17.0810   18.0770 H   0  0  0  0  0  0  0  0  0  0  0  0
  -32.9830  -15.6960   17.1100 H   0  0  0  0  0  0  0  0  0  0  0  0
  -28.5310  -24.8640   20.1730 C   0  0  0  0  0  0  0  0  0  0  0  0
  -27.7100  -24.2510   19.4870 O   0  0  0  0  0  0  0  0  0  0  0  0
  -28.5930  -26.3660   20.2560 O   0  0  0  0  0  0  0  0  0  0  0  0
  -24.5670  -31.7320   23.0630 C   0  0  0  0  0  0  0  0  0  0  0  0
  -27.4840  -27.2520   20.0820 C   0  0  0  0  0  0  0  0  0  0  0  0
  -23.4930  -30.3080   21.3590 C   0  0  0  0  0  3  0  0  0  0  0  0
  -25.0660  -28.8360   19.9730 C   0  0  0  0  0  0  0  0  0  0  0  0
  -26.0290  -30.7080   21.2980 C   0  0  0  0  0  2  0  0  0  0  0  0
  -26.1890  -29.3340   20.6450 C   0  0  0  0  0  0  0  0  0  0  0  0
  -27.3920  -28.5510   20.7010 C   0  0  0  0  0  3  0  0  0  0  0  0
  -26.3430  -26.8630   19.3380 C   0  0  0  0  0  3  0  0  0  0  0  0
  -25.1540  -27.6110   19.3020 C   0  0  0  0  0  3  0  0  0  0  0  0
  -23.7950  -29.6660   19.9800 C   0  0  0  0  0  2  0  0  0  0  0  0
  -24.7120  -30.9360   21.9630 N   0  0  0  0  0  0  0  0  0  0  0  0
  -23.4500  -31.9620   23.5510 O   0  0  0  0  0  0  0  0  0  0  0  0
  -22.8270  -29.2560   22.2790 C   0  0  0  0  0  0  0  0  0  0  0  0
  -21.5000  -29.0830   22.1470 N   0  0  0  0  0  0  0  0  0  0  0  0
  -23.5040  -28.6000   23.0750 O   0  0  0  0  0  0  0  0  0  0  0  0
  -21.0100  -29.6690   21.4850 H   0  0  0  0  0  0  0  0  0  0  0  0
  -18.1140  -27.9020   22.6540 C   0  0  0  0  0  0  0  0  0  0  0  0
  -20.6810  -28.1150   22.8810 C   0  0  0  0  0  3  0  0  0  0  0  0
  -20.7500  -26.7160   22.2260 C   0  0  0  0  0  2  0  0  0  0  0  0
  -19.6230  -26.4640   21.2200 C   0  0  0  0  0  2  0  0  0  0  0  0
  -18.2570  -26.5900   21.9000 C   0  0  0  0  0  2  0  0  0  0  0  0
  -19.2520  -28.6250   23.1010 C   0  0  0  0  0  0  0  0  0  0  0  0
  -19.0600  -29.8550   23.7670 C   0  0  0  0  0  3  0  0  0  0  0  0
  -17.7650  -30.3600   23.9900 C   0  0  0  0  0  3  0  0  0  0  0  0
  -16.6430  -29.6340   23.5560 C   0  0  0  0  0  3  0  0  0  0  0  0
  -16.8200  -28.4070   22.8930 C   0  0  0  0  0  3  0  0  0  0  0  0
  -25.7930  -32.4110   23.7470 C   0  0  0  0  0  3  0  0  0  0  0  0
  -25.4060  -33.7850   24.0980 N   0  0  0  0  0  0  0  0  0  0  0  0
  -25.7380  -34.8750   23.3920 C   0  0  0  0  0  0  0  0  0  0  0  0
  -26.4700  -34.8310   22.4010 O   0  0  0  0  0  0  0  0  0  0  0  0
  -24.7630  -33.8910   24.8690 H   0  0  0  0  0  0  0  0  0  0  0  0
  -23.9560  -36.6070   22.9980 C   0  0  0  0  0  1  0  0  0  0  0  0
  -25.1690  -36.2300   23.8620 C   0  0  0  0  0  3  0  0  0  0  0  0
  -27.2180  -37.1790   24.8270 C   0  0  0  0  0  1  0  0  0  0  0  0
  -26.1620  -37.3260   23.8310 N   0  0  0  0  0  0  0  0  0  0  0  0
  -25.7100  -38.2250   23.9780 H   0  0  0  0  0  0  0  0  0  0  0  0
  -26.2980  -31.6310   25.0220 C   0  0  1  0  0  0  0  0  0  0  0  0
  -25.1850  -31.3300   26.0530 C   0  0  0  0  0  1  0  0  0  0  0  0
  -26.9430  -30.2840   24.6230 C   0  0  0  0  0  1  0  0  0  0  0  0
  -27.3990  -32.4540   25.7330 C   0  0  0  0  0  1  0  0  0  0  0  0
  1  2  1  0
  3 12  1  0
  3  1  1  0
  4 57  1  0
  4  2  1  0
  5  4  1  0
  5  3  1  0
  6  5  1  0
  7  5  1  0
  8 11  2  0
  8  9  1  0
  9 12  2  0
 11 13  1  0
 12 10  1  0
 13 22  1  0
 13 10  2  0
 14 22  1  0
 15 20  1  0
 16 17  1  0
 16 15  1  0
 18 17  1  0
 18 27  1  0
 18 19  1  0
 20 14  1  0
 20 19  1  0
 21 14  2  0
 22 23  1  0
 24 25  2  0
 25 26  1  0
 25 44  1  0
 26 29  1  0
 27 24  1  0
 27 28  1  0
 28 26  2  0
 29 30  1  0
 30 31  2  0
 32 35  1  0
 32 31  1  0
 33 32  2  0
 34 33  1  0
 34 29  2  0
 35 36  1  0
 36 37  1  0
 37 38  2  0
 39 38  1  0
 39 43  1  0
 40 39  2  0
 41 36  2  0
 41 40  1  0
 42 41  1  0
 44 45  1  0
 45 48  1  0
 45 47  1  0
 46 44  2  0
 49 50  1  0
 49 24  1  0
 51 49  1  0
 52 11  1  0
 53 55  1  0
 53 52  1  0
 54 52  2  0
 56 53  1  0
 57 59  1  0
 58 57  2  0
 60 71  2  0
 61 59  1  0
 61 66  1  0
 62 70  1  0
 62 72  1  0
 63 69  1  0
 63 65  1  0
 64 70  1  0
 65 66  2  0
 65 64  1  0
 67 61  2  0
 68 67  1  0
 68 63  2  0
 69 62  1  0
 70 60  1  0
 72 74  2  0
 73 72  1  0
 75 73  1  0
 76 85  2  0
 76 81  1  0
 77 73  1  0
 77 81  1  0
 78 77  1  0
 79 80  1  0
 79 78  1  0
 80 76  1  0
 81 82  2  0
 82 83  1  0
 84 83  2  0
 85 84  1  0
 86 60  1  0
 86 87  1  0
 86 96  1  0
 87 90  1  0
 88 92  1  0
 88 87  1  0
 89 88  2  0
 92 91  1  0
 94 92  1  0
 94 95  1  0
 94 93  1  0
 96 99  1  1
 96 97  1  0
 98 96  1  0
M  ISO  4  14 100  22 100  57 101  59 101
M  END
>  <TORSDO>  (50) 
F 19

>  <SCORE>  (50) 
-13.494

>  <name>  (50) 
49

>  <ligand_id>  (50) 
49

>  <original_smiles>  (50) 
[H]c1c([H])c([H])c2c(c1[H])C([H])([H])C([H])([H])C([H])([H])C2([H])N([H])C(=O)C1([H])N(C(=O)C([H])(N([H])C(=O)C([H])(N([H])C([H])([H])[H])C([H])([H])[H])C(C([H])([H])[H])(C([H])([H])[H])C([H])([H])[H])C([H])([H])c2c([H])c(OC(=O)C3([H])C([H])([H])C([H])([H])C([H])(c4c([H])c([H])c(C(=O)N([H])[H])c(N([H])C(=O)N5C([H])([H])C([H])([H])C([H])([H])C([H])(n6nc(-c7c([H])c([H])c(Oc8c([H])c([H])c(F)c([H])c8F)c([H])c7[H])c(C(=O)N([H])[H])c6N([H])[H])C5([H])[H])c4[H])[N+]3([H])[H])c([H])c([H])c2C1([H])[H]

>  <smiles>  (50) 
[H]c1c([H])c([H])c2c(c1[H])C([H])([H])C([H])([H])C([H])([H])C2([H])N([H])C(=O)C1([H])N(C(=O)C([H])(N([H])C(=O)C([H])(N([H])C([H])([H])[H])C([H])([H])[H])C(C([H])([H])[H])(C([H])([H])[H])C([H])([H])[H])C([H])([H])c2c([H])c(OC(=O)C3([H])C([H])([H])C([H])([H])C([H])(c4c([H])c([H])c(C(=O)N([H])[H])c(N([H])C(=O)N5C([H])([H])C([H])([H])C([H])([H])C([H])(n6nc(-c7c([H])c([H])c(Oc8c([H])c([H])c(F)c([H])c8F)c([H])c7[H])c(C(=O)N([H])[H])c6N([H])[H])C5([H])[H])c4[H])[N+]3([H])[H])c([H])c([H])c2C1([H])[H]

$$$$
51:0:0
     RDKit          3D

 93101  0  0  1  0  0  0  0  0999 V2000
  -31.0050  -22.2590   21.2860 C   0  0  0  0  0  3  0  0  0  0  0  0
  -30.2220  -23.3800   20.9190 C   0  0  0  0  0  3  0  0  0  0  0  0
  -30.7260  -20.9420   20.8480 C   0  0  0  0  0  3  0  0  0  0  0  0
  -28.8500  -21.8610   19.6220 C   0  0  0  0  0  3  0  0  0  0  0  0
  -29.0950  -23.2660   20.0730 C   0  0  0  0  0  0  0  0  0  0  0  0
  -29.6400  -20.6430   19.9950 C   0  0  0  0  0  0  0  0  0  0  0  0
  -28.2230  -24.6430   19.7260 C   0  0  0  0  0  2  0  0  0  0  0  0
  -28.4270  -26.1620   20.0340 O   0  0  0  0  0  0  0  0  0  0  0  0
  -24.6080  -31.6820   23.1000 C   0  0  0  0  0  0  0  0  0  0  0  0
  -27.3460  -27.1190   19.9710 C   0  0  0  0  0  0  0  0  0  0  0  0
  -23.4660  -30.3030   21.4050 C   0  0  0  0  0  3  0  0  0  0  0  0
  -24.9730  -28.8050   19.9540 C   0  0  0  0  0  0  0  0  0  0  0  0
  -26.0150  -30.6370   21.2820 C   0  0  0  0  0  2  0  0  0  0  0  0
  -26.1320  -29.2660   20.5910 C   0  0  0  0  0  0  0  0  0  0  0  0
  -27.3180  -28.4400   20.5810 C   0  0  0  0  0  3  0  0  0  0  0  0
  -26.1580  -26.7600   19.2970 C   0  0  0  0  0  3  0  0  0  0  0  0
  -24.9990  -27.5690   19.2920 C   0  0  0  0  0  3  0  0  0  0  0  0
  -23.7220  -29.6700   20.0100 C   0  0  0  0  0  2  0  0  0  0  0  0
  -24.7150  -30.8940   21.9850 N   0  0  0  0  0  0  0  0  0  0  0  0
  -23.5080  -31.9240   23.6200 O   0  0  0  0  0  0  0  0  0  0  0  0
  -22.8000  -29.2520   22.3290 C   0  0  0  0  0  0  0  0  0  0  0  0
  -21.4740  -29.0710   22.1960 N   0  0  0  0  0  0  0  0  0  0  0  0
  -23.4780  -28.6040   23.1290 O   0  0  0  0  0  0  0  0  0  0  0  0
  -20.9820  -29.6460   21.5250 H   0  0  0  0  0  0  0  0  0  0  0  0
  -18.1020  -27.8320   22.6730 C   0  0  0  0  0  0  0  0  0  0  0  0
  -20.6630  -28.0980   22.9330 C   0  0  0  0  0  3  0  0  0  0  0  0
  -20.7680  -26.6910   22.2950 C   0  0  0  0  0  2  0  0  0  0  0  0
  -19.6590  -26.4070   21.2760 C   0  0  0  0  0  2  0  0  0  0  0  0
  -18.2820  -26.5160   21.9360 C   0  0  0  0  0  2  0  0  0  0  0  0
  -19.2200  -28.5820   23.1260 C   0  0  0  0  0  0  0  0  0  0  0  0
  -18.9960  -29.8140   23.7790 C   0  0  0  0  0  3  0  0  0  0  0  0
  -17.6890  -30.2960   23.9800 C   0  0  0  0  0  3  0  0  0  0  0  0
  -16.5870  -29.5430   23.5410 C   0  0  0  0  0  3  0  0  0  0  0  0
  -16.7940  -28.3120   22.8930 C   0  0  0  0  0  3  0  0  0  0  0  0
  -25.8610  -32.3300   23.7630 C   0  0  0  0  0  3  0  0  0  0  0  0
  -25.5170  -33.7190   24.1100 N   0  0  0  0  0  0  0  0  0  0  0  0
  -25.8470  -34.7930   23.3820 C   0  0  0  0  0  0  0  0  0  0  0  0
  -26.5390  -34.7210   22.3620 O   0  0  0  0  0  0  0  0  0  0  0  0
  -24.9050  -33.8470   24.9020 H   0  0  0  0  0  0  0  0  0  0  0  0
  -24.0930  -36.5660   23.0350 C   0  0  0  0  0  1  0  0  0  0  0  0
  -25.3290  -36.1650   23.8580 C   0  0  0  0  0  3  0  0  0  0  0  0
  -27.4360  -37.0720   24.7380 C   0  0  0  0  0  1  0  0  0  0  0  0
  -26.3450  -37.2380   23.7800 N   0  0  0  0  0  0  0  0  0  0  0  0
  -25.9230  -38.1490   23.9370 H   0  0  0  0  0  0  0  0  0  0  0  0
  -26.3570  -31.5530   25.0440 C   0  0  1  0  0  0  0  0  0  0  0  0
  -25.2410  -31.2910   26.0840 C   0  0  0  0  0  1  0  0  0  0  0  0
  -26.9670  -30.1880   24.6550 C   0  0  0  0  0  1  0  0  0  0  0  0
  -27.4820  -32.3550   25.7400 C   0  0  0  0  0  1  0  0  0  0  0  0
  -29.3880  -19.0410   19.5940 C   0  0  0  0  0  3  0  0  0  0  0  0
  -30.4350  -17.7560   19.9920 C   0  0  0  0  0  2  0  0  0  0  0  0
  -30.8040  -15.0010   19.9860 C   0  0  0  0  0  0  0  0  0  0  0  0
  -30.6200  -12.6050   19.1750 C   0  0  0  0  0  2  0  0  0  0  0  0
  -29.6770  -12.5270   17.9530 C   0  0  0  0  0  2  0  0  0  0  0  0
  -28.2110  -12.3730   18.4050 C   0  0  0  0  0  2  0  0  0  0  0  0
  -27.8390  -13.3590   19.5450 C   0  0  0  0  0  3  0  0  0  0  0  0
  -28.9060  -13.4030   20.6570 C   0  0  0  0  0  2  0  0  0  0  0  0
  -30.1770  -13.7560   20.0130 N   0  0  0  0  0  0  0  0  0  0  0  0
  -32.0080  -15.0210   19.7080 O   0  0  0  0  0  0  0  0  0  0  0  0
  -30.0540  -16.2100   20.0680 N   0  0  0  0  0  0  0  0  0  0  0  0
  -29.0750  -16.0350   20.2340 H   0  0  0  0  0  0  0  0  0  0  0  0
  -25.5020  -14.0350   20.3350 C   0  0  0  0  0  0  0  0  0  0  0  0
  -24.4150  -13.3060   20.7280 C   0  0  0  0  0  0  0  0  0  0  0  0
  -24.8190  -11.9350   20.6780 C   0  0  0  0  0  0  0  0  0  0  0  0
  -26.5010  -13.1140   20.0680 N   0  0  0  0  0  0  0  0  0  0  0  0
  -26.1010  -11.8460   20.3390 N   0  0  0  0  0  0  0  0  0  0  0  0
  -24.0420  -10.7050   20.8740 C   0  0  0  0  0  0  0  0  0  0  0  0
  -24.4470   -9.7120   21.7940 C   0  0  0  0  0  3  0  0  0  0  0  0
  -23.6710   -8.5480   21.9820 C   0  0  0  0  0  3  0  0  0  0  0  0
  -22.4760   -8.3670   21.2450 C   0  0  0  0  0  0  0  0  0  0  0  0
  -22.0880   -9.3460   20.3130 C   0  0  0  0  0  3  0  0  0  0  0  0
  -22.8640  -10.5020   20.1270 C   0  0  0  0  0  3  0  0  0  0  0  0
  -21.6700   -7.2580   21.3430 O   0  0  0  0  0  0  0  0  0  0  0  0
  -21.6000   -6.5180   22.4960 C   0  0  0  0  0  0  0  0  0  0  0  0
  -21.2220   -7.0930   23.7290 C   0  0  0  0  0  3  0  0  0  0  0  0
  -21.0960   -6.2840   24.8750 C   0  0  0  0  0  3  0  0  0  0  0  0
  -21.3350   -4.8990   24.7890 C   0  0  0  0  0  0  0  0  0  0  0  0
  -21.7060   -4.3230   23.5610 C   0  0  0  0  0  3  0  0  0  0  0  0
  -21.8330   -5.1300   22.4180 C   0  0  0  0  0  0  0  0  0  0  0  0
  -22.1710   -4.5670   21.2320 F   0  0  0  0  0  0  0  0  0  0  0  0
  -21.2070   -4.1190   25.8880 F   0  0  0  0  0  0  0  0  0  0  0  0
  -23.0450  -13.8410   21.0260 C   0  0  0  0  0  0  0  0  0  0  0  0
  -22.3090  -13.1830   21.9140 N   0  0  0  0  0  0  0  0  0  0  0  0
  -22.6390  -14.8780   20.5040 O   0  0  0  0  0  0  0  0  0  0  0  0
  -22.6500  -12.3430   22.3590 H   0  0  0  0  0  0  0  0  0  0  0  0
  -21.3890  -13.5240   22.1560 H   0  0  0  0  0  0  0  0  0  0  0  0
  -25.7150  -15.3990   20.1490 N   0  0  0  0  0  0  0  0  0  0  0  0
  -24.9220  -16.0310   20.1660 H   0  0  0  0  0  0  0  0  0  0  0  0
  -26.4940  -15.7490   19.6080 H   0  0  0  0  0  0  0  0  0  0  0  0
  -27.9580  -18.6210   20.0180 C   0  0  0  0  0  2  0  0  0  0  0  0
  -26.8880  -19.3140   19.2780 N   0  0  0  0  0  4  0  0  0  0  0  0
  -26.9570  -20.3070   19.4150 H   0  0  0  0  0  0  0  0  0  0  0  0
  -25.9910  -19.0140   19.6130 H   0  0  0  0  0  0  0  0  0  0  0  0
  -26.9380  -19.1090   18.2970 H   0  0  0  0  0  0  0  0  0  0  0  0
  2  1  1  0
  3  1  2  0
  4  6  2  0
  4  5  1  0
  5  2  2  0
  6  3  1  0
  7  8  1  0
  7  5  1  0
  9 20  2  0
 10  8  1  0
 10 15  1  0
 11 19  1  0
 11 21  1  0
 12 18  1  0
 12 14  1  0
 13 19  1  0
 14 13  1  0
 15 14  2  0
 16 10  2  0
 17 16  1  0
 17 12  2  0
 18 11  1  0
 19  9  1  0
 21 23  2  0
 22 21  1  0
 24 22  1  0
 25 34  2  0
 25 30  1  0
 26 22  1  0
 26 30  1  0
 27 26  1  0
 28 29  1  0
 28 27  1  0
 29 25  1  0
 30 31  2  0
 31 32  1  0
 33 32  2  0
 34 33  1  0
 35  9  1  0
 35 36  1  0
 35 45  1  0
 36 39  1  0
 37 41  1  0
 37 36  1  0
 38 37  2  0
 41 40  1  0
 43 41  1  0
 43 44  1  0
 43 42  1  0
 45 48  1  1
 45 46  1  0
 47 45  1  0
 49 50  1  0
 49  6  1  0
 49 89  1  0
 50 59  1  0
 51 57  1  0
 51 59  1  0
 52 57  1  0
 53 54  1  0
 53 52  1  0
 55 54  1  0
 55 64  1  0
 55 56  1  0
 57 56  1  0
 58 51  2  0
 59 60  1  0
 61 62  2  0
 62 81  1  0
 63 62  1  0
 63 66  1  0
 64 61  1  0
 64 65  1  0
 65 63  2  0
 66 67  1  0
 67 68  2  0
 69 72  1  0
 69 68  1  0
 70 69  2  0
 71 70  1  0
 71 66  2  0
 72 73  1  0
 73 74  1  0
 74 75  2  0
 76 75  1  0
 76 80  1  0
 77 76  2  0
 78 73  2  0
 78 77  1  0
 79 78  1  0
 81 82  1  0
 82 85  1  0
 82 84  1  0
 83 81  2  0
 86 87  1  0
 86 61  1  0
 88 86  1  0
 90 91  1  0
 90 92  1  0
 90 89  1  0
 93 90  1  0
M  ISO  4   7 101   8 101  51 100  59 100
M  END
>  <TORSDO>  (51) 
F 21

>  <SCORE>  (51) 
-14.154

>  <name>  (51) 
51

>  <ligand_id>  (51) 
51

>  <original_smiles>  (51) 
[H]c1c([H])c([H])c2c(c1[H])C([H])([H])C([H])([H])C([H])([H])C2([H])N([H])C(=O)C1([H])N(C(=O)C([H])(N([H])C(=O)C([H])(N([H])C([H])([H])[H])C([H])([H])[H])C(C([H])([H])[H])(C([H])([H])[H])C([H])([H])[H])C([H])([H])c2c([H])c(OC([H])([H])c3c([H])c([H])c([H])c(C([H])(C([H])([H])N([H])C(=O)N4C([H])([H])C([H])([H])C([H])([H])C([H])(n5nc(-c6c([H])c([H])c(Oc7c([H])c([H])c(F)c([H])c7F)c([H])c6[H])c(C(=O)N([H])[H])c5N([H])[H])C4([H])[H])C([H])([H])[N+]([H])([H])[H])c3[H])c([H])c([H])c2C1([H])[H]

>  <smiles>  (51) 
[H]c1c([H])c([H])c2c(c1[H])C([H])([H])C([H])([H])C([H])([H])C2([H])N([H])C(=O)C1([H])N(C(=O)C([H])(N([H])C(=O)C([H])(N([H])C([H])([H])[H])C([H])([H])[H])C(C([H])([H])[H])(C([H])([H])[H])C([H])([H])[H])C([H])([H])c2c([H])c(OC([H])([H])c3c([H])c([H])c([H])c(C([H])(C([H])([H])N([H])C(=O)N4C([H])([H])C([H])([H])C([H])([H])C([H])(n5nc(-c6c([H])c([H])c(Oc7c([H])c([H])c(F)c([H])c7F)c([H])c6[H])c(C(=O)N([H])[H])c5N([H])[H])C4([H])[H])C([H])([H])[N+]([H])([H])[H])c3[H])c([H])c([H])c2C1([H])[H]

$$$$
52:0:0
     RDKit          3D

101109  0  0  1  0  0  0  0  0999 V2000
  -29.5440  -23.3510   21.4580 C   0  0  0  0  0  0  0  0  0  0  0  0
  -29.6750  -22.1340   20.8870 N   0  0  0  0  0  0  0  0  0  0  0  0
  -29.5340  -23.4820   22.6830 O   0  0  0  0  0  0  0  0  0  0  0  0
  -29.7040  -22.0780   19.8790 H   0  0  0  0  0  0  0  0  0  0  0  0
  -29.8360  -20.8590   21.6220 C   0  0  0  0  0  2  0  0  0  0  0  0
  -29.3460  -19.5990   19.4390 C   0  0  0  0  0  3  0  0  0  0  0  0
  -29.7070  -17.1960   19.2180 C   0  0  0  0  0  3  0  0  0  0  0  0
  -30.1780  -18.3100   21.3370 C   0  0  0  0  0  3  0  0  0  0  0  0
  -29.3050  -18.4250   18.6540 C   0  0  0  0  0  0  0  0  0  0  0  0
  -29.8010  -19.5660   20.7770 C   0  0  0  0  0  0  0  0  0  0  0  0
  -30.1300  -17.1120   20.5650 C   0  0  0  0  0  0  0  0  0  0  0  0
  -31.0310  -14.8070   20.5420 C   0  0  0  0  0  0  0  0  0  0  0  0
  -30.7440  -12.6450   19.3900 C   0  0  0  0  0  2  0  0  0  0  0  0
  -29.8360  -12.8670   18.1610 C   0  0  0  0  0  2  0  0  0  0  0  0
  -28.3490  -12.7370   18.5550 C   0  0  0  0  0  2  0  0  0  0  0  0
  -27.9910  -13.5690   19.8190 C   0  0  0  0  0  3  0  0  0  0  0  0
  -29.0220  -13.3280   20.9470 C   0  0  0  0  0  2  0  0  0  0  0  0
  -30.3630  -13.6250   20.4190 N   0  0  0  0  0  0  0  0  0  0  0  0
  -32.1520  -14.9880   20.0530 O   0  0  0  0  0  0  0  0  0  0  0  0
  -30.3650  -15.8200   21.1450 N   0  0  0  0  0  0  0  0  0  0  0  0
  -29.6240  -15.5090   21.7560 H   0  0  0  0  0  0  0  0  0  0  0  0
  -25.5910  -14.1980   20.5040 C   0  0  0  0  0  0  0  0  0  0  0  0
  -24.5030  -13.4370   20.8390 C   0  0  0  0  0  0  0  0  0  0  0  0
  -24.9420  -12.0770   20.7830 C   0  0  0  0  0  0  0  0  0  0  0  0
  -26.6260  -13.3050   20.2670 N   0  0  0  0  0  0  0  0  0  0  0  0
  -26.2370  -12.0240   20.4930 N   0  0  0  0  0  0  0  0  0  0  0  0
  -24.1890  -10.8240   20.9360 C   0  0  0  0  0  0  0  0  0  0  0  0
  -24.5640   -9.8520   21.8880 C   0  0  0  0  0  3  0  0  0  0  0  0
  -23.8170   -8.6630   22.0290 C   0  0  0  0  0  3  0  0  0  0  0  0
  -22.6790   -8.4410   21.2190 C   0  0  0  0  0  0  0  0  0  0  0  0
  -22.3230   -9.4020   20.2570 C   0  0  0  0  0  3  0  0  0  0  0  0
  -23.0710  -10.5830   20.1140 C   0  0  0  0  0  3  0  0  0  0  0  0
  -21.9090   -7.3040   21.2650 O   0  0  0  0  0  0  0  0  0  0  0  0
  -21.7600   -6.5820   22.4210 C   0  0  0  0  0  0  0  0  0  0  0  0
  -21.2210   -7.1560   23.5940 C   0  0  0  0  0  3  0  0  0  0  0  0
  -21.0210   -6.3590   24.7400 C   0  0  0  0  0  3  0  0  0  0  0  0
  -21.3520   -4.9900   24.7130 C   0  0  0  0  0  0  0  0  0  0  0  0
  -21.8810   -4.4160   23.5420 C   0  0  0  0  0  3  0  0  0  0  0  0
  -22.0830   -5.2100   22.3990 C   0  0  0  0  0  0  0  0  0  0  0  0
  -22.5750   -4.6490   21.2690 F   0  0  0  0  0  0  0  0  0  0  0  0
  -21.1530   -4.2230   25.8100 F   0  0  0  0  0  0  0  0  0  0  0  0
  -23.1100  -13.9330   21.1010 C   0  0  0  0  0  0  0  0  0  0  0  0
  -22.3610  -13.2440   21.9560 N   0  0  0  0  0  0  0  0  0  0  0  0
  -22.6920  -14.9660   20.5830 O   0  0  0  0  0  0  0  0  0  0  0  0
  -22.7130  -12.4120   22.4070 H   0  0  0  0  0  0  0  0  0  0  0  0
  -21.4240  -13.5590   22.1620 H   0  0  0  0  0  0  0  0  0  0  0  0
  -25.7780  -15.5690   20.3640 N   0  0  0  0  0  0  0  0  0  0  0  0
  -25.0250  -16.2330   20.5130 H   0  0  0  0  0  0  0  0  0  0  0  0
  -26.6380  -16.0070   20.0660 H   0  0  0  0  0  0  0  0  0  0  0  0
  -28.7590  -18.4520   17.2540 C   0  0  0  0  0  0  0  0  0  0  0  0
  -29.0220  -19.5370   16.5360 N   0  0  0  0  0  0  0  0  0  0  0  0
  -28.1500  -17.4940   16.7790 O   0  0  0  0  0  0  0  0  0  0  0  0
  -29.5740  -20.2820   16.9320 H   0  0  0  0  0  0  0  0  0  0  0  0
  -28.6790  -19.6150   15.5930 H   0  0  0  0  0  0  0  0  0  0  0  0
  -29.4870  -24.6220   20.5680 C   0  0  0  0  0  3  0  0  0  0  0  0
  -30.8020  -25.2830   20.6220 N   0  0  0  0  0  4  0  0  0  0  0  0
  -31.0180  -25.5400   21.5700 H   0  0  0  0  0  0  0  0  0  0  0  0
  -30.7950  -26.1170   20.0600 H   0  0  0  0  0  0  0  0  0  0  0  0
  -31.5200  -24.6620   20.2910 H   0  0  0  0  0  0  0  0  0  0  0  0
  -28.3920  -25.6410   21.0120 C   0  0  0  0  0  2  0  0  0  0  0  0
  -28.4920  -26.9160   20.3260 O   0  0  0  0  0  0  0  0  0  0  0  0
  -24.5780  -32.0620   23.3680 C   0  0  0  0  0  0  0  0  0  0  0  0
  -27.3280  -27.6610   20.3140 C   0  0  0  0  0  0  0  0  0  0  0  0
  -23.4140  -30.6430   21.7110 C   0  0  0  0  0  3  0  0  0  0  0  0
  -24.9110  -29.1350   20.2980 C   0  0  0  0  0  0  0  0  0  0  0  0
  -25.9380  -31.0470   21.5400 C   0  0  0  0  0  2  0  0  0  0  0  0
  -26.0560  -29.6800   20.8910 C   0  0  0  0  0  0  0  0  0  0  0  0
  -27.2730  -28.9550   20.8860 C   0  0  0  0  0  3  0  0  0  0  0  0
  -26.1630  -27.1330   19.7160 C   0  0  0  0  0  3  0  0  0  0  0  0
  -24.9590  -27.8600   19.7100 C   0  0  0  0  0  3  0  0  0  0  0  0
  -23.6520  -29.9730   20.3330 C   0  0  0  0  0  2  0  0  0  0  0  0
  -24.6610  -31.2660   22.2640 N   0  0  0  0  0  0  0  0  0  0  0  0
  -23.4860  -32.3120   23.8990 O   0  0  0  0  0  0  0  0  0  0  0  0
  -22.7760  -29.6040   22.6610 C   0  0  0  0  0  0  0  0  0  0  0  0
  -21.4650  -29.3620   22.4910 N   0  0  0  0  0  0  0  0  0  0  0  0
  -23.4570  -29.0190   23.5070 O   0  0  0  0  0  0  0  0  0  0  0  0
  -20.9750  -29.8900   21.7810 H   0  0  0  0  0  0  0  0  0  0  0  0
  -18.1370  -28.0060   22.8680 C   0  0  0  0  0  0  0  0  0  0  0  0
  -20.6630  -28.3990   23.2470 C   0  0  0  0  0  3  0  0  0  0  0  0
  -20.8620  -26.9640   22.7070 C   0  0  0  0  0  2  0  0  0  0  0  0
  -19.8240  -26.5640   21.6530 C   0  0  0  0  0  2  0  0  0  0  0  0
  -18.4090  -26.6540   22.2320 C   0  0  0  0  0  2  0  0  0  0  0  0
  -19.1960  -28.8320   23.3300 C   0  0  0  0  0  0  0  0  0  0  0  0
  -18.8890  -30.0950   23.8810 C   0  0  0  0  0  3  0  0  0  0  0  0
  -17.5550  -30.5340   23.9780 C   0  0  0  0  0  3  0  0  0  0  0  0
  -16.5100  -29.7060   23.5340 C   0  0  0  0  0  3  0  0  0  0  0  0
  -16.8010  -28.4440   22.9850 C   0  0  0  0  0  3  0  0  0  0  0  0
  -25.8460  -32.7150   24.0000 C   0  0  0  0  0  3  0  0  0  0  0  0
  -25.5290  -34.1240   24.2680 N   0  0  0  0  0  0  0  0  0  0  0  0
  -25.8960  -35.1480   23.4840 C   0  0  0  0  0  0  0  0  0  0  0  0
  -26.6070  -35.0070   22.4860 O   0  0  0  0  0  0  0  0  0  0  0  0
  -24.8980  -34.3090   25.0350 H   0  0  0  0  0  0  0  0  0  0  0  0
  -24.1890  -36.9280   22.9960 C   0  0  0  0  0  1  0  0  0  0  0  0
  -25.3940  -36.5510   23.8720 C   0  0  0  0  0  3  0  0  0  0  0  0
  -27.4920  -37.4620   24.7650 C   0  0  0  0  0  1  0  0  0  0  0  0
  -26.4340  -37.5980   23.7670 N   0  0  0  0  0  0  0  0  0  0  0  0
  -26.0240  -38.5230   23.8640 H   0  0  0  0  0  0  0  0  0  0  0  0
  -26.3270  -31.9940   25.3190 C   0  0  1  0  0  0  0  0  0  0  0  0
  -25.1970  -31.7730   26.3530 C   0  0  0  0  0  1  0  0  0  0  0  0
  -26.9480  -30.6150   24.9940 C   0  0  0  0  0  1  0  0  0  0  0  0
  -27.4370  -32.8310   26.0000 C   0  0  0  0  0  1  0  0  0  0  0  0
  1  3  2  0
  2  1  1  0
  2  5  1  0
  4  2  1  0
  6 10  1  0
  7 11  2  0
  9  7  1  0
  9  6  2  0
 10  8  2  0
 10  5  1  0
 11 20  1  0
 11  8  1  0
 12 20  1  0
 13 18  1  0
 14 15  1  0
 14 13  1  0
 16 15  1  0
 16 25  1  0
 16 17  1  0
 18 12  1  0
 18 17  1  0
 19 12  2  0
 20 21  1  0
 22 23  2  0
 23 42  1  0
 24 23  1  0
 24 27  1  0
 25 26  1  0
 25 22  1  0
 26 24  2  0
 27 28  1  0
 28 29  2  0
 30 33  1  0
 30 29  1  0
 31 30  2  0
 32 31  1  0
 32 27  2  0
 33 34  1  0
 34 35  1  0
 35 36  2  0
 37 36  1  0
 37 41  1  0
 38 37  2  0
 39 34  2  0
 39 38  1  0
 40 39  1  0
 42 43  1  0
 43 46  1  0
 43 45  1  0
 44 42  2  0
 47 22  1  0
 47 48  1  0
 49 47  1  0
 50  9  1  0
 51 53  1  0
 51 50  1  0
 52 50  2  0
 54 51  1  0
 55 56  1  0
 55 60  1  0
 55  1  1  0
 56 57  1  0
 58 56  1  0
 59 56  1  0
 61 60  1  0
 62 73  2  0
 63 61  1  0
 63 68  1  0
 64 72  1  0
 64 74  1  0
 65 71  1  0
 65 67  1  0
 66 72  1  0
 67 66  1  0
 68 67  2  0
 69 63  2  0
 70 69  1  0
 70 65  2  0
 71 64  1  0
 72 62  1  0
 74 76  2  0
 75 74  1  0
 77 75  1  0
 78 87  2  0
 78 83  1  0
 79 75  1  0
 79 83  1  0
 80 79  1  0
 81 82  1  0
 81 80  1  0
 82 78  1  0
 83 84  2  0
 84 85  1  0
 86 85  2  0
 87 86  1  0
 88 62  1  0
 88 89  1  0
 88 98  1  0
 89 92  1  0
 90 94  1  0
 90 89  1  0
 91 90  2  0
 94 93  1  0
 96 97  1  0
 96 94  1  0
 96 95  1  0
 98101  1  1
 98 99  1  0
100 98  1  0
M  ISO  4  12 100  20 100  60 101  61 101
M  END
>  <TORSDO>  (52) 
F 22

>  <SCORE>  (52) 
-12.273

>  <name>  (52) 
52

>  <ligand_id>  (52) 
52

>  <original_smiles>  (52) 
[H]c1c([H])c([H])c2c(c1[H])C([H])([H])C([H])([H])C([H])([H])C2([H])N([H])C(=O)C1([H])N(C(=O)C([H])(N([H])C(=O)C([H])(N([H])C([H])([H])[H])C([H])([H])[H])C(C([H])([H])[H])(C([H])([H])[H])C([H])([H])[H])C([H])([H])c2c([H])c(OC([H])([H])C([H])(C(=O)N([H])C([H])([H])c3c([H])c(C(=O)N([H])[H])c([H])c(N([H])C(=O)N4C([H])([H])C([H])([H])C([H])([H])C([H])(n5nc(-c6c([H])c([H])c(Oc7c([H])c([H])c(F)c([H])c7F)c([H])c6[H])c(C(=O)N([H])[H])c5N([H])[H])C4([H])[H])c3[H])[N+]([H])([H])[H])c([H])c([H])c2C1([H])[H]

>  <smiles>  (52) 
[H]c1c([H])c([H])c2c(c1[H])C([H])([H])C([H])([H])C([H])([H])C2([H])N([H])C(=O)C1([H])N(C(=O)C([H])(N([H])C(=O)C([H])(N([H])C([H])([H])[H])C([H])([H])[H])C(C([H])([H])[H])(C([H])([H])[H])C([H])([H])[H])C([H])([H])c2c([H])c(OC([H])([H])C([H])(C(=O)N([H])C([H])([H])c3c([H])c(C(=O)N([H])[H])c([H])c(N([H])C(=O)N4C([H])([H])C([H])([H])C([H])([H])C([H])(n5nc(-c6c([H])c([H])c(Oc7c([H])c([H])c(F)c([H])c7F)c([H])c6[H])c(C(=O)N([H])[H])c5N([H])[H])C4([H])[H])c3[H])[N+]([H])([H])[H])c([H])c([H])c2C1([H])[H]

$$$$
53:0:0
     RDKit          3D

 97105  0  0  1  0  0  0  0  0999 V2000
  -28.5310  -21.8820   20.5740 C   0  0  0  0  0  3  0  0  0  0  0  0
  -30.0000  -19.3730   17.9940 C   0  0  0  0  0  3  0  0  0  0  0  0
  -30.3530  -18.2790   18.8120 C   0  0  0  0  0  3  0  0  0  0  0  0
  -29.4380  -20.5420   18.5520 C   0  0  0  0  0  3  0  0  0  0  0  0
  -29.5590  -19.5130   20.7530 C   0  0  0  0  0  3  0  0  0  0  0  0
  -30.1440  -18.3360   20.2040 C   0  0  0  0  0  0  0  0  0  0  0  0
  -29.2000  -20.6310   19.9430 C   0  0  0  0  0  0  0  0  0  0  0  0
  -30.6250  -17.1850   21.1120 C   0  0  0  0  0  2  0  0  0  0  0  0
  -30.9120  -14.8020   20.2700 C   0  0  0  0  0  0  0  0  0  0  0  0
  -30.6070  -12.6520   19.0860 C   0  0  0  0  0  2  0  0  0  0  0  0
  -29.6270  -12.8620   17.9120 C   0  0  0  0  0  2  0  0  0  0  0  0
  -28.1690  -12.7140   18.3870 C   0  0  0  0  0  2  0  0  0  0  0  0
  -27.8670  -13.5380   19.6650 C   0  0  0  0  0  3  0  0  0  0  0  0
  -28.9490  -13.2950   20.7400 C   0  0  0  0  0  2  0  0  0  0  0  0
  -30.2510  -13.6190   20.1360 N   0  0  0  0  0  0  0  0  0  0  0  0
  -32.0520  -14.9780   19.8330 O   0  0  0  0  0  0  0  0  0  0  0  0
  -30.1780  -15.8170   20.7750 N   0  0  0  0  0  0  0  0  0  0  0  0
  -29.2310  -15.5840   21.0320 H   0  0  0  0  0  0  0  0  0  0  0  0
  -25.4900  -14.1540   20.4360 C   0  0  0  0  0  0  0  0  0  0  0  0
  -24.4270  -13.3840   20.8230 C   0  0  0  0  0  0  0  0  0  0  0  0
  -24.8810  -12.0300   20.7710 C   0  0  0  0  0  0  0  0  0  0  0  0
  -26.5240  -13.2690   20.1730 N   0  0  0  0  0  0  0  0  0  0  0  0
  -26.1630  -11.9870   20.4330 N   0  0  0  0  0  0  0  0  0  0  0  0
  -24.1540  -10.7680   20.9630 C   0  0  0  0  0  0  0  0  0  0  0  0
  -24.5680   -9.8140   21.9190 C   0  0  0  0  0  3  0  0  0  0  0  0
  -23.8400   -8.6190   22.0960 C   0  0  0  0  0  3  0  0  0  0  0  0
  -22.6860   -8.3680   21.3160 C   0  0  0  0  0  0  0  0  0  0  0  0
  -22.2930   -9.3100   20.3490 C   0  0  0  0  0  3  0  0  0  0  0  0
  -23.0200  -10.4990   20.1700 C   0  0  0  0  0  3  0  0  0  0  0  0
  -21.9330   -7.2220   21.4000 O   0  0  0  0  0  0  0  0  0  0  0  0
  -21.8240   -6.5180   22.5730 C   0  0  0  0  0  0  0  0  0  0  0  0
  -21.3050   -7.1060   23.7490 C   0  0  0  0  0  3  0  0  0  0  0  0
  -21.1430   -6.3270   24.9120 C   0  0  0  0  0  3  0  0  0  0  0  0
  -21.4920   -4.9620   24.9010 C   0  0  0  0  0  0  0  0  0  0  0  0
  -22.0060   -4.3760   23.7310 C   0  0  0  0  0  3  0  0  0  0  0  0
  -22.1670   -5.1510   22.5700 C   0  0  0  0  0  0  0  0  0  0  0  0
  -22.6410   -4.5750   21.4380 F   0  0  0  0  0  0  0  0  0  0  0  0
  -21.3310   -4.2120   26.0160 F   0  0  0  0  0  0  0  0  0  0  0  0
  -23.0370  -13.8660   21.1280 C   0  0  0  0  0  0  0  0  0  0  0  0
  -22.3260  -13.1640   22.0030 N   0  0  0  0  0  0  0  0  0  0  0  0
  -22.5930  -14.8970   20.6250 O   0  0  0  0  0  0  0  0  0  0  0  0
  -22.6990  -12.3250   22.4230 H   0  0  0  0  0  0  0  0  0  0  0  0
  -21.3960  -13.4690   22.2530 H   0  0  0  0  0  0  0  0  0  0  0  0
  -25.6580  -15.5260   20.2660 N   0  0  0  0  0  0  0  0  0  0  0  0
  -24.8900  -16.1750   20.3920 H   0  0  0  0  0  0  0  0  0  0  0  0
  -26.4890  -15.9600   19.8860 H   0  0  0  0  0  0  0  0  0  0  0  0
  -28.6520  -24.4180   20.4600 C   0  0  0  0  0  0  0  0  0  0  0  0
  -28.8610  -23.1840   19.9320 N   0  0  0  0  0  0  0  0  0  0  0  0
  -28.0780  -24.5670   21.5420 O   0  0  0  0  0  0  0  0  0  0  0  0
  -29.3850  -23.1450   19.0700 H   0  0  0  0  0  0  0  0  0  0  0  0
  -29.1600  -25.6650   19.6780 C   0  0  0  0  0  2  0  0  0  0  0  0
  -28.9400  -26.9210   20.3840 O   0  0  0  0  0  0  0  0  0  0  0  0
  -24.7360  -31.9340   23.2870 C   0  0  0  0  0  0  0  0  0  0  0  0
  -27.7260  -27.5920   20.3190 C   0  0  0  0  0  0  0  0  0  0  0  0
  -23.6850  -30.5010   21.5700 C   0  0  0  0  0  3  0  0  0  0  0  0
  -25.2740  -29.0300   20.2220 C   0  0  0  0  0  0  0  0  0  0  0  0
  -26.2060  -30.9470   21.5220 C   0  0  0  0  0  2  0  0  0  0  0  0
  -26.3820  -29.5860   20.8720 C   0  0  0  0  0  0  0  0  0  0  0  0
  -27.6070  -28.8760   20.9160 C   0  0  0  0  0  3  0  0  0  0  0  0
  -26.5820  -27.0450   19.6890 C   0  0  0  0  0  3  0  0  0  0  0  0
  -25.3700  -27.7600   19.6320 C   0  0  0  0  0  3  0  0  0  0  0  0
  -23.9990  -29.8450   20.2010 C   0  0  0  0  0  2  0  0  0  0  0  0
  -24.8910  -31.1440   22.1860 N   0  0  0  0  0  0  0  0  0  0  0  0
  -23.6140  -32.1580   23.7630 O   0  0  0  0  0  0  0  0  0  0  0  0
  -23.0230  -29.4440   22.4820 C   0  0  0  0  0  0  0  0  0  0  0  0
  -21.7100  -29.2320   22.2990 N   0  0  0  0  0  0  0  0  0  0  0  0
  -23.6890  -28.8200   23.3130 O   0  0  0  0  0  0  0  0  0  0  0  0
  -21.2330  -29.7890   21.6040 H   0  0  0  0  0  0  0  0  0  0  0  0
  -18.3360  -27.9970   22.7040 C   0  0  0  0  0  0  0  0  0  0  0  0
  -20.8880  -28.2600   23.0190 C   0  0  0  0  0  3  0  0  0  0  0  0
  -21.0080  -26.8540   22.3870 C   0  0  0  0  0  2  0  0  0  0  0  0
  -19.9200  -26.5670   21.3450 C   0  0  0  0  0  2  0  0  0  0  0  0
  -18.5290  -26.6780   21.9750 C   0  0  0  0  0  2  0  0  0  0  0  0
  -19.4430  -28.7470   23.1800 C   0  0  0  0  0  0  0  0  0  0  0  0
  -19.2090  -29.9850   23.8190 C   0  0  0  0  0  3  0  0  0  0  0  0
  -17.8990  -30.4700   23.9890 C   0  0  0  0  0  3  0  0  0  0  0  0
  -16.8050  -29.7150   23.5300 C   0  0  0  0  0  3  0  0  0  0  0  0
  -17.0250  -28.4810   22.8930 C   0  0  0  0  0  3  0  0  0  0  0  0
  -25.9570  -32.6130   23.9830 C   0  0  0  0  0  3  0  0  0  0  0  0
  -25.5900  -34.0090   24.2540 N   0  0  0  0  0  0  0  0  0  0  0  0
  -25.9390  -35.0520   23.4880 C   0  0  0  0  0  0  0  0  0  0  0  0
  -26.6750  -34.9410   22.5030 O   0  0  0  0  0  0  0  0  0  0  0  0
  -24.9470  -34.1660   25.0160 H   0  0  0  0  0  0  0  0  0  0  0  0
  -24.1800  -36.7770   22.9810 C   0  0  0  0  0  1  0  0  0  0  0  0
  -25.3850  -36.4370   23.8730 C   0  0  0  0  0  3  0  0  0  0  0  0
  -27.4340  -37.4180   24.8050 C   0  0  0  0  0  1  0  0  0  0  0  0
  -26.3910  -37.5190   23.7870 N   0  0  0  0  0  0  0  0  0  0  0  0
  -25.9490  -38.4300   23.8780 H   0  0  0  0  0  0  0  0  0  0  0  0
  -26.4000  -31.8870   25.3140 C   0  0  1  0  0  0  0  0  0  0  0  0
  -25.2340  -31.6230   26.2960 C   0  0  0  0  0  1  0  0  0  0  0  0
  -27.0670  -30.5280   25.0000 C   0  0  0  0  0  1  0  0  0  0  0  0
  -27.4660  -32.7370   26.0470 C   0  0  0  0  0  1  0  0  0  0  0  0
  -26.9960  -21.6750   20.6650 C   0  0  0  0  0  2  0  0  0  0  0  0
  -26.3320  -21.8010   19.3550 N   0  0  0  0  0  4  0  0  0  0  0  0
  -26.5250  -22.6980   18.9500 H   0  0  0  0  0  0  0  0  0  0  0  0
  -25.3380  -21.7040   19.4600 H   0  0  0  0  0  0  0  0  0  0  0  0
  -26.6570  -21.0860   18.7310 H   0  0  0  0  0  0  0  0  0  0  0  0
  1 93  1  0
  2  4  2  0
  2  3  1  0
  3  6  2  0
  4  7  1  0
  6  5  1  0
  6  8  1  0
  7  1  1  0
  7  5  2  0
  9 17  1  0
 10 15  1  0
 11 12  1  0
 11 10  1  0
 13 12  1  0
 13 22  1  0
 13 14  1  0
 15  9  1  0
 15 14  1  0
 16  9  2  0
 17 18  1  0
 17  8  1  0
 19 20  2  0
 20 39  1  0
 21 20  1  0
 21 24  1  0
 22 23  1  0
 22 19  1  0
 23 21  2  0
 24 25  1  0
 25 26  2  0
 27 30  1  0
 27 26  1  0
 28 27  2  0
 29 28  1  0
 29 24  2  0
 30 31  1  0
 31 32  1  0
 32 33  2  0
 34 33  1  0
 34 38  1  0
 35 34  2  0
 36 31  2  0
 36 35  1  0
 37 36  1  0
 39 40  1  0
 40 43  1  0
 40 42  1  0
 41 39  2  0
 44 45  1  0
 44 19  1  0
 46 44  1  0
 47 49  2  0
 48 47  1  0
 48  1  1  0
 50 48  1  0
 51 52  1  0
 51 47  1  0
 53 64  2  0
 54 52  1  0
 54 59  1  0
 55 63  1  0
 55 65  1  0
 56 58  1  0
 57 63  1  0
 58 59  2  0
 58 57  1  0
 60 54  2  0
 61 60  1  0
 61 56  2  0
 62 56  1  0
 62 55  1  0
 63 53  1  0
 65 67  2  0
 66 65  1  0
 68 66  1  0
 69 78  2  0
 69 74  1  0
 70 66  1  0
 70 74  1  0
 71 70  1  0
 72 73  1  0
 72 71  1  0
 73 69  1  0
 74 75  2  0
 75 76  1  0
 77 76  2  0
 78 77  1  0
 79 53  1  0
 79 80  1  0
 79 89  1  0
 80 83  1  0
 81 85  1  0
 81 80  1  0
 82 81  2  0
 85 84  1  0
 87 85  1  0
 87 88  1  0
 87 86  1  0
 89 92  1  1
 89 90  1  0
 91 89  1  0
 94 96  1  0
 94 93  1  0
 95 94  1  0
 97 94  1  0
M  ISO  4   9 100  17 100  51 101  52 101
M  END
>  <TORSDO>  (53) 
F 22

>  <SCORE>  (53) 
-12.778

>  <name>  (53) 
53

>  <ligand_id>  (53) 
53

>  <original_smiles>  (53) 
[H]c1c([H])c([H])c2c(c1[H])C([H])([H])C([H])([H])C([H])([H])C2([H])N([H])C(=O)C1([H])N(C(=O)C([H])(N([H])C(=O)C([H])(N([H])C([H])([H])[H])C([H])([H])[H])C(C([H])([H])[H])(C([H])([H])[H])C([H])([H])[H])C([H])([H])c2c([H])c(OC([H])([H])C(=O)N([H])C([H])(c3c([H])c([H])c([H])c(C([H])([H])N([H])C(=O)N4C([H])([H])C([H])([H])C([H])([H])C([H])(n5nc(-c6c([H])c([H])c(Oc7c([H])c([H])c(F)c([H])c7F)c([H])c6[H])c(C(=O)N([H])[H])c5N([H])[H])C4([H])[H])c3[H])C([H])([H])[N+]([H])([H])[H])c([H])c([H])c2C1([H])[H]

>  <smiles>  (53) 
[H]c1c([H])c([H])c2c(c1[H])C([H])([H])C([H])([H])C([H])([H])C2([H])N([H])C(=O)C1([H])N(C(=O)C([H])(N([H])C(=O)C([H])(N([H])C([H])([H])[H])C([H])([H])[H])C(C([H])([H])[H])(C([H])([H])[H])C([H])([H])[H])C([H])([H])c2c([H])c(OC([H])([H])C(=O)N([H])C([H])(c3c([H])c([H])c([H])c(C([H])([H])N([H])C(=O)N4C([H])([H])C([H])([H])C([H])([H])C([H])(n5nc(-c6c([H])c([H])c(Oc7c([H])c([H])c(F)c([H])c7F)c([H])c6[H])c(C(=O)N([H])[H])c5N([H])[H])C4([H])[H])c3[H])C([H])([H])[N+]([H])([H])[H])c([H])c([H])c2C1([H])[H]

$$$$
54:0:0
     RDKit          3D

104112  0  0  1  0  0  0  0  0999 V2000
  -30.8310  -22.2320   21.2730 C   0  0  0  0  0  0  0  0  0  0  0  0
  -31.3650  -21.0550   21.6160 N   0  0  0  0  0  0  0  0  0  0  0  0
  -30.8190  -22.6450   20.1100 O   0  0  0  0  0  0  0  0  0  0  0  0
  -31.3410  -20.7870   22.5910 H   0  0  0  0  0  0  0  0  0  0  0  0
  -32.0410  -20.1360   20.7080 C   0  0  0  0  0  2  0  0  0  0  0  0
  -32.2760  -17.6140   20.7660 C   0  0  0  0  0  3  0  0  0  0  0  0
  -30.0410  -18.5630   20.6620 C   0  0  0  0  0  3  0  0  0  0  0  0
  -31.7530  -16.3050   20.7190 C   0  0  0  0  0  0  0  0  0  0  0  0
  -31.4350  -18.7410   20.7190 C   0  0  0  0  0  0  0  0  0  0  0  0
  -29.4880  -17.2670   20.5960 C   0  0  0  0  0  0  0  0  0  0  0  0
  -30.3380  -16.1300   20.5850 C   0  0  0  0  0  0  0  0  0  0  0  0
  -27.9810  -17.1210   20.4770 C   0  0  0  0  0  1  0  0  0  0  0  0
  -29.9870  -14.1010   19.2950 C   0  0  0  0  0  0  0  0  0  0  0  0
  -29.2630  -12.2060   17.9030 C   0  0  0  0  0  2  0  0  0  0  0  0
  -28.0350  -12.6010   17.0620 C   0  0  0  0  0  2  0  0  0  0  0  0
  -26.7400  -12.3480   17.8530 C   0  0  0  0  0  2  0  0  0  0  0  0
  -26.7820  -12.9530   19.2820 C   0  0  0  0  0  3  0  0  0  0  0  0
  -28.0960  -12.5820   20.0050 C   0  0  0  0  0  2  0  0  0  0  0  0
  -29.2250  -12.9860   19.1500 N   0  0  0  0  0  0  0  0  0  0  0  0
  -30.8440  -14.4360   18.4730 O   0  0  0  0  0  0  0  0  0  0  0  0
  -29.7400  -14.8540   20.3780 N   0  0  0  0  0  0  0  0  0  0  0  0
  -28.9410  -14.6010   20.9390 H   0  0  0  0  0  0  0  0  0  0  0  0
  -24.6270  -13.3560   20.6320 C   0  0  0  0  0  0  0  0  0  0  0  0
  -23.7170  -12.4930   21.1810 C   0  0  0  0  0  0  0  0  0  0  0  0
  -24.1980  -11.1790   20.8970 C   0  0  0  0  0  0  0  0  0  0  0  0
  -25.6070  -12.5610   20.0580 N   0  0  0  0  0  0  0  0  0  0  0  0
  -25.3650  -11.2420   20.2690 N   0  0  0  0  0  0  0  0  0  0  0  0
  -23.5880   -9.8640   21.1380 C   0  0  0  0  0  0  0  0  0  0  0  0
  -24.1840   -8.9190   22.0030 C   0  0  0  0  0  3  0  0  0  0  0  0
  -23.5670   -7.6700   22.2320 C   0  0  0  0  0  3  0  0  0  0  0  0
  -22.3410   -7.3560   21.5980 C   0  0  0  0  0  0  0  0  0  0  0  0
  -21.7640   -8.2920   20.7210 C   0  0  0  0  0  3  0  0  0  0  0  0
  -22.3810   -9.5330   20.4900 C   0  0  0  0  0  3  0  0  0  0  0  0
  -21.6840   -6.1580   21.7400 O   0  0  0  0  0  0  0  0  0  0  0  0
  -21.6860   -5.4730   22.9280 C   0  0  0  0  0  0  0  0  0  0  0  0
  -21.1850   -6.0440   24.1180 C   0  0  0  0  0  3  0  0  0  0  0  0
  -21.1410   -5.2800   25.3020 C   0  0  0  0  0  3  0  0  0  0  0  0
  -21.5900   -3.9460   25.2960 C   0  0  0  0  0  0  0  0  0  0  0  0
  -22.0850   -3.3740   24.1120 C   0  0  0  0  0  3  0  0  0  0  0  0
  -22.1300   -4.1350   22.9300 C   0  0  0  0  0  0  0  0  0  0  0  0
  -22.5890   -3.5730   21.7860 F   0  0  0  0  0  0  0  0  0  0  0  0
  -21.5420   -3.2100   26.4310 F   0  0  0  0  0  0  0  0  0  0  0  0
  -22.4230  -12.8630   21.8490 C   0  0  0  0  0  0  0  0  0  0  0  0
  -21.9960  -12.0790   22.8330 N   0  0  0  0  0  0  0  0  0  0  0  0
  -21.8090  -13.8820   21.5340 O   0  0  0  0  0  0  0  0  0  0  0  0
  -22.5110  -11.2550   23.1040 H   0  0  0  0  0  0  0  0  0  0  0  0
  -21.1430  -12.3080   23.3230 H   0  0  0  0  0  0  0  0  0  0  0  0
  -24.6940  -14.7440   20.5560 N   0  0  0  0  0  0  0  0  0  0  0  0
  -23.9550  -15.3390   20.9160 H   0  0  0  0  0  0  0  0  0  0  0  0
  -25.4050  -15.2570   20.0510 H   0  0  0  0  0  0  0  0  0  0  0  0
  -32.7410  -15.1660   20.7600 C   0  0  0  0  0  0  0  0  0  0  0  0
  -32.5120  -14.2060   21.6460 N   0  0  0  0  0  0  0  0  0  0  0  0
  -33.7520  -15.1660   20.0580 O   0  0  0  0  0  0  0  0  0  0  0  0
  -31.6980  -14.2590   22.2390 H   0  0  0  0  0  0  0  0  0  0  0  0
  -33.1580  -13.4370   21.7460 H   0  0  0  0  0  0  0  0  0  0  0  0
  -30.2420  -23.0940   22.3910 C   0  0  0  0  0  2  0  0  0  0  0  0
  -29.6260  -25.5470   22.2310 C   0  0  0  0  0  0  0  0  0  0  0  0
  -28.4650  -25.4350   22.8940 N   0  0  0  0  0  4  0  0  0  0  0  0
  -30.4120  -24.4890   21.9800 N   0  0  0  0  0  0  0  0  0  0  0  0
  -27.8800  -26.2450   23.0290 H   0  0  0  0  0  0  0  0  0  0  0  0
  -28.1280  -24.5530   23.2420 H   0  0  0  0  0  0  0  0  0  0  0  0
  -31.2300  -24.6150   21.3960 H   0  0  0  0  0  0  0  0  0  0  0  0
  -30.0800  -26.8840   21.7340 C   0  0  0  0  0  2  0  0  0  0  0  0
  -30.2380  -26.8770   20.3150 O   0  0  0  0  0  0  0  0  0  0  0  0
  -23.4050  -25.8480   18.4020 C   0  0  0  0  0  0  0  0  0  0  0  0
  -29.1720  -27.1050   19.4720 C   0  0  0  0  0  0  0  0  0  0  0  0
  -24.8490  -27.0000   16.7490 C   0  0  0  0  0  3  0  0  0  0  0  0
  -27.1350  -27.7320   17.6080 C   0  0  0  0  0  0  0  0  0  0  0  0
  -25.3370  -27.1650   19.2490 C   0  0  0  0  0  2  0  0  0  0  0  0
  -26.8010  -27.2880   18.8920 C   0  0  0  0  0  0  0  0  0  0  0  0
  -27.8070  -26.9710   19.8250 C   0  0  0  0  0  3  0  0  0  0  0  0
  -29.4910  -27.5550   18.1740 C   0  0  0  0  0  3  0  0  0  0  0  0
  -28.4850  -27.8610   17.2370 C   0  0  0  0  0  3  0  0  0  0  0  0
  -25.9850  -28.0570   16.6830 C   0  0  0  0  0  2  0  0  0  0  0  0
  -24.5030  -26.6190   18.1570 N   0  0  0  0  0  0  0  0  0  0  0  0
  -22.6570  -25.4910   17.4810 O   0  0  0  0  0  0  0  0  0  0  0  0
  -25.2430  -25.7940   15.8680 C   0  0  0  0  0  0  0  0  0  0  0  0
  -24.5530  -25.6380   14.7280 N   0  0  0  0  0  0  0  0  0  0  0  0
  -26.1660  -25.0460   16.1990 O   0  0  0  0  0  0  0  0  0  0  0  0
  -23.8030  -26.2870   14.5370 H   0  0  0  0  0  0  0  0  0  0  0  0
  -23.0260  -23.8960   11.9580 C   0  0  0  0  0  0  0  0  0  0  0  0
  -24.7760  -24.5990   13.7250 C   0  0  0  0  0  3  0  0  0  0  0  0
  -25.6070  -25.1390   12.5380 C   0  0  0  0  0  2  0  0  0  0  0  0
  -24.7440  -25.6650   11.3870 C   0  0  0  0  0  2  0  0  0  0  0  0
  -23.8310  -24.5580   10.8520 C   0  0  0  0  0  2  0  0  0  0  0  0
  -23.4610  -23.9290   13.3090 C   0  0  0  0  0  0  0  0  0  0  0  0
  -22.6590  -23.3310   14.3060 C   0  0  0  0  0  3  0  0  0  0  0  0
  -21.4430  -22.7070   13.9710 C   0  0  0  0  0  3  0  0  0  0  0  0
  -21.0230  -22.6620   12.6300 C   0  0  0  0  0  3  0  0  0  0  0  0
  -21.8150  -23.2510   11.6280 C   0  0  0  0  0  3  0  0  0  0  0  0
  -23.0240  -25.3980   19.8480 C   0  0  0  0  0  3  0  0  0  0  0  0
  -21.6160  -24.9790   19.8250 N   0  0  0  0  0  0  0  0  0  0  0  0
  -20.5750  -25.8040   19.9990 C   0  0  0  0  0  0  0  0  0  0  0  0
  -20.7060  -26.9990   20.2760 O   0  0  0  0  0  0  0  0  0  0  0  0
  -21.4320  -24.0230   19.5550 H   0  0  0  0  0  0  0  0  0  0  0  0
  -18.6280  -25.5120   18.4370 C   0  0  0  0  0  1  0  0  0  0  0  0
  -19.1630  -25.2080   19.8450 C   0  0  0  0  0  3  0  0  0  0  0  0
  -18.5150  -25.2450   22.2120 C   0  0  0  0  0  1  0  0  0  0  0  0
  -18.2040  -25.6960   20.8590 N   0  0  0  0  0  0  0  0  0  0  0  0
  -17.2600  -25.3940   20.6360 H   0  0  0  0  0  0  0  0  0  0  0  0
  -23.9420  -24.2420   20.4040 C   0  0  1  0  0  0  0  0  0  0  0  0
  -24.1280  -23.0640   19.4190 C   0  0  0  0  0  1  0  0  0  0  0  0
  -25.3460  -24.7880   20.7560 C   0  0  0  0  0  1  0  0  0  0  0  0
  -23.3450  -23.6770   21.7150 C   0  0  0  0  0  1  0  0  0  0  0  0
  1  2  1  0
  1 56  1  0
  2  4  1  0
  3  1  2  0
  5  9  1  0
  5  2  1  0
  7  9  2  0
  8 51  1  0
  8  6  2  0
  9  6  1  0
 10  7  1  0
 11 10  2  0
 11  8  1  0
 12 10  1  0
 13 21  1  0
 14 19  1  0
 15 16  1  0
 15 14  1  0
 17 16  1  0
 17 18  1  0
 17 26  1  0
 19 13  1  0
 19 18  1  0
 20 13  2  0
 21 11  1  0
 21 22  1  0
 23 24  2  0
 24 43  1  0
 25 28  1  0
 25 24  1  0
 26 27  1  0
 26 23  1  0
 27 25  2  0
 28 29  1  0
 29 30  2  0
 31 34  1  0
 31 30  1  0
 32 31  2  0
 33 32  1  0
 33 28  2  0
 34 35  1  0
 35 40  2  0
 35 36  1  0
 36 37  2  0
 38 37  1  0
 38 42  1  0
 39 38  2  0
 40 39  1  0
 41 40  1  0
 43 44  1  0
 44 46  1  0
 44 47  1  0
 45 43  2  0
 48 23  1  0
 48 49  1  0
 50 48  1  0
 51 52  1  0
 52 55  1  0
 52 54  1  0
 53 51  2  0
 57 58  2  0
 58 60  1  0
 58 61  1  0
 59 57  1  0
 59 56  1  0
 62 59  1  0
 63 57  1  0
 64 63  1  0
 66 71  1  0
 66 64  1  0
 67 77  1  0
 67 75  1  0
 68 70  1  0
 70 69  1  0
 70 71  2  0
 72 66  2  0
 73 68  2  0
 73 72  1  0
 74 67  1  0
 74 68  1  0
 75 65  1  0
 75 69  1  0
 76 65  2  0
 77 79  2  0
 78 77  1  0
 80 78  1  0
 81 86  1  0
 82 78  1  0
 83 82  1  0
 84 83  1  0
 85 84  1  0
 85 81  1  0
 86 82  1  0
 86 87  2  0
 88 87  1  0
 89 88  2  0
 90 81  2  0
 90 89  1  0
 91 65  1  0
 91101  1  0
 92 91  1  0
 92 93  1  0
 93 94  2  0
 95 92  1  0
 97 96  1  0
 97 93  1  0
 97 99  1  0
 99 98  1  0
100 99  1  0
101103  1  1
101104  1  0
102101  1  0
M  ISO  4  13 100  21 100  63 101  64 101
M  END
>  <TORSDO>  (54) 
F 22

>  <SCORE>  (54) 
-7.052

>  <name>  (54) 
54

>  <ligand_id>  (54) 
54

>  <original_smiles>  (54) 
[H]c1c([H])c([H])c2c(c1[H])C([H])([H])C([H])([H])C([H])([H])C2([H])N([H])C(=O)C1([H])N(C(=O)C([H])(N([H])C(=O)C([H])(N([H])C([H])([H])[H])C([H])([H])[H])C(C([H])([H])[H])(C([H])([H])[H])C([H])([H])[H])C([H])([H])c2c([H])c(OC([H])([H])C(N([H])[H])=[N+]([H])C([H])([H])C(=O)N([H])C([H])([H])c3c([H])c(C(=O)N([H])[H])c(N([H])C(=O)N4C([H])([H])C([H])([H])C([H])([H])C([H])(n5nc(-c6c([H])c([H])c(Oc7c([H])c([H])c(F)c([H])c7F)c([H])c6[H])c(C(=O)N([H])[H])c5N([H])[H])C4([H])[H])c(C([H])([H])[H])c3[H])c([H])c([H])c2C1([H])[H]

>  <smiles>  (54) 
[H]c1c([H])c([H])c2c(c1[H])C([H])([H])C([H])([H])C([H])([H])C2([H])N([H])C(=O)C1([H])N(C(=O)C([H])(N([H])C(=O)C([H])(N([H])C([H])([H])[H])C([H])([H])[H])C(C([H])([H])[H])(C([H])([H])[H])C([H])([H])[H])C([H])([H])c2c([H])c(OC([H])([H])C(N([H])[H])=[N+]([H])C([H])([H])C(=O)N([H])C([H])([H])c3c([H])c(C(=O)N([H])[H])c(N([H])C(=O)N4C([H])([H])C([H])([H])C([H])([H])C([H])(n5nc(-c6c([H])c([H])c(Oc7c([H])c([H])c(F)c([H])c7F)c([H])c6[H])c(C(=O)N([H])[H])c5N([H])[H])C4([H])[H])c(C([H])([H])[H])c3[H])c([H])c([H])c2C1([H])[H]

$$$$
55:0:0
     RDKit          3D

100109  0  0  1  0  0  0  0  0999 V2000
  -29.6560  -21.1410   16.5000 C   0  0  0  0  0  2  0  0  0  0  0  0
  -29.5970  -20.7100   18.8880 C   0  0  0  0  0  3  0  0  0  0  0  0
  -29.5680  -22.2490   18.5830 C   0  0  0  0  0  3  0  0  0  0  0  0
  -28.9730  -22.3460   17.1670 C   0  0  1  0  0  0  0  0  0  0  0  0
  -29.3340  -23.6630   16.4480 C   0  0  0  0  0  1  0  0  0  0  0  0
  -27.4340  -22.1900   17.1510 C   0  0  0  0  0  1  0  0  0  0  0  0
  -29.1930  -18.8380   17.2210 C   0  0  0  0  0  1  0  0  0  0  0  0
  -29.8860  -20.1100   17.5460 N   0  0  1  0  0  4  0  0  0  0  0  0
  -30.8780  -19.9190   17.5230 H   0  0  0  0  0  0  0  0  0  0  0  0
  -31.6900  -17.1810   21.4570 C   0  0  0  0  0  3  0  0  0  0  0  0
  -31.8460  -18.5140   21.1990 C   0  0  0  0  0  3  0  0  0  0  0  0
  -29.8270  -17.9130   20.3650 C   0  0  0  0  0  3  0  0  0  0  0  0
  -30.4460  -16.8010   20.8840 C   0  0  0  0  0  0  0  0  0  0  0  0
  -30.6790  -20.3200   19.9340 C   0  0  0  0  0  0  0  0  0  0  0  0
  -30.7460  -18.9620   20.4720 N   0  0  0  0  0  0  0  0  0  0  0  0
  -31.5670  -21.1100   20.2810 O   0  0  0  0  0  0  0  0  0  0  0  0
  -30.6400  -14.3970   20.4030 C   0  0  0  0  0  0  0  0  0  0  0  0
  -30.2850  -12.2790   19.2040 C   0  0  0  0  0  2  0  0  0  0  0  0
  -29.3420  -12.5370   18.0130 C   0  0  0  0  0  2  0  0  0  0  0  0
  -27.8710  -12.4050   18.4510 C   0  0  0  0  0  2  0  0  0  0  0  0
  -27.5520  -13.2090   19.7410 C   0  0  0  0  0  3  0  0  0  0  0  0
  -28.6140  -12.9570   20.8340 C   0  0  0  0  0  2  0  0  0  0  0  0
  -29.9340  -13.2450   20.2550 N   0  0  0  0  0  0  0  0  0  0  0  0
  -31.7900  -14.5250   19.9720 O   0  0  0  0  0  0  0  0  0  0  0  0
  -29.9440  -15.4650   20.8530 N   0  0  0  0  0  0  0  0  0  0  0  0
  -28.9610  -15.3210   21.0210 H   0  0  0  0  0  0  0  0  0  0  0  0
  -25.1550  -13.8130   20.4510 C   0  0  0  0  0  0  0  0  0  0  0  0
  -24.0900  -13.0400   20.8250 C   0  0  0  0  0  0  0  0  0  0  0  0
  -24.5540  -11.6890   20.8020 C   0  0  0  0  0  0  0  0  0  0  0  0
  -26.2010  -12.9330   20.2240 N   0  0  0  0  0  0  0  0  0  0  0  0
  -25.8440  -11.6520   20.4930 N   0  0  0  0  0  0  0  0  0  0  0  0
  -23.8320  -10.4260   20.9960 C   0  0  0  0  0  0  0  0  0  0  0  0
  -24.2550   -9.4730   21.9470 C   0  0  0  0  0  3  0  0  0  0  0  0
  -23.5310   -8.2740   22.1300 C   0  0  0  0  0  3  0  0  0  0  0  0
  -22.3720   -8.0210   21.3600 C   0  0  0  0  0  0  0  0  0  0  0  0
  -21.9690   -8.9630   20.3980 C   0  0  0  0  0  3  0  0  0  0  0  0
  -22.6920  -10.1520   20.2130 C   0  0  0  0  0  3  0  0  0  0  0  0
  -21.6210   -6.8730   21.4500 O   0  0  0  0  0  0  0  0  0  0  0  0
  -21.5540   -6.1470   22.6130 C   0  0  0  0  0  0  0  0  0  0  0  0
  -21.0890   -6.7130   23.8200 C   0  0  0  0  0  3  0  0  0  0  0  0
  -20.9710   -5.9120   24.9740 C   0  0  0  0  0  3  0  0  0  0  0  0
  -21.3070   -4.5460   24.9200 C   0  0  0  0  0  0  0  0  0  0  0  0
  -21.7640   -3.9790   23.7170 C   0  0  0  0  0  3  0  0  0  0  0  0
  -21.8840   -4.7780   22.5660 C   0  0  0  0  0  0  0  0  0  0  0  0
  -22.3040   -4.2220   21.4040 F   0  0  0  0  0  0  0  0  0  0  0  0
  -21.1870   -3.7740   26.0250 F   0  0  0  0  0  0  0  0  0  0  0  0
  -22.6920  -13.5150   21.0970 C   0  0  0  0  0  0  0  0  0  0  0  0
  -21.9640  -12.8170   21.9620 N   0  0  0  0  0  0  0  0  0  0  0  0
  -22.2540  -14.5400   20.5770 O   0  0  0  0  0  0  0  0  0  0  0  0
  -22.3320  -11.9880   22.4050 H   0  0  0  0  0  0  0  0  0  0  0  0
  -21.0250  -13.1160   22.1850 H   0  0  0  0  0  0  0  0  0  0  0  0
  -25.3160  -15.1830   20.2650 N   0  0  0  0  0  0  0  0  0  0  0  0
  -24.5470  -15.8350   20.3690 H   0  0  0  0  0  0  0  0  0  0  0  0
  -26.1600  -15.6210   19.9180 H   0  0  0  0  0  0  0  0  0  0  0  0
  -29.3250  -24.4030   19.8420 C   0  0  0  0  0  0  0  0  0  0  0  0
  -28.9140  -23.1480   19.5590 N   0  0  0  0  0  0  0  0  0  0  0  0
  -30.3840  -24.8600   19.4040 O   0  0  0  0  0  0  0  0  0  0  0  0
  -28.0340  -22.8510   19.9570 H   0  0  0  0  0  0  0  0  0  0  0  0
  -28.4230  -25.2880   20.7230 C   0  0  0  0  0  2  0  0  0  0  0  0
  -28.5250  -26.6730   20.3260 O   0  0  0  0  0  0  0  0  0  0  0  0
  -24.6300  -31.8660   23.2680 C   0  0  0  0  0  0  0  0  0  0  0  0
  -27.3510  -27.3950   20.2980 C   0  0  0  0  0  0  0  0  0  0  0  0
  -23.4650  -30.4410   21.6170 C   0  0  0  0  0  3  0  0  0  0  0  0
  -24.9530  -28.8940   20.2400 C   0  0  0  0  0  0  0  0  0  0  0  0
  -25.9930  -30.8080   21.4680 C   0  0  0  0  0  2  0  0  0  0  0  0
  -26.0970  -29.4290   20.8460 C   0  0  0  0  0  0  0  0  0  0  0  0
  -27.3020  -28.6890   20.8670 C   0  0  0  0  0  3  0  0  0  0  0  0
  -26.1940  -26.8810   19.6750 C   0  0  0  0  0  3  0  0  0  0  0  0
  -24.9960  -27.6200   19.6510 C   0  0  0  0  0  3  0  0  0  0  0  0
  -23.7050  -29.7480   20.2490 C   0  0  0  0  0  2  0  0  0  0  0  0
  -24.7130  -31.0530   22.1760 N   0  0  0  0  0  0  0  0  0  0  0  0
  -23.5370  -32.1410   23.7820 O   0  0  0  0  0  0  0  0  0  0  0  0
  -22.7970  -29.4280   22.5740 C   0  0  0  0  0  0  0  0  0  0  0  0
  -21.4730  -29.2530   22.4320 N   0  0  0  0  0  0  0  0  0  0  0  0
  -23.4690  -28.8010   23.3990 O   0  0  0  0  0  0  0  0  0  0  0  0
  -20.9950  -29.8090   21.7380 H   0  0  0  0  0  0  0  0  0  0  0  0
  -18.0800  -28.1110   22.9210 C   0  0  0  0  0  0  0  0  0  0  0  0
  -20.6410  -28.3240   23.1970 C   0  0  0  0  0  3  0  0  0  0  0  0
  -20.7210  -26.8950   22.6120 C   0  0  0  0  0  2  0  0  0  0  0  0
  -19.6150  -26.5980   21.5950 C   0  0  0  0  0  2  0  0  0  0  0  0
  -18.2350  -26.7630   22.2390 C   0  0  0  0  0  2  0  0  0  0  0  0
  -19.2110  -28.8520   23.3570 C   0  0  0  0  0  0  0  0  0  0  0  0
  -19.0130  -30.1160   23.9540 C   0  0  0  0  0  3  0  0  0  0  0  0
  -17.7170  -30.6390   24.1190 C   0  0  0  0  0  3  0  0  0  0  0  0
  -16.6000  -29.8940   23.7020 C   0  0  0  0  0  3  0  0  0  0  0  0
  -16.7830  -28.6330   23.1080 C   0  0  0  0  0  3  0  0  0  0  0  0
  -25.9010  -32.5080   23.9080 C   0  0  0  0  0  3  0  0  0  0  0  0
  -26.3980  -31.7490   25.1990 C   0  0  1  0  0  0  0  0  0  0  0  0
  -25.2870  -31.5120   26.2480 C   0  0  0  0  0  1  0  0  0  0  0  0
  -26.9960  -30.3720   24.8250 C   0  0  0  0  0  1  0  0  0  0  0  0
  -27.5320  -32.5550   25.8760 C   0  0  0  0  0  1  0  0  0  0  0  0
  -25.5800  -33.9070   24.2190 N   0  0  0  0  0  0  0  0  0  0  0  0
  -25.9160  -34.9530   23.4510 C   0  0  0  0  0  0  0  0  0  0  0  0
  -26.6000  -34.8420   22.4300 O   0  0  0  0  0  0  0  0  0  0  0  0
  -24.9740  -34.0670   25.0110 H   0  0  0  0  0  0  0  0  0  0  0  0
  -24.1800  -36.7280   23.0530 C   0  0  0  0  0  1  0  0  0  0  0  0
  -25.4130  -36.3430   23.8860 C   0  0  0  0  0  3  0  0  0  0  0  0
  -27.5280  -37.2540   24.7360 C   0  0  0  0  0  1  0  0  0  0  0  0
  -26.4400  -37.4010   23.7730 N   0  0  0  0  0  0  0  0  0  0  0  0
  -26.0260  -38.3210   23.9010 H   0  0  0  0  0  0  0  0  0  0  0  0
  1  4  1  0
  1  8  1  0
  2 14  1  0
  3  2  1  0
  3 56  1  0
  4  3  1  0
  4  5  1  6
  6  4  1  0
  7  8  1  0
  8  2  1  0
  8  9  1  1
 11 10  2  0
 12 15  1  0
 12 13  2  0
 13 10  1  0
 14 16  2  0
 14 15  1  0
 15 11  1  0
 17 25  1  0
 18 23  1  0
 19 20  1  0
 19 18  1  0
 21 20  1  0
 21 30  1  0
 21 22  1  0
 23 17  1  0
 23 22  1  0
 24 17  2  0
 25 13  1  0
 25 26  1  0
 27 28  2  0
 28 47  1  0
 29 28  1  0
 29 32  1  0
 30 27  1  0
 30 31  1  0
 31 29  2  0
 32 33  1  0
 33 34  2  0
 35 38  1  0
 35 34  1  0
 36 35  2  0
 37 36  1  0
 37 32  2  0
 38 39  1  0
 39 40  1  0
 40 41  2  0
 42 41  1  0
 42 46  1  0
 43 42  2  0
 44 39  2  0
 44 43  1  0
 45 44  1  0
 47 48  1  0
 48 51  1  0
 48 50  1  0
 49 47  2  0
 52 53  1  0
 52 27  1  0
 54 52  1  0
 55 59  1  0
 56 55  1  0
 56 58  1  0
 57 55  2  0
 60 59  1  0
 61 72  2  0
 62 60  1  0
 62 67  1  0
 63 71  1  0
 63 73  1  0
 64 70  1  0
 64 66  1  0
 65 71  1  0
 66 67  2  0
 66 65  1  0
 68 62  2  0
 69 68  1  0
 69 64  2  0
 70 63  1  0
 71 61  1  0
 73 75  2  0
 74 73  1  0
 76 74  1  0
 77 86  2  0
 77 82  1  0
 78 74  1  0
 78 82  1  0
 79 78  1  0
 80 81  1  0
 80 79  1  0
 81 77  1  0
 82 83  2  0
 83 84  1  0
 85 84  2  0
 86 85  1  0
 87 61  1  0
 87 92  1  0
 87 88  1  0
 88 91  1  1
 88 89  1  0
 90 88  1  0
 92 95  1  0
 93 97  1  0
 93 92  1  0
 94 93  2  0
 97 96  1  0
 99 97  1  0
 99100  1  0
 99 98  1  0
M  ISO  4  17 100  25 100  59 101  60 101
M  END
>  <TORSDO>  (55) 
F 19

>  <SCORE>  (55) 
-13.784

>  <name>  (55) 
55

>  <ligand_id>  (55) 
55

>  <original_smiles>  (55) 
[H]c1c([H])c([H])c2c(c1[H])C([H])([H])C([H])([H])C([H])([H])C2([H])N([H])C(=O)C1([H])N(C(=O)C([H])(N([H])C(=O)C([H])(N([H])C([H])([H])[H])C([H])([H])[H])C(C([H])([H])[H])(C([H])([H])[H])C([H])([H])[H])C([H])([H])c2c([H])c(OC([H])([H])C(=O)N([H])C3([H])C(C([H])([H])[H])(C([H])([H])[H])C([H])([H])[N+]([H])(C([H])([H])[H])C3([H])C(=O)n3c([H])c([H])c(N([H])C(=O)N4C([H])([H])C([H])([H])C([H])([H])C([H])(n5nc(-c6c([H])c([H])c(Oc7c([H])c([H])c(F)c([H])c7F)c([H])c6[H])c(C(=O)N([H])[H])c5N([H])[H])C4([H])[H])c3[H])c([H])c([H])c2C1([H])[H]

>  <smiles>  (55) 
[H]c1c([H])c([H])c2c(c1[H])C([H])([H])C([H])([H])C([H])([H])C2([H])N([H])C(=O)C1([H])N(C(=O)C([H])(N([H])C(=O)C([H])(N([H])C([H])([H])[H])C([H])([H])[H])C(C([H])([H])[H])(C([H])([H])[H])C([H])([H])[H])C([H])([H])c2c([H])c(OC([H])([H])C(=O)N([H])C3([H])C(C([H])([H])[H])(C([H])([H])[H])C([H])([H])[N+]([H])(C([H])([H])[H])C3([H])C(=O)n3c([H])c([H])c(N([H])C(=O)N4C([H])([H])C([H])([H])C([H])([H])C([H])(n5nc(-c6c([H])c([H])c(Oc7c([H])c([H])c(F)c([H])c7F)c([H])c6[H])c(C(=O)N([H])[H])c5N([H])[H])C4([H])[H])c3[H])c([H])c([H])c2C1([H])[H]

$$$$
56:0:0
     RDKit          3D

 93101  0  0  1  0  0  0  0  0999 V2000
  -27.2950  -20.7820   19.7530 C   0  0  0  0  0  3  0  0  0  0  0  0
  -26.9240  -19.4190   19.7690 C   0  0  0  0  0  3  0  0  0  0  0  0
  -29.6070  -20.0760   19.9680 C   0  0  0  0  0  3  0  0  0  0  0  0
  -29.2620  -18.6570   19.9630 C   0  0  0  0  0  0  0  0  0  0  0  0
  -28.6470  -21.1690   19.8780 C   0  0  0  0  0  0  0  0  0  0  0  0
  -27.8770  -18.3800   19.8800 C   0  0  0  0  0  0  0  0  0  0  0  0
  -27.4450  -17.1000   19.9100 F   0  0  0  0  0  0  0  0  0  0  0  0
  -28.3000  -23.7590   20.1760 C   0  0  0  0  0  0  0  0  0  0  0  0
  -29.0010  -22.6120   19.7920 N   0  0  0  0  0  0  0  0  0  0  0  0
  -27.3670  -23.6800   20.9750 O   0  0  0  0  0  0  0  0  0  0  0  0
  -29.8630  -22.7990   19.3020 H   0  0  0  0  0  0  0  0  0  0  0  0
  -28.6780  -25.2160   19.6100 C   0  0  0  0  0  2  0  0  0  0  0  0
  -28.4130  -26.4460   20.4330 O   0  0  0  0  0  0  0  0  0  0  0  0
  -24.5760  -31.8930   23.2860 C   0  0  0  0  0  0  0  0  0  0  0  0
  -27.2850  -27.2890   20.3170 C   0  0  0  0  0  0  0  0  0  0  0  0
  -23.4210  -30.4890   21.6120 C   0  0  0  0  0  3  0  0  0  0  0  0
  -24.9130  -28.9210   20.2310 C   0  0  0  0  0  0  0  0  0  0  0  0
  -25.9600  -30.7970   21.4970 C   0  0  0  0  0  2  0  0  0  0  0  0
  -26.0600  -29.4060   20.8730 C   0  0  0  0  0  0  0  0  0  0  0  0
  -27.2370  -28.5910   20.9250 C   0  0  0  0  0  3  0  0  0  0  0  0
  -26.1150  -26.8630   19.6520 C   0  0  0  0  0  3  0  0  0  0  0  0
  -24.9440  -27.6540   19.6190 C   0  0  0  0  0  3  0  0  0  0  0  0
  -23.6780  -29.8040   20.2400 C   0  0  0  0  0  2  0  0  0  0  0  0
  -24.6720  -31.0780   22.1930 N   0  0  0  0  0  0  0  0  0  0  0  0
  -23.4780  -32.1740   23.7890 O   0  0  0  0  0  0  0  0  0  0  0  0
  -22.7250  -29.4820   22.5560 C   0  0  0  0  0  0  0  0  0  0  0  0
  -21.3970  -29.3320   22.4160 N   0  0  0  0  0  0  0  0  0  0  0  0
  -23.3820  -28.8310   23.3720 O   0  0  0  0  0  0  0  0  0  0  0  0
  -20.9190  -29.9190   21.7450 H   0  0  0  0  0  0  0  0  0  0  0  0
  -17.9860  -28.2360   22.8960 C   0  0  0  0  0  0  0  0  0  0  0  0
  -20.5510  -28.4020   23.1680 C   0  0  0  0  0  3  0  0  0  0  0  0
  -20.6060  -26.9820   22.5580 C   0  0  0  0  0  2  0  0  0  0  0  0
  -19.4930  -26.7240   21.5380 C   0  0  0  0  0  2  0  0  0  0  0  0
  -18.1190  -26.8960   22.1900 C   0  0  0  0  0  2  0  0  0  0  0  0
  -19.1300  -28.9490   23.3420 C   0  0  0  0  0  0  0  0  0  0  0  0
  -18.9520  -30.2020   23.9610 C   0  0  0  0  0  3  0  0  0  0  0  0
  -17.6650  -30.7420   24.1430 C   0  0  0  0  0  3  0  0  0  0  0  0
  -16.5370  -30.0230   23.7160 C   0  0  0  0  0  3  0  0  0  0  0  0
  -16.6980  -28.7740   23.0930 C   0  0  0  0  0  3  0  0  0  0  0  0
  -25.8390  -32.5310   23.9440 C   0  0  0  0  0  3  0  0  0  0  0  0
  -26.3000  -31.7740   25.2500 C   0  0  1  0  0  0  0  0  0  0  0  0
  -25.1700  -31.5490   26.2830 C   0  0  0  0  0  1  0  0  0  0  0  0
  -26.8810  -30.3870   24.8930 C   0  0  0  0  0  1  0  0  0  0  0  0
  -27.4310  -32.5630   25.9470 C   0  0  0  0  0  1  0  0  0  0  0  0
  -25.5340  -33.9380   24.2420 N   0  0  0  0  0  0  0  0  0  0  0  0
  -25.9030  -34.9770   23.4810 C   0  0  0  0  0  0  0  0  0  0  0  0
  -26.6100  -34.8510   22.4790 O   0  0  0  0  0  0  0  0  0  0  0  0
  -24.9170  -34.1130   25.0240 H   0  0  0  0  0  0  0  0  0  0  0  0
  -24.2210  -36.7890   23.0230 C   0  0  0  0  0  1  0  0  0  0  0  0
  -25.4150  -36.3790   23.8970 C   0  0  0  0  0  3  0  0  0  0  0  0
  -27.5140  -37.2530   24.8230 C   0  0  0  0  0  1  0  0  0  0  0  0
  -26.4650  -37.4180   23.8220 N   0  0  0  0  0  0  0  0  0  0  0  0
  -26.0640  -38.3450   23.9360 H   0  0  0  0  0  0  0  0  0  0  0  0
  -31.3720  -17.6720   18.8920 C   0  0  0  0  0  1  0  0  0  0  0  0
  -30.3510  -17.4720   20.0420 C   0  0  0  0  0  3  0  0  0  0  0  0
  -30.7110  -14.8100   20.1290 C   0  0  0  0  0  0  0  0  0  0  0  0
  -30.4740  -12.5300   19.1560 C   0  0  0  0  0  2  0  0  0  0  0  0
  -29.5060  -12.6090   17.9560 C   0  0  0  0  0  2  0  0  0  0  0  0
  -28.0520  -12.4220   18.4300 C   0  0  0  0  0  2  0  0  0  0  0  0
  -27.7020  -13.3080   19.6570 C   0  0  0  0  0  3  0  0  0  0  0  0
  -28.7940  -13.2480   20.7450 C   0  0  0  0  0  2  0  0  0  0  0  0
  -30.0690  -13.5940   20.1000 N   0  0  0  0  0  0  0  0  0  0  0  0
  -31.9220  -14.8380   19.9020 O   0  0  0  0  0  0  0  0  0  0  0  0
  -29.9520  -15.9830   20.1620 N   0  0  0  0  0  0  0  0  0  0  0  0
  -28.9560  -15.8430   20.2780 H   0  0  0  0  0  0  0  0  0  0  0  0
  -25.3330  -13.8710   20.4590 C   0  0  0  0  0  0  0  0  0  0  0  0
  -24.2830  -13.0900   20.8460 C   0  0  0  0  0  0  0  0  0  0  0  0
  -24.7490  -11.7430   20.7870 C   0  0  0  0  0  0  0  0  0  0  0  0
  -26.3760  -13.0020   20.1850 N   0  0  0  0  0  0  0  0  0  0  0  0
  -26.0340  -11.7150   20.4450 N   0  0  0  0  0  0  0  0  0  0  0  0
  -24.0250  -10.4800   20.9810 C   0  0  0  0  0  0  0  0  0  0  0  0
  -24.4650   -9.5140   21.9100 C   0  0  0  0  0  3  0  0  0  0  0  0
  -23.7430   -8.3130   22.0860 C   0  0  0  0  0  3  0  0  0  0  0  0
  -22.5670   -8.0740   21.3340 C   0  0  0  0  0  0  0  0  0  0  0  0
  -22.1470   -9.0340   20.3930 C   0  0  0  0  0  3  0  0  0  0  0  0
  -22.8720  -10.2240   20.2120 C   0  0  0  0  0  3  0  0  0  0  0  0
  -21.8120   -6.9300   21.4250 O   0  0  0  0  0  0  0  0  0  0  0  0
  -21.7470   -6.2000   22.5860 C   0  0  0  0  0  0  0  0  0  0  0  0
  -21.2610   -6.7570   23.7930 C   0  0  0  0  0  3  0  0  0  0  0  0
  -21.1410   -5.9530   24.9420 C   0  0  0  0  0  3  0  0  0  0  0  0
  -21.5030   -4.5920   24.8910 C   0  0  0  0  0  0  0  0  0  0  0  0
  -21.9820   -4.0330   23.6910 C   0  0  0  0  0  3  0  0  0  0  0  0
  -22.1010   -4.8360   22.5440 C   0  0  0  0  0  0  0  0  0  0  0  0
  -22.5420   -4.2860   21.3860 F   0  0  0  0  0  0  0  0  0  0  0  0
  -21.3820   -3.8180   25.9940 F   0  0  0  0  0  0  0  0  0  0  0  0
  -22.8920  -13.5630   21.1540 C   0  0  0  0  0  0  0  0  0  0  0  0
  -22.1910  -12.8560   22.0310 N   0  0  0  0  0  0  0  0  0  0  0  0
  -22.4400  -14.5940   20.6550 O   0  0  0  0  0  0  0  0  0  0  0  0
  -22.5870  -12.0310   22.4600 H   0  0  0  0  0  0  0  0  0  0  0  0
  -21.2500  -13.1350   22.2730 H   0  0  0  0  0  0  0  0  0  0  0  0
  -25.4610  -15.2420   20.2960 N   0  0  0  0  0  0  0  0  0  0  0  0
  -24.6700  -15.8570   20.4510 H   0  0  0  0  0  0  0  0  0  0  0  0
  -26.2960  -15.7400   20.0010 H   0  0  0  0  0  0  0  0  0  0  0  0
  1  2  2  0
  1  5  1  0
  2  6  1  0
  4  3  1  0
  4 55  1  0
  5  3  2  0
  6  7  1  0
  6  4  2  0
  8 10  2  0
  9  5  1  0
  9  8  1  0
 11  9  1  0
 12  8  1  0
 12 13  1  0
 14 25  2  0
 15 13  1  0
 15 20  1  0
 16 24  1  0
 16 26  1  0
 17 23  1  0
 17 19  1  0
 18 24  1  0
 19 20  2  0
 19 18  1  0
 21 15  2  0
 22 21  1  0
 22 17  2  0
 23 16  1  0
 24 14  1  0
 26 28  2  0
 27 26  1  0
 29 27  1  0
 30 39  2  0
 30 35  1  0
 31 27  1  0
 31 35  1  0
 32 31  1  0
 33 34  1  0
 33 32  1  0
 34 30  1  0
 35 36  2  0
 36 37  1  0
 38 37  2  0
 39 38  1  0
 40 14  1  0
 40 45  1  0
 40 41  1  0
 41 44  1  1
 41 42  1  0
 43 41  1  0
 45 48  1  0
 46 50  1  0
 46 45  1  0
 47 46  2  0
 50 49  1  0
 52 50  1  0
 52 53  1  0
 52 51  1  0
 55 54  1  0
 55 64  1  0
 56 64  1  0
 57 62  1  0
 58 59  1  0
 58 57  1  0
 60 59  1  0
 60 69  1  0
 60 61  1  0
 62 56  1  0
 62 61  1  0
 63 56  2  0
 64 65  1  0
 66 67  2  0
 67 86  1  0
 68 67  1  0
 68 71  1  0
 69 70  1  0
 69 66  1  0
 70 68  2  0
 71 72  1  0
 72 73  2  0
 74 77  1  0
 74 73  1  0
 75 74  2  0
 76 75  1  0
 76 71  2  0
 77 78  1  0
 78 79  1  0
 79 80  2  0
 81 80  1  0
 81 85  1  0
 82 81  2  0
 83 78  2  0
 83 82  1  0
 84 83  1  0
 86 87  1  0
 87 90  1  0
 87 89  1  0
 88 86  2  0
 91 92  1  0
 91 66  1  0
 93 91  1  0
M  ISO  4  12 101  13 101  56 100  64 100
M  END
>  <TORSDO>  (56) 
F 19

>  <SCORE>  (56) 
-13.889

>  <name>  (56) 
56

>  <ligand_id>  (56) 
56

>  <original_smiles>  (56) 
[H]c1c([H])c([H])c2c(c1[H])C([H])([H])C([H])([H])C([H])([H])C2([H])N([H])C(=O)C1([H])N(C(=O)C([H])(N([H])C(=O)C([H])(N([H])C([H])([H])[H])C([H])([H])[H])C(C([H])([H])[H])(C([H])([H])[H])C([H])([H])[H])C([H])([H])c2c([H])c(OC([H])([H])C(=O)N([H])c3c([H])c([H])c(F)c(C([H])(N([H])C(=O)N4C([H])([H])C([H])([H])C([H])([H])C([H])(n5nc(-c6c([H])c([H])c(Oc7c([H])c([H])c(F)c([H])c7F)c([H])c6[H])c(C(=O)N([H])[H])c5N([H])[H])C4([H])[H])C([H])([H])[H])c3[H])c([H])c([H])c2C1([H])[H]

>  <smiles>  (56) 
[H]c1c([H])c([H])c2c(c1[H])C([H])([H])C([H])([H])C([H])([H])C2([H])N([H])C(=O)C1([H])N(C(=O)C([H])(N([H])C(=O)C([H])(N([H])C([H])([H])[H])C([H])([H])[H])C(C([H])([H])[H])(C([H])([H])[H])C([H])([H])[H])C([H])([H])c2c([H])c(OC([H])([H])C(=O)N([H])c3c([H])c([H])c(F)c(C([H])(N([H])C(=O)N4C([H])([H])C([H])([H])C([H])([H])C([H])(n5nc(-c6c([H])c([H])c(Oc7c([H])c([H])c(F)c([H])c7F)c([H])c6[H])c(C(=O)N([H])[H])c5N([H])[H])C4([H])[H])C([H])([H])[H])c3[H])c([H])c([H])c2C1([H])[H]

$$$$
57:0:0
     RDKit          3D

104113  0  0  1  0  0  0  0  0999 V2000
  -29.5470  -21.9290   21.7380 C   0  0  0  0  0  3  0  0  0  0  0  0
  -31.9460  -22.3060   21.8570 C   0  0  0  0  0  3  0  0  0  0  0  0
  -29.7550  -20.5570   21.9910 C   0  0  0  0  0  3  0  0  0  0  0  0
  -32.1520  -20.9350   22.1090 C   0  0  0  0  0  3  0  0  0  0  0  0
  -30.6420  -22.8150   21.6670 C   0  0  0  0  0  0  0  0  0  0  0  0
  -31.0610  -20.0420   22.1820 C   0  0  0  0  0  0  0  0  0  0  0  0
  -30.4220  -24.3070   21.4070 C   0  0  0  0  0  2  0  0  0  0  0  0
  -31.3390  -23.9020   19.1360 C   0  0  0  0  0  1  0  0  0  0  0  0
  -30.3800  -24.6790   19.9630 N   0  0  2  0  0  4  0  0  0  0  0  0
  -29.4600  -24.4330   19.6270 H   0  0  0  0  0  0  0  0  0  0  0  0
  -30.5430  -26.1420   19.7130 C   0  0  0  0  0  2  0  0  0  0  0  0
  -29.3810  -27.0240   20.2000 C   0  0  0  0  0  2  0  0  0  0  0  0
  -28.1790  -26.6830   19.5100 O   0  0  0  0  0  0  0  0  0  0  0  0
  -24.7810  -31.7200   23.2870 C   0  0  0  0  0  0  0  0  0  0  0  0
  -27.0660  -27.4740   19.7150 C   0  0  0  0  0  0  0  0  0  0  0  0
  -23.4030  -30.4690   21.6510 C   0  0  0  0  0  3  0  0  0  0  0  0
  -24.6970  -28.9980   20.0160 C   0  0  0  0  0  0  0  0  0  0  0  0
  -25.9070  -30.7910   21.2730 C   0  0  0  0  0  2  0  0  0  0  0  0
  -25.9040  -29.4640   20.5490 C   0  0  0  0  0  0  0  0  0  0  0  0
  -27.0830  -28.7090   20.4080 C   0  0  0  0  0  3  0  0  0  0  0  0
  -25.8400  -27.0170   19.1840 C   0  0  0  0  0  3  0  0  0  0  0  0
  -24.6560  -27.7690   19.3330 C   0  0  0  0  0  3  0  0  0  0  0  0
  -23.4830  -29.8780   20.2160 C   0  0  0  0  0  2  0  0  0  0  0  0
  -24.7200  -31.0020   22.1290 N   0  0  0  0  0  0  0  0  0  0  0  0
  -23.7560  -31.9800   23.9330 O   0  0  0  0  0  0  0  0  0  0  0  0
  -22.8000  -29.4010   22.5890 C   0  0  0  0  0  0  0  0  0  0  0  0
  -21.4890  -29.1520   22.4430 N   0  0  0  0  0  0  0  0  0  0  0  0
  -23.5080  -28.7990   23.4010 O   0  0  0  0  0  0  0  0  0  0  0  0
  -20.9790  -29.6960   21.7620 H   0  0  0  0  0  0  0  0  0  0  0  0
  -18.2220  -27.6410   22.7340 C   0  0  0  0  0  0  0  0  0  0  0  0
  -20.7130  -28.1620   23.1860 C   0  0  0  0  0  3  0  0  0  0  0  0
  -20.9990  -26.7310   22.6760 C   0  0  0  0  0  2  0  0  0  0  0  0
  -20.0170  -26.2670   21.5950 C   0  0  0  0  0  2  0  0  0  0  0  0
  -18.5810  -26.2950   22.1290 C   0  0  0  0  0  2  0  0  0  0  0  0
  -19.2250  -28.5250   23.2170 C   0  0  0  0  0  0  0  0  0  0  0  0
  -18.8380  -29.7780   23.7380 C   0  0  0  0  0  3  0  0  0  0  0  0
  -17.4830  -30.1530   23.7850 C   0  0  0  0  0  3  0  0  0  0  0  0
  -16.4940  -29.2680   23.3200 C   0  0  0  0  0  3  0  0  0  0  0  0
  -16.8640  -28.0160   22.8020 C   0  0  0  0  0  3  0  0  0  0  0  0
  -26.1340  -32.2670   23.8440 C   0  0  0  0  0  3  0  0  0  0  0  0
  -26.6920  -31.4310   25.0600 C   0  0  1  0  0  0  0  0  0  0  0  0
  -25.6480  -31.1830   26.1740 C   0  0  0  0  0  1  0  0  0  0  0  0
  -27.2080  -30.0540   24.5810 C   0  0  0  0  0  1  0  0  0  0  0  0
  -27.9000  -32.1630   25.6910 C   0  0  0  0  0  1  0  0  0  0  0  0
  -25.9210  -33.6680   24.2280 N   0  0  0  0  0  0  0  0  0  0  0  0
  -26.2920  -34.7220   23.4890 C   0  0  0  0  0  0  0  0  0  0  0  0
  -26.9230  -34.6130   22.4340 O   0  0  0  0  0  0  0  0  0  0  0  0
  -25.3610  -33.8310   25.0510 H   0  0  0  0  0  0  0  0  0  0  0  0
  -24.6560  -36.6140   23.2480 C   0  0  0  0  0  1  0  0  0  0  0  0
  -25.9010  -36.1210   24.0020 C   0  0  0  0  0  3  0  0  0  0  0  0
  -28.1140  -36.8550   24.7730 C   0  0  0  0  0  1  0  0  0  0  0  0
  -26.9870  -37.1170   23.8800 N   0  0  0  0  0  0  0  0  0  0  0  0
  -26.6420  -38.0530   24.0730 H   0  0  0  0  0  0  0  0  0  0  0  0
  -31.3230  -18.5590   22.4990 C   0  0  0  0  0  3  0  0  0  0  0  0
  -31.3890  -14.3580   19.7500 C   0  0  0  0  0  0  0  0  0  0  0  0
  -30.8370  -12.2360   18.6260 C   0  0  0  0  0  2  0  0  0  0  0  0
  -29.8290  -12.5040   17.4890 C   0  0  0  0  0  2  0  0  0  0  0  0
  -28.3820  -12.4780   18.0230 C   0  0  0  0  0  2  0  0  0  0  0  0
  -28.1960  -13.3470   19.2930 C   0  0  0  0  0  3  0  0  0  0  0  0
  -29.3080  -13.0590   20.3300 C   0  0  0  0  0  2  0  0  0  0  0  0
  -30.6080  -13.2490   19.6640 N   0  0  0  0  0  0  0  0  0  0  0  0
  -32.4930  -14.4500   19.2040 O   0  0  0  0  0  0  0  0  0  0  0  0
  -31.2760  -16.0850   21.5090 C   0  0  0  0  0  2  0  0  0  0  0  0
  -30.3380  -16.5100   19.3640 C   0  0  0  0  0  2  0  0  0  0  0  0
  -31.2100  -17.6080   21.2640 C   0  0  0  0  0  3  0  0  0  0  0  0
  -30.0870  -17.7560   20.2260 C   0  0  0  0  0  3  0  0  0  0  0  0
  -30.7860  -15.4480   20.2770 N   0  0  0  0  0  0  0  0  0  0  0  0
  -25.9400  -14.1620   20.2240 C   0  0  0  0  0  0  0  0  0  0  0  0
  -24.8310  -13.4840   20.6510 C   0  0  0  0  0  0  0  0  0  0  0  0
  -25.1420  -12.0950   20.5230 C   0  0  0  0  0  0  0  0  0  0  0  0
  -26.8620  -13.1910   19.8670 N   0  0  0  0  0  0  0  0  0  0  0  0
  -26.3920  -11.9400   20.1070 N   0  0  0  0  0  0  0  0  0  0  0  0
  -24.3050  -10.9030   20.7150 C   0  0  0  0  0  0  0  0  0  0  0  0
  -24.6900   -9.8720   21.5990 C   0  0  0  0  0  3  0  0  0  0  0  0
  -23.8650   -8.7420   21.7830 C   0  0  0  0  0  3  0  0  0  0  0  0
  -22.6380   -8.6370   21.0840 C   0  0  0  0  0  0  0  0  0  0  0  0
  -22.2690   -9.6570   20.1900 C   0  0  0  0  0  3  0  0  0  0  0  0
  -23.0940  -10.7800   20.0040 C   0  0  0  0  0  3  0  0  0  0  0  0
  -21.7820   -7.5660   21.1850 O   0  0  0  0  0  0  0  0  0  0  0  0
  -21.6640   -6.8460   22.3460 C   0  0  0  0  0  0  0  0  0  0  0  0
  -21.3090   -7.4570   23.5680 C   0  0  0  0  0  3  0  0  0  0  0  0
  -21.1280   -6.6690   24.7220 C   0  0  0  0  0  3  0  0  0  0  0  0
  -21.2890   -5.2720   24.6560 C   0  0  0  0  0  0  0  0  0  0  0  0
  -21.6370   -4.6620   23.4370 C   0  0  0  0  0  3  0  0  0  0  0  0
  -21.8220   -5.4470   22.2850 C   0  0  0  0  0  0  0  0  0  0  0  0
  -22.1330   -4.8520   21.1080 F   0  0  0  0  0  0  0  0  0  0  0  0
  -21.1100   -4.5140   25.7620 F   0  0  0  0  0  0  0  0  0  0  0  0
  -23.5130  -14.0800   21.0520 C   0  0  0  0  0  0  0  0  0  0  0  0
  -22.7950  -13.4420   21.9700 N   0  0  0  0  0  0  0  0  0  0  0  0
  -23.1310  -15.1510   20.5800 O   0  0  0  0  0  0  0  0  0  0  0  0
  -23.1070  -12.5750   22.3840 H   0  0  0  0  0  0  0  0  0  0  0  0
  -21.9080  -13.8280   22.2620 H   0  0  0  0  0  0  0  0  0  0  0  0
  -26.2320  -15.5190   20.0730 N   0  0  0  0  0  0  0  0  0  0  0  0
  -25.4380  -16.1410   20.1790 H   0  0  0  0  0  0  0  0  0  0  0  0
  -26.7810  -15.7670   19.2600 H   0  0  0  0  0  0  0  0  0  0  0  0
  -28.7230  -17.7040   20.7900 N   0  0  0  0  0  4  0  0  0  0  0  0
  -28.4240  -16.7560   20.9480 H   0  0  0  0  0  0  0  0  0  0  0  0
  -28.0600  -18.1480   20.1780 H   0  0  0  0  0  0  0  0  0  0  0  0
  -28.6960  -18.1770   21.6910 H   0  0  0  0  0  0  0  0  0  0  0  0
  -30.5460  -18.1330   23.7620 C   0  0  0  0  0  0  0  0  0  0  0  0
  -31.1740  -18.1980   24.9310 N   0  0  0  0  0  0  0  0  0  0  0  0
  -29.3790  -17.7530   23.6940 O   0  0  0  0  0  0  0  0  0  0  0  0
  -32.1270  -18.5320   24.9870 H   0  0  0  0  0  0  0  0  0  0  0  0
  -30.6970  -17.9310   25.7820 H   0  0  0  0  0  0  0  0  0  0  0  0
  1  3  1  0
  2  4  2  0
  3  6  2  0
  4  6  1  0
  5  1  2  0
  5  2  1  0
  6 54  1  0
  7  5  1  0
  8  9  1  0
  9  7  1  0
  9 10  1  6
 11  9  1  0
 11 12  1  0
 13 15  1  0
 13 12  1  0
 14 25  2  0
 15 20  1  0
 16 24  1  0
 16 26  1  0
 17 23  1  0
 17 19  1  0
 18 24  1  0
 19 18  1  0
 20 19  2  0
 21 22  1  0
 21 15  2  0
 22 17  2  0
 23 16  1  0
 24 14  1  0
 26 28  2  0
 27 26  1  0
 29 27  1  0
 30 39  2  0
 30 35  1  0
 31 27  1  0
 31 35  1  0
 32 31  1  0
 33 34  1  0
 33 32  1  0
 34 30  1  0
 35 36  2  0
 36 37  1  0
 38 37  2  0
 39 38  1  0
 40 14  1  0
 40 45  1  0
 40 41  1  0
 41 44  1  1
 41 42  1  0
 43 41  1  0
 45 48  1  0
 46 50  1  0
 46 45  1  0
 47 46  2  0
 50 49  1  0
 52 50  1  0
 52 53  1  0
 52 51  1  0
 54100  1  0
 55 67  1  0
 56 61  1  0
 57 58  1  0
 57 56  1  0
 59 58  1  0
 59 71  1  0
 59 60  1  0
 61 55  1  0
 61 60  1  0
 62 55  2  0
 64 66  1  0
 64 67  1  0
 65 63  1  0
 65 54  1  0
 66 96  1  0
 66 65  1  0
 67 63  1  0
 68 69  2  0
 69 88  1  0
 70 69  1  0
 70 73  1  0
 71 72  1  0
 71 68  1  0
 72 70  2  0
 73 74  1  0
 74 75  2  0
 76 79  1  0
 76 75  1  0
 77 76  2  0
 78 77  1  0
 78 73  2  0
 79 80  1  0
 80 81  1  0
 81 82  2  0
 83 82  1  0
 83 87  1  0
 84 83  2  0
 85 80  2  0
 85 84  1  0
 86 85  1  0
 88 89  1  0
 89 92  1  0
 89 91  1  0
 90 88  2  0
 93 94  1  0
 93 68  1  0
 95 93  1  0
 96 97  1  0
 96 99  1  0
 98 96  1  0
100101  1  0
101103  1  0
101104  1  0
102100  2  0
M  ISO  4  12 101  13 101  55 100  67 100
M  END
>  <TORSDO>  (57) 
F 23

>  <SCORE>  (57) 
-8.008

>  <name>  (57) 
57

>  <ligand_id>  (57) 
57

>  <original_smiles>  (57) 
[H]c1c([H])c([H])c2c(c1[H])C([H])([H])C([H])([H])C([H])([H])C2([H])N([H])C(=O)C1([H])N(C(=O)C([H])(N([H])C(=O)C([H])(N([H])C([H])([H])[H])C([H])([H])[H])C(C([H])([H])[H])(C([H])([H])[H])C([H])([H])[H])C([H])([H])c2c([H])c(OC([H])([H])C([H])([H])[N+]([H])(C([H])([H])[H])C([H])([H])c3c([H])c([H])c(C([H])(C(=O)N([H])[H])C4([H])C([H])([H])N(C(=O)N5C([H])([H])C([H])([H])C([H])([H])C([H])(n6nc(-c7c([H])c([H])c(Oc8c([H])c([H])c(F)c([H])c8F)c([H])c7[H])c(C(=O)N([H])[H])c6N([H])[H])C5([H])[H])C([H])([H])C4([H])[N+]([H])([H])[H])c([H])c3[H])c([H])c([H])c2C1([H])[H]

>  <smiles>  (57) 
[H]c1c([H])c([H])c2c(c1[H])C([H])([H])C([H])([H])C([H])([H])C2([H])N([H])C(=O)C1([H])N(C(=O)C([H])(N([H])C(=O)C([H])(N([H])C([H])([H])[H])C([H])([H])[H])C(C([H])([H])[H])(C([H])([H])[H])C([H])([H])[H])C([H])([H])c2c([H])c(OC([H])([H])C([H])([H])[N+]([H])(C([H])([H])[H])C([H])([H])c3c([H])c([H])c(C([H])(C(=O)N([H])[H])C4([H])C([H])([H])N(C(=O)N5C([H])([H])C([H])([H])C([H])([H])C([H])(n6nc(-c7c([H])c([H])c(Oc8c([H])c([H])c(F)c([H])c8F)c([H])c7[H])c(C(=O)N([H])[H])c6N([H])[H])C5([H])[H])C([H])([H])C4([H])[N+]([H])([H])[H])c([H])c3[H])c([H])c([H])c2C1([H])[H]

$$$$
58:0:0
     RDKit          3D

 99108  0  0  1  0  0  0  0  0999 V2000
  -28.8900  -21.0430   19.9100 C   0  0  0  0  0  2  0  0  0  0  0  0
  -31.1770  -21.3550   18.8980 C   0  0  0  0  0  2  0  0  0  0  0  0
  -28.4460  -22.3500   19.2200 C   0  0  0  0  0  2  0  0  0  0  0  0
  -30.6770  -22.6740   18.2730 C   0  0  0  0  0  2  0  0  0  0  0  0
  -30.0380  -20.3320   19.1650 C   0  0  0  0  0  3  0  0  0  0  0  0
  -29.5930  -23.2900   19.0830 N   0  0  1  0  0  4  0  0  0  0  0  0
  -29.9740  -23.4060   20.0110 H   0  0  0  0  0  0  0  0  0  0  0  0
  -31.2890  -18.0960   22.0340 C   0  0  0  0  0  3  0  0  0  0  0  0
  -30.9540  -19.2260   21.2720 C   0  0  0  0  0  3  0  0  0  0  0  0
  -30.4000  -17.7890   19.3870 C   0  0  0  0  0  3  0  0  0  0  0  0
  -31.1420  -16.7940   21.5110 C   0  0  0  0  0  0  0  0  0  0  0  0
  -30.5000  -19.0910   19.9430 C   0  0  0  0  0  0  0  0  0  0  0  0
  -30.7070  -16.6360   20.1590 C   0  0  0  0  0  0  0  0  0  0  0  0
  -31.0640  -14.3440   19.1560 C   0  0  0  0  0  0  0  0  0  0  0  0
  -30.6560  -12.0740   18.2460 C   0  0  0  0  0  2  0  0  0  0  0  0
  -29.5440  -12.1670   17.1800 C   0  0  0  0  0  2  0  0  0  0  0  0
  -28.1440  -12.0740   17.8250 C   0  0  0  0  0  2  0  0  0  0  0  0
  -27.9860  -13.0430   19.0300 C   0  0  0  0  0  3  0  0  0  0  0  0
  -29.1860  -12.8880   19.9930 C   0  0  0  0  0  2  0  0  0  0  0  0
  -30.4180  -13.1460   19.2200 N   0  0  0  0  0  0  0  0  0  0  0  0
  -32.1080  -14.5220   18.5170 O   0  0  0  0  0  0  0  0  0  0  0  0
  -30.3290  -15.3450   19.6790 N   0  0  0  0  0  0  0  0  0  0  0  0
  -29.4680  -14.9950   20.0710 H   0  0  0  0  0  0  0  0  0  0  0  0
  -25.8130  -13.8090   20.1790 C   0  0  0  0  0  0  0  0  0  0  0  0
  -24.7570  -13.1070   20.6910 C   0  0  0  0  0  0  0  0  0  0  0  0
  -25.0810  -11.7250   20.5240 C   0  0  0  0  0  0  0  0  0  0  0  0
  -26.7140  -12.8580   19.7220 N   0  0  0  0  0  0  0  0  0  0  0  0
  -26.2870  -11.5970   19.9890 N   0  0  0  0  0  0  0  0  0  0  0  0
  -24.2870  -10.5170   20.7880 C   0  0  0  0  0  0  0  0  0  0  0  0
  -24.7310   -9.5310   21.6960 C   0  0  0  0  0  3  0  0  0  0  0  0
  -23.9460   -8.3860   21.9490 C   0  0  0  0  0  3  0  0  0  0  0  0
  -22.7040   -8.2180   21.2930 C   0  0  0  0  0  0  0  0  0  0  0  0
  -22.2750   -9.1940   20.3740 C   0  0  0  0  0  3  0  0  0  0  0  0
  -23.0600  -10.3310   20.1180 C   0  0  0  0  0  3  0  0  0  0  0  0
  -21.8830   -7.1270   21.4550 O   0  0  0  0  0  0  0  0  0  0  0  0
  -21.7590   -6.4950   22.6670 C   0  0  0  0  0  0  0  0  0  0  0  0
  -21.2880   -7.1690   23.8150 C   0  0  0  0  0  3  0  0  0  0  0  0
  -21.1100   -6.4660   25.0220 C   0  0  0  0  0  3  0  0  0  0  0  0
  -21.3930   -5.0880   25.0820 C   0  0  0  0  0  0  0  0  0  0  0  0
  -21.8540   -4.4110   23.9390 C   0  0  0  0  0  3  0  0  0  0  0  0
  -22.0350   -5.1140   22.7350 C   0  0  0  0  0  0  0  0  0  0  0  0
  -22.4600   -4.4560   21.6300 F   0  0  0  0  0  0  0  0  0  0  0  0
  -21.2140   -4.4080   26.2390 F   0  0  0  0  0  0  0  0  0  0  0  0
  -23.4710  -13.6780   21.2190 C   0  0  0  0  0  0  0  0  0  0  0  0
  -22.9220  -13.0870   22.2760 N   0  0  0  0  0  0  0  0  0  0  0  0
  -22.9670  -14.6840   20.7230 O   0  0  0  0  0  0  0  0  0  0  0  0
  -23.3360  -12.2710   22.7030 H   0  0  0  0  0  0  0  0  0  0  0  0
  -22.0640  -13.4580   22.6650 H   0  0  0  0  0  0  0  0  0  0  0  0
  -26.0750  -15.1680   20.0380 N   0  0  0  0  0  0  0  0  0  0  0  0
  -25.4300  -15.8800   20.3620 H   0  0  0  0  0  0  0  0  0  0  0  0
  -26.8860  -15.5540   19.5740 H   0  0  0  0  0  0  0  0  0  0  0  0
  -31.4510  -15.6250   22.4120 C   0  0  0  0  0  0  0  0  0  0  0  0
  -31.2730  -15.8240   23.7150 N   0  0  0  0  0  0  0  0  0  0  0  0
  -31.8050  -14.5330   21.9700 O   0  0  0  0  0  0  0  0  0  0  0  0
  -30.9550  -16.7210   24.0550 H   0  0  0  0  0  0  0  0  0  0  0  0
  -31.4350  -15.0760   24.3730 H   0  0  0  0  0  0  0  0  0  0  0  0
  -29.2310  -24.6650   18.6160 C   0  0  0  0  0  2  0  0  0  0  0  0
  -27.9890  -25.2690   19.3080 C   0  0  0  0  0  2  0  0  0  0  0  0
  -28.0550  -26.6990   19.2950 O   0  0  0  0  0  0  0  0  0  0  0  0
  -24.4400  -31.7080   22.8320 C   0  0  0  0  0  0  0  0  0  0  0  0
  -26.8720  -27.4060   19.4010 C   0  0  0  0  0  0  0  0  0  0  0  0
  -23.1390  -30.4250   21.1650 C   0  0  0  0  0  3  0  0  0  0  0  0
  -24.5030  -28.9420   19.6070 C   0  0  0  0  0  0  0  0  0  0  0  0
  -25.6660  -30.7470   20.8880 C   0  0  0  0  0  2  0  0  0  0  0  0
  -25.6950  -29.4170   20.1650 C   0  0  0  0  0  0  0  0  0  0  0  0
  -26.8840  -28.6610   20.0520 C   0  0  0  0  0  3  0  0  0  0  0  0
  -25.6520  -26.9340   18.8610 C   0  0  0  0  0  3  0  0  0  0  0  0
  -24.4750  -27.7020   18.9500 C   0  0  0  0  0  3  0  0  0  0  0  0
  -23.2820  -29.8220   19.7430 C   0  0  0  0  0  2  0  0  0  0  0  0
  -24.4340  -30.9730   21.6840 N   0  0  0  0  0  0  0  0  0  0  0  0
  -23.3880  -31.9700   23.4300 O   0  0  0  0  0  0  0  0  0  0  0  0
  -22.5090  -29.3610   22.0950 C   0  0  0  0  0  0  0  0  0  0  0  0
  -21.1710  -29.2560   22.0570 N   0  0  0  0  0  0  0  0  0  0  0  0
  -23.2160  -28.6380   22.8020 O   0  0  0  0  0  0  0  0  0  0  0  0
  -20.6640  -29.8910   21.4570 H   0  0  0  0  0  0  0  0  0  0  0  0
  -17.7750  -28.2670   22.8070 C   0  0  0  0  0  0  0  0  0  0  0  0
  -20.3600  -28.3020   22.8170 C   0  0  0  0  0  3  0  0  0  0  0  0
  -20.2790  -26.9370   22.0940 C   0  0  0  0  0  2  0  0  0  0  0  0
  -19.0540  -26.8080   21.1840 C   0  0  0  0  0  2  0  0  0  0  0  0
  -17.7640  -26.9880   21.9870 C   0  0  0  0  0  2  0  0  0  0  0  0
  -18.9940  -28.8920   23.1860 C   0  0  0  0  0  0  0  0  0  0  0  0
  -18.9460  -30.0960   23.9200 C   0  0  0  0  0  3  0  0  0  0  0  0
  -17.7140  -30.6740   24.2740 C   0  0  0  0  0  3  0  0  0  0  0  0
  -16.5110  -30.0450   23.9110 C   0  0  0  0  0  3  0  0  0  0  0  0
  -16.5430  -28.8400   23.1840 C   0  0  0  0  0  3  0  0  0  0  0  0
  -25.7630  -32.2770   23.4320 C   0  0  0  0  0  3  0  0  0  0  0  0
  -26.3560  -31.3840   24.5920 C   0  0  1  0  0  0  0  0  0  0  0  0
  -25.3200  -31.0070   25.6770 C   0  0  0  0  0  1  0  0  0  0  0  0
  -26.9490  -30.0690   24.0300 C   0  0  0  0  0  1  0  0  0  0  0  0
  -27.5190  -32.1330   25.2870 C   0  0  0  0  0  1  0  0  0  0  0  0
  -25.4790  -33.6360   23.9120 N   0  0  0  0  0  0  0  0  0  0  0  0
  -25.7710  -34.7560   23.2380 C   0  0  0  0  0  0  0  0  0  0  0  0
  -26.3830  -34.7530   22.1670 O   0  0  0  0  0  0  0  0  0  0  0  0
  -24.9260  -33.7100   24.7540 H   0  0  0  0  0  0  0  0  0  0  0  0
  -24.0180  -36.5590   23.1680 C   0  0  0  0  0  1  0  0  0  0  0  0
  -25.3150  -36.0950   23.8510 C   0  0  0  0  0  3  0  0  0  0  0  0
  -27.5010  -36.9210   24.6060 C   0  0  0  0  0  1  0  0  0  0  0  0
  -26.3360  -37.1620   23.7610 N   0  0  0  0  0  0  0  0  0  0  0  0
  -25.9370  -38.0610   24.0190 H   0  0  0  0  0  0  0  0  0  0  0  0
  2  5  1  0
  3  1  1  0
  4  2  1  0
  4  6  1  0
  5  1  1  0
  5 12  1  0
  6  3  1  0
  6  7  1  1
  9  8  2  0
 10 12  2  0
 10 13  1  0
 11  8  1  0
 11 52  1  0
 12  9  1  0
 13 11  2  0
 14 20  1  0
 14 22  1  0
 15 20  1  0
 16 17  1  0
 16 15  1  0
 18 17  1  0
 18 27  1  0
 18 19  1  0
 20 19  1  0
 21 14  2  0
 22 23  1  0
 22 13  1  0
 24 25  2  0
 25 44  1  0
 26 25  1  0
 26 29  1  0
 27 28  1  0
 27 24  1  0
 28 26  2  0
 29 30  1  0
 30 31  2  0
 32 35  1  0
 32 31  1  0
 33 32  2  0
 34 33  1  0
 34 29  2  0
 35 36  1  0
 36 41  2  0
 36 37  1  0
 37 38  2  0
 38 39  1  0
 39 43  1  0
 40 39  2  0
 41 40  1  0
 42 41  1  0
 44 45  1  0
 45 48  1  0
 45 47  1  0
 46 44  2  0
 49 24  1  0
 49 50  1  0
 51 49  1  0
 52 53  1  0
 53 55  1  0
 53 56  1  0
 54 52  2  0
 57  6  1  0
 57 58  1  0
 59 58  1  0
 59 61  1  0
 60 71  2  0
 61 66  1  0
 62 70  1  0
 62 72  1  0
 63 69  1  0
 63 65  1  0
 64 70  1  0
 65 64  1  0
 66 65  2  0
 67 68  1  0
 67 61  2  0
 68 63  2  0
 69 62  1  0
 70 60  1  0
 72 74  2  0
 73 72  1  0
 75 73  1  0
 76 85  2  0
 76 81  1  0
 77 73  1  0
 77 81  1  0
 78 77  1  0
 79 80  1  0
 79 78  1  0
 80 76  1  0
 81 82  2  0
 82 83  1  0
 84 83  2  0
 85 84  1  0
 86 60  1  0
 86 91  1  0
 86 87  1  0
 87 90  1  1
 87 88  1  0
 89 87  1  0
 91 94  1  0
 92 96  1  0
 92 91  1  0
 93 92  2  0
 96 95  1  0
 98 96  1  0
 98 99  1  0
 98 97  1  0
M  ISO  4  14 100  22 100  58 101  59 101
M  END
>  <TORSDO>  (58) 
F 20

>  <SCORE>  (58) 
-9.009

>  <name>  (58) 
58

>  <ligand_id>  (58) 
58

>  <original_smiles>  (58) 
[H]c1c([H])c([H])c2c(c1[H])C([H])([H])C([H])([H])C([H])([H])C2([H])N([H])C(=O)C1([H])N(C(=O)C([H])(N([H])C(=O)C([H])(N([H])C([H])([H])[H])C([H])([H])[H])C(C([H])([H])[H])(C([H])([H])[H])C([H])([H])[H])C([H])([H])c2c([H])c(OC([H])([H])C([H])([H])[N+]3([H])C([H])([H])C([H])([H])C([H])(c4c([H])c([H])c(C(=O)N([H])[H])c(N([H])C(=O)N5C([H])([H])C([H])([H])C([H])([H])C([H])(n6nc(-c7c([H])c([H])c(Oc8c([H])c([H])c(F)c([H])c8F)c([H])c7[H])c(C(=O)N([H])[H])c6N([H])[H])C5([H])[H])c4[H])C([H])([H])C3([H])[H])c([H])c([H])c2C1([H])[H]

>  <smiles>  (58) 
[H]c1c([H])c([H])c2c(c1[H])C([H])([H])C([H])([H])C([H])([H])C2([H])N([H])C(=O)C1([H])N(C(=O)C([H])(N([H])C(=O)C([H])(N([H])C([H])([H])[H])C([H])([H])[H])C(C([H])([H])[H])(C([H])([H])[H])C([H])([H])[H])C([H])([H])c2c([H])c(OC([H])([H])C([H])([H])[N+]3([H])C([H])([H])C([H])([H])C([H])(c4c([H])c([H])c(C(=O)N([H])[H])c(N([H])C(=O)N5C([H])([H])C([H])([H])C([H])([H])C([H])(n6nc(-c7c([H])c([H])c(Oc8c([H])c([H])c(F)c([H])c8F)c([H])c7[H])c(C(=O)N([H])[H])c6N([H])[H])C5([H])[H])c4[H])C([H])([H])C3([H])[H])c([H])c([H])c2C1([H])[H]

$$$$
59:0:0
     RDKit          3D

100108  0  0  1  0  0  0  0  0999 V2000
  -31.1260  -20.2160   20.8700 C   0  0  0  0  0  3  0  0  0  0  0  0
  -31.5670  -21.5110   21.1910 C   0  0  0  0  0  3  0  0  0  0  0  0
  -29.2430  -21.2110   19.7130 C   0  0  0  0  0  3  0  0  0  0  0  0
  -29.9670  -20.0060   20.0990 C   0  0  0  0  0  0  0  0  0  0  0  0
  -30.8940  -22.6740   20.7490 C   0  0  0  0  0  0  0  0  0  0  0  0
  -29.6790  -22.5720   20.0090 C   0  0  0  0  0  0  0  0  0  0  0  0
  -28.9700  -18.4260   18.3430 C   0  0  0  0  0  1  0  0  0  0  0  0
  -28.4030  -18.1480   20.7690 C   0  0  0  0  0  1  0  0  0  0  0  0
  -29.5250  -18.5020   19.7790 C   0  0  2  0  0  0  0  0  0  0  0  0
  -30.6510  -17.3390   19.9050 C   0  0  0  0  0  2  0  0  0  0  0  0
  -30.9830  -14.7570   19.9200 C   0  0  0  0  0  0  0  0  0  0  0  0
  -30.7430  -12.4160   19.1050 C   0  0  0  0  0  2  0  0  0  0  0  0
  -29.7630  -12.4050   17.9120 C   0  0  0  0  0  2  0  0  0  0  0  0
  -28.3090  -12.2730   18.4040 C   0  0  0  0  0  2  0  0  0  0  0  0
  -27.9800  -13.2510   19.5640 C   0  0  0  0  0  3  0  0  0  0  0  0
  -29.0780  -13.2450   20.6500 C   0  0  0  0  0  2  0  0  0  0  0  0
  -30.3530  -13.5370   19.9850 N   0  0  0  0  0  0  0  0  0  0  0  0
  -32.1430  -14.8410   19.5090 O   0  0  0  0  0  0  0  0  0  0  0  0
  -30.2300  -15.8920   20.1220 N   0  0  0  0  0  0  0  0  0  0  0  0
  -29.2800  -15.7460   20.4250 H   0  0  0  0  0  0  0  0  0  0  0  0
  -25.6680  -13.9090   20.4540 C   0  0  0  0  0  0  0  0  0  0  0  0
  -24.5950  -13.1650   20.8620 C   0  0  0  0  0  0  0  0  0  0  0  0
  -24.9980  -11.7980   20.7550 C   0  0  0  0  0  0  0  0  0  0  0  0
  -26.6570  -12.9990   20.1240 N   0  0  0  0  0  0  0  0  0  0  0  0
  -26.2650  -11.7210   20.3650 N   0  0  0  0  0  0  0  0  0  0  0  0
  -24.2340  -10.5590   20.9450 C   0  0  0  0  0  0  0  0  0  0  0  0
  -24.6330   -9.5810   21.8820 C   0  0  0  0  0  3  0  0  0  0  0  0
  -23.8700   -8.4060   22.0610 C   0  0  0  0  0  3  0  0  0  0  0  0
  -22.6940   -8.2020   21.3000 C   0  0  0  0  0  0  0  0  0  0  0  0
  -22.3130   -9.1680   20.3530 C   0  0  0  0  0  3  0  0  0  0  0  0
  -23.0770  -10.3350   20.1720 C   0  0  0  0  0  3  0  0  0  0  0  0
  -21.9030   -7.0820   21.3870 O   0  0  0  0  0  0  0  0  0  0  0  0
  -21.7610   -6.3920   22.5630 C   0  0  0  0  0  0  0  0  0  0  0  0
  -21.2310   -6.9980   23.7240 C   0  0  0  0  0  3  0  0  0  0  0  0
  -21.0370   -6.2330   24.8900 C   0  0  0  0  0  3  0  0  0  0  0  0
  -21.3630   -4.8630   24.8970 C   0  0  0  0  0  0  0  0  0  0  0  0
  -21.8870   -4.2570   23.7420 C   0  0  0  0  0  3  0  0  0  0  0  0
  -22.0810   -5.0190   22.5770 C   0  0  0  0  0  0  0  0  0  0  0  0
  -22.5660   -4.4260   21.4590 F   0  0  0  0  0  0  0  0  0  0  0  0
  -21.1700   -4.1250   26.0160 F   0  0  0  0  0  0  0  0  0  0  0  0
  -23.2380  -13.6850   21.2370 C   0  0  0  0  0  0  0  0  0  0  0  0
  -22.5410  -12.9880   22.1280 N   0  0  0  0  0  0  0  0  0  0  0  0
  -22.8090  -14.7420   20.7760 O   0  0  0  0  0  0  0  0  0  0  0  0
  -22.9040  -12.1310   22.5170 H   0  0  0  0  0  0  0  0  0  0  0  0
  -21.6340  -13.3180   22.4250 H   0  0  0  0  0  0  0  0  0  0  0  0
  -25.8770  -15.2780   20.3130 N   0  0  0  0  0  0  0  0  0  0  0  0
  -25.1420  -15.9540   20.4880 H   0  0  0  0  0  0  0  0  0  0  0  0
  -26.7090  -15.6910   19.9160 H   0  0  0  0  0  0  0  0  0  0  0  0
  -31.5920  -23.9990   21.0440 C   0  0  0  0  0  2  0  0  0  0  0  0
  -32.6260  -24.2640   20.0340 N   0  0  0  0  0  4  0  0  0  0  0  0
  -33.3000  -23.5200   20.0300 H   0  0  0  0  0  0  0  0  0  0  0  0
  -33.1010  -25.1230   20.2420 H   0  0  0  0  0  0  0  0  0  0  0  0
  -32.2240  -24.3320   19.1190 H   0  0  0  0  0  0  0  0  0  0  0  0
  -29.0070  -23.9080   19.4160 C   0  0  0  0  0  3  0  0  0  0  0  0
  -28.1300  -23.5770   18.2730 N   0  0  0  0  0  4  0  0  0  0  0  0
  -27.2830  -23.1300   18.5780 H   0  0  0  0  0  0  0  0  0  0  0  0
  -28.6060  -22.9580   17.6390 H   0  0  0  0  0  0  0  0  0  0  0  0
  -27.8870  -24.4030   17.7550 H   0  0  0  0  0  0  0  0  0  0  0  0
  -28.3320  -25.0370   20.3630 C   0  0  0  0  0  2  0  0  0  0  0  0
  -28.4840  -26.4930   20.0440 O   0  0  0  0  0  0  0  0  0  0  0  0
  -24.5870  -31.7460   23.1760 C   0  0  0  0  0  0  0  0  0  0  0  0
  -27.3540  -27.3290   20.0410 C   0  0  0  0  0  0  0  0  0  0  0  0
  -23.4530  -30.3860   21.4530 C   0  0  0  0  0  3  0  0  0  0  0  0
  -24.9680  -28.9120   20.0140 C   0  0  0  0  0  0  0  0  0  0  0  0
  -25.9880  -30.7580   21.3450 C   0  0  0  0  0  2  0  0  0  0  0  0
  -26.1140  -29.4010   20.6550 C   0  0  0  0  0  0  0  0  0  0  0  0
  -27.3130  -28.6250   20.6530 C   0  0  0  0  0  3  0  0  0  0  0  0
  -26.1860  -26.8970   19.3790 C   0  0  0  0  0  3  0  0  0  0  0  0
  -25.0090  -27.6690   19.3640 C   0  0  0  0  0  3  0  0  0  0  0  0
  -23.7160  -29.7660   20.0570 C   0  0  0  0  0  2  0  0  0  0  0  0
  -24.6940  -30.9780   22.0510 N   0  0  0  0  0  0  0  0  0  0  0  0
  -23.4850  -31.9810   23.6920 O   0  0  0  0  0  0  0  0  0  0  0  0
  -22.7850  -29.3250   22.3610 C   0  0  0  0  0  0  0  0  0  0  0  0
  -21.4570  -29.1630   22.2260 N   0  0  0  0  0  0  0  0  0  0  0  0
  -23.4610  -28.6540   23.1440 O   0  0  0  0  0  0  0  0  0  0  0  0
  -20.9710  -29.7580   21.5700 H   0  0  0  0  0  0  0  0  0  0  0  0
  -18.0630  -28.0030   22.7100 C   0  0  0  0  0  0  0  0  0  0  0  0
  -20.6320  -28.1890   22.9450 C   0  0  0  0  0  3  0  0  0  0  0  0
  -20.6910  -26.8010   22.2680 C   0  0  0  0  0  2  0  0  0  0  0  0
  -19.5640  -26.5730   21.2570 C   0  0  0  0  0  2  0  0  0  0  0  0
  -18.1970  -26.7020   21.9360 C   0  0  0  0  0  2  0  0  0  0  0  0
  -19.2070  -28.7080   23.1700 C   0  0  0  0  0  0  0  0  0  0  0  0
  -19.0300  -29.9300   23.8550 C   0  0  0  0  0  3  0  0  0  0  0  0
  -17.7410  -30.4470   24.0840 C   0  0  0  0  0  3  0  0  0  0  0  0
  -16.6120  -29.7370   23.6420 C   0  0  0  0  0  3  0  0  0  0  0  0
  -16.7730  -28.5160   22.9600 C   0  0  0  0  0  3  0  0  0  0  0  0
  -25.8410  -32.3810   23.8530 C   0  0  0  0  0  3  0  0  0  0  0  0
  -26.3030  -31.6040   25.1470 C   0  0  1  0  0  0  0  0  0  0  0  0
  -25.1620  -31.3530   26.1620 C   0  0  0  0  0  1  0  0  0  0  0  0
  -26.9120  -30.2350   24.7700 C   0  0  0  0  0  1  0  0  0  0  0  0
  -27.4170  -32.4000   25.8670 C   0  0  0  0  0  1  0  0  0  0  0  0
  -25.5150  -33.7770   24.1780 N   0  0  0  0  0  0  0  0  0  0  0  0
  -25.8660  -34.8340   23.4350 C   0  0  0  0  0  0  0  0  0  0  0  0
  -26.5670  -34.7380   22.4250 O   0  0  0  0  0  0  0  0  0  0  0  0
  -24.9010  -33.9260   24.9660 H   0  0  0  0  0  0  0  0  0  0  0  0
  -24.1440  -36.6220   23.0340 C   0  0  0  0  0  1  0  0  0  0  0  0
  -25.3600  -36.2200   23.8840 C   0  0  0  0  0  3  0  0  0  0  0  0
  -27.4580  -37.1160   24.7910 C   0  0  0  0  0  1  0  0  0  0  0  0
  -26.3910  -37.2770   23.8060 N   0  0  0  0  0  0  0  0  0  0  0  0
  -25.9770  -38.1970   23.9360 H   0  0  0  0  0  0  0  0  0  0  0  0
  1  2  1  0
  3  6  2  0
  3  4  1  0
  4  1  2  0
  5 49  1  0
  5  2  2  0
  6  5  1  0
  9  7  1  6
  9 10  1  0
  9  4  1  0
  9  8  1  0
 10 19  1  0
 11 17  1  0
 11 19  1  0
 12 17  1  0
 13 14  1  0
 13 12  1  0
 15 14  1  0
 15 24  1  0
 15 16  1  0
 17 16  1  0
 18 11  2  0
 19 20  1  0
 21 22  2  0
 22 41  1  0
 23 22  1  0
 23 26  1  0
 24 25  1  0
 24 21  1  0
 25 23  2  0
 26 27  1  0
 27 28  2  0
 29 32  1  0
 29 28  1  0
 30 29  2  0
 31 30  1  0
 31 26  2  0
 32 33  1  0
 33 38  2  0
 33 34  1  0
 34 35  2  0
 35 36  1  0
 36 40  1  0
 37 36  2  0
 38 37  1  0
 39 38  1  0
 41 42  1  0
 42 45  1  0
 42 44  1  0
 43 41  2  0
 46 21  1  0
 46 47  1  0
 48 46  1  0
 50 52  1  0
 50 49  1  0
 51 50  1  0
 53 50  1  0
 54  6  1  0
 54 59  1  0
 55 56  1  0
 55 54  1  0
 57 55  1  0
 58 55  1  0
 60 59  1  0
 61 72  2  0
 62 60  1  0
 62 67  1  0
 63 71  1  0
 63 73  1  0
 64 70  1  0
 64 66  1  0
 65 71  1  0
 66 65  1  0
 67 66  2  0
 68 62  2  0
 69 68  1  0
 69 64  2  0
 70 63  1  0
 71 61  1  0
 73 75  2  0
 74 73  1  0
 76 74  1  0
 77 86  2  0
 77 82  1  0
 78 74  1  0
 78 82  1  0
 79 78  1  0
 80 81  1  0
 80 79  1  0
 81 77  1  0
 82 83  2  0
 83 84  1  0
 85 84  2  0
 86 85  1  0
 87 61  1  0
 87 92  1  0
 87 88  1  0
 88 91  1  1
 88 89  1  0
 90 88  1  0
 92 95  1  0
 93 97  1  0
 93 92  1  0
 94 93  2  0
 97 96  1  0
 99 97  1  0
 99100  1  0
 99 98  1  0
M  ISO  4  11 100  19 100  59 101  60 101
M  END
>  <TORSDO>  (59) 
F 23

>  <SCORE>  (59) 
-12.794

>  <name>  (59) 
59

>  <ligand_id>  (59) 
59

>  <original_smiles>  (59) 
[H]c1c([H])c([H])c2c(c1[H])C([H])([H])C([H])([H])C([H])([H])C2([H])N([H])C(=O)C1([H])N(C(=O)C([H])(N([H])C(=O)C([H])(N([H])C([H])([H])[H])C([H])([H])[H])C(C([H])([H])[H])(C([H])([H])[H])C([H])([H])[H])C([H])([H])c2c([H])c(OC([H])([H])C([H])(c3c([H])c(C(C([H])([H])[H])(C([H])([H])[H])C([H])([H])N([H])C(=O)N4C([H])([H])C([H])([H])C([H])([H])C([H])(n5nc(-c6c([H])c([H])c(Oc7c([H])c([H])c(F)c([H])c7F)c([H])c6[H])c(C(=O)N([H])[H])c5N([H])[H])C4([H])[H])c([H])c([H])c3C([H])([H])[N+]([H])([H])[H])[N+]([H])([H])[H])c([H])c([H])c2C1([H])[H]

>  <smiles>  (59) 
[H]c1c([H])c([H])c2c(c1[H])C([H])([H])C([H])([H])C([H])([H])C2([H])N([H])C(=O)C1([H])N(C(=O)C([H])(N([H])C(=O)C([H])(N([H])C([H])([H])[H])C([H])([H])[H])C(C([H])([H])[H])(C([H])([H])[H])C([H])([H])[H])C([H])([H])c2c([H])c(OC([H])([H])C([H])(c3c([H])c(C(C([H])([H])[H])(C([H])([H])[H])C([H])([H])N([H])C(=O)N4C([H])([H])C([H])([H])C([H])([H])C([H])(n5nc(-c6c([H])c([H])c(Oc7c([H])c([H])c(F)c([H])c7F)c([H])c6[H])c(C(=O)N([H])[H])c5N([H])[H])C4([H])[H])c([H])c([H])c3C([H])([H])[N+]([H])([H])[H])[N+]([H])([H])[H])c([H])c([H])c2C1([H])[H]

$$$$
60:0:0
     RDKit          3D

100108  0  0  1  0  0  0  0  0999 V2000
  -30.9100  -22.7120   22.2820 C   0  0  0  0  0  2  0  0  0  0  0  0
  -30.5980  -22.8320   20.7700 C   0  0  0  0  0  2  0  0  0  0  0  0
  -29.6190  -20.6380   20.3550 C   0  0  0  0  0  0  0  0  0  0  0  0
  -31.8630  -21.2120   19.3870 C   0  0  0  0  0  1  0  0  0  0  0  0
  -30.6270  -21.5200   20.1220 N   0  0  0  0  0  0  0  0  0  0  0  0
  -28.6750  -20.8960   21.1150 O   0  0  0  0  0  0  0  0  0  0  0  0
  -29.4790  -17.8790   17.7220 C   0  0  0  0  0  3  0  0  0  0  0  0
  -29.5070  -19.1580   18.3080 C   0  0  0  0  0  3  0  0  0  0  0  0
  -29.6050  -16.7300   18.5290 C   0  0  0  0  0  3  0  0  0  0  0  0
  -29.7500  -18.1360   20.5130 C   0  0  0  0  0  3  0  0  0  0  0  0
  -29.6600  -19.2900   19.7040 C   0  0  0  0  0  0  0  0  0  0  0  0
  -29.7460  -16.8520   19.9330 C   0  0  0  0  0  0  0  0  0  0  0  0
  -30.6110  -14.6660   20.5860 C   0  0  0  0  0  0  0  0  0  0  0  0
  -30.4120  -12.4230   19.6290 C   0  0  0  0  0  2  0  0  0  0  0  0
  -29.5430  -12.5760   18.3640 C   0  0  0  0  0  2  0  0  0  0  0  0
  -28.0440  -12.4570   18.7150 C   0  0  0  0  0  2  0  0  0  0  0  0
  -27.6300  -13.3330   19.9300 C   0  0  0  0  0  3  0  0  0  0  0  0
  -28.6370  -13.1910   21.0960 C   0  0  0  0  0  2  0  0  0  0  0  0
  -29.9880  -13.4610   20.5770 N   0  0  0  0  0  0  0  0  0  0  0  0
  -31.7830  -14.8370   20.2410 O   0  0  0  0  0  0  0  0  0  0  0  0
  -29.7910  -15.7130   20.7780 N   0  0  0  0  0  0  0  0  0  0  0  0
  -28.9300  -15.4920   21.2580 H   0  0  0  0  0  0  0  0  0  0  0  0
  -25.2060  -13.9140   20.5680 C   0  0  0  0  0  0  0  0  0  0  0  0
  -24.1320  -13.1300   20.8980 C   0  0  0  0  0  0  0  0  0  0  0  0
  -24.6050  -11.7830   20.8710 C   0  0  0  0  0  0  0  0  0  0  0  0
  -26.2630  -13.0430   20.3630 N   0  0  0  0  0  0  0  0  0  0  0  0
  -25.9040  -11.7550   20.6050 N   0  0  0  0  0  0  0  0  0  0  0  0
  -23.8850  -10.5130   21.0300 C   0  0  0  0  0  0  0  0  0  0  0  0
  -24.3060   -9.5360   21.9590 C   0  0  0  0  0  3  0  0  0  0  0  0
  -23.5870   -8.3290   22.1010 C   0  0  0  0  0  3  0  0  0  0  0  0
  -22.4350   -8.0910   21.3180 C   0  0  0  0  0  0  0  0  0  0  0  0
  -22.0340   -9.0580   20.3800 C   0  0  0  0  0  3  0  0  0  0  0  0
  -22.7520  -10.2570   20.2320 C   0  0  0  0  0  3  0  0  0  0  0  0
  -21.6870   -6.9400   21.3740 O   0  0  0  0  0  0  0  0  0  0  0  0
  -21.6350   -6.1700   22.5080 C   0  0  0  0  0  0  0  0  0  0  0  0
  -21.1850   -6.6890   23.7410 C   0  0  0  0  0  3  0  0  0  0  0  0
  -21.0800   -5.8440   24.8660 C   0  0  0  0  0  3  0  0  0  0  0  0
  -21.4190   -4.4810   24.7570 C   0  0  0  0  0  0  0  0  0  0  0  0
  -21.8600   -3.9620   23.5290 C   0  0  0  0  0  3  0  0  0  0  0  0
  -21.9680   -4.8040   22.4070 C   0  0  0  0  0  0  0  0  0  0  0  0
  -22.3750   -4.2930   21.2210 F   0  0  0  0  0  0  0  0  0  0  0  0
  -21.3120   -3.6670   25.8340 F   0  0  0  0  0  0  0  0  0  0  0  0
  -22.7230  -13.5960   21.1270 C   0  0  0  0  0  0  0  0  0  0  0  0
  -21.9710  -12.8880   21.9640 N   0  0  0  0  0  0  0  0  0  0  0  0
  -22.2940  -14.6200   20.5980 O   0  0  0  0  0  0  0  0  0  0  0  0
  -22.3300  -12.0610   22.4140 H   0  0  0  0  0  0  0  0  0  0  0  0
  -21.0240  -13.1780   22.1580 H   0  0  0  0  0  0  0  0  0  0  0  0
  -25.3640  -15.2870   20.4070 N   0  0  0  0  0  0  0  0  0  0  0  0
  -24.5890  -15.9340   20.5010 H   0  0  0  0  0  0  0  0  0  0  0  0
  -26.2180  -15.7360   20.0980 H   0  0  0  0  0  0  0  0  0  0  0  0
  -30.5370  -23.9800   23.0420 C   0  0  0  0  0  2  0  0  0  0  0  0
  -29.0720  -24.1880   22.9640 N   0  0  0  0  0  4  0  0  0  0  0  0
  -28.6660  -23.6630   23.7230 H   0  0  0  0  0  0  0  0  0  0  0  0
  -28.7430  -23.7500   22.1160 H   0  0  0  0  0  0  0  0  0  0  0  0
  -27.3440  -25.5880   23.9790 C   0  0  0  0  0  1  0  0  0  0  0  0
  -29.5940  -26.5700   23.6010 C   0  0  0  0  0  1  0  0  0  0  0  0
  -28.5550  -25.5830   23.0170 C   0  0  1  0  0  0  0  0  0  0  0  0
  -28.0510  -26.0290   21.6110 C   0  0  0  0  0  2  0  0  0  0  0  0
  -29.0700  -26.6620   20.6200 C   0  0  0  0  0  2  0  0  0  0  0  0
  -28.4500  -27.0140   19.3790 O   0  0  0  0  0  0  0  0  0  0  0  0
  -24.4850  -31.6990   22.9790 C   0  0  0  0  0  0  0  0  0  0  0  0
  -27.2700  -27.7070   19.4830 C   0  0  0  0  0  0  0  0  0  0  0  0
  -23.3000  -30.3570   21.2680 C   0  0  0  0  0  3  0  0  0  0  0  0
  -24.7870  -29.0220   19.6830 C   0  0  0  0  0  0  0  0  0  0  0  0
  -25.7810  -30.9010   21.0040 C   0  0  0  0  0  2  0  0  0  0  0  0
  -25.9250  -29.5820   20.2750 C   0  0  0  0  0  0  0  0  0  0  0  0
  -27.1710  -28.9290   20.1830 C   0  0  0  0  0  3  0  0  0  0  0  0
  -26.1250  -27.1620   18.8730 C   0  0  0  0  0  3  0  0  0  0  0  0
  -24.8770  -27.8060   18.9790 C   0  0  0  0  0  3  0  0  0  0  0  0
  -23.4960  -29.7930   19.8320 C   0  0  0  0  0  2  0  0  0  0  0  0
  -24.5430  -30.9950   21.8120 N   0  0  0  0  0  0  0  0  0  0  0  0
  -23.4130  -31.8610   23.5760 O   0  0  0  0  0  0  0  0  0  0  0  0
  -22.7480  -29.2290   22.1680 C   0  0  0  0  0  0  0  0  0  0  0  0
  -21.4290  -28.9990   22.0940 N   0  0  0  0  0  0  0  0  0  0  0  0
  -23.5020  -28.5680   22.8890 O   0  0  0  0  0  0  0  0  0  0  0  0
  -20.8770  -29.5980   21.4970 H   0  0  0  0  0  0  0  0  0  0  0  0
  -18.1350  -27.6240   22.6630 C   0  0  0  0  0  0  0  0  0  0  0  0
  -20.6940  -27.9580   22.8140 C   0  0  0  0  0  3  0  0  0  0  0  0
  -20.8080  -26.5930   22.0970 C   0  0  0  0  0  2  0  0  0  0  0  0
  -19.6590  -26.3230   21.1200 C   0  0  0  0  0  2  0  0  0  0  0  0
  -18.3160  -26.3510   21.8530 C   0  0  0  0  0  2  0  0  0  0  0  0
  -19.2500  -28.3870   23.1000 C   0  0  0  0  0  0  0  0  0  0  0  0
  -19.0240  -29.5820   23.8170 C   0  0  0  0  0  3  0  0  0  0  0  0
  -17.7140  -30.0150   24.1010 C   0  0  0  0  0  3  0  0  0  0  0  0
  -16.6150  -29.2490   23.6760 C   0  0  0  0  0  3  0  0  0  0  0  0
  -16.8250  -28.0560   22.9630 C   0  0  0  0  0  3  0  0  0  0  0  0
  -25.7560  -32.3550   23.6070 C   0  0  0  0  0  3  0  0  0  0  0  0
  -25.3980  -33.7200   24.0100 N   0  0  0  0  0  0  0  0  0  0  0  0
  -25.6820  -34.8220   23.3020 C   0  0  0  0  0  0  0  0  0  0  0  0
  -26.3460  -34.7960   22.2620 O   0  0  0  0  0  0  0  0  0  0  0  0
  -24.8080  -33.8090   24.8250 H   0  0  0  0  0  0  0  0  0  0  0  0
  -23.8880  -36.5650   23.0330 C   0  0  0  0  0  1  0  0  0  0  0  0
  -25.1420  -36.1670   23.8300 C   0  0  0  0  0  3  0  0  0  0  0  0
  -27.2420  -37.0830   24.7110 C   0  0  0  0  0  1  0  0  0  0  0  0
  -26.1340  -37.2620   23.7760 N   0  0  0  0  0  0  0  0  0  0  0  0
  -25.6940  -38.1580   23.9650 H   0  0  0  0  0  0  0  0  0  0  0  0
  -26.3360  -31.5430   24.8300 C   0  0  1  0  0  0  0  0  0  0  0  0
  -25.2850  -31.2120   25.9160 C   0  0  0  0  0  1  0  0  0  0  0  0
  -26.9540  -30.2120   24.3440 C   0  0  0  0  0  1  0  0  0  0  0  0
  -27.4750  -32.3430   25.5000 C   0  0  0  0  0  1  0  0  0  0  0  0
  1 51  1  0
  2  1  1  0
  3  6  2  0
  4  5  1  0
  5  3  1  0
  5  2  1  0
  7  8  2  0
  7  9  1  0
  8 11  1  0
  9 12  2  0
 11  3  1  0
 11 10  2  0
 12 10  1  0
 12 21  1  0
 13 21  1  0
 14 19  1  0
 15 16  1  0
 15 14  1  0
 17 16  1  0
 17 26  1  0
 17 18  1  0
 19 13  1  0
 19 18  1  0
 20 13  2  0
 21 22  1  0
 23 24  2  0
 24 43  1  0
 25 24  1  0
 25 28  1  0
 26 23  1  0
 26 27  1  0
 27 25  2  0
 28 29  1  0
 29 30  2  0
 31 34  1  0
 31 30  1  0
 32 31  2  0
 33 32  1  0
 33 28  2  0
 34 35  1  0
 35 36  1  0
 36 37  2  0
 38 37  1  0
 38 42  1  0
 39 38  2  0
 40 35  2  0
 40 39  1  0
 41 40  1  0
 43 44  1  0
 44 47  1  0
 44 46  1  0
 45 43  2  0
 48 49  1  0
 48 23  1  0
 50 48  1  0
 52 57  1  0
 52 51  1  0
 52 53  1  0
 54 52  1  0
 57 56  1  1
 57 55  1  0
 58 57  1  0
 59 58  1  0
 60 62  1  0
 60 59  1  0
 61 72  2  0
 62 67  1  0
 63 71  1  0
 63 73  1  0
 64 70  1  0
 64 66  1  0
 65 71  1  0
 66 65  1  0
 67 66  2  0
 68 69  1  0
 68 62  2  0
 69 64  2  0
 70 63  1  0
 71 61  1  0
 73 75  2  0
 74 73  1  0
 76 74  1  0
 77 86  2  0
 77 82  1  0
 78 74  1  0
 78 82  1  0
 79 78  1  0
 80 81  1  0
 80 79  1  0
 81 77  1  0
 82 83  2  0
 83 84  1  0
 85 84  2  0
 86 85  1  0
 87 61  1  0
 87 88  1  0
 87 97  1  0
 88 91  1  0
 89 93  1  0
 89 88  1  0
 90 89  2  0
 93 92  1  0
 95 93  1  0
 95 96  1  0
 95 94  1  0
 97100  1  1
 97 98  1  0
 99 97  1  0
M  ISO  4  13 100  21 100  59 101  60 101
M  END
>  <TORSDO>  (60) 
F 24

>  <SCORE>  (60) 
-10.975

>  <name>  (60) 
60

>  <ligand_id>  (60) 
60

>  <original_smiles>  (60) 
[H]c1c([H])c(C(=O)N(C([H])([H])[H])C([H])([H])C([H])([H])C([H])([H])[N+]([H])([H])C(C([H])([H])[H])(C([H])([H])[H])C([H])([H])C([H])([H])Oc2c([H])c([H])c3c(c2[H])C([H])([H])N(C(=O)C([H])(N([H])C(=O)C([H])(N([H])C([H])([H])[H])C([H])([H])[H])C(C([H])([H])[H])(C([H])([H])[H])C([H])([H])[H])C([H])(C(=O)N([H])C2([H])c4c([H])c([H])c([H])c([H])c4C([H])([H])C([H])([H])C2([H])[H])C3([H])[H])c([H])c(N([H])C(=O)N2C([H])([H])C([H])([H])C([H])([H])C([H])(n3nc(-c4c([H])c([H])c(Oc5c([H])c([H])c(F)c([H])c5F)c([H])c4[H])c(C(=O)N([H])[H])c3N([H])[H])C2([H])[H])c1[H]

>  <smiles>  (60) 
[H]c1c([H])c(C(=O)N(C([H])([H])[H])C([H])([H])C([H])([H])C([H])([H])[N+]([H])([H])C(C([H])([H])[H])(C([H])([H])[H])C([H])([H])C([H])([H])Oc2c([H])c([H])c3c(c2[H])C([H])([H])N(C(=O)C([H])(N([H])C(=O)C([H])(N([H])C([H])([H])[H])C([H])([H])[H])C(C([H])([H])[H])(C([H])([H])[H])C([H])([H])[H])C([H])(C(=O)N([H])C2([H])c4c([H])c([H])c([H])c([H])c4C([H])([H])C([H])([H])C2([H])[H])C3([H])[H])c([H])c(N([H])C(=O)N2C([H])([H])C([H])([H])C([H])([H])C([H])(n3nc(-c4c([H])c([H])c(Oc5c([H])c([H])c(F)c([H])c5F)c([H])c4[H])c(C(=O)N([H])[H])c3N([H])[H])C2([H])[H])c1[H]

$$$$
61:0:0
     RDKit          3D

 95104  0  0  1  0  0  0  0  0999 V2000
  -28.4690  -18.5860   20.9860 C   0  0  0  0  0  3  0  0  0  0  0  0
  -28.8330  -17.2250   21.0220 C   0  0  0  0  0  3  0  0  0  0  0  0
  -31.1350  -17.8160   20.5160 C   0  0  0  0  0  3  0  0  0  0  0  0
  -29.4300  -19.5910   20.7310 C   0  0  0  0  0  0  0  0  0  0  0  0
  -30.7700  -19.1920   20.4950 C   0  0  0  0  0  0  0  0  0  0  0  0
  -30.1640  -16.8210   20.7870 C   0  0  0  0  0  0  0  0  0  0  0  0
  -29.0370  -21.0600   20.7970 C   0  0  0  0  0  0  0  0  0  0  0  0
  -31.8150  -20.2700   20.2590 C   0  0  0  0  0  2  0  0  0  0  0  0
  -31.1910  -21.5730   19.7100 C   0  0  0  0  0  2  0  0  0  0  0  0
  -29.9600  -21.9800   20.4140 N   0  0  0  0  0  0  0  0  0  0  0  0
  -27.9310  -21.3810   21.2440 O   0  0  0  0  0  0  0  0  0  0  0  0
  -31.0010  -14.5740   20.0560 C   0  0  0  0  0  0  0  0  0  0  0  0
  -30.6590  -12.4010   18.9080 C   0  0  0  0  0  2  0  0  0  0  0  0
  -29.6290  -12.5790   17.7710 C   0  0  0  0  0  2  0  0  0  0  0  0
  -28.1860  -12.4420   18.3010 C   0  0  0  0  0  2  0  0  0  0  0  0
  -27.9350  -13.2960   19.5700 C   0  0  0  0  0  3  0  0  0  0  0  0
  -29.0580  -13.0630   20.6050 C   0  0  0  0  0  2  0  0  0  0  0  0
  -30.3520  -13.3780   19.9650 N   0  0  0  0  0  0  0  0  0  0  0  0
  -32.0130  -14.8450   19.4000 O   0  0  0  0  0  0  0  0  0  0  0  0
  -30.4480  -15.4290   20.9370 N   0  0  0  0  0  0  0  0  0  0  0  0
  -29.7770  -14.9490   21.5200 H   0  0  0  0  0  0  0  0  0  0  0  0
  -25.6170  -13.9350   20.4950 C   0  0  0  0  0  0  0  0  0  0  0  0
  -24.5600  -13.1740   20.9150 C   0  0  0  0  0  0  0  0  0  0  0  0
  -24.9750  -11.8130   20.7780 C   0  0  0  0  0  0  0  0  0  0  0  0
  -26.6130  -13.0380   20.1390 N   0  0  0  0  0  0  0  0  0  0  0  0
  -26.2330  -11.7550   20.3640 N   0  0  0  0  0  0  0  0  0  0  0  0
  -24.2280  -10.5630   20.9650 C   0  0  0  0  0  0  0  0  0  0  0  0
  -24.6480   -9.5840   21.8920 C   0  0  0  0  0  3  0  0  0  0  0  0
  -23.9040   -8.3980   22.0680 C   0  0  0  0  0  3  0  0  0  0  0  0
  -22.7250   -8.1820   21.3170 C   0  0  0  0  0  0  0  0  0  0  0  0
  -22.3230   -9.1480   20.3780 C   0  0  0  0  0  3  0  0  0  0  0  0
  -23.0690  -10.3260   20.2000 C   0  0  0  0  0  3  0  0  0  0  0  0
  -21.9520   -7.0490   21.4000 O   0  0  0  0  0  0  0  0  0  0  0  0
  -21.8140   -6.3590   22.5770 C   0  0  0  0  0  0  0  0  0  0  0  0
  -21.2700   -6.9560   23.7360 C   0  0  0  0  0  3  0  0  0  0  0  0
  -21.0830   -6.1900   24.9020 C   0  0  0  0  0  3  0  0  0  0  0  0
  -21.4310   -4.8260   24.9120 C   0  0  0  0  0  0  0  0  0  0  0  0
  -21.9680   -4.2270   23.7600 C   0  0  0  0  0  3  0  0  0  0  0  0
  -22.1570   -4.9910   22.5950 C   0  0  0  0  0  0  0  0  0  0  0  0
  -22.6550   -4.4040   21.4800 F   0  0  0  0  0  0  0  0  0  0  0  0
  -21.2440   -4.0880   26.0320 F   0  0  0  0  0  0  0  0  0  0  0  0
  -23.2040  -13.6730   21.3270 C   0  0  0  0  0  0  0  0  0  0  0  0
  -22.5380  -12.9610   22.2290 N   0  0  0  0  0  0  0  0  0  0  0  0
  -22.7490  -14.7280   20.8850 O   0  0  0  0  0  0  0  0  0  0  0  0
  -22.9190  -12.1060   22.6050 H   0  0  0  0  0  0  0  0  0  0  0  0
  -21.6320  -13.2740   22.5470 H   0  0  0  0  0  0  0  0  0  0  0  0
  -25.8070  -15.3070   20.3680 N   0  0  0  0  0  0  0  0  0  0  0  0
  -25.0620  -15.9690   20.5600 H   0  0  0  0  0  0  0  0  0  0  0  0
  -26.6270  -15.7380   19.9630 H   0  0  0  0  0  0  0  0  0  0  0  0
  -29.8630  -23.4080   20.8210 C   0  0  0  0  0  2  0  0  0  0  0  0
  -29.1340  -24.3690   19.8330 C   0  0  0  0  0  3  0  0  0  0  0  0
  -30.0640  -24.6360   18.7940 O   0  0  0  0  0  0  0  0  0  0  0  0
  -30.1840  -23.8300   18.3020 H   0  0  0  0  0  0  0  0  0  0  0  0
  -28.7740  -25.7390   20.4950 C   0  0  0  0  0  2  0  0  0  0  0  0
  -28.4510  -26.7650   19.5410 O   0  0  0  0  0  0  0  0  0  0  0  0
  -24.5100  -31.6330   23.0120 C   0  0  0  0  0  0  0  0  0  0  0  0
  -27.2550  -27.4320   19.6910 C   0  0  0  0  0  0  0  0  0  0  0  0
  -23.3250  -30.2740   21.3160 C   0  0  0  0  0  3  0  0  0  0  0  0
  -24.8090  -28.8500   19.8040 C   0  0  0  0  0  0  0  0  0  0  0  0
  -25.8330  -30.7280   21.1000 C   0  0  0  0  0  2  0  0  0  0  0  0
  -25.9560  -29.3880   20.4010 C   0  0  0  0  0  0  0  0  0  0  0  0
  -27.1840  -28.6860   20.3410 C   0  0  0  0  0  3  0  0  0  0  0  0
  -26.0940  -26.9050   19.0940 C   0  0  0  0  0  3  0  0  0  0  0  0
  -24.8720  -27.6060   19.1480 C   0  0  0  0  0  3  0  0  0  0  0  0
  -23.5370  -29.6610   19.9040 C   0  0  0  0  0  2  0  0  0  0  0  0
  -24.5750  -30.8920   21.8680 N   0  0  0  0  0  0  0  0  0  0  0  0
  -23.4290  -31.8400   23.5810 O   0  0  0  0  0  0  0  0  0  0  0  0
  -22.7190  -29.1900   22.2360 C   0  0  0  0  0  0  0  0  0  0  0  0
  -21.3960  -28.9850   22.1320 N   0  0  0  0  0  0  0  0  0  0  0  0
  -23.4370  -28.5360   22.9960 O   0  0  0  0  0  0  0  0  0  0  0  0
  -20.8740  -29.5660   21.4900 H   0  0  0  0  0  0  0  0  0  0  0  0
  -18.0640  -27.6920   22.6540 C   0  0  0  0  0  0  0  0  0  0  0  0
  -20.6230  -27.9870   22.8700 C   0  0  0  0  0  3  0  0  0  0  0  0
  -20.7370  -26.5950   22.2060 C   0  0  0  0  0  2  0  0  0  0  0  0
  -19.6130  -26.3090   21.2070 C   0  0  0  0  0  2  0  0  0  0  0  0
  -18.2470  -26.3890   21.8950 C   0  0  0  0  0  2  0  0  0  0  0  0
  -19.1800  -28.4490   23.0990 C   0  0  0  0  0  0  0  0  0  0  0  0
  -18.9560  -29.6700   23.7700 C   0  0  0  0  0  3  0  0  0  0  0  0
  -17.6470  -30.1370   23.9990 C   0  0  0  0  0  3  0  0  0  0  0  0
  -16.5450  -29.3760   23.5710 C   0  0  0  0  0  3  0  0  0  0  0  0
  -16.7550  -28.1540   22.9080 C   0  0  0  0  0  3  0  0  0  0  0  0
  -25.7840  -32.2750   23.6440 C   0  0  0  0  0  3  0  0  0  0  0  0
  -26.3440  -31.4630   24.8750 C   0  0  1  0  0  0  0  0  0  0  0  0
  -25.2770  -31.1510   25.9500 C   0  0  0  0  0  1  0  0  0  0  0  0
  -26.9480  -30.1180   24.4110 C   0  0  0  0  0  1  0  0  0  0  0  0
  -27.4850  -32.2580   25.5510 C   0  0  0  0  0  1  0  0  0  0  0  0
  -25.4420  -33.6480   24.0370 N   0  0  0  0  0  0  0  0  0  0  0  0
  -25.7500  -34.7410   23.3260 C   0  0  0  0  0  0  0  0  0  0  0  0
  -26.4210  -34.7000   22.2920 O   0  0  0  0  0  0  0  0  0  0  0  0
  -24.8480  -33.7530   24.8470 H   0  0  0  0  0  0  0  0  0  0  0  0
  -23.9830  -36.5070   23.0410 C   0  0  0  0  0  1  0  0  0  0  0  0
  -25.2270  -36.0950   23.8450 C   0  0  0  0  0  3  0  0  0  0  0  0
  -27.3260  -36.9950   24.7440 C   0  0  0  0  0  1  0  0  0  0  0  0
  -26.2350  -37.1760   23.7900 N   0  0  0  0  0  0  0  0  0  0  0  0
  -25.8030  -38.0780   23.9700 H   0  0  0  0  0  0  0  0  0  0  0  0
  1  2  1  0
  3  6  1  0
  4  7  1  0
  4  1  2  0
  5  3  2  0
  5  4  1  0
  6 20  1  0
  6  2  2  0
  7 11  2  0
  8  5  1  0
  9  8  1  0
  9 10  1  0
 10  7  1  0
 10 50  1  0
 12 20  1  0
 13 18  1  0
 14 15  1  0
 14 13  1  0
 16 15  1  0
 16 25  1  0
 16 17  1  0
 18 12  1  0
 18 17  1  0
 19 12  2  0
 20 21  1  0
 22 23  2  0
 23 42  1  0
 24 23  1  0
 24 27  1  0
 25 26  1  0
 25 22  1  0
 26 24  2  0
 27 28  1  0
 28 29  2  0
 30 33  1  0
 30 29  1  0
 31 30  2  0
 32 31  1  0
 32 27  2  0
 33 34  1  0
 34 39  2  0
 34 35  1  0
 35 36  2  0
 36 37  1  0
 37 41  1  0
 38 37  2  0
 39 38  1  0
 40 39  1  0
 42 43  1  0
 43 46  1  0
 43 45  1  0
 44 42  2  0
 47 22  1  0
 47 48  1  0
 49 47  1  0
 51 54  1  0
 51 50  1  0
 52 51  1  0
 53 52  1  0
 55 57  1  0
 55 54  1  0
 56 67  2  0
 57 62  1  0
 58 66  1  0
 58 68  1  0
 59 65  1  0
 59 61  1  0
 60 66  1  0
 61 60  1  0
 62 61  2  0
 63 64  1  0
 63 57  2  0
 64 59  2  0
 65 58  1  0
 66 56  1  0
 68 70  2  0
 69 68  1  0
 71 69  1  0
 72 81  2  0
 72 77  1  0
 73 69  1  0
 73 77  1  0
 74 73  1  0
 75 76  1  0
 75 74  1  0
 76 72  1  0
 77 78  2  0
 78 79  1  0
 80 79  2  0
 81 80  1  0
 82 56  1  0
 82 87  1  0
 82 83  1  0
 83 86  1  1
 83 84  1  0
 85 83  1  0
 87 90  1  0
 88 92  1  0
 88 87  1  0
 89 88  2  0
 92 91  1  0
 94 92  1  0
 94 95  1  0
 94 93  1  0
M  ISO  4  12 100  20 100  54 101  55 101
M  END
>  <TORSDO>  (61) 
F 20

>  <SCORE>  (61) 
-13.040

>  <name>  (61) 
61

>  <ligand_id>  (61) 
61

>  <original_smiles>  (61) 
[H]OC([H])(C([H])([H])Oc1c([H])c([H])c2c(c1[H])C([H])([H])N(C(=O)C([H])(N([H])C(=O)C([H])(N([H])C([H])([H])[H])C([H])([H])[H])C(C([H])([H])[H])(C([H])([H])[H])C([H])([H])[H])C([H])(C(=O)N([H])C1([H])c3c([H])c([H])c([H])c([H])c3C([H])([H])C([H])([H])C1([H])[H])C2([H])[H])C([H])([H])N1C(=O)c2c([H])c([H])c(N([H])C(=O)N3C([H])([H])C([H])([H])C([H])([H])C([H])(n4nc(-c5c([H])c([H])c(Oc6c([H])c([H])c(F)c([H])c6F)c([H])c5[H])c(C(=O)N([H])[H])c4N([H])[H])C3([H])[H])c([H])c2C([H])([H])C1([H])[H]

>  <smiles>  (61) 
[H]OC([H])(C([H])([H])Oc1c([H])c([H])c2c(c1[H])C([H])([H])N(C(=O)C([H])(N([H])C(=O)C([H])(N([H])C([H])([H])[H])C([H])([H])[H])C(C([H])([H])[H])(C([H])([H])[H])C([H])([H])[H])C([H])(C(=O)N([H])C1([H])c3c([H])c([H])c([H])c([H])c3C([H])([H])C([H])([H])C1([H])[H])C2([H])[H])C([H])([H])N1C(=O)c2c([H])c([H])c(N([H])C(=O)N3C([H])([H])C([H])([H])C([H])([H])C([H])(n4nc(-c5c([H])c([H])c(Oc6c([H])c([H])c(F)c([H])c6F)c([H])c5[H])c(C(=O)N([H])[H])c4N([H])[H])C3([H])[H])c([H])c2C([H])([H])C1([H])[H]

$$$$
62:0:0
     RDKit          3D

103112  0  0  1  0  0  0  0  0999 V2000
  -30.4120  -22.4170   17.9610 C   0  0  0  0  0  2  0  0  0  0  0  0
  -30.7840  -21.0600   18.5750 C   0  0  0  0  0  2  0  0  0  0  0  0
  -29.6440  -21.9250   20.7200 C   0  0  0  0  0  2  0  0  0  0  0  0
  -31.1200  -23.6080   18.6270 C   0  0  0  0  0  2  0  0  0  0  0  0
  -30.1660  -23.3630   20.9500 C   0  0  0  0  0  2  0  0  0  0  0  0
  -30.7070  -20.9860   20.1170 C   0  0  0  0  0  3  0  0  0  0  0  0
  -30.3350  -24.2220   19.7390 N   0  0  1  0  0  4  0  0  0  0  0  0
  -29.4050  -24.3980   19.3940 H   0  0  0  0  0  0  0  0  0  0  0  0
  -29.3060  -18.8840   20.2510 C   0  0  0  0  0  3  0  0  0  0  0  0
  -29.1290  -17.5120   20.5010 C   0  0  0  0  0  3  0  0  0  0  0  0
  -31.3810  -17.3980   21.4260 C   0  0  0  0  0  3  0  0  0  0  0  0
  -31.5590  -18.7760   21.1960 C   0  0  0  0  0  0  0  0  0  0  0  0
  -30.5280  -19.5270   20.5570 C   0  0  0  0  0  0  0  0  0  0  0  0
  -30.1830  -16.7590   21.0490 C   0  0  0  0  0  0  0  0  0  0  0  0
  -30.6760  -14.4470   20.5040 C   0  0  0  0  0  0  0  0  0  0  0  0
  -30.3560  -12.3360   19.2740 C   0  0  0  0  0  2  0  0  0  0  0  0
  -29.4080  -12.5990   18.0860 C   0  0  0  0  0  2  0  0  0  0  0  0
  -27.9330  -12.4710   18.5230 C   0  0  0  0  0  2  0  0  0  0  0  0
  -27.6170  -13.2630   19.8190 C   0  0  0  0  0  3  0  0  0  0  0  0
  -28.6750  -12.9720   20.9060 C   0  0  0  0  0  2  0  0  0  0  0  0
  -30.0040  -13.2800   20.3440 N   0  0  0  0  0  0  0  0  0  0  0  0
  -31.7690  -14.6840   19.9740 O   0  0  0  0  0  0  0  0  0  0  0  0
  -30.0140  -15.3680   21.2170 N   0  0  0  0  0  0  0  0  0  0  0  0
  -29.1120  -15.0560   21.5460 H   0  0  0  0  0  0  0  0  0  0  0  0
  -25.2200  -13.8620   20.5580 C   0  0  0  0  0  0  0  0  0  0  0  0
  -24.1550  -13.0840   20.9260 C   0  0  0  0  0  0  0  0  0  0  0  0
  -24.6170  -11.7330   20.8710 C   0  0  0  0  0  0  0  0  0  0  0  0
  -26.2630  -12.9860   20.3020 N   0  0  0  0  0  0  0  0  0  0  0  0
  -25.9020  -11.7000   20.5460 N   0  0  0  0  0  0  0  0  0  0  0  0
  -23.8930  -10.4670   21.0540 C   0  0  0  0  0  0  0  0  0  0  0  0
  -24.3310   -9.4930   21.9800 C   0  0  0  0  0  3  0  0  0  0  0  0
  -23.6090   -8.2920   22.1530 C   0  0  0  0  0  3  0  0  0  0  0  0
  -22.4330   -8.0580   21.4000 C   0  0  0  0  0  0  0  0  0  0  0  0
  -22.0100   -9.0220   20.4680 C   0  0  0  0  0  3  0  0  0  0  0  0
  -22.7330  -10.2130   20.2930 C   0  0  0  0  0  3  0  0  0  0  0  0
  -21.6860   -6.9060   21.4810 O   0  0  0  0  0  0  0  0  0  0  0  0
  -21.6520   -6.1490   22.6230 C   0  0  0  0  0  0  0  0  0  0  0  0
  -21.2260   -6.6830   23.8590 C   0  0  0  0  0  3  0  0  0  0  0  0
  -21.1380   -5.8520   24.9920 C   0  0  0  0  0  3  0  0  0  0  0  0
  -21.4640   -4.4860   24.8920 C   0  0  0  0  0  0  0  0  0  0  0  0
  -21.8870   -3.9520   23.6620 C   0  0  0  0  0  3  0  0  0  0  0  0
  -21.9780   -4.7800   22.5310 C   0  0  0  0  0  0  0  0  0  0  0  0
  -22.3630   -4.2560   21.3410 F   0  0  0  0  0  0  0  0  0  0  0  0
  -21.3750   -3.6850   25.9780 F   0  0  0  0  0  0  0  0  0  0  0  0
  -22.7600  -13.5580   21.2190 C   0  0  0  0  0  0  0  0  0  0  0  0
  -22.0370  -12.8480   22.0760 N   0  0  0  0  0  0  0  0  0  0  0  0
  -22.3170  -14.5920   20.7230 O   0  0  0  0  0  0  0  0  0  0  0  0
  -22.4050  -12.0120   22.5020 H   0  0  0  0  0  0  0  0  0  0  0  0
  -21.1020  -13.1480   22.3140 H   0  0  0  0  0  0  0  0  0  0  0  0
  -25.3790  -15.2340   20.3930 N   0  0  0  0  0  0  0  0  0  0  0  0
  -24.6040  -15.8780   20.4970 H   0  0  0  0  0  0  0  0  0  0  0  0
  -26.2110  -15.6660   20.0140 H   0  0  0  0  0  0  0  0  0  0  0  0
  -32.8450  -19.3940   21.6460 C   0  0  0  0  0  0  0  0  0  0  0  0
  -32.7840  -19.9840   22.8310 N   0  0  0  0  0  0  0  0  0  0  0  0
  -33.8660  -19.3490   20.9650 O   0  0  0  0  0  0  0  0  0  0  0  0
  -31.9110  -19.9720   23.3420 H   0  0  0  0  0  0  0  0  0  0  0  0
  -33.6010  -20.4110   23.2390 H   0  0  0  0  0  0  0  0  0  0  0  0
  -30.8910  -25.5480   20.1390 C   0  0  0  0  0  2  0  0  0  0  0  0
  -30.5910  -26.7130   19.1570 C   0  0  0  0  0  3  0  0  0  0  0  0
  -31.1700  -27.9110   19.6580 O   0  0  0  0  0  0  0  0  0  0  0  0
  -30.6970  -28.1610   20.4460 H   0  0  0  0  0  0  0  0  0  0  0  0
  -29.0940  -26.9690   18.8860 C   0  0  0  0  0  2  0  0  0  0  0  0
  -28.3600  -26.8230   20.0930 O   0  0  0  0  0  0  0  0  0  0  0  0
  -24.5110  -31.8860   23.2380 C   0  0  0  0  0  0  0  0  0  0  0  0
  -27.1820  -27.5210   20.1140 C   0  0  0  0  0  0  0  0  0  0  0  0
  -23.3070  -30.4920   21.5830 C   0  0  0  0  0  3  0  0  0  0  0  0
  -24.7670  -28.9710   20.1480 C   0  0  0  0  0  0  0  0  0  0  0  0
  -25.8240  -30.8740   21.3830 C   0  0  0  0  0  2  0  0  0  0  0  0
  -25.9160  -29.5060   20.7440 C   0  0  0  0  0  0  0  0  0  0  0  0
  -27.1260  -28.7830   20.7360 C   0  0  0  0  0  3  0  0  0  0  0  0
  -26.0220  -26.9800   19.5240 C   0  0  0  0  0  3  0  0  0  0  0  0
  -24.8110  -27.7010   19.5400 C   0  0  0  0  0  3  0  0  0  0  0  0
  -23.5180  -29.8190   20.1990 C   0  0  0  0  0  2  0  0  0  0  0  0
  -24.5660  -31.0970   22.1290 N   0  0  0  0  0  0  0  0  0  0  0  0
  -23.4300  -32.1510   23.7840 O   0  0  0  0  0  0  0  0  0  0  0  0
  -22.6590  -29.4620   22.5370 C   0  0  0  0  0  0  0  0  0  0  0  0
  -21.3360  -29.2850   22.4150 N   0  0  0  0  0  0  0  0  0  0  0  0
  -23.3490  -28.8260   23.3400 O   0  0  0  0  0  0  0  0  0  0  0  0
  -20.8430  -29.8510   21.7370 H   0  0  0  0  0  0  0  0  0  0  0  0
  -17.9600  -28.1070   22.9210 C   0  0  0  0  0  0  0  0  0  0  0  0
  -20.5200  -28.3410   23.1770 C   0  0  0  0  0  3  0  0  0  0  0  0
  -20.6080  -26.9190   22.5790 C   0  0  0  0  0  2  0  0  0  0  0  0
  -19.4970  -26.6200   21.5670 C   0  0  0  0  0  2  0  0  0  0  0  0
  -18.1210  -26.7670   22.2270 C   0  0  0  0  0  2  0  0  0  0  0  0
  -19.0880  -28.8540   23.3540 C   0  0  0  0  0  0  0  0  0  0  0  0
  -18.8850  -30.1100   23.9650 C   0  0  0  0  0  3  0  0  0  0  0  0
  -17.5860  -30.6220   24.1460 C   0  0  0  0  0  3  0  0  0  0  0  0
  -16.4720  -29.8710   23.7300 C   0  0  0  0  0  3  0  0  0  0  0  0
  -16.6610  -28.6160   23.1240 C   0  0  0  0  0  3  0  0  0  0  0  0
  -25.7980  -32.5140   23.8600 C   0  0  0  0  0  3  0  0  0  0  0  0
  -25.4960  -33.9150   24.1810 N   0  0  0  0  0  0  0  0  0  0  0  0
  -25.8450  -34.9610   23.4190 C   0  0  0  0  0  0  0  0  0  0  0  0
  -26.5260  -34.8480   22.3960 O   0  0  0  0  0  0  0  0  0  0  0  0
  -24.8870  -34.0770   24.9700 H   0  0  0  0  0  0  0  0  0  0  0  0
  -24.1350  -36.7640   23.0300 C   0  0  0  0  0  1  0  0  0  0  0  0
  -25.3600  -36.3540   23.8630 C   0  0  0  0  0  3  0  0  0  0  0  0
  -27.4880  -37.2240   24.7240 C   0  0  0  0  0  1  0  0  0  0  0  0
  -26.4020  -37.3980   23.7640 N   0  0  0  0  0  0  0  0  0  0  0  0
  -26.0020  -38.3220   23.9020 H   0  0  0  0  0  0  0  0  0  0  0  0
  -26.3100  -31.7450   25.1390 C   0  0  1  0  0  0  0  0  0  0  0  0
  -25.2130  -31.5140   26.2050 C   0  0  0  0  0  1  0  0  0  0  0  0
  -26.8900  -30.3650   24.7480 C   0  0  0  0  0  1  0  0  0  0  0  0
  -27.4610  -32.5370   25.8040 C   0  0  0  0  0  1  0  0  0  0  0  0
  1  2  1  0
  1  4  1  0
  2  6  1  0
  3  5  1  0
  4  7  1  0
  6 13  1  0
  6  3  1  0
  7 58  1  0
  7  5  1  0
  7  8  1  6
  9 10  2  0
  9 13  1  0
 10 14  1  0
 12 11  1  0
 12 53  1  0
 13 12  2  0
 14 23  1  0
 14 11  2  0
 15 23  1  0
 16 21  1  0
 17 18  1  0
 17 16  1  0
 19 18  1  0
 19 28  1  0
 19 20  1  0
 21 15  1  0
 21 20  1  0
 22 15  2  0
 23 24  1  0
 25 26  2  0
 26 45  1  0
 27 26  1  0
 27 30  1  0
 28 29  1  0
 28 25  1  0
 29 27  2  0
 30 31  1  0
 31 32  2  0
 33 36  1  0
 33 32  1  0
 34 33  2  0
 35 34  1  0
 35 30  2  0
 36 37  1  0
 37 38  1  0
 38 39  2  0
 40 39  1  0
 40 44  1  0
 41 40  2  0
 42 37  2  0
 42 41  1  0
 43 42  1  0
 45 46  1  0
 46 49  1  0
 46 48  1  0
 47 45  2  0
 50 51  1  0
 50 25  1  0
 52 50  1  0
 53 54  1  0
 54 57  1  0
 54 56  1  0
 55 53  2  0
 59 62  1  0
 59 60  1  0
 59 58  1  0
 60 61  1  0
 62 63  1  0
 63 65  1  0
 64 75  2  0
 65 70  1  0
 66 74  1  0
 66 76  1  0
 67 73  1  0
 67 69  1  0
 68 74  1  0
 69 68  1  0
 70 69  2  0
 71 72  1  0
 71 65  2  0
 72 67  2  0
 73 66  1  0
 74 64  1  0
 76 78  2  0
 77 76  1  0
 79 77  1  0
 80 89  2  0
 80 85  1  0
 81 77  1  0
 81 85  1  0
 82 81  1  0
 83 84  1  0
 83 82  1  0
 84 80  1  0
 85 86  2  0
 86 87  1  0
 88 87  2  0
 89 88  1  0
 90 64  1  0
 90 91  1  0
 90100  1  0
 91 94  1  0
 92 96  1  0
 92 91  1  0
 93 92  2  0
 96 95  1  0
 98 96  1  0
 98 99  1  0
 98 97  1  0
100103  1  1
100101  1  0
102100  1  0
M  ISO  4  15 100  23 100  62 101  63 101
M  END
>  <TORSDO>  (62) 
F 22

>  <SCORE>  (62) 
-13.981

>  <name>  (62) 
62

>  <ligand_id>  (62) 
62

>  <original_smiles>  (62) 
[H]OC([H])(C([H])([H])Oc1c([H])c([H])c2c(c1[H])C([H])([H])N(C(=O)C([H])(N([H])C(=O)C([H])(N([H])C([H])([H])[H])C([H])([H])[H])C(C([H])([H])[H])(C([H])([H])[H])C([H])([H])[H])C([H])(C(=O)N([H])C1([H])c3c([H])c([H])c([H])c([H])c3C([H])([H])C([H])([H])C1([H])[H])C2([H])[H])C([H])([H])[N+]1([H])C([H])([H])C([H])([H])C([H])([H])C([H])(c2c([H])c([H])c(N([H])C(=O)N3C([H])([H])C([H])([H])C([H])([H])C([H])(n4nc(-c5c([H])c([H])c(Oc6c([H])c([H])c(F)c([H])c6F)c([H])c5[H])c(C(=O)N([H])[H])c4N([H])[H])C3([H])[H])c([H])c2C(=O)N([H])[H])C([H])([H])C1([H])[H]

>  <smiles>  (62) 
[H]OC([H])(C([H])([H])Oc1c([H])c([H])c2c(c1[H])C([H])([H])N(C(=O)C([H])(N([H])C(=O)C([H])(N([H])C([H])([H])[H])C([H])([H])[H])C(C([H])([H])[H])(C([H])([H])[H])C([H])([H])[H])C([H])(C(=O)N([H])C1([H])c3c([H])c([H])c([H])c([H])c3C([H])([H])C([H])([H])C1([H])[H])C2([H])[H])C([H])([H])[N+]1([H])C([H])([H])C([H])([H])C([H])([H])C([H])(c2c([H])c([H])c(N([H])C(=O)N3C([H])([H])C([H])([H])C([H])([H])C([H])(n4nc(-c5c([H])c([H])c(Oc6c([H])c([H])c(F)c([H])c6F)c([H])c5[H])c(C(=O)N([H])[H])c4N([H])[H])C3([H])[H])c([H])c2C(=O)N([H])[H])C([H])([H])C1([H])[H]

$$$$
63:0:0
     RDKit          3D

 94102  0  0  1  0  0  0  0  0999 V2000
  -30.3230  -19.5280   19.5790 C   0  0  0  0  0  3  0  0  0  0  0  0
  -30.3330  -18.0920   19.5770 C   0  0  0  0  0  3  0  0  0  0  0  0
  -31.0010  -18.1150   21.8780 C   0  0  0  0  0  3  0  0  0  0  0  0
  -30.6830  -20.3070   20.7190 C   0  0  0  0  0  0  0  0  0  0  0  0
  -30.6850  -17.3400   20.7310 C   0  0  0  0  0  0  0  0  0  0  0  0
  -31.0280  -19.5480   21.8890 C   0  0  0  0  0  0  0  0  0  0  0  0
  -31.3810  -14.8370   20.3950 C   0  0  0  0  0  0  0  0  0  0  0  0
  -31.1830  -12.5510   19.4190 C   0  0  0  0  0  2  0  0  0  0  0  0
  -30.2480  -12.6220   18.1900 C   0  0  0  0  0  2  0  0  0  0  0  0
  -28.7670  -12.5050   18.6030 C   0  0  0  0  0  2  0  0  0  0  0  0
  -28.4080  -13.4280   19.7990 C   0  0  0  0  0  3  0  0  0  0  0  0
  -29.4480  -13.2920   20.9340 C   0  0  0  0  0  2  0  0  0  0  0  0
  -30.7700  -13.6080   20.3670 N   0  0  0  0  0  0  0  0  0  0  0  0
  -32.5220  -14.9970   19.9460 O   0  0  0  0  0  0  0  0  0  0  0  0
  -30.6100  -15.8770   20.8560 N   0  0  0  0  0  0  0  0  0  0  0  0
  -29.7910  -15.5480   21.3430 H   0  0  0  0  0  0  0  0  0  0  0  0
  -26.0410  -14.1170   20.5270 C   0  0  0  0  0  0  0  0  0  0  0  0
  -24.9400  -13.3840   20.8800 C   0  0  0  0  0  0  0  0  0  0  0  0
  -25.3400  -12.0140   20.8130 C   0  0  0  0  0  0  0  0  0  0  0  0
  -27.0460  -13.1950   20.2740 N   0  0  0  0  0  0  0  0  0  0  0  0
  -26.6280  -11.9250   20.5030 N   0  0  0  0  0  0  0  0  0  0  0  0
  -24.5580  -10.7810   20.9750 C   0  0  0  0  0  0  0  0  0  0  0  0
  -24.9360   -9.7830   21.8980 C   0  0  0  0  0  3  0  0  0  0  0  0
  -24.1590   -8.6140   22.0460 C   0  0  0  0  0  3  0  0  0  0  0  0
  -22.9880   -8.4380   21.2730 C   0  0  0  0  0  0  0  0  0  0  0  0
  -22.6280   -9.4250   20.3380 C   0  0  0  0  0  3  0  0  0  0  0  0
  -23.4060  -10.5860   20.1880 C   0  0  0  0  0  3  0  0  0  0  0  0
  -22.1850   -7.3240   21.3310 O   0  0  0  0  0  0  0  0  0  0  0  0
  -22.0270   -6.6110   22.4920 C   0  0  0  0  0  0  0  0  0  0  0  0
  -21.5240   -7.2060   23.6700 C   0  0  0  0  0  3  0  0  0  0  0  0
  -21.3120   -6.4210   24.8200 C   0  0  0  0  0  3  0  0  0  0  0  0
  -21.5910   -5.0420   24.7930 C   0  0  0  0  0  0  0  0  0  0  0  0
  -22.0860   -4.4470   23.6200 C   0  0  0  0  0  3  0  0  0  0  0  0
  -22.3010   -5.2290   22.4720 C   0  0  0  0  0  0  0  0  0  0  0  0
  -22.7570   -4.6450   21.3380 F   0  0  0  0  0  0  0  0  0  0  0  0
  -21.3800   -4.2860   25.8960 F   0  0  0  0  0  0  0  0  0  0  0  0
  -23.5650  -13.9160   21.1680 C   0  0  0  0  0  0  0  0  0  0  0  0
  -22.8200  -13.2490   22.0400 N   0  0  0  0  0  0  0  0  0  0  0  0
  -23.1640  -14.9600   20.6520 O   0  0  0  0  0  0  0  0  0  0  0  0
  -23.1570  -12.4050   22.4780 H   0  0  0  0  0  0  0  0  0  0  0  0
  -21.8980  -13.5880   22.2740 H   0  0  0  0  0  0  0  0  0  0  0  0
  -26.2700  -15.4820   20.3850 N   0  0  0  0  0  0  0  0  0  0  0  0
  -25.5340  -16.1700   20.5080 H   0  0  0  0  0  0  0  0  0  0  0  0
  -27.1400  -15.8890   20.0650 H   0  0  0  0  0  0  0  0  0  0  0  0
  -30.9020  -21.8450   20.6320 C   0  0  0  0  0  0  0  0  0  0  0  0
  -29.8840  -22.7610   20.5060 N   0  0  0  0  0  0  0  0  0  0  0  0
  -32.0640  -22.2490   20.7140 O   0  0  0  0  0  0  0  0  0  0  0  0
  -28.9540  -22.3860   20.3930 H   0  0  0  0  0  0  0  0  0  0  0  0
  -29.9940  -24.2450   20.8330 C   0  0  0  0  0  3  0  0  0  0  0  0
  -29.3860  -25.3420   19.8500 C   0  0  0  0  0  3  0  0  0  0  0  0
  -29.1770  -26.7140   20.3910 O   0  0  0  0  0  0  0  0  0  0  0  0
  -24.8550  -31.6430   23.3980 C   0  0  0  0  0  0  0  0  0  0  0  0
  -27.9710  -27.4330   20.3020 C   0  0  0  0  0  0  0  0  0  0  0  0
  -23.8510  -30.2440   21.6310 C   0  0  0  0  0  3  0  0  0  0  0  0
  -25.4890  -28.8700   20.2290 C   0  0  0  0  0  0  0  0  0  0  0  0
  -26.3680  -30.7510   21.6110 C   0  0  0  0  0  2  0  0  0  0  0  0
  -26.5840  -29.4140   20.9120 C   0  0  0  0  0  0  0  0  0  0  0  0
  -27.8230  -28.7070   20.9380 C   0  0  0  0  0  3  0  0  0  0  0  0
  -26.8450  -26.9400   19.6040 C   0  0  0  0  0  3  0  0  0  0  0  0
  -25.6220  -27.6370   19.5710 C   0  0  0  0  0  3  0  0  0  0  0  0
  -24.1900  -29.6490   20.2370 C   0  0  0  0  0  2  0  0  0  0  0  0
  -25.0390  -30.8950   22.2710 N   0  0  0  0  0  0  0  0  0  0  0  0
  -23.7250  -31.8220   23.8770 O   0  0  0  0  0  0  0  0  0  0  0  0
  -23.2100  -29.1390   22.5040 C   0  0  0  0  0  0  0  0  0  0  0  0
  -21.9210  -28.8500   22.2630 N   0  0  0  0  0  0  0  0  0  0  0  0
  -23.8770  -28.5430   23.3550 O   0  0  0  0  0  0  0  0  0  0  0  0
  -21.4430  -29.3810   21.5500 H   0  0  0  0  0  0  0  0  0  0  0  0
  -18.6530  -27.3110   22.3920 C   0  0  0  0  0  0  0  0  0  0  0  0
  -21.1280  -27.8190   22.9360 C   0  0  0  0  0  3  0  0  0  0  0  0
  -21.4390  -26.4190   22.3580 C   0  0  0  0  0  2  0  0  0  0  0  0
  -20.4880  -26.0090   21.2300 C   0  0  0  0  0  2  0  0  0  0  0  0
  -19.0380  -26.0000   21.7250 C   0  0  0  0  0  2  0  0  0  0  0  0
  -19.6370  -28.1730   22.9450 C   0  0  0  0  0  0  0  0  0  0  0  0
  -19.2290  -29.3950   23.5200 C   0  0  0  0  0  3  0  0  0  0  0  0
  -17.8690  -29.7570   23.5560 C   0  0  0  0  0  3  0  0  0  0  0  0
  -16.8970  -28.8900   23.0240 C   0  0  0  0  0  3  0  0  0  0  0  0
  -17.2900  -27.6700   22.4460 C   0  0  0  0  0  3  0  0  0  0  0  0
  -26.0530  -32.3290   24.1240 C   0  0  0  0  0  3  0  0  0  0  0  0
  -26.4570  -31.6120   25.4720 C   0  0  1  0  0  0  0  0  0  0  0  0
  -25.2680  -31.3940   26.4350 C   0  0  0  0  0  1  0  0  0  0  0  0
  -27.0980  -30.2330   25.1900 C   0  0  0  0  0  1  0  0  0  0  0  0
  -27.5220  -32.4530   26.2150 C   0  0  0  0  0  1  0  0  0  0  0  0
  -25.6760  -33.7270   24.3750 N   0  0  0  0  0  0  0  0  0  0  0  0
  -26.0420  -34.7650   23.6090 C   0  0  0  0  0  0  0  0  0  0  0  0
  -26.8000  -34.6490   22.6430 O   0  0  0  0  0  0  0  0  0  0  0  0
  -25.0040  -33.8880   25.1110 H   0  0  0  0  0  0  0  0  0  0  0  0
  -24.2840  -36.4790   23.0690 C   0  0  0  0  0  1  0  0  0  0  0  0
  -25.4780  -36.1500   23.9770 C   0  0  0  0  0  3  0  0  0  0  0  0
  -27.5150  -37.1450   24.9210 C   0  0  0  0  0  1  0  0  0  0  0  0
  -26.4790  -37.2330   23.8950 N   0  0  0  0  0  0  0  0  0  0  0  0
  -26.0310  -38.1420   23.9780 H   0  0  0  0  0  0  0  0  0  0  0  0
  -30.7470  -19.7460   24.2850 C   0  0  0  0  0  1  0  0  0  0  0  0
  -32.8860  -20.3100   23.1780 C   0  0  0  0  0  1  0  0  0  0  0  0
  -31.4340  -20.1950   23.0750 N   0  0  0  0  0  0  0  0  0  0  0  0
  1  4  1  0
  2  1  2  0
  2  5  1  0
  3  6  1  0
  4  6  2  0
  5 15  1  0
  5  3  2  0
  6 94  1  0
  7 15  1  0
  8 13  1  0
  9 10  1  0
  9  8  1  0
 11 10  1  0
 11 20  1  0
 11 12  1  0
 13  7  1  0
 13 12  1  0
 14  7  2  0
 15 16  1  0
 17 18  2  0
 18 37  1  0
 19 18  1  0
 19 22  1  0
 20 21  1  0
 20 17  1  0
 21 19  2  0
 22 23  1  0
 23 24  2  0
 25 28  1  0
 25 24  1  0
 26 25  2  0
 27 26  1  0
 27 22  2  0
 28 29  1  0
 29 30  1  0
 30 31  2  0
 32 31  1  0
 32 36  1  0
 33 32  2  0
 34 29  2  0
 34 33  1  0
 35 34  1  0
 37 38  1  0
 38 41  1  0
 38 40  1  0
 39 37  2  0
 42 43  1  0
 42 17  1  0
 44 42  1  0
 45 47  2  0
 45  4  1  0
 46 45  1  0
 46 49  1  0
 48 46  1  0
 50 51  1  0
 50 49  2  0
 52 63  2  0
 53 51  1  0
 53 58  1  0
 54 62  1  0
 54 64  1  0
 55 61  1  0
 55 57  1  0
 56 62  1  0
 57 58  2  0
 57 56  1  0
 59 53  2  0
 60 59  1  0
 60 55  2  0
 61 54  1  0
 62 52  1  0
 64 66  2  0
 65 64  1  0
 67 65  1  0
 68 77  2  0
 68 73  1  0
 69 65  1  0
 69 73  1  0
 70 69  1  0
 71 72  1  0
 71 70  1  0
 72 68  1  0
 73 74  2  0
 74 75  1  0
 76 75  2  0
 77 76  1  0
 78 52  1  0
 78 83  1  0
 78 79  1  0
 79 82  1  1
 79 80  1  0
 81 79  1  0
 83 86  1  0
 84 88  1  0
 84 83  1  0
 85 84  2  0
 88 87  1  0
 90 88  1  0
 90 91  1  0
 90 89  1  0
 94 93  1  0
 94 92  1  0
M  ISO  4   7 100  15 100  50 101  51 101
M  END
>  <TORSDO>  (63) 
F 20

>  <SCORE>  (63) 
-12.324

>  <name>  (63) 
63

>  <ligand_id>  (63) 
63

>  <original_smiles>  (63) 
[H]c1c([H])c([H])c2c(c1[H])C([H])([H])C([H])([H])C([H])([H])C2([H])N([H])C(=O)C1([H])N(C(=O)C([H])(N([H])C(=O)C([H])(N([H])C([H])([H])[H])C([H])([H])[H])C(C([H])([H])[H])(C([H])([H])[H])C([H])([H])[H])C([H])([H])c2c([H])c(OC([H])([H])C([H])([H])N([H])C(=O)c3c([H])c([H])c(N([H])C(=O)N4C([H])([H])C([H])([H])C([H])([H])C([H])(n5nc(-c6c([H])c([H])c(Oc7c([H])c([H])c(F)c([H])c7F)c([H])c6[H])c(C(=O)N([H])[H])c5N([H])[H])C4([H])[H])c([H])c3N(C([H])([H])[H])C([H])([H])[H])c([H])c([H])c2C1([H])[H]

>  <smiles>  (63) 
[H]c1c([H])c([H])c2c(c1[H])C([H])([H])C([H])([H])C([H])([H])C2([H])N([H])C(=O)C1([H])N(C(=O)C([H])(N([H])C(=O)C([H])(N([H])C([H])([H])[H])C([H])([H])[H])C(C([H])([H])[H])(C([H])([H])[H])C([H])([H])[H])C([H])([H])c2c([H])c(OC([H])([H])C([H])([H])N([H])C(=O)c3c([H])c([H])c(N([H])C(=O)N4C([H])([H])C([H])([H])C([H])([H])C([H])(n5nc(-c6c([H])c([H])c(Oc7c([H])c([H])c(F)c([H])c7F)c([H])c6[H])c(C(=O)N([H])[H])c5N([H])[H])C4([H])[H])c([H])c3N(C([H])([H])[H])C([H])([H])[H])c([H])c([H])c2C1([H])[H]

$$$$
64:0:0
     RDKit          3D

 92100  0  0  1  0  0  0  0  0999 V2000
  -29.0400  -21.2740   19.8340 C   0  0  0  0  0  0  0  0  0  0  0  0
  -28.8750  -22.5210   21.9860 C   0  0  0  0  0  1  0  0  0  0  0  0
  -28.8620  -22.4830   20.5210 N   0  0  0  0  0  0  0  0  0  0  0  0
  -28.6870  -21.1900   18.6540 O   0  0  0  0  0  0  0  0  0  0  0  0
  -30.8960  -20.1780   21.2360 C   0  0  0  0  0  3  0  0  0  0  0  0
  -29.4100  -18.6270   20.0980 C   0  0  0  0  0  3  0  0  0  0  0  0
  -31.3120  -17.7540   21.3420 C   0  0  0  0  0  3  0  0  0  0  0  0
  -29.7430  -20.0090   20.4350 C   0  0  0  0  0  0  0  0  0  0  0  0
  -31.6520  -19.0780   21.6990 C   0  0  0  0  0  0  0  0  0  0  0  0
  -30.1890  -17.4730   20.5330 C   0  0  0  0  0  0  0  0  0  0  0  0
  -32.8570  -19.3210   22.5870 C   0  0  0  0  0  1  0  0  0  0  0  0
  -30.6470  -14.9220   20.1460 C   0  0  0  0  0  0  0  0  0  0  0  0
  -30.4480  -12.6360   19.1450 C   0  0  0  0  0  2  0  0  0  0  0  0
  -29.4710  -12.6700   17.9500 C   0  0  0  0  0  2  0  0  0  0  0  0
  -28.0180  -12.4810   18.4270 C   0  0  0  0  0  2  0  0  0  0  0  0
  -27.6630  -13.3880   19.6350 C   0  0  0  0  0  3  0  0  0  0  0  0
  -28.7530  -13.3360   20.7260 C   0  0  0  0  0  2  0  0  0  0  0  0
  -30.0240  -13.6960   20.0860 N   0  0  0  0  0  0  0  0  0  0  0  0
  -31.8380  -15.0180   19.8350 O   0  0  0  0  0  0  0  0  0  0  0  0
  -29.8470  -16.0510   20.2710 N   0  0  0  0  0  0  0  0  0  0  0  0
  -28.8600  -15.8540   20.2270 H   0  0  0  0  0  0  0  0  0  0  0  0
  -25.2990  -13.9680   20.4470 C   0  0  0  0  0  0  0  0  0  0  0  0
  -24.2470  -13.1880   20.8410 C   0  0  0  0  0  0  0  0  0  0  0  0
  -24.7110  -11.8390   20.7800 C   0  0  0  0  0  0  0  0  0  0  0  0
  -26.3370  -13.0930   20.1670 N   0  0  0  0  0  0  0  0  0  0  0  0
  -25.9920  -11.8070   20.4330 N   0  0  0  0  0  0  0  0  0  0  0  0
  -23.9940  -10.5730   20.9770 C   0  0  0  0  0  0  0  0  0  0  0  0
  -24.4410   -9.6060   21.9040 C   0  0  0  0  0  3  0  0  0  0  0  0
  -23.7240   -8.4050   22.0890 C   0  0  0  0  0  3  0  0  0  0  0  0
  -22.5440   -8.1620   21.3470 C   0  0  0  0  0  0  0  0  0  0  0  0
  -22.1150   -9.1170   20.4090 C   0  0  0  0  0  3  0  0  0  0  0  0
  -22.8320  -10.3100   20.2220 C   0  0  0  0  0  3  0  0  0  0  0  0
  -21.7960   -7.0130   21.4430 O   0  0  0  0  0  0  0  0  0  0  0  0
  -21.7480   -6.2800   22.6010 C   0  0  0  0  0  0  0  0  0  0  0  0
  -21.2780   -6.8310   23.8130 C   0  0  0  0  0  3  0  0  0  0  0  0
  -21.1790   -6.0220   24.9620 C   0  0  0  0  0  3  0  0  0  0  0  0
  -21.5400   -4.6620   24.9010 C   0  0  0  0  0  0  0  0  0  0  0  0
  -22.0040   -4.1110   23.6930 C   0  0  0  0  0  3  0  0  0  0  0  0
  -22.1050   -4.9170   22.5460 C   0  0  0  0  0  0  0  0  0  0  0  0
  -22.5310   -4.3750   21.3790 F   0  0  0  0  0  0  0  0  0  0  0  0
  -21.4390   -3.8830   26.0020 F   0  0  0  0  0  0  0  0  0  0  0  0
  -22.8580  -13.6590   21.1580 C   0  0  0  0  0  0  0  0  0  0  0  0
  -22.1550  -12.9500   22.0330 N   0  0  0  0  0  0  0  0  0  0  0  0
  -22.4050  -14.6920   20.6650 O   0  0  0  0  0  0  0  0  0  0  0  0
  -22.5350  -12.1150   22.4530 H   0  0  0  0  0  0  0  0  0  0  0  0
  -21.2240  -13.2470   22.2880 H   0  0  0  0  0  0  0  0  0  0  0  0
  -25.4520  -15.3410   20.2770 N   0  0  0  0  0  0  0  0  0  0  0  0
  -24.6800  -15.9850   20.4080 H   0  0  0  0  0  0  0  0  0  0  0  0
  -26.2750  -15.7880   19.8940 H   0  0  0  0  0  0  0  0  0  0  0  0
  -28.6060  -23.8480   19.8430 C   0  0  0  0  0  3  0  0  0  0  0  0
  -28.0900  -25.1520   20.6700 C   0  0  0  0  0  3  0  0  0  0  0  0
  -28.2350  -26.5530   20.1510 O   0  0  0  0  0  0  0  0  0  0  0  0
  -24.5630  -31.9870   23.2790 C   0  0  0  0  0  0  0  0  0  0  0  0
  -27.1240  -27.4220   20.1700 C   0  0  0  0  0  0  0  0  0  0  0  0
  -23.3370  -30.6070   21.6390 C   0  0  0  0  0  3  0  0  0  0  0  0
  -24.7670  -29.0580   20.1860 C   0  0  0  0  0  0  0  0  0  0  0  0
  -25.8760  -30.9180   21.4270 C   0  0  0  0  0  2  0  0  0  0  0  0
  -25.9450  -29.5390   20.7710 C   0  0  0  0  0  0  0  0  0  0  0  0
  -27.1300  -28.7350   20.7470 C   0  0  0  0  0  3  0  0  0  0  0  0
  -25.9240  -26.9990   19.5640 C   0  0  0  0  0  3  0  0  0  0  0  0
  -24.7590  -27.7950   19.5730 C   0  0  0  0  0  3  0  0  0  0  0  0
  -23.5340  -29.9390   20.2530 C   0  0  0  0  0  2  0  0  0  0  0  0
  -24.6120  -31.1900   22.1710 N   0  0  0  0  0  0  0  0  0  0  0  0
  -23.4870  -32.2620   23.8300 O   0  0  0  0  0  0  0  0  0  0  0  0
  -22.6820  -29.5860   22.6000 C   0  0  0  0  0  0  0  0  0  0  0  0
  -21.3560  -29.3970   22.4750 N   0  0  0  0  0  0  0  0  0  0  0  0
  -23.3650  -28.9660   23.4190 O   0  0  0  0  0  0  0  0  0  0  0  0
  -20.8620  -29.9510   21.7890 H   0  0  0  0  0  0  0  0  0  0  0  0
  -17.9940  -28.1500   22.9590 C   0  0  0  0  0  0  0  0  0  0  0  0
  -20.5470  -28.4510   23.2450 C   0  0  0  0  0  3  0  0  0  0  0  0
  -20.6730  -27.0170   22.6760 C   0  0  0  0  0  2  0  0  0  0  0  0
  -19.5840  -26.6730   21.6550 C   0  0  0  0  0  2  0  0  0  0  0  0
  -18.1960  -26.8020   22.2890 C   0  0  0  0  0  2  0  0  0  0  0  0
  -19.0990  -28.9310   23.3920 C   0  0  0  0  0  0  0  0  0  0  0  0
  -18.8560  -30.1940   23.9770 C   0  0  0  0  0  3  0  0  0  0  0  0
  -17.5420  -30.6750   24.1340 C   0  0  0  0  0  3  0  0  0  0  0  0
  -16.4530  -29.8910   23.7150 C   0  0  0  0  0  3  0  0  0  0  0  0
  -16.6800  -28.6310   23.1330 C   0  0  0  0  0  3  0  0  0  0  0  0
  -25.8530  -32.6140   23.8940 C   0  0  0  0  0  3  0  0  0  0  0  0
  -26.3630  -31.8500   25.1780 C   0  0  1  0  0  0  0  0  0  0  0  0
  -25.2670  -31.6290   26.2470 C   0  0  0  0  0  1  0  0  0  0  0  0
  -26.9370  -30.4650   24.7990 C   0  0  0  0  0  1  0  0  0  0  0  0
  -27.5180  -32.6430   25.8350 C   0  0  0  0  0  1  0  0  0  0  0  0
  -25.5610  -34.0190   24.2120 N   0  0  0  0  0  0  0  0  0  0  0  0
  -25.9100  -35.0620   23.4480 C   0  0  0  0  0  0  0  0  0  0  0  0
  -26.5820  -34.9420   22.4200 O   0  0  0  0  0  0  0  0  0  0  0  0
  -24.9650  -34.1860   25.0100 H   0  0  0  0  0  0  0  0  0  0  0  0
  -24.2160  -36.8840   23.0680 C   0  0  0  0  0  1  0  0  0  0  0  0
  -25.4410  -36.4600   23.8950 C   0  0  0  0  0  3  0  0  0  0  0  0
  -27.5780  -37.3150   24.7520 C   0  0  0  0  0  1  0  0  0  0  0  0
  -26.4920  -37.4960   23.7910 N   0  0  0  0  0  0  0  0  0  0  0  0
  -26.1000  -38.4230   23.9260 H   0  0  0  0  0  0  0  0  0  0  0  0
  1  8  1  0
  1  3  1  0
  3  2  1  0
  4  1  2  0
  5  9  1  0
  6  8  1  0
  6 10  2  0
  7  9  2  0
  8  5  2  0
  9 11  1  0
 10  7  1  0
 12 20  1  0
 13 18  1  0
 14 15  1  0
 14 13  1  0
 16 15  1  0
 16 25  1  0
 16 17  1  0
 18 12  1  0
 18 17  1  0
 19 12  2  0
 20 10  1  0
 21 20  1  0
 22 23  2  0
 23 42  1  0
 24 23  1  0
 24 27  1  0
 25 26  1  0
 25 22  1  0
 26 24  2  0
 27 28  1  0
 28 29  2  0
 30 33  1  0
 30 29  1  0
 31 30  2  0
 32 31  1  0
 32 27  2  0
 33 34  1  0
 34 35  1  0
 35 36  2  0
 37 36  1  0
 37 41  1  0
 38 37  2  0
 39 34  2  0
 39 38  1  0
 40 39  1  0
 42 43  1  0
 43 46  1  0
 43 45  1  0
 44 42  2  0
 47 48  1  0
 47 22  1  0
 49 47  1  0
 50  3  1  0
 50 51  2  0
 52 54  1  0
 52 51  1  0
 53 64  2  0
 54 59  1  0
 55 63  1  0
 55 65  1  0
 56 62  1  0
 56 58  1  0
 57 63  1  0
 58 57  1  0
 59 58  2  0
 60 61  1  0
 60 54  2  0
 61 56  2  0
 62 55  1  0
 63 53  1  0
 65 67  2  0
 66 65  1  0
 68 66  1  0
 69 78  2  0
 69 74  1  0
 70 66  1  0
 70 74  1  0
 71 70  1  0
 72 73  1  0
 72 71  1  0
 73 69  1  0
 74 75  2  0
 75 76  1  0
 77 76  2  0
 78 77  1  0
 79 53  1  0
 79 84  1  0
 79 80  1  0
 80 83  1  1
 80 81  1  0
 82 80  1  0
 84 87  1  0
 85 89  1  0
 85 84  1  0
 86 85  2  0
 89 88  1  0
 91 89  1  0
 91 92  1  0
 91 90  1  0
M  ISO  4  12 100  20 100  51 101  52 101
M  END
>  <TORSDO>  (64) 
F 19

>  <SCORE>  (64) 
-14.232

>  <name>  (64) 
64

>  <ligand_id>  (64) 
64

>  <original_smiles>  (64) 
[H]c1c([H])c([H])c2c(c1[H])C([H])([H])C([H])([H])C([H])([H])C2([H])N([H])C(=O)C1([H])N(C(=O)C([H])(N([H])C(=O)C([H])(N([H])C([H])([H])[H])C([H])([H])[H])C(C([H])([H])[H])(C([H])([H])[H])C([H])([H])[H])C([H])([H])c2c([H])c(OC([H])([H])C([H])([H])N(C(=O)c3c([H])c(N([H])C(=O)N4C([H])([H])C([H])([H])C([H])([H])C([H])(n5nc(-c6c([H])c([H])c(Oc7c([H])c([H])c(F)c([H])c7F)c([H])c6[H])c(C(=O)N([H])[H])c5N([H])[H])C4([H])[H])c([H])c(C([H])([H])[H])c3[H])C([H])([H])[H])c([H])c([H])c2C1([H])[H]

>  <smiles>  (64) 
[H]c1c([H])c([H])c2c(c1[H])C([H])([H])C([H])([H])C([H])([H])C2([H])N([H])C(=O)C1([H])N(C(=O)C([H])(N([H])C(=O)C([H])(N([H])C([H])([H])[H])C([H])([H])[H])C(C([H])([H])[H])(C([H])([H])[H])C([H])([H])[H])C([H])([H])c2c([H])c(OC([H])([H])C([H])([H])N(C(=O)c3c([H])c(N([H])C(=O)N4C([H])([H])C([H])([H])C([H])([H])C([H])(n5nc(-c6c([H])c([H])c(Oc7c([H])c([H])c(F)c([H])c7F)c([H])c6[H])c(C(=O)N([H])[H])c5N([H])[H])C4([H])[H])c([H])c(C([H])([H])[H])c3[H])C([H])([H])[H])c([H])c([H])c2C1([H])[H]

$$$$
65:0:0
     RDKit          3D

 99107  0  0  1  0  0  0  0  0999 V2000
  -29.6530  -25.2350   23.4790 C   0  0  0  0  0  2  0  0  0  0  0  0
  -29.0030  -25.4860   22.1400 C   0  0  0  0  0  3  0  0  0  0  0  0
  -30.5000  -25.7060   22.3130 C   0  0  0  0  0  3  0  0  0  0  0  0
  -27.1110  -23.1210   21.9070 C   0  0  0  0  0  2  0  0  0  0  0  0
  -26.9360  -21.5670   21.0020 C   0  0  0  0  0  2  0  0  0  0  0  0
  -28.6260  -22.0580   19.1680 C   0  0  0  0  0  2  0  0  0  0  0  0
  -29.0490  -23.7110   19.7230 C   0  0  0  0  0  3  0  0  0  0  0  0
  -28.4300  -24.3420   21.3630 C   0  0  2  0  0  0  0  0  0  0  0  0
  -27.9790  -20.6280   19.9270 C   0  0  0  0  0  2  0  0  0  0  0  0
  -29.2320  -16.8830   19.7350 C   0  0  0  0  0  0  0  0  0  0  0  0
  -29.8190  -14.0660   18.9630 C   0  0  0  0  0  2  0  0  0  0  0  0
  -29.1060  -13.0670   17.9390 C   0  0  0  0  0  2  0  0  0  0  0  0
  -27.8970  -12.3490   18.5380 C   0  0  0  0  0  2  0  0  0  0  0  0
  -27.2010  -13.3360   19.4810 C   0  0  0  0  0  3  0  0  0  0  0  0
  -28.1340  -14.2040   20.4300 C   0  0  0  0  0  2  0  0  0  0  0  0
  -28.9580  -15.2690   19.6520 N   0  0  0  0  0  0  0  0  0  0  0  0
  -30.4880  -16.7030   19.5610 O   0  0  0  0  0  0  0  0  0  0  0  0
  -28.3600  -18.5250   19.8470 N   0  0  0  0  0  2  0  0  0  0  0  0
  -27.4420  -18.1350   20.0210 H   0  0  0  0  0  0  0  0  0  0  0  0
  -24.8760  -13.5400   20.4170 C   0  0  0  0  0  0  0  0  0  0  0  0
  -23.9280  -12.6590   20.8450 C   0  0  0  0  0  0  0  0  0  0  0  0
  -24.5240  -11.3620   20.7700 C   0  0  0  0  0  0  0  0  0  0  0  0
  -25.9940  -12.7960   20.1110 N   0  0  0  0  0  0  0  0  0  0  0  0
  -25.7970  -11.4650   20.3680 N   0  0  0  0  0  0  0  0  0  0  0  0
  -23.9140  -10.0370   21.0070 C   0  0  0  0  0  0  0  0  0  0  0  0
  -24.3940   -9.1630   22.0070 C   0  0  0  0  0  3  0  0  0  0  0  0
  -23.7660   -7.9180   22.2370 C   0  0  0  0  0  3  0  0  0  0  0  0
  -22.6400   -7.5340   21.4690 C   0  0  0  0  0  0  0  0  0  0  0  0
  -22.1760   -8.3990   20.4620 C   0  0  0  0  0  3  0  0  0  0  0  0
  -22.8060   -9.6350   20.2310 C   0  0  0  0  0  3  0  0  0  0  0  0
  -21.9840   -6.3320   21.6040 O   0  0  0  0  0  0  0  0  0  0  0  0
  -21.8940   -5.6890   22.8130 C   0  0  0  0  0  0  0  0  0  0  0  0
  -21.2740   -6.2910   23.9310 C   0  0  0  0  0  3  0  0  0  0  0  0
  -21.1400   -5.5700   25.1340 C   0  0  0  0  0  3  0  0  0  0  0  0
  -21.6160   -4.2470   25.2210 C   0  0  0  0  0  0  0  0  0  0  0  0
  -22.2260   -3.6440   24.1080 C   0  0  0  0  0  3  0  0  0  0  0  0
  -22.3620   -4.3630   22.9060 C   0  0  0  0  0  0  0  0  0  0  0  0
  -22.9330   -3.7680   21.8310 F   0  0  0  0  0  0  0  0  0  0  0  0
  -21.4810   -3.5520   26.3750 F   0  0  0  0  0  0  0  0  0  0  0  0
  -22.5140  -13.0100   21.1990 C   0  0  0  0  0  0  0  0  0  0  0  0
  -21.9130  -12.2760   22.1260 N   0  0  0  0  0  0  0  0  0  0  0  0
  -21.9540  -13.9810   20.6910 O   0  0  0  0  0  0  0  0  0  0  0  0
  -22.3820  -11.4940   22.5590 H   0  0  0  0  0  0  0  0  0  0  0  0
  -20.9680  -12.4970   22.4070 H   0  0  0  0  0  0  0  0  0  0  0  0
  -24.8750  -14.9180   20.2220 N   0  0  0  0  0  0  0  0  0  0  0  0
  -24.0450  -15.4820   20.3730 H   0  0  0  0  0  0  0  0  0  0  0  0
  -25.6460  -15.4400   19.8270 H   0  0  0  0  0  0  0  0  0  0  0  0
  -29.8870  -24.5970   18.8540 C   0  0  0  0  0  0  0  0  0  0  0  0
  -30.7230  -23.9780   18.0320 N   0  0  0  0  0  0  0  0  0  0  0  0
  -29.8410  -25.8220   18.9420 O   0  0  0  0  0  0  0  0  0  0  0  0
  -30.7530  -22.9710   17.9970 H   0  0  0  0  0  0  0  0  0  0  0  0
  -31.3400  -24.5100   17.4360 H   0  0  0  0  0  0  0  0  0  0  0  0
  -31.5230  -24.7870   21.6990 C   0  0  0  0  0  0  0  0  0  0  0  0
  -31.5560  -23.5010   22.0700 N   0  0  0  0  0  0  0  0  0  0  0  0
  -32.3880  -25.2290   20.9430 O   0  0  0  0  0  0  0  0  0  0  0  0
  -32.4990  -23.2140   22.2940 H   0  0  0  0  0  0  0  0  0  0  0  0
  -30.9000  -22.4270   21.3070 C   0  0  0  0  0  2  0  0  0  0  0  0
  -29.3010  -22.4420   21.3500 C   0  0  0  0  0  1  0  0  0  0  0  0
  -27.3000  -24.4520   19.9610 O   0  0  0  0  0  0  0  0  0  0  0  0
  -24.8550  -32.0320   23.4780 C   0  0  0  0  0  0  0  0  0  0  0  0
  -26.7350  -26.1980   20.1630 C   0  0  0  0  0  0  0  0  0  0  0  0
  -23.5010  -30.7800   21.8640 C   0  0  0  0  0  3  0  0  0  0  0  0
  -24.7330  -28.9250   20.3430 C   0  0  0  0  0  0  0  0  0  0  0  0
  -26.0850  -30.4790   21.6850 C   0  0  0  0  0  2  0  0  0  0  0  0
  -25.9860  -28.9890   20.9620 C   0  0  0  0  0  0  0  0  0  0  0  0
  -26.9200  -27.7000   20.8320 C   0  0  0  0  0  3  0  0  0  0  0  0
  -25.4900  -26.5980   19.4900 C   0  0  0  0  0  3  0  0  0  0  0  0
  -24.5760  -27.7500   19.5710 C   0  0  0  0  0  3  0  0  0  0  0  0
  -23.6480  -30.0550   20.4790 C   0  0  0  0  0  2  0  0  0  0  0  0
  -24.8550  -31.1450   22.3940 N   0  0  0  0  0  0  0  0  0  0  0  0
  -23.8020  -32.4320   24.0190 O   0  0  0  0  0  0  0  0  0  0  0  0
  -22.6890  -29.9040   22.8630 C   0  0  0  0  0  0  0  0  0  0  0  0
  -21.3600  -29.7440   22.6860 N   0  0  0  0  0  0  0  0  0  0  0  0
  -23.2870  -29.3520   23.7890 O   0  0  0  0  0  0  0  0  0  0  0  0
  -20.9140  -30.2360   21.9250 H   0  0  0  0  0  0  0  0  0  0  0  0
  -18.0380  -28.2400   22.9620 C   0  0  0  0  0  0  0  0  0  0  0  0
  -20.5110  -28.8260   23.4700 C   0  0  0  0  0  3  0  0  0  0  0  0
  -20.8160  -27.3530   23.1070 C   0  0  0  0  0  2  0  0  0  0  0  0
  -19.8910  -26.7980   22.0190 C   0  0  0  0  0  2  0  0  0  0  0  0
  -18.4310  -26.8560   22.4750 C   0  0  0  0  0  2  0  0  0  0  0  0
  -19.0140  -29.1720   23.4120 C   0  0  0  0  0  0  0  0  0  0  0  0
  -18.5910  -30.4510   23.8320 C   0  0  0  0  0  3  0  0  0  0  0  0
  -17.2280  -30.8050   23.8040 C   0  0  0  0  0  3  0  0  0  0  0  0
  -16.2680  -29.8770   23.3650 C   0  0  0  0  0  3  0  0  0  0  0  0
  -16.6730  -28.5960   22.9510 C   0  0  0  0  0  3  0  0  0  0  0  0
  -26.1650  -32.6000   24.1110 C   0  0  0  0  0  3  0  0  0  0  0  0
  -25.9240  -33.9860   24.5910 N   0  0  0  0  0  0  0  0  0  0  0  0
  -26.3830  -35.1120   24.0200 C   0  0  0  0  0  0  0  0  0  0  0  0
  -27.0880  -35.0930   23.0100 O   0  0  0  0  0  0  0  0  0  0  0  0
  -25.3000  -34.0790   25.3780 H   0  0  0  0  0  0  0  0  0  0  0  0
  -24.8440  -37.1130   23.8940 C   0  0  0  0  0  1  0  0  0  0  0  0
  -26.0110  -36.4690   24.6640 C   0  0  0  0  0  3  0  0  0  0  0  0
  -28.1840  -37.0390   25.6640 C   0  0  0  0  0  1  0  0  0  0  0  0
  -27.1370  -37.4310   24.7260 N   0  0  0  0  0  0  0  0  0  0  0  0
  -26.8080  -38.3560   24.9890 H   0  0  0  0  0  0  0  0  0  0  0  0
  -26.6850  -31.7290   25.3240 C   0  0  1  0  0  0  0  0  0  0  0  0
  -25.6180  -31.4770   26.4170 C   0  0  0  0  0  1  0  0  0  0  0  0
  -27.1880  -30.3510   24.8520 C   0  0  0  0  0  1  0  0  0  0  0  0
  -27.8970  -32.4250   25.9890 C   0  0  0  0  0  1  0  0  0  0  0  0
  2  3  1  0
  2  1  1  0
  3 53  1  0
  3  1  1  0
  5  4  1  0
  6  7  1  0
  6  9  1  0
  7 48  1  0
  7  8  1  0
  8 59  1  6
  8  4  1  0
  8  2  1  0
  9  5  1  0
 10 18  1  0
 11 16  1  0
 12 13  1  0
 12 11  1  0
 14 13  1  0
 14 23  1  0
 14 15  1  0
 16 10  1  0
 16 15  1  0
 17 10  2  0
 18 19  1  0
 20 21  2  0
 21 40  1  0
 22 21  1  0
 22 25  1  0
 23 24  1  0
 23 20  1  0
 24 22  2  0
 25 26  1  0
 26 27  2  0
 28 31  1  0
 28 27  1  0
 29 28  2  0
 30 29  1  0
 30 25  2  0
 31 32  1  0
 32 37  2  0
 32 33  1  0
 33 34  2  0
 34 35  1  0
 35 39  1  0
 36 35  2  0
 37 36  1  0
 38 37  1  0
 40 41  1  0
 41 44  1  0
 41 43  1  0
 42 40  2  0
 45 46  1  0
 45 20  1  0
 47 45  1  0
 48 50  2  0
 49 48  1  0
 51 49  1  0
 52 49  1  0
 53 54  1  0
 54 56  1  0
 55 53  2  0
 57 58  1  0
 57 54  1  0
 59 61  1  0
 60 71  2  0
 61 66  1  0
 62 70  1  0
 62 72  1  0
 63 69  1  0
 63 65  1  0
 64 70  1  0
 65 64  1  0
 66 65  2  0
 67 68  1  0
 67 61  2  0
 68 63  2  0
 69 62  1  0
 70 60  1  0
 72 74  2  0
 73 72  1  0
 75 73  1  0
 76 81  1  0
 77 73  1  0
 78 77  1  0
 79 80  1  0
 79 78  1  0
 80 76  1  0
 81 77  1  0
 81 82  2  0
 83 82  1  0
 84 83  2  0
 85 76  2  0
 85 84  1  0
 86 60  1  0
 86 87  1  0
 86 96  1  0
 87 90  1  0
 88 87  1  0
 88 92  1  0
 89 88  2  0
 92 91  1  0
 92 94  1  0
 94 95  1  0
 94 93  1  0
 96 99  1  1
 96 97  1  0
 98 96  1  0
M  ISO  4  10 100  18 100  58 101  59 101
M  END
>  <TORSDO>  (65) 
F 21

>  <SCORE>  (65) 
-10.324

>  <name>  (65) 
65

>  <ligand_id>  (65) 
65

>  <original_smiles>  (65) 
[H]c1c([H])c([H])c2c(c1[H])C([H])([H])C([H])([H])C([H])([H])C2([H])N([H])C(=O)C1([H])N(C(=O)C([H])(N([H])C(=O)C([H])(N([H])C([H])([H])[H])C([H])([H])[H])C(C([H])([H])[H])(C([H])([H])[H])C([H])([H])[H])C([H])([H])c2c([H])c(OC([H])([H])C([H])([H])N([H])C(=O)C3([H])C([H])([H])C3([H])c3c([H])c([H])c(N([H])C(=O)N4C([H])([H])C([H])([H])C([H])([H])C([H])(n5nc(-c6c([H])c([H])c(Oc7c([H])c([H])c(F)c([H])c7F)c([H])c6[H])c(C(=O)N([H])[H])c5N([H])[H])C4([H])[H])c([H])c3C(=O)N([H])[H])c([H])c([H])c2C1([H])[H]

>  <smiles>  (65) 
[H]c1c([H])c([H])c2c(c1[H])C([H])([H])C([H])([H])C([H])([H])C2([H])N([H])C(=O)C1([H])N(C(=O)C([H])(N([H])C(=O)C([H])(N([H])C([H])([H])[H])C([H])([H])[H])C(C([H])([H])[H])(C([H])([H])[H])C([H])([H])[H])C([H])([H])c2c([H])c(OC([H])([H])C([H])([H])N([H])C(=O)C3([H])C([H])([H])C3([H])c3c([H])c([H])c(N([H])C(=O)N4C([H])([H])C([H])([H])C([H])([H])C([H])(n5nc(-c6c([H])c([H])c(Oc7c([H])c([H])c(F)c([H])c7F)c([H])c6[H])c(C(=O)N([H])[H])c5N([H])[H])C4([H])[H])c([H])c3C(=O)N([H])[H])c([H])c([H])c2C1([H])[H]

$$$$
66:0:0
     RDKit          3D

 95103  0  0  1  0  0  0  0  0999 V2000
  -28.8800  -20.4240   20.5840 C   0  0  0  0  0  3  0  0  0  0  0  0
  -30.6140  -19.4840   19.1700 C   0  0  0  0  0  3  0  0  0  0  0  0
  -30.0420  -21.8910   19.0540 C   0  0  0  0  0  3  0  0  0  0  0  0
  -29.6720  -19.2160   20.1800 C   0  0  0  0  0  0  0  0  0  0  0  0
  -29.0200  -21.8090   20.0250 C   0  0  0  0  0  0  0  0  0  0  0  0
  -30.8300  -20.7820   18.6250 C   0  0  0  0  0  0  0  0  0  0  0  0
  -32.9580  -20.0260   17.5900 C   0  0  0  0  0  1  0  0  0  0  0  0
  -31.9560  -22.2330   16.9300 C   0  0  0  0  0  1  0  0  0  0  0  0
  -31.8420  -20.9680   17.6530 N   0  0  0  0  0  0  0  0  0  0  0  0
  -29.7730  -17.7090   20.8890 C   0  0  0  0  0  2  0  0  0  0  0  0
  -30.4710  -15.0500   20.2260 C   0  0  0  0  0  0  0  0  0  0  0  0
  -30.3680  -12.7050   19.2270 C   0  0  0  0  0  2  0  0  0  0  0  0
  -29.3950  -12.6370   18.0270 C   0  0  0  0  0  2  0  0  0  0  0  0
  -27.9460  -12.4060   18.5030 C   0  0  0  0  0  2  0  0  0  0  0  0
  -27.5630  -13.3200   19.6970 C   0  0  0  0  0  3  0  0  0  0  0  0
  -28.6510  -13.3360   20.7870 C   0  0  0  0  0  2  0  0  0  0  0  0
  -29.8870  -13.7850   20.1340 N   0  0  0  0  0  0  0  0  0  0  0  0
  -31.6900  -15.1160   20.0340 O   0  0  0  0  0  0  0  0  0  0  0  0
  -29.6550  -16.2240   20.3160 N   0  0  0  0  0  0  0  0  0  0  0  0
  -28.6850  -15.9690   20.2130 H   0  0  0  0  0  0  0  0  0  0  0  0
  -25.2030  -13.8800   20.5100 C   0  0  0  0  0  0  0  0  0  0  0  0
  -24.1510  -13.0970   20.8970 C   0  0  0  0  0  0  0  0  0  0  0  0
  -24.6210  -11.7490   20.8410 C   0  0  0  0  0  0  0  0  0  0  0  0
  -26.2420  -13.0090   20.2320 N   0  0  0  0  0  0  0  0  0  0  0  0
  -25.9050  -11.7210   20.4990 N   0  0  0  0  0  0  0  0  0  0  0  0
  -23.9030  -10.4820   21.0320 C   0  0  0  0  0  0  0  0  0  0  0  0
  -24.3510   -9.5110   21.9550 C   0  0  0  0  0  3  0  0  0  0  0  0
  -23.6320   -8.3100   22.1350 C   0  0  0  0  0  3  0  0  0  0  0  0
  -22.4500   -8.0720   21.3930 C   0  0  0  0  0  0  0  0  0  0  0  0
  -22.0220   -9.0310   20.4590 C   0  0  0  0  0  3  0  0  0  0  0  0
  -22.7420  -10.2230   20.2760 C   0  0  0  0  0  3  0  0  0  0  0  0
  -21.7010   -6.9230   21.4830 O   0  0  0  0  0  0  0  0  0  0  0  0
  -21.6610   -6.1800   22.6350 C   0  0  0  0  0  0  0  0  0  0  0  0
  -21.2210   -6.7260   23.8610 C   0  0  0  0  0  3  0  0  0  0  0  0
  -21.1300   -5.9080   25.0050 C   0  0  0  0  0  3  0  0  0  0  0  0
  -21.4670   -4.5430   24.9240 C   0  0  0  0  0  0  0  0  0  0  0  0
  -21.9000   -3.9960   23.7030 C   0  0  0  0  0  3  0  0  0  0  0  0
  -21.9930   -4.8110   22.5610 C   0  0  0  0  0  0  0  0  0  0  0  0
  -22.3900   -4.2740   21.3830 F   0  0  0  0  0  0  0  0  0  0  0  0
  -21.3730   -3.7550   26.0200 F   0  0  0  0  0  0  0  0  0  0  0  0
  -22.7590  -13.5660   21.2030 C   0  0  0  0  0  0  0  0  0  0  0  0
  -22.0500  -12.8550   22.0730 N   0  0  0  0  0  0  0  0  0  0  0  0
  -22.3090  -14.5980   20.7060 O   0  0  0  0  0  0  0  0  0  0  0  0
  -22.4270  -12.0200   22.4960 H   0  0  0  0  0  0  0  0  0  0  0  0
  -21.1170  -13.1510   22.3200 H   0  0  0  0  0  0  0  0  0  0  0  0
  -25.3530  -15.2550   20.3420 N   0  0  0  0  0  0  0  0  0  0  0  0
  -24.5780  -15.8950   20.4730 H   0  0  0  0  0  0  0  0  0  0  0  0
  -26.1730  -15.7040   19.9560 H   0  0  0  0  0  0  0  0  0  0  0  0
  -28.0650  -23.1850   20.1620 C   0  0  0  0  0  3  0  0  0  0  0  0
  -26.7560  -22.7710   20.7000 N   0  0  0  0  0  4  0  0  0  0  0  0
  -26.8290  -22.5370   21.6750 H   0  0  0  0  0  0  0  0  0  0  0  0
  -26.4150  -21.9660   20.2040 H   0  0  0  0  0  0  0  0  0  0  0  0
  -26.0790  -23.5060   20.6020 H   0  0  0  0  0  0  0  0  0  0  0  0
  -28.4540  -24.7340   20.7710 C   0  0  0  0  0  2  0  0  0  0  0  0
  -28.3190  -26.2120   20.2340 O   0  0  0  0  0  0  0  0  0  0  0  0
  -24.6150  -31.9030   23.2530 C   0  0  0  0  0  0  0  0  0  0  0  0
  -27.2120  -27.1370   20.3050 C   0  0  0  0  0  0  0  0  0  0  0  0
  -23.4260  -30.4910   21.6190 C   0  0  0  0  0  3  0  0  0  0  0  0
  -24.8820  -28.8870   20.2320 C   0  0  0  0  0  0  0  0  0  0  0  0
  -25.9800  -30.7510   21.4670 C   0  0  0  0  0  2  0  0  0  0  0  0
  -26.0580  -29.3450   20.8400 C   0  0  0  0  0  0  0  0  0  0  0  0
  -27.2250  -28.4890   20.8500 C   0  0  0  0  0  3  0  0  0  0  0  0
  -26.0070  -26.7780   19.6670 C   0  0  0  0  0  3  0  0  0  0  0  0
  -24.8700  -27.6180   19.6300 C   0  0  0  0  0  3  0  0  0  0  0  0
  -23.6570  -29.7930   20.2510 C   0  0  0  0  0  2  0  0  0  0  0  0
  -24.6930  -31.0730   22.1680 N   0  0  0  0  0  0  0  0  0  0  0  0
  -23.5250  -32.1920   23.7710 O   0  0  0  0  0  0  0  0  0  0  0  0
  -22.7390  -29.4970   22.5880 C   0  0  0  0  0  0  0  0  0  0  0  0
  -21.4110  -29.3290   22.4580 N   0  0  0  0  0  0  0  0  0  0  0  0
  -23.4050  -28.8750   23.4190 O   0  0  0  0  0  0  0  0  0  0  0  0
  -20.9290  -29.8810   21.7620 H   0  0  0  0  0  0  0  0  0  0  0  0
  -18.0230  -28.1490   22.9640 C   0  0  0  0  0  0  0  0  0  0  0  0
  -20.5840  -28.4000   23.2320 C   0  0  0  0  0  3  0  0  0  0  0  0
  -20.6780  -26.9650   22.6630 C   0  0  0  0  0  2  0  0  0  0  0  0
  -19.5750  -26.6440   21.6500 C   0  0  0  0  0  2  0  0  0  0  0  0
  -18.1930  -26.7970   22.2910 C   0  0  0  0  0  2  0  0  0  0  0  0
  -19.1450  -28.9080   23.3910 C   0  0  0  0  0  0  0  0  0  0  0  0
  -18.9310  -30.1730   23.9810 C   0  0  0  0  0  3  0  0  0  0  0  0
  -17.6270  -30.6790   24.1470 C   0  0  0  0  0  3  0  0  0  0  0  0
  -16.5200  -29.9170   23.7360 C   0  0  0  0  0  3  0  0  0  0  0  0
  -16.7190  -28.6550   23.1500 C   0  0  0  0  0  3  0  0  0  0  0  0
  -25.8880  -32.5460   23.8850 C   0  0  0  0  0  3  0  0  0  0  0  0
  -25.5740  -33.9490   24.1990 N   0  0  0  0  0  0  0  0  0  0  0  0
  -25.9130  -34.9980   23.4390 C   0  0  0  0  0  0  0  0  0  0  0  0
  -26.5890  -34.8870   22.4120 O   0  0  0  0  0  0  0  0  0  0  0  0
  -24.9780  -34.1100   24.9980 H   0  0  0  0  0  0  0  0  0  0  0  0
  -24.1960  -36.7990   23.0610 C   0  0  0  0  0  1  0  0  0  0  0  0
  -25.4280  -36.3920   23.8850 C   0  0  0  0  0  3  0  0  0  0  0  0
  -27.5570  -37.2780   24.7320 C   0  0  0  0  0  1  0  0  0  0  0  0
  -26.4660  -37.4410   23.7750 N   0  0  0  0  0  0  0  0  0  0  0  0
  -26.0610  -38.3640   23.9100 H   0  0  0  0  0  0  0  0  0  0  0  0
  -26.3850  -31.7920   25.1790 C   0  0  1  0  0  0  0  0  0  0  0  0
  -25.2780  -31.5740   26.2370 C   0  0  0  0  0  1  0  0  0  0  0  0
  -26.9690  -30.4070   24.8190 C   0  0  0  0  0  1  0  0  0  0  0  0
  -27.5280  -32.5940   25.8440 C   0  0  0  0  0  1  0  0  0  0  0  0
  2  4  2  0
  3  5  1  0
  4  1  1  0
  4 10  1  0
  5 49  1  0
  5  1  2  0
  6  3  2  0
  6  2  1  0
  7  9  1  0
  8  9  1  0
  9  6  1  0
 11 19  1  0
 12 17  1  0
 13 14  1  0
 13 12  1  0
 15 14  1  0
 15 24  1  0
 15 16  1  0
 17 11  1  0
 17 16  1  0
 18 11  2  0
 19 10  1  0
 20 19  1  0
 21 22  2  0
 22 41  1  0
 23 22  1  0
 23 26  1  0
 24 25  1  0
 24 21  1  0
 25 23  2  0
 26 27  1  0
 27 28  2  0
 29 32  1  0
 29 28  1  0
 30 29  2  0
 31 30  1  0
 31 26  2  0
 32 33  1  0
 33 34  1  0
 34 35  2  0
 36 35  1  0
 36 40  1  0
 37 36  2  0
 38 33  2  0
 38 37  1  0
 39 38  1  0
 41 42  1  0
 42 45  1  0
 42 44  1  0
 43 41  2  0
 46 47  1  0
 46 21  1  0
 48 46  1  0
 49 50  1  0
 49 54  1  0
 50 51  1  0
 52 50  1  0
 53 50  1  0
 55 57  1  0
 55 54  1  0
 56 67  2  0
 57 62  1  0
 58 66  1  0
 58 68  1  0
 59 65  1  0
 59 61  1  0
 60 66  1  0
 61 62  2  0
 61 60  1  0
 63 57  2  0
 64 63  1  0
 64 59  2  0
 65 58  1  0
 66 56  1  0
 68 70  2  0
 69 68  1  0
 71 69  1  0
 72 81  2  0
 72 77  1  0
 73 69  1  0
 73 77  1  0
 74 73  1  0
 75 76  1  0
 75 74  1  0
 76 72  1  0
 77 78  2  0
 78 79  1  0
 80 79  2  0
 81 80  1  0
 82 56  1  0
 82 83  1  0
 82 92  1  0
 83 86  1  0
 84 88  1  0
 84 83  1  0
 85 84  2  0
 88 87  1  0
 90 88  1  0
 90 91  1  0
 90 89  1  0
 92 95  1  1
 92 93  1  0
 94 92  1  0
M  ISO  4  11 100  19 100  54 101  55 101
M  END
>  <TORSDO>  (66) 
F 21

>  <SCORE>  (66) 
-14.428

>  <name>  (66) 
66

>  <ligand_id>  (66) 
66

>  <original_smiles>  (66) 
[H]c1c([H])c([H])c2c(c1[H])C([H])([H])C([H])([H])C([H])([H])C2([H])N([H])C(=O)C1([H])N(C(=O)C([H])(N([H])C(=O)C([H])(N([H])C([H])([H])[H])C([H])([H])[H])C(C([H])([H])[H])(C([H])([H])[H])C([H])([H])[H])C([H])([H])c2c([H])c(OC([H])([H])C([H])(c3c([H])c(N(C([H])([H])[H])C([H])([H])[H])c([H])c(C([H])([H])N([H])C(=O)N4C([H])([H])C([H])([H])C([H])([H])C([H])(n5nc(-c6c([H])c([H])c(Oc7c([H])c([H])c(F)c([H])c7F)c([H])c6[H])c(C(=O)N([H])[H])c5N([H])[H])C4([H])[H])c3[H])[N+]([H])([H])[H])c([H])c([H])c2C1([H])[H]

>  <smiles>  (66) 
[H]c1c([H])c([H])c2c(c1[H])C([H])([H])C([H])([H])C([H])([H])C2([H])N([H])C(=O)C1([H])N(C(=O)C([H])(N([H])C(=O)C([H])(N([H])C([H])([H])[H])C([H])([H])[H])C(C([H])([H])[H])(C([H])([H])[H])C([H])([H])[H])C([H])([H])c2c([H])c(OC([H])([H])C([H])(c3c([H])c(N(C([H])([H])[H])C([H])([H])[H])c([H])c(C([H])([H])N([H])C(=O)N4C([H])([H])C([H])([H])C([H])([H])C([H])(n5nc(-c6c([H])c([H])c(Oc7c([H])c([H])c(F)c([H])c7F)c([H])c6[H])c(C(=O)N([H])[H])c5N([H])[H])C4([H])[H])c3[H])[N+]([H])([H])[H])c([H])c([H])c2C1([H])[H]

$$$$
67:0:0
     RDKit          3D

 98106  0  0  1  0  0  0  0  0999 V2000
  -28.2730  -20.3530   20.0750 C   0  0  0  0  0  3  0  0  0  0  0  0
  -30.3160  -19.6480   18.7750 C   0  0  0  0  0  3  0  0  0  0  0  0
  -31.2520  -18.7050   18.3340 C   0  0  0  0  0  3  0  0  0  0  0  0
  -29.4660  -18.0290   20.3770 C   0  0  0  0  0  3  0  0  0  0  0  0
  -29.3900  -19.3260   19.7830 C   0  0  0  0  0  0  0  0  0  0  0  0
  -31.2680  -17.3950   18.8490 C   0  0  0  0  0  0  0  0  0  0  0  0
  -30.3930  -17.0390   19.9280 C   0  0  0  0  0  0  0  0  0  0  0  0
  -32.1950  -16.4360   18.1220 C   0  0  0  0  0  1  0  0  0  0  0  0
  -31.0660  -14.6270   20.4470 C   0  0  0  0  0  0  0  0  0  0  0  0
  -30.7720  -12.4410   19.3750 C   0  0  0  0  0  2  0  0  0  0  0  0
  -29.8600  -12.6570   18.1460 C   0  0  0  0  0  2  0  0  0  0  0  0
  -28.3730  -12.5790   18.5450 C   0  0  0  0  0  2  0  0  0  0  0  0
  -28.0320  -13.4310   19.7960 C   0  0  0  0  0  3  0  0  0  0  0  0
  -29.0570  -13.1910   20.9280 C   0  0  0  0  0  2  0  0  0  0  0  0
  -30.3970  -13.4460   20.3800 N   0  0  0  0  0  0  0  0  0  0  0  0
  -32.2790  -14.7070   20.2460 O   0  0  0  0  0  0  0  0  0  0  0  0
  -30.2730  -15.7240   20.5230 N   0  0  0  0  0  0  0  0  0  0  0  0
  -29.3660  -15.5220   20.9140 H   0  0  0  0  0  0  0  0  0  0  0  0
  -25.6340  -14.1000   20.4320 C   0  0  0  0  0  0  0  0  0  0  0  0
  -24.5380  -13.3530   20.7820 C   0  0  0  0  0  0  0  0  0  0  0  0
  -24.9750  -11.9940   20.7900 C   0  0  0  0  0  0  0  0  0  0  0  0
  -26.6640  -13.1930   20.2450 N   0  0  0  0  0  0  0  0  0  0  0  0
  -26.2720  -11.9240   20.5220 N   0  0  0  0  0  0  0  0  0  0  0  0
  -24.2200  -10.7480   20.9760 C   0  0  0  0  0  0  0  0  0  0  0  0
  -24.5920   -9.7980   21.9510 C   0  0  0  0  0  3  0  0  0  0  0  0
  -23.8370   -8.6170   22.1230 C   0  0  0  0  0  3  0  0  0  0  0  0
  -22.6990   -8.3790   21.3180 C   0  0  0  0  0  0  0  0  0  0  0  0
  -22.3490   -9.3150   20.3300 C   0  0  0  0  0  3  0  0  0  0  0  0
  -23.1040  -10.4880   20.1570 C   0  0  0  0  0  3  0  0  0  0  0  0
  -21.9200   -7.2500   21.3970 O   0  0  0  0  0  0  0  0  0  0  0  0
  -21.7850   -6.5540   22.5700 C   0  0  0  0  0  0  0  0  0  0  0  0
  -21.2350   -7.1440   23.7290 C   0  0  0  0  0  3  0  0  0  0  0  0
  -21.0500   -6.3700   24.8930 C   0  0  0  0  0  3  0  0  0  0  0  0
  -21.4020   -5.0080   24.8980 C   0  0  0  0  0  0  0  0  0  0  0  0
  -21.9440   -4.4180   23.7430 C   0  0  0  0  0  3  0  0  0  0  0  0
  -22.1320   -5.1880   22.5810 C   0  0  0  0  0  0  0  0  0  0  0  0
  -22.6350   -4.6070   21.4650 F   0  0  0  0  0  0  0  0  0  0  0  0
  -21.2150   -4.2630   26.0140 F   0  0  0  0  0  0  0  0  0  0  0  0
  -23.1410  -13.8580   20.9940 C   0  0  0  0  0  0  0  0  0  0  0  0
  -22.3800  -13.1990   21.8600 N   0  0  0  0  0  0  0  0  0  0  0  0
  -22.7340  -14.8690   20.4280 O   0  0  0  0  0  0  0  0  0  0  0  0
  -22.7230  -12.3790   22.3410 H   0  0  0  0  0  0  0  0  0  0  0  0
  -21.4410  -13.5180   22.0480 H   0  0  0  0  0  0  0  0  0  0  0  0
  -25.8280  -15.4640   20.2360 N   0  0  0  0  0  0  0  0  0  0  0  0
  -25.0790  -16.1330   20.3640 H   0  0  0  0  0  0  0  0  0  0  0  0
  -26.6660  -15.8740   19.8440 H   0  0  0  0  0  0  0  0  0  0  0  0
  -26.9930  -19.6900   20.3850 N   0  0  0  0  0  4  0  0  0  0  0  0
  -26.7570  -19.0560   19.6440 H   0  0  0  0  0  0  0  0  0  0  0  0
  -26.2620  -20.3730   20.4480 H   0  0  0  0  0  0  0  0  0  0  0  0
  -27.0360  -19.1840   21.2510 H   0  0  0  0  0  0  0  0  0  0  0  0
  -28.5920  -21.4970   21.0840 C   0  0  0  0  0  2  0  0  0  0  0  0
  -29.7070  -22.5170   20.6860 C   0  0  0  0  0  2  0  0  0  0  0  0
  -29.0610  -24.7630   21.6220 C   0  0  0  0  0  0  0  0  0  0  0  0
  -29.3010  -23.9390   20.5850 N   0  0  0  0  0  0  0  0  0  0  0  0
  -28.8690  -24.3170   22.7540 O   0  0  0  0  0  0  0  0  0  0  0  0
  -29.4400  -24.3890   19.6880 H   0  0  0  0  0  0  0  0  0  0  0  0
  -29.1270  -26.3020   21.4230 C   0  0  0  0  0  2  0  0  0  0  0  0
  -28.6370  -26.7370   20.1440 O   0  0  0  0  0  0  0  0  0  0  0  0
  -24.6280  -31.8180   23.2490 C   0  0  0  0  0  0  0  0  0  0  0  0
  -27.4920  -27.5070   20.1600 C   0  0  0  0  0  0  0  0  0  0  0  0
  -23.5140  -30.4180   21.5380 C   0  0  0  0  0  3  0  0  0  0  0  0
  -25.0610  -28.9580   20.1210 C   0  0  0  0  0  0  0  0  0  0  0  0
  -26.0320  -30.8470   21.4320 C   0  0  0  0  0  2  0  0  0  0  0  0
  -26.1800  -29.4880   20.7760 C   0  0  0  0  0  0  0  0  0  0  0  0
  -27.3970  -28.7640   20.8090 C   0  0  0  0  0  3  0  0  0  0  0  0
  -26.3690  -27.0110   19.4700 C   0  0  0  0  0  3  0  0  0  0  0  0
  -25.1510  -27.7180   19.4660 C   0  0  0  0  0  3  0  0  0  0  0  0
  -23.7900  -29.7820   20.1490 C   0  0  0  0  0  2  0  0  0  0  0  0
  -24.7390  -31.0430   22.1330 N   0  0  0  0  0  0  0  0  0  0  0  0
  -23.5250  -32.0440   23.7640 O   0  0  0  0  0  0  0  0  0  0  0  0
  -22.8690  -29.3530   22.4570 C   0  0  0  0  0  0  0  0  0  0  0  0
  -21.5550  -29.1300   22.2870 N   0  0  0  0  0  0  0  0  0  0  0  0
  -23.5480  -28.7370   23.2840 O   0  0  0  0  0  0  0  0  0  0  0  0
  -21.0650  -29.6850   21.5980 H   0  0  0  0  0  0  0  0  0  0  0  0
  -18.2070  -27.8230   22.6720 C   0  0  0  0  0  0  0  0  0  0  0  0
  -20.7480  -28.1510   23.0160 C   0  0  0  0  0  3  0  0  0  0  0  0
  -20.9090  -26.7370   22.4100 C   0  0  0  0  0  2  0  0  0  0  0  0
  -19.8430  -26.4070   21.3600 C   0  0  0  0  0  2  0  0  0  0  0  0
  -18.4420  -26.4960   21.9700 C   0  0  0  0  0  2  0  0  0  0  0  0
  -19.2900  -28.6070   23.1500 C   0  0  0  0  0  0  0  0  0  0  0  0
  -19.0160  -29.8500   23.7630 C   0  0  0  0  0  3  0  0  0  0  0  0
  -17.6910  -30.3070   23.9020 C   0  0  0  0  0  3  0  0  0  0  0  0
  -16.6240  -29.5190   23.4410 C   0  0  0  0  0  3  0  0  0  0  0  0
  -16.8820  -28.2790   22.8310 C   0  0  0  0  0  3  0  0  0  0  0  0
  -25.8790  -32.4720   23.9180 C   0  0  0  0  0  3  0  0  0  0  0  0
  -25.5410  -33.8700   24.2170 N   0  0  0  0  0  0  0  0  0  0  0  0
  -25.9010  -34.9160   23.4600 C   0  0  0  0  0  0  0  0  0  0  0  0
  -26.6200  -34.8050   22.4620 O   0  0  0  0  0  0  0  0  0  0  0  0
  -24.9150  -34.0290   24.9930 H   0  0  0  0  0  0  0  0  0  0  0  0
  -24.1870  -36.6900   22.9810 C   0  0  0  0  0  1  0  0  0  0  0  0
  -25.3770  -36.3030   23.8740 C   0  0  0  0  0  3  0  0  0  0  0  0
  -27.4430  -37.2120   24.8430 C   0  0  0  0  0  1  0  0  0  0  0  0
  -26.4100  -37.3620   23.8210 N   0  0  0  0  0  0  0  0  0  0  0  0
  -25.9890  -38.2820   23.9300 H   0  0  0  0  0  0  0  0  0  0  0  0
  -26.3550  -31.7190   25.2200 C   0  0  1  0  0  0  0  0  0  0  0  0
  -25.2200  -31.4660   26.2400 C   0  0  0  0  0  1  0  0  0  0  0  0
  -26.9750  -30.3480   24.8600 C   0  0  0  0  0  1  0  0  0  0  0  0
  -27.4650  -32.5350   25.9210 C   0  0  0  0  0  1  0  0  0  0  0  0
  1 47  1  0
  1 51  1  0
  2  5  1  0
  3  2  2  0
  3  6  1  0
  5  1  1  0
  5  4  2  0
  6  7  2  0
  7  4  1  0
  7 17  1  0
  8  6  1  0
  9 17  1  0
 10 15  1  0
 11 12  1  0
 11 10  1  0
 13 12  1  0
 13 22  1  0
 13 14  1  0
 15  9  1  0
 15 14  1  0
 16  9  2  0
 17 18  1  0
 19 20  2  0
 20 21  1  0
 20 39  1  0
 21 24  1  0
 22 19  1  0
 22 23  1  0
 23 21  2  0
 24 25  1  0
 25 26  2  0
 27 30  1  0
 27 26  1  0
 28 27  2  0
 29 28  1  0
 29 24  2  0
 30 31  1  0
 31 36  2  0
 31 32  1  0
 32 33  2  0
 33 34  1  0
 34 38  1  0
 35 34  2  0
 36 35  1  0
 37 36  1  0
 39 40  1  0
 40 43  1  0
 40 42  1  0
 41 39  2  0
 44 45  1  0
 44 19  1  0
 46 44  1  0
 47 49  1  0
 47 50  1  0
 48 47  1  0
 52 51  1  0
 53 55  2  0
 54 52  1  0
 54 53  1  0
 56 54  1  0
 57 53  1  0
 58 60  1  0
 58 57  1  0
 59 70  2  0
 60 65  1  0
 61 69  1  0
 61 71  1  0
 62 68  1  0
 62 64  1  0
 63 69  1  0
 64 65  2  0
 64 63  1  0
 66 60  2  0
 67 66  1  0
 67 62  2  0
 68 61  1  0
 69 59  1  0
 71 73  2  0
 72 71  1  0
 74 72  1  0
 75 84  2  0
 75 80  1  0
 76 72  1  0
 76 80  1  0
 77 76  1  0
 78 79  1  0
 78 77  1  0
 79 75  1  0
 80 81  2  0
 81 82  1  0
 83 82  2  0
 84 83  1  0
 85 59  1  0
 85 86  1  0
 85 95  1  0
 86 89  1  0
 87 91  1  0
 87 86  1  0
 88 87  2  0
 91 90  1  0
 93 91  1  0
 93 94  1  0
 93 92  1  0
 95 98  1  1
 95 96  1  0
 97 95  1  0
M  ISO  4   9 100  17 100  57 101  58 101
M  END
>  <TORSDO>  (67) 
F 22

>  <SCORE>  (67) 
-12.951

>  <name>  (67) 
67

>  <ligand_id>  (67) 
67

>  <original_smiles>  (67) 
[H]c1c([H])c([H])c2c(c1[H])C([H])([H])C([H])([H])C([H])([H])C2([H])N([H])C(=O)C1([H])N(C(=O)C([H])(N([H])C(=O)C([H])(N([H])C([H])([H])[H])C([H])([H])[H])C(C([H])([H])[H])(C([H])([H])[H])C([H])([H])[H])C([H])([H])c2c([H])c(OC([H])([H])C(=O)N([H])C([H])([H])C([H])([H])C([H])(c3c([H])c([H])c(C([H])([H])[H])c(N([H])C(=O)N4C([H])([H])C([H])([H])C([H])([H])C([H])(n5nc(-c6c([H])c([H])c(Oc7c([H])c([H])c(F)c([H])c7F)c([H])c6[H])c(C(=O)N([H])[H])c5N([H])[H])C4([H])[H])c3[H])[N+]([H])([H])[H])c([H])c([H])c2C1([H])[H]

>  <smiles>  (67) 
[H]c1c([H])c([H])c2c(c1[H])C([H])([H])C([H])([H])C([H])([H])C2([H])N([H])C(=O)C1([H])N(C(=O)C([H])(N([H])C(=O)C([H])(N([H])C([H])([H])[H])C([H])([H])[H])C(C([H])([H])[H])(C([H])([H])[H])C([H])([H])[H])C([H])([H])c2c([H])c(OC([H])([H])C(=O)N([H])C([H])([H])C([H])([H])C([H])(c3c([H])c([H])c(C([H])([H])[H])c(N([H])C(=O)N4C([H])([H])C([H])([H])C([H])([H])C([H])(n5nc(-c6c([H])c([H])c(Oc7c([H])c([H])c(F)c([H])c7F)c([H])c6[H])c(C(=O)N([H])[H])c5N([H])[H])C4([H])[H])c3[H])[N+]([H])([H])[H])c([H])c([H])c2C1([H])[H]

$$$$
69:0:0
     RDKit          3D

 97105  0  0  1  0  0  0  0  0999 V2000
  -30.7610  -18.0170   19.7410 C   0  0  0  0  0  3  0  0  0  0  0  0
  -28.2980  -19.1050   20.3850 C   0  0  0  0  0  3  0  0  0  0  0  0
  -30.5650  -19.4480   19.6780 C   0  0  0  0  0  0  0  0  0  0  0  0
  -28.5070  -17.7030   20.4830 C   0  0  0  0  0  0  0  0  0  0  0  0
  -29.7490  -17.1030   20.1410 C   0  0  0  0  0  0  0  0  0  0  0  0
  -29.2880  -20.0540   19.9970 C   0  0  0  0  0  0  0  0  0  0  0  0
  -27.3290  -16.8750   20.9800 C   0  0  0  0  0  1  0  0  0  0  0  0
  -30.6190  -14.6610   19.6050 C   0  0  0  0  0  0  0  0  0  0  0  0
  -30.3540  -12.4170   18.5460 C   0  0  0  0  0  2  0  0  0  0  0  0
  -29.2600  -12.5240   17.4580 C   0  0  0  0  0  2  0  0  0  0  0  0
  -27.8510  -12.3440   18.0620 C   0  0  0  0  0  2  0  0  0  0  0  0
  -27.6360  -13.1960   19.3400 C   0  0  0  0  0  3  0  0  0  0  0  0
  -28.8230  -13.0260   20.3150 C   0  0  0  0  0  2  0  0  0  0  0  0
  -30.0500  -13.4110   19.5950 N   0  0  0  0  0  0  0  0  0  0  0  0
  -31.6900  -14.8850   19.0310 O   0  0  0  0  0  0  0  0  0  0  0  0
  -29.8530  -15.6370   20.1950 N   0  0  0  0  0  0  0  0  0  0  0  0
  -29.0910  -15.2150   20.7040 H   0  0  0  0  0  0  0  0  0  0  0  0
  -25.3720  -13.7890   20.4030 C   0  0  0  0  0  0  0  0  0  0  0  0
  -24.3470  -13.0120   20.8710 C   0  0  0  0  0  0  0  0  0  0  0  0
  -24.7640  -11.6590   20.6870 C   0  0  0  0  0  0  0  0  0  0  0  0
  -26.3550  -12.9080   19.9780 N   0  0  0  0  0  0  0  0  0  0  0  0
  -26.0000  -11.6170   20.2040 N   0  0  0  0  0  0  0  0  0  0  0  0
  -24.0350  -10.4000   20.8870 C   0  0  0  0  0  0  0  0  0  0  0  0
  -24.5270   -9.3900   21.7430 C   0  0  0  0  0  3  0  0  0  0  0  0
  -23.7990   -8.1960   21.9320 C   0  0  0  0  0  3  0  0  0  0  0  0
  -22.5650   -8.0050   21.2680 C   0  0  0  0  0  0  0  0  0  0  0  0
  -22.0900   -9.0040   20.3990 C   0  0  0  0  0  3  0  0  0  0  0  0
  -22.8190  -10.1890   20.2070 C   0  0  0  0  0  3  0  0  0  0  0  0
  -21.8010   -6.8660   21.3720 O   0  0  0  0  0  0  0  0  0  0  0  0
  -21.7810   -6.1170   22.5210 C   0  0  0  0  0  0  0  0  0  0  0  0
  -21.3920   -6.6670   23.7630 C   0  0  0  0  0  3  0  0  0  0  0  0
  -21.3190   -5.8450   24.9050 C   0  0  0  0  0  3  0  0  0  0  0  0
  -21.6230   -4.4730   24.8070 C   0  0  0  0  0  0  0  0  0  0  0  0
  -22.0050   -3.9230   23.5700 C   0  0  0  0  0  3  0  0  0  0  0  0
  -22.0800   -4.7430   22.4300 C   0  0  0  0  0  0  0  0  0  0  0  0
  -22.4280   -4.2040   21.2370 F   0  0  0  0  0  0  0  0  0  0  0  0
  -21.5440   -3.6810   25.9010 F   0  0  0  0  0  0  0  0  0  0  0  0
  -23.0140  -13.4950   21.3650 C   0  0  0  0  0  0  0  0  0  0  0  0
  -22.3980  -12.7630   22.2870 N   0  0  0  0  0  0  0  0  0  0  0  0
  -22.5320  -14.5560   20.9690 O   0  0  0  0  0  0  0  0  0  0  0  0
  -22.8050  -11.9040   22.6280 H   0  0  0  0  0  0  0  0  0  0  0  0
  -21.5100  -13.0670   22.6580 H   0  0  0  0  0  0  0  0  0  0  0  0
  -25.5390  -15.1630   20.2780 N   0  0  0  0  0  0  0  0  0  0  0  0
  -24.7860  -15.8090   20.4880 H   0  0  0  0  0  0  0  0  0  0  0  0
  -26.3110  -15.5980   19.7900 H   0  0  0  0  0  0  0  0  0  0  0  0
  -31.7830  -20.2550   19.3270 C   0  0  0  0  0  0  0  0  0  0  0  0
  -32.3480  -19.9740   18.1590 N   0  0  0  0  0  0  0  0  0  0  0  0
  -32.2490  -21.1060   20.0830 O   0  0  0  0  0  0  0  0  0  0  0  0
  -31.9450  -19.2710   17.5560 H   0  0  0  0  0  0  0  0  0  0  0  0
  -33.1700  -20.4770   17.8590 H   0  0  0  0  0  0  0  0  0  0  0  0
  -28.0920  -21.8740   21.1500 C   0  0  0  0  0  1  0  0  0  0  0  0
  -28.8890  -21.4650   19.9910 N   0  0  0  0  0  0  0  0  0  0  0  0
  -29.5330  -22.6070   19.2620 C   0  0  0  0  0  2  0  0  0  0  0  0
  -29.3010  -24.5440   17.6210 C   0  0  0  0  0  1  0  0  0  0  0  0
  -28.6880  -23.9360   18.8950 C   0  0  0  0  0  3  0  0  0  0  0  0
  -28.5210  -25.1200   19.9610 C   0  0  0  0  0  2  0  0  0  0  0  0
  -28.5080  -26.5400   19.5330 O   0  0  0  0  0  0  0  0  0  0  0  0
  -24.7150  -31.5810   23.0400 C   0  0  0  0  0  0  0  0  0  0  0  0
  -27.3440  -27.3100   19.6330 C   0  0  0  0  0  0  0  0  0  0  0  0
  -23.5020  -30.2960   21.3130 C   0  0  0  0  0  3  0  0  0  0  0  0
  -24.9510  -28.8620   19.7640 C   0  0  0  0  0  0  0  0  0  0  0  0
  -26.0300  -30.6660   21.1160 C   0  0  0  0  0  2  0  0  0  0  0  0
  -26.1180  -29.3370   20.3740 C   0  0  0  0  0  0  0  0  0  0  0  0
  -27.3200  -28.5760   20.2920 C   0  0  0  0  0  3  0  0  0  0  0  0
  -26.1530  -26.8700   19.0190 C   0  0  0  0  0  3  0  0  0  0  0  0
  -24.9690  -27.6350   19.0770 C   0  0  0  0  0  3  0  0  0  0  0  0
  -23.7040  -29.7160   19.8860 C   0  0  0  0  0  2  0  0  0  0  0  0
  -24.7690  -30.8620   21.8820 N   0  0  0  0  0  0  0  0  0  0  0  0
  -23.6370  -31.8050   23.6100 O   0  0  0  0  0  0  0  0  0  0  0  0
  -22.8640  -29.2060   22.2060 C   0  0  0  0  0  0  0  0  0  0  0  0
  -21.5350  -29.0410   22.1010 N   0  0  0  0  0  0  0  0  0  0  0  0
  -23.5620  -28.5150   22.9510 O   0  0  0  0  0  0  0  0  0  0  0  0
  -21.0310  -29.6530   21.4750 H   0  0  0  0  0  0  0  0  0  0  0  0
  -18.1660  -27.8270   22.6020 C   0  0  0  0  0  0  0  0  0  0  0  0
  -20.7330  -28.0440   22.8110 C   0  0  0  0  0  3  0  0  0  0  0  0
  -20.8040  -26.6700   22.1050 C   0  0  0  0  0  2  0  0  0  0  0  0
  -19.6660  -26.4470   21.1040 C   0  0  0  0  0  2  0  0  0  0  0  0
  -18.3070  -26.5430   21.8020 C   0  0  0  0  0  2  0  0  0  0  0  0
  -19.3050  -28.5400   23.0620 C   0  0  0  0  0  0  0  0  0  0  0  0
  -19.1170  -29.7460   23.7710 C   0  0  0  0  0  3  0  0  0  0  0  0
  -17.8230  -30.2400   24.0240 C   0  0  0  0  0  3  0  0  0  0  0  0
  -16.6980  -29.5210   23.5810 C   0  0  0  0  0  3  0  0  0  0  0  0
  -16.8710  -28.3170   22.8750 C   0  0  0  0  0  3  0  0  0  0  0  0
  -26.0010  -32.1770   23.6940 C   0  0  0  0  0  3  0  0  0  0  0  0
  -25.7010  -33.5610   24.0870 N   0  0  0  0  0  0  0  0  0  0  0  0
  -26.0460  -34.6460   23.3800 C   0  0  0  0  0  0  0  0  0  0  0  0
  -26.7210  -34.5850   22.3500 O   0  0  0  0  0  0  0  0  0  0  0  0
  -25.1040  -33.6830   24.8910 H   0  0  0  0  0  0  0  0  0  0  0  0
  -24.3310  -36.4640   23.1050 C   0  0  0  0  0  1  0  0  0  0  0  0
  -25.5670  -36.0150   23.9000 C   0  0  0  0  0  3  0  0  0  0  0  0
  -27.7020  -36.8490   24.7800 C   0  0  0  0  0  1  0  0  0  0  0  0
  -26.6070  -37.0650   23.8390 N   0  0  0  0  0  0  0  0  0  0  0  0
  -26.2050  -37.9800   24.0240 H   0  0  0  0  0  0  0  0  0  0  0  0
  -26.5100  -31.3470   24.9360 C   0  0  1  0  0  0  0  0  0  0  0  0
  -25.4170  -31.0810   25.9970 C   0  0  0  0  0  1  0  0  0  0  0  0
  -27.0730  -29.9800   24.4840 C   0  0  0  0  0  1  0  0  0  0  0  0
  -27.6730  -32.0980   25.6280 C   0  0  0  0  0  1  0  0  0  0  0  0
  1  5  1  0
  2  4  1  0
  3  1  2  0
  3  6  1  0
  4  7  1  0
  5 16  1  0
  5  4  2  0
  6  2  2  0
  8 16  1  0
  9 14  1  0
 10 11  1  0
 10  9  1  0
 12 11  1  0
 12 21  1  0
 12 13  1  0
 14  8  1  0
 14 13  1  0
 15  8  2  0
 16 17  1  0
 18 19  2  0
 19 38  1  0
 20 19  1  0
 20 23  1  0
 21 22  1  0
 21 18  1  0
 22 20  2  0
 23 24  1  0
 24 25  2  0
 26 29  1  0
 26 25  1  0
 27 26  2  0
 28 27  1  0
 28 23  2  0
 29 30  1  0
 30 31  1  0
 31 32  2  0
 33 32  1  0
 33 37  1  0
 34 33  2  0
 35 30  2  0
 35 34  1  0
 36 35  1  0
 38 39  1  0
 39 41  1  0
 39 42  1  0
 40 38  2  0
 43 18  1  0
 43 44  1  0
 45 43  1  0
 46  3  1  0
 46 48  2  0
 47 46  1  0
 49 47  1  0
 50 47  1  0
 52  6  1  0
 52 51  1  0
 53 52  1  0
 55 54  1  0
 55 53  1  0
 55 56  1  0
 57 59  1  0
 57 56  1  0
 58 69  2  0
 59 64  1  0
 60 68  1  0
 60 70  1  0
 61 67  1  0
 61 63  1  0
 62 68  1  0
 63 62  1  0
 64 63  2  0
 65 66  1  0
 65 59  2  0
 66 61  2  0
 67 60  1  0
 68 58  1  0
 70 72  2  0
 71 70  1  0
 73 71  1  0
 74 83  2  0
 74 79  1  0
 75 71  1  0
 75 79  1  0
 76 75  1  0
 77 78  1  0
 77 76  1  0
 78 74  1  0
 79 80  2  0
 80 81  1  0
 82 81  2  0
 83 82  1  0
 84 58  1  0
 84 85  1  0
 84 94  1  0
 85 88  1  0
 86 90  1  0
 86 85  1  0
 87 86  2  0
 90 89  1  0
 92 90  1  0
 92 93  1  0
 92 91  1  0
 94 97  1  1
 94 95  1  0
 96 94  1  0
M  ISO  4   8 100  16 100  56 101  57 101
M  END
>  <TORSDO>  (68) 
F 21

>  <SCORE>  (68) 
-11.706

>  <name>  (68) 
69

>  <ligand_id>  (68) 
69

>  <original_smiles>  (68) 
[H]c1c([H])c([H])c2c(c1[H])C([H])([H])C([H])([H])C([H])([H])C2([H])N([H])C(=O)C1([H])N(C(=O)C([H])(N([H])C(=O)C([H])(N([H])C([H])([H])[H])C([H])([H])[H])C(C([H])([H])[H])(C([H])([H])[H])C([H])([H])[H])C([H])([H])c2c([H])c(OC([H])([H])C([H])(C([H])([H])[H])C([H])([H])N(c3c([H])c(C([H])([H])[H])c(N([H])C(=O)N4C([H])([H])C([H])([H])C([H])([H])C([H])(n5nc(-c6c([H])c([H])c(Oc7c([H])c([H])c(F)c([H])c7F)c([H])c6[H])c(C(=O)N([H])[H])c5N([H])[H])C4([H])[H])c([H])c3C(=O)N([H])[H])C([H])([H])[H])c([H])c([H])c2C1([H])[H]

>  <smiles>  (68) 
[H]c1c([H])c([H])c2c(c1[H])C([H])([H])C([H])([H])C([H])([H])C2([H])N([H])C(=O)C1([H])N(C(=O)C([H])(N([H])C(=O)C([H])(N([H])C([H])([H])[H])C([H])([H])[H])C(C([H])([H])[H])(C([H])([H])[H])C([H])([H])[H])C([H])([H])c2c([H])c(OC([H])([H])C([H])(C([H])([H])[H])C([H])([H])N(c3c([H])c(C([H])([H])[H])c(N([H])C(=O)N4C([H])([H])C([H])([H])C([H])([H])C([H])(n5nc(-c6c([H])c([H])c(Oc7c([H])c([H])c(F)c([H])c7F)c([H])c6[H])c(C(=O)N([H])[H])c5N([H])[H])C4([H])[H])c([H])c3C(=O)N([H])[H])C([H])([H])[H])c([H])c([H])c2C1([H])[H]

$$$$
70:0:0
     RDKit          3D

 95103  0  0  1  0  0  0  0  0999 V2000
  -28.6110  -22.7350   20.7440 C   0  0  0  0  0  0  0  0  0  0  0  0
  -30.6390  -19.8700   19.1510 C   0  0  0  0  0  2  0  0  0  0  0  0
  -29.3420  -19.0190   21.0480 C   0  0  0  0  0  2  0  0  0  0  0  0
  -29.7340  -21.1480   19.0670 C   0  0  0  0  0  2  0  0  0  0  0  0
  -28.4090  -20.2610   20.9470 C   0  0  0  0  0  2  0  0  0  0  0  0
  -29.9600  -18.5800   19.7040 C   0  0  0  0  0  3  0  0  0  0  0  0
  -28.9860  -21.4760   20.3020 N   0  0  0  0  0  0  0  0  0  0  0  0
  -27.9150  -22.8260   21.7600 O   0  0  0  0  0  0  0  0  0  0  0  0
  -32.1350  -17.5900   20.7400 C   0  0  0  0  0  1  0  0  0  0  0  0
  -30.9510  -17.3310   19.7820 C   0  0  0  0  0  3  0  0  0  0  0  0
  -31.0280  -14.7950   19.7730 C   0  0  0  0  0  0  0  0  0  0  0  0
  -30.6860  -12.5060   18.9080 C   0  0  0  0  0  2  0  0  0  0  0  0
  -29.6800  -12.5470   17.7420 C   0  0  0  0  0  2  0  0  0  0  0  0
  -28.2400  -12.4220   18.2710 C   0  0  0  0  0  2  0  0  0  0  0  0
  -27.9500  -13.3750   19.4620 C   0  0  0  0  0  3  0  0  0  0  0  0
  -29.0780  -13.3440   20.5170 C   0  0  0  0  0  2  0  0  0  0  0  0
  -30.3430  -13.6140   19.8230 N   0  0  0  0  0  0  0  0  0  0  0  0
  -32.1690  -14.8380   19.3070 O   0  0  0  0  0  0  0  0  0  0  0  0
  -30.3710  -15.9650   20.0420 N   0  0  0  0  0  0  0  0  0  0  0  0
  -29.4100  -15.9080   20.3450 H   0  0  0  0  0  0  0  0  0  0  0  0
  -25.6470  -14.0020   20.4070 C   0  0  0  0  0  0  0  0  0  0  0  0
  -24.5900  -13.2430   20.8310 C   0  0  0  0  0  0  0  0  0  0  0  0
  -25.0030  -11.8810   20.7040 C   0  0  0  0  0  0  0  0  0  0  0  0
  -26.6390  -13.1040   20.0500 N   0  0  0  0  0  0  0  0  0  0  0  0
  -26.2630  -11.8200   20.2890 N   0  0  0  0  0  0  0  0  0  0  0  0
  -24.2540  -10.6320   20.8980 C   0  0  0  0  0  0  0  0  0  0  0  0
  -24.6620   -9.6650   21.8440 C   0  0  0  0  0  3  0  0  0  0  0  0
  -23.9140   -8.4840   22.0290 C   0  0  0  0  0  3  0  0  0  0  0  0
  -22.7410   -8.2600   21.2700 C   0  0  0  0  0  0  0  0  0  0  0  0
  -22.3530   -9.2130   20.3110 C   0  0  0  0  0  3  0  0  0  0  0  0
  -23.1010  -10.3870   20.1250 C   0  0  0  0  0  3  0  0  0  0  0  0
  -21.9670   -7.1290   21.3600 O   0  0  0  0  0  0  0  0  0  0  0  0
  -21.8150   -6.4570   22.5470 C   0  0  0  0  0  0  0  0  0  0  0  0
  -21.2570   -7.0730   23.6880 C   0  0  0  0  0  3  0  0  0  0  0  0
  -21.0560   -6.3230   24.8640 C   0  0  0  0  0  3  0  0  0  0  0  0
  -21.4030   -4.9590   24.9000 C   0  0  0  0  0  0  0  0  0  0  0  0
  -21.9500   -4.3430   23.7620 C   0  0  0  0  0  3  0  0  0  0  0  0
  -22.1530   -5.0890   22.5870 C   0  0  0  0  0  0  0  0  0  0  0  0
  -22.6640   -4.4840   21.4870 F   0  0  0  0  0  0  0  0  0  0  0  0
  -21.1990   -4.2370   26.0270 F   0  0  0  0  0  0  0  0  0  0  0  0
  -23.2360  -13.7480   21.2390 C   0  0  0  0  0  0  0  0  0  0  0  0
  -22.5590  -13.0310   22.1290 N   0  0  0  0  0  0  0  0  0  0  0  0
  -22.7920  -14.8090   20.8040 O   0  0  0  0  0  0  0  0  0  0  0  0
  -22.9330  -12.1720   22.5030 H   0  0  0  0  0  0  0  0  0  0  0  0
  -21.6530  -13.3480   22.4440 H   0  0  0  0  0  0  0  0  0  0  0  0
  -25.8400  -15.3730   20.2720 N   0  0  0  0  0  0  0  0  0  0  0  0
  -25.1090  -16.0430   20.4780 H   0  0  0  0  0  0  0  0  0  0  0  0
  -26.6720  -15.7980   19.8800 H   0  0  0  0  0  0  0  0  0  0  0  0
  -28.9460  -24.1070   20.0310 C   0  0  0  0  0  3  0  0  0  0  0  0
  -28.5640  -24.1000   18.6030 N   0  0  0  0  0  4  0  0  0  0  0  0
  -27.6090  -23.8130   18.4830 H   0  0  0  0  0  0  0  0  0  0  0  0
  -29.1570  -23.4880   18.0690 H   0  0  0  0  0  0  0  0  0  0  0  0
  -28.6630  -25.0270   18.2290 H   0  0  0  0  0  0  0  0  0  0  0  0
  -28.2620  -25.3490   20.7520 C   0  0  0  0  0  2  0  0  0  0  0  0
  -28.5200  -26.7080   20.2540 O   0  0  0  0  0  0  0  0  0  0  0  0
  -24.7140  -31.9470   23.3750 C   0  0  0  0  0  0  0  0  0  0  0  0
  -27.4040  -27.5380   20.2270 C   0  0  0  0  0  0  0  0  0  0  0  0
  -23.5420  -30.5860   21.6770 C   0  0  0  0  0  3  0  0  0  0  0  0
  -25.0240  -29.0930   20.2290 C   0  0  0  0  0  0  0  0  0  0  0  0
  -26.0760  -30.9460   21.5320 C   0  0  0  0  0  2  0  0  0  0  0  0
  -26.1770  -29.5890   20.8550 C   0  0  0  0  0  0  0  0  0  0  0  0
  -27.3750  -28.8220   20.8440 C   0  0  0  0  0  3  0  0  0  0  0  0
  -26.2350  -27.0880   19.5780 C   0  0  0  0  0  3  0  0  0  0  0  0
  -25.0520  -27.8480   19.5840 C   0  0  0  0  0  3  0  0  0  0  0  0
  -23.7760  -29.9470   20.2830 C   0  0  0  0  0  2  0  0  0  0  0  0
  -24.7950  -31.1720   22.2550 N   0  0  0  0  0  0  0  0  0  0  0  0
  -23.6230  -32.2020   23.9020 O   0  0  0  0  0  0  0  0  0  0  0  0
  -22.8760  -29.5380   22.5990 C   0  0  0  0  0  0  0  0  0  0  0  0
  -21.5580  -29.3380   22.4310 N   0  0  0  0  0  0  0  0  0  0  0  0
  -23.5450  -28.9090   23.4220 O   0  0  0  0  0  0  0  0  0  0  0  0
  -21.0770  -29.9000   21.7420 H   0  0  0  0  0  0  0  0  0  0  0  0
  -18.1990  -28.0440   22.7700 C   0  0  0  0  0  0  0  0  0  0  0  0
  -20.7340  -28.3710   23.1580 C   0  0  0  0  0  3  0  0  0  0  0  0
  -20.9030  -26.9470   22.5770 C   0  0  0  0  0  2  0  0  0  0  0  0
  -19.8560  -26.6040   21.5110 C   0  0  0  0  0  2  0  0  0  0  0  0
  -18.4440  -26.7040   22.0950 C   0  0  0  0  0  2  0  0  0  0  0  0
  -19.2760  -28.8340   23.2550 C   0  0  0  0  0  0  0  0  0  0  0  0
  -18.9950  -30.0850   23.8460 C   0  0  0  0  0  3  0  0  0  0  0  0
  -17.6710  -30.5490   23.9530 C   0  0  0  0  0  3  0  0  0  0  0  0
  -16.6080  -29.7580   23.4840 C   0  0  0  0  0  3  0  0  0  0  0  0
  -16.8720  -28.5070   22.8990 C   0  0  0  0  0  3  0  0  0  0  0  0
  -25.9870  -32.5670   24.0320 C   0  0  0  0  0  3  0  0  0  0  0  0
  -26.4710  -31.7820   25.3120 C   0  0  1  0  0  0  0  0  0  0  0  0
  -25.3480  -31.5260   26.3440 C   0  0  0  0  0  1  0  0  0  0  0  0
  -27.0680  -30.4120   24.9170 C   0  0  0  0  0  1  0  0  0  0  0  0
  -27.6020  -32.5700   26.0140 C   0  0  0  0  0  1  0  0  0  0  0  0
  -25.6770  -33.9650   24.3640 N   0  0  0  0  0  0  0  0  0  0  0  0
  -26.0440  -35.0220   23.6280 C   0  0  0  0  0  0  0  0  0  0  0  0
  -26.7480  -34.9220   22.6180 O   0  0  0  0  0  0  0  0  0  0  0  0
  -25.0580  -34.1180   25.1460 H   0  0  0  0  0  0  0  0  0  0  0  0
  -24.3550  -36.8380   23.2170 C   0  0  0  0  0  1  0  0  0  0  0  0
  -25.5530  -36.4100   24.0790 C   0  0  0  0  0  3  0  0  0  0  0  0
  -27.6520  -37.2590   25.0260 C   0  0  0  0  0  1  0  0  0  0  0  0
  -26.6020  -37.4510   24.0300 N   0  0  0  0  0  0  0  0  0  0  0  0
  -26.2000  -38.3740   24.1700 H   0  0  0  0  0  0  0  0  0  0  0  0
  1  8  2  0
  2  6  1  0
  4  2  1  0
  4  7  1  0
  5  3  1  0
  6 10  1  0
  6  3  1  0
  7  1  1  0
  7  5  1  0
 10 19  1  0
 10  9  1  0
 11 17  1  0
 11 19  1  0
 12 17  1  0
 13 14  1  0
 13 12  1  0
 15 14  1  0
 15 24  1  0
 15 16  1  0
 17 16  1  0
 18 11  2  0
 19 20  1  0
 21 22  2  0
 22 41  1  0
 23 22  1  0
 23 26  1  0
 24 25  1  0
 24 21  1  0
 25 23  2  0
 26 27  1  0
 27 28  2  0
 29 32  1  0
 29 28  1  0
 30 29  2  0
 31 30  1  0
 31 26  2  0
 32 33  1  0
 33 38  2  0
 33 34  1  0
 34 35  2  0
 35 36  1  0
 36 40  1  0
 37 36  2  0
 38 37  1  0
 39 38  1  0
 41 42  1  0
 42 45  1  0
 42 44  1  0
 43 41  2  0
 46 21  1  0
 46 47  1  0
 48 46  1  0
 49  1  1  0
 49 54  1  0
 50 49  1  0
 51 50  1  0
 52 50  1  0
 53 50  1  0
 55 54  1  0
 56 67  2  0
 57 55  1  0
 57 62  1  0
 58 66  1  0
 58 68  1  0
 59 65  1  0
 59 61  1  0
 60 66  1  0
 61 60  1  0
 62 61  2  0
 63 64  1  0
 63 57  2  0
 64 59  2  0
 65 58  1  0
 66 56  1  0
 68 70  2  0
 69 68  1  0
 71 69  1  0
 72 81  2  0
 72 77  1  0
 73 69  1  0
 73 77  1  0
 74 73  1  0
 75 76  1  0
 75 74  1  0
 76 72  1  0
 77 78  2  0
 78 79  1  0
 80 79  2  0
 81 80  1  0
 82 56  1  0
 82 87  1  0
 82 83  1  0
 83 86  1  1
 83 84  1  0
 85 83  1  0
 87 90  1  0
 88 92  1  0
 88 87  1  0
 89 88  2  0
 92 91  1  0
 94 92  1  0
 94 95  1  0
 94 93  1  0
M  ISO  4  11 100  19 100  54 101  55 101
M  END
>  <TORSDO>  (69) 
F 20

>  <SCORE>  (69) 
-13.366

>  <name>  (69) 
70

>  <ligand_id>  (69) 
70

>  <original_smiles>  (69) 
[H]c1c([H])c([H])c2c(c1[H])C([H])([H])C([H])([H])C([H])([H])C2([H])N([H])C(=O)C1([H])N(C(=O)C([H])(N([H])C(=O)C([H])(N([H])C([H])([H])[H])C([H])([H])[H])C(C([H])([H])[H])(C([H])([H])[H])C([H])([H])[H])C([H])([H])c2c([H])c(OC([H])([H])C([H])(C(=O)N3C([H])([H])C([H])([H])C([H])(C([H])(N([H])C(=O)N4C([H])([H])C([H])([H])C([H])([H])C([H])(n5nc(-c6c([H])c([H])c(Oc7c([H])c([H])c(F)c([H])c7F)c([H])c6[H])c(C(=O)N([H])[H])c5N([H])[H])C4([H])[H])C([H])([H])[H])C([H])([H])C3([H])[H])[N+]([H])([H])[H])c([H])c([H])c2C1([H])[H]

>  <smiles>  (69) 
[H]c1c([H])c([H])c2c(c1[H])C([H])([H])C([H])([H])C([H])([H])C2([H])N([H])C(=O)C1([H])N(C(=O)C([H])(N([H])C(=O)C([H])(N([H])C([H])([H])[H])C([H])([H])[H])C(C([H])([H])[H])(C([H])([H])[H])C([H])([H])[H])C([H])([H])c2c([H])c(OC([H])([H])C([H])(C(=O)N3C([H])([H])C([H])([H])C([H])(C([H])(N([H])C(=O)N4C([H])([H])C([H])([H])C([H])([H])C([H])(n5nc(-c6c([H])c([H])c(Oc7c([H])c([H])c(F)c([H])c7F)c([H])c6[H])c(C(=O)N([H])[H])c5N([H])[H])C4([H])[H])C([H])([H])[H])C([H])([H])C3([H])[H])[N+]([H])([H])[H])c([H])c([H])c2C1([H])[H]

$$$$
71:0:0
     RDKit          3D

101111  0  0  1  0  0  0  0  0999 V2000
  -31.1620  -24.9880   22.1170 C   0  0  0  0  0  0  0  0  0  0  0  0
  -30.8180  -23.7530   21.7250 N   0  0  0  0  0  0  0  0  0  0  0  0
  -31.1440  -25.3130   23.3090 O   0  0  0  0  0  0  0  0  0  0  0  0
  -30.8640  -23.5130   20.7440 H   0  0  0  0  0  0  0  0  0  0  0  0
  -31.9750  -27.3870   21.5440 C   0  0  0  0  0  2  0  0  0  0  0  0
  -30.9890  -27.9560   20.5360 C   0  0  0  0  0  2  0  0  0  0  0  0
  -31.5740  -25.9970   21.0290 C   0  0  0  0  0  3  0  0  0  0  0  0
  -30.3940  -26.6210   20.4270 N   0  0  2  0  0  4  0  0  0  0  0  0
  -29.6220  -26.5090   21.0670 H   0  0  0  0  0  0  0  0  0  0  0  0
  -30.0380  -26.1980   19.0490 C   0  0  0  0  0  2  0  0  0  0  0  0
  -28.8100  -26.9670   18.5520 C   0  0  0  0  0  2  0  0  0  0  0  0
  -27.7080  -26.4590   19.2920 O   0  0  0  0  0  0  0  0  0  0  0  0
  -24.7230  -31.5990   23.2090 C   0  0  0  0  0  0  0  0  0  0  0  0
  -26.6580  -27.3170   19.4850 C   0  0  0  0  0  0  0  0  0  0  0  0
  -23.2450  -30.4720   21.5730 C   0  0  0  0  0  3  0  0  0  0  0  0
  -24.4120  -28.9680   19.8780 C   0  0  0  0  0  0  0  0  0  0  0  0
  -25.7580  -30.6520   21.1530 C   0  0  0  0  0  2  0  0  0  0  0  0
  -25.6590  -29.3500   20.3900 C   0  0  0  0  0  0  0  0  0  0  0  0
  -26.7890  -28.5290   20.1960 C   0  0  0  0  0  3  0  0  0  0  0  0
  -25.3970  -26.9310   18.9940 C   0  0  0  0  0  3  0  0  0  0  0  0
  -24.2720  -27.7580   19.1780 C   0  0  0  0  0  3  0  0  0  0  0  0
  -23.2590  -29.9130   20.1240 C   0  0  0  0  0  2  0  0  0  0  0  0
  -24.5990  -30.9150   22.0360 N   0  0  0  0  0  0  0  0  0  0  0  0
  -23.7270  -31.9030   23.8790 O   0  0  0  0  0  0  0  0  0  0  0  0
  -22.5940  -29.4210   22.5000 C   0  0  0  0  0  0  0  0  0  0  0  0
  -21.2570  -29.3140   22.4320 N   0  0  0  0  0  0  0  0  0  0  0  0
  -23.2840  -28.7040   23.2320 O   0  0  0  0  0  0  0  0  0  0  0  0
  -20.7640  -29.9410   21.8120 H   0  0  0  0  0  0  0  0  0  0  0  0
  -17.8620  -28.2000   22.9570 C   0  0  0  0  0  0  0  0  0  0  0  0
  -20.4310  -28.3630   23.1770 C   0  0  0  0  0  3  0  0  0  0  0  0
  -20.4740  -26.9600   22.5290 C   0  0  0  0  0  2  0  0  0  0  0  0
  -19.3390  -26.7210   21.5290 C   0  0  0  0  0  2  0  0  0  0  0  0
  -17.9780  -26.8790   22.2150 C   0  0  0  0  0  2  0  0  0  0  0  0
  -19.0150  -28.9050   23.3940 C   0  0  0  0  0  0  0  0  0  0  0  0
  -18.8540  -30.1450   24.0470 C   0  0  0  0  0  3  0  0  0  0  0  0
  -17.5710  -30.6810   24.2690 C   0  0  0  0  0  3  0  0  0  0  0  0
  -16.4320  -29.9720   23.8490 C   0  0  0  0  0  3  0  0  0  0  0  0
  -16.5780  -28.7330   23.1970 C   0  0  0  0  0  3  0  0  0  0  0  0
  -26.1160  -32.0500   23.7550 C   0  0  0  0  0  3  0  0  0  0  0  0
  -25.9730  -33.4240   24.2500 N   0  0  0  0  0  0  0  0  0  0  0  0
  -26.3750  -34.5170   23.5880 C   0  0  0  0  0  0  0  0  0  0  0  0
  -26.9810  -34.4630   22.5140 O   0  0  0  0  0  0  0  0  0  0  0  0
  -25.4420  -33.5450   25.1010 H   0  0  0  0  0  0  0  0  0  0  0  0
  -24.8430  -36.5080   23.5060 C   0  0  0  0  0  1  0  0  0  0  0  0
  -26.0550  -35.8860   24.2180 C   0  0  0  0  0  3  0  0  0  0  0  0
  -28.2960  -36.4420   25.0560 C   0  0  0  0  0  1  0  0  0  0  0  0
  -27.1930  -36.8290   24.1800 N   0  0  0  0  0  0  0  0  0  0  0  0
  -26.8940  -37.7650   24.4410 H   0  0  0  0  0  0  0  0  0  0  0  0
  -26.6780  -31.1050   24.8870 C   0  0  1  0  0  0  0  0  0  0  0  0
  -25.6730  -30.8490   26.0350 C   0  0  0  0  0  1  0  0  0  0  0  0
  -27.0910  -29.7370   24.2970 C   0  0  0  0  0  1  0  0  0  0  0  0
  -27.9560  -31.7250   25.5010 C   0  0  0  0  0  1  0  0  0  0  0  0
  -31.4110  -21.5610   22.7830 C   0  0  0  0  0  2  0  0  0  0  0  0
  -29.4520  -21.6660   22.0630 C   0  0  0  0  0  2  0  0  0  0  0  0
  -30.4030  -22.7090   22.6570 C   0  0  0  0  0  3  0  0  0  0  0  0
  -30.2240  -20.7190   22.8660 N   0  0  0  0  0  0  0  0  0  0  0  0
  -30.2220  -18.9440   21.0610 C   0  0  0  0  0  3  0  0  0  0  0  0
  -30.3630  -17.5880   20.6930 C   0  0  0  0  0  3  0  0  0  0  0  0
  -30.8840  -17.0400   22.9940 C   0  0  0  0  0  3  0  0  0  0  0  0
  -30.3950  -19.3850   22.3990 C   0  0  0  0  0  0  0  0  0  0  0  0
  -30.6800  -16.6160   21.6690 C   0  0  0  0  0  0  0  0  0  0  0  0
  -30.7520  -18.3950   23.3460 C   0  0  0  0  0  0  0  0  0  0  0  0
  -30.9550  -18.7530   24.6390 F   0  0  0  0  0  0  0  0  0  0  0  0
  -31.0570  -14.5780   20.2830 C   0  0  0  0  0  0  0  0  0  0  0  0
  -30.6610  -12.5220   18.9680 C   0  0  0  0  0  2  0  0  0  0  0  0
  -29.6780  -12.7800   17.8100 C   0  0  0  0  0  2  0  0  0  0  0  0
  -28.2180  -12.6440   18.2790 C   0  0  0  0  0  2  0  0  0  0  0  0
  -27.9360  -13.4530   19.5710 C   0  0  0  0  0  3  0  0  0  0  0  0
  -29.0100  -13.1580   20.6400 C   0  0  0  0  0  2  0  0  0  0  0  0
  -30.3460  -13.4410   20.0720 N   0  0  0  0  0  0  0  0  0  0  0  0
  -32.0130  -14.9290   19.5820 O   0  0  0  0  0  0  0  0  0  0  0  0
  -30.7230  -15.2190   21.4120 N   0  0  0  0  0  0  0  0  0  0  0  0
  -30.1930  -14.6500   22.0540 H   0  0  0  0  0  0  0  0  0  0  0  0
  -25.5800  -14.0910   20.4020 C   0  0  0  0  0  0  0  0  0  0  0  0
  -24.5010  -13.3290   20.7610 C   0  0  0  0  0  0  0  0  0  0  0  0
  -24.9150  -11.9690   20.6260 C   0  0  0  0  0  0  0  0  0  0  0  0
  -26.5880  -13.1940   20.0770 N   0  0  0  0  0  0  0  0  0  0  0  0
  -26.1900  -11.9090   20.2650 N   0  0  0  0  0  0  0  0  0  0  0  0
  -24.1560  -10.7190   20.7650 C   0  0  0  0  0  0  0  0  0  0  0  0
  -24.4740   -9.7670   21.7580 C   0  0  0  0  0  3  0  0  0  0  0  0
  -23.7180   -8.5820   21.8820 C   0  0  0  0  0  3  0  0  0  0  0  0
  -22.6310   -8.3380   21.0110 C   0  0  0  0  0  0  0  0  0  0  0  0
  -22.3320   -9.2790   20.0090 C   0  0  0  0  0  3  0  0  0  0  0  0
  -23.0870  -10.4560   19.8830 C   0  0  0  0  0  3  0  0  0  0  0  0
  -21.8570   -7.2050   21.0410 O   0  0  0  0  0  0  0  0  0  0  0  0
  -21.5050   -6.6040   22.2230 C   0  0  0  0  0  0  0  0  0  0  0  0
  -20.8140   -7.3030   23.2360 C   0  0  0  0  0  3  0  0  0  0  0  0
  -20.4090   -6.6290   24.4070 C   0  0  0  0  0  3  0  0  0  0  0  0
  -20.6870   -5.2570   24.5620 C   0  0  0  0  0  0  0  0  0  0  0  0
  -21.3700   -4.5580   23.5510 C   0  0  0  0  0  3  0  0  0  0  0  0
  -21.7750   -5.2300   22.3850 C   0  0  0  0  0  0  0  0  0  0  0  0
  -22.4150   -4.5480   21.4050 F   0  0  0  0  0  0  0  0  0  0  0  0
  -20.2920   -4.6080   25.6810 F   0  0  0  0  0  0  0  0  0  0  0  0
  -23.1310  -13.8290   21.1200 C   0  0  0  0  0  0  0  0  0  0  0  0
  -22.4300  -13.1220   21.9990 N   0  0  0  0  0  0  0  0  0  0  0  0
  -22.6900  -14.8790   20.6530 O   0  0  0  0  0  0  0  0  0  0  0  0
  -22.7990  -12.2700   22.3980 H   0  0  0  0  0  0  0  0  0  0  0  0
  -21.5110  -13.4370   22.2800 H   0  0  0  0  0  0  0  0  0  0  0  0
  -25.7850  -15.4640   20.3060 N   0  0  0  0  0  0  0  0  0  0  0  0
  -25.0510  -16.1400   20.4880 H   0  0  0  0  0  0  0  0  0  0  0  0
  -26.6490  -15.8920   19.9960 H   0  0  0  0  0  0  0  0  0  0  0  0
  1  3  2  0
  2  1  1  0
  4  2  1  0
  6  5  1  0
  7  5  1  0
  7  1  1  0
  8  6  1  0
  8  7  1  0
  8  9  1  1
 10  8  1  0
 11 10  1  0
 11 12  1  0
 12 14  1  0
 13 24  2  0
 14 19  1  0
 15 23  1  0
 15 25  1  0
 16 22  1  0
 16 18  1  0
 17 23  1  0
 18 17  1  0
 19 18  2  0
 20 21  1  0
 20 14  2  0
 21 16  2  0
 22 15  1  0
 23 13  1  0
 25 27  2  0
 26 25  1  0
 28 26  1  0
 29 38  2  0
 29 34  1  0
 30 26  1  0
 30 34  1  0
 31 30  1  0
 32 33  1  0
 32 31  1  0
 33 29  1  0
 34 35  2  0
 35 36  1  0
 37 36  2  0
 38 37  1  0
 39 13  1  0
 39 40  1  0
 39 49  1  0
 40 43  1  0
 41 45  1  0
 41 40  1  0
 42 41  2  0
 45 44  1  0
 47 45  1  0
 47 48  1  0
 47 46  1  0
 49 52  1  1
 49 50  1  0
 51 49  1  0
 53 56  1  0
 54 55  1  0
 54 56  1  0
 55  2  1  0
 55 53  1  0
 57 60  1  0
 58 57  2  0
 58 61  1  0
 59 62  1  0
 60 56  1  0
 60 62  2  0
 61 59  2  0
 62 63  1  0
 64 72  1  0
 65 70  1  0
 66 67  1  0
 66 65  1  0
 68 67  1  0
 68 77  1  0
 68 69  1  0
 70 64  1  0
 70 69  1  0
 71 64  2  0
 72 61  1  0
 72 73  1  0
 74 75  2  0
 75 94  1  0
 76 75  1  0
 76 79  1  0
 77 78  1  0
 77 74  1  0
 78 76  2  0
 79 80  1  0
 80 81  2  0
 82 85  1  0
 82 81  1  0
 83 82  2  0
 84 83  1  0
 84 79  2  0
 85 86  1  0
 86 91  2  0
 86 87  1  0
 87 88  2  0
 88 89  1  0
 89 93  1  0
 90 89  2  0
 91 90  1  0
 92 91  1  0
 94 95  1  0
 95 98  1  0
 95 97  1  0
 96 94  2  0
 99 74  1  0
 99100  1  0
101 99  1  0
M  ISO  4  11 101  12 101  64 100  72 100
M  END
>  <TORSDO>  (70) 
F 21

>  <SCORE>  (70) 
-8.974

>  <name>  (70) 
71

>  <ligand_id>  (70) 
71

>  <original_smiles>  (70) 
[H]c1c([H])c([H])c2c(c1[H])C([H])([H])C([H])([H])C([H])([H])C2([H])N([H])C(=O)C1([H])N(C(=O)C([H])(N([H])C(=O)C([H])(N([H])C([H])([H])[H])C([H])([H])[H])C(C([H])([H])[H])(C([H])([H])[H])C([H])([H])[H])C([H])([H])c2c([H])c(OC([H])([H])C([H])([H])[N+]3([H])C([H])([H])C([H])([H])C3([H])C(=O)N([H])C3([H])C([H])([H])N(c4c([H])c([H])c(N([H])C(=O)N5C([H])([H])C([H])([H])C([H])([H])C([H])(n6nc(-c7c([H])c([H])c(Oc8c([H])c([H])c(F)c([H])c8F)c([H])c7[H])c(C(=O)N([H])[H])c6N([H])[H])C5([H])[H])c([H])c4F)C3([H])[H])c([H])c([H])c2C1([H])[H]

>  <smiles>  (70) 
[H]c1c([H])c([H])c2c(c1[H])C([H])([H])C([H])([H])C([H])([H])C2([H])N([H])C(=O)C1([H])N(C(=O)C([H])(N([H])C(=O)C([H])(N([H])C([H])([H])[H])C([H])([H])[H])C(C([H])([H])[H])(C([H])([H])[H])C([H])([H])[H])C([H])([H])c2c([H])c(OC([H])([H])C([H])([H])[N+]3([H])C([H])([H])C([H])([H])C3([H])C(=O)N([H])C3([H])C([H])([H])N(c4c([H])c([H])c(N([H])C(=O)N5C([H])([H])C([H])([H])C([H])([H])C([H])(n6nc(-c7c([H])c([H])c(Oc8c([H])c([H])c(F)c([H])c8F)c([H])c7[H])c(C(=O)N([H])[H])c6N([H])[H])C5([H])[H])c([H])c4F)C3([H])[H])c([H])c([H])c2C1([H])[H]

$$$$
72:0:0
     RDKit          3D

 97105  0  0  1  0  0  0  0  0999 V2000
  -27.2620  -19.9490   19.7540 C   0  0  0  0  0  1  0  0  0  0  0  0
  -28.6240  -20.6620   19.5040 C   0  0  1  0  0  0  0  0  0  0  0  0
  -31.9200  -19.0640   18.1740 C   0  0  0  0  0  3  0  0  0  0  0  0
  -30.9110  -19.9990   18.4710 C   0  0  0  0  0  3  0  0  0  0  0  0
  -31.7620  -17.7040   18.4940 C   0  0  0  0  0  3  0  0  0  0  0  0
  -29.5610  -18.2020   19.4000 C   0  0  0  0  0  3  0  0  0  0  0  0
  -29.7030  -19.5950   19.0910 C   0  0  0  0  0  0  0  0  0  0  0  0
  -30.5740  -17.2450   19.1080 C   0  0  0  0  0  0  0  0  0  0  0  0
  -31.1880  -14.7920   19.3200 C   0  0  0  0  0  0  0  0  0  0  0  0
  -30.9810  -12.3840   18.8220 C   0  0  0  0  0  2  0  0  0  0  0  0
  -29.9670  -12.2260   17.6690 C   0  0  0  0  0  2  0  0  0  0  0  0
  -28.5270  -12.1410   18.2130 C   0  0  0  0  0  2  0  0  0  0  0  0
  -28.2080  -13.2640   19.2360 C   0  0  0  0  0  3  0  0  0  0  0  0
  -29.3310  -13.3890   20.2920 C   0  0  0  0  0  2  0  0  0  0  0  0
  -30.6000  -13.5910   19.5740 N   0  0  0  0  0  0  0  0  0  0  0  0
  -32.3040  -14.8760   18.7980 O   0  0  0  0  0  0  0  0  0  0  0  0
  -30.3840  -15.8720   19.4990 N   0  0  0  0  0  0  0  0  0  0  0  0
  -29.4690  -15.6370   19.8520 H   0  0  0  0  0  0  0  0  0  0  0  0
  -25.9790  -14.0260   20.2670 C   0  0  0  0  0  0  0  0  0  0  0  0
  -24.8920  -13.3250   20.7160 C   0  0  0  0  0  0  0  0  0  0  0  0
  -25.2140  -11.9440   20.5450 C   0  0  0  0  0  0  0  0  0  0  0  0
  -26.9000  -13.0750   19.8560 N   0  0  0  0  0  0  0  0  0  0  0  0
  -26.4500  -11.8140   20.0810 N   0  0  0  0  0  0  0  0  0  0  0  0
  -24.3980  -10.7390   20.7430 C   0  0  0  0  0  0  0  0  0  0  0  0
  -24.7640   -9.7450   21.6760 C   0  0  0  0  0  3  0  0  0  0  0  0
  -23.9530   -8.6040   21.8610 C   0  0  0  0  0  3  0  0  0  0  0  0
  -22.7620   -8.4510   21.1120 C   0  0  0  0  0  0  0  0  0  0  0  0
  -22.4160   -9.4330   20.1670 C   0  0  0  0  0  3  0  0  0  0  0  0
  -23.2260  -10.5650   19.9810 C   0  0  0  0  0  3  0  0  0  0  0  0
  -21.9260   -7.3640   21.2060 O   0  0  0  0  0  0  0  0  0  0  0  0
  -21.7180   -6.7180   22.3980 C   0  0  0  0  0  0  0  0  0  0  0  0
  -21.1940   -7.3850   23.5270 C   0  0  0  0  0  3  0  0  0  0  0  0
  -20.9320   -6.6660   24.7100 C   0  0  0  0  0  3  0  0  0  0  0  0
  -21.1830   -5.2820   24.7650 C   0  0  0  0  0  0  0  0  0  0  0  0
  -21.7020   -4.6150   23.6400 C   0  0  0  0  0  3  0  0  0  0  0  0
  -21.9660   -5.3310   22.4590 C   0  0  0  0  0  0  0  0  0  0  0  0
  -22.4450   -4.6810   21.3720 F   0  0  0  0  0  0  0  0  0  0  0  0
  -20.9260   -4.5890   25.8990 F   0  0  0  0  0  0  0  0  0  0  0  0
  -23.5860  -13.9040   21.1800 C   0  0  0  0  0  0  0  0  0  0  0  0
  -22.9060  -13.2260   22.0980 N   0  0  0  0  0  0  0  0  0  0  0  0
  -23.1850  -14.9900   20.7660 O   0  0  0  0  0  0  0  0  0  0  0  0
  -23.2420  -12.3440   22.4560 H   0  0  0  0  0  0  0  0  0  0  0  0
  -22.0340  -13.5970   22.4490 H   0  0  0  0  0  0  0  0  0  0  0  0
  -26.2530  -15.3860   20.1520 N   0  0  0  0  0  0  0  0  0  0  0  0
  -25.5540  -16.0900   20.3660 H   0  0  0  0  0  0  0  0  0  0  0  0
  -27.0620  -15.7630   19.6770 H   0  0  0  0  0  0  0  0  0  0  0  0
  -28.3610  -21.7010   18.3310 C   0  0  0  0  0  0  0  0  0  0  0  0
  -28.5980  -23.0310   18.4770 N   0  0  0  0  0  0  0  0  0  0  0  0
  -27.8950  -21.2870   17.2670 O   0  0  0  0  0  0  0  0  0  0  0  0
  -29.0250  -23.3750   19.3240 H   0  0  0  0  0  0  0  0  0  0  0  0
  -28.2170  -24.0760   17.5000 C   0  0  0  0  0  2  0  0  0  0  0  0
  -28.2100  -25.5060   18.1140 C   0  0  0  0  0  2  0  0  0  0  0  0
  -27.7890  -26.5540   17.2110 O   0  0  0  0  0  0  0  0  0  0  0  0
  -24.6320  -30.7280   22.0610 C   0  0  0  0  0  0  0  0  0  0  0  0
  -26.6540  -27.2410   17.5900 C   0  0  0  0  0  0  0  0  0  0  0  0
  -23.1410  -29.6840   20.3870 C   0  0  0  0  0  3  0  0  0  0  0  0
  -24.3020  -28.5930   18.3920 C   0  0  0  0  0  0  0  0  0  0  0  0
  -25.5790  -30.2070   19.8130 C   0  0  0  0  0  2  0  0  0  0  0  0
  -25.5500  -29.0260   18.8610 C   0  0  0  0  0  0  0  0  0  0  0  0
  -26.7310  -28.3630   18.4500 C   0  0  0  0  0  3  0  0  0  0  0  0
  -25.3900  -26.8250   17.1210 C   0  0  0  0  0  3  0  0  0  0  0  0
  -24.2180  -27.4960   17.5180 C   0  0  0  0  0  3  0  0  0  0  0  0
  -23.0850  -29.3540   18.8700 C   0  0  0  0  0  2  0  0  0  0  0  0
  -24.4790  -30.2090   20.8090 N   0  0  0  0  0  0  0  0  0  0  0  0
  -23.6740  -30.8130   22.8420 O   0  0  0  0  0  0  0  0  0  0  0  0
  -22.6920  -28.4380   21.1830 C   0  0  0  0  0  0  0  0  0  0  0  0
  -21.3750  -28.1770   21.1960 N   0  0  0  0  0  0  0  0  0  0  0  0
  -23.5200  -27.7180   21.7470 O   0  0  0  0  0  0  0  0  0  0  0  0
  -20.7610  -28.8230   20.7200 H   0  0  0  0  0  0  0  0  0  0  0  0
  -18.1940  -26.5460   21.7290 C   0  0  0  0  0  0  0  0  0  0  0  0
  -20.7300  -27.0350   21.8450 C   0  0  0  0  0  3  0  0  0  0  0  0
  -20.9130  -25.7460   21.0130 C   0  0  0  0  0  2  0  0  0  0  0  0
  -19.7550  -25.4820   20.0450 C   0  0  0  0  0  2  0  0  0  0  0  0
  -18.4340  -25.3590   20.8110 C   0  0  0  0  0  2  0  0  0  0  0  0
  -19.2710  -27.3410   22.2020 C   0  0  0  0  0  0  0  0  0  0  0  0
  -18.9890  -28.4540   23.0250 C   0  0  0  0  0  3  0  0  0  0  0  0
  -17.6650  -28.7730   23.3770 C   0  0  0  0  0  3  0  0  0  0  0  0
  -16.6050  -27.9730   22.9180 C   0  0  0  0  0  3  0  0  0  0  0  0
  -16.8710  -26.8600   22.1000 C   0  0  0  0  0  3  0  0  0  0  0  0
  -26.0110  -31.2630   22.5620 C   0  0  0  0  0  3  0  0  0  0  0  0
  -25.7520  -32.4380   23.4040 N   0  0  0  0  0  0  0  0  0  0  0  0
  -25.9690  -33.7050   23.0280 C   0  0  0  0  0  0  0  0  0  0  0  0
  -26.4840  -34.0030   21.9460 O   0  0  0  0  0  0  0  0  0  0  0  0
  -25.2790  -32.2710   24.2800 H   0  0  0  0  0  0  0  0  0  0  0  0
  -24.2250  -35.4400   23.5380 C   0  0  0  0  0  1  0  0  0  0  0  0
  -25.5500  -34.8180   24.0070 C   0  0  0  0  0  3  0  0  0  0  0  0
  -27.7730  -35.4210   24.8570 C   0  0  0  0  0  1  0  0  0  0  0  0
  -26.5720  -35.8780   24.1650 N   0  0  0  0  0  0  0  0  0  0  0  0
  -26.1920  -36.6710   24.6760 H   0  0  0  0  0  0  0  0  0  0  0  0
  -26.8460  -30.1830   23.3520 C   0  0  1  0  0  0  0  0  0  0  0  0
  -26.0550  -29.4990   24.4910 C   0  0  0  0  0  1  0  0  0  0  0  0
  -27.3500  -29.0770   22.3960 C   0  0  0  0  0  1  0  0  0  0  0  0
  -28.1040  -30.8400   23.9670 C   0  0  0  0  0  1  0  0  0  0  0  0
  -27.9910  -22.1470   21.4710 C   0  0  0  0  0  1  0  0  0  0  0  0
  -29.8470  -20.5880   21.7330 C   0  0  0  0  0  1  0  0  0  0  0  0
  -29.0610  -21.3920   20.7570 N   0  0  1  0  0  4  0  0  0  0  0  0
  -29.7190  -22.0790   20.4250 H   0  0  0  0  0  0  0  0  0  0  0  0
  2  1  1  1
  2 96  1  0
  3  4  2  0
  3  5  1  0
  4  7  1  0
  5  8  2  0
  7  6  2  0
  7  2  1  0
  8  6  1  0
  8 17  1  0
  9 17  1  0
  9 15  1  0
 10 15  1  0
 11 12  1  0
 11 10  1  0
 13 12  1  0
 13 22  1  0
 13 14  1  0
 15 14  1  0
 16  9  2  0
 17 18  1  0
 19 20  2  0
 20 39  1  0
 21 20  1  0
 21 24  1  0
 22 23  1  0
 22 19  1  0
 23 21  2  0
 24 25  1  0
 25 26  2  0
 27 30  1  0
 27 26  1  0
 28 27  2  0
 29 28  1  0
 29 24  2  0
 30 31  1  0
 31 36  2  0
 31 32  1  0
 32 33  2  0
 33 34  1  0
 34 38  1  0
 35 34  2  0
 36 35  1  0
 37 36  1  0
 39 40  1  0
 40 43  1  0
 40 42  1  0
 41 39  2  0
 44 19  1  0
 44 45  1  0
 46 44  1  0
 47 48  1  0
 47  2  1  0
 48 50  1  0
 49 47  2  0
 51 52  1  0
 51 48  1  0
 53 55  1  0
 53 52  1  0
 54 65  2  0
 55 60  1  0
 56 64  1  0
 56 66  1  0
 57 59  1  0
 57 63  1  0
 58 64  1  0
 59 58  1  0
 60 59  2  0
 61 62  1  0
 61 55  2  0
 62 57  2  0
 63 56  1  0
 64 54  1  0
 66 67  1  0
 66 68  2  0
 69 67  1  0
 70 79  2  0
 70 75  1  0
 71 67  1  0
 71 75  1  0
 72 71  1  0
 73 74  1  0
 73 72  1  0
 74 70  1  0
 75 76  2  0
 76 77  1  0
 78 77  2  0
 79 78  1  0
 80 54  1  0
 80 90  1  0
 80 81  1  0
 81 84  1  0
 82 81  1  0
 82 86  1  0
 83 82  2  0
 86 85  1  0
 86 88  1  0
 88 89  1  0
 88 87  1  0
 90 93  1  1
 90 91  1  0
 92 90  1  0
 96 94  1  0
 96 95  1  0
 96 97  1  6
M  ISO  4   9 100  17 100  52 101  53 101
M  END
>  <TORSDO>  (71) 
F 21

>  <SCORE>  (71) 
-9.346

>  <name>  (71) 
72

>  <ligand_id>  (71) 
72

>  <original_smiles>  (71) 
[H]c1c([H])c([H])c2c(c1[H])C([H])([H])C([H])([H])C([H])([H])C2([H])N([H])C(=O)C1([H])N(C(=O)C([H])(N([H])C(=O)C([H])(N([H])C([H])([H])[H])C([H])([H])[H])C(C([H])([H])[H])(C([H])([H])[H])C([H])([H])[H])C([H])([H])c2c([H])c(OC([H])([H])C([H])([H])N([H])C(=O)C(c3c([H])c([H])c([H])c(N([H])C(=O)N4C([H])([H])C([H])([H])C([H])([H])C([H])(n5nc(-c6c([H])c([H])c(Oc7c([H])c([H])c(F)c([H])c7F)c([H])c6[H])c(C(=O)N([H])[H])c5N([H])[H])C4([H])[H])c3[H])(C([H])([H])[H])[N+]([H])(C([H])([H])[H])C([H])([H])[H])c([H])c([H])c2C1([H])[H]

>  <smiles>  (71) 
[H]c1c([H])c([H])c2c(c1[H])C([H])([H])C([H])([H])C([H])([H])C2([H])N([H])C(=O)C1([H])N(C(=O)C([H])(N([H])C(=O)C([H])(N([H])C([H])([H])[H])C([H])([H])[H])C(C([H])([H])[H])(C([H])([H])[H])C([H])([H])[H])C([H])([H])c2c([H])c(OC([H])([H])C([H])([H])N([H])C(=O)C(c3c([H])c([H])c([H])c(N([H])C(=O)N4C([H])([H])C([H])([H])C([H])([H])C([H])(n5nc(-c6c([H])c([H])c(Oc7c([H])c([H])c(F)c([H])c7F)c([H])c6[H])c(C(=O)N([H])[H])c5N([H])[H])C4([H])[H])c3[H])(C([H])([H])[H])[N+]([H])(C([H])([H])[H])C([H])([H])[H])c([H])c([H])c2C1([H])[H]

$$$$
73:0:0
     RDKit          3D

 98106  0  0  1  0  0  0  0  0999 V2000
  -31.4700  -21.0930   18.2720 C   0  0  0  0  0  1  0  0  0  0  0  0
  -31.0260  -20.6840   19.7120 C   0  0  1  0  0  0  0  0  0  0  0  0
  -28.3250  -18.2060   18.4440 C   0  0  0  0  0  3  0  0  0  0  0  0
  -29.0760  -19.3690   18.6810 C   0  0  0  0  0  3  0  0  0  0  0  0
  -28.6400  -17.0090   19.1020 C   0  0  0  0  0  3  0  0  0  0  0  0
  -30.4030  -18.1490   20.3250 C   0  0  0  0  0  3  0  0  0  0  0  0
  -30.1470  -19.3770   19.6070 C   0  0  0  0  0  0  0  0  0  0  0  0
  -29.6820  -16.9430   20.0540 C   0  0  0  0  0  0  0  0  0  0  0  0
  -30.5960  -14.6270   20.3880 C   0  0  0  0  0  0  0  0  0  0  0  0
  -30.3310  -12.3980   19.3500 C   0  0  0  0  0  2  0  0  0  0  0  0
  -29.3790  -12.5160   18.1420 C   0  0  0  0  0  2  0  0  0  0  0  0
  -27.9100  -12.3820   18.5810 C   0  0  0  0  0  2  0  0  0  0  0  0
  -27.5640  -13.2430   19.8250 C   0  0  0  0  0  3  0  0  0  0  0  0
  -28.6330  -13.1130   20.9320 C   0  0  0  0  0  2  0  0  0  0  0  0
  -29.9460  -13.4220   20.3390 N   0  0  0  0  0  0  0  0  0  0  0  0
  -31.7490  -14.7640   19.9720 O   0  0  0  0  0  0  0  0  0  0  0  0
  -29.8670  -15.7040   20.7850 N   0  0  0  0  0  0  0  0  0  0  0  0
  -29.0400  -15.4130   21.2860 H   0  0  0  0  0  0  0  0  0  0  0  0
  -25.1710  -13.8650   20.5270 C   0  0  0  0  0  0  0  0  0  0  0  0
  -24.0980  -13.0950   20.8920 C   0  0  0  0  0  0  0  0  0  0  0  0
  -24.5580  -11.7420   20.8710 C   0  0  0  0  0  0  0  0  0  0  0  0
  -26.2130  -12.9780   20.3070 N   0  0  0  0  0  0  0  0  0  0  0  0
  -25.8500  -11.6980   20.5730 N   0  0  0  0  0  0  0  0  0  0  0  0
  -23.8290  -10.4820   21.0590 C   0  0  0  0  0  0  0  0  0  0  0  0
  -24.2600   -9.5140   21.9930 C   0  0  0  0  0  3  0  0  0  0  0  0
  -23.5290   -8.3190   22.1700 C   0  0  0  0  0  3  0  0  0  0  0  0
  -22.3560   -8.0860   21.4160 C   0  0  0  0  0  0  0  0  0  0  0  0
  -21.9470   -9.0420   20.4670 C   0  0  0  0  0  3  0  0  0  0  0  0
  -22.6780  -10.2260   20.2870 C   0  0  0  0  0  3  0  0  0  0  0  0
  -21.6000   -6.9440   21.5070 O   0  0  0  0  0  0  0  0  0  0  0  0
  -21.5500   -6.2030   22.6610 C   0  0  0  0  0  0  0  0  0  0  0  0
  -21.1280   -6.7570   23.8860 C   0  0  0  0  0  3  0  0  0  0  0  0
  -21.0200   -5.9430   25.0300 C   0  0  0  0  0  3  0  0  0  0  0  0
  -21.3320   -4.5710   24.9480 C   0  0  0  0  0  0  0  0  0  0  0  0
  -21.7490   -4.0160   23.7270 C   0  0  0  0  0  3  0  0  0  0  0  0
  -21.8540   -4.8270   22.5860 C   0  0  0  0  0  0  0  0  0  0  0  0
  -22.2360   -4.2800   21.4050 F   0  0  0  0  0  0  0  0  0  0  0  0
  -21.2220   -3.7840   26.0430 F   0  0  0  0  0  0  0  0  0  0  0  0
  -22.7010  -13.5730   21.1500 C   0  0  0  0  0  0  0  0  0  0  0  0
  -21.9650  -12.8840   22.0130 N   0  0  0  0  0  0  0  0  0  0  0  0
  -22.2680  -14.5990   20.6210 O   0  0  0  0  0  0  0  0  0  0  0  0
  -22.3320  -12.0630   22.4730 H   0  0  0  0  0  0  0  0  0  0  0  0
  -21.0220  -13.1840   22.2180 H   0  0  0  0  0  0  0  0  0  0  0  0
  -25.3320  -15.2330   20.3430 N   0  0  0  0  0  0  0  0  0  0  0  0
  -24.5580  -15.8750   20.4680 H   0  0  0  0  0  0  0  0  0  0  0  0
  -26.1690  -15.6890   20.0010 H   0  0  0  0  0  0  0  0  0  0  0  0
  -33.2310  -19.4430   19.8570 C   0  0  0  0  0  1  0  0  0  0  0  0
  -32.9980  -21.4960   21.1620 C   0  0  0  0  0  1  0  0  0  0  0  0
  -32.2620  -20.3630   20.5300 N   0  0  1  0  0  4  0  0  0  0  0  0
  -31.8910  -19.8430   21.3130 H   0  0  0  0  0  0  0  0  0  0  0  0
  -30.2230  -21.8920   20.3800 C   0  0  0  0  0  0  0  0  0  0  0  0
  -29.9620  -21.8640   21.5890 O   0  0  0  0  0  0  0  0  0  0  0  0
  -29.7350  -23.1090   19.5230 C   0  0  0  0  0  2  0  0  0  0  0  0
  -29.3340  -24.3110   20.3310 N   0  0  0  0  0  4  0  0  0  0  0  0
  -30.1500  -24.6660   20.7970 H   0  0  0  0  0  0  0  0  0  0  0  0
  -28.6990  -24.0050   21.0510 H   0  0  0  0  0  0  0  0  0  0  0  0
  -28.6420  -25.4890   19.4460 C   0  0  0  0  0  2  0  0  0  0  0  0
  -28.4470  -26.6520   20.2490 O   0  0  0  0  0  0  0  0  0  0  0  0
  -24.6170  -31.8800   23.2600 C   0  0  0  0  0  0  0  0  0  0  0  0
  -27.2660  -27.3950   20.1770 C   0  0  0  0  0  0  0  0  0  0  0  0
  -23.4120  -30.4860   21.6080 C   0  0  0  0  0  3  0  0  0  0  0  0
  -24.8710  -28.9510   20.1830 C   0  0  0  0  0  0  0  0  0  0  0  0
  -25.9460  -30.8240   21.4310 C   0  0  0  0  0  2  0  0  0  0  0  0
  -26.0300  -29.4520   20.7830 C   0  0  0  0  0  0  0  0  0  0  0  0
  -27.2210  -28.6820   20.7840 C   0  0  0  0  0  3  0  0  0  0  0  0
  -26.0730  -26.9260   19.5690 C   0  0  0  0  0  3  0  0  0  0  0  0
  -24.8880  -27.6850   19.5820 C   0  0  0  0  0  3  0  0  0  0  0  0
  -23.6310  -29.8190   20.2250 C   0  0  0  0  0  2  0  0  0  0  0  0
  -24.6750  -31.0790   22.1580 N   0  0  0  0  0  0  0  0  0  0  0  0
  -23.5330  -32.1550   23.7950 O   0  0  0  0  0  0  0  0  0  0  0  0
  -22.7540  -29.4630   22.5610 C   0  0  0  0  0  0  0  0  0  0  0  0
  -21.4310  -29.2780   22.4240 N   0  0  0  0  0  0  0  0  0  0  0  0
  -23.4320  -28.8400   23.3830 O   0  0  0  0  0  0  0  0  0  0  0  0
  -20.9420  -29.8260   21.7300 H   0  0  0  0  0  0  0  0  0  0  0  0
  -18.0590  -28.0800   22.9120 C   0  0  0  0  0  0  0  0  0  0  0  0
  -20.6150  -28.3410   23.1950 C   0  0  0  0  0  3  0  0  0  0  0  0
  -20.7210  -26.9110   22.6190 C   0  0  0  0  0  2  0  0  0  0  0  0
  -19.6270  -26.5870   21.5970 C   0  0  0  0  0  2  0  0  0  0  0  0
  -18.2410  -26.7310   22.2340 C   0  0  0  0  0  2  0  0  0  0  0  0
  -19.1750  -28.8420   23.3490 C   0  0  0  0  0  0  0  0  0  0  0  0
  -18.9530  -30.1020   23.9440 C   0  0  0  0  0  3  0  0  0  0  0  0
  -17.6490  -30.6050   24.1000 C   0  0  0  0  0  3  0  0  0  0  0  0
  -16.5470  -29.8430   23.6780 C   0  0  0  0  0  3  0  0  0  0  0  0
  -16.7530  -28.5800   23.0930 C   0  0  0  0  0  3  0  0  0  0  0  0
  -25.9020  -32.5050   23.8830 C   0  0  0  0  0  3  0  0  0  0  0  0
  -25.5990  -33.9050   24.2060 N   0  0  0  0  0  0  0  0  0  0  0  0
  -25.9310  -34.9510   23.4380 C   0  0  0  0  0  0  0  0  0  0  0  0
  -26.5990  -34.8400   22.4070 O   0  0  0  0  0  0  0  0  0  0  0  0
  -25.0080  -34.0660   25.0070 H   0  0  0  0  0  0  0  0  0  0  0  0
  -24.2040  -36.7430   23.0720 C   0  0  0  0  0  1  0  0  0  0  0  0
  -25.4450  -36.3430   23.8870 C   0  0  0  0  0  3  0  0  0  0  0  0
  -27.5790  -37.2280   24.7140 C   0  0  0  0  0  1  0  0  0  0  0  0
  -26.4780  -37.3950   23.7710 N   0  0  0  0  0  0  0  0  0  0  0  0
  -26.0720  -38.3150   23.9180 H   0  0  0  0  0  0  0  0  0  0  0  0
  -26.4110  -31.7370   25.1640 C   0  0  1  0  0  0  0  0  0  0  0  0
  -25.3120  -31.5100   26.2260 C   0  0  0  0  0  1  0  0  0  0  0  0
  -26.9910  -30.3540   24.7820 C   0  0  0  0  0  1  0  0  0  0  0  0
  -27.5630  -32.5270   25.8280 C   0  0  0  0  0  1  0  0  0  0  0  0
  2  1  1  6
  2 51  1  0
  2 49  1  0
  3  4  2  0
  3  5  1  0
  4  7  1  0
  5  8  2  0
  7  2  1  0
  7  6  2  0
  8  6  1  0
  8 17  1  0
  9 17  1  0
 10 15  1  0
 11 12  1  0
 11 10  1  0
 13 12  1  0
 13 22  1  0
 13 14  1  0
 15  9  1  0
 15 14  1  0
 16  9  2  0
 17 18  1  0
 19 20  2  0
 20 39  1  0
 21 20  1  0
 21 24  1  0
 22 19  1  0
 22 23  1  0
 23 21  2  0
 24 25  1  0
 25 26  2  0
 27 30  1  0
 27 26  1  0
 28 27  2  0
 29 28  1  0
 29 24  2  0
 30 31  1  0
 31 32  1  0
 32 33  2  0
 34 33  1  0
 34 38  1  0
 35 34  2  0
 36 31  2  0
 36 35  1  0
 37 36  1  0
 39 40  1  0
 40 43  1  0
 40 42  1  0
 41 39  2  0
 44 45  1  0
 44 19  1  0
 46 44  1  0
 47 49  1  0
 49 48  1  0
 49 50  1  1
 51 52  2  0
 53 54  1  0
 53 51  1  0
 54 55  1  0
 54 56  1  0
 57 58  1  0
 57 54  1  0
 59 70  2  0
 60 58  1  0
 60 65  1  0
 61 69  1  0
 61 71  1  0
 62 68  1  0
 62 64  1  0
 63 69  1  0
 64 65  2  0
 64 63  1  0
 66 67  1  0
 66 60  2  0
 67 62  2  0
 68 61  1  0
 69 59  1  0
 71 73  2  0
 72 71  1  0
 74 72  1  0
 75 84  2  0
 75 80  1  0
 76 72  1  0
 76 80  1  0
 77 76  1  0
 78 79  1  0
 78 77  1  0
 79 75  1  0
 80 81  2  0
 81 82  1  0
 83 82  2  0
 84 83  1  0
 85 59  1  0
 85 86  1  0
 85 95  1  0
 86 89  1  0
 87 91  1  0
 87 86  1  0
 88 87  2  0
 91 90  1  0
 93 91  1  0
 93 94  1  0
 93 92  1  0
 95 98  1  1
 95 96  1  0
 97 95  1  0
M  ISO  4   9 100  17 100  57 101  58 101
M  END
>  <TORSDO>  (72) 
F 22

>  <SCORE>  (72) 
-13.391

>  <name>  (72) 
73

>  <ligand_id>  (72) 
73

>  <original_smiles>  (72) 
[H]c1c([H])c([H])c2c(c1[H])C([H])([H])C([H])([H])C([H])([H])C2([H])N([H])C(=O)C1([H])N(C(=O)C([H])(N([H])C(=O)C([H])(N([H])C([H])([H])[H])C([H])([H])[H])C(C([H])([H])[H])(C([H])([H])[H])C([H])([H])[H])C([H])([H])c2c([H])c(OC([H])([H])[N+]([H])([H])C([H])([H])C(=O)C(c3c([H])c([H])c([H])c(N([H])C(=O)N4C([H])([H])C([H])([H])C([H])([H])C([H])(n5nc(-c6c([H])c([H])c(Oc7c([H])c([H])c(F)c([H])c7F)c([H])c6[H])c(C(=O)N([H])[H])c5N([H])[H])C4([H])[H])c3[H])(C([H])([H])[H])[N+]([H])(C([H])([H])[H])C([H])([H])[H])c([H])c([H])c2C1([H])[H]

>  <smiles>  (72) 
[H]c1c([H])c([H])c2c(c1[H])C([H])([H])C([H])([H])C([H])([H])C2([H])N([H])C(=O)C1([H])N(C(=O)C([H])(N([H])C(=O)C([H])(N([H])C([H])([H])[H])C([H])([H])[H])C(C([H])([H])[H])(C([H])([H])[H])C([H])([H])[H])C([H])([H])c2c([H])c(OC([H])([H])[N+]([H])([H])C([H])([H])C(=O)C(c3c([H])c([H])c([H])c(N([H])C(=O)N4C([H])([H])C([H])([H])C([H])([H])C([H])(n5nc(-c6c([H])c([H])c(Oc7c([H])c([H])c(F)c([H])c7F)c([H])c6[H])c(C(=O)N([H])[H])c5N([H])[H])C4([H])[H])c3[H])(C([H])([H])[H])[N+]([H])(C([H])([H])[H])C([H])([H])[H])c([H])c([H])c2C1([H])[H]

$$$$
74:0:0
     RDKit          3D

 96105  0  0  1  0  0  0  0  0999 V2000
  -30.5440  -21.1480   20.3700 C   0  0  0  0  0  0  0  0  0  0  0  0
  -30.7890  -19.8230   20.4450 N   0  0  0  0  0  0  0  0  0  0  0  0
  -31.4800  -21.9380   20.4940 O   0  0  0  0  0  0  0  0  0  0  0  0
  -31.7620  -19.5910   20.5940 H   0  0  0  0  0  0  0  0  0  0  0  0
  -30.8710  -14.5090   19.8700 C   0  0  0  0  0  0  0  0  0  0  0  0
  -30.4210  -12.3960   18.6800 C   0  0  0  0  0  2  0  0  0  0  0  0
  -29.3710  -12.6370   17.5780 C   0  0  0  0  0  2  0  0  0  0  0  0
  -27.9500  -12.4690   18.1460 C   0  0  0  0  0  2  0  0  0  0  0  0
  -27.7270  -13.2650   19.4600 C   0  0  0  0  0  3  0  0  0  0  0  0
  -28.8900  -13.0520   20.4570 C   0  0  0  0  0  2  0  0  0  0  0  0
  -30.1500  -13.3570   19.7620 N   0  0  0  0  0  0  0  0  0  0  0  0
  -32.0060  -14.6250   19.4020 O   0  0  0  0  0  0  0  0  0  0  0  0
  -29.9760  -17.8390   19.1590 C   0  0  0  0  0  2  0  0  0  0  0  0
  -29.4370  -16.4020   19.3560 C   0  0  0  0  0  2  0  0  0  0  0  0
  -30.8640  -16.4220   21.3880 C   0  0  0  0  0  2  0  0  0  0  0  0
  -29.8750  -18.6720   20.4570 C   0  0  0  0  0  3  0  0  0  0  0  0
  -30.1640  -17.7750   21.6950 C   0  0  0  0  0  3  0  0  0  0  0  0
  -30.2180  -15.6070   20.3320 N   0  0  0  0  0  0  0  0  0  0  0  0
  -25.4040  -13.8330   20.4050 C   0  0  0  0  0  0  0  0  0  0  0  0
  -24.3760  -13.0420   20.8440 C   0  0  0  0  0  0  0  0  0  0  0  0
  -24.8400  -11.6960   20.7360 C   0  0  0  0  0  0  0  0  0  0  0  0
  -26.4270  -12.9640   20.0570 N   0  0  0  0  0  0  0  0  0  0  0  0
  -26.0980  -11.6740   20.3150 N   0  0  0  0  0  0  0  0  0  0  0  0
  -24.1400  -10.4240   20.9550 C   0  0  0  0  0  0  0  0  0  0  0  0
  -24.6020   -9.4750   21.8940 C   0  0  0  0  0  3  0  0  0  0  0  0
  -23.9000   -8.2680   22.0930 C   0  0  0  0  0  3  0  0  0  0  0  0
  -22.7230   -8.0010   21.3560 C   0  0  0  0  0  0  0  0  0  0  0  0
  -22.2780   -8.9360   20.4060 C   0  0  0  0  0  3  0  0  0  0  0  0
  -22.9820  -10.1360   20.2030 C   0  0  0  0  0  3  0  0  0  0  0  0
  -21.9910   -6.8430   21.4700 O   0  0  0  0  0  0  0  0  0  0  0  0
  -21.8890   -6.1680   22.6600 C   0  0  0  0  0  0  0  0  0  0  0  0
  -21.3560   -6.7770   23.8170 C   0  0  0  0  0  3  0  0  0  0  0  0
  -21.2040   -6.0260   24.9990 C   0  0  0  0  0  3  0  0  0  0  0  0
  -21.5760   -4.6690   25.0270 C   0  0  0  0  0  0  0  0  0  0  0  0
  -22.1060   -4.0610   23.8760 C   0  0  0  0  0  3  0  0  0  0  0  0
  -22.2580   -4.8080   22.6940 C   0  0  0  0  0  0  0  0  0  0  0  0
  -22.7480   -4.2130   21.5800 F   0  0  0  0  0  0  0  0  0  0  0  0
  -21.4240   -3.9450   26.1610 F   0  0  0  0  0  0  0  0  0  0  0  0
  -23.0080  -13.5050   21.2490 C   0  0  0  0  0  0  0  0  0  0  0  0
  -22.3680  -12.7950   22.1750 N   0  0  0  0  0  0  0  0  0  0  0  0
  -22.5120  -14.5260   20.7790 O   0  0  0  0  0  0  0  0  0  0  0  0
  -22.7800  -11.9700   22.5830 H   0  0  0  0  0  0  0  0  0  0  0  0
  -21.4510  -13.0900   22.4820 H   0  0  0  0  0  0  0  0  0  0  0  0
  -25.5410  -15.2100   20.2610 N   0  0  0  0  0  0  0  0  0  0  0  0
  -24.7880  -15.8480   20.4930 H   0  0  0  0  0  0  0  0  0  0  0  0
  -26.3750  -15.6810   19.9290 H   0  0  0  0  0  0  0  0  0  0  0  0
  -28.9510  -17.5000   22.3690 O   0  0  0  0  0  0  0  0  0  0  0  0
  -29.1530  -16.9780   23.1370 H   0  0  0  0  0  0  0  0  0  0  0  0
  -28.8580  -24.2350   20.2260 C   0  0  0  0  0  0  0  0  0  0  0  0
  -28.5400  -21.2480   18.7450 C   0  0  0  0  0  2  0  0  0  0  0  0
  -28.3370  -22.7110   18.3420 C   0  0  0  0  0  2  0  0  0  0  0  0
  -29.1260  -21.7050   20.0940 C   0  0  0  0  0  3  0  0  0  0  0  0
  -29.1340  -23.0580   19.5090 N   0  0  0  0  0  0  0  0  0  0  0  0
  -28.6620  -24.2190   21.4440 O   0  0  0  0  0  0  0  0  0  0  0  0
  -28.8160  -25.5580   19.4170 C   0  0  0  0  0  2  0  0  0  0  0  0
  -28.5620  -26.7190   20.2390 O   0  0  0  0  0  0  0  0  0  0  0  0
  -24.5720  -31.8330   23.1800 C   0  0  0  0  0  0  0  0  0  0  0  0
  -27.3510  -27.3900   20.1890 C   0  0  0  0  0  0  0  0  0  0  0  0
  -23.4200  -30.3960   21.5270 C   0  0  0  0  0  3  0  0  0  0  0  0
  -24.9250  -28.8620   20.1520 C   0  0  0  0  0  0  0  0  0  0  0  0
  -25.9420  -30.7900   21.3770 C   0  0  0  0  0  2  0  0  0  0  0  0
  -26.0620  -29.4090   20.7570 C   0  0  0  0  0  0  0  0  0  0  0  0
  -27.2710  -28.6760   20.7800 C   0  0  0  0  0  3  0  0  0  0  0  0
  -26.1850  -26.8560   19.5920 C   0  0  0  0  0  3  0  0  0  0  0  0
  -24.9800  -27.5830   19.5740 C   0  0  0  0  0  3  0  0  0  0  0  0
  -23.6670  -29.7010   20.1600 C   0  0  0  0  0  2  0  0  0  0  0  0
  -24.6610  -31.0230   22.0850 N   0  0  0  0  0  0  0  0  0  0  0  0
  -23.4760  -32.0930   23.6960 O   0  0  0  0  0  0  0  0  0  0  0  0
  -22.7660  -29.3760   22.4870 C   0  0  0  0  0  0  0  0  0  0  0  0
  -21.4460  -29.1780   22.3380 N   0  0  0  0  0  0  0  0  0  0  0  0
  -23.4430  -28.7670   23.3190 O   0  0  0  0  0  0  0  0  0  0  0  0
  -20.9650  -29.7250   21.6380 H   0  0  0  0  0  0  0  0  0  0  0  0
  -18.0730  -27.9670   22.8010 C   0  0  0  0  0  0  0  0  0  0  0  0
  -20.6260  -28.2360   23.0980 C   0  0  0  0  0  3  0  0  0  0  0  0
  -20.7410  -26.8070   22.5230 C   0  0  0  0  0  2  0  0  0  0  0  0
  -19.6520  -26.4790   21.4970 C   0  0  0  0  0  2  0  0  0  0  0  0
  -18.2620  -26.6190   22.1270 C   0  0  0  0  0  2  0  0  0  0  0  0
  -19.1830  -28.7340   23.2410 C   0  0  0  0  0  0  0  0  0  0  0  0
  -18.9560  -29.9960   23.8300 C   0  0  0  0  0  3  0  0  0  0  0  0
  -17.6470  -30.4920   23.9850 C   0  0  0  0  0  3  0  0  0  0  0  0
  -16.5510  -29.7240   23.5580 C   0  0  0  0  0  3  0  0  0  0  0  0
  -16.7640  -28.4620   22.9740 C   0  0  0  0  0  3  0  0  0  0  0  0
  -25.8370  -32.4880   23.8190 C   0  0  0  0  0  3  0  0  0  0  0  0
  -26.3360  -31.7430   25.1170 C   0  0  1  0  0  0  0  0  0  0  0  0
  -25.2200  -31.5040   26.1590 C   0  0  0  0  0  1  0  0  0  0  0  0
  -26.9500  -30.3700   24.7560 C   0  0  0  0  0  1  0  0  0  0  0  0
  -27.4580  -32.5640   25.7950 C   0  0  0  0  0  1  0  0  0  0  0  0
  -25.5020  -33.8860   24.1200 N   0  0  0  0  0  0  0  0  0  0  0  0
  -25.8270  -34.9290   23.3440 C   0  0  0  0  0  0  0  0  0  0  0  0
  -26.5070  -34.8180   22.3200 O   0  0  0  0  0  0  0  0  0  0  0  0
  -24.8980  -34.0450   24.9120 H   0  0  0  0  0  0  0  0  0  0  0  0
  -24.0740  -36.6860   22.9400 C   0  0  0  0  0  1  0  0  0  0  0  0
  -25.3140  -36.3180   23.7700 C   0  0  0  0  0  3  0  0  0  0  0  0
  -27.4200  -37.2580   24.6110 C   0  0  0  0  0  1  0  0  0  0  0  0
  -26.3310  -37.3860   23.6460 N   0  0  0  0  0  0  0  0  0  0  0  0
  -25.9060  -38.3020   23.7670 H   0  0  0  0  0  0  0  0  0  0  0  0
  1  2  1  0
  1  3  2  0
  2  4  1  0
  5 18  1  0
  6 11  1  0
  7  8  1  0
  7  6  1  0
  9  8  1  0
  9 22  1  0
  9 10  1  0
 11  5  1  0
 11 10  1  0
 12  5  2  0
 13 14  1  0
 13 16  1  0
 14 18  1  0
 15 17  1  0
 16  2  1  0
 16 17  1  0
 17 47  1  0
 18 15  1  0
 19 20  2  0
 20 39  1  0
 21 20  1  0
 21 24  1  0
 22 23  1  0
 22 19  1  0
 23 21  2  0
 24 25  1  0
 25 26  2  0
 27 30  1  0
 27 26  1  0
 28 27  2  0
 29 28  1  0
 29 24  2  0
 30 31  1  0
 31 36  2  0
 31 32  1  0
 32 33  2  0
 33 34  1  0
 34 38  1  0
 35 34  2  0
 36 35  1  0
 37 36  1  0
 39 40  1  0
 40 43  1  0
 40 42  1  0
 41 39  2  0
 44 19  1  0
 44 45  1  0
 46 44  1  0
 47 48  1  0
 49 54  2  0
 50 52  1  0
 51 50  1  0
 51 53  1  0
 52  1  1  0
 53 52  1  0
 53 49  1  0
 55 49  1  0
 55 56  1  0
 57 68  2  0
 58 56  1  0
 58 63  1  0
 59 67  1  0
 59 69  1  0
 60 66  1  0
 60 62  1  0
 61 67  1  0
 62 63  2  0
 62 61  1  0
 64 58  2  0
 65 64  1  0
 65 60  2  0
 66 59  1  0
 67 57  1  0
 69 71  2  0
 70 69  1  0
 72 70  1  0
 73 82  2  0
 73 78  1  0
 74 70  1  0
 74 78  1  0
 75 74  1  0
 76 77  1  0
 76 75  1  0
 77 73  1  0
 78 79  2  0
 79 80  1  0
 81 80  2  0
 82 81  1  0
 83 57  1  0
 83 88  1  0
 83 84  1  0
 84 87  1  1
 84 85  1  0
 86 84  1  0
 88 91  1  0
 89 93  1  0
 89 88  1  0
 90 89  2  0
 93 92  1  0
 95 96  1  0
 95 93  1  0
 95 94  1  0
M  ISO  4   5 100  18 100  55 101  56 101
M  END
>  <TORSDO>  (73) 
F 19

>  <SCORE>  (73) 
-13.209

>  <name>  (73) 
74

>  <ligand_id>  (73) 
74

>  <original_smiles>  (73) 
[H]OC1([H])C([H])([H])N(C(=O)N2C([H])([H])C([H])([H])C([H])([H])C([H])(n3nc(-c4c([H])c([H])c(Oc5c([H])c([H])c(F)c([H])c5F)c([H])c4[H])c(C(=O)N([H])[H])c3N([H])[H])C2([H])[H])C([H])([H])C([H])([H])C1([H])N([H])C(=O)C1([H])N(C(=O)C([H])([H])Oc2c([H])c([H])c3c(c2[H])C([H])([H])N(C(=O)C([H])(N([H])C(=O)C([H])(N([H])C([H])([H])[H])C([H])([H])[H])C(C([H])([H])[H])(C([H])([H])[H])C([H])([H])[H])C([H])(C(=O)N([H])C2([H])c4c([H])c([H])c([H])c([H])c4C([H])([H])C([H])([H])C2([H])[H])C3([H])[H])C([H])([H])C1([H])[H]

>  <smiles>  (73) 
[H]OC1([H])C([H])([H])N(C(=O)N2C([H])([H])C([H])([H])C([H])([H])C([H])(n3nc(-c4c([H])c([H])c(Oc5c([H])c([H])c(F)c([H])c5F)c([H])c4[H])c(C(=O)N([H])[H])c3N([H])[H])C2([H])[H])C([H])([H])C([H])([H])C1([H])N([H])C(=O)C1([H])N(C(=O)C([H])([H])Oc2c([H])c([H])c3c(c2[H])C([H])([H])N(C(=O)C([H])(N([H])C(=O)C([H])(N([H])C([H])([H])[H])C([H])([H])[H])C(C([H])([H])[H])(C([H])([H])[H])C([H])([H])[H])C([H])(C(=O)N([H])C2([H])c4c([H])c([H])c([H])c([H])c4C([H])([H])C([H])([H])C2([H])[H])C3([H])[H])C([H])([H])C1([H])[H]

$$$$
75:0:0
     RDKit          3D

 98106  0  0  1  0  0  0  0  0999 V2000
  -28.9000  -18.7360   21.0250 C   0  0  0  0  0  3  0  0  0  0  0  0
  -28.1320  -19.8310   21.4730 C   0  0  0  0  0  3  0  0  0  0  0  0
  -30.1820  -20.2910   19.6660 C   0  0  0  0  0  3  0  0  0  0  0  0
  -29.9450  -18.9100   20.0930 C   0  0  0  0  0  0  0  0  0  0  0  0
  -29.4050  -21.4440   20.1150 C   0  0  0  0  0  0  0  0  0  0  0  0
  -28.3560  -21.1490   21.0200 C   0  0  0  0  0  0  0  0  0  0  0  0
  -27.4930  -22.1080   21.4310 F   0  0  0  0  0  0  0  0  0  0  0  0
  -29.3250  -24.0870   20.1660 C   0  0  0  0  0  0  0  0  0  0  0  0
  -29.5670  -22.8370   19.5930 N   0  0  0  0  0  0  0  0  0  0  0  0
  -29.2370  -24.2190   21.3890 O   0  0  0  0  0  0  0  0  0  0  0  0
  -29.8410  -22.8880   18.6220 H   0  0  0  0  0  0  0  0  0  0  0  0
  -29.2540  -25.4220   19.2710 C   0  0  0  0  0  2  0  0  0  0  0  0
  -29.0220  -26.7450   19.9550 O   0  0  0  0  0  0  0  0  0  0  0  0
  -24.7710  -31.6850   23.1110 C   0  0  0  0  0  0  0  0  0  0  0  0
  -27.8290  -27.5060   19.8790 C   0  0  0  0  0  0  0  0  0  0  0  0
  -23.7360  -30.3340   21.3230 C   0  0  0  0  0  3  0  0  0  0  0  0
  -25.3510  -28.9760   19.8690 C   0  0  0  0  0  0  0  0  0  0  0  0
  -26.2590  -30.8170   21.2850 C   0  0  0  0  0  2  0  0  0  0  0  0
  -26.4580  -29.4950   20.5490 C   0  0  0  0  0  0  0  0  0  0  0  0
  -27.6930  -28.7750   20.5410 C   0  0  0  0  0  3  0  0  0  0  0  0
  -26.6830  -27.0340   19.2020 C   0  0  0  0  0  3  0  0  0  0  0  0
  -25.4690  -27.7500   19.1900 C   0  0  0  0  0  3  0  0  0  0  0  0
  -24.0550  -29.7650   19.9150 C   0  0  0  0  0  2  0  0  0  0  0  0
  -24.9380  -30.9630   21.9640 N   0  0  0  0  0  0  0  0  0  0  0  0
  -23.6480  -31.8550   23.6100 O   0  0  0  0  0  0  0  0  0  0  0  0
  -23.0970  -29.2160   22.1830 C   0  0  0  0  0  0  0  0  0  0  0  0
  -21.7720  -29.0260   22.0460 N   0  0  0  0  0  0  0  0  0  0  0  0
  -23.7940  -28.5270   22.9320 O   0  0  0  0  0  0  0  0  0  0  0  0
  -21.2690  -29.6370   21.4180 H   0  0  0  0  0  0  0  0  0  0  0  0
  -18.4120  -27.7630   22.5020 C   0  0  0  0  0  0  0  0  0  0  0  0
  -20.9790  -27.9970   22.7200 C   0  0  0  0  0  3  0  0  0  0  0  0
  -21.0630  -26.6460   21.9700 C   0  0  0  0  0  2  0  0  0  0  0  0
  -19.9270  -26.4460   20.9620 C   0  0  0  0  0  2  0  0  0  0  0  0
  -18.5660  -26.5080   21.6590 C   0  0  0  0  0  2  0  0  0  0  0  0
  -19.5430  -28.4710   22.9860 C   0  0  0  0  0  0  0  0  0  0  0  0
  -19.3420  -29.6510   23.7350 C   0  0  0  0  0  3  0  0  0  0  0  0
  -18.0420  -30.1220   24.0010 C   0  0  0  0  0  3  0  0  0  0  0  0
  -16.9270  -29.4100   23.5310 C   0  0  0  0  0  3  0  0  0  0  0  0
  -17.1120  -28.2300   22.7880 C   0  0  0  0  0  3  0  0  0  0  0  0
  -25.9780  -32.3540   23.8400 C   0  0  0  0  0  3  0  0  0  0  0  0
  -25.5780  -33.7220   24.2060 N   0  0  0  0  0  0  0  0  0  0  0  0
  -25.9170  -34.8230   23.5210 C   0  0  0  0  0  0  0  0  0  0  0  0
  -26.6660  -34.7980   22.5410 O   0  0  0  0  0  0  0  0  0  0  0  0
  -24.9190  -33.8160   24.9650 H   0  0  0  0  0  0  0  0  0  0  0  0
  -24.1360  -36.5550   23.1200 C   0  0  0  0  0  1  0  0  0  0  0  0
  -25.3330  -36.1660   24.0020 C   0  0  0  0  0  3  0  0  0  0  0  0
  -27.3550  -37.1050   25.0320 C   0  0  0  0  0  1  0  0  0  0  0  0
  -26.3190  -37.2690   24.0150 N   0  0  0  0  0  0  0  0  0  0  0  0
  -25.8580  -38.1620   24.1730 H   0  0  0  0  0  0  0  0  0  0  0  0
  -26.4510  -31.5570   25.1180 C   0  0  1  0  0  0  0  0  0  0  0  0
  -25.3060  -31.2370   26.1100 C   0  0  0  0  0  1  0  0  0  0  0  0
  -27.1110  -30.2190   24.7160 C   0  0  0  0  0  1  0  0  0  0  0  0
  -27.5300  -32.3710   25.8720 C   0  0  0  0  0  1  0  0  0  0  0  0
  -30.7470  -17.6110   19.5880 C   0  0  0  0  0  3  0  0  0  0  0  0
  -31.0960  -15.0230   19.9130 C   0  0  0  0  0  0  0  0  0  0  0  0
  -30.7970  -12.7400   18.9530 C   0  0  0  0  0  2  0  0  0  0  0  0
  -29.8080  -12.8170   17.7690 C   0  0  0  0  0  2  0  0  0  0  0  0
  -28.3610  -12.6630   18.2680 C   0  0  0  0  0  2  0  0  0  0  0  0
  -28.0500  -13.5660   19.4920 C   0  0  0  0  0  3  0  0  0  0  0  0
  -29.1600  -13.4960   20.5650 C   0  0  0  0  0  2  0  0  0  0  0  0
  -30.4330  -13.8150   19.9070 N   0  0  0  0  0  0  0  0  0  0  0  0
  -32.2610  -15.0830   19.5120 O   0  0  0  0  0  0  0  0  0  0  0  0
  -30.3750  -16.2000   20.0820 N   0  0  0  0  0  0  0  0  0  0  0  0
  -29.4240  -16.0850   20.3930 H   0  0  0  0  0  0  0  0  0  0  0  0
  -25.7300  -14.1850   20.3880 C   0  0  0  0  0  0  0  0  0  0  0  0
  -24.6640  -13.4230   20.7850 C   0  0  0  0  0  0  0  0  0  0  0  0
  -25.0810  -12.0640   20.6620 C   0  0  0  0  0  0  0  0  0  0  0  0
  -26.7300  -13.2890   20.0490 N   0  0  0  0  0  0  0  0  0  0  0  0
  -26.3510  -12.0040   20.2750 N   0  0  0  0  0  0  0  0  0  0  0  0
  -24.3260  -10.8150   20.8330 C   0  0  0  0  0  0  0  0  0  0  0  0
  -24.7580   -9.8060   21.7220 C   0  0  0  0  0  3  0  0  0  0  0  0
  -24.0050   -8.6230   21.8850 C   0  0  0  0  0  3  0  0  0  0  0  0
  -22.8030   -8.4430   21.1600 C   0  0  0  0  0  0  0  0  0  0  0  0
  -22.3880   -9.4400   20.2570 C   0  0  0  0  0  3  0  0  0  0  0  0
  -23.1430  -10.6140   20.0930 C   0  0  0  0  0  3  0  0  0  0  0  0
  -22.0200   -7.3160   21.2320 O   0  0  0  0  0  0  0  0  0  0  0  0
  -21.9580   -6.5560   22.3730 C   0  0  0  0  0  0  0  0  0  0  0  0
  -21.5400   -7.0990   23.6090 C   0  0  0  0  0  3  0  0  0  0  0  0
  -21.4240   -6.2660   24.7400 C   0  0  0  0  0  3  0  0  0  0  0  0
  -21.7170   -4.8920   24.6380 C   0  0  0  0  0  0  0  0  0  0  0  0
  -22.1270   -4.3490   23.4060 C   0  0  0  0  0  3  0  0  0  0  0  0
  -22.2450   -5.1790   22.2780 C   0  0  0  0  0  0  0  0  0  0  0  0
  -22.6200   -4.6470   21.0900 F   0  0  0  0  0  0  0  0  0  0  0  0
  -21.5980   -4.0910   25.7210 F   0  0  0  0  0  0  0  0  0  0  0  0
  -23.3000  -13.9280   21.1600 C   0  0  0  0  0  0  0  0  0  0  0  0
  -22.6070  -13.2170   22.0420 N   0  0  0  0  0  0  0  0  0  0  0  0
  -22.8610  -14.9830   20.7060 O   0  0  0  0  0  0  0  0  0  0  0  0
  -22.9750  -12.3610   22.4290 H   0  0  0  0  0  0  0  0  0  0  0  0
  -21.6940  -13.5340   22.3350 H   0  0  0  0  0  0  0  0  0  0  0  0
  -25.9230  -15.5570   20.2650 N   0  0  0  0  0  0  0  0  0  0  0  0
  -25.1740  -16.2190   20.4370 H   0  0  0  0  0  0  0  0  0  0  0  0
  -26.7510  -15.9910   19.8780 H   0  0  0  0  0  0  0  0  0  0  0  0
  -30.7810  -17.5770   18.0300 C   0  0  0  0  0  2  0  0  0  0  0  0
  -32.0940  -18.0330   17.3500 C   0  0  0  0  0  2  0  0  0  0  0  0
  -33.2450  -17.1460   17.6130 N   0  0  0  0  0  4  0  0  0  0  0  0
  -33.5920  -17.2570   18.5490 H   0  0  0  0  0  0  0  0  0  0  0  0
  -33.9950  -17.3700   16.9820 H   0  0  0  0  0  0  0  0  0  0  0  0
  -33.0060  -16.1790   17.4770 H   0  0  0  0  0  0  0  0  0  0  0  0
  1  2  1  0
  3  4  1  0
  3  5  2  0
  4  1  2  0
  5  6  1  0
  6  7  1  0
  6  2  2  0
  8 10  2  0
  9  5  1  0
  9  8  1  0
 11  9  1  0
 12 13  1  0
 12  8  1  0
 14 25  2  0
 15 13  1  0
 15 20  1  0
 16 24  1  0
 16 26  1  0
 17 23  1  0
 17 19  1  0
 18 24  1  0
 19 18  1  0
 20 19  2  0
 21 15  2  0
 22 21  1  0
 22 17  2  0
 23 16  1  0
 24 14  1  0
 26 28  2  0
 27 26  1  0
 29 27  1  0
 30 39  2  0
 30 35  1  0
 31 27  1  0
 31 35  1  0
 32 31  1  0
 33 34  1  0
 33 32  1  0
 34 30  1  0
 35 36  2  0
 36 37  1  0
 38 37  2  0
 39 38  1  0
 40 14  1  0
 40 41  1  0
 40 50  1  0
 41 44  1  0
 42 46  1  0
 42 41  1  0
 43 42  2  0
 46 45  1  0
 46 48  1  0
 48 49  1  0
 48 47  1  0
 50 53  1  1
 50 51  1  0
 52 50  1  0
 54 93  1  0
 54 63  1  0
 54  4  1  0
 55 63  1  0
 56 61  1  0
 57 58  1  0
 57 56  1  0
 59 58  1  0
 59 68  1  0
 59 60  1  0
 61 55  1  0
 61 60  1  0
 62 55  2  0
 63 64  1  0
 65 66  2  0
 66 85  1  0
 67 66  1  0
 67 70  1  0
 68 69  1  0
 68 65  1  0
 69 67  2  0
 70 71  1  0
 71 72  2  0
 73 76  1  0
 73 72  1  0
 74 73  2  0
 75 74  1  0
 75 70  2  0
 76 77  1  0
 77 78  1  0
 78 79  2  0
 80 79  1  0
 80 84  1  0
 81 80  2  0
 82 77  2  0
 82 81  1  0
 83 82  1  0
 85 86  1  0
 86 89  1  0
 86 88  1  0
 87 85  2  0
 90 65  1  0
 90 91  1  0
 92 90  1  0
 94 95  1  0
 94 93  1  0
 95 96  1  0
 97 95  1  0
 98 95  1  0
M  ISO  4  12 101  13 101  55 100  63 100
M  END
>  <TORSDO>  (74) 
F 22

>  <SCORE>  (74) 
-10.764

>  <name>  (74) 
75

>  <ligand_id>  (74) 
75

>  <original_smiles>  (74) 
[H]c1c([H])c([H])c2c(c1[H])C([H])([H])C([H])([H])C([H])([H])C2([H])N([H])C(=O)C1([H])N(C(=O)C([H])(N([H])C(=O)C([H])(N([H])C([H])([H])[H])C([H])([H])[H])C(C([H])([H])[H])(C([H])([H])[H])C([H])([H])[H])C([H])([H])c2c([H])c(OC([H])([H])C(=O)N([H])c3c([H])c(C([H])(N([H])C(=O)N4C([H])([H])C([H])([H])C([H])([H])C([H])(n5nc(-c6c([H])c([H])c(Oc7c([H])c([H])c(F)c([H])c7F)c([H])c6[H])c(C(=O)N([H])[H])c5N([H])[H])C4([H])[H])C([H])([H])C([H])([H])[N+]([H])([H])[H])c([H])c([H])c3F)c([H])c([H])c2C1([H])[H]

>  <smiles>  (74) 
[H]c1c([H])c([H])c2c(c1[H])C([H])([H])C([H])([H])C([H])([H])C2([H])N([H])C(=O)C1([H])N(C(=O)C([H])(N([H])C(=O)C([H])(N([H])C([H])([H])[H])C([H])([H])[H])C(C([H])([H])[H])(C([H])([H])[H])C([H])([H])[H])C([H])([H])c2c([H])c(OC([H])([H])C(=O)N([H])c3c([H])c(C([H])(N([H])C(=O)N4C([H])([H])C([H])([H])C([H])([H])C([H])(n5nc(-c6c([H])c([H])c(Oc7c([H])c([H])c(F)c([H])c7F)c([H])c6[H])c(C(=O)N([H])[H])c5N([H])[H])C4([H])[H])C([H])([H])C([H])([H])[N+]([H])([H])[H])c([H])c([H])c3F)c([H])c([H])c2C1([H])[H]

$$$$
76:0:0
     RDKit          3D

102111  0  0  1  0  0  0  0  0999 V2000
  -31.6040  -21.5730   22.6380 C   0  0  0  0  0  2  0  0  0  0  0  0
  -29.7950  -21.4590   20.9230 C   0  0  0  0  0  2  0  0  0  0  0  0
  -31.2580  -23.0560   22.8860 C   0  0  0  0  0  2  0  0  0  0  0  0
  -29.4400  -22.9240   21.2100 C   0  0  0  0  0  2  0  0  0  0  0  0
  -30.3560  -20.7960   22.1910 C   0  0  0  0  0  3  0  0  0  0  0  0
  -30.6140  -23.6990   21.7060 N   0  0  1  0  0  4  0  0  0  0  0  0
  -31.3010  -23.7120   20.9670 H   0  0  0  0  0  0  0  0  0  0  0  0
  -30.7420  -18.8120   20.6730 C   0  0  0  0  0  3  0  0  0  0  0  0
  -30.8150  -17.4330   20.4070 C   0  0  0  0  0  3  0  0  0  0  0  0
  -30.6750  -16.9810   22.7890 C   0  0  0  0  0  3  0  0  0  0  0  0
  -30.6250  -18.3620   23.0730 C   0  0  0  0  0  0  0  0  0  0  0  0
  -30.6060  -19.2970   21.9940 C   0  0  0  0  0  0  0  0  0  0  0  0
  -30.7480  -16.5020   21.4680 C   0  0  0  0  0  0  0  0  0  0  0  0
  -31.1250  -14.3520   20.2560 C   0  0  0  0  0  0  0  0  0  0  0  0
  -30.7510  -12.2510   19.0170 C   0  0  0  0  0  2  0  0  0  0  0  0
  -29.7750  -12.4710   17.8450 C   0  0  0  0  0  2  0  0  0  0  0  0
  -28.3150  -12.3310   18.3120 C   0  0  0  0  0  2  0  0  0  0  0  0
  -28.0150  -13.1730   19.5790 C   0  0  0  0  0  3  0  0  0  0  0  0
  -29.0880  -12.9230   20.6620 C   0  0  0  0  0  2  0  0  0  0  0  0
  -30.4180  -13.2050   20.0850 N   0  0  0  0  0  0  0  0  0  0  0  0
  -32.1110  -14.6450   19.5720 O   0  0  0  0  0  0  0  0  0  0  0  0
  -30.7130  -15.0930   21.2960 N   0  0  0  0  0  0  0  0  0  0  0  0
  -30.0540  -14.6080   21.8860 H   0  0  0  0  0  0  0  0  0  0  0  0
  -25.6310  -13.7980   20.3370 C   0  0  0  0  0  0  0  0  0  0  0  0
  -24.5680  -13.0320   20.7360 C   0  0  0  0  0  0  0  0  0  0  0  0
  -25.0210  -11.6780   20.6970 C   0  0  0  0  0  0  0  0  0  0  0  0
  -26.6670  -12.9110   20.0870 N   0  0  0  0  0  0  0  0  0  0  0  0
  -26.3020  -11.6310   20.3560 N   0  0  0  0  0  0  0  0  0  0  0  0
  -24.2950  -10.4200   20.9110 C   0  0  0  0  0  0  0  0  0  0  0  0
  -24.6940   -9.4950   21.9000 C   0  0  0  0  0  3  0  0  0  0  0  0
  -23.9700   -8.3010   22.0990 C   0  0  0  0  0  3  0  0  0  0  0  0
  -22.8300   -8.0220   21.3070 C   0  0  0  0  0  0  0  0  0  0  0  0
  -22.4500   -8.9350   20.3080 C   0  0  0  0  0  3  0  0  0  0  0  0
  -23.1760  -10.1210   20.1090 C   0  0  0  0  0  3  0  0  0  0  0  0
  -22.0800   -6.8740   21.4100 O   0  0  0  0  0  0  0  0  0  0  0  0
  -21.8970   -6.2410   22.6130 C   0  0  0  0  0  0  0  0  0  0  0  0
  -21.3400   -6.9050   23.7280 C   0  0  0  0  0  3  0  0  0  0  0  0
  -21.1050   -6.1960   24.9230 C   0  0  0  0  0  3  0  0  0  0  0  0
  -21.4170   -4.8260   25.0040 C   0  0  0  0  0  0  0  0  0  0  0  0
  -21.9670   -4.1620   23.8930 C   0  0  0  0  0  3  0  0  0  0  0  0
  -22.2030   -4.8680   22.7000 C   0  0  0  0  0  0  0  0  0  0  0  0
  -22.7140   -4.2190   21.6260 F   0  0  0  0  0  0  0  0  0  0  0  0
  -21.1840   -4.1430   26.1490 F   0  0  0  0  0  0  0  0  0  0  0  0
  -23.1800  -13.5160   21.0430 C   0  0  0  0  0  0  0  0  0  0  0  0
  -22.4800  -12.8360   21.9450 N   0  0  0  0  0  0  0  0  0  0  0  0
  -22.7250  -14.5320   20.5200 O   0  0  0  0  0  0  0  0  0  0  0  0
  -22.8600  -12.0150   22.3920 H   0  0  0  0  0  0  0  0  0  0  0  0
  -21.5500  -13.1440   22.1940 H   0  0  0  0  0  0  0  0  0  0  0  0
  -25.7980  -15.1670   20.1510 N   0  0  0  0  0  0  0  0  0  0  0  0
  -25.0430  -15.8300   20.2840 H   0  0  0  0  0  0  0  0  0  0  0  0
  -26.6530  -15.6000   19.8250 H   0  0  0  0  0  0  0  0  0  0  0  0
  -30.5580  -18.7650   24.5180 C   0  0  0  0  0  0  0  0  0  0  0  0
  -31.4220  -19.6950   24.9000 N   0  0  0  0  0  0  0  0  0  0  0  0
  -29.7890  -18.2190   25.3070 O   0  0  0  0  0  0  0  0  0  0  0  0
  -32.0780  -20.0720   24.2340 H   0  0  0  0  0  0  0  0  0  0  0  0
  -31.4590  -19.9910   25.8640 H   0  0  0  0  0  0  0  0  0  0  0  0
  -30.2590  -25.1210   21.9530 C   0  0  0  0  0  2  0  0  0  0  0  0
  -31.0210  -25.5270   19.4910 C   0  0  0  0  0  1  0  0  0  0  0  0
  -32.2040  -26.6380   21.3910 C   0  0  0  0  0  1  0  0  0  0  0  0
  -30.8320  -26.1250   20.9080 C   0  0  2  0  0  0  0  0  0  0  0  0
  -29.8450  -27.3150   20.8290 C   0  0  0  0  0  2  0  0  0  0  0  0
  -28.6370  -26.8310   20.2460 O   0  0  0  0  0  0  0  0  0  0  0  0
  -24.6500  -31.9080   23.3290 C   0  0  0  0  0  0  0  0  0  0  0  0
  -27.4920  -27.5900   20.2880 C   0  0  0  0  0  0  0  0  0  0  0  0
  -23.5190  -30.5020   21.6340 C   0  0  0  0  0  3  0  0  0  0  0  0
  -25.0460  -29.0060   20.2460 C   0  0  0  0  0  0  0  0  0  0  0  0
  -26.0350  -30.9230   21.5120 C   0  0  0  0  0  2  0  0  0  0  0  0
  -26.1700  -29.5610   20.8690 C   0  0  0  0  0  0  0  0  0  0  0  0
  -27.3950  -28.8660   20.8890 C   0  0  0  0  0  3  0  0  0  0  0  0
  -26.3470  -27.0340   19.6780 C   0  0  0  0  0  3  0  0  0  0  0  0
  -25.1260  -27.7360   19.6500 C   0  0  0  0  0  3  0  0  0  0  0  0
  -23.7830  -29.8340   20.2580 C   0  0  0  0  0  2  0  0  0  0  0  0
  -24.7500  -31.1240   22.2200 N   0  0  0  0  0  0  0  0  0  0  0  0
  -23.5490  -32.1540   23.8390 O   0  0  0  0  0  0  0  0  0  0  0  0
  -22.8580  -29.4610   22.5650 C   0  0  0  0  0  0  0  0  0  0  0  0
  -21.5450  -29.2460   22.3820 N   0  0  0  0  0  0  0  0  0  0  0  0
  -23.5240  -28.8500   23.4040 O   0  0  0  0  0  0  0  0  0  0  0  0
  -21.0700  -29.7940   21.6780 H   0  0  0  0  0  0  0  0  0  0  0  0
  -18.1830  -27.9730   22.7290 C   0  0  0  0  0  0  0  0  0  0  0  0
  -20.7200  -28.2860   23.1140 C   0  0  0  0  0  3  0  0  0  0  0  0
  -20.8810  -26.8620   22.5360 C   0  0  0  0  0  2  0  0  0  0  0  0
  -19.8310  -26.5180   21.4750 C   0  0  0  0  0  2  0  0  0  0  0  0
  -18.4200  -26.6300   22.0590 C   0  0  0  0  0  2  0  0  0  0  0  0
  -19.2640  -28.7570   23.2110 C   0  0  0  0  0  0  0  0  0  0  0  0
  -18.9920  -30.0140   23.7930 C   0  0  0  0  0  3  0  0  0  0  0  0
  -17.6710  -30.4860   23.9020 C   0  0  0  0  0  3  0  0  0  0  0  0
  -16.6040  -29.6980   23.4390 C   0  0  0  0  0  3  0  0  0  0  0  0
  -16.8600  -28.4430   22.8570 C   0  0  0  0  0  3  0  0  0  0  0  0
  -25.9070  -32.5500   23.9940 C   0  0  0  0  0  3  0  0  0  0  0  0
  -25.5610  -33.9320   24.3530 N   0  0  0  0  0  0  0  0  0  0  0  0
  -25.8990  -35.0100   23.6330 C   0  0  0  0  0  0  0  0  0  0  0  0
  -26.6070  -34.9470   22.6240 O   0  0  0  0  0  0  0  0  0  0  0  0
  -24.9350  -34.0530   25.1360 H   0  0  0  0  0  0  0  0  0  0  0  0
  -24.1460  -36.7740   23.2650 C   0  0  0  0  0  1  0  0  0  0  0  0
  -25.3670  -36.3750   24.1100 C   0  0  0  0  0  3  0  0  0  0  0  0
  -27.4580  -37.2740   25.0320 C   0  0  0  0  0  1  0  0  0  0  0  0
  -26.3810  -37.4500   24.0600 N   0  0  0  0  0  0  0  0  0  0  0  0
  -25.9530  -38.3570   24.2220 H   0  0  0  0  0  0  0  0  0  0  0  0
  -26.4190  -31.7550   25.2580 C   0  0  1  0  0  0  0  0  0  0  0  0
  -25.3020  -31.4220   26.2750 C   0  0  0  0  0  1  0  0  0  0  0  0
  -27.0840  -30.4260   24.8310 C   0  0  0  0  0  1  0  0  0  0  0  0
  -27.5030  -32.5790   25.9930 C   0  0  0  0  0  1  0  0  0  0  0  0
  1  3  1  0
  2  4  1  0
  2  5  1  0
  4  6  1  0
  5 12  1  0
  5  1  1  0
  6 57  1  0
  6  3  1  0
  6  7  1  6
  8 12  1  0
  9  8  2  0
  9 13  1  0
 10 11  1  0
 11 52  1  0
 12 11  2  0
 13 10  2  0
 14 22  1  0
 15 20  1  0
 16 17  1  0
 16 15  1  0
 18 17  1  0
 18 27  1  0
 18 19  1  0
 20 14  1  0
 20 19  1  0
 21 14  2  0
 22 13  1  0
 22 23  1  0
 24 25  2  0
 25 44  1  0
 26 25  1  0
 26 29  1  0
 27 24  1  0
 27 28  1  0
 28 26  2  0
 29 30  1  0
 30 31  2  0
 32 35  1  0
 32 31  1  0
 33 32  2  0
 34 33  1  0
 34 29  2  0
 35 36  1  0
 36 41  2  0
 36 37  1  0
 37 38  2  0
 38 39  1  0
 39 43  1  0
 40 39  2  0
 41 40  1  0
 42 41  1  0
 44 45  1  0
 45 48  1  0
 45 47  1  0
 46 44  2  0
 49 50  1  0
 49 24  1  0
 51 49  1  0
 52 53  1  0
 52 54  2  0
 53 56  1  0
 55 53  1  0
 60 58  1  6
 60 59  1  0
 60 57  1  0
 61 60  1  0
 62 64  1  0
 62 61  1  0
 63 74  2  0
 64 69  1  0
 65 73  1  0
 65 75  1  0
 66 72  1  0
 66 68  1  0
 67 73  1  0
 68 69  2  0
 68 67  1  0
 70 64  2  0
 71 70  1  0
 71 66  2  0
 72 65  1  0
 73 63  1  0
 75 77  2  0
 76 75  1  0
 78 76  1  0
 79 88  2  0
 79 84  1  0
 80 76  1  0
 80 84  1  0
 81 80  1  0
 82 83  1  0
 82 81  1  0
 83 79  1  0
 84 85  2  0
 85 86  1  0
 87 86  2  0
 88 87  1  0
 89 63  1  0
 89 90  1  0
 89 99  1  0
 90 93  1  0
 91 95  1  0
 91 90  1  0
 92 91  2  0
 95 94  1  0
 97 95  1  0
 97 98  1  0
 97 96  1  0
 99102  1  1
 99100  1  0
101 99  1  0
M  ISO  4  14 100  22 100  61 101  62 101
M  END
>  <TORSDO>  (75) 
F 21

>  <SCORE>  (75) 
-8.915

>  <name>  (75) 
76

>  <ligand_id>  (75) 
76

>  <original_smiles>  (75) 
[H]c1c([H])c([H])c2c(c1[H])C([H])([H])C([H])([H])C([H])([H])C2([H])N([H])C(=O)C1([H])N(C(=O)C([H])(N([H])C(=O)C([H])(N([H])C([H])([H])[H])C([H])([H])[H])C(C([H])([H])[H])(C([H])([H])[H])C([H])([H])[H])C([H])([H])c2c([H])c(OC([H])([H])C(C([H])([H])[H])(C([H])([H])[H])C([H])([H])[N+]3([H])C([H])([H])C([H])([H])C([H])(c4c([H])c([H])c(N([H])C(=O)N5C([H])([H])C([H])([H])C([H])([H])C([H])(n6nc(-c7c([H])c([H])c(Oc8c([H])c([H])c(F)c([H])c8F)c([H])c7[H])c(C(=O)N([H])[H])c6N([H])[H])C5([H])[H])c([H])c4C(=O)N([H])[H])C([H])([H])C3([H])[H])c([H])c([H])c2C1([H])[H]

>  <smiles>  (75) 
[H]c1c([H])c([H])c2c(c1[H])C([H])([H])C([H])([H])C([H])([H])C2([H])N([H])C(=O)C1([H])N(C(=O)C([H])(N([H])C(=O)C([H])(N([H])C([H])([H])[H])C([H])([H])[H])C(C([H])([H])[H])(C([H])([H])[H])C([H])([H])[H])C([H])([H])c2c([H])c(OC([H])([H])C(C([H])([H])[H])(C([H])([H])[H])C([H])([H])[N+]3([H])C([H])([H])C([H])([H])C([H])(c4c([H])c([H])c(N([H])C(=O)N5C([H])([H])C([H])([H])C([H])([H])C([H])(n6nc(-c7c([H])c([H])c(Oc8c([H])c([H])c(F)c([H])c8F)c([H])c7[H])c(C(=O)N([H])[H])c6N([H])[H])C5([H])[H])c([H])c4C(=O)N([H])[H])C([H])([H])C3([H])[H])c([H])c([H])c2C1([H])[H]

$$$$
77:0:0
     RDKit          3D

 95104  0  0  1  0  0  0  0  0999 V2000
  -28.5700  -22.2680   20.6090 C   0  0  0  0  0  0  0  0  0  0  0  0
  -31.3000  -19.5500   21.0350 C   0  0  0  0  0  2  0  0  0  0  0  0
  -30.7350  -18.2720   19.0010 C   0  0  0  0  0  2  0  0  0  0  0  0
  -30.2280  -20.8920   19.2140 C   0  0  0  0  0  2  0  0  0  0  0  0
  -28.8280  -19.6800   20.8530 C   0  0  0  0  0  2  0  0  0  0  0  0
  -31.2060  -19.6970   19.5020 C   0  0  0  0  0  3  0  0  0  0  0  0
  -30.0480  -18.6860   21.2470 C   0  0  0  0  0  3  0  0  0  0  0  0
  -30.5040  -17.4740   20.3030 C   0  0  0  0  0  3  0  0  0  0  0  0
  -29.1670  -21.0480   20.2410 N   0  0  0  0  0  0  0  0  0  0  0  0
  -27.7010  -22.2510   21.4830 O   0  0  0  0  0  0  0  0  0  0  0  0
  -30.6670  -14.8700   20.0070 C   0  0  0  0  0  0  0  0  0  0  0  0
  -30.3920  -12.6120   18.9670 C   0  0  0  0  0  2  0  0  0  0  0  0
  -29.3850  -12.6940   17.7990 C   0  0  0  0  0  2  0  0  0  0  0  0
  -27.9470  -12.5040   18.3150 C   0  0  0  0  0  2  0  0  0  0  0  0
  -27.6400  -13.3720   19.5660 C   0  0  0  0  0  3  0  0  0  0  0  0
  -28.7640  -13.2870   20.6200 C   0  0  0  0  0  2  0  0  0  0  0  0
  -30.0160  -13.6560   19.9510 N   0  0  0  0  0  0  0  0  0  0  0  0
  -31.8350  -14.9390   19.6160 O   0  0  0  0  0  0  0  0  0  0  0  0
  -29.9620  -16.0360   20.3040 N   0  0  0  0  0  0  0  0  0  0  0  0
  -28.9950  -15.9160   20.5640 H   0  0  0  0  0  0  0  0  0  0  0  0
  -25.3020  -13.9290   20.4560 C   0  0  0  0  0  0  0  0  0  0  0  0
  -24.2630  -13.1390   20.8690 C   0  0  0  0  0  0  0  0  0  0  0  0
  -24.7280  -11.7910   20.7720 C   0  0  0  0  0  0  0  0  0  0  0  0
  -26.3320  -13.0610   20.1320 N   0  0  0  0  0  0  0  0  0  0  0  0
  -25.9980  -11.7690   20.3850 N   0  0  0  0  0  0  0  0  0  0  0  0
  -24.0170  -10.5210   20.9690 C   0  0  0  0  0  0  0  0  0  0  0  0
  -24.4740   -9.5540   21.8900 C   0  0  0  0  0  3  0  0  0  0  0  0
  -23.7620   -8.3490   22.0760 C   0  0  0  0  0  3  0  0  0  0  0  0
  -22.5790   -8.1030   21.3400 C   0  0  0  0  0  0  0  0  0  0  0  0
  -22.1410   -9.0590   20.4070 C   0  0  0  0  0  3  0  0  0  0  0  0
  -22.8530  -10.2550   20.2200 C   0  0  0  0  0  3  0  0  0  0  0  0
  -21.8360   -6.9510   21.4360 O   0  0  0  0  0  0  0  0  0  0  0  0
  -21.7780   -6.2270   22.6000 C   0  0  0  0  0  0  0  0  0  0  0  0
  -21.2840   -6.7830   23.8000 C   0  0  0  0  0  3  0  0  0  0  0  0
  -21.1780   -5.9820   24.9550 C   0  0  0  0  0  3  0  0  0  0  0  0
  -21.5550   -4.6270   24.9100 C   0  0  0  0  0  0  0  0  0  0  0  0
  -22.0410   -4.0710   23.7140 C   0  0  0  0  0  3  0  0  0  0  0  0
  -22.1500   -4.8670   22.5620 C   0  0  0  0  0  0  0  0  0  0  0  0
  -22.5990   -4.3210   21.4070 F   0  0  0  0  0  0  0  0  0  0  0  0
  -21.4450   -3.8560   26.0180 F   0  0  0  0  0  0  0  0  0  0  0  0
  -22.8830  -13.6030   21.2340 C   0  0  0  0  0  0  0  0  0  0  0  0
  -22.2060  -12.8740   22.1150 N   0  0  0  0  0  0  0  0  0  0  0  0
  -22.4170  -14.6440   20.7760 O   0  0  0  0  0  0  0  0  0  0  0  0
  -22.5970  -12.0300   22.5060 H   0  0  0  0  0  0  0  0  0  0  0  0
  -21.2830  -13.1650   22.4020 H   0  0  0  0  0  0  0  0  0  0  0  0
  -25.4510  -15.3040   20.3040 N   0  0  0  0  0  0  0  0  0  0  0  0
  -24.6860  -15.9500   20.4720 H   0  0  0  0  0  0  0  0  0  0  0  0
  -26.2660  -15.7530   19.9080 H   0  0  0  0  0  0  0  0  0  0  0  0
  -28.8720  -23.7220   19.9690 C   0  0  0  0  0  3  0  0  0  0  0  0
  -28.6320  -23.6900   18.5110 N   0  0  0  0  0  4  0  0  0  0  0  0
  -27.6670  -23.4840   18.3130 H   0  0  0  0  0  0  0  0  0  0  0  0
  -29.2000  -22.9930   18.0640 H   0  0  0  0  0  0  0  0  0  0  0  0
  -28.8550  -24.5820   18.1020 H   0  0  0  0  0  0  0  0  0  0  0  0
  -28.0870  -25.0070   20.6010 C   0  0  0  0  0  2  0  0  0  0  0  0
  -28.3470  -26.4490   20.2050 O   0  0  0  0  0  0  0  0  0  0  0  0
  -24.5990  -31.9210   23.2250 C   0  0  0  0  0  0  0  0  0  0  0  0
  -27.2540  -27.3500   20.1730 C   0  0  0  0  0  0  0  0  0  0  0  0
  -23.4220  -30.5260   21.5640 C   0  0  0  0  0  3  0  0  0  0  0  0
  -24.8960  -28.9920   20.1390 C   0  0  0  0  0  0  0  0  0  0  0  0
  -25.9660  -30.8490   21.4120 C   0  0  0  0  0  2  0  0  0  0  0  0
  -26.0600  -29.4700   20.7560 C   0  0  0  0  0  0  0  0  0  0  0  0
  -27.2460  -28.6630   20.7580 C   0  0  0  0  0  3  0  0  0  0  0  0
  -26.0720  -26.9490   19.5140 C   0  0  0  0  0  3  0  0  0  0  0  0
  -24.9080  -27.7410   19.5060 C   0  0  0  0  0  3  0  0  0  0  0  0
  -23.6560  -29.8650   20.1810 C   0  0  0  0  0  2  0  0  0  0  0  0
  -24.6810  -31.1170   22.1230 N   0  0  0  0  0  0  0  0  0  0  0  0
  -23.5080  -32.1880   23.7490 O   0  0  0  0  0  0  0  0  0  0  0  0
  -22.7540  -29.5000   22.5100 C   0  0  0  0  0  0  0  0  0  0  0  0
  -21.4310  -29.3130   22.3670 N   0  0  0  0  0  0  0  0  0  0  0  0
  -23.4280  -28.8750   23.3340 O   0  0  0  0  0  0  0  0  0  0  0  0
  -20.9460  -29.8700   21.6770 H   0  0  0  0  0  0  0  0  0  0  0  0
  -18.0540  -28.0970   22.8370 C   0  0  0  0  0  0  0  0  0  0  0  0
  -20.6100  -28.3640   23.1230 C   0  0  0  0  0  3  0  0  0  0  0  0
  -20.7200  -26.9390   22.5340 C   0  0  0  0  0  2  0  0  0  0  0  0
  -19.6260  -26.6240   21.5100 C   0  0  0  0  0  2  0  0  0  0  0  0
  -18.2400  -26.7560   22.1470 C   0  0  0  0  0  2  0  0  0  0  0  0
  -19.1680  -28.8590   23.2810 C   0  0  0  0  0  0  0  0  0  0  0  0
  -18.9400  -30.1140   23.8870 C   0  0  0  0  0  3  0  0  0  0  0  0
  -17.6320  -30.6070   24.0520 C   0  0  0  0  0  3  0  0  0  0  0  0
  -16.5330  -29.8430   23.6230 C   0  0  0  0  0  3  0  0  0  0  0  0
  -16.7450  -28.5890   23.0220 C   0  0  0  0  0  3  0  0  0  0  0  0
  -25.8700  -32.5580   23.8650 C   0  0  0  0  0  3  0  0  0  0  0  0
  -26.3660  -31.7940   25.1530 C   0  0  1  0  0  0  0  0  0  0  0  0
  -25.2540  -31.5560   26.2020 C   0  0  0  0  0  1  0  0  0  0  0  0
  -26.9620  -30.4170   24.7800 C   0  0  0  0  0  1  0  0  0  0  0  0
  -27.5010  -32.5950   25.8320 C   0  0  0  0  0  1  0  0  0  0  0  0
  -25.5520  -33.9570   24.1850 N   0  0  0  0  0  0  0  0  0  0  0  0
  -25.8920  -35.0100   23.4270 C   0  0  0  0  0  0  0  0  0  0  0  0
  -26.5740  -34.9040   22.4040 O   0  0  0  0  0  0  0  0  0  0  0  0
  -24.9470  -34.1120   24.9770 H   0  0  0  0  0  0  0  0  0  0  0  0
  -24.1730  -36.8060   23.0400 C   0  0  0  0  0  1  0  0  0  0  0  0
  -25.3970  -36.3980   23.8750 C   0  0  0  0  0  3  0  0  0  0  0  0
  -27.5120  -37.2850   24.7550 C   0  0  0  0  0  1  0  0  0  0  0  0
  -26.4330  -37.4500   23.7840 N   0  0  0  0  0  0  0  0  0  0  0  0
  -26.0250  -38.3710   23.9160 H   0  0  0  0  0  0  0  0  0  0  0  0
  1 10  2  0
  2  7  1  0
  3  8  1  0
  4  6  1  0
  4  9  1  0
  6  3  1  0
  6  2  1  0
  7  5  1  0
  8 19  1  0
  8  7  1  0
  9  1  1  0
  9  5  1  0
 11 19  1  0
 12 17  1  0
 13 14  1  0
 13 12  1  0
 15 14  1  0
 15 24  1  0
 15 16  1  0
 17 11  1  0
 17 16  1  0
 18 11  2  0
 19 20  1  0
 21 22  2  0
 22 41  1  0
 23 22  1  0
 23 26  1  0
 24 25  1  0
 24 21  1  0
 25 23  2  0
 26 27  1  0
 27 28  2  0
 29 32  1  0
 29 28  1  0
 30 29  2  0
 31 30  1  0
 31 26  2  0
 32 33  1  0
 33 34  1  0
 34 35  2  0
 36 35  1  0
 36 40  1  0
 37 36  2  0
 38 33  2  0
 38 37  1  0
 39 38  1  0
 41 42  1  0
 42 45  1  0
 42 44  1  0
 43 41  2  0
 46 21  1  0
 46 47  1  0
 48 46  1  0
 49 54  1  0
 49  1  1  0
 50 49  1  0
 51 50  1  0
 52 50  1  0
 53 50  1  0
 55 54  1  0
 56 67  2  0
 57 55  1  0
 57 62  1  0
 58 66  1  0
 58 68  1  0
 59 65  1  0
 59 61  1  0
 60 66  1  0
 61 62  2  0
 61 60  1  0
 63 57  2  0
 64 63  1  0
 64 59  2  0
 65 58  1  0
 66 56  1  0
 68 70  2  0
 69 68  1  0
 71 69  1  0
 72 81  2  0
 72 77  1  0
 73 69  1  0
 73 77  1  0
 74 73  1  0
 75 76  1  0
 75 74  1  0
 76 72  1  0
 77 78  2  0
 78 79  1  0
 80 79  2  0
 81 80  1  0
 82 56  1  0
 82 87  1  0
 82 83  1  0
 83 86  1  1
 83 84  1  0
 85 83  1  0
 87 90  1  0
 88 92  1  0
 88 87  1  0
 89 88  2  0
 92 91  1  0
 94 92  1  0
 94 95  1  0
 94 93  1  0
M  ISO  4  11 100  19 100  54 101  55 101
M  END
>  <TORSDO>  (76) 
F 19

>  <SCORE>  (76) 
-14.377

>  <name>  (76) 
77

>  <ligand_id>  (76) 
77

>  <original_smiles>  (76) 
[H]c1c([H])c([H])c2c(c1[H])C([H])([H])C([H])([H])C([H])([H])C2([H])N([H])C(=O)C1([H])N(C(=O)C([H])(N([H])C(=O)C([H])(N([H])C([H])([H])[H])C([H])([H])[H])C(C([H])([H])[H])(C([H])([H])[H])C([H])([H])[H])C([H])([H])c2c([H])c(OC([H])([H])C([H])(C(=O)N3C([H])([H])C4([H])C([H])([H])C([H])(N([H])C(=O)N5C([H])([H])C([H])([H])C([H])([H])C([H])(n6nc(-c7c([H])c([H])c(Oc8c([H])c([H])c(F)c([H])c8F)c([H])c7[H])c(C(=O)N([H])[H])c6N([H])[H])C5([H])[H])C([H])(C3([H])[H])C4([H])[H])[N+]([H])([H])[H])c([H])c([H])c2C1([H])[H]

>  <smiles>  (76) 
[H]c1c([H])c([H])c2c(c1[H])C([H])([H])C([H])([H])C([H])([H])C2([H])N([H])C(=O)C1([H])N(C(=O)C([H])(N([H])C(=O)C([H])(N([H])C([H])([H])[H])C([H])([H])[H])C(C([H])([H])[H])(C([H])([H])[H])C([H])([H])[H])C([H])([H])c2c([H])c(OC([H])([H])C([H])(C(=O)N3C([H])([H])C4([H])C([H])([H])C([H])(N([H])C(=O)N5C([H])([H])C([H])([H])C([H])([H])C([H])(n6nc(-c7c([H])c([H])c(Oc8c([H])c([H])c(F)c([H])c8F)c([H])c7[H])c(C(=O)N([H])[H])c6N([H])[H])C5([H])[H])C([H])(C3([H])[H])C4([H])[H])[N+]([H])([H])[H])c([H])c([H])c2C1([H])[H]

$$$$
78:0:0
     RDKit          3D

103112  0  0  1  0  0  0  0  0999 V2000
  -30.0520  -25.9010   17.8430 C   0  0  0  0  0  0  0  0  0  0  0  0
  -30.2140  -23.1440   15.4150 C   0  0  0  0  0  2  0  0  0  0  0  0
  -30.2310  -22.3450   16.6940 C   0  0  0  0  0  2  0  0  0  0  0  0
  -29.7860  -24.5410   15.8480 C   0  0  0  0  0  2  0  0  0  0  0  0
  -30.5020  -23.3480   17.8410 C   0  0  0  0  0  3  0  0  0  0  0  0
  -30.0570  -24.6570   17.2910 N   0  0  0  0  0  0  0  0  0  0  0  0
  -29.7340  -26.8860   17.1690 O   0  0  0  0  0  0  0  0  0  0  0  0
  -29.7550  -22.7830   19.0730 C   0  0  0  0  0  0  0  0  0  0  0  0
  -30.2570  -21.6400   19.5680 N   0  0  0  0  0  0  0  0  0  0  0  0
  -28.7290  -23.3160   19.5000 O   0  0  0  0  0  0  0  0  0  0  0  0
  -31.1140  -21.3110   19.1440 H   0  0  0  0  0  0  0  0  0  0  0  0
  -29.6140  -20.6780   20.4680 C   0  0  0  0  0  2  0  0  0  0  0  0
  -29.8380  -17.7290   18.0070 C   0  0  0  0  0  3  0  0  0  0  0  0
  -29.7230  -19.0260   18.5320 C   0  0  0  0  0  3  0  0  0  0  0  0
  -29.9080  -16.6280   18.8740 C   0  0  0  0  0  3  0  0  0  0  0  0
  -29.7480  -18.1220   20.7960 C   0  0  0  0  0  3  0  0  0  0  0  0
  -29.6960  -19.2450   19.9280 C   0  0  0  0  0  0  0  0  0  0  0  0
  -29.8620  -16.8070   20.2780 C   0  0  0  0  0  0  0  0  0  0  0  0
  -30.6520  -14.5920   20.9430 C   0  0  0  0  0  0  0  0  0  0  0  0
  -30.4750  -12.3620   19.9440 C   0  0  0  0  0  2  0  0  0  0  0  0
  -29.6490  -12.5010   18.6450 C   0  0  0  0  0  2  0  0  0  0  0  0
  -28.1410  -12.3870   18.9430 C   0  0  0  0  0  2  0  0  0  0  0  0
  -27.6850  -13.2740   20.1340 C   0  0  0  0  0  3  0  0  0  0  0  0
  -28.6400  -13.1240   21.3420 C   0  0  0  0  0  2  0  0  0  0  0  0
  -30.0090  -13.3980   20.8770 N   0  0  0  0  0  0  0  0  0  0  0  0
  -31.8390  -14.7410   20.6360 O   0  0  0  0  0  0  0  0  0  0  0  0
  -29.8640  -15.6660   21.1420 N   0  0  0  0  0  0  0  0  0  0  0  0
  -28.9910  -15.4790   21.6120 H   0  0  0  0  0  0  0  0  0  0  0  0
  -25.2280  -13.8710   20.6280 C   0  0  0  0  0  0  0  0  0  0  0  0
  -24.1390  -13.0980   20.9300 C   0  0  0  0  0  0  0  0  0  0  0  0
  -24.6150  -11.7520   20.9780 C   0  0  0  0  0  0  0  0  0  0  0  0
  -26.2970  -12.9970   20.5090 N   0  0  0  0  0  0  0  0  0  0  0  0
  -25.9270  -11.7180   20.7770 N   0  0  0  0  0  0  0  0  0  0  0  0
  -23.8870  -10.4870   21.1480 C   0  0  0  0  0  0  0  0  0  0  0  0
  -24.2780   -9.5320   22.1110 C   0  0  0  0  0  3  0  0  0  0  0  0
  -23.5530   -8.3310   22.2670 C   0  0  0  0  0  3  0  0  0  0  0  0
  -22.4200   -8.0770   21.4580 C   0  0  0  0  0  0  0  0  0  0  0  0
  -22.0480   -9.0200   20.4830 C   0  0  0  0  0  3  0  0  0  0  0  0
  -22.7750  -10.2120   20.3270 C   0  0  0  0  0  3  0  0  0  0  0  0
  -21.6690   -6.9280   21.5190 O   0  0  0  0  0  0  0  0  0  0  0  0
  -21.5960   -6.1770   22.6660 C   0  0  0  0  0  0  0  0  0  0  0  0
  -21.1650   -6.7290   23.8920 C   0  0  0  0  0  3  0  0  0  0  0  0
  -21.0360   -5.9050   25.0280 C   0  0  0  0  0  3  0  0  0  0  0  0
  -21.3300   -4.5320   24.9390 C   0  0  0  0  0  0  0  0  0  0  0  0
  -21.7550   -3.9800   23.7180 C   0  0  0  0  0  3  0  0  0  0  0  0
  -21.8840   -4.8000   22.5840 C   0  0  0  0  0  0  0  0  0  0  0  0
  -22.2730   -4.2600   21.4050 F   0  0  0  0  0  0  0  0  0  0  0  0
  -21.2000   -3.7390   26.0280 F   0  0  0  0  0  0  0  0  0  0  0  0
  -22.7180  -13.5660   21.0720 C   0  0  0  0  0  0  0  0  0  0  0  0
  -21.9300  -12.8900   21.8980 N   0  0  0  0  0  0  0  0  0  0  0  0
  -22.3140  -14.5680   20.4840 O   0  0  0  0  0  0  0  0  0  0  0  0
  -22.2690  -12.0850   22.4040 H   0  0  0  0  0  0  0  0  0  0  0  0
  -20.9730  -13.1870   22.0360 H   0  0  0  0  0  0  0  0  0  0  0  0
  -25.3930  -15.2370   20.4220 N   0  0  0  0  0  0  0  0  0  0  0  0
  -24.6100  -15.8810   20.4410 H   0  0  0  0  0  0  0  0  0  0  0  0
  -26.2600  -15.6780   20.1460 H   0  0  0  0  0  0  0  0  0  0  0  0
  -30.5280  -26.1790   19.2810 C   0  0  0  0  0  3  0  0  0  0  0  0
  -31.9130  -26.6940   19.2190 N   0  0  0  0  0  4  0  0  0  0  0  0
  -31.9330  -27.5550   18.6990 H   0  0  0  0  0  0  0  0  0  0  0  0
  -32.5140  -26.0400   18.7490 H   0  0  0  0  0  0  0  0  0  0  0  0
  -32.2870  -26.8630   20.1370 H   0  0  0  0  0  0  0  0  0  0  0  0
  -29.6070  -27.2220   19.9720 C   0  0  0  0  0  2  0  0  0  0  0  0
  -28.3120  -26.6590   20.0670 O   0  0  0  0  0  0  0  0  0  0  0  0
  -24.5630  -31.9050   23.1880 C   0  0  0  0  0  0  0  0  0  0  0  0
  -27.2120  -27.4810   20.1080 C   0  0  0  0  0  0  0  0  0  0  0  0
  -23.3540  -30.4870   21.5640 C   0  0  0  0  0  3  0  0  0  0  0  0
  -24.8090  -28.9600   20.1330 C   0  0  0  0  0  0  0  0  0  0  0  0
  -25.8720  -30.8740   21.3330 C   0  0  0  0  0  2  0  0  0  0  0  0
  -25.9680  -29.4990   20.7060 C   0  0  0  0  0  0  0  0  0  0  0  0
  -27.1800  -28.7710   20.6920 C   0  0  0  0  0  3  0  0  0  0  0  0
  -26.0350  -26.9490   19.5490 C   0  0  0  0  0  3  0  0  0  0  0  0
  -24.8360  -27.6810   19.5520 C   0  0  0  0  0  3  0  0  0  0  0  0
  -23.5560  -29.8050   20.1860 C   0  0  0  0  0  2  0  0  0  0  0  0
  -24.6160  -31.1010   22.0880 N   0  0  0  0  0  0  0  0  0  0  0  0
  -23.4850  -32.1680   23.7380 O   0  0  0  0  0  0  0  0  0  0  0  0
  -22.7200  -29.4630   22.5320 C   0  0  0  0  0  0  0  0  0  0  0  0
  -21.3940  -29.2770   22.4230 N   0  0  0  0  0  0  0  0  0  0  0  0
  -23.4160  -28.8380   23.3370 O   0  0  0  0  0  0  0  0  0  0  0  0
  -20.8930  -29.8300   21.7410 H   0  0  0  0  0  0  0  0  0  0  0  0
  -18.0290  -28.0750   22.9610 C   0  0  0  0  0  0  0  0  0  0  0  0
  -20.5890  -28.3390   23.2050 C   0  0  0  0  0  3  0  0  0  0  0  0
  -20.6900  -26.9070   22.6310 C   0  0  0  0  0  2  0  0  0  0  0  0
  -19.5770  -26.5800   21.6290 C   0  0  0  0  0  2  0  0  0  0  0  0
  -18.2020  -26.7250   22.2870 C   0  0  0  0  0  2  0  0  0  0  0  0
  -19.1510  -28.8400   23.3780 C   0  0  0  0  0  0  0  0  0  0  0  0
  -18.9350  -30.1050   23.9680 C   0  0  0  0  0  3  0  0  0  0  0  0
  -17.6320  -30.6050   24.1440 C   0  0  0  0  0  3  0  0  0  0  0  0
  -16.5250  -29.8370   23.7440 C   0  0  0  0  0  3  0  0  0  0  0  0
  -16.7250  -28.5740   23.1590 C   0  0  0  0  0  3  0  0  0  0  0  0
  -25.8490  -32.5480   23.7940 C   0  0  0  0  0  3  0  0  0  0  0  0
  -25.5240  -33.9340   24.1520 N   0  0  0  0  0  0  0  0  0  0  0  0
  -25.8300  -35.0030   23.4040 C   0  0  0  0  0  0  0  0  0  0  0  0
  -26.4860  -34.9260   22.3620 O   0  0  0  0  0  0  0  0  0  0  0  0
  -24.9380  -34.0670   24.9640 H   0  0  0  0  0  0  0  0  0  0  0  0
  -24.0680  -36.7710   23.1000 C   0  0  0  0  0  1  0  0  0  0  0  0
  -25.3260  -36.3760   23.8890 C   0  0  0  0  0  3  0  0  0  0  0  0
  -27.4620  -37.2770   24.6960 C   0  0  0  0  0  1  0  0  0  0  0  0
  -26.3410  -37.4470   23.7760 N   0  0  0  0  0  0  0  0  0  0  0  0
  -25.9240  -38.3580   23.9510 H   0  0  0  0  0  0  0  0  0  0  0  0
  -26.4080  -31.7620   25.0440 C   0  0  1  0  0  0  0  0  0  0  0  0
  -25.3420  -31.4840   26.1290 C   0  0  0  0  0  1  0  0  0  0  0  0
  -27.0040  -30.4040   24.6080 C   0  0  0  0  0  1  0  0  0  0  0  0
  -27.5610  -32.5630   25.6940 C   0  0  0  0  0  1  0  0  0  0  0  0
  1 57  1  0
  2  4  1  0
  2  3  1  0
  3  5  1  0
  4  6  1  0
  5  8  1  0
  6  5  1  0
  6  1  1  0
  7  1  2  0
  8 10  2  0
  8  9  1  0
  9 12  1  0
 11  9  1  0
 13 14  2  0
 13 15  1  0
 14 17  1  0
 15 18  2  0
 17 12  1  0
 17 16  2  0
 18 16  1  0
 18 27  1  0
 19 27  1  0
 20 25  1  0
 21 22  1  0
 21 20  1  0
 23 22  1  0
 23 32  1  0
 23 24  1  0
 25 19  1  0
 25 24  1  0
 26 19  2  0
 27 28  1  0
 29 30  2  0
 30 31  1  0
 30 49  1  0
 31 34  1  0
 32 29  1  0
 32 33  1  0
 33 31  2  0
 34 35  1  0
 35 36  2  0
 37 40  1  0
 37 36  1  0
 38 37  2  0
 39 38  1  0
 39 34  2  0
 40 41  1  0
 41 42  1  0
 42 43  2  0
 44 43  1  0
 44 48  1  0
 45 44  2  0
 46 41  2  0
 46 45  1  0
 47 46  1  0
 49 50  1  0
 50 53  1  0
 50 52  1  0
 51 49  2  0
 54 55  1  0
 54 29  1  0
 56 54  1  0
 57 62  1  0
 58 57  1  0
 58 61  1  0
 59 58  1  0
 60 58  1  0
 62 63  1  0
 63 65  1  0
 64 75  2  0
 65 70  1  0
 66 74  1  0
 66 76  1  0
 67 73  1  0
 67 69  1  0
 68 74  1  0
 69 68  1  0
 70 69  2  0
 71 72  1  0
 71 65  2  0
 72 67  2  0
 73 66  1  0
 74 64  1  0
 76 78  2  0
 77 76  1  0
 79 77  1  0
 80 89  2  0
 80 85  1  0
 81 77  1  0
 81 85  1  0
 82 81  1  0
 83 84  1  0
 83 82  1  0
 84 80  1  0
 85 86  2  0
 86 87  1  0
 88 87  2  0
 89 88  1  0
 90 64  1  0
 90 91  1  0
 90100  1  0
 91 94  1  0
 92 96  1  0
 92 91  1  0
 93 92  2  0
 96 95  1  0
 98 96  1  0
 98 99  1  0
 98 97  1  0
100103  1  1
100101  1  0
102100  1  0
M  ISO  4  19 100  27 100  62 101  63 101
M  END
>  <TORSDO>  (77) 
F 22

>  <SCORE>  (77) 
-13.150

>  <name>  (77) 
78

>  <ligand_id>  (77) 
78

>  <original_smiles>  (77) 
[H]c1c([H])c(N([H])C(=O)N2C([H])([H])C([H])([H])C([H])([H])C([H])(n3nc(-c4c([H])c([H])c(Oc5c([H])c([H])c(F)c([H])c5F)c([H])c4[H])c(C(=O)N([H])[H])c3N([H])[H])C2([H])[H])c([H])c(C([H])([H])N([H])C(=O)C2([H])N(C(=O)C([H])(C([H])([H])Oc3c([H])c([H])c4c(c3[H])C([H])([H])N(C(=O)C([H])(N([H])C(=O)C([H])(N([H])C([H])([H])[H])C([H])([H])[H])C(C([H])([H])[H])(C([H])([H])[H])C([H])([H])[H])C([H])(C(=O)N([H])C3([H])c5c([H])c([H])c([H])c([H])c5C([H])([H])C([H])([H])C3([H])[H])C4([H])[H])[N+]([H])([H])[H])C([H])([H])C([H])([H])C2([H])[H])c1[H]

>  <smiles>  (77) 
[H]c1c([H])c(N([H])C(=O)N2C([H])([H])C([H])([H])C([H])([H])C([H])(n3nc(-c4c([H])c([H])c(Oc5c([H])c([H])c(F)c([H])c5F)c([H])c4[H])c(C(=O)N([H])[H])c3N([H])[H])C2([H])[H])c([H])c(C([H])([H])N([H])C(=O)C2([H])N(C(=O)C([H])(C([H])([H])Oc3c([H])c([H])c4c(c3[H])C([H])([H])N(C(=O)C([H])(N([H])C(=O)C([H])(N([H])C([H])([H])[H])C([H])([H])[H])C(C([H])([H])[H])(C([H])([H])[H])C([H])([H])[H])C([H])(C(=O)N([H])C3([H])c5c([H])c([H])c([H])c([H])c5C([H])([H])C([H])([H])C3([H])[H])C4([H])[H])[N+]([H])([H])[H])C([H])([H])C([H])([H])C2([H])[H])c1[H]

$$$$
79:0:0
     RDKit          3D

100109  0  0  1  0  0  0  0  0999 V2000
  -30.2480  -22.0470   19.4550 C   0  0  0  0  0  2  0  0  0  0  0  0
  -29.9520  -22.1460   21.8990 C   0  0  0  0  0  2  0  0  0  0  0  0
  -30.6110  -23.5490   19.4260 C   0  0  0  0  0  2  0  0  0  0  0  0
  -30.2890  -23.6590   21.8850 C   0  0  0  0  0  2  0  0  0  0  0  0
  -30.7070  -21.4080   20.7740 C   0  0  0  0  0  3  0  0  0  0  0  0
  -30.0330  -24.3230   20.5640 N   0  0  1  0  0  4  0  0  0  0  0  0
  -29.0320  -24.2930   20.4170 H   0  0  0  0  0  0  0  0  0  0  0  0
  -29.3370  -19.2400   20.9060 C   0  0  0  0  0  3  0  0  0  0  0  0
  -29.2080  -17.8340   20.9450 C   0  0  0  0  0  3  0  0  0  0  0  0
  -31.6060  -17.6120   20.7430 C   0  0  0  0  0  3  0  0  0  0  0  0
  -31.7490  -19.0170   20.6770 C   0  0  0  0  0  0  0  0  0  0  0  0
  -30.6020  -19.8630   20.7790 C   0  0  0  0  0  0  0  0  0  0  0  0
  -30.3380  -16.9940   20.8540 C   0  0  0  0  0  0  0  0  0  0  0  0
  -30.7810  -14.5960   20.2040 C   0  0  0  0  0  0  0  0  0  0  0  0
  -30.4370  -12.4610   19.0140 C   0  0  0  0  0  2  0  0  0  0  0  0
  -29.4390  -12.6840   17.8600 C   0  0  0  0  0  2  0  0  0  0  0  0
  -27.9890  -12.5170   18.3560 C   0  0  0  0  0  2  0  0  0  0  0  0
  -27.7030  -13.3220   19.6530 C   0  0  0  0  0  3  0  0  0  0  0  0
  -28.8130  -13.0900   20.7040 C   0  0  0  0  0  2  0  0  0  0  0  0
  -30.1070  -13.4180   20.0830 N   0  0  0  0  0  0  0  0  0  0  0  0
  -31.8660  -14.7830   19.6470 O   0  0  0  0  0  0  0  0  0  0  0  0
  -30.1330  -15.5720   20.8780 N   0  0  0  0  0  0  0  0  0  0  0  0
  -29.2680  -15.2650   21.2990 H   0  0  0  0  0  0  0  0  0  0  0  0
  -25.3390  -13.8860   20.5000 C   0  0  0  0  0  0  0  0  0  0  0  0
  -24.2960  -13.0920   20.8970 C   0  0  0  0  0  0  0  0  0  0  0  0
  -24.7640  -11.7450   20.7990 C   0  0  0  0  0  0  0  0  0  0  0  0
  -26.3770  -13.0210   20.1880 N   0  0  0  0  0  0  0  0  0  0  0  0
  -26.0370  -11.7270   20.4250 N   0  0  0  0  0  0  0  0  0  0  0  0
  -24.0570  -10.4720   20.9840 C   0  0  0  0  0  0  0  0  0  0  0  0
  -24.4830   -9.5230   21.9410 C   0  0  0  0  0  3  0  0  0  0  0  0
  -23.7760   -8.3140   22.1140 C   0  0  0  0  0  3  0  0  0  0  0  0
  -22.6290   -8.0440   21.3310 C   0  0  0  0  0  0  0  0  0  0  0  0
  -22.2220   -8.9810   20.3650 C   0  0  0  0  0  3  0  0  0  0  0  0
  -22.9300  -10.1820   20.1900 C   0  0  0  0  0  3  0  0  0  0  0  0
  -21.8950   -6.8840   21.4110 O   0  0  0  0  0  0  0  0  0  0  0  0
  -21.7470   -6.2080   22.5950 C   0  0  0  0  0  0  0  0  0  0  0  0
  -21.1050   -6.7910   23.7100 C   0  0  0  0  0  3  0  0  0  0  0  0
  -20.9100   -6.0360   24.8830 C   0  0  0  0  0  3  0  0  0  0  0  0
  -21.3460   -4.6980   24.9420 C   0  0  0  0  0  0  0  0  0  0  0  0
  -21.9800   -4.1150   23.8320 C   0  0  0  0  0  3  0  0  0  0  0  0
  -22.1770   -4.8670   22.6600 C   0  0  0  0  0  0  0  0  0  0  0  0
  -22.7690   -4.2940   21.5850 F   0  0  0  0  0  0  0  0  0  0  0  0
  -21.1510   -3.9710   26.0670 F   0  0  0  0  0  0  0  0  0  0  0  0
  -22.9110  -13.5480   21.2550 C   0  0  0  0  0  0  0  0  0  0  0  0
  -22.2320  -12.8200   22.1350 N   0  0  0  0  0  0  0  0  0  0  0  0
  -22.4380  -14.5850   20.7910 O   0  0  0  0  0  0  0  0  0  0  0  0
  -22.6270  -11.9800   22.5340 H   0  0  0  0  0  0  0  0  0  0  0  0
  -21.3040  -13.1060   22.4130 H   0  0  0  0  0  0  0  0  0  0  0  0
  -25.4860  -15.2630   20.3600 N   0  0  0  0  0  0  0  0  0  0  0  0
  -24.7190  -15.9070   20.5190 H   0  0  0  0  0  0  0  0  0  0  0  0
  -26.3130  -15.7160   19.9920 H   0  0  0  0  0  0  0  0  0  0  0  0
  -33.1460  -19.5440   20.5130 C   0  0  0  0  0  0  0  0  0  0  0  0
  -33.3960  -20.1930   19.3840 N   0  0  0  0  0  0  0  0  0  0  0  0
  -34.0180  -19.3350   21.3550 O   0  0  0  0  0  0  0  0  0  0  0  0
  -32.6700  -20.2760   18.6890 H   0  0  0  0  0  0  0  0  0  0  0  0
  -34.3210  -20.5420   19.1880 H   0  0  0  0  0  0  0  0  0  0  0  0
  -31.6980  -26.1520   21.2380 C   0  0  0  0  0  1  0  0  0  0  0  0
  -30.3970  -25.7850   20.4860 C   0  0  0  0  0  3  0  0  0  0  0  0
  -29.2330  -26.7320   20.8740 C   0  0  0  0  0  2  0  0  0  0  0  0
  -28.2910  -26.7340   19.8050 O   0  0  0  0  0  0  0  0  0  0  0  0
  -24.4660  -31.7860   23.1710 C   0  0  0  0  0  0  0  0  0  0  0  0
  -27.1570  -27.5080   19.9200 C   0  0  0  0  0  0  0  0  0  0  0  0
  -23.2670  -30.4330   21.4790 C   0  0  0  0  0  3  0  0  0  0  0  0
  -24.7350  -28.9680   19.9940 C   0  0  0  0  0  0  0  0  0  0  0  0
  -25.7830  -30.8360   21.2830 C   0  0  0  0  0  2  0  0  0  0  0  0
  -25.8850  -29.4860   20.6040 C   0  0  0  0  0  0  0  0  0  0  0  0
  -27.0970  -28.7610   20.5770 C   0  0  0  0  0  3  0  0  0  0  0  0
  -25.9940  -27.0100   19.2980 C   0  0  0  0  0  3  0  0  0  0  0  0
  -24.7820  -27.7240   19.3410 C   0  0  0  0  0  3  0  0  0  0  0  0
  -23.4790  -29.8060   20.0750 C   0  0  0  0  0  2  0  0  0  0  0  0
  -24.5230  -31.0310   22.0370 N   0  0  0  0  0  0  0  0  0  0  0  0
  -23.3860  -32.0240   23.7270 O   0  0  0  0  0  0  0  0  0  0  0  0
  -22.6340  -29.3680   22.4040 C   0  0  0  0  0  0  0  0  0  0  0  0
  -21.3120  -29.1730   22.2730 N   0  0  0  0  0  0  0  0  0  0  0  0
  -23.3290  -28.7210   23.1920 O   0  0  0  0  0  0  0  0  0  0  0  0
  -20.8110  -29.7510   21.6120 H   0  0  0  0  0  0  0  0  0  0  0  0
  -17.9500  -27.9500   22.7680 C   0  0  0  0  0  0  0  0  0  0  0  0
  -20.5110  -28.1970   23.0090 C   0  0  0  0  0  3  0  0  0  0  0  0
  -20.6050  -26.7960   22.3610 C   0  0  0  0  0  2  0  0  0  0  0  0
  -19.4870  -26.5240   21.3500 C   0  0  0  0  0  2  0  0  0  0  0  0
  -18.1160  -26.6360   22.0240 C   0  0  0  0  0  2  0  0  0  0  0  0
  -19.0750  -28.6900   23.2170 C   0  0  0  0  0  0  0  0  0  0  0  0
  -18.8670  -29.9230   23.8730 C   0  0  0  0  0  3  0  0  0  0  0  0
  -17.5660  -30.4160   24.0850 C   0  0  0  0  0  3  0  0  0  0  0  0
  -16.4550  -29.6710   23.6520 C   0  0  0  0  0  3  0  0  0  0  0  0
  -16.6480  -28.4400   23.0000 C   0  0  0  0  0  3  0  0  0  0  0  0
  -25.7490  -32.4060   23.8060 C   0  0  0  0  0  3  0  0  0  0  0  0
  -26.2730  -31.6050   25.0600 C   0  0  1  0  0  0  0  0  0  0  0  0
  -25.1820  -31.3270   26.1200 C   0  0  0  0  0  1  0  0  0  0  0  0
  -26.8680  -30.2440   24.6260 C   0  0  0  0  0  1  0  0  0  0  0  0
  -27.4140  -32.3900   25.7480 C   0  0  0  0  0  1  0  0  0  0  0  0
  -25.4360  -33.7950   24.1690 N   0  0  0  0  0  0  0  0  0  0  0  0
  -25.7710  -34.8650   23.4360 C   0  0  0  0  0  0  0  0  0  0  0  0
  -26.4490  -34.7880   22.4090 O   0  0  0  0  0  0  0  0  0  0  0  0
  -24.8350  -33.9280   24.9690 H   0  0  0  0  0  0  0  0  0  0  0  0
  -24.0640  -36.6760   23.0860 C   0  0  0  0  0  1  0  0  0  0  0  0
  -25.2760  -36.2410   23.9230 C   0  0  0  0  0  3  0  0  0  0  0  0
  -27.3770  -37.1000   24.8610 C   0  0  0  0  0  1  0  0  0  0  0  0
  -26.3170  -37.2900   23.8750 N   0  0  0  0  0  0  0  0  0  0  0  0
  -25.9080  -38.2090   24.0220 H   0  0  0  0  0  0  0  0  0  0  0  0
  1  5  1  0
  3  1  1  0
  3  6  1  0
  4  2  1  0
  5 12  1  0
  5  2  1  0
  6  4  1  0
  6  7  1  6
  8  9  1  0
 10 13  1  0
 11 10  2  0
 11 12  1  0
 12  8  2  0
 13 22  1  0
 13  9  2  0
 14 22  1  0
 15 20  1  0
 16 17  1  0
 16 15  1  0
 18 17  1  0
 18 27  1  0
 18 19  1  0
 20 14  1  0
 20 19  1  0
 21 14  2  0
 22 23  1  0
 24 25  2  0
 25 44  1  0
 26 25  1  0
 26 29  1  0
 27 28  1  0
 27 24  1  0
 28 26  2  0
 29 30  1  0
 30 31  2  0
 32 35  1  0
 32 31  1  0
 33 32  2  0
 34 33  1  0
 34 29  2  0
 35 36  1  0
 36 41  2  0
 36 37  1  0
 37 38  2  0
 38 39  1  0
 39 43  1  0
 40 39  2  0
 41 40  1  0
 42 41  1  0
 44 45  1  0
 45 48  1  0
 45 47  1  0
 46 44  2  0
 49 24  1  0
 49 50  1  0
 51 49  1  0
 52 11  1  0
 52 54  2  0
 53 52  1  0
 55 53  1  0
 56 53  1  0
 58  6  1  0
 58 59  1  0
 58 57  1  0
 60 62  1  0
 60 59  1  0
 61 72  2  0
 62 67  1  0
 63 71  1  0
 63 73  1  0
 64 70  1  0
 64 66  1  0
 65 71  1  0
 66 65  1  0
 67 66  2  0
 68 69  1  0
 68 62  2  0
 69 64  2  0
 70 63  1  0
 71 61  1  0
 73 75  2  0
 74 73  1  0
 76 74  1  0
 77 86  2  0
 77 82  1  0
 78 74  1  0
 78 82  1  0
 79 78  1  0
 80 81  1  0
 80 79  1  0
 81 77  1  0
 82 83  2  0
 83 84  1  0
 85 84  2  0
 86 85  1  0
 87 61  1  0
 87 92  1  0
 87 88  1  0
 88 91  1  1
 88 89  1  0
 90 88  1  0
 92 95  1  0
 93 97  1  0
 93 92  1  0
 94 93  2  0
 97 96  1  0
 99 97  1  0
 99100  1  0
 99 98  1  0
M  ISO  4  14 100  22 100  59 101  60 101
M  END
>  <TORSDO>  (78) 
F 20

>  <SCORE>  (78) 
-14.071

>  <name>  (78) 
79

>  <ligand_id>  (78) 
79

>  <original_smiles>  (78) 
[H]c1c([H])c([H])c2c(c1[H])C([H])([H])C([H])([H])C([H])([H])C2([H])N([H])C(=O)C1([H])N(C(=O)C([H])(N([H])C(=O)C([H])(N([H])C([H])([H])[H])C([H])([H])[H])C(C([H])([H])[H])(C([H])([H])[H])C([H])([H])[H])C([H])([H])c2c([H])c(OC([H])([H])C([H])(C([H])([H])[H])[N+]3([H])C([H])([H])C([H])([H])C([H])(c4c([H])c([H])c(N([H])C(=O)N5C([H])([H])C([H])([H])C([H])([H])C([H])(n6nc(-c7c([H])c([H])c(Oc8c([H])c([H])c(F)c([H])c8F)c([H])c7[H])c(C(=O)N([H])[H])c6N([H])[H])C5([H])[H])c([H])c4C(=O)N([H])[H])C([H])([H])C3([H])[H])c([H])c([H])c2C1([H])[H]

>  <smiles>  (78) 
[H]c1c([H])c([H])c2c(c1[H])C([H])([H])C([H])([H])C([H])([H])C2([H])N([H])C(=O)C1([H])N(C(=O)C([H])(N([H])C(=O)C([H])(N([H])C([H])([H])[H])C([H])([H])[H])C(C([H])([H])[H])(C([H])([H])[H])C([H])([H])[H])C([H])([H])c2c([H])c(OC([H])([H])C([H])(C([H])([H])[H])[N+]3([H])C([H])([H])C([H])([H])C([H])(c4c([H])c([H])c(N([H])C(=O)N5C([H])([H])C([H])([H])C([H])([H])C([H])(n6nc(-c7c([H])c([H])c(Oc8c([H])c([H])c(F)c([H])c8F)c([H])c7[H])c(C(=O)N([H])[H])c6N([H])[H])C5([H])[H])c([H])c4C(=O)N([H])[H])C([H])([H])C3([H])[H])c([H])c([H])c2C1([H])[H]

$$$$
80:0:0
     RDKit          3D

102110  0  0  1  0  0  0  0  0999 V2000
  -28.3570  -24.5340   20.8060 C   0  0  0  0  0  0  0  0  0  0  0  0
  -29.3170  -21.5420   18.8780 C   0  0  0  0  0  2  0  0  0  0  0  0
  -29.1550  -20.9790   21.2960 C   0  0  0  0  0  2  0  0  0  0  0  0
  -28.3230  -22.7060   19.0900 C   0  0  0  0  0  2  0  0  0  0  0  0
  -28.1700  -22.1570   21.4810 C   0  0  0  0  0  2  0  0  0  0  0  0
  -29.1410  -20.3550   19.8700 C   0  0  1  0  0  0  0  0  0  0  0  0
  -28.3650  -23.2140   20.4700 N   0  0  0  0  0  0  0  0  0  0  0  0
  -28.1660  -24.9030   21.9700 O   0  0  0  0  0  0  0  0  0  0  0  0
  -27.8150  -19.5720   19.6310 C   0  0  0  0  0  0  0  0  0  0  0  0
  -27.1010  -19.7910   18.5340 N   0  0  0  0  0  0  0  0  0  0  0  0
  -27.4440  -18.7300   20.4460 O   0  0  0  0  0  0  0  0  0  0  0  0
  -27.4000  -20.4670   17.8450 H   0  0  0  0  0  0  0  0  0  0  0  0
  -26.2420  -19.2820   18.3800 H   0  0  0  0  0  0  0  0  0  0  0  0
  -28.6410  -25.6090   19.7330 C   0  0  0  0  0  2  0  0  0  0  0  0
  -28.5150  -26.9300   20.2820 O   0  0  0  0  0  0  0  0  0  0  0  0
  -24.5830  -31.9940   23.3480 C   0  0  0  0  0  0  0  0  0  0  0  0
  -27.2950  -27.5770   20.2850 C   0  0  0  0  0  0  0  0  0  0  0  0
  -23.4060  -30.5830   21.6960 C   0  0  0  0  0  3  0  0  0  0  0  0
  -24.8810  -29.0540   20.2920 C   0  0  0  0  0  0  0  0  0  0  0  0
  -25.9310  -30.9560   21.5290 C   0  0  0  0  0  2  0  0  0  0  0  0
  -26.0300  -29.5900   20.8830 C   0  0  0  0  0  0  0  0  0  0  0  0
  -27.2370  -28.8600   20.8730 C   0  0  0  0  0  3  0  0  0  0  0  0
  -26.1140  -27.0410   19.7130 C   0  0  0  0  0  3  0  0  0  0  0  0
  -24.9160  -27.7770   19.7080 C   0  0  0  0  0  3  0  0  0  0  0  0
  -23.6340  -29.9060   20.3190 C   0  0  0  0  0  2  0  0  0  0  0  0
  -24.6580  -31.1910   22.2500 N   0  0  0  0  0  0  0  0  0  0  0  0
  -23.4930  -32.2610   23.8750 O   0  0  0  0  0  0  0  0  0  0  0  0
  -22.7540  -29.5560   22.6490 C   0  0  0  0  0  0  0  0  0  0  0  0
  -21.4370  -29.3460   22.4890 N   0  0  0  0  0  0  0  0  0  0  0  0
  -23.4290  -28.9480   23.4840 O   0  0  0  0  0  0  0  0  0  0  0  0
  -20.9580  -29.8920   21.7880 H   0  0  0  0  0  0  0  0  0  0  0  0
  -18.0770  -28.0800   22.8910 C   0  0  0  0  0  0  0  0  0  0  0  0
  -20.6170  -28.4000   23.2450 C   0  0  0  0  0  3  0  0  0  0  0  0
  -20.7730  -26.9650   22.6920 C   0  0  0  0  0  2  0  0  0  0  0  0
  -19.7120  -26.6020   21.6490 C   0  0  0  0  0  2  0  0  0  0  0  0
  -18.3060  -26.7250   22.2460 C   0  0  0  0  0  2  0  0  0  0  0  0
  -19.1630  -28.8740   23.3460 C   0  0  0  0  0  0  0  0  0  0  0  0
  -18.8960  -30.1420   23.9100 C   0  0  0  0  0  3  0  0  0  0  0  0
  -17.5760  -30.6140   24.0270 C   0  0  0  0  0  3  0  0  0  0  0  0
  -16.5030  -29.8140   23.5920 C   0  0  0  0  0  3  0  0  0  0  0  0
  -16.7550  -28.5520   23.0280 C   0  0  0  0  0  3  0  0  0  0  0  0
  -25.8590  -32.6370   23.9770 C   0  0  0  0  0  3  0  0  0  0  0  0
  -25.5490  -34.0440   24.2620 N   0  0  0  0  0  0  0  0  0  0  0  0
  -25.8980  -35.0730   23.4800 C   0  0  0  0  0  0  0  0  0  0  0  0
  -26.5840  -34.9400   22.4620 O   0  0  0  0  0  0  0  0  0  0  0  0
  -24.9510  -34.2230   25.0560 H   0  0  0  0  0  0  0  0  0  0  0  0
  -24.1830  -36.8600   23.0420 C   0  0  0  0  0  1  0  0  0  0  0  0
  -25.4040  -36.4740   23.8900 C   0  0  0  0  0  3  0  0  0  0  0  0
  -27.5240  -37.3700   24.7420 C   0  0  0  0  0  1  0  0  0  0  0  0
  -26.4400  -37.5210   23.7750 N   0  0  0  0  0  0  0  0  0  0  0  0
  -26.0350  -38.4450   23.9010 H   0  0  0  0  0  0  0  0  0  0  0  0
  -26.3480  -31.9000   25.2830 C   0  0  1  0  0  0  0  0  0  0  0  0
  -25.2280  -31.6660   26.3250 C   0  0  0  0  0  1  0  0  0  0  0  0
  -26.9580  -30.5230   24.9340 C   0  0  0  0  0  1  0  0  0  0  0  0
  -27.4710  -32.7190   25.9620 C   0  0  0  0  0  1  0  0  0  0  0  0
  -30.3620  -19.3900   19.6970 C   0  0  0  0  0  2  0  0  0  0  0  0
  -30.4410  -18.2510   20.6550 N   0  0  0  0  0  4  0  0  0  0  0  0
  -29.6700  -17.6330   20.4460 H   0  0  0  0  0  0  0  0  0  0  0  0
  -30.2950  -18.5730   21.5970 H   0  0  0  0  0  0  0  0  0  0  0  0
  -31.6880  -17.4510   20.5580 C   0  0  0  0  0  3  0  0  0  0  0  0
  -32.8530  -18.2210   20.9770 N   0  0  0  0  0  0  0  0  0  0  0  0
  -32.7930  -18.5450   21.9360 H   0  0  0  0  0  0  0  0  0  0  0  0
  -33.0000  -19.0460   20.4090 H   0  0  0  0  0  0  0  0  0  0  0  0
  -31.6410  -16.1750   21.4310 C   0  0  0  0  0  2  0  0  0  0  0  0
  -31.0040  -14.3240   19.9220 C   0  0  0  0  0  0  0  0  0  0  0  0
  -30.5530  -12.1190   18.9110 C   0  0  0  0  0  2  0  0  0  0  0  0
  -29.5350  -12.1880   17.7580 C   0  0  0  0  0  2  0  0  0  0  0  0
  -28.0970  -12.0980   18.2990 C   0  0  0  0  0  2  0  0  0  0  0  0
  -27.8370  -13.0850   19.4680 C   0  0  0  0  0  3  0  0  0  0  0  0
  -28.9530  -12.9860   20.5320 C   0  0  0  0  0  2  0  0  0  0  0  0
  -30.2540  -13.1950   19.8680 N   0  0  0  0  0  0  0  0  0  0  0  0
  -31.9520  -14.5460   19.1650 O   0  0  0  0  0  0  0  0  0  0  0  0
  -30.7210  -15.1550   20.9360 N   0  0  0  0  0  0  0  0  0  0  0  0
  -29.9510  -14.8860   21.5300 H   0  0  0  0  0  0  0  0  0  0  0  0
  -25.5460  -13.8060   20.3990 C   0  0  0  0  0  0  0  0  0  0  0  0
  -24.4680  -13.0810   20.8390 C   0  0  0  0  0  0  0  0  0  0  0  0
  -24.8460  -11.7090   20.7310 C   0  0  0  0  0  0  0  0  0  0  0  0
  -26.5140  -12.8750   20.0550 N   0  0  0  0  0  0  0  0  0  0  0  0
  -26.0990  -11.6070   20.3100 N   0  0  0  0  0  0  0  0  0  0  0  0
  -24.0660  -10.4830   20.9490 C   0  0  0  0  0  0  0  0  0  0  0  0
  -24.4960   -9.4850   21.8510 C   0  0  0  0  0  3  0  0  0  0  0  0
  -23.7210   -8.3240   22.0570 C   0  0  0  0  0  3  0  0  0  0  0  0
  -22.5020   -8.1520   21.3600 C   0  0  0  0  0  0  0  0  0  0  0  0
  -22.0900   -9.1380   20.4440 C   0  0  0  0  0  3  0  0  0  0  0  0
  -22.8660  -10.2910   20.2370 C   0  0  0  0  0  3  0  0  0  0  0  0
  -21.6960   -7.0450   21.4760 O   0  0  0  0  0  0  0  0  0  0  0  0
  -21.6380   -6.3150   22.6360 C   0  0  0  0  0  0  0  0  0  0  0  0
  -21.2720   -6.9020   23.8680 C   0  0  0  0  0  3  0  0  0  0  0  0
  -21.1560   -6.1020   25.0220 C   0  0  0  0  0  3  0  0  0  0  0  0
  -21.3990   -4.7180   24.9470 C   0  0  0  0  0  0  0  0  0  0  0  0
  -21.7590   -4.1310   23.7210 C   0  0  0  0  0  3  0  0  0  0  0  0
  -21.8760   -4.9290   22.5690 C   0  0  0  0  0  0  0  0  0  0  0  0
  -22.2010   -4.3540   21.3860 F   0  0  0  0  0  0  0  0  0  0  0  0
  -21.2820   -3.9470   26.0540 F   0  0  0  0  0  0  0  0  0  0  0  0
  -23.1300  -13.6270   21.2450 C   0  0  0  0  0  0  0  0  0  0  0  0
  -22.4450  -12.9510   22.1610 N   0  0  0  0  0  0  0  0  0  0  0  0
  -22.7050  -14.6870   20.7880 O   0  0  0  0  0  0  0  0  0  0  0  0
  -22.8040  -12.0930   22.5540 H   0  0  0  0  0  0  0  0  0  0  0  0
  -21.5500  -13.2990   22.4750 H   0  0  0  0  0  0  0  0  0  0  0  0
  -25.7750  -15.1690   20.2460 N   0  0  0  0  0  0  0  0  0  0  0  0
  -25.0620  -15.8610   20.4440 H   0  0  0  0  0  0  0  0  0  0  0  0
  -26.6310  -15.5740   19.8880 H   0  0  0  0  0  0  0  0  0  0  0  0
  1  8  2  0
  2  4  1  0
  2  6  1  0
  3  5  1  0
  4  7  1  0
  6 56  1  1
  6  3  1  0
  7  1  1  0
  7  5  1  0
  9  6  1  0
  9 11  2  0
 10  9  1  0
 12 10  1  0
 13 10  1  0
 14 15  1  0
 14  1  1  0
 15 17  1  0
 16 27  2  0
 17 22  1  0
 18 26  1  0
 18 28  1  0
 19 25  1  0
 19 21  1  0
 20 26  1  0
 21 20  1  0
 22 21  2  0
 23 17  2  0
 24 23  1  0
 24 19  2  0
 25 18  1  0
 26 16  1  0
 28 30  2  0
 29 28  1  0
 31 29  1  0
 32 41  2  0
 32 37  1  0
 33 29  1  0
 33 37  1  0
 34 33  1  0
 35 36  1  0
 35 34  1  0
 36 32  1  0
 37 38  2  0
 38 39  1  0
 40 39  2  0
 41 40  1  0
 42 16  1  0
 42 43  1  0
 42 52  1  0
 43 46  1  0
 44 48  1  0
 44 43  1  0
 45 44  2  0
 48 47  1  0
 50 48  1  0
 50 51  1  0
 50 49  1  0
 52 55  1  1
 52 53  1  0
 54 52  1  0
 56 57  1  0
 57 59  1  0
 58 57  1  0
 60 57  1  0
 60 61  1  0
 60 64  1  0
 61 62  1  0
 63 61  1  0
 65 73  1  0
 66 71  1  0
 67 68  1  0
 67 66  1  0
 69 68  1  0
 69 78  1  0
 69 70  1  0
 71 65  1  0
 71 70  1  0
 72 65  2  0
 73 64  1  0
 73 74  1  0
 75 76  2  0
 76 95  1  0
 77 76  1  0
 77 80  1  0
 78 79  1  0
 78 75  1  0
 79 77  2  0
 80 81  1  0
 81 82  2  0
 83 86  1  0
 83 82  1  0
 84 83  2  0
 85 84  1  0
 85 80  2  0
 86 87  1  0
 87 88  1  0
 88 89  2  0
 90 89  1  0
 90 94  1  0
 91 90  2  0
 92 87  2  0
 92 91  1  0
 93 92  1  0
 95 96  1  0
 96 99  1  0
 96 98  1  0
 97 95  2  0
100 75  1  0
100101  1  0
102100  1  0
M  ISO  4  14 101  15 101  65 100  73 100
M  END
>  <TORSDO>  (79) 
F 23

>  <SCORE>  (79) 
-13.104

>  <name>  (79) 
80

>  <ligand_id>  (79) 
80

>  <original_smiles>  (79) 
[H]c1c([H])c([H])c2c(c1[H])C([H])([H])C([H])([H])C([H])([H])C2([H])N([H])C(=O)C1([H])N(C(=O)C([H])(N([H])C(=O)C([H])(N([H])C([H])([H])[H])C([H])([H])[H])C(C([H])([H])[H])(C([H])([H])[H])C([H])([H])[H])C([H])([H])c2c([H])c(OC([H])([H])C(=O)N3C([H])([H])C([H])([H])C(C(=O)N([H])[H])(C([H])([H])[N+]([H])([H])C([H])(N([H])[H])C([H])([H])N([H])C(=O)N4C([H])([H])C([H])([H])C([H])([H])C([H])(n5nc(-c6c([H])c([H])c(Oc7c([H])c([H])c(F)c([H])c7F)c([H])c6[H])c(C(=O)N([H])[H])c5N([H])[H])C4([H])[H])C([H])([H])C3([H])[H])c([H])c([H])c2C1([H])[H]

>  <smiles>  (79) 
[H]c1c([H])c([H])c2c(c1[H])C([H])([H])C([H])([H])C([H])([H])C2([H])N([H])C(=O)C1([H])N(C(=O)C([H])(N([H])C(=O)C([H])(N([H])C([H])([H])[H])C([H])([H])[H])C(C([H])([H])[H])(C([H])([H])[H])C([H])([H])[H])C([H])([H])c2c([H])c(OC([H])([H])C(=O)N3C([H])([H])C([H])([H])C(C(=O)N([H])[H])(C([H])([H])[N+]([H])([H])C([H])(N([H])[H])C([H])([H])N([H])C(=O)N4C([H])([H])C([H])([H])C([H])([H])C([H])(n5nc(-c6c([H])c([H])c(Oc7c([H])c([H])c(F)c([H])c7F)c([H])c6[H])c(C(=O)N([H])[H])c5N([H])[H])C4([H])[H])C([H])([H])C3([H])[H])c([H])c([H])c2C1([H])[H]

$$$$
81:0:0
     RDKit          3D

106114  0  0  1  0  0  0  0  0999 V2000
  -33.1400  -28.7330    8.0720 C   0  0  0  0  0  3  0  0  0  0  0  0
  -32.4930  -29.4760    7.0610 C   0  0  0  0  0  3  0  0  0  0  0  0
  -33.5940  -31.4840    7.8580 C   0  0  0  0  0  3  0  0  0  0  0  0
  -34.0170  -29.3480    9.0040 C   0  0  0  0  0  0  0  0  0  0  0  0
  -34.2570  -30.7550    8.8710 C   0  0  0  0  0  0  0  0  0  0  0  0
  -32.6990  -30.8690    6.9640 C   0  0  0  0  0  0  0  0  0  0  0  0
  -31.7990  -32.9940    5.9400 C   0  0  0  0  0  0  0  0  0  0  0  0
  -30.4650  -34.6340    4.6310 C   0  0  0  0  0  2  0  0  0  0  0  0
  -29.1350  -34.9720    5.3270 C   0  0  0  0  0  2  0  0  0  0  0  0
  -28.0430  -33.9420    4.9780 C   0  0  0  0  0  2  0  0  0  0  0  0
  -28.5380  -32.4830    5.1620 C   0  0  0  0  0  3  0  0  0  0  0  0
  -29.8920  -32.2890    4.4570 C   0  0  0  0  0  2  0  0  0  0  0  0
  -30.8600  -33.2700    4.9990 N   0  0  0  0  0  0  0  0  0  0  0  0
  -32.3820  -33.8620    6.6060 O   0  0  0  0  0  0  0  0  0  0  0  0
  -32.1250  -31.6890    5.9590 N   0  0  0  0  0  0  0  0  0  0  0  0
  -31.7460  -31.1900    5.1710 H   0  0  0  0  0  0  0  0  0  0  0  0
  -26.5820  -31.6460    3.7020 C   0  0  0  0  0  0  0  0  0  0  0  0
  -25.9740  -30.4230    3.6090 C   0  0  0  0  0  0  0  0  0  0  0  0
  -26.6220  -29.5850    4.5680 C   0  0  0  0  0  0  0  0  0  0  0  0
  -27.5530  -31.5120    4.6840 N   0  0  0  0  0  0  0  0  0  0  0  0
  -27.5390  -30.2720    5.2360 N   0  0  0  0  0  0  0  0  0  0  0  0
  -26.4740  -28.1500    4.8420 C   0  0  0  0  0  0  0  0  0  0  0  0
  -25.8390  -27.2810    3.9260 C   0  0  0  0  0  3  0  0  0  0  0  0
  -25.7310  -25.9010    4.2070 C   0  0  0  0  0  3  0  0  0  0  0  0
  -26.2570  -25.3790    5.4120 C   0  0  0  0  0  0  0  0  0  0  0  0
  -26.8680  -26.2520    6.3310 C   0  0  0  0  0  3  0  0  0  0  0  0
  -26.9680  -27.6260    6.0530 C   0  0  0  0  0  3  0  0  0  0  0  0
  -26.1700  -24.0590    5.7860 O   0  0  0  0  0  0  0  0  0  0  0  0
  -27.2650  -23.3640    6.2300 C   0  0  0  0  0  0  0  0  0  0  0  0
  -28.4730  -23.3240    5.4980 C   0  0  0  0  0  3  0  0  0  0  0  0
  -29.5960  -22.6560    6.0260 C   0  0  0  0  0  3  0  0  0  0  0  0
  -29.5160  -22.0320    7.2860 C   0  0  0  0  0  0  0  0  0  0  0  0
  -28.3160  -22.0760    8.0200 C   0  0  0  0  0  3  0  0  0  0  0  0
  -27.1960  -22.7400    7.4920 C   0  0  0  0  0  0  0  0  0  0  0  0
  -26.0490  -22.7970    8.2120 F   0  0  0  0  0  0  0  0  0  0  0  0
  -30.5950  -21.3990    7.7970 F   0  0  0  0  0  0  0  0  0  0  0  0
  -24.9100  -30.0250    2.6260 C   0  0  0  0  0  0  0  0  0  0  0  0
  -25.2560  -29.1930    1.6490 N   0  0  0  0  0  0  0  0  0  0  0  0
  -23.7470  -30.4120    2.7460 O   0  0  0  0  0  0  0  0  0  0  0  0
  -26.2060  -28.8660    1.5560 H   0  0  0  0  0  0  0  0  0  0  0  0
  -24.5610  -28.8670    0.9900 H   0  0  0  0  0  0  0  0  0  0  0  0
  -26.4050  -32.8490    3.0280 N   0  0  0  0  0  0  0  0  0  0  0  0
  -25.7330  -32.9580    2.2760 H   0  0  0  0  0  0  0  0  0  0  0  0
  -26.9510  -33.6850    3.2010 H   0  0  0  0  0  0  0  0  0  0  0  0
  -35.2530  -31.5010    9.7200 C   0  0  0  0  0  0  0  0  0  0  0  0
  -36.0100  -30.7210   10.5030 N   0  0  0  0  0  0  0  0  0  0  0  0
  -35.3130  -32.7270    9.7180 O   0  0  0  0  0  0  0  0  0  0  0  0
  -35.9020  -29.7260   10.3890 H   0  0  0  0  0  0  0  0  0  0  0  0
  -36.7720  -31.1620   11.6620 C   0  0  0  0  0  2  0  0  0  0  0  0
  -38.0460  -31.8820   11.1900 C   0  0  0  0  0  2  0  0  0  0  0  0
  -40.5020  -32.1140   11.4260 C   0  0  0  0  0  1  0  0  0  0  0  0
  -39.0160  -32.1890   13.4110 C   0  0  0  0  0  1  0  0  0  0  0  0
  -39.2330  -31.6380   12.0470 N   0  0  1  0  0  4  0  0  0  0  0  0
  -39.3340  -30.6410   12.1730 H   0  0  0  0  0  0  0  0  0  0  0  0
  -34.5780  -28.5260   10.1430 C   0  0  0  0  0  0  0  0  0  0  0  0
  -34.7590  -29.1570   11.3140 N   0  0  0  0  0  0  0  0  0  0  0  0
  -34.8950  -27.3470    9.9800 O   0  0  0  0  0  0  0  0  0  0  0  0
  -34.4120  -30.1070   11.3800 H   0  0  0  0  0  0  0  0  0  0  0  0
  -35.6090  -28.6580   12.4100 C   0  0  0  0  0  2  0  0  0  0  0  0
  -35.1510  -29.2070   13.7960 C   0  0  0  0  0  2  0  0  0  0  0  0
  -34.9090  -28.0280   16.0330 C   0  0  0  0  0  1  0  0  0  0  0  0
  -34.3980  -28.2240   14.6460 N   0  0  2  0  0  4  0  0  0  0  0  0
  -33.5060  -28.6800   14.7790 H   0  0  0  0  0  0  0  0  0  0  0  0
  -34.0660  -26.9440   13.9290 C   0  0  0  0  0  2  0  0  0  0  0  0
  -33.8550  -25.7170   14.8890 C   0  0  0  0  0  2  0  0  0  0  0  0
  -35.0850  -25.1080   15.2730 O   0  0  0  0  0  0  0  0  0  0  0  0
  -37.4970  -19.5810   11.3170 C   0  0  0  0  0  0  0  0  0  0  0  0
  -35.9060  -24.5830   14.2860 C   0  0  0  0  0  0  0  0  0  0  0  0
  -38.7650  -21.7010   11.1570 C   0  0  0  0  0  3  0  0  0  0  0  0
  -37.6590  -23.7330   12.2250 C   0  0  0  0  0  0  0  0  0  0  0  0
  -36.2710  -21.7170   11.7260 C   0  0  0  0  0  2  0  0  0  0  0  0
  -36.5270  -22.9710   12.5390 C   0  0  0  0  0  0  0  0  0  0  0  0
  -35.6500  -23.3830   13.5760 C   0  0  0  0  0  3  0  0  0  0  0  0
  -37.0420  -25.3420   13.9410 C   0  0  0  0  0  3  0  0  0  0  0  0
  -37.9260  -24.9190   12.9270 C   0  0  0  0  0  3  0  0  0  0  0  0
  -38.5340  -23.2380   11.0960 C   0  0  0  0  0  2  0  0  0  0  0  0
  -37.4980  -20.9410   11.4220 N   0  0  0  0  0  0  0  0  0  0  0  0
  -38.5130  -18.9590   10.9800 O   0  0  0  0  0  0  0  0  0  0  0  0
  -39.8830  -21.3990   12.1840 C   0  0  0  0  0  0  0  0  0  0  0  0
  -40.0360  -20.1160   12.5490 N   0  0  0  0  0  0  0  0  0  0  0  0
  -40.6090  -22.3030   12.6100 O   0  0  0  0  0  0  0  0  0  0  0  0
  -39.4020  -19.4370   12.1520 H   0  0  0  0  0  0  0  0  0  0  0  0
  -40.5140  -18.3240   15.6470 C   0  0  0  0  0  0  0  0  0  0  0  0
  -41.0520  -19.6020   13.4640 C   0  0  0  0  0  3  0  0  0  0  0  0
  -41.6410  -18.2700   12.9480 C   0  0  0  0  0  2  0  0  0  0  0  0
  -40.9200  -17.0400   13.5050 C   0  0  0  0  0  2  0  0  0  0  0  0
  -40.9870  -17.0170   15.0350 C   0  0  0  0  0  2  0  0  0  0  0  0
  -40.5340  -19.5340   14.9070 C   0  0  0  0  0  0  0  0  0  0  0  0
  -40.0510  -20.7180   15.5090 C   0  0  0  0  0  3  0  0  0  0  0  0
  -39.5540  -20.7020   16.8260 C   0  0  0  0  0  3  0  0  0  0  0  0
  -39.5480  -19.5030   17.5630 C   0  0  0  0  0  3  0  0  0  0  0  0
  -40.0350  -18.3190   16.9740 C   0  0  0  0  0  3  0  0  0  0  0  0
  -36.2100  -18.7440   11.6160 C   0  0  0  0  0  3  0  0  0  0  0  0
  -36.1060  -18.2780   13.1190 C   0  0  1  0  0  0  0  0  0  0  0  0
  -34.6890  -18.4170   13.7180 C   0  0  0  0  0  1  0  0  0  0  0  0
  -36.5310  -16.7960   13.2520 C   0  0  0  0  0  1  0  0  0  0  0  0
  -37.0760  -19.1020   13.9980 C   0  0  0  0  0  1  0  0  0  0  0  0
  -36.2230  -17.5890   10.7130 N   0  0  0  0  0  0  0  0  0  0  0  0
  -36.1630  -17.6660    9.3750 C   0  0  0  0  0  0  0  0  0  0  0  0
  -36.0310  -18.7340    8.7700 O   0  0  0  0  0  0  0  0  0  0  0  0
  -36.3940  -16.6930   11.1390 H   0  0  0  0  0  0  0  0  0  0  0  0
  -37.2140  -15.3850    9.3340 C   0  0  0  0  0  1  0  0  0  0  0  0
  -36.2790  -16.3490    8.5860 C   0  0  0  0  0  3  0  0  0  0  0  0
  -35.6640  -16.5900    6.2230 C   0  0  0  0  0  1  0  0  0  0  0  0
  -36.7530  -16.5340    7.1950 N   0  0  0  0  0  0  0  0  0  0  0  0
  -37.3840  -15.7820    6.9290 H   0  0  0  0  0  0  0  0  0  0  0  0
  1  4  1  0
  2  1  2  0
  3  5  1  0
  4 55  1  0
  5  4  2  0
  5 45  1  0
  6  2  1  0
  6  3  2  0
  7 15  1  0
  7 14  2  0
  8 13  1  0
  8  9  1  0
 10 11  1  0
 10  9  1  0
 11 12  1  0
 12 13  1  0
 13  7  1  0
 15  6  1  0
 16 15  1  0
 17 20  1  0
 18 17  2  0
 18 19  1  0
 19 22  1  0
 19 21  2  0
 20 11  1  0
 20 21  1  0
 22 27  1  0
 23 24  1  0
 23 22  2  0
 24 25  2  0
 25 28  1  0
 25 26  1  0
 27 26  2  0
 28 29  1  0
 29 34  1  0
 30 31  1  0
 30 29  2  0
 31 32  2  0
 32 36  1  0
 32 33  1  0
 34 33  2  0
 34 35  1  0
 37 39  2  0
 37 18  1  0
 38 37  1  0
 40 38  1  0
 41 38  1  0
 42 44  1  0
 42 17  1  0
 43 42  1  0
 45 46  1  0
 46 49  1  0
 47 45  2  0
 48 46  1  0
 50 49  1  0
 50 53  1  0
 51 53  1  0
 53 54  1  1
 53 52  1  0
 55 56  1  0
 56 58  1  0
 56 59  1  0
 57 55  2  0
 59 60  1  0
 60 62  1  0
 62 63  1  1
 62 61  1  0
 64 62  1  0
 64 65  1  0
 65 66  1  0
 67 77  1  0
 68 66  1  0
 69 77  1  0
 69 79  1  0
 70 72  2  0
 70 75  1  0
 71 72  1  0
 72 73  1  0
 73 68  2  0
 74 68  1  0
 75 74  2  0
 76 69  1  0
 76 70  1  0
 77 71  1  0
 78 67  2  0
 79 80  1  0
 79 81  2  0
 82 80  1  0
 83 92  1  0
 84 80  1  0
 84 88  1  0
 85 84  1  0
 85 86  1  0
 86 87  1  0
 87 83  1  0
 88 89  1  0
 88 83  2  0
 89 90  2  0
 90 91  1  0
 92 91  2  0
 93 67  1  0
 93 94  1  0
 94 96  1  6
 94 95  1  0
 94 97  1  0
 98101  1  0
 98 93  1  0
 99 98  1  0
100 99  2  0
103102  1  0
103 99  1  0
104105  1  0
105103  1  0
106105  1  0
M  ISO  4   7 100  15 100  65 101  66 101
M  END
>  <TORSDO>  (80) 
F 26

>  <SCORE>  (80) 
-1.181

>  <name>  (80) 
81

>  <ligand_id>  (80) 
81

>  <original_smiles>  (80) 
[H]c1c([H])c([H])c2c(c1[H])C([H])([H])C([H])([H])C([H])([H])C2([H])N([H])C(=O)C1([H])N(C(=O)C([H])(N([H])C(=O)C([H])(N([H])C([H])([H])[H])C([H])([H])[H])C(C([H])([H])[H])(C([H])([H])[H])C([H])([H])[H])C([H])([H])c2c([H])c(OC([H])([H])C([H])([H])[N+]([H])(C([H])([H])[H])C([H])([H])C([H])([H])N([H])C(=O)c3c([H])c([H])c(N([H])C(=O)N4C([H])([H])C([H])([H])C([H])([H])C([H])(n5nc(-c6c([H])c([H])c(Oc7c([H])c([H])c(F)c([H])c7F)c([H])c6[H])c(C(=O)N([H])[H])c5N([H])[H])C4([H])[H])c([H])c3C(=O)N([H])C([H])([H])C([H])([H])[N+]([H])(C([H])([H])[H])C([H])([H])[H])c([H])c([H])c2C1([H])[H]

>  <smiles>  (80) 
[H]c1c([H])c([H])c2c(c1[H])C([H])([H])C([H])([H])C([H])([H])C2([H])N([H])C(=O)C1([H])N(C(=O)C([H])(N([H])C(=O)C([H])(N([H])C([H])([H])[H])C([H])([H])[H])C(C([H])([H])[H])(C([H])([H])[H])C([H])([H])[H])C([H])([H])c2c([H])c(OC([H])([H])C([H])([H])[N+]([H])(C([H])([H])[H])C([H])([H])C([H])([H])N([H])C(=O)c3c([H])c([H])c(N([H])C(=O)N4C([H])([H])C([H])([H])C([H])([H])C([H])(n5nc(-c6c([H])c([H])c(Oc7c([H])c([H])c(F)c([H])c7F)c([H])c6[H])c(C(=O)N([H])[H])c5N([H])[H])C4([H])[H])c([H])c3C(=O)N([H])C([H])([H])C([H])([H])[N+]([H])(C([H])([H])[H])C([H])([H])[H])c([H])c([H])c2C1([H])[H]

$$$$
82:0:0
     RDKit          3D

 99107  0  0  1  0  0  0  0  0999 V2000
  -30.3510  -18.9530   21.4630 C   0  0  0  0  0  0  0  0  0  0  0  0
  -30.0800  -21.8950   22.9530 C   0  0  0  0  0  2  0  0  0  0  0  0
  -29.0890  -20.8590   22.3910 C   0  0  0  0  0  2  0  0  0  0  0  0
  -29.4840  -20.8460   19.9830 C   0  0  0  0  0  2  0  0  0  0  0  0
  -30.1860  -23.2440   22.1950 C   0  0  0  0  0  2  0  0  0  0  0  0
  -30.2970  -22.1730   19.8810 C   0  0  0  0  0  3  0  0  0  0  0  0
  -31.8160  -21.9170   20.0490 C   0  0  0  0  0  1  0  0  0  0  0  0
  -29.6920  -20.1360   21.2590 N   0  0  0  0  0  0  0  0  0  0  0  0
  -29.7420  -23.2660   20.7620 N   0  0  2  0  0  4  0  0  0  0  0  0
  -30.5390  -18.5150   22.6040 O   0  0  0  0  0  0  0  0  0  0  0  0
  -28.7570  -23.0430   20.8060 H   0  0  0  0  0  0  0  0  0  0  0  0
  -31.1530  -25.2490   19.9660 C   0  0  0  0  0  1  0  0  0  0  0  0
  -29.7400  -24.6450   20.1300 C   0  0  0  0  0  3  0  0  0  0  0  0
  -28.7770  -25.6690   20.8080 C   0  0  0  0  0  2  0  0  0  0  0  0
  -28.7580  -26.9180   20.0960 O   0  0  0  0  0  0  0  0  0  0  0  0
  -24.6440  -31.8560   23.1870 C   0  0  0  0  0  0  0  0  0  0  0  0
  -27.5600  -27.5920   20.1060 C   0  0  0  0  0  0  0  0  0  0  0  0
  -23.5440  -30.4260   21.4940 C   0  0  0  0  0  3  0  0  0  0  0  0
  -25.1010  -28.9820   20.0820 C   0  0  0  0  0  0  0  0  0  0  0  0
  -26.0530  -30.9090   21.3590 C   0  0  0  0  0  2  0  0  0  0  0  0
  -26.2200  -29.5520   20.7030 C   0  0  0  0  0  0  0  0  0  0  0  0
  -27.4550  -28.8660   20.7090 C   0  0  0  0  0  3  0  0  0  0  0  0
  -26.4270  -27.0350   19.4760 C   0  0  0  0  0  3  0  0  0  0  0  0
  -25.1980  -27.7210   19.4680 C   0  0  0  0  0  3  0  0  0  0  0  0
  -23.8190  -29.7820   20.1090 C   0  0  0  0  0  2  0  0  0  0  0  0
  -24.7630  -31.0770   22.0730 N   0  0  0  0  0  0  0  0  0  0  0  0
  -23.5380  -32.0690   23.7040 O   0  0  0  0  0  0  0  0  0  0  0  0
  -22.9210  -29.3580   22.4210 C   0  0  0  0  0  0  0  0  0  0  0  0
  -21.6060  -29.1300   22.2720 N   0  0  0  0  0  0  0  0  0  0  0  0
  -23.6160  -28.7380   23.2290 O   0  0  0  0  0  0  0  0  0  0  0  0
  -21.1040  -29.6880   21.5940 H   0  0  0  0  0  0  0  0  0  0  0  0
  -18.2640  -27.8330   22.7230 C   0  0  0  0  0  0  0  0  0  0  0  0
  -20.8140  -28.1460   23.0070 C   0  0  0  0  0  3  0  0  0  0  0  0
  -20.9530  -26.7390   22.3830 C   0  0  0  0  0  2  0  0  0  0  0  0
  -19.8620  -26.4230   21.3560 C   0  0  0  0  0  2  0  0  0  0  0  0
  -18.4760  -26.5110   22.0020 C   0  0  0  0  0  2  0  0  0  0  0  0
  -19.3620  -28.6070   23.1800 C   0  0  0  0  0  0  0  0  0  0  0  0
  -19.1120  -29.8450   23.8110 C   0  0  0  0  0  3  0  0  0  0  0  0
  -17.7940  -30.3090   23.9900 C   0  0  0  0  0  3  0  0  0  0  0  0
  -16.7100  -29.5300   23.5490 C   0  0  0  0  0  3  0  0  0  0  0  0
  -16.9450  -28.2930   22.9220 C   0  0  0  0  0  3  0  0  0  0  0  0
  -25.8840  -32.5360   23.8450 C   0  0  0  0  0  3  0  0  0  0  0  0
  -25.5100  -33.9190   24.1690 N   0  0  0  0  0  0  0  0  0  0  0  0
  -25.8170  -34.9830   23.4160 C   0  0  0  0  0  0  0  0  0  0  0  0
  -26.5130  -34.9070   22.4000 O   0  0  0  0  0  0  0  0  0  0  0  0
  -24.8930  -34.0500   24.9570 H   0  0  0  0  0  0  0  0  0  0  0  0
  -24.0210  -36.6980   23.0230 C   0  0  0  0  0  1  0  0  0  0  0  0
  -25.2620  -36.3510   23.8600 C   0  0  0  0  0  3  0  0  0  0  0  0
  -27.3380  -37.3280   24.7330 C   0  0  0  0  0  1  0  0  0  0  0  0
  -26.2500  -37.4470   23.7650 N   0  0  0  0  0  0  0  0  0  0  0  0
  -25.8030  -38.3480   23.9030 H   0  0  0  0  0  0  0  0  0  0  0  0
  -26.3970  -31.7810   25.1320 C   0  0  1  0  0  0  0  0  0  0  0  0
  -25.2830  -31.4930   26.1670 C   0  0  0  0  0  1  0  0  0  0  0  0
  -27.0480  -30.4320   24.7460 C   0  0  0  0  0  1  0  0  0  0  0  0
  -27.4960  -32.6190   25.8280 C   0  0  0  0  0  1  0  0  0  0  0  0
  -30.9090  -18.0900   20.3060 C   0  0  0  0  0  3  0  0  0  0  0  0
  -32.1310  -17.4170   20.7710 N   0  0  0  0  0  4  0  0  0  0  0  0
  -31.9550  -17.1810   21.7330 H   0  0  0  0  0  0  0  0  0  0  0  0
  -32.9280  -18.0280   20.7340 H   0  0  0  0  0  0  0  0  0  0  0  0
  -32.2920  -16.5790   20.2300 H   0  0  0  0  0  0  0  0  0  0  0  0
  -29.8770  -17.0390   19.7950 C   0  0  0  0  0  2  0  0  0  0  0  0
  -30.6590  -14.6820   20.0700 C   0  0  0  0  0  0  0  0  0  0  0  0
  -30.3390  -12.5440   18.9120 C   0  0  0  0  0  2  0  0  0  0  0  0
  -29.3220  -12.7920   17.7770 C   0  0  0  0  0  2  0  0  0  0  0  0
  -27.8730  -12.6440   18.2870 C   0  0  0  0  0  2  0  0  0  0  0  0
  -27.6150  -13.4250   19.6030 C   0  0  0  0  0  3  0  0  0  0  0  0
  -28.7380  -13.1610   20.6340 C   0  0  0  0  0  2  0  0  0  0  0  0
  -30.0250  -13.4840   19.9980 N   0  0  0  0  0  0  0  0  0  0  0  0
  -31.7720  -14.9130   19.5890 O   0  0  0  0  0  0  0  0  0  0  0  0
  -29.8760  -15.7080   20.4510 N   0  0  0  0  0  0  0  0  0  0  0  0
  -29.0120  -15.4410   20.8980 H   0  0  0  0  0  0  0  0  0  0  0  0
  -25.2600  -14.0060   20.4660 C   0  0  0  0  0  0  0  0  0  0  0  0
  -24.2180  -13.2200   20.8740 C   0  0  0  0  0  0  0  0  0  0  0  0
  -24.6770  -11.8710   20.7760 C   0  0  0  0  0  0  0  0  0  0  0  0
  -26.2920  -13.1340   20.1500 N   0  0  0  0  0  0  0  0  0  0  0  0
  -25.9470  -11.8440   20.3930 N   0  0  0  0  0  0  0  0  0  0  0  0
  -23.9670  -10.6010   20.9710 C   0  0  0  0  0  0  0  0  0  0  0  0
  -24.4320   -9.6260   21.8810 C   0  0  0  0  0  3  0  0  0  0  0  0
  -23.7220   -8.4200   22.0630 C   0  0  0  0  0  3  0  0  0  0  0  0
  -22.5320   -8.1800   21.3350 C   0  0  0  0  0  0  0  0  0  0  0  0
  -22.0860   -9.1450   20.4140 C   0  0  0  0  0  3  0  0  0  0  0  0
  -22.7970  -10.3420   20.2300 C   0  0  0  0  0  3  0  0  0  0  0  0
  -21.7910   -7.0280   21.4280 O   0  0  0  0  0  0  0  0  0  0  0  0
  -21.7540   -6.2870   22.5820 C   0  0  0  0  0  0  0  0  0  0  0  0
  -21.3060   -6.8330   23.8050 C   0  0  0  0  0  3  0  0  0  0  0  0
  -21.2190   -6.0180   24.9510 C   0  0  0  0  0  3  0  0  0  0  0  0
  -21.5690   -4.6560   24.8750 C   0  0  0  0  0  0  0  0  0  0  0  0
  -22.0110   -4.1090   23.6570 C   0  0  0  0  0  3  0  0  0  0  0  0
  -22.1000   -4.9230   22.5130 C   0  0  0  0  0  0  0  0  0  0  0  0
  -22.5050   -4.3850   21.3380 F   0  0  0  0  0  0  0  0  0  0  0  0
  -21.4790   -3.8700   25.9730 F   0  0  0  0  0  0  0  0  0  0  0  0
  -22.8370  -13.6840   21.2410 C   0  0  0  0  0  0  0  0  0  0  0  0
  -22.1610  -12.9590   22.1250 N   0  0  0  0  0  0  0  0  0  0  0  0
  -22.3690  -14.7230   20.7810 O   0  0  0  0  0  0  0  0  0  0  0  0
  -22.5520  -12.1160   22.5190 H   0  0  0  0  0  0  0  0  0  0  0  0
  -21.2370  -13.2510   22.4110 H   0  0  0  0  0  0  0  0  0  0  0  0
  -25.4120  -15.3820   20.3170 N   0  0  0  0  0  0  0  0  0  0  0  0
  -24.6500  -16.0280   20.4890 H   0  0  0  0  0  0  0  0  0  0  0  0
  -26.2280  -15.8290   19.9210 H   0  0  0  0  0  0  0  0  0  0  0  0
  1 10  2  0
  3  2  1  0
  4  8  1  0
  5  2  1  0
  6  4  1  0
  6  7  1  0
  6  9  1  0
  8  1  1  0
  8  3  1  0
  9 11  1  1
  9  5  1  0
 13 12  1  0
 13  9  1  0
 13 14  1  0
 15 17  1  0
 15 14  1  0
 16 27  2  0
 17 22  1  0
 18 26  1  0
 18 28  1  0
 19 25  1  0
 19 21  1  0
 20 26  1  0
 21 22  2  0
 21 20  1  0
 23 17  2  0
 24 23  1  0
 24 19  2  0
 25 18  1  0
 26 16  1  0
 28 30  2  0
 29 28  1  0
 31 29  1  0
 32 41  2  0
 32 37  1  0
 33 29  1  0
 33 37  1  0
 34 33  1  0
 35 36  1  0
 35 34  1  0
 36 32  1  0
 37 38  2  0
 38 39  1  0
 40 39  2  0
 41 40  1  0
 42 16  1  0
 42 43  1  0
 42 52  1  0
 43 46  1  0
 44 48  1  0
 44 43  1  0
 45 44  2  0
 48 47  1  0
 50 48  1  0
 50 51  1  0
 50 49  1  0
 52 55  1  1
 52 53  1  0
 54 52  1  0
 56 61  1  0
 56 57  1  0
 56  1  1  0
 57 58  1  0
 59 57  1  0
 60 57  1  0
 61 70  1  0
 62 70  1  0
 63 68  1  0
 64 65  1  0
 64 63  1  0
 66 65  1  0
 66 75  1  0
 66 67  1  0
 68 62  1  0
 68 67  1  0
 69 62  2  0
 70 71  1  0
 72 73  2  0
 73 92  1  0
 74 73  1  0
 74 77  1  0
 75 76  1  0
 75 72  1  0
 76 74  2  0
 77 78  1  0
 78 79  2  0
 80 83  1  0
 80 79  1  0
 81 80  2  0
 82 81  1  0
 82 77  2  0
 83 84  1  0
 84 85  1  0
 85 86  2  0
 87 86  1  0
 87 91  1  0
 88 87  2  0
 89 84  2  0
 89 88  1  0
 90 89  1  0
 92 93  1  0
 93 96  1  0
 93 95  1  0
 94 92  2  0
 97 72  1  0
 97 98  1  0
 99 97  1  0
M  ISO  4  14 101  15 101  62 100  70 100
M  END
>  <TORSDO>  (81) 
F 21

>  <SCORE>  (81) 
-12.821

>  <name>  (81) 
82

>  <ligand_id>  (81) 
82

>  <original_smiles>  (81) 
[H]c1c([H])c([H])c2c(c1[H])C([H])([H])C([H])([H])C([H])([H])C2([H])N([H])C(=O)C1([H])N(C(=O)C([H])(N([H])C(=O)C([H])(N([H])C([H])([H])[H])C([H])([H])[H])C(C([H])([H])[H])(C([H])([H])[H])C([H])([H])[H])C([H])([H])c2c([H])c(OC([H])([H])C([H])(C([H])([H])[H])[N+]3([H])C([H])([H])C([H])([H])C([H])([H])N(C(=O)C([H])(C([H])([H])N([H])C(=O)N4C([H])([H])C([H])([H])C([H])([H])C([H])(n5nc(-c6c([H])c([H])c(Oc7c([H])c([H])c(F)c([H])c7F)c([H])c6[H])c(C(=O)N([H])[H])c5N([H])[H])C4([H])[H])[N+]([H])([H])[H])C([H])([H])C3([H])C([H])([H])[H])c([H])c([H])c2C1([H])[H]

>  <smiles>  (81) 
[H]c1c([H])c([H])c2c(c1[H])C([H])([H])C([H])([H])C([H])([H])C2([H])N([H])C(=O)C1([H])N(C(=O)C([H])(N([H])C(=O)C([H])(N([H])C([H])([H])[H])C([H])([H])[H])C(C([H])([H])[H])(C([H])([H])[H])C([H])([H])[H])C([H])([H])c2c([H])c(OC([H])([H])C([H])(C([H])([H])[H])[N+]3([H])C([H])([H])C([H])([H])C([H])([H])N(C(=O)C([H])(C([H])([H])N([H])C(=O)N4C([H])([H])C([H])([H])C([H])([H])C([H])(n5nc(-c6c([H])c([H])c(Oc7c([H])c([H])c(F)c([H])c7F)c([H])c6[H])c(C(=O)N([H])[H])c5N([H])[H])C4([H])[H])[N+]([H])([H])[H])C([H])([H])C3([H])C([H])([H])[H])c([H])c([H])c2C1([H])[H]

$$$$
83:0:0
     RDKit          3D

 90 91  0  0  1  0  0  0  0  0999 V2000
  -25.4110  -21.1230   18.8950 C   0  0  0  0  0  2  0  0  0  0  0  0
  -24.5200  -22.2520   20.8660 C   0  0  0  0  0  2  0  0  0  0  0  0
  -23.8970  -23.7910   19.1510 C   0  0  0  0  0  2  0  0  0  0  0  0
  -24.2110  -22.1650   19.4300 C   0  0  0  0  0  3  0  0  0  0  0  0
  -26.7630  -20.9660   19.8280 C   0  0  0  0  0  1  0  0  0  0  0  0
  -25.7460  -23.0710   20.5820 C   0  0  0  0  0  1  0  0  0  0  0  0
  -24.5790  -24.7890   20.1230 N   0  0  0  0  0  2  0  0  0  0  0  0
  -25.2610  -25.2350   19.5290 H   0  0  0  0  0  0  0  0  0  0  0  0
  -28.9970  -17.4050   19.7450 C   0  0  0  0  0  2  0  0  0  0  0  0
  -30.0910  -14.7150   18.8910 C   0  0  0  0  0  2  0  0  0  0  0  0
  -29.5310  -13.5950   17.8940 C   0  0  0  0  0  2  0  0  0  0  0  0
  -28.3540  -12.8340   18.4980 C   0  0  0  0  0  2  0  0  0  0  0  0
  -27.6060  -13.8280   19.3830 C   0  0  0  0  0  3  0  0  0  0  0  0
  -28.4540  -14.6370   20.3970 C   0  0  0  0  0  2  0  0  0  0  0  0
  -29.0660  -15.7760   19.6280 N   0  0  0  0  0  0  0  0  0  0  0  0
  -30.2850  -17.3870   19.5440 O   0  0  0  0  0  1  0  0  0  0  0  0
  -27.7700  -18.8770   19.9080 N   0  0  0  0  0  1  0  0  0  0  0  0
  -26.9500  -18.2990   20.0630 H   0  0  0  0  0  0  0  0  0  0  0  0
  -25.3760  -14.2120   20.3630 C   0  0  0  0  0  0  0  0  0  0  0  0
  -24.3800  -13.3940   20.7840 C   0  0  0  0  0  0  0  0  0  0  0  0
  -24.8710  -12.0570   20.6360 C   0  0  0  0  0  0  0  0  0  0  0  0
  -26.3960  -13.3720   19.9850 N   0  0  0  0  0  0  0  0  0  0  0  0
  -26.1310  -12.0630   20.2040 N   0  0  0  0  0  0  0  0  0  0  0  0
  -24.1760  -10.7810   20.8100 C   0  0  0  0  0  0  0  0  0  0  0  0
  -24.6360   -9.8040   21.7200 C   0  0  0  0  0  3  0  0  0  0  0  0
  -23.9220   -8.5990   21.8910 C   0  0  0  0  0  3  0  0  0  0  0  0
  -22.7380   -8.3650   21.1520 C   0  0  0  0  0  0  0  0  0  0  0  0
  -22.3000   -9.3300   20.2290 C   0  0  0  0  0  3  0  0  0  0  0  0
  -23.0150  -10.5260   20.0550 C   0  0  0  0  0  3  0  0  0  0  0  0
  -21.9920   -7.2150   21.2370 O   0  0  0  0  0  0  0  0  0  0  0  0
  -21.8720   -6.5230   22.4150 C   0  0  0  0  0  0  0  0  0  0  0  0
  -21.3300   -7.1160   23.5760 C   0  0  0  0  0  3  0  0  0  0  0  0
  -21.1600   -6.3490   24.7450 C   0  0  0  0  0  3  0  0  0  0  0  0
  -21.5200   -4.9870   24.7520 C   0  0  0  0  0  0  0  0  0  0  0  0
  -22.0550   -4.3930   23.5950 C   0  0  0  0  0  3  0  0  0  0  0  0
  -22.2270   -5.1590   22.4290 C   0  0  0  0  0  0  0  0  0  0  0  0
  -22.7230   -4.5770   21.3100 F   0  0  0  0  0  0  0  0  0  0  0  0
  -21.3490   -4.2460   25.8720 F   0  0  0  0  0  0  0  0  0  0  0  0
  -23.0120  -13.8450   21.1850 C   0  0  0  0  0  0  0  0  0  0  0  0
  -22.3710  -13.1170   22.0890 N   0  0  0  0  0  0  0  0  0  0  0  0
  -22.5320  -14.8840   20.7340 O   0  0  0  0  0  0  0  0  0  0  0  0
  -22.7800  -12.2780   22.4700 H   0  0  0  0  0  0  0  0  0  0  0  0
  -21.4540  -13.4030   22.4070 H   0  0  0  0  0  0  0  0  0  0  0  0
  -25.4870  -15.5950   20.2260 N   0  0  0  0  0  0  0  0  0  0  0  0
  -24.6820  -16.1990   20.3530 H   0  0  0  0  0  0  0  0  0  0  0  0
  -26.2240  -16.0140   19.6790 H   0  0  0  0  0  0  0  0  0  0  0  0
  -22.5470  -26.8160   19.0880 C   0  0  0  0  0  1  0  0  0  0  0  0
  -23.4170  -26.7010   20.3930 C   0  0  0  0  0  1  0  0  0  0  0  0
  -22.9620  -29.3050   22.2470 C   0  0  0  0  0 15  0  0  0  0  0  0
  -25.2260  -28.8350   22.5250 O   0  0  0  0  0  1  0  0  0  0  0  0
  -24.3550  -31.5400   22.7620 C   0  0  0  0  0  0  0  0  0  0  0  0
  -26.4080  -28.2690   21.6440 C   0  0  0  0  0  3  0  0  0  0  0  0
  -24.2070  -28.9810   20.6490 C   0  0  0  0  0  2  0  0  0  0  0  0
  -25.6300  -29.2220   19.3560 C   0  0  1  0  0  0  0  0  0  0  0  0
  -25.7660  -31.2600   20.8370 C   0  0  0  0  0  2  0  0  0  0  0  0
  -26.3950  -30.0340   20.2710 C   0  0  0  0  0  3  0  0  0  0  0  0
  -27.1920  -29.3280   21.1770 C   0  0  0  0  0  2  0  0  0  0  0  0
  -26.3300  -27.3350   20.5320 C   0  0  0  0  0  2  0  0  0  0  0  0
  -25.9200  -27.8420   19.2820 C   0  0  0  0  0  2  0  0  0  0  0  0
  -24.1910  -29.4330   19.2280 C   0  0  0  0  0  2  0  0  0  0  0  0
  -24.5630  -30.7650   21.4400 N   0  0  0  0  0  2  0  0  0  0  0  0
  -23.2260  -31.6940   23.2890 O   0  0  0  0  0  0  0  0  0  0  0  0
  -23.6300  -27.1450   22.6520 C   0  0  0  0  0  2  0  0  0  0  0  0
  -22.0880  -27.0480   22.6490 N   0  0  0  0  0  0  0  0  0  0  0  0
  -23.8400  -27.4460   23.8400 O   0  0  0  0  0  1  0  0  0  0  0  0
  -22.0720  -26.1230   23.0720 H   0  0  0  0  0  0  0  0  0  0  0  0
  -18.1260  -28.1520   22.2880 C   0  0  0  0  0  0  0  0  0  0  0  0
  -20.6480  -27.5550   23.1900 C   0  0  0  0  0  3  0  0  0  0  0  0
  -20.1050  -26.2790   22.5670 C   0  0  0  0  0  2  0  0  0  0  0  0
  -19.5170  -26.3670   21.1800 C   0  0  0  0  0  2  0  0  0  0  0  0
  -18.1960  -27.0870   21.2310 C   0  0  0  0  0  2  0  0  0  0  0  0
  -19.3370  -28.5960   22.9590 C   0  0  0  0  0  0  0  0  0  0  0  0
  -19.0670  -29.7590   23.7680 C   0  0  0  0  0  3  0  0  0  0  0  0
  -17.7730  -30.3620   23.9170 C   0  0  0  0  0  3  0  0  0  0  0  0
  -16.6280  -29.7830   23.3440 C   0  0  0  0  0  3  0  0  0  0  0  0
  -16.8170  -28.6690   22.5180 C   0  0  0  0  0  3  0  0  0  0  0  0
  -25.4090  -32.3730   23.7640 C   0  0  0  0  0  3  0  0  0  0  0  0
  -25.0400  -33.8200   24.0050 N   0  0  0  0  0  0  0  0  0  0  0  0
  -25.6140  -34.9200   23.4580 C   0  0  0  0  0  0  0  0  0  0  0  0
  -26.4610  -34.8230   22.5710 O   0  0  0  0  0  0  0  0  0  0  0  0
  -24.2980  -33.9640   24.6740 H   0  0  0  0  0  0  0  0  0  0  0  0
  -23.9790  -36.8130   23.0590 C   0  0  0  0  0  1  0  0  0  0  0  0
  -25.1760  -36.3490   23.9060 C   0  0  0  0  0  3  0  0  0  0  0  0
  -27.2970  -37.2670   24.7920 C   0  0  0  0  0  1  0  0  0  0  0  0
  -26.2400  -37.3830   23.7910 N   0  0  0  0  0  0  0  0  0  0  0  0
  -25.8460  -38.3180   23.8440 H   0  0  0  0  0  0  0  0  0  0  0  0
  -25.6880  -31.7850   25.2500 C   0  0  1  0  0  0  0  0  0  0  0  0
  -24.4260  -31.6160   26.1380 C   0  0  0  0  0  1  0  0  0  0  0  0
  -26.3680  -30.4140   25.1560 C   0  0  0  0  0  1  0  0  0  0  0  0
  -26.6780  -32.6670   26.0760 C   0  0  0  0  0  1  0  0  0  0  0  0
  1  4  1  0
  1  5  1  0
  3  4  1  0
  3  7  1  0
  4  2  1  0
  6  2  1  0
  8  7  1  0
 10 15  1  0
 11 12  1  0
 11 10  1  0
 13 12  1  0
 13 22  1  0
 13 14  1  0
 15  9  1  0
 15 14  1  0
 16  9  1  0
 17 18  1  0
 19 20  2  0
 20 39  1  0
 21 20  1  0
 21 24  1  0
 22 23  1  0
 22 19  1  0
 23 21  2  0
 24 25  1  0
 25 26  2  0
 27 30  1  0
 27 26  1  0
 28 27  2  0
 29 28  1  0
 29 24  2  0
 30 31  1  0
 31 36  2  0
 31 32  1  0
 32 33  2  0
 33 34  1  0
 34 38  1  0
 35 34  2  0
 36 35  1  0
 37 36  1  0
 39 40  1  0
 40 43  1  0
 40 42  1  0
 41 39  2  0
 44 45  1  0
 44 19  1  0
 46 44  1  0
 47 48  1  0
 51 62  2  0
 52 50  1  0
 54 56  1  0
 54 53  1  1
 55 61  1  0
 56 55  1  0
 56 57  1  0
 57 52  1  0
 58 52  1  0
 59 54  1  0
 59 58  1  0
 60 54  1  0
 60 53  1  0
 61 51  1  0
 63 65  1  0
 64 63  1  0
 64 66  1  0
 67 76  2  0
 67 72  1  0
 68 64  1  0
 69 68  1  0
 70 71  1  0
 70 69  1  0
 71 67  1  0
 72 68  1  0
 72 73  2  0
 73 74  1  0
 75 74  2  0
 76 75  1  0
 77 51  1  0
 77 78  1  0
 77 87  1  0
 78 81  1  0
 79 83  1  0
 79 78  1  0
 80 79  2  0
 83 82  1  0
 85 86  1  0
 85 83  1  0
 85 84  1  0
 87 90  1  1
 87 88  1  0
 89 87  1  0
M  ISO  4   9 100  17 100  49 101  50 101
M  END
>  <TORSDO>  (82) 
F 18

>  <SCORE>  (82) 
-10.433

>  <name>  (82) 
83

>  <ligand_id>  (82) 
83

>  <original_smiles>  (82) 
[H]c1c([H])c([H])c2c(c1[H])C([H])([H])C([H])([H])C([H])([H])C2([H])N([H])C(=O)C1([H])N(C(=O)C([H])(N([H])C(=O)C([H])(N([H])C([H])([H])[H])C([H])([H])[H])C(C([H])([H])[H])(C([H])([H])[H])C([H])([H])[H])C([H])([H])c2c([H])c(OC([H])([H])C([H])(C([H])([H])[H])[N+]3([H])C([H])([H])C4([H])C([H])([H])C([H])(N([H])C(=O)N5C([H])([H])C([H])([H])C([H])([H])C([H])(n6nc(-c7c([H])c([H])c(Oc8c([H])c([H])c(F)c([H])c8F)c([H])c7[H])c(C(=O)N([H])[H])c6N([H])[H])C5([H])[H])C3([H])C4([H])[H])c([H])c([H])c2C1([H])[H]

>  <smiles>  (82) 
[H]c1c([H])c([H])c2c(c1[H])C([H])([H])C([H])([H])C([H])([H])C2([H])N([H])C(=O)C1([H])N(C(=O)C([H])(N([H])C(=O)C([H])(N([H])C([H])([H])[H])C([H])([H])[H])C(C([H])([H])[H])(C([H])([H])[H])C([H])([H])[H])C([H])([H])c2c([H])c(OC([H])([H])C([H])(C([H])([H])[H])[N+]3([H])C([H])([H])C4([H])C([H])([H])C([H])(N([H])C(=O)N5C([H])([H])C([H])([H])C([H])([H])C([H])(n6nc(-c7c([H])c([H])c(Oc8c([H])c([H])c(F)c([H])c8F)c([H])c7[H])c(C(=O)N([H])[H])c6N([H])[H])C5([H])[H])C3([H])C4([H])[H])c([H])c([H])c2C1([H])[H]

$$$$
84:0:0
     RDKit          3D

 98106  0  0  1  0  0  0  0  0999 V2000
  -30.1450  -19.9820   18.9450 C   0  0  0  0  0  3  0  0  0  0  0  0
  -30.4220  -18.7480   18.3360 C   0  0  0  0  0  3  0  0  0  0  0  0
  -29.6530  -18.7810   21.0020 C   0  0  0  0  0  3  0  0  0  0  0  0
  -29.7040  -20.0510   20.2780 C   0  0  0  0  0  0  0  0  0  0  0  0
  -30.2900  -17.5160   19.0160 C   0  0  0  0  0  0  0  0  0  0  0  0
  -29.9670  -17.4780   20.4140 C   0  0  0  0  0  0  0  0  0  0  0  0
  -30.6900  -15.0630   21.1900 C   0  0  0  0  0  0  0  0  0  0  0  0
  -30.7500  -12.6530   20.5230 C   0  0  0  0  0  2  0  0  0  0  0  0
  -30.0270  -12.4740   19.1700 C   0  0  0  0  0  2  0  0  0  0  0  0
  -28.5020  -12.3360   19.3580 C   0  0  0  0  0  2  0  0  0  0  0  0
  -27.9070  -13.3390   20.3850 C   0  0  0  0  0  3  0  0  0  0  0  0
  -28.7750  -13.4490   21.6570 C   0  0  0  0  0  2  0  0  0  0  0  0
  -30.1340  -13.8010   21.2320 N   0  0  0  0  0  0  0  0  0  0  0  0
  -31.9070  -15.1860   21.0270 O   0  0  0  0  0  0  0  0  0  0  0  0
  -29.8510  -16.1770   21.1590 N   0  0  0  0  0  0  0  0  0  0  0  0
  -28.9340  -15.9980   21.5420 H   0  0  0  0  0  0  0  0  0  0  0  0
  -25.4280  -13.8840   20.7710 C   0  0  0  0  0  0  0  0  0  0  0  0
  -24.3420  -13.0920   21.0250 C   0  0  0  0  0  0  0  0  0  0  0  0
  -24.8370  -11.7540   21.1010 C   0  0  0  0  0  0  0  0  0  0  0  0
  -26.5160  -13.0280   20.7030 N   0  0  0  0  0  0  0  0  0  0  0  0
  -26.1580  -11.7450   20.9700 N   0  0  0  0  0  0  0  0  0  0  0  0
  -24.1220  -10.4760   21.2340 C   0  0  0  0  0  0  0  0  0  0  0  0
  -24.4580   -9.5420   22.2390 C   0  0  0  0  0  3  0  0  0  0  0  0
  -23.7430   -8.3310   22.3580 C   0  0  0  0  0  3  0  0  0  0  0  0
  -22.6790   -8.0440   21.4700 C   0  0  0  0  0  0  0  0  0  0  0  0
  -22.3650   -8.9670   20.4570 C   0  0  0  0  0  3  0  0  0  0  0  0
  -23.0800  -10.1700   20.3350 C   0  0  0  0  0  3  0  0  0  0  0  0
  -21.9470   -6.8810   21.4950 O   0  0  0  0  0  0  0  0  0  0  0  0
  -21.7760   -6.1620   22.6500 C   0  0  0  0  0  0  0  0  0  0  0  0
  -21.1900   -6.7310   23.8020 C   0  0  0  0  0  3  0  0  0  0  0  0
  -20.9700   -5.9370   24.9450 C   0  0  0  0  0  3  0  0  0  0  0  0
  -21.3230   -4.5740   24.9360 C   0  0  0  0  0  0  0  0  0  0  0  0
  -21.9020   -4.0050   23.7880 C   0  0  0  0  0  3  0  0  0  0  0  0
  -22.1250   -4.7960   22.6480 C   0  0  0  0  0  0  0  0  0  0  0  0
  -22.6620   -4.2360   21.5370 F   0  0  0  0  0  0  0  0  0  0  0  0
  -21.1060   -3.8090   26.0310 F   0  0  0  0  0  0  0  0  0  0  0  0
  -22.9080  -13.5350   21.0880 C   0  0  0  0  0  0  0  0  0  0  0  0
  -22.0880  -12.8510   21.8780 N   0  0  0  0  0  0  0  0  0  0  0  0
  -22.5190  -14.5250   20.4700 O   0  0  0  0  0  0  0  0  0  0  0  0
  -22.4120  -12.0520   22.4010 H   0  0  0  0  0  0  0  0  0  0  0  0
  -21.1220  -13.1320   21.9600 H   0  0  0  0  0  0  0  0  0  0  0  0
  -25.5810  -15.2530   20.5690 N   0  0  0  0  0  0  0  0  0  0  0  0
  -24.7880  -15.8840   20.5420 H   0  0  0  0  0  0  0  0  0  0  0  0
  -26.4500  -15.6960   20.2980 H   0  0  0  0  0  0  0  0  0  0  0  0
  -30.3500  -16.2980   18.1430 C   0  0  0  0  0  0  0  0  0  0  0  0
  -31.4650  -16.1210   17.4450 N   0  0  0  0  0  0  0  0  0  0  0  0
  -29.3820  -15.5510   18.0460 O   0  0  0  0  0  0  0  0  0  0  0  0
  -32.2310  -16.7700   17.5490 H   0  0  0  0  0  0  0  0  0  0  0  0
  -31.5570  -15.3370   16.8180 H   0  0  0  0  0  0  0  0  0  0  0  0
  -29.4330  -21.4640   20.8820 C   0  0  0  0  0  0  0  0  0  0  0  0
  -29.1890  -22.5620   20.0670 N   0  0  0  0  0  0  0  0  0  0  0  0
  -29.4830  -21.5940   22.1060 O   0  0  0  0  0  0  0  0  0  0  0  0
  -29.0620  -22.3370   19.0900 H   0  0  0  0  0  0  0  0  0  0  0  0
  -29.3550  -24.0560   20.3700 C   0  0  0  0  0  3  0  0  0  0  0  0
  -31.3430  -25.7430   20.5350 C   0  0  0  0  0  1  0  0  0  0  0  0
  -30.8140  -24.4090   19.9870 C   0  0  0  0  0  2  0  0  0  0  0  0
  -28.3050  -25.1040   19.7030 C   0  0  0  0  0  2  0  0  0  0  0  0
  -28.4470  -26.5930   19.8760 O   0  0  0  0  0  0  0  0  0  0  0  0
  -24.6930  -31.8920   23.0910 C   0  0  0  0  0  0  0  0  0  0  0  0
  -27.3190  -27.4460   19.8480 C   0  0  0  0  0  0  0  0  0  0  0  0
  -23.4810  -30.5160   21.4410 C   0  0  0  0  0  3  0  0  0  0  0  0
  -24.9260  -29.0360   19.9310 C   0  0  0  0  0  0  0  0  0  0  0  0
  -26.0090  -30.8850   21.2080 C   0  0  0  0  0  2  0  0  0  0  0  0
  -26.1010  -29.5250   20.5170 C   0  0  0  0  0  0  0  0  0  0  0  0
  -27.2970  -28.7410   20.4650 C   0  0  0  0  0  3  0  0  0  0  0  0
  -26.1190  -27.0260   19.2270 C   0  0  0  0  0  3  0  0  0  0  0  0
  -24.9410  -27.7960   19.2730 C   0  0  0  0  0  3  0  0  0  0  0  0
  -23.6740  -29.8850   20.0370 C   0  0  0  0  0  2  0  0  0  0  0  0
  -24.7480  -31.1150   21.9700 N   0  0  0  0  0  0  0  0  0  0  0  0
  -23.6190  -32.1310   23.6590 O   0  0  0  0  0  0  0  0  0  0  0  0
  -22.8610  -29.4600   22.3880 C   0  0  0  0  0  0  0  0  0  0  0  0
  -21.5340  -29.2660   22.2960 N   0  0  0  0  0  0  0  0  0  0  0  0
  -23.5730  -28.8180   23.1650 O   0  0  0  0  0  0  0  0  0  0  0  0
  -21.0180  -29.8330   21.6370 H   0  0  0  0  0  0  0  0  0  0  0  0
  -18.1920  -27.9980   22.8570 C   0  0  0  0  0  0  0  0  0  0  0  0
  -20.7540  -28.2920   23.0590 C   0  0  0  0  0  3  0  0  0  0  0  0
  -20.8610  -26.8810   22.4360 C   0  0  0  0  0  2  0  0  0  0  0  0
  -19.7340  -26.5710   21.4450 C   0  0  0  0  0  2  0  0  0  0  0  0
  -18.3700  -26.6740   22.1330 C   0  0  0  0  0  2  0  0  0  0  0  0
  -19.3100  -28.7640   23.2780 C   0  0  0  0  0  0  0  0  0  0  0  0
  -19.0890  -30.0030   23.9180 C   0  0  0  0  0  3  0  0  0  0  0  0
  -17.7820  -30.4780   24.1380 C   0  0  0  0  0  3  0  0  0  0  0  0
  -16.6780  -29.7070   23.7320 C   0  0  0  0  0  3  0  0  0  0  0  0
  -16.8830  -28.4690   23.0970 C   0  0  0  0  0  3  0  0  0  0  0  0
  -25.9770  -32.5360   23.7000 C   0  0  0  0  0  3  0  0  0  0  0  0
  -25.6380  -33.9070   24.1060 N   0  0  0  0  0  0  0  0  0  0  0  0
  -25.9440  -35.0070   23.4060 C   0  0  0  0  0  0  0  0  0  0  0  0
  -26.6090  -34.9750   22.3670 O   0  0  0  0  0  0  0  0  0  0  0  0
  -25.0460  -34.0040   24.9180 H   0  0  0  0  0  0  0  0  0  0  0  0
  -24.1790  -36.7830   23.1560 C   0  0  0  0  0  1  0  0  0  0  0  0
  -25.4300  -36.3580   23.9410 C   0  0  0  0  0  3  0  0  0  0  0  0
  -27.5500  -37.2360   24.8150 C   0  0  0  0  0  1  0  0  0  0  0  0
  -26.4410  -37.4360   23.8860 N   0  0  0  0  0  0  0  0  0  0  0  0
  -26.0170  -38.3390   24.0890 H   0  0  0  0  0  0  0  0  0  0  0  0
  -26.5570  -31.7240   24.9240 C   0  0  1  0  0  0  0  0  0  0  0  0
  -25.5080  -31.4140   26.0170 C   0  0  0  0  0  1  0  0  0  0  0  0
  -27.1590  -30.3790   24.4540 C   0  0  0  0  0  1  0  0  0  0  0  0
  -27.7130  -32.5180   25.5790 C   0  0  0  0  0  1  0  0  0  0  0  0
  1  4  1  0
  2  1  2  0
  2  5  1  0
  4 50  1  0
  4  3  2  0
  5  6  2  0
  6  3  1  0
  6 15  1  0
  7 13  1  0
  8 13  1  0
  9 10  1  0
  9  8  1  0
 11 10  1  0
 11 20  1  0
 11 12  1  0
 13 12  1  0
 14  7  2  0
 15  7  1  0
 15 16  1  0
 17 18  2  0
 18 37  1  0
 18 19  1  0
 19 22  1  0
 20 17  1  0
 20 21  1  0
 21 19  2  0
 22 23  1  0
 23 24  2  0
 25 28  1  0
 25 24  1  0
 26 25  2  0
 27 26  1  0
 27 22  2  0
 28 29  1  0
 29 30  1  0
 30 31  2  0
 32 31  1  0
 32 36  1  0
 33 32  2  0
 34 29  2  0
 34 33  1  0
 35 34  1  0
 37 38  1  0
 38 41  1  0
 38 40  1  0
 39 37  2  0
 42 17  1  0
 43 42  1  0
 44 42  1  0
 45  5  1  0
 46 48  1  0
 46 45  1  0
 47 45  2  0
 49 46  1  0
 50 52  2  0
 51 54  1  0
 51 50  1  0
 53 51  1  0
 54 57  1  0
 56 54  1  0
 56 55  1  0
 57 58  1  0
 59 70  2  0
 60 58  1  0
 60 65  1  0
 61 69  1  0
 61 71  1  0
 62 68  1  0
 62 64  1  0
 63 69  1  0
 64 63  1  0
 65 64  2  0
 66 67  1  0
 66 60  2  0
 67 62  2  0
 68 61  1  0
 69 59  1  0
 71 73  2  0
 72 71  1  0
 74 72  1  0
 75 84  2  0
 75 80  1  0
 76 72  1  0
 76 80  1  0
 77 76  1  0
 78 79  1  0
 78 77  1  0
 79 75  1  0
 80 81  2  0
 81 82  1  0
 83 82  2  0
 84 83  1  0
 85 59  1  0
 85 86  1  0
 85 95  1  0
 86 89  1  0
 87 91  1  0
 87 86  1  0
 88 87  2  0
 91 90  1  0
 93 91  1  0
 93 94  1  0
 93 92  1  0
 95 98  1  1
 95 96  1  0
 97 95  1  0
M  ISO  4   7 100  15 100  57 101  58 101
M  END
>  <TORSDO>  (83) 
F 21

>  <SCORE>  (83) 
-11.752

>  <name>  (83) 
84

>  <ligand_id>  (83) 
84

>  <original_smiles>  (83) 
[H]c1c([H])c([H])c2c(c1[H])C([H])([H])C([H])([H])C([H])([H])C2([H])N([H])C(=O)C1([H])N(C(=O)C([H])(N([H])C(=O)C([H])(N([H])C([H])([H])[H])C([H])([H])[H])C(C([H])([H])[H])(C([H])([H])[H])C([H])([H])[H])C([H])([H])c2c([H])c(OC([H])([H])C([H])(N([H])C(=O)c3c([H])c([H])c(C(=O)N([H])[H])c(N([H])C(=O)N4C([H])([H])C([H])([H])C([H])([H])C([H])(n5nc(-c6c([H])c([H])c(Oc7c([H])c([H])c(F)c([H])c7F)c([H])c6[H])c(C(=O)N([H])[H])c5N([H])[H])C4([H])[H])c3[H])C([H])([H])C([H])([H])[H])c([H])c([H])c2C1([H])[H]

>  <smiles>  (83) 
[H]c1c([H])c([H])c2c(c1[H])C([H])([H])C([H])([H])C([H])([H])C2([H])N([H])C(=O)C1([H])N(C(=O)C([H])(N([H])C(=O)C([H])(N([H])C([H])([H])[H])C([H])([H])[H])C(C([H])([H])[H])(C([H])([H])[H])C([H])([H])[H])C([H])([H])c2c([H])c(OC([H])([H])C([H])(N([H])C(=O)c3c([H])c([H])c(C(=O)N([H])[H])c(N([H])C(=O)N4C([H])([H])C([H])([H])C([H])([H])C([H])(n5nc(-c6c([H])c([H])c(Oc7c([H])c([H])c(F)c([H])c7F)c([H])c6[H])c(C(=O)N([H])[H])c5N([H])[H])C4([H])[H])c3[H])C([H])([H])C([H])([H])[H])c([H])c([H])c2C1([H])[H]

$$$$
85:0:0
     RDKit          3D

103111  0  0  1  0  0  0  0  0999 V2000
  -32.7160  -25.3930   20.1360 C   0  0  0  0  0  2  0  0  0  0  0  0
  -32.5220  -27.4830   21.4760 C   0  0  0  0  0  0  0  0  0  0  0  0
  -33.2510  -26.5280   20.8720 N   0  0  0  0  0  0  0  0  0  0  0  0
  -31.2900  -27.4780   21.4240 O   0  0  0  0  0  0  0  0  0  0  0  0
  -34.2610  -26.5820   20.9010 H   0  0  0  0  0  0  0  0  0  0  0  0
  -33.2520  -28.5980   22.2460 C   0  0  0  0  0  3  0  0  0  0  0  0
  -34.6940  -28.3130   22.4530 N   0  0  0  0  0  4  0  0  0  0  0  0
  -34.8290  -27.4600   22.9670 H   0  0  0  0  0  0  0  0  0  0  0  0
  -35.1300  -29.0590   22.9680 H   0  0  0  0  0  0  0  0  0  0  0  0
  -35.1720  -28.2470   21.5710 H   0  0  0  0  0  0  0  0  0  0  0  0
  -32.5350  -28.9300   23.5780 C   0  0  0  0  0  2  0  0  0  0  0  0
  -31.2320  -29.4810   23.3260 O   0  0  0  0  0  0  0  0  0  0  0  0
  -30.1690  -33.4900   29.0970 C   0  0  0  0  0  0  0  0  0  0  0  0
  -30.9720  -30.7220   23.8560 C   0  0  0  0  0  0  0  0  0  0  0  0
  -29.5970  -34.5480   26.9310 C   0  0  0  0  0  3  0  0  0  0  0  0
  -30.3800  -33.2980   24.8510 C   0  0  0  0  0  0  0  0  0  0  0  0
  -31.4220  -32.7700   27.0690 C   0  0  0  0  0  2  0  0  0  0  0  0
  -31.0460  -32.3690   25.6600 C   0  0  0  0  0  0  0  0  0  0  0  0
  -31.3600  -31.0950   25.1630 C   0  0  0  0  0  3  0  0  0  0  0  0
  -30.3150  -31.6720   23.0420 C   0  0  0  0  0  3  0  0  0  0  0  0
  -30.0130  -32.9580   23.5360 C   0  0  0  0  0  3  0  0  0  0  0  0
  -30.1030  -34.6490   25.4650 C   0  0  0  0  0  2  0  0  0  0  0  0
  -30.3800  -33.5670   27.7520 N   0  0  0  0  0  0  0  0  0  0  0  0
  -29.3800  -34.2590   29.6640 O   0  0  0  0  0  0  0  0  0  0  0  0
  -28.0830  -34.2480   26.8970 C   0  0  0  0  0  0  0  0  0  0  0  0
  -27.4230  -34.6600   25.8040 N   0  0  0  0  0  0  0  0  0  0  0  0
  -27.5390  -33.6310   27.8160 O   0  0  0  0  0  0  0  0  0  0  0  0
  -27.9440  -35.1640   25.1000 H   0  0  0  0  0  0  0  0  0  0  0  0
  -24.8570  -35.0800   23.2960 C   0  0  0  0  0  0  0  0  0  0  0  0
  -26.0020  -34.4510   25.5270 C   0  0  0  0  0  3  0  0  0  0  0  0
  -25.7190  -32.9820   25.1380 C   0  0  0  0  0  2  0  0  0  0  0  0
  -25.7550  -32.7390   23.6250 C   0  0  0  0  0  2  0  0  0  0  0  0
  -24.7200  -33.6160   22.9150 C   0  0  0  0  0  2  0  0  0  0  0  0
  -25.4730  -35.4730   24.5140 C   0  0  0  0  0  0  0  0  0  0  0  0
  -25.6060  -36.8480   24.8010 C   0  0  0  0  0  3  0  0  0  0  0  0
  -25.1400  -37.8210   23.8970 C   0  0  0  0  0  3  0  0  0  0  0  0
  -24.5160  -37.4260   22.7000 C   0  0  0  0  0  3  0  0  0  0  0  0
  -24.3700  -36.0590   22.4050 C   0  0  0  0  0  3  0  0  0  0  0  0
  -30.9250  -32.4580   29.9910 C   0  0  0  0  0  3  0  0  0  0  0  0
  -29.9950  -31.7500   31.0530 C   0  0  1  0  0  0  0  0  0  0  0  0
  -28.7150  -32.5490   31.3930 C   0  0  0  0  0  1  0  0  0  0  0  0
  -29.5580  -30.3560   30.5450 C   0  0  0  0  0  1  0  0  0  0  0  0
  -30.7800  -31.5180   32.3680 C   0  0  0  0  0  1  0  0  0  0  0  0
  -32.0280  -33.1700   30.6520 N   0  0  0  0  0  0  0  0  0  0  0  0
  -33.1300  -33.6090   30.0300 C   0  0  0  0  0  0  0  0  0  0  0  0
  -33.3570  -33.3910   28.8360 O   0  0  0  0  0  0  0  0  0  0  0  0
  -31.8810  -33.4440   31.6140 H   0  0  0  0  0  0  0  0  0  0  0  0
  -33.6470  -35.8710   31.0000 C   0  0  0  0  0  1  0  0  0  0  0  0
  -34.1410  -34.4210   30.8620 C   0  0  0  0  0  3  0  0  0  0  0  0
  -36.1330  -33.0890   30.3370 C   0  0  0  0  0  1  0  0  0  0  0  0
  -35.5090  -34.4080   30.3000 N   0  0  0  0  0  0  0  0  0  0  0  0
  -36.1110  -35.0590   30.7970 H   0  0  0  0  0  0  0  0  0  0  0  0
  -31.9920  -24.4250   21.0830 C   0  0  0  0  0  2  0  0  0  0  0  0
  -32.0160  -22.9800   20.5530 C   0  0  0  0  0  2  0  0  0  0  0  0
  -30.6090  -22.4200   20.3550 C   0  0  0  0  0  0  0  0  0  0  0  0
  -29.8750  -23.0220   19.4040 N   0  0  0  0  0  0  0  0  0  0  0  0
  -30.2360  -21.4740   21.0530 O   0  0  0  0  0  0  0  0  0  0  0  0
  -30.3550  -23.7640   18.9130 H   0  0  0  0  0  0  0  0  0  0  0  0
  -26.6850  -21.3050   18.3280 C   0  0  0  0  0  3  0  0  0  0  0  0
  -25.8900  -22.4320   18.0480 C   0  0  0  0  0  3  0  0  0  0  0  0
  -28.0070  -21.4670   18.7860 C   0  0  0  0  0  3  0  0  0  0  0  0
  -27.7360  -23.8880   18.6880 C   0  0  0  0  0  3  0  0  0  0  0  0
  -26.4150  -23.7270   18.2260 C   0  0  0  0  0  0  0  0  0  0  0  0
  -28.5480  -22.7640   18.9590 C   0  0  0  0  0  0  0  0  0  0  0  0
  -25.5780  -24.9440   17.8770 C   0  0  0  0  0  2  0  0  0  0  0  0
  -24.0050  -25.1040   19.7890 C   0  0  0  0  0  0  0  0  0  0  0  0
  -22.7310  -26.7190   21.1300 C   0  0  0  0  0  2  0  0  0  0  0  0
  -21.7890  -26.1270   22.1860 C   0  0  0  0  0  2  0  0  0  0  0  0
  -20.4220  -25.8070   21.5630 C   0  0  0  0  0  2  0  0  0  0  0  0
  -20.5530  -24.9480   20.2800 C   0  0  0  0  0  3  0  0  0  0  0  0
  -21.5830  -25.5520   19.2990 C   0  0  0  0  0  2  0  0  0  0  0  0
  -22.8540  -25.7780   20.0120 N   0  0  0  0  0  0  0  0  0  0  0  0
  -24.8850  -24.9440   20.6430 O   0  0  0  0  0  0  0  0  0  0  0  0
  -24.2500  -24.9360   18.4840 N   0  0  0  0  0  0  0  0  0  0  0  0
  -23.4760  -25.1310   17.8650 H   0  0  0  0  0  0  0  0  0  0  0  0
  -18.0340  -24.4130   20.2170 C   0  0  0  0  0  0  0  0  0  0  0  0
  -17.1190  -24.4320   19.1980 C   0  0  0  0  0  0  0  0  0  0  0  0
  -17.8460  -24.7990   18.0240 C   0  0  0  0  0  0  0  0  0  0  0  0
  -19.2500  -24.7510   19.6450 N   0  0  0  0  0  0  0  0  0  0  0  0
  -19.1360  -24.9340   18.3040 N   0  0  0  0  0  0  0  0  0  0  0  0
  -17.3780  -25.0860   16.6610 C   0  0  0  0  0  0  0  0  0  0  0  0
  -17.7720  -24.2890   15.5640 C   0  0  0  0  0  3  0  0  0  0  0  0
  -17.2930  -24.5730   14.2660 C   0  0  0  0  0  3  0  0  0  0  0  0
  -16.4110  -25.6590   14.0560 C   0  0  0  0  0  0  0  0  0  0  0  0
  -16.0400  -26.4630   15.1500 C   0  0  0  0  0  3  0  0  0  0  0  0
  -16.5210  -26.1830   16.4400 C   0  0  0  0  0  3  0  0  0  0  0  0
  -15.9170  -26.0250   12.8280 O   0  0  0  0  0  0  0  0  0  0  0  0
  -15.5940  -25.0940   11.8740 C   0  0  0  0  0  0  0  0  0  0  0  0
  -14.4550  -24.2680   11.9950 C   0  0  0  0  0  3  0  0  0  0  0  0
  -14.1210  -23.3730   10.9590 C   0  0  0  0  0  3  0  0  0  0  0  0
  -14.9180  -23.3070    9.8000 C   0  0  0  0  0  0  0  0  0  0  0  0
  -16.0500  -24.1310    9.6760 C   0  0  0  0  0  3  0  0  0  0  0  0
  -16.3850  -25.0240   10.7090 C   0  0  0  0  0  0  0  0  0  0  0  0
  -17.4650  -25.8320   10.5760 F   0  0  0  0  0  0  0  0  0  0  0  0
  -14.5940  -22.4530    8.8030 F   0  0  0  0  0  0  0  0  0  0  0  0
  -15.6390  -24.2110   19.3190 C   0  0  0  0  0  0  0  0  0  0  0  0
  -14.9840  -23.8390   18.2260 N   0  0  0  0  0  0  0  0  0  0  0  0
  -15.0620  -24.3230   20.4010 O   0  0  0  0  0  0  0  0  0  0  0  0
  -15.4600  -23.7290   17.3430 H   0  0  0  0  0  0  0  0  0  0  0  0
  -13.9900  -23.6600   18.2710 H   0  0  0  0  0  0  0  0  0  0  0  0
  -17.9320  -24.1560   21.5830 N   0  0  0  0  0  0  0  0  0  0  0  0
  -17.0470  -23.9630   22.0390 H   0  0  0  0  0  0  0  0  0  0  0  0
  -18.7090  -24.2010   22.2300 H   0  0  0  0  0  0  0  0  0  0  0  0
  1  3  1  0
  1 53  1  0
  2  6  1  0
  3  5  1  0
  3  2  1  0
  4  2  2  0
  6  7  1  0
  6 11  1  0
  7  8  1  0
  7  9  1  0
 10  7  1  0
 12 11  1  0
 12 14  1  0
 13 24  2  0
 14 19  1  0
 15 25  1  0
 15 23  1  0
 16 22  1  0
 16 18  1  0
 17 23  1  0
 18 17  1  0
 19 18  2  0
 20 21  1  0
 20 14  2  0
 21 16  2  0
 22 15  1  0
 23 13  1  0
 25 27  2  0
 26 25  1  0
 28 26  1  0
 29 34  1  0
 30 26  1  0
 31 30  1  0
 32 31  1  0
 33 29  1  0
 33 32  1  0
 34 35  2  0
 34 30  1  0
 36 35  1  0
 37 36  2  0
 38 37  1  0
 38 29  2  0
 39 13  1  0
 39 44  1  0
 39 40  1  0
 40 41  1  1
 40 43  1  0
 42 40  1  0
 44 47  1  0
 45 44  1  0
 45 49  1  0
 46 45  2  0
 49 48  1  0
 51 50  1  0
 51 52  1  0
 51 49  1  0
 54 53  1  0
 55 54  1  0
 55 57  2  0
 56 55  1  0
 58 56  1  0
 59 61  1  0
 60 63  1  0
 60 59  2  0
 61 64  2  0
 62 64  1  0
 63 62  2  0
 64 56  1  0
 65 63  1  0
 65 74  1  0
 66 72  1  0
 66 73  2  0
 67 68  1  0
 69 68  1  0
 70 71  1  0
 70 69  1  0
 71 72  1  0
 72 67  1  0
 74 66  1  0
 75 74  1  0
 76101  1  0
 77 96  1  0
 77 76  2  0
 78 80  2  0
 78 77  1  0
 79 76  1  0
 79 70  1  0
 80 79  1  0
 81 78  1  0
 82 81  2  0
 83 82  1  0
 84 83  2  0
 84 85  1  0
 85 86  2  0
 86 81  1  0
 87 84  1  0
 88 89  1  0
 88 87  1  0
 90 89  2  0
 91 90  1  0
 92 91  2  0
 92 93  1  0
 93 88  2  0
 94 93  1  0
 95 91  1  0
 96 98  2  0
 97100  1  0
 97 96  1  0
 99 97  1  0
101102  1  0
101103  1  0
M  ISO  4  11 101  12 101  66 100  74 100
M  END
>  <TORSDO>  (84) 
F 25

>  <SCORE>  (84) 
-3.759

>  <name>  (84) 
85

>  <ligand_id>  (84) 
85

>  <original_smiles>  (84) 
[H]c1c([H])c(N([H])C(=O)C([H])([H])C([H])([H])C([H])([H])N([H])C(=O)C([H])(C([H])([H])Oc2c([H])c([H])c3c(c2[H])C([H])([H])N(C(=O)C([H])(N([H])C(=O)C([H])(N([H])C([H])([H])[H])C([H])([H])[H])C(C([H])([H])[H])(C([H])([H])[H])C([H])([H])[H])C([H])(C(=O)N([H])C2([H])c4c([H])c([H])c([H])c([H])c4C([H])([H])C([H])([H])C2([H])[H])C3([H])[H])[N+]([H])([H])[H])c([H])c(C([H])([H])N([H])C(=O)N2C([H])([H])C([H])([H])C([H])([H])C([H])(n3nc(-c4c([H])c([H])c(Oc5c([H])c([H])c(F)c([H])c5F)c([H])c4[H])c(C(=O)N([H])[H])c3N([H])[H])C2([H])[H])c1[H]

>  <smiles>  (84) 
[H]c1c([H])c(N([H])C(=O)C([H])([H])C([H])([H])C([H])([H])N([H])C(=O)C([H])(C([H])([H])Oc2c([H])c([H])c3c(c2[H])C([H])([H])N(C(=O)C([H])(N([H])C(=O)C([H])(N([H])C([H])([H])[H])C([H])([H])[H])C(C([H])([H])[H])(C([H])([H])[H])C([H])([H])[H])C([H])(C(=O)N([H])C2([H])c4c([H])c([H])c([H])c([H])c4C([H])([H])C([H])([H])C2([H])[H])C3([H])[H])[N+]([H])([H])[H])c([H])c(C([H])([H])N([H])C(=O)N2C([H])([H])C([H])([H])C([H])([H])C([H])(n3nc(-c4c([H])c([H])c(Oc5c([H])c([H])c(F)c([H])c5F)c([H])c4[H])c(C(=O)N([H])[H])c3N([H])[H])C2([H])[H])c1[H]

$$$$
86:0:0
     RDKit          3D

 94102  0  0  1  0  0  0  0  0999 V2000
  -29.6920  -20.4940   20.1930 C   0  0  0  0  0  3  0  0  0  0  0  0
  -29.6300  -19.3170   20.7360 N   0  0  0  0  0  0  0  0  0  0  0  0
  -27.2740  -21.1710   19.7660 C   0  0  0  0  0  1  0  0  0  0  0  0
  -28.6190  -21.6160   20.3680 C   0  0  0  0  0  3  0  0  0  0  0  0
  -28.3430  -24.1970   20.0630 C   0  0  0  0  0  3  0  0  0  0  0  0
  -29.0070  -23.0240   19.8320 C   0  0  0  0  0  3  0  0  0  0  0  0
  -28.6950  -25.5830   19.4640 C   0  0  0  0  0  2  0  0  0  0  0  0
  -28.4730  -26.7510   20.3120 O   0  0  0  0  0  0  0  0  0  0  0  0
  -24.5500  -31.9490   23.3210 C   0  0  0  0  0  0  0  0  0  0  0  0
  -27.2890  -27.4890   20.2640 C   0  0  0  0  0  0  0  0  0  0  0  0
  -23.3870  -30.5380   21.6580 C   0  0  0  0  0  3  0  0  0  0  0  0
  -24.8790  -29.0140   20.2510 C   0  0  0  0  0  0  0  0  0  0  0  0
  -25.9190  -30.9070   21.5060 C   0  0  0  0  0  2  0  0  0  0  0  0
  -26.0260  -29.5350   20.8600 C   0  0  0  0  0  0  0  0  0  0  0  0
  -27.2280  -28.7780   20.8670 C   0  0  0  0  0  3  0  0  0  0  0  0
  -26.1110  -26.9940   19.6580 C   0  0  0  0  0  3  0  0  0  0  0  0
  -24.9180  -27.7450   19.6510 C   0  0  0  0  0  3  0  0  0  0  0  0
  -23.6280  -29.8680   20.2800 C   0  0  0  0  0  2  0  0  0  0  0  0
  -24.6360  -31.1490   22.2190 N   0  0  0  0  0  0  0  0  0  0  0  0
  -23.4580  -32.2100   23.8440 O   0  0  0  0  0  0  0  0  0  0  0  0
  -22.7330  -29.5070   22.6070 C   0  0  0  0  0  0  0  0  0  0  0  0
  -21.4130  -29.3100   22.4600 N   0  0  0  0  0  0  0  0  0  0  0  0
  -23.4120  -28.8890   23.4310 O   0  0  0  0  0  0  0  0  0  0  0  0
  -20.9260  -29.8650   21.7690 H   0  0  0  0  0  0  0  0  0  0  0  0
  -18.0430  -28.0840   22.9240 C   0  0  0  0  0  0  0  0  0  0  0  0
  -20.5970  -28.3580   23.2150 C   0  0  0  0  0  3  0  0  0  0  0  0
  -20.7140  -26.9330   22.6260 C   0  0  0  0  0  2  0  0  0  0  0  0
  -19.6190  -26.6130   21.6020 C   0  0  0  0  0  2  0  0  0  0  0  0
  -18.2320  -26.7410   22.2370 C   0  0  0  0  0  2  0  0  0  0  0  0
  -19.1540  -28.8490   23.3690 C   0  0  0  0  0  0  0  0  0  0  0  0
  -18.9220  -30.1040   23.9710 C   0  0  0  0  0  3  0  0  0  0  0  0
  -17.6140  -30.5950   24.1350 C   0  0  0  0  0  3  0  0  0  0  0  0
  -16.5180  -29.8280   23.7040 C   0  0  0  0  0  3  0  0  0  0  0  0
  -16.7330  -28.5750   23.1040 C   0  0  0  0  0  3  0  0  0  0  0  0
  -25.8180  -32.5920   23.9610 C   0  0  0  0  0  3  0  0  0  0  0  0
  -25.5050  -34.0000   24.2410 N   0  0  0  0  0  0  0  0  0  0  0  0
  -25.8630  -35.0310   23.4640 C   0  0  0  0  0  0  0  0  0  0  0  0
  -26.5620  -34.8980   22.4560 O   0  0  0  0  0  0  0  0  0  0  0  0
  -24.8820  -34.1770   25.0160 H   0  0  0  0  0  0  0  0  0  0  0  0
  -24.1550  -36.8200   23.0060 C   0  0  0  0  0  1  0  0  0  0  0  0
  -25.3660  -36.4320   23.8700 C   0  0  0  0  0  3  0  0  0  0  0  0
  -27.4670  -37.3370   24.7590 C   0  0  0  0  0  1  0  0  0  0  0  0
  -26.4050  -37.4790   23.7670 N   0  0  0  0  0  0  0  0  0  0  0  0
  -25.9970  -38.4030   23.8720 H   0  0  0  0  0  0  0  0  0  0  0  0
  -26.2950  -31.8570   25.2740 C   0  0  1  0  0  0  0  0  0  0  0  0
  -25.1650  -31.6420   26.3070 C   0  0  0  0  0  1  0  0  0  0  0  0
  -26.8990  -30.4730   24.9370 C   0  0  0  0  0  1  0  0  0  0  0  0
  -27.4170  -32.6770   25.9520 C   0  0  0  0  0  1  0  0  0  0  0  0
  -30.7560  -18.3490   20.6110 C   0  0  0  0  0  3  0  0  0  0  0  0
  -34.4930  -20.2360   21.8490 C   0  0  0  0  0  3  0  0  0  0  0  0
  -33.3530  -20.3230   22.6700 C   0  0  0  0  0  3  0  0  0  0  0  0
  -34.4230  -19.5520   20.6190 C   0  0  0  0  0  3  0  0  0  0  0  0
  -32.1450  -19.7250   22.2600 C   0  0  0  0  0  3  0  0  0  0  0  0
  -33.2140  -18.9520   20.2100 C   0  0  0  0  0  3  0  0  0  0  0  0
  -32.0670  -19.0330   21.0300 C   0  0  0  0  0  0  0  0  0  0  0  0
  -30.5720  -17.0850   21.5470 C   0  0  0  0  0  2  0  0  0  0  0  0
  -30.7770  -14.7760   20.4970 C   0  0  0  0  0  0  0  0  0  0  0  0
  -30.5410  -12.5780   19.3650 C   0  0  0  0  0  2  0  0  0  0  0  0
  -29.5920  -12.7100   18.1550 C   0  0  0  0  0  2  0  0  0  0  0  0
  -28.1230  -12.5370   18.5910 C   0  0  0  0  0  2  0  0  0  0  0  0
  -27.7620  -13.3960   19.8320 C   0  0  0  0  0  3  0  0  0  0  0  0
  -28.8230  -13.2370   20.9430 C   0  0  0  0  0  2  0  0  0  0  0  0
  -30.1280  -13.5820   20.3620 N   0  0  0  0  0  0  0  0  0  0  0  0
  -31.9280  -14.9450   20.0880 O   0  0  0  0  0  0  0  0  0  0  0  0
  -30.0510  -15.8070   20.9950 N   0  0  0  0  0  0  0  0  0  0  0  0
  -29.0870  -15.6040   21.2110 H   0  0  0  0  0  0  0  0  0  0  0  0
  -25.3660  -13.9770   20.5580 C   0  0  0  0  0  0  0  0  0  0  0  0
  -24.3040  -13.1930   20.9200 C   0  0  0  0  0  0  0  0  0  0  0  0
  -24.7730  -11.8450   20.8740 C   0  0  0  0  0  0  0  0  0  0  0  0
  -26.4150  -13.1040   20.3150 N   0  0  0  0  0  0  0  0  0  0  0  0
  -26.0620  -11.8170   20.5650 N   0  0  0  0  0  0  0  0  0  0  0  0
  -24.0540  -10.5760   21.0490 C   0  0  0  0  0  0  0  0  0  0  0  0
  -24.4760   -9.6140   21.9930 C   0  0  0  0  0  3  0  0  0  0  0  0
  -23.7580   -8.4100   22.1580 C   0  0  0  0  0  3  0  0  0  0  0  0
  -22.6040   -8.1600   21.3780 C   0  0  0  0  0  0  0  0  0  0  0  0
  -22.2000   -9.1120   20.4260 C   0  0  0  0  0  3  0  0  0  0  0  0
  -22.9180  -10.3080   20.2600 C   0  0  0  0  0  3  0  0  0  0  0  0
  -21.8580   -7.0080   21.4510 O   0  0  0  0  0  0  0  0  0  0  0  0
  -21.7690   -6.2800   22.6100 C   0  0  0  0  0  0  0  0  0  0  0  0
  -21.2370   -6.8310   23.7960 C   0  0  0  0  0  3  0  0  0  0  0  0
  -21.0990   -6.0280   24.9460 C   0  0  0  0  0  3  0  0  0  0  0  0
  -21.4840   -4.6740   24.9100 C   0  0  0  0  0  0  0  0  0  0  0  0
  -22.0100   -4.1230   23.7290 C   0  0  0  0  0  3  0  0  0  0  0  0
  -22.1500   -4.9230   22.5820 C   0  0  0  0  0  0  0  0  0  0  0  0
  -22.6370   -4.3820   21.4390 F   0  0  0  0  0  0  0  0  0  0  0  0
  -21.3450   -3.9000   26.0120 F   0  0  0  0  0  0  0  0  0  0  0  0
  -22.9030  -13.6600   21.1990 C   0  0  0  0  0  0  0  0  0  0  0  0
  -22.1800  -12.9470   22.0550 N   0  0  0  0  0  0  0  0  0  0  0  0
  -22.4600  -14.6900   20.6930 O   0  0  0  0  0  0  0  0  0  0  0  0
  -22.5520  -12.1130   22.4830 H   0  0  0  0  0  0  0  0  0  0  0  0
  -21.2420  -13.2410   22.2850 H   0  0  0  0  0  0  0  0  0  0  0  0
  -25.5250  -15.3500   20.3980 N   0  0  0  0  0  0  0  0  0  0  0  0
  -24.7560  -16.0010   20.5150 H   0  0  0  0  0  0  0  0  0  0  0  0
  -26.3740  -15.7950   20.0740 H   0  0  0  0  0  0  0  0  0  0  0  0
  1  4  1  0
  1  2  2  0
  4  3  1  0
  6  5  2  0
  6  4  1  0
  7  5  1  0
  7  8  1  0
  9 20  2  0
 10  8  1  0
 10 15  1  0
 11 19  1  0
 11 21  1  0
 12 18  1  0
 12 14  1  0
 13 19  1  0
 14 15  2  0
 14 13  1  0
 16 10  2  0
 17 16  1  0
 17 12  2  0
 18 11  1  0
 19  9  1  0
 21 23  2  0
 22 21  1  0
 24 22  1  0
 25 34  2  0
 25 30  1  0
 26 22  1  0
 26 30  1  0
 27 26  1  0
 28 29  1  0
 28 27  1  0
 29 25  1  0
 30 31  2  0
 31 32  1  0
 33 32  2  0
 34 33  1  0
 35  9  1  0
 35 36  1  0
 35 45  1  0
 36 39  1  0
 37 41  1  0
 37 36  1  0
 38 37  2  0
 41 40  1  0
 43 41  1  0
 43 44  1  0
 43 42  1  0
 45 48  1  1
 45 46  1  0
 47 45  1  0
 49  2  1  0
 49 55  1  0
 49 56  1  0
 50 51  1  0
 52 50  2  0
 53 51  2  0
 54 52  1  0
 54 55  2  0
 55 53  1  0
 57 65  1  0
 58 63  1  0
 59 60  1  0
 59 58  1  0
 61 60  1  0
 61 70  1  0
 61 62  1  0
 63 57  1  0
 63 62  1  0
 64 57  2  0
 65 66  1  0
 65 56  1  0
 67 68  2  0
 68 87  1  0
 69 68  1  0
 69 72  1  0
 70 67  1  0
 70 71  1  0
 71 69  2  0
 72 73  1  0
 73 74  2  0
 75 78  1  0
 75 74  1  0
 76 75  2  0
 77 76  1  0
 77 72  2  0
 78 79  1  0
 79 80  1  0
 80 81  2  0
 82 81  1  0
 82 86  1  0
 83 82  2  0
 84 79  2  0
 84 83  1  0
 85 84  1  0
 87 88  1  0
 88 91  1  0
 88 90  1  0
 89 87  2  0
 92 93  1  0
 92 67  1  0
 94 92  1  0
M  ISO  4   7 101   8 101  57 100  65 100
M  END
>  <TORSDO>  (85) 
F 22

>  <SCORE>  (85) 
-13.491

>  <name>  (85) 
86

>  <ligand_id>  (85) 
86

>  <original_smiles>  (85) 
[H]C(=NC([H])(c1c([H])c([H])c([H])c([H])c1[H])C([H])([H])N([H])C(=O)N1C([H])([H])C([H])([H])C([H])([H])C([H])(n2nc(-c3c([H])c([H])c(Oc4c([H])c([H])c(F)c([H])c4F)c([H])c3[H])c(C(=O)N([H])[H])c2N([H])[H])C1([H])[H])C([H])(C([H])=C([H])C([H])([H])Oc1c([H])c([H])c2c(c1[H])C([H])([H])N(C(=O)C([H])(N([H])C(=O)C([H])(N([H])C([H])([H])[H])C([H])([H])[H])C(C([H])([H])[H])(C([H])([H])[H])C([H])([H])[H])C([H])(C(=O)N([H])C1([H])c3c([H])c([H])c([H])c([H])c3C([H])([H])C([H])([H])C1([H])[H])C2([H])[H])C([H])([H])[H]

>  <smiles>  (85) 
[H]C(=NC([H])(c1c([H])c([H])c([H])c([H])c1[H])C([H])([H])N([H])C(=O)N1C([H])([H])C([H])([H])C([H])([H])C([H])(n2nc(-c3c([H])c([H])c(Oc4c([H])c([H])c(F)c([H])c4F)c([H])c3[H])c(C(=O)N([H])[H])c2N([H])[H])C1([H])[H])C([H])(C([H])=C([H])C([H])([H])Oc1c([H])c([H])c2c(c1[H])C([H])([H])N(C(=O)C([H])(N([H])C(=O)C([H])(N([H])C([H])([H])[H])C([H])([H])[H])C(C([H])([H])[H])(C([H])([H])[H])C([H])([H])[H])C([H])(C(=O)N([H])C1([H])c3c([H])c([H])c([H])c([H])c3C([H])([H])C([H])([H])C1([H])[H])C2([H])[H])C([H])([H])[H]

$$$$
87:0:0
     RDKit          3D

 99109  0  0  1  0  0  0  0  0999 V2000
  -31.0370  -20.5380   20.6570 C   0  0  0  0  0  3  0  0  0  0  0  0
  -30.6920  -14.5270   20.4970 C   0  0  0  0  0  0  0  0  0  0  0  0
  -30.3430  -12.3690   19.3520 C   0  0  0  0  0  2  0  0  0  0  0  0
  -29.4100  -12.5660   18.1410 C   0  0  0  0  0  2  0  0  0  0  0  0
  -27.9360  -12.4210   18.5690 C   0  0  0  0  0  2  0  0  0  0  0  0
  -27.5900  -13.2670   19.8210 C   0  0  0  0  0  3  0  0  0  0  0  0
  -28.6480  -13.0940   20.9370 C   0  0  0  0  0  2  0  0  0  0  0  0
  -29.9730  -13.3750   20.3610 N   0  0  0  0  0  0  0  0  0  0  0  0
  -31.8490  -14.6330   20.0800 O   0  0  0  0  0  0  0  0  0  0  0  0
  -30.7980  -16.6220   21.7990 C   0  0  0  0  0  2  0  0  0  0  0  0
  -29.1490  -16.3820   20.1160 C   0  0  0  0  0  2  0  0  0  0  0  0
  -30.9110  -17.8670   20.9110 C   0  0  0  0  0  3  0  0  0  0  0  0
  -29.8170  -17.7370   19.9030 C   0  0  0  0  0  3  0  0  0  0  0  0
  -30.3460  -19.2700   21.2420 C   0  0  0  0  0  3  0  0  0  0  0  0
  -30.0510  -15.6150   21.0040 N   0  0  0  0  0  0  0  0  0  0  0  0
  -29.1380  -18.8930   20.5000 N   0  0  0  0  0  4  0  0  0  0  0  0
  -28.3900  -18.6320   21.1220 H   0  0  0  0  0  0  0  0  0  0  0  0
  -28.8320  -19.5840   19.8320 H   0  0  0  0  0  0  0  0  0  0  0  0
  -25.1980  -13.8920   20.5230 C   0  0  0  0  0  0  0  0  0  0  0  0
  -24.1250  -13.1260   20.8880 C   0  0  0  0  0  0  0  0  0  0  0  0
  -24.5810  -11.7720   20.8630 C   0  0  0  0  0  0  0  0  0  0  0  0
  -26.2390  -13.0020   20.3000 N   0  0  0  0  0  0  0  0  0  0  0  0
  -25.8720  -11.7250   20.5640 N   0  0  0  0  0  0  0  0  0  0  0  0
  -23.8490  -10.5150   21.0490 C   0  0  0  0  0  0  0  0  0  0  0  0
  -24.2700   -9.5490   21.9880 C   0  0  0  0  0  3  0  0  0  0  0  0
  -23.5390   -8.3540   22.1620 C   0  0  0  0  0  3  0  0  0  0  0  0
  -22.3750   -8.1170   21.3940 C   0  0  0  0  0  0  0  0  0  0  0  0
  -21.9730   -9.0720   20.4430 C   0  0  0  0  0  3  0  0  0  0  0  0
  -22.7040  -10.2580   20.2670 C   0  0  0  0  0  3  0  0  0  0  0  0
  -21.6160   -6.9740   21.4770 O   0  0  0  0  0  0  0  0  0  0  0  0
  -21.5530   -6.2350   22.6310 C   0  0  0  0  0  0  0  0  0  0  0  0
  -21.1100   -6.7930   23.8500 C   0  0  0  0  0  3  0  0  0  0  0  0
  -20.9940   -5.9800   24.9950 C   0  0  0  0  0  3  0  0  0  0  0  0
  -21.3120   -4.6110   24.9230 C   0  0  0  0  0  0  0  0  0  0  0  0
  -21.7500   -4.0530   23.7080 C   0  0  0  0  0  3  0  0  0  0  0  0
  -21.8670   -4.8630   22.5650 C   0  0  0  0  0  0  0  0  0  0  0  0
  -22.2680   -4.3160   21.3920 F   0  0  0  0  0  0  0  0  0  0  0  0
  -21.1940   -3.8280   26.0200 F   0  0  0  0  0  0  0  0  0  0  0  0
  -22.7280  -13.6110   21.1480 C   0  0  0  0  0  0  0  0  0  0  0  0
  -21.9880  -12.9140   22.0030 N   0  0  0  0  0  0  0  0  0  0  0  0
  -22.3020  -14.6420   20.6290 O   0  0  0  0  0  0  0  0  0  0  0  0
  -22.3450  -12.0800   22.4440 H   0  0  0  0  0  0  0  0  0  0  0  0
  -21.0490  -13.2200   22.2210 H   0  0  0  0  0  0  0  0  0  0  0  0
  -25.3670  -15.2610   20.3370 N   0  0  0  0  0  0  0  0  0  0  0  0
  -24.5940  -15.9110   20.4220 H   0  0  0  0  0  0  0  0  0  0  0  0
  -26.1990  -15.6820   19.9490 H   0  0  0  0  0  0  0  0  0  0  0  0
  -29.3810  -23.9520   19.8530 C   0  0  0  0  0  3  0  0  0  0  0  0
  -29.3480  -23.6340   22.2600 C   0  0  0  0  0  3  0  0  0  0  0  0
  -29.9710  -22.6740   19.6990 C   0  0  0  0  0  3  0  0  0  0  0  0
  -29.9350  -22.3570   22.1080 C   0  0  0  0  0  3  0  0  0  0  0  0
  -29.0820  -24.4510   21.1400 C   0  0  0  0  0  0  0  0  0  0  0  0
  -30.2720  -21.8680   20.8260 C   0  0  0  0  0  0  0  0  0  0  0  0
  -28.4400  -25.8250   21.3610 C   0  0  0  0  0  2  0  0  0  0  0  0
  -28.4210  -26.7010   20.2230 O   0  0  0  0  0  0  0  0  0  0  0  0
  -24.6040  -31.9030   23.2530 C   0  0  0  0  0  0  0  0  0  0  0  0
  -27.2900  -27.4810   20.1910 C   0  0  0  0  0  0  0  0  0  0  0  0
  -23.4150  -30.4940   21.6020 C   0  0  0  0  0  3  0  0  0  0  0  0
  -24.8890  -28.9660   20.1840 C   0  0  0  0  0  0  0  0  0  0  0  0
  -25.9400  -30.8690   21.4210 C   0  0  0  0  0  2  0  0  0  0  0  0
  -26.0390  -29.4990   20.7810 C   0  0  0  0  0  0  0  0  0  0  0  0
  -27.2460  -28.7610   20.7870 C   0  0  0  0  0  3  0  0  0  0  0  0
  -26.1290  -26.9620   19.5840 C   0  0  0  0  0  3  0  0  0  0  0  0
  -24.9280  -27.6950   19.5820 C   0  0  0  0  0  3  0  0  0  0  0  0
  -23.6380  -29.8150   20.2230 C   0  0  0  0  0  2  0  0  0  0  0  0
  -24.6710  -31.1040   22.1500 N   0  0  0  0  0  0  0  0  0  0  0  0
  -23.5180  -32.1700   23.7860 O   0  0  0  0  0  0  0  0  0  0  0  0
  -22.7620  -29.4710   22.5580 C   0  0  0  0  0  0  0  0  0  0  0  0
  -21.4390  -29.2860   22.4250 N   0  0  0  0  0  0  0  0  0  0  0  0
  -23.4440  -28.8460   23.3750 O   0  0  0  0  0  0  0  0  0  0  0  0
  -20.9510  -29.8420   21.7360 H   0  0  0  0  0  0  0  0  0  0  0  0
  -18.0620  -28.0980   22.9150 C   0  0  0  0  0  0  0  0  0  0  0  0
  -20.6200  -28.3470   23.1900 C   0  0  0  0  0  3  0  0  0  0  0  0
  -20.7190  -26.9180   22.6040 C   0  0  0  0  0  2  0  0  0  0  0  0
  -19.6170  -26.6060   21.5880 C   0  0  0  0  0  2  0  0  0  0  0  0
  -18.2350  -26.7520   22.2330 C   0  0  0  0  0  2  0  0  0  0  0  0
  -19.1830  -28.8540   23.3510 C   0  0  0  0  0  0  0  0  0  0  0  0
  -18.9680  -30.1150   23.9470 C   0  0  0  0  0  3  0  0  0  0  0  0
  -17.6650  -30.6200   24.1150 C   0  0  0  0  0  3  0  0  0  0  0  0
  -16.5580  -29.8600   23.6970 C   0  0  0  0  0  3  0  0  0  0  0  0
  -16.7580  -28.6010   23.1030 C   0  0  0  0  0  3  0  0  0  0  0  0
  -25.8830  -32.5400   23.8800 C   0  0  0  0  0  3  0  0  0  0  0  0
  -26.3910  -31.7770   25.1660 C   0  0  1  0  0  0  0  0  0  0  0  0
  -25.2890  -31.5440   26.2260 C   0  0  0  0  0  1  0  0  0  0  0  0
  -26.9790  -30.3980   24.7850 C   0  0  0  0  0  1  0  0  0  0  0  0
  -27.5350  -32.5770   25.8320 C   0  0  0  0  0  1  0  0  0  0  0  0
  -25.5720  -33.9400   24.1950 N   0  0  0  0  0  0  0  0  0  0  0  0
  -25.9170  -34.9850   23.4310 C   0  0  0  0  0  0  0  0  0  0  0  0
  -26.6010  -34.8720   22.4100 O   0  0  0  0  0  0  0  0  0  0  0  0
  -24.9670  -34.1030   24.9870 H   0  0  0  0  0  0  0  0  0  0  0  0
  -24.2010  -36.7780   23.0280 C   0  0  0  0  0  1  0  0  0  0  0  0
  -25.4240  -36.3780   23.8680 C   0  0  0  0  0  3  0  0  0  0  0  0
  -27.5420  -37.2630   24.7380 C   0  0  0  0  0  1  0  0  0  0  0  0
  -26.4610  -37.4270   23.7690 N   0  0  0  0  0  0  0  0  0  0  0  0
  -26.0560  -38.3490   23.9000 H   0  0  0  0  0  0  0  0  0  0  0  0
  -32.4750  -20.7100   21.1960 C   0  0  0  0  0  0  0  0  0  0  0  0
  -33.3210  -21.4500   20.4850 N   0  0  0  0  0  0  0  0  0  0  0  0
  -32.8360  -20.1830   22.2480 O   0  0  0  0  0  0  0  0  0  0  0  0
  -33.0140  -21.9020   19.6340 H   0  0  0  0  0  0  0  0  0  0  0  0
  -34.2690  -21.5900   20.8020 H   0  0  0  0  0  0  0  0  0  0  0  0
  1 52  1  0
  1 95  1  0
  2 15  1  0
  3  8  1  0
  4  5  1  0
  4  3  1  0
  6  5  1  0
  6 22  1  0
  6  7  1  0
  8  2  1  0
  8  7  1  0
  9  2  2  0
 11 15  1  0
 12 14  1  0
 12 10  1  0
 13 11  1  0
 13 16  1  0
 13 12  1  0
 14  1  1  0
 15 10  1  0
 16 17  1  0
 16 14  1  0
 18 16  1  0
 19 20  2  0
 20 39  1  0
 21 20  1  0
 21 24  1  0
 22 19  1  0
 22 23  1  0
 23 21  2  0
 24 25  1  0
 25 26  2  0
 27 30  1  0
 27 26  1  0
 28 27  2  0
 29 28  1  0
 29 24  2  0
 30 31  1  0
 31 32  1  0
 32 33  2  0
 34 33  1  0
 34 38  1  0
 35 34  2  0
 36 31  2  0
 36 35  1  0
 37 36  1  0
 39 40  1  0
 40 43  1  0
 40 42  1  0
 41 39  2  0
 44 45  1  0
 44 19  1  0
 46 44  1  0
 47 51  1  0
 49 47  2  0
 49 52  1  0
 50 48  1  0
 51 53  1  0
 51 48  2  0
 52 50  2  0
 54 53  1  0
 55 66  2  0
 56 54  1  0
 56 61  1  0
 57 65  1  0
 57 67  1  0
 58 64  1  0
 58 60  1  0
 59 65  1  0
 60 61  2  0
 60 59  1  0
 62 56  2  0
 63 62  1  0
 63 58  2  0
 64 57  1  0
 65 55  1  0
 67 69  2  0
 68 67  1  0
 70 68  1  0
 71 80  2  0
 71 76  1  0
 72 68  1  0
 72 76  1  0
 73 72  1  0
 74 75  1  0
 74 73  1  0
 75 71  1  0
 76 77  2  0
 77 78  1  0
 79 78  2  0
 80 79  1  0
 81 55  1  0
 81 86  1  0
 81 82  1  0
 82 85  1  1
 82 83  1  0
 84 82  1  0
 86 89  1  0
 87 91  1  0
 87 86  1  0
 88 87  2  0
 91 90  1  0
 93 91  1  0
 93 94  1  0
 93 92  1  0
 95 97  2  0
 96 99  1  0
 96 95  1  0
 98 96  1  0
M  ISO  4   2 100  15 100  53 101  54 101
M  END
>  <TORSDO>  (86) 
F 19

>  <SCORE>  (86) 
-15.043

>  <name>  (86) 
87

>  <ligand_id>  (86) 
87

>  <original_smiles>  (86) 
[H]c1c([H])c([H])c2c(c1[H])C([H])([H])C([H])([H])C([H])([H])C2([H])N([H])C(=O)C1([H])N(C(=O)C([H])(N([H])C(=O)C([H])(N([H])C([H])([H])[H])C([H])([H])[H])C(C([H])([H])[H])(C([H])([H])[H])C([H])([H])[H])C([H])([H])c2c([H])c(OC([H])([H])c3c([H])c([H])c(C([H])(C(=O)N([H])[H])C4([H])C5([H])C([H])([H])N(C(=O)N6C([H])([H])C([H])([H])C([H])([H])C([H])(n7nc(-c8c([H])c([H])c(Oc9c([H])c([H])c(F)c([H])c9F)c([H])c8[H])c(C(=O)N([H])[H])c7N([H])[H])C6([H])[H])C([H])([H])C5([H])[N+]4([H])[H])c([H])c3[H])c([H])c([H])c2C1([H])[H]

>  <smiles>  (86) 
[H]c1c([H])c([H])c2c(c1[H])C([H])([H])C([H])([H])C([H])([H])C2([H])N([H])C(=O)C1([H])N(C(=O)C([H])(N([H])C(=O)C([H])(N([H])C([H])([H])[H])C([H])([H])[H])C(C([H])([H])[H])(C([H])([H])[H])C([H])([H])[H])C([H])([H])c2c([H])c(OC([H])([H])c3c([H])c([H])c(C([H])(C(=O)N([H])[H])C4([H])C5([H])C([H])([H])N(C(=O)N6C([H])([H])C([H])([H])C([H])([H])C([H])(n7nc(-c8c([H])c([H])c(Oc9c([H])c([H])c(F)c([H])c9F)c([H])c8[H])c(C(=O)N([H])[H])c7N([H])[H])C6([H])[H])C([H])([H])C5([H])[N+]4([H])[H])c([H])c3[H])c([H])c([H])c2C1([H])[H]

$$$$
88:0:0
     RDKit          3D

103112  0  0  1  0  0  0  0  0999 V2000
  -28.6560  -22.9680   21.5350 C   0  0  0  0  0  0  0  0  0  0  0  0
  -28.1330  -21.2120   19.9350 C   0  0  0  0  0  1  0  0  0  0  0  0
  -29.0450  -21.8200   20.9220 N   0  0  0  0  0  0  0  0  0  0  0  0
  -27.5000  -23.4030   21.4430 O   0  0  0  0  0  0  0  0  0  0  0  0
  -29.7590  -25.0430   24.4300 C   0  0  0  0  0  2  0  0  0  0  0  0
  -29.4220  -23.6690   23.8680 C   0  0  0  0  0  2  0  0  0  0  0  0
  -29.3280  -26.0070   23.3260 C   0  0  0  0  0  2  0  0  0  0  0  0
  -29.6500  -23.8230   22.3510 C   0  0  0  0  0  3  0  0  0  0  0  0
  -29.4190  -25.2620   22.0440 N   0  0  2  0  0  4  0  0  0  0  0  0
  -28.4930  -25.2490   21.6260 H   0  0  0  0  0  0  0  0  0  0  0  0
  -30.3570  -25.8520   21.0450 C   0  0  0  0  0  2  0  0  0  0  0  0
  -29.7940  -27.1380   20.4090 C   0  0  0  0  0  2  0  0  0  0  0  0
  -28.5990  -26.7530   19.7410 O   0  0  0  0  0  0  0  0  0  0  0  0
  -24.5760  -31.6440   23.0810 C   0  0  0  0  0  0  0  0  0  0  0  0
  -27.4550  -27.5150   19.8230 C   0  0  0  0  0  0  0  0  0  0  0  0
  -23.4460  -30.2860   21.3450 C   0  0  0  0  0  3  0  0  0  0  0  0
  -24.9840  -28.8900   19.8650 C   0  0  0  0  0  0  0  0  0  0  0  0
  -25.9530  -30.7720   21.1970 C   0  0  0  0  0  2  0  0  0  0  0  0
  -26.1070  -29.4410   20.4950 C   0  0  0  0  0  0  0  0  0  0  0  0
  -27.3450  -28.7700   20.4670 C   0  0  0  0  0  3  0  0  0  0  0  0
  -26.3120  -26.9680   19.2020 C   0  0  0  0  0  3  0  0  0  0  0  0
  -25.0800  -27.6500   19.2130 C   0  0  0  0  0  3  0  0  0  0  0  0
  -23.7030  -29.6910   19.9340 C   0  0  0  0  0  2  0  0  0  0  0  0
  -24.6750  -30.9120   21.9350 N   0  0  0  0  0  0  0  0  0  0  0  0
  -23.4780  -31.8390   23.6210 O   0  0  0  0  0  0  0  0  0  0  0  0
  -22.8280  -29.1880   22.2400 C   0  0  0  0  0  0  0  0  0  0  0  0
  -21.5060  -28.9850   22.1070 N   0  0  0  0  0  0  0  0  0  0  0  0
  -23.5300  -28.5230   23.0060 O   0  0  0  0  0  0  0  0  0  0  0  0
  -21.0000  -29.5780   21.4630 H   0  0  0  0  0  0  0  0  0  0  0  0
  -18.1450  -27.7540   22.5870 C   0  0  0  0  0  0  0  0  0  0  0  0
  -20.7110  -27.9840   22.8140 C   0  0  0  0  0  3  0  0  0  0  0  0
  -20.7940  -26.6080   22.1140 C   0  0  0  0  0  2  0  0  0  0  0  0
  -19.6650  -26.3770   21.1040 C   0  0  0  0  0  2  0  0  0  0  0  0
  -18.3010  -26.4670   21.7960 C   0  0  0  0  0  2  0  0  0  0  0  0
  -19.2790  -28.4740   23.0520 C   0  0  0  0  0  0  0  0  0  0  0  0
  -19.0830  -29.6840   23.7520 C   0  0  0  0  0  3  0  0  0  0  0  0
  -17.7870  -30.1720   23.9980 C   0  0  0  0  0  3  0  0  0  0  0  0
  -16.6670  -29.4460   23.5550 C   0  0  0  0  0  3  0  0  0  0  0  0
  -16.8480  -28.2410   22.8520 C   0  0  0  0  0  3  0  0  0  0  0  0
  -25.8310  -32.2860   23.7530 C   0  0  0  0  0  3  0  0  0  0  0  0
  -25.4990  -33.6790   24.0720 N   0  0  0  0  0  0  0  0  0  0  0  0
  -25.8580  -34.7350   23.3320 C   0  0  0  0  0  0  0  0  0  0  0  0
  -26.5760  -34.6390   22.3320 O   0  0  0  0  0  0  0  0  0  0  0  0
  -24.8640  -33.8270   24.8420 H   0  0  0  0  0  0  0  0  0  0  0  0
  -24.1410  -36.5160   22.8770 C   0  0  0  0  0  1  0  0  0  0  0  0
  -25.3320  -36.1170   23.7630 C   0  0  0  0  0  3  0  0  0  0  0  0
  -27.3970  -37.0160   24.7340 C   0  0  0  0  0  1  0  0  0  0  0  0
  -26.3600  -37.1770   23.7170 N   0  0  0  0  0  0  0  0  0  0  0  0
  -25.9380  -38.0940   23.8410 H   0  0  0  0  0  0  0  0  0  0  0  0
  -26.3070  -31.5160   25.0440 C   0  0  1  0  0  0  0  0  0  0  0  0
  -25.1760  -31.2640   26.0680 C   0  0  0  0  0  1  0  0  0  0  0  0
  -26.9240  -30.1510   24.6630 C   0  0  0  0  0  1  0  0  0  0  0  0
  -27.4160  -32.3240   25.7590 C   0  0  0  0  0  1  0  0  0  0  0  0
  -30.4160  -21.2590   21.0240 C   0  0  0  0  0  2  0  0  0  0  0  0
  -29.7530  -18.9610   21.9390 C   0  0  0  0  0  3  0  0  0  0  0  0
  -29.7630  -17.5550   21.9100 C   0  0  0  0  0  3  0  0  0  0  0  0
  -31.5890  -17.6160   20.3250 C   0  0  0  0  0  3  0  0  0  0  0  0
  -31.5750  -19.0320   20.3240 C   0  0  0  0  0  0  0  0  0  0  0  0
  -30.5790  -19.7250   21.0790 C   0  0  0  0  0  0  0  0  0  0  0  0
  -30.6440  -16.8650   21.0590 C   0  0  0  0  0  0  0  0  0  0  0  0
  -30.9850  -14.6070   20.0540 C   0  0  0  0  0  0  0  0  0  0  0  0
  -30.6290  -12.4790   18.8610 C   0  0  0  0  0  2  0  0  0  0  0  0
  -29.5910  -12.6530   17.7360 C   0  0  0  0  0  2  0  0  0  0  0  0
  -28.1640  -12.4570   18.2820 C   0  0  0  0  0  2  0  0  0  0  0  0
  -27.8910  -13.2930   19.5610 C   0  0  0  0  0  3  0  0  0  0  0  0
  -29.0300  -13.0950   20.5870 C   0  0  0  0  0  2  0  0  0  0  0  0
  -30.3110  -13.4320   19.9390 N   0  0  0  0  0  0  0  0  0  0  0  0
  -31.9680  -14.8720   19.3590 O   0  0  0  0  0  0  0  0  0  0  0  0
  -30.5180  -15.4470   20.9930 N   0  0  0  0  0  0  0  0  0  0  0  0
  -29.7840  -15.0490   21.5590 H   0  0  0  0  0  0  0  0  0  0  0  0
  -25.5470  -13.8210   20.5020 C   0  0  0  0  0  0  0  0  0  0  0  0
  -24.5220  -13.0110   20.9110 C   0  0  0  0  0  0  0  0  0  0  0  0
  -24.9930  -11.6710   20.7550 C   0  0  0  0  0  0  0  0  0  0  0  0
  -26.5810  -12.9730   20.1320 N   0  0  0  0  0  0  0  0  0  0  0  0
  -26.2520  -11.6720   20.3380 N   0  0  0  0  0  0  0  0  0  0  0  0
  -24.2990  -10.3880   20.9250 C   0  0  0  0  0  0  0  0  0  0  0  0
  -24.6860   -9.4670   21.9250 C   0  0  0  0  0  3  0  0  0  0  0  0
  -23.9950   -8.2460   22.0790 C   0  0  0  0  0  3  0  0  0  0  0  0
  -22.9000   -7.9380   21.2370 C   0  0  0  0  0  0  0  0  0  0  0  0
  -22.5350   -8.8470   20.2280 C   0  0  0  0  0  3  0  0  0  0  0  0
  -23.2280  -10.0590   20.0710 C   0  0  0  0  0  3  0  0  0  0  0  0
  -22.1820   -6.7680   21.3010 O   0  0  0  0  0  0  0  0  0  0  0  0
  -21.8550   -6.1890   22.5010 C   0  0  0  0  0  0  0  0  0  0  0  0
  -21.0780   -6.8640   23.4680 C   0  0  0  0  0  3  0  0  0  0  0  0
  -20.7080   -6.2060   24.6590 C   0  0  0  0  0  3  0  0  0  0  0  0
  -21.1020   -4.8730   24.8790 C   0  0  0  0  0  0  0  0  0  0  0  0
  -21.8690   -4.1970   23.9130 C   0  0  0  0  0  3  0  0  0  0  0  0
  -22.2430   -4.8530   22.7280 C   0  0  0  0  0  0  0  0  0  0  0  0
  -22.9650   -4.1900   21.7930 F   0  0  0  0  0  0  0  0  0  0  0  0
  -20.7380   -4.2370   26.0180 F   0  0  0  0  0  0  0  0  0  0  0  0
  -23.1450  -13.4460   21.3290 C   0  0  0  0  0  0  0  0  0  0  0  0
  -22.5100  -12.7030   22.2290 N   0  0  0  0  0  0  0  0  0  0  0  0
  -22.6430  -14.4820   20.8930 O   0  0  0  0  0  0  0  0  0  0  0  0
  -22.9270  -11.8660   22.6100 H   0  0  0  0  0  0  0  0  0  0  0  0
  -21.5890  -12.9740   22.5410 H   0  0  0  0  0  0  0  0  0  0  0  0
  -25.6820  -15.2030   20.3930 N   0  0  0  0  0  0  0  0  0  0  0  0
  -24.9240  -15.8420   20.6110 H   0  0  0  0  0  0  0  0  0  0  0  0
  -26.5040  -15.6720   20.0330 H   0  0  0  0  0  0  0  0  0  0  0  0
  -32.6280  -19.7260   19.5020 C   0  0  0  0  0  0  0  0  0  0  0  0
  -33.8790  -19.3710   19.7780 N   0  0  0  0  0  0  0  0  0  0  0  0
  -32.3630  -20.5530   18.6340 O   0  0  0  0  0  0  0  0  0  0  0  0
  -34.0550  -18.7070   20.5180 H   0  0  0  0  0  0  0  0  0  0  0  0
  -34.6540  -19.7500   19.2550 H   0  0  0  0  0  0  0  0  0  0  0  0
  2  3  1  0
  3 54  1  0
  3  1  1  0
  4  1  2  0
  6  5  1  0
  7  5  1  0
  8  1  1  0
  8  6  1  0
  9  8  1  0
  9  7  1  0
  9 10  1  6
 11  9  1  0
 12 11  1  0
 13 15  1  0
 13 12  1  0
 14 25  2  0
 15 20  1  0
 16 24  1  0
 16 26  1  0
 17 23  1  0
 17 19  1  0
 18 24  1  0
 19 18  1  0
 20 19  2  0
 21 22  1  0
 21 15  2  0
 22 17  2  0
 23 16  1  0
 24 14  1  0
 26 28  2  0
 27 26  1  0
 29 27  1  0
 30 39  2  0
 30 35  1  0
 31 27  1  0
 31 35  1  0
 32 31  1  0
 33 34  1  0
 33 32  1  0
 34 30  1  0
 35 36  2  0
 36 37  1  0
 38 37  2  0
 39 38  1  0
 40 14  1  0
 40 41  1  0
 40 50  1  0
 41 44  1  0
 42 46  1  0
 42 41  1  0
 43 42  2  0
 46 45  1  0
 48 46  1  0
 48 49  1  0
 48 47  1  0
 50 53  1  1
 50 51  1  0
 52 50  1  0
 54 59  1  0
 56 55  1  0
 57 60  1  0
 58 57  2  0
 58 59  1  0
 59 55  2  0
 60 56  2  0
 61 69  1  0
 62 67  1  0
 63 64  1  0
 63 62  1  0
 65 64  1  0
 65 74  1  0
 65 66  1  0
 67 61  1  0
 67 66  1  0
 68 61  2  0
 69 60  1  0
 69 70  1  0
 71 72  2  0
 72 91  1  0
 73 72  1  0
 73 76  1  0
 74 75  1  0
 74 71  1  0
 75 73  2  0
 76 77  1  0
 77 78  2  0
 79 82  1  0
 79 78  1  0
 80 79  2  0
 81 80  1  0
 81 76  2  0
 82 83  1  0
 83 88  2  0
 83 84  1  0
 84 85  2  0
 85 86  1  0
 86 90  1  0
 87 86  2  0
 88 87  1  0
 89 88  1  0
 91 92  1  0
 92 95  1  0
 92 94  1  0
 93 91  2  0
 96 71  1  0
 96 97  1  0
 98 96  1  0
 99100  1  0
 99 58  1  0
100102  1  0
101 99  2  0
103100  1  0
M  ISO  4  12 101  13 101  61 100  69 100
M  END
>  <TORSDO>  (87) 
F 22

>  <SCORE>  (87) 
-10.475

>  <name>  (87) 
88

>  <ligand_id>  (87) 
88

>  <original_smiles>  (87) 
[H]c1c([H])c([H])c2c(c1[H])C([H])([H])C([H])([H])C([H])([H])C2([H])N([H])C(=O)C1([H])N(C(=O)C([H])(N([H])C(=O)C([H])(N([H])C([H])([H])[H])C([H])([H])[H])C(C([H])([H])[H])(C([H])([H])[H])C([H])([H])[H])C([H])([H])c2c([H])c(OC([H])([H])C([H])([H])[N+]3([H])C([H])([H])C([H])([H])C([H])([H])C3([H])C(=O)N(C([H])([H])[H])C([H])([H])c3c([H])c([H])c(N([H])C(=O)N4C([H])([H])C([H])([H])C([H])([H])C([H])(n5nc(-c6c([H])c([H])c(Oc7c([H])c([H])c(F)c([H])c7F)c([H])c6[H])c(C(=O)N([H])[H])c5N([H])[H])C4([H])[H])c([H])c3C(=O)N([H])[H])c([H])c([H])c2C1([H])[H]

>  <smiles>  (87) 
[H]c1c([H])c([H])c2c(c1[H])C([H])([H])C([H])([H])C([H])([H])C2([H])N([H])C(=O)C1([H])N(C(=O)C([H])(N([H])C(=O)C([H])(N([H])C([H])([H])[H])C([H])([H])[H])C(C([H])([H])[H])(C([H])([H])[H])C([H])([H])[H])C([H])([H])c2c([H])c(OC([H])([H])C([H])([H])[N+]3([H])C([H])([H])C([H])([H])C([H])([H])C3([H])C(=O)N(C([H])([H])[H])C([H])([H])c3c([H])c([H])c(N([H])C(=O)N4C([H])([H])C([H])([H])C([H])([H])C([H])(n5nc(-c6c([H])c([H])c(Oc7c([H])c([H])c(F)c([H])c7F)c([H])c6[H])c(C(=O)N([H])[H])c5N([H])[H])C4([H])[H])c([H])c3C(=O)N([H])[H])c([H])c([H])c2C1([H])[H]

$$$$
89:0:0
     RDKit          3D

106114  0  0  1  0  0  0  0  0999 V2000
  -29.0480  -18.3540   20.2780 C   0  0  0  0  0  0  0  0  0  0  0  0
  -26.7880  -19.2290   20.5490 C   0  0  0  0  0  1  0  0  0  0  0  0
  -28.2080  -19.4450   20.2120 N   0  0  0  0  0  0  0  0  0  0  0  0
  -28.5820  -17.2150   20.4050 O   0  0  0  0  0  0  0  0  0  0  0  0
  -31.2130  -19.6570   20.6150 C   0  0  0  0  0  3  0  0  0  0  0  0
  -32.8150  -17.5680   19.7260 C   0  0  0  0  0  3  0  0  0  0  0  0
  -30.5710  -18.4660   20.1910 C   0  0  0  0  0  0  0  0  0  0  0  0
  -33.4170  -18.8040   20.0210 C   0  0  0  0  0  0  0  0  0  0  0  0
  -32.6060  -19.8530   20.5180 C   0  0  0  0  0  0  0  0  0  0  0  0
  -31.4160  -17.3600   19.8130 C   0  0  0  0  0  0  0  0  0  0  0  0
  -33.1840  -21.1790   20.9950 C   0  0  0  0  0  1  0  0  0  0  0  0
  -31.6100  -14.8800   19.3960 C   0  0  0  0  0  0  0  0  0  0  0  0
  -31.4190  -12.4260   19.1440 C   0  0  0  0  0  2  0  0  0  0  0  0
  -30.4830  -12.0770   17.9720 C   0  0  0  0  0  2  0  0  0  0  0  0
  -29.0160  -12.0340   18.4410 C   0  0  0  0  0  2  0  0  0  0  0  0
  -28.6160  -13.2820   19.2720 C   0  0  0  0  0  3  0  0  0  0  0  0
  -29.6660  -13.5840   20.3630 C   0  0  0  0  0  2  0  0  0  0  0  0
  -30.9740  -13.7140   19.7010 N   0  0  0  0  0  0  0  0  0  0  0  0
  -32.7000  -14.9020   18.8180 O   0  0  0  0  0  0  0  0  0  0  0  0
  -30.9200  -16.0180   19.6360 N   0  0  0  0  0  0  0  0  0  0  0  0
  -29.9340  -15.8980   19.8280 H   0  0  0  0  0  0  0  0  0  0  0  0
  -26.3370  -14.1210   20.1230 C   0  0  0  0  0  0  0  0  0  0  0  0
  -25.2190  -13.4570   20.5500 C   0  0  0  0  0  0  0  0  0  0  0  0
  -25.5410  -12.0670   20.4940 C   0  0  0  0  0  0  0  0  0  0  0  0
  -27.2750  -13.1410   19.8340 N   0  0  0  0  0  0  0  0  0  0  0  0
  -26.8010  -11.8990   20.1120 N   0  0  0  0  0  0  0  0  0  0  0  0
  -24.7030  -10.8830   20.7310 C   0  0  0  0  0  0  0  0  0  0  0  0
  -25.0500   -9.9130   21.6980 C   0  0  0  0  0  3  0  0  0  0  0  0
  -24.2190   -8.7940   21.9190 C   0  0  0  0  0  3  0  0  0  0  0  0
  -23.0260   -8.6370   21.1740 C   0  0  0  0  0  0  0  0  0  0  0  0
  -22.6970   -9.5940   20.1970 C   0  0  0  0  0  3  0  0  0  0  0  0
  -23.5280  -10.7050   19.9750 C   0  0  0  0  0  3  0  0  0  0  0  0
  -22.1710   -7.5700   21.3010 O   0  0  0  0  0  0  0  0  0  0  0  0
  -21.9960   -6.9280   22.5010 C   0  0  0  0  0  0  0  0  0  0  0  0
  -21.5460   -7.6110   23.6520 C   0  0  0  0  0  3  0  0  0  0  0  0
  -21.3120   -6.8990   24.8460 C   0  0  0  0  0  3  0  0  0  0  0  0
  -21.5180   -5.5080   24.8900 C   0  0  0  0  0  0  0  0  0  0  0  0
  -21.9600   -4.8260   23.7430 C   0  0  0  0  0  3  0  0  0  0  0  0
  -22.1950   -5.5330   22.5510 C   0  0  0  0  0  0  0  0  0  0  0  0
  -22.6010   -4.8680   21.4430 F   0  0  0  0  0  0  0  0  0  0  0  0
  -21.2860   -4.8230   26.0340 F   0  0  0  0  0  0  0  0  0  0  0  0
  -23.8980  -14.0720   20.9090 C   0  0  0  0  0  0  0  0  0  0  0  0
  -23.1800  -13.4750   21.8540 N   0  0  0  0  0  0  0  0  0  0  0  0
  -23.5160  -15.1190   20.3860 O   0  0  0  0  0  0  0  0  0  0  0  0
  -23.5020  -12.6270   22.2970 H   0  0  0  0  0  0  0  0  0  0  0  0
  -22.2960  -13.8700   22.1380 H   0  0  0  0  0  0  0  0  0  0  0  0
  -26.6290  -15.4700   19.9450 N   0  0  0  0  0  0  0  0  0  0  0  0
  -25.9550  -16.1940   20.1650 H   0  0  0  0  0  0  0  0  0  0  0  0
  -27.5640  -15.8380   19.8010 H   0  0  0  0  0  0  0  0  0  0  0  0
  -34.9080  -18.9200   19.8590 C   0  0  0  0  0  0  0  0  0  0  0  0
  -35.3380  -19.9220   19.1050 N   0  0  0  0  0  0  0  0  0  0  0  0
  -35.6750  -18.0910   20.3450 O   0  0  0  0  0  0  0  0  0  0  0  0
  -34.6700  -20.5510   18.6860 H   0  0  0  0  0  0  0  0  0  0  0  0
  -36.3230  -20.0420   18.9250 H   0  0  0  0  0  0  0  0  0  0  0  0
  -28.5470  -20.8820   19.9730 C   0  0  0  0  0  2  0  0  0  0  0  0
  -27.4580  -21.7850   19.2910 C   0  0  0  0  0  2  0  0  0  0  0  0
  -27.9310  -23.1820   19.0420 N   0  0  0  0  0  4  0  0  0  0  0  0
  -28.7380  -23.1800   18.4380 H   0  0  0  0  0  0  0  0  0  0  0  0
  -28.1820  -23.5640   19.9470 H   0  0  0  0  0  0  0  0  0  0  0  0
  -26.9130  -24.1850   18.5910 C   0  0  0  0  0  3  0  0  0  0  0  0
  -25.8030  -24.2350   19.6670 C   0  0  0  0  0  2  0  0  0  0  0  0
  -26.4040  -24.2680   20.9990 N   0  0  0  0  0  0  0  0  0  0  0  0
  -25.6850  -24.0400   21.6820 H   0  0  0  0  0  0  0  0  0  0  0  0
  -26.6420  -25.2260   21.2440 H   0  0  0  0  0  0  0  0  0  0  0  0
  -27.5190  -25.6060   18.3220 C   0  0  0  0  0  2  0  0  0  0  0  0
  -26.6920  -26.5470   17.6080 O   0  0  0  0  0  0  0  0  0  0  0  0
  -25.6880  -30.4330   23.5420 C   0  0  0  0  0  0  0  0  0  0  0  0
  -25.9150  -27.4240   18.3320 C   0  0  0  0  0  0  0  0  0  0  0  0
  -23.7910  -30.3390   21.9570 C   0  0  0  0  0  3  0  0  0  0  0  0
  -24.3030  -29.3240   19.6720 C   0  0  0  0  0  0  0  0  0  0  0  0
  -26.1940  -30.0660   21.1270 C   0  0  0  0  0  2  0  0  0  0  0  0
  -25.6520  -29.1790   20.0250 C   0  0  0  0  0  0  0  0  0  0  0  0
  -26.4640  -28.2320   19.3570 C   0  0  0  0  0  3  0  0  0  0  0  0
  -24.5660  -27.6050   17.9710 C   0  0  0  0  0  3  0  0  0  0  0  0
  -23.7540  -28.5380   18.6440 C   0  0  0  0  0  3  0  0  0  0  0  0
  -23.5000  -30.3560   20.4320 C   0  0  0  0  0  2  0  0  0  0  0  0
  -25.2570  -30.2600   22.2590 N   0  0  0  0  0  0  0  0  0  0  0  0
  -24.8930  -30.6950   24.4550 O   0  0  0  0  0  0  0  0  0  0  0  0
  -22.9700  -29.2000   22.6030 C   0  0  0  0  0  0  0  0  0  0  0  0
  -21.6340  -29.3110   22.5360 N   0  0  0  0  0  0  0  0  0  0  0  0
  -23.5350  -28.2330   23.1240 O   0  0  0  0  0  0  0  0  0  0  0  0
  -21.2500  -30.1390   22.1010 H   0  0  0  0  0  0  0  0  0  0  0  0
  -18.1320  -28.4200   22.5230 C   0  0  0  0  0  0  0  0  0  0  0  0
  -20.6630  -28.3400   23.0400 C   0  0  0  0  0  3  0  0  0  0  0  0
  -20.6900  -27.0410   22.2030 C   0  0  0  0  0  2  0  0  0  0  0  0
  -19.6670  -27.0380   21.0610 C   0  0  0  0  0  2  0  0  0  0  0  0
  -18.2490  -27.2100   21.6110 C   0  0  0  0  0  2  0  0  0  0  0  0
  -19.2690  -28.9600   23.1810 C   0  0  0  0  0  0  0  0  0  0  0  0
  -19.1120  -30.1070   23.9900 C   0  0  0  0  0  3  0  0  0  0  0  0
  -17.8490  -30.7090   24.1480 C   0  0  0  0  0  3  0  0  0  0  0  0
  -16.7250  -30.1610   23.5070 C   0  0  0  0  0  3  0  0  0  0  0  0
  -16.8670  -29.0170   22.7000 C   0  0  0  0  0  3  0  0  0  0  0  0
  -27.2010  -30.3340   23.9160 C   0  0  0  0  0  3  0  0  0  0  0  0
  -27.6330  -28.8880   24.3800 C   0  0  1  0  0  0  0  0  0  0  0  0
  -26.7330  -28.2970   25.4890 C   0  0  0  0  0  1  0  0  0  0  0  0
  -27.6190  -27.9060   23.1850 C   0  0  0  0  0  1  0  0  0  0  0  0
  -29.0860  -28.9200   24.9090 C   0  0  0  0  0  1  0  0  0  0  0  0
  -27.4610  -31.3180   24.9740 N   0  0  0  0  0  0  0  0  0  0  0  0
  -28.1550  -32.4520   24.8050 C   0  0  0  0  0  0  0  0  0  0  0  0
  -28.7100  -32.7440   23.7420 O   0  0  0  0  0  0  0  0  0  0  0  0
  -26.9890  -31.1710   25.8550 H   0  0  0  0  0  0  0  0  0  0  0  0
  -27.2900  -34.5990   25.7890 C   0  0  0  0  0  1  0  0  0  0  0  0
  -28.2450  -33.4150   26.0040 C   0  0  0  0  0  3  0  0  0  0  0  0
  -30.5310  -32.8880   26.7290 C   0  0  0  0  0  1  0  0  0  0  0  0
  -29.6140  -33.9190   26.2510 N   0  0  0  0  0  0  0  0  0  0  0  0
  -29.6030  -34.6750   26.9300 H   0  0  0  0  0  0  0  0  0  0  0  0
  1  4  2  0
  3  1  1  0
  3  2  1  0
  6 10  2  0
  6  8  1  0
  7  1  1  0
  7  5  2  0
  8  9  2  0
  9  5  1  0
  9 11  1  0
 10  7  1  0
 12 20  1  0
 12 18  1  0
 13 18  1  0
 14 15  1  0
 14 13  1  0
 16 15  1  0
 16 25  1  0
 16 17  1  0
 18 17  1  0
 19 12  2  0
 20 10  1  0
 20 21  1  0
 22 23  2  0
 23 42  1  0
 24 23  1  0
 24 27  1  0
 25 26  1  0
 25 22  1  0
 26 24  2  0
 27 28  1  0
 28 29  2  0
 30 33  1  0
 30 29  1  0
 31 30  2  0
 32 31  1  0
 32 27  2  0
 33 34  1  0
 34 39  2  0
 34 35  1  0
 35 36  2  0
 36 37  1  0
 37 41  1  0
 38 37  2  0
 39 38  1  0
 40 39  1  0
 42 43  1  0
 43 46  1  0
 43 45  1  0
 44 42  2  0
 47 22  1  0
 47 48  1  0
 49 47  1  0
 50  8  1  0
 50 52  2  0
 51 50  1  0
 53 51  1  0
 54 51  1  0
 55  3  1  0
 56 55  1  0
 57 56  1  0
 57 59  1  0
 58 57  1  0
 60 65  1  0
 60 57  1  0
 60 61  1  0
 61 62  1  0
 62 64  1  0
 62 63  1  0
 66 65  1  0
 66 68  1  0
 67 78  2  0
 68 73  1  0
 69 77  1  0
 69 79  1  0
 70 72  1  0
 70 76  1  0
 71 77  1  0
 72 71  1  0
 73 72  2  0
 74 68  2  0
 74 75  1  0
 75 70  2  0
 76 69  1  0
 77 67  1  0
 79 81  2  0
 80 79  1  0
 82 80  1  0
 83 92  2  0
 83 88  1  0
 84 80  1  0
 84 88  1  0
 85 84  1  0
 86 87  1  0
 86 85  1  0
 87 83  1  0
 88 89  2  0
 89 90  1  0
 91 90  2  0
 92 91  1  0
 93 67  1  0
 93 94  1  0
 93 98  1  0
 94 97  1  1
 94 95  1  0
 96 94  1  0
 98101  1  0
 99 98  1  0
 99103  1  0
100 99  2  0
103102  1  0
103105  1  0
105104  1  0
105106  1  0
M  ISO  4  12 100  20 100  65 101  66 101
M  END
>  <TORSDO>  (88) 
F 25

>  <SCORE>  (88) 
-9.701

>  <name>  (88) 
89

>  <ligand_id>  (88) 
89

>  <original_smiles>  (88) 
[H]c1c([H])c([H])c2c(c1[H])C([H])([H])C([H])([H])C([H])([H])C2([H])N([H])C(=O)C1([H])N(C(=O)C([H])(N([H])C(=O)C([H])(N([H])C([H])([H])[H])C([H])([H])[H])C(C([H])([H])[H])(C([H])([H])[H])C([H])([H])[H])C([H])([H])c2c([H])c(OC([H])([H])C([H])(C([H])([H])N([H])[H])[N+]([H])([H])C([H])([H])C([H])([H])N(C(=O)c3c([H])c(C([H])([H])[H])c(C(=O)N([H])[H])c([H])c3N([H])C(=O)N3C([H])([H])C([H])([H])C([H])([H])C([H])(n4nc(-c5c([H])c([H])c(Oc6c([H])c([H])c(F)c([H])c6F)c([H])c5[H])c(C(=O)N([H])[H])c4N([H])[H])C3([H])[H])C([H])([H])[H])c([H])c([H])c2C1([H])[H]

>  <smiles>  (88) 
[H]c1c([H])c([H])c2c(c1[H])C([H])([H])C([H])([H])C([H])([H])C2([H])N([H])C(=O)C1([H])N(C(=O)C([H])(N([H])C(=O)C([H])(N([H])C([H])([H])[H])C([H])([H])[H])C(C([H])([H])[H])(C([H])([H])[H])C([H])([H])[H])C([H])([H])c2c([H])c(OC([H])([H])C([H])(C([H])([H])N([H])[H])[N+]([H])([H])C([H])([H])C([H])([H])N(C(=O)c3c([H])c(C([H])([H])[H])c(C(=O)N([H])[H])c([H])c3N([H])C(=O)N3C([H])([H])C([H])([H])C([H])([H])C([H])(n4nc(-c5c([H])c([H])c(Oc6c([H])c([H])c(F)c([H])c6F)c([H])c5[H])c(C(=O)N([H])[H])c4N([H])[H])C3([H])[H])C([H])([H])[H])c([H])c([H])c2C1([H])[H]

$$$$
90:0:0
     RDKit          3D

 93101  0  0  1  0  0  0  0  0999 V2000
  -29.0600  -23.3400   20.3940 C   0  0  0  0  0  3  0  0  0  0  0  0
  -29.5950  -23.4830   21.7640 N   0  0  0  0  0  4  0  0  0  0  0  0
  -28.8560  -23.4640   22.4470 H   0  0  0  0  0  0  0  0  0  0  0  0
  -30.0900  -24.3530   21.8620 H   0  0  0  0  0  0  0  0  0  0  0  0
  -30.2250  -22.7310   21.9800 H   0  0  0  0  0  0  0  0  0  0  0  0
  -28.5830  -21.7050   20.3010 C   0  0  0  0  0  0  0  0  0  0  0  0
  -27.3690  -21.4960   20.3100 O   0  0  0  0  0  0  0  0  0  0  0  0
  -31.8230  -19.5050   19.9830 C   0  0  0  0  0  3  0  0  0  0  0  0
  -30.9090  -20.5850   20.0480 C   0  0  0  0  0  3  0  0  0  0  0  0
  -31.4320  -18.1530   20.1250 C   0  0  0  0  0  3  0  0  0  0  0  0
  -29.1630  -18.9330   20.3910 C   0  0  0  0  0  3  0  0  0  0  0  0
  -29.5310  -20.3810   20.2650 C   0  0  0  0  0  0  0  0  0  0  0  0
  -30.0890  -17.7580   20.3310 C   0  0  0  0  0  0  0  0  0  0  0  0
  -30.5260  -15.0350   20.3200 C   0  0  0  0  0  0  0  0  0  0  0  0
  -30.3890  -12.6800   19.3810 C   0  0  0  0  0  2  0  0  0  0  0  0
  -29.4620  -12.6450   18.1470 C   0  0  0  0  0  2  0  0  0  0  0  0
  -27.9950  -12.4360   18.5730 C   0  0  0  0  0  2  0  0  0  0  0  0
  -27.5900  -13.3400   19.7650 C   0  0  0  0  0  3  0  0  0  0  0  0
  -28.6490  -13.3590   20.8870 C   0  0  0  0  0  2  0  0  0  0  0  0
  -29.9150  -13.7780   20.2720 N   0  0  0  0  0  0  0  0  0  0  0  0
  -31.7330  -15.0550   20.0510 O   0  0  0  0  0  0  0  0  0  0  0  0
  -29.7680  -16.2460   20.4550 N   0  0  0  0  0  0  0  0  0  0  0  0
  -28.7940  -16.0550   20.6370 H   0  0  0  0  0  0  0  0  0  0  0  0
  -25.2050  -13.8970   20.5060 C   0  0  0  0  0  0  0  0  0  0  0  0
  -24.1450  -13.1160   20.8760 C   0  0  0  0  0  0  0  0  0  0  0  0
  -24.6180  -11.7670   20.8440 C   0  0  0  0  0  0  0  0  0  0  0  0
  -26.2550  -13.0260   20.2660 N   0  0  0  0  0  0  0  0  0  0  0  0
  -25.9110  -11.7400   20.5340 N   0  0  0  0  0  0  0  0  0  0  0  0
  -23.8980  -10.5010   21.0320 C   0  0  0  0  0  0  0  0  0  0  0  0
  -24.3260   -9.5400   21.9720 C   0  0  0  0  0  3  0  0  0  0  0  0
  -23.6050   -8.3390   22.1480 C   0  0  0  0  0  3  0  0  0  0  0  0
  -22.4390   -8.0940   21.3860 C   0  0  0  0  0  0  0  0  0  0  0  0
  -22.0300   -9.0450   20.4350 C   0  0  0  0  0  3  0  0  0  0  0  0
  -22.7510  -10.2370   20.2560 C   0  0  0  0  0  3  0  0  0  0  0  0
  -21.6890   -6.9460   21.4720 O   0  0  0  0  0  0  0  0  0  0  0  0
  -21.6260   -6.2120   22.6280 C   0  0  0  0  0  0  0  0  0  0  0  0
  -21.1650   -6.7690   23.8410 C   0  0  0  0  0  3  0  0  0  0  0  0
  -21.0490   -5.9610   24.9900 C   0  0  0  0  0  3  0  0  0  0  0  0
  -21.3860   -4.5960   24.9270 C   0  0  0  0  0  0  0  0  0  0  0  0
  -21.8390   -4.0370   23.7180 C   0  0  0  0  0  3  0  0  0  0  0  0
  -21.9560   -4.8420   22.5720 C   0  0  0  0  0  0  0  0  0  0  0  0
  -22.3730   -4.2920   21.4060 F   0  0  0  0  0  0  0  0  0  0  0  0
  -21.2670   -3.8180   26.0280 F   0  0  0  0  0  0  0  0  0  0  0  0
  -22.7440  -13.5880   21.1400 C   0  0  0  0  0  0  0  0  0  0  0  0
  -22.0110  -12.8970   22.0050 N   0  0  0  0  0  0  0  0  0  0  0  0
  -22.3060  -14.6090   20.6140 O   0  0  0  0  0  0  0  0  0  0  0  0
  -22.3750  -12.0730   22.4630 H   0  0  0  0  0  0  0  0  0  0  0  0
  -21.0730  -13.2020   22.2180 H   0  0  0  0  0  0  0  0  0  0  0  0
  -25.3620  -15.2700   20.3230 N   0  0  0  0  0  0  0  0  0  0  0  0
  -24.5890  -15.9190   20.4200 H   0  0  0  0  0  0  0  0  0  0  0  0
  -26.1960  -15.7030   19.9500 H   0  0  0  0  0  0  0  0  0  0  0  0
  -28.0200  -24.6490   20.0810 C   0  0  0  0  0  2  0  0  0  0  0  0
  -28.2730  -26.1890   20.2780 O   0  0  0  0  0  0  0  0  0  0  0  0
  -24.6360  -31.8800   23.2780 C   0  0  0  0  0  0  0  0  0  0  0  0
  -27.2130  -27.1760   20.2140 C   0  0  0  0  0  0  0  0  0  0  0  0
  -23.4340  -30.4970   21.6280 C   0  0  0  0  0  3  0  0  0  0  0  0
  -24.8820  -28.9280   20.1950 C   0  0  0  0  0  0  0  0  0  0  0  0
  -25.9890  -30.7610   21.4640 C   0  0  0  0  0  2  0  0  0  0  0  0
  -26.0630  -29.3710   20.8020 C   0  0  0  0  0  0  0  0  0  0  0  0
  -27.2280  -28.5120   20.7920 C   0  0  0  0  0  3  0  0  0  0  0  0
  -26.0000  -26.8360   19.5720 C   0  0  0  0  0  3  0  0  0  0  0  0
  -24.8640  -27.6750   19.5640 C   0  0  0  0  0  3  0  0  0  0  0  0
  -23.6550  -29.8240   20.2460 C   0  0  0  0  0  2  0  0  0  0  0  0
  -24.7060  -31.0680   22.1780 N   0  0  0  0  0  0  0  0  0  0  0  0
  -23.5520  -32.1620   23.8090 O   0  0  0  0  0  0  0  0  0  0  0  0
  -22.7500  -29.4880   22.5850 C   0  0  0  0  0  0  0  0  0  0  0  0
  -21.4240  -29.3160   22.4520 N   0  0  0  0  0  0  0  0  0  0  0  0
  -23.4190  -28.8620   23.4120 O   0  0  0  0  0  0  0  0  0  0  0  0
  -20.9420  -29.8680   21.7560 H   0  0  0  0  0  0  0  0  0  0  0  0
  -18.0460  -28.0990   22.9310 C   0  0  0  0  0  0  0  0  0  0  0  0
  -20.6010  -28.3760   23.2180 C   0  0  0  0  0  3  0  0  0  0  0  0
  -20.7160  -26.9450   22.6430 C   0  0  0  0  0  2  0  0  0  0  0  0
  -19.6250  -26.6160   21.6200 C   0  0  0  0  0  2  0  0  0  0  0  0
  -18.2370  -26.7520   22.2530 C   0  0  0  0  0  2  0  0  0  0  0  0
  -19.1570  -28.8680   23.3690 C   0  0  0  0  0  0  0  0  0  0  0  0
  -18.9250  -30.1260   23.9650 C   0  0  0  0  0  3  0  0  0  0  0  0
  -17.6160  -30.6190   24.1240 C   0  0  0  0  0  3  0  0  0  0  0  0
  -16.5190  -29.8470   23.7020 C   0  0  0  0  0  3  0  0  0  0  0  0
  -16.7350  -28.5890   23.1110 C   0  0  0  0  0  3  0  0  0  0  0  0
  -25.9150  -32.5110   23.9070 C   0  0  0  0  0  3  0  0  0  0  0  0
  -26.4180  -31.7350   25.1880 C   0  0  1  0  0  0  0  0  0  0  0  0
  -25.3180  -31.5020   26.2500 C   0  0  0  0  0  1  0  0  0  0  0  0
  -26.9950  -30.3530   24.8040 C   0  0  0  0  0  1  0  0  0  0  0  0
  -27.5700  -32.5210   25.8570 C   0  0  0  0  0  1  0  0  0  0  0  0
  -25.6060  -33.9090   24.2470 N   0  0  0  0  0  0  0  0  0  0  0  0
  -25.9180  -34.9680   23.4860 C   0  0  0  0  0  0  0  0  0  0  0  0
  -26.5610  -34.8690   22.4390 O   0  0  0  0  0  0  0  0  0  0  0  0
  -25.0300  -34.0540   25.0620 H   0  0  0  0  0  0  0  0  0  0  0  0
  -24.1670  -36.7540   23.2020 C   0  0  0  0  0  1  0  0  0  0  0  0
  -25.4420  -36.3560   23.9610 C   0  0  0  0  0  3  0  0  0  0  0  0
  -27.6010  -37.2610   24.7020 C   0  0  0  0  0  1  0  0  0  0  0  0
  -26.4610  -37.4160   23.8030 N   0  0  0  0  0  0  0  0  0  0  0  0
  -26.0550  -38.3330   23.9610 H   0  0  0  0  0  0  0  0  0  0  0  0
  1 52  1  0
  1  2  1  0
  2  4  1  0
  2  5  1  0
  2  3  1  0
  6  7  2  0
  6  1  1  0
  8  9  2  0
  8 10  1  0
  9 12  1  0
 10 13  2  0
 12  6  1  0
 12 11  2  0
 13 11  1  0
 13 22  1  0
 14 22  1  0
 15 20  1  0
 16 17  1  0
 16 15  1  0
 18 17  1  0
 18 27  1  0
 18 19  1  0
 20 14  1  0
 20 19  1  0
 21 14  2  0
 22 23  1  0
 24 25  2  0
 25 44  1  0
 26 25  1  0
 26 29  1  0
 27 24  1  0
 27 28  1  0
 28 26  2  0
 29 30  1  0
 30 31  2  0
 32 35  1  0
 32 31  1  0
 33 32  2  0
 34 33  1  0
 34 29  2  0
 35 36  1  0
 36 37  1  0
 37 38  2  0
 39 38  1  0
 39 43  1  0
 40 39  2  0
 41 36  2  0
 41 40  1  0
 42 41  1  0
 44 45  1  0
 45 48  1  0
 45 47  1  0
 46 44  2  0
 49 50  1  0
 49 24  1  0
 51 49  1  0
 52 53  1  0
 54 65  2  0
 55 53  1  0
 55 60  1  0
 56 64  1  0
 56 66  1  0
 57 63  1  0
 57 59  1  0
 58 64  1  0
 59 58  1  0
 60 59  2  0
 61 55  2  0
 62 61  1  0
 62 57  2  0
 63 56  1  0
 64 54  1  0
 66 68  2  0
 67 66  1  0
 69 67  1  0
 70 79  2  0
 70 75  1  0
 71 67  1  0
 71 75  1  0
 72 71  1  0
 73 74  1  0
 73 72  1  0
 74 70  1  0
 75 76  2  0
 76 77  1  0
 78 77  2  0
 79 78  1  0
 80 54  1  0
 80 85  1  0
 80 81  1  0
 81 84  1  1
 81 82  1  0
 83 81  1  0
 85 88  1  0
 86 90  1  0
 86 85  1  0
 87 86  2  0
 90 89  1  0
 92 90  1  0
 92 93  1  0
 92 91  1  0
M  ISO  4  14 100  22 100  52 101  53 101
M  END
>  <TORSDO>  (89) 
F 20

>  <SCORE>  (89) 
-15.255

>  <name>  (89) 
90

>  <ligand_id>  (89) 
90

>  <original_smiles>  (89) 
[H]c1c([H])c(C(=O)C([H])(C([H])([H])Oc2c([H])c([H])c3c(c2[H])C([H])([H])N(C(=O)C([H])(N([H])C(=O)C([H])(N([H])C([H])([H])[H])C([H])([H])[H])C(C([H])([H])[H])(C([H])([H])[H])C([H])([H])[H])C([H])(C(=O)N([H])C2([H])c4c([H])c([H])c([H])c([H])c4C([H])([H])C([H])([H])C2([H])[H])C3([H])[H])[N+]([H])([H])[H])c([H])c(N([H])C(=O)N2C([H])([H])C([H])([H])C([H])([H])C([H])(n3nc(-c4c([H])c([H])c(Oc5c([H])c([H])c(F)c([H])c5F)c([H])c4[H])c(C(=O)N([H])[H])c3N([H])[H])C2([H])[H])c1[H]

>  <smiles>  (89) 
[H]c1c([H])c(C(=O)C([H])(C([H])([H])Oc2c([H])c([H])c3c(c2[H])C([H])([H])N(C(=O)C([H])(N([H])C(=O)C([H])(N([H])C([H])([H])[H])C([H])([H])[H])C(C([H])([H])[H])(C([H])([H])[H])C([H])([H])[H])C([H])(C(=O)N([H])C2([H])c4c([H])c([H])c([H])c([H])c4C([H])([H])C([H])([H])C2([H])[H])C3([H])[H])[N+]([H])([H])[H])c([H])c(N([H])C(=O)N2C([H])([H])C([H])([H])C([H])([H])C([H])(n3nc(-c4c([H])c([H])c(Oc5c([H])c([H])c(F)c([H])c5F)c([H])c4[H])c(C(=O)N([H])[H])c3N([H])[H])C2([H])[H])c1[H]

$$$$
91:0:0
     RDKit          3D

 94103  0  0  1  0  0  0  0  0999 V2000
  -30.4330  -23.1900   21.4420 C   0  0  0  0  0  3  0  0  0  0  0  0
  -30.1960  -21.9900   20.7420 C   0  0  0  0  0  3  0  0  0  0  0  0
  -29.9410  -24.4120   20.9430 C   0  0  0  0  0  3  0  0  0  0  0  0
  -28.9380  -23.2310   19.0640 C   0  0  0  0  0  3  0  0  0  0  0  0
  -29.4370  -21.9940   19.5460 C   0  0  0  0  0  0  0  0  0  0  0  0
  -29.1990  -24.4430   19.7440 C   0  0  0  0  0  0  0  0  0  0  0  0
  -29.2090  -20.7500   18.7380 C   0  0  0  0  0  0  0  0  0  0  0  0
  -28.8000  -20.8200   17.5720 O   0  0  0  0  0  0  0  0  0  0  0  0
  -29.0500  -19.0310   20.6110 C   0  0  0  0  0  3  0  0  0  0  0  0
  -30.2130  -18.4660   18.5500 C   0  0  0  0  0  3  0  0  0  0  0  0
  -29.2770  -17.7250   21.0950 C   0  0  0  0  0  3  0  0  0  0  0  0
  -30.4420  -17.1640   19.0340 C   0  0  0  0  0  3  0  0  0  0  0  0
  -29.5130  -19.4120   19.3290 C   0  0  0  0  0  0  0  0  0  0  0  0
  -29.9690  -16.7760   20.3140 C   0  0  0  0  0  0  0  0  0  0  0  0
  -30.7810  -14.4390   20.2590 C   0  0  0  0  0  0  0  0  0  0  0  0
  -30.4280  -12.3080   19.0950 C   0  0  0  0  0  2  0  0  0  0  0  0
  -29.4710  -12.5830   17.9160 C   0  0  0  0  0  2  0  0  0  0  0  0
  -28.0000  -12.4740   18.3680 C   0  0  0  0  0  2  0  0  0  0  0  0
  -27.7080  -13.2730   19.6660 C   0  0  0  0  0  3  0  0  0  0  0  0
  -28.7800  -12.9880   20.7450 C   0  0  0  0  0  2  0  0  0  0  0  0
  -30.1030  -13.2660   20.1630 N   0  0  0  0  0  0  0  0  0  0  0  0
  -31.9020  -14.6190   19.7720 O   0  0  0  0  0  0  0  0  0  0  0  0
  -30.0840  -15.4460   20.8120 N   0  0  0  0  0  0  0  0  0  0  0  0
  -29.3290  -15.1490   21.4110 H   0  0  0  0  0  0  0  0  0  0  0  0
  -25.3240  -13.9020   20.4070 C   0  0  0  0  0  0  0  0  0  0  0  0
  -24.2550  -13.1380   20.7960 C   0  0  0  0  0  0  0  0  0  0  0  0
  -24.7040  -11.7830   20.7570 C   0  0  0  0  0  0  0  0  0  0  0  0
  -26.3580  -13.0120   20.1630 N   0  0  0  0  0  0  0  0  0  0  0  0
  -25.9890  -11.7330   20.4290 N   0  0  0  0  0  0  0  0  0  0  0  0
  -23.9720  -10.5270   20.9630 C   0  0  0  0  0  0  0  0  0  0  0  0
  -24.4140   -9.5590   21.8930 C   0  0  0  0  0  3  0  0  0  0  0  0
  -23.6850   -8.3660   22.0870 C   0  0  0  0  0  3  0  0  0  0  0  0
  -22.4970   -8.1330   21.3530 C   0  0  0  0  0  0  0  0  0  0  0  0
  -22.0720   -9.0900   20.4150 C   0  0  0  0  0  3  0  0  0  0  0  0
  -22.8010  -10.2750   20.2190 C   0  0  0  0  0  3  0  0  0  0  0  0
  -21.7360   -6.9940   21.4580 O   0  0  0  0  0  0  0  0  0  0  0  0
  -21.7010   -6.2560   22.6140 C   0  0  0  0  0  0  0  0  0  0  0  0
  -21.3050   -6.8190   23.8470 C   0  0  0  0  0  3  0  0  0  0  0  0
  -21.2160   -6.0070   24.9950 C   0  0  0  0  0  3  0  0  0  0  0  0
  -21.5120   -4.6320   24.9110 C   0  0  0  0  0  0  0  0  0  0  0  0
  -21.8990   -4.0690   23.6820 C   0  0  0  0  0  3  0  0  0  0  0  0
  -21.9920   -4.8790   22.5370 C   0  0  0  0  0  0  0  0  0  0  0  0
  -22.3450   -4.3260   21.3520 F   0  0  0  0  0  0  0  0  0  0  0  0
  -21.4200   -3.8510   26.0120 F   0  0  0  0  0  0  0  0  0  0  0  0
  -22.8670  -13.6260   21.0940 C   0  0  0  0  0  0  0  0  0  0  0  0
  -22.1490  -12.9370   21.9750 N   0  0  0  0  0  0  0  0  0  0  0  0
  -22.4260  -14.6540   20.5790 O   0  0  0  0  0  0  0  0  0  0  0  0
  -22.5160  -12.1070   22.4140 H   0  0  0  0  0  0  0  0  0  0  0  0
  -21.2190  -13.2480   22.2150 H   0  0  0  0  0  0  0  0  0  0  0  0
  -25.4980  -15.2710   20.2250 N   0  0  0  0  0  0  0  0  0  0  0  0
  -24.7440  -15.9350   20.3550 H   0  0  0  0  0  0  0  0  0  0  0  0
  -26.3590  -15.7010   19.9100 H   0  0  0  0  0  0  0  0  0  0  0  0
  -28.7740  -25.7720   19.1310 C   0  0  0  0  0  2  0  0  0  0  0  0
  -28.4800  -26.7820   20.1030 O   0  0  0  0  0  0  0  0  0  0  0  0
  -24.5890  -31.8690   23.1700 C   0  0  0  0  0  0  0  0  0  0  0  0
  -27.2760  -27.4560   20.0780 C   0  0  0  0  0  0  0  0  0  0  0  0
  -23.3960  -30.4660   21.5200 C   0  0  0  0  0  3  0  0  0  0  0  0
  -24.8630  -28.9390   20.1000 C   0  0  0  0  0  0  0  0  0  0  0  0
  -25.9200  -30.8400   21.3320 C   0  0  0  0  0  2  0  0  0  0  0  0
  -26.0150  -29.4720   20.6880 C   0  0  0  0  0  0  0  0  0  0  0  0
  -27.2190  -28.7360   20.6770 C   0  0  0  0  0  3  0  0  0  0  0  0
  -26.0910  -26.9210   19.5160 C   0  0  0  0  0  3  0  0  0  0  0  0
  -24.8940  -27.6610   19.5160 C   0  0  0  0  0  3  0  0  0  0  0  0
  -23.6160  -29.7910   20.1400 C   0  0  0  0  0  2  0  0  0  0  0  0
  -24.6520  -31.0730   22.0660 N   0  0  0  0  0  0  0  0  0  0  0  0
  -23.5040  -32.1370   23.7060 O   0  0  0  0  0  0  0  0  0  0  0  0
  -22.7450  -29.4400   22.4740 C   0  0  0  0  0  0  0  0  0  0  0  0
  -21.4200  -29.2660   22.3520 N   0  0  0  0  0  0  0  0  0  0  0  0
  -23.4300  -28.8040   23.2810 O   0  0  0  0  0  0  0  0  0  0  0  0
  -20.9310  -29.8280   21.6690 H   0  0  0  0  0  0  0  0  0  0  0  0
  -18.0390  -28.0980   22.8610 C   0  0  0  0  0  0  0  0  0  0  0  0
  -20.6010  -28.3260   23.1170 C   0  0  0  0  0  3  0  0  0  0  0  0
  -20.6860  -26.9030   22.5200 C   0  0  0  0  0  2  0  0  0  0  0  0
  -19.5710  -26.6030   21.5120 C   0  0  0  0  0  2  0  0  0  0  0  0
  -18.1970  -26.7540   22.1700 C   0  0  0  0  0  2  0  0  0  0  0  0
  -19.1690  -28.8420   23.2920 C   0  0  0  0  0  0  0  0  0  0  0  0
  -18.9680  -30.1010   23.8990 C   0  0  0  0  0  3  0  0  0  0  0  0
  -17.6700  -30.6140   24.0810 C   0  0  0  0  0  3  0  0  0  0  0  0
  -16.5560  -29.8660   23.6670 C   0  0  0  0  0  3  0  0  0  0  0  0
  -16.7400  -28.6100   23.0610 C   0  0  0  0  0  3  0  0  0  0  0  0
  -25.8700  -32.5020   23.7980 C   0  0  0  0  0  3  0  0  0  0  0  0
  -26.3960  -31.7160   25.0620 C   0  0  1  0  0  0  0  0  0  0  0  0
  -25.3090  -31.4580   26.1300 C   0  0  0  0  0  1  0  0  0  0  0  0
  -26.9880  -30.3470   24.6490 C   0  0  0  0  0  1  0  0  0  0  0  0
  -27.5390  -32.5120   25.7350 C   0  0  0  0  0  1  0  0  0  0  0  0
  -25.5510  -33.8930   24.1440 N   0  0  0  0  0  0  0  0  0  0  0  0
  -25.8750  -34.9570   23.3970 C   0  0  0  0  0  0  0  0  0  0  0  0
  -26.5490  -34.8700   22.3670 O   0  0  0  0  0  0  0  0  0  0  0  0
  -24.9510  -34.0330   24.9440 H   0  0  0  0  0  0  0  0  0  0  0  0
  -24.1330  -36.7390   23.0570 C   0  0  0  0  0  1  0  0  0  0  0  0
  -25.3730  -36.3360   23.8680 C   0  0  0  0  0  3  0  0  0  0  0  0
  -27.4990  -37.2260   24.7150 C   0  0  0  0  0  1  0  0  0  0  0  0
  -26.3970  -37.3990   23.7730 N   0  0  0  0  0  0  0  0  0  0  0  0
  -25.9820  -38.3130   23.9330 H   0  0  0  0  0  0  0  0  0  0  0  0
  2  1  2  0
  3  1  1  0
  4  5  2  0
  4  6  1  0
  5  2  1  0
  6  3  2  0
  7 13  1  0
  7  5  1  0
  8  7  2  0
  9 11  1  0
 10 12  2  0
 10 13  1  0
 12 14  1  0
 13  9  2  0
 14 23  1  0
 14 11  2  0
 15 23  1  0
 16 21  1  0
 17 18  1  0
 17 16  1  0
 19 18  1  0
 19 28  1  0
 19 20  1  0
 21 15  1  0
 21 20  1  0
 22 15  2  0
 23 24  1  0
 25 26  2  0
 26 45  1  0
 27 26  1  0
 27 30  1  0
 28 25  1  0
 28 29  1  0
 29 27  2  0
 30 31  1  0
 31 32  2  0
 33 36  1  0
 33 32  1  0
 34 33  2  0
 35 34  1  0
 35 30  2  0
 36 37  1  0
 37 38  1  0
 38 39  2  0
 40 39  1  0
 40 44  1  0
 41 40  2  0
 42 37  2  0
 42 41  1  0
 43 42  1  0
 45 46  1  0
 46 49  1  0
 46 48  1  0
 47 45  2  0
 50 51  1  0
 50 25  1  0
 52 50  1  0
 53  6  1  0
 53 54  1  0
 55 66  2  0
 56 54  1  0
 56 61  1  0
 57 65  1  0
 57 67  1  0
 58 64  1  0
 58 60  1  0
 59 65  1  0
 60 59  1  0
 61 60  2  0
 62 63  1  0
 62 56  2  0
 63 58  2  0
 64 57  1  0
 65 55  1  0
 67 69  2  0
 68 67  1  0
 70 68  1  0
 71 80  2  0
 71 76  1  0
 72 68  1  0
 72 76  1  0
 73 72  1  0
 74 75  1  0
 74 73  1  0
 75 71  1  0
 76 77  2  0
 77 78  1  0
 79 78  2  0
 80 79  1  0
 81 55  1  0
 81 86  1  0
 81 82  1  0
 82 85  1  1
 82 83  1  0
 84 82  1  0
 86 89  1  0
 87 91  1  0
 87 86  1  0
 88 87  2  0
 91 90  1  0
 93 91  1  0
 93 94  1  0
 93 92  1  0
M  ISO  4  15 100  23 100  53 101  54 101
M  END
>  <TORSDO>  (90) 
F 19

>  <SCORE>  (90) 
-14.376

>  <name>  (90) 
91

>  <ligand_id>  (90) 
91

>  <original_smiles>  (90) 
[H]c1c([H])c(C(=O)c2c([H])c([H])c(N([H])C(=O)N3C([H])([H])C([H])([H])C([H])([H])C([H])(n4nc(-c5c([H])c([H])c(Oc6c([H])c([H])c(F)c([H])c6F)c([H])c5[H])c(C(=O)N([H])[H])c4N([H])[H])C3([H])[H])c([H])c2[H])c([H])c(C([H])([H])Oc2c([H])c([H])c3c(c2[H])C([H])([H])N(C(=O)C([H])(N([H])C(=O)C([H])(N([H])C([H])([H])[H])C([H])([H])[H])C(C([H])([H])[H])(C([H])([H])[H])C([H])([H])[H])C([H])(C(=O)N([H])C2([H])c4c([H])c([H])c([H])c([H])c4C([H])([H])C([H])([H])C2([H])[H])C3([H])[H])c1[H]

>  <smiles>  (90) 
[H]c1c([H])c(C(=O)c2c([H])c([H])c(N([H])C(=O)N3C([H])([H])C([H])([H])C([H])([H])C([H])(n4nc(-c5c([H])c([H])c(Oc6c([H])c([H])c(F)c([H])c6F)c([H])c5[H])c(C(=O)N([H])[H])c4N([H])[H])C3([H])[H])c([H])c2[H])c([H])c(C([H])([H])Oc2c([H])c([H])c3c(c2[H])C([H])([H])N(C(=O)C([H])(N([H])C(=O)C([H])(N([H])C([H])([H])[H])C([H])([H])[H])C(C([H])([H])[H])(C([H])([H])[H])C([H])([H])[H])C([H])(C(=O)N([H])C2([H])c4c([H])c([H])c([H])c([H])c4C([H])([H])C([H])([H])C2([H])[H])C3([H])[H])c1[H]

$$$$
92:0:0
     RDKit          3D

 96104  0  0  1  0  0  0  0  0999 V2000
  -29.0660  -21.0390   18.9080 C   0  0  0  0  0  3  0  0  0  0  0  0
  -29.2790  -19.7680   18.3150 C   0  0  0  0  0  3  0  0  0  0  0  0
  -29.3460  -19.8940   21.0060 C   0  0  0  0  0  3  0  0  0  0  0  0
  -29.0910  -21.2650   20.2940 C   0  0  0  0  0  0  0  0  0  0  0  0
  -29.5420  -18.5360   18.9930 C   0  0  0  0  0  0  0  0  0  0  0  0
  -29.5960  -18.4620   20.4250 C   0  0  0  0  0  0  0  0  0  0  0  0
  -30.5290  -15.7050   21.0030 C   0  0  0  0  0  0  0  0  0  0  0  0
  -30.7290  -13.1890   20.3430 C   0  0  0  0  0  2  0  0  0  0  0  0
  -29.9990  -12.8500   19.0160 C   0  0  0  0  0  2  0  0  0  0  0  0
  -28.5150  -12.5400   19.2670 C   0  0  0  0  0  2  0  0  0  0  0  0
  -27.8800  -13.5440   20.2620 C   0  0  0  0  0  3  0  0  0  0  0  0
  -28.7580  -13.8200   21.5020 C   0  0  0  0  0  2  0  0  0  0  0  0
  -30.0380  -14.3570   21.0140 N   0  0  0  0  0  0  0  0  0  0  0  0
  -31.7600  -15.7380   20.8580 O   0  0  0  0  0  0  0  0  0  0  0  0
  -29.7100  -16.9600   21.0910 N   0  0  0  0  0  0  0  0  0  0  0  0
  -28.8380  -16.7210   21.5390 H   0  0  0  0  0  0  0  0  0  0  0  0
  -25.4320  -14.0450   20.7490 C   0  0  0  0  0  0  0  0  0  0  0  0
  -24.3550  -13.2440   21.0090 C   0  0  0  0  0  0  0  0  0  0  0  0
  -24.8550  -11.9050   21.0390 C   0  0  0  0  0  0  0  0  0  0  0  0
  -26.5140  -13.1920   20.6220 N   0  0  0  0  0  0  0  0  0  0  0  0
  -26.1750  -11.9010   20.8720 N   0  0  0  0  0  0  0  0  0  0  0  0
  -24.1410  -10.6270   21.1630 C   0  0  0  0  0  0  0  0  0  0  0  0
  -24.4880   -9.6780   22.1510 C   0  0  0  0  0  3  0  0  0  0  0  0
  -23.7730   -8.4670   22.2630 C   0  0  0  0  0  3  0  0  0  0  0  0
  -22.6960   -8.1950   21.3850 C   0  0  0  0  0  0  0  0  0  0  0  0
  -22.3700   -9.1300   20.3880 C   0  0  0  0  0  3  0  0  0  0  0  0
  -23.0850  -10.3350   20.2750 C   0  0  0  0  0  3  0  0  0  0  0  0
  -21.9610   -7.0340   21.4020 O   0  0  0  0  0  0  0  0  0  0  0  0
  -21.7890   -6.3050   22.5520 C   0  0  0  0  0  0  0  0  0  0  0  0
  -21.1890   -6.8610   23.7030 C   0  0  0  0  0  3  0  0  0  0  0  0
  -20.9760   -6.0600   24.8430 C   0  0  0  0  0  3  0  0  0  0  0  0
  -21.3460   -4.7010   24.8280 C   0  0  0  0  0  0  0  0  0  0  0  0
  -21.9340   -4.1430   23.6800 C   0  0  0  0  0  3  0  0  0  0  0  0
  -22.1540   -4.9440   22.5440 C   0  0  0  0  0  0  0  0  0  0  0  0
  -22.7040   -4.3970   21.4340 F   0  0  0  0  0  0  0  0  0  0  0  0
  -21.1300   -3.9290   25.9190 F   0  0  0  0  0  0  0  0  0  0  0  0
  -22.9260  -13.6880   21.1160 C   0  0  0  0  0  0  0  0  0  0  0  0
  -22.1220  -12.9850   21.9060 N   0  0  0  0  0  0  0  0  0  0  0  0
  -22.5270  -14.6960   20.5350 O   0  0  0  0  0  0  0  0  0  0  0  0
  -22.4500  -12.1670   22.3980 H   0  0  0  0  0  0  0  0  0  0  0  0
  -21.1580  -13.2670   22.0150 H   0  0  0  0  0  0  0  0  0  0  0  0
  -25.5870  -15.4190   20.5770 N   0  0  0  0  0  0  0  0  0  0  0  0
  -24.8030  -16.0630   20.5970 H   0  0  0  0  0  0  0  0  0  0  0  0
  -26.4520  -15.8540   20.2860 H   0  0  0  0  0  0  0  0  0  0  0  0
  -29.7120  -17.2930   18.1010 C   0  0  1  0  0  0  0  0  0  0  0  0
  -30.9710  -16.8630   18.1460 F   0  0  0  0  0  0  0  0  0  0  0  0
  -28.8920  -16.3130   18.4770 F   0  0  0  0  0  0  0  0  0  0  0  0
  -29.4370  -17.5340   16.8180 F   0  0  0  0  0  0  0  0  0  0  0  0
  -28.9750  -22.9820   20.7570 C   0  0  0  0  0  3  0  0  0  0  0  0
  -28.8230  -23.1020   22.2880 C   0  0  0  0  0  2  0  0  0  0  0  0
  -30.0460  -22.7170   23.0200 N   0  0  0  0  0  4  0  0  0  0  0  0
  -30.3300  -21.7840   22.7860 H   0  0  0  0  0  0  0  0  0  0  0  0
  -29.8860  -22.7630   24.0110 H   0  0  0  0  0  0  0  0  0  0  0  0
  -30.7970  -23.3490   22.8010 H   0  0  0  0  0  0  0  0  0  0  0  0
  -28.1470  -24.4610   20.0610 C   0  0  0  0  0  2  0  0  0  0  0  0
  -28.3200  -26.1140   20.2270 O   0  0  0  0  0  0  0  0  0  0  0  0
  -24.6850  -32.0170   23.2760 C   0  0  0  0  0  0  0  0  0  0  0  0
  -27.3050  -27.2190   20.1540 C   0  0  0  0  0  0  0  0  0  0  0  0
  -23.5160  -30.6460   21.5990 C   0  0  0  0  0  3  0  0  0  0  0  0
  -24.9900  -29.0930   20.1390 C   0  0  0  0  0  0  0  0  0  0  0  0
  -26.0800  -30.8870   21.4670 C   0  0  0  0  0  2  0  0  0  0  0  0
  -26.1700  -29.4900   20.7790 C   0  0  0  0  0  0  0  0  0  0  0  0
  -27.3200  -28.5750   20.7620 C   0  0  0  0  0  3  0  0  0  0  0  0
  -26.0970  -26.9830   19.4620 C   0  0  0  0  0  3  0  0  0  0  0  0
  -24.9820  -27.8640   19.4570 C   0  0  0  0  0  3  0  0  0  0  0  0
  -23.7580  -29.9960   20.2070 C   0  0  0  0  0  2  0  0  0  0  0  0
  -24.7830  -31.2110   22.1670 N   0  0  0  0  0  0  0  0  0  0  0  0
  -23.5900  -32.2810   23.7980 O   0  0  0  0  0  0  0  0  0  0  0  0
  -22.8270  -29.6230   22.5410 C   0  0  0  0  0  0  0  0  0  0  0  0
  -21.4990  -29.4480   22.4100 N   0  0  0  0  0  0  0  0  0  0  0  0
  -23.4980  -28.9830   23.3550 O   0  0  0  0  0  0  0  0  0  0  0  0
  -21.0100  -30.0170   21.7330 H   0  0  0  0  0  0  0  0  0  0  0  0
  -18.1290  -28.1870   22.8800 C   0  0  0  0  0  0  0  0  0  0  0  0
  -20.6840  -28.4820   23.1560 C   0  0  0  0  0  3  0  0  0  0  0  0
  -20.8070  -27.0650   22.5470 C   0  0  0  0  0  2  0  0  0  0  0  0
  -19.7120  -26.7540   21.5220 C   0  0  0  0  0  2  0  0  0  0  0  0
  -18.3260  -26.8610   22.1660 C   0  0  0  0  0  2  0  0  0  0  0  0
  -19.2350  -28.9570   23.3310 C   0  0  0  0  0  0  0  0  0  0  0  0
  -18.9940  -30.1960   23.9620 C   0  0  0  0  0  3  0  0  0  0  0  0
  -17.6800  -30.6660   24.1470 C   0  0  0  0  0  3  0  0  0  0  0  0
  -16.5890  -29.8960   23.7120 C   0  0  0  0  0  3  0  0  0  0  0  0
  -16.8140  -28.6580   23.0830 C   0  0  0  0  0  3  0  0  0  0  0  0
  -25.9450  -32.6620   23.9310 C   0  0  0  0  0  3  0  0  0  0  0  0
  -25.5970  -34.0370   24.3330 N   0  0  0  0  0  0  0  0  0  0  0  0
  -25.9510  -35.1450   23.6700 C   0  0  0  0  0  0  0  0  0  0  0  0
  -26.6670  -35.1180   22.6650 O   0  0  0  0  0  0  0  0  0  0  0  0
  -24.9660  -34.1290   25.1160 H   0  0  0  0  0  0  0  0  0  0  0  0
  -24.2520  -36.9760   23.3460 C   0  0  0  0  0  1  0  0  0  0  0  0
  -25.4350  -36.4970   24.2030 C   0  0  0  0  0  3  0  0  0  0  0  0
  -27.5070  -37.3110   25.2430 C   0  0  0  0  0  1  0  0  0  0  0  0
  -26.4710  -37.5520   24.2420 N   0  0  0  0  0  0  0  0  0  0  0  0
  -26.0530  -38.4590   24.4300 H   0  0  0  0  0  0  0  0  0  0  0  0
  -26.4760  -31.8510   25.1780 C   0  0  1  0  0  0  0  0  0  0  0  0
  -25.3890  -31.5520   26.2360 C   0  0  0  0  0  1  0  0  0  0  0  0
  -27.0880  -30.5010   24.7410 C   0  0  0  0  0  1  0  0  0  0  0  0
  -27.6110  -32.6420   25.8720 C   0  0  0  0  0  1  0  0  0  0  0  0
  1  4  1  0
  2  1  2  0
  2  5  1  0
  4 49  1  0
  4  3  2  0
  5  6  2  0
  6  3  1  0
  6 15  1  0
  7 13  1  0
  7 15  1  0
  8 13  1  0
  9 10  1  0
  9  8  1  0
 11 10  1  0
 11 20  1  0
 11 12  1  0
 13 12  1  0
 14  7  2  0
 15 16  1  0
 17 18  2  0
 18 19  1  0
 18 37  1  0
 19 22  1  0
 20 17  1  0
 20 21  1  0
 21 19  2  0
 22 23  1  0
 23 24  2  0
 25 28  1  0
 25 24  1  0
 26 25  2  0
 27 26  1  0
 27 22  2  0
 28 29  1  0
 29 30  1  0
 30 31  2  0
 32 31  1  0
 32 36  1  0
 33 32  2  0
 34 29  2  0
 34 33  1  0
 35 34  1  0
 37 38  1  0
 38 41  1  0
 38 40  1  0
 39 37  2  0
 42 43  1  0
 42 17  1  0
 44 42  1  0
 45 46  1  6
 45 47  1  0
 45  5  1  0
 48 45  1  0
 49 55  1  0
 49 50  1  0
 50 51  1  0
 51 53  1  0
 52 51  1  0
 54 51  1  0
 55 56  1  0
 57 68  2  0
 58 56  1  0
 58 63  1  0
 59 67  1  0
 59 69  1  0
 60 66  1  0
 60 62  1  0
 61 67  1  0
 62 61  1  0
 63 62  2  0
 64 58  2  0
 65 64  1  0
 65 60  2  0
 66 59  1  0
 67 57  1  0
 69 71  2  0
 70 69  1  0
 72 70  1  0
 73 82  2  0
 73 78  1  0
 74 70  1  0
 74 78  1  0
 75 74  1  0
 76 77  1  0
 76 75  1  0
 77 73  1  0
 78 79  2  0
 79 80  1  0
 81 80  2  0
 82 81  1  0
 83 57  1  0
 83 84  1  0
 83 93  1  0
 84 87  1  0
 85 89  1  0
 85 84  1  0
 86 85  2  0
 89 88  1  0
 89 91  1  0
 91 92  1  0
 91 90  1  0
 93 96  1  1
 93 94  1  0
 95 93  1  0
M  ISO  4   7 100  15 100  55 101  56 101
M  END
>  <TORSDO>  (91) 
F 21

>  <SCORE>  (91) 
-14.134

>  <name>  (91) 
92

>  <ligand_id>  (91) 
92

>  <original_smiles>  (91) 
[H]c1c([H])c([H])c2c(c1[H])C([H])([H])C([H])([H])C([H])([H])C2([H])N([H])C(=O)C1([H])N(C(=O)C([H])(N([H])C(=O)C([H])(N([H])C([H])([H])[H])C([H])([H])[H])C(C([H])([H])[H])(C([H])([H])[H])C([H])([H])[H])C([H])([H])c2c([H])c(OC([H])([H])C([H])(c3c([H])c([H])c(C(F)(F)F)c(N([H])C(=O)N4C([H])([H])C([H])([H])C([H])([H])C([H])(n5nc(-c6c([H])c([H])c(Oc7c([H])c([H])c(F)c([H])c7F)c([H])c6[H])c(C(=O)N([H])[H])c5N([H])[H])C4([H])[H])c3[H])C([H])([H])[N+]([H])([H])[H])c([H])c([H])c2C1([H])[H]

>  <smiles>  (91) 
[H]c1c([H])c([H])c2c(c1[H])C([H])([H])C([H])([H])C([H])([H])C2([H])N([H])C(=O)C1([H])N(C(=O)C([H])(N([H])C(=O)C([H])(N([H])C([H])([H])[H])C([H])([H])[H])C(C([H])([H])[H])(C([H])([H])[H])C([H])([H])[H])C([H])([H])c2c([H])c(OC([H])([H])C([H])(c3c([H])c([H])c(C(F)(F)F)c(N([H])C(=O)N4C([H])([H])C([H])([H])C([H])([H])C([H])(n5nc(-c6c([H])c([H])c(Oc7c([H])c([H])c(F)c([H])c7F)c([H])c6[H])c(C(=O)N([H])[H])c5N([H])[H])C4([H])[H])c3[H])C([H])([H])[N+]([H])([H])[H])c([H])c([H])c2C1([H])[H]

$$$$
93:0:0
     RDKit          3D

 99108  0  0  1  0  0  0  0  0999 V2000
  -28.3120  -24.4090   19.4470 C   0  0  0  0  0  0  0  0  0  0  0  0
  -28.3200  -20.8920   18.8750 C   0  0  0  0  0  2  0  0  0  0  0  0
  -28.0430  -21.3490   21.3320 C   0  0  0  0  0  2  0  0  0  0  0  0
  -27.5770  -22.2080   18.5800 C   0  0  0  0  0  2  0  0  0  0  0  0
  -27.3340  -22.6670   20.9780 C   0  0  0  0  0  2  0  0  0  0  0  0
  -27.8490  -20.3040   20.2220 C   0  0  0  0  0  3  0  0  0  0  0  0
  -27.7960  -23.1730   19.6720 N   0  0  0  0  0  0  0  0  0  0  0  0
  -28.7400  -24.7510   18.3370 O   0  0  0  0  0  0  0  0  0  0  0  0
  -29.7690  -18.6260   20.1540 C   0  0  0  0  0  3  0  0  0  0  0  0
  -30.3690  -17.3970   20.4790 C   0  0  0  0  0  3  0  0  0  0  0  0
  -28.4010  -16.7960   21.7720 C   0  0  0  0  0  3  0  0  0  0  0  0
  -27.7850  -18.0250   21.4520 C   0  0  0  0  0  0  0  0  0  0  0  0
  -28.4660  -18.9520   20.6060 C   0  0  0  0  0  0  0  0  0  0  0  0
  -29.6710  -16.4620   21.2690 C   0  0  0  0  0  0  0  0  0  0  0  0
  -30.7300  -14.3670   20.6580 C   0  0  0  0  0  0  0  0  0  0  0  0
  -30.4260  -12.2720   19.3970 C   0  0  0  0  0  2  0  0  0  0  0  0
  -29.4920  -12.5250   18.1960 C   0  0  0  0  0  2  0  0  0  0  0  0
  -28.0130  -12.3860   18.6070 C   0  0  0  0  0  2  0  0  0  0  0  0
  -27.6730  -13.1950   19.8860 C   0  0  0  0  0  3  0  0  0  0  0  0
  -28.7080  -12.9040   20.9960 C   0  0  0  0  0  2  0  0  0  0  0  0
  -30.0570  -13.2030   20.4710 N   0  0  0  0  0  0  0  0  0  0  0  0
  -31.7700  -14.6620   20.0570 O   0  0  0  0  0  0  0  0  0  0  0  0
  -30.1780  -15.1750   21.5710 N   0  0  0  0  0  0  0  0  0  0  0  0
  -29.5860  -14.6570   22.2010 H   0  0  0  0  0  0  0  0  0  0  0  0
  -25.2640  -13.8140   20.5650 C   0  0  0  0  0  0  0  0  0  0  0  0
  -24.1870  -13.0440   20.9160 C   0  0  0  0  0  0  0  0  0  0  0  0
  -24.6400  -11.6900   20.8720 C   0  0  0  0  0  0  0  0  0  0  0  0
  -26.3080  -12.9290   20.3390 N   0  0  0  0  0  0  0  0  0  0  0  0
  -25.9320  -11.6460   20.5750 N   0  0  0  0  0  0  0  0  0  0  0  0
  -23.9050  -10.4290   21.0400 C   0  0  0  0  0  0  0  0  0  0  0  0
  -24.3610   -9.4210   21.9180 C   0  0  0  0  0  3  0  0  0  0  0  0
  -23.6280   -8.2250   22.0760 C   0  0  0  0  0  3  0  0  0  0  0  0
  -22.4270   -8.0280   21.3550 C   0  0  0  0  0  0  0  0  0  0  0  0
  -21.9900   -9.0250   20.4650 C   0  0  0  0  0  3  0  0  0  0  0  0
  -22.7220  -10.2130   20.3060 C   0  0  0  0  0  3  0  0  0  0  0  0
  -21.6640   -6.8880   21.4240 O   0  0  0  0  0  0  0  0  0  0  0  0
  -21.6850   -6.0730   22.5280 C   0  0  0  0  0  0  0  0  0  0  0  0
  -21.4010   -6.5640   23.8210 C   0  0  0  0  0  3  0  0  0  0  0  0
  -21.3660   -5.6790   24.9170 C   0  0  0  0  0  3  0  0  0  0  0  0
  -21.6040   -4.3050   24.7230 C   0  0  0  0  0  0  0  0  0  0  0  0
  -21.8820   -3.8140   23.4350 C   0  0  0  0  0  3  0  0  0  0  0  0
  -21.9190   -4.6960   22.3400 C   0  0  0  0  0  0  0  0  0  0  0  0
  -22.1660   -4.2150   21.0980 F   0  0  0  0  0  0  0  0  0  0  0  0
  -21.5630   -3.4540   25.7740 F   0  0  0  0  0  0  0  0  0  0  0  0
  -22.7890  -13.5260   21.1830 C   0  0  0  0  0  0  0  0  0  0  0  0
  -22.0530  -12.8260   22.0390 N   0  0  0  0  0  0  0  0  0  0  0  0
  -22.3580  -14.5560   20.6680 O   0  0  0  0  0  0  0  0  0  0  0  0
  -22.4120  -11.9910   22.4770 H   0  0  0  0  0  0  0  0  0  0  0  0
  -21.1150  -13.1300   22.2590 H   0  0  0  0  0  0  0  0  0  0  0  0
  -25.4410  -15.1830   20.4040 N   0  0  0  0  0  0  0  0  0  0  0  0
  -24.6880  -15.8510   20.5300 H   0  0  0  0  0  0  0  0  0  0  0  0
  -26.3030  -15.6170   20.1010 H   0  0  0  0  0  0  0  0  0  0  0  0
  -26.4150  -18.2810   22.0200 C   0  0  0  0  0  0  0  0  0  0  0  0
  -26.3210  -18.1750   23.3380 N   0  0  0  0  0  0  0  0  0  0  0  0
  -25.4460  -18.5620   21.3190 O   0  0  0  0  0  0  0  0  0  0  0  0
  -27.1400  -17.9540   23.8840 H   0  0  0  0  0  0  0  0  0  0  0  0
  -25.4360  -18.3250   23.8000 H   0  0  0  0  0  0  0  0  0  0  0  0
  -28.3380  -25.4410   20.5900 C   0  0  0  0  0  2  0  0  0  0  0  0
  -28.4210  -26.7760   20.0830 O   0  0  0  0  0  0  0  0  0  0  0  0
  -24.6100  -31.8710   23.2130 C   0  0  0  0  0  0  0  0  0  0  0  0
  -27.2390  -27.4780   20.0840 C   0  0  0  0  0  0  0  0  0  0  0  0
  -23.3960  -30.4950   21.5530 C   0  0  0  0  0  3  0  0  0  0  0  0
  -24.8420  -28.9650   20.1160 C   0  0  0  0  0  0  0  0  0  0  0  0
  -25.9200  -30.8510   21.3580 C   0  0  0  0  0  2  0  0  0  0  0  0
  -26.0000  -29.4880   20.7050 C   0  0  0  0  0  0  0  0  0  0  0  0
  -27.2030  -28.7530   20.6830 C   0  0  0  0  0  3  0  0  0  0  0  0
  -26.0640  -26.9570   19.4960 C   0  0  0  0  0  3  0  0  0  0  0  0
  -24.8660  -27.6960   19.5110 C   0  0  0  0  0  3  0  0  0  0  0  0
  -23.6010  -29.8260   20.1680 C   0  0  0  0  0  2  0  0  0  0  0  0
  -24.6610  -31.0850   22.1010 N   0  0  0  0  0  0  0  0  0  0  0  0
  -23.5310  -32.1440   23.7550 O   0  0  0  0  0  0  0  0  0  0  0  0
  -22.7390  -29.4670   22.5020 C   0  0  0  0  0  0  0  0  0  0  0  0
  -21.4120  -29.3030   22.3750 N   0  0  0  0  0  0  0  0  0  0  0  0
  -23.4180  -28.8220   23.3040 O   0  0  0  0  0  0  0  0  0  0  0  0
  -20.9270  -29.8750   21.6980 H   0  0  0  0  0  0  0  0  0  0  0  0
  -18.0270  -28.1370   22.8500 C   0  0  0  0  0  0  0  0  0  0  0  0
  -20.5850  -28.3650   23.1340 C   0  0  0  0  0  3  0  0  0  0  0  0
  -20.6760  -26.9390   22.5420 C   0  0  0  0  0  2  0  0  0  0  0  0
  -19.5740  -26.6380   21.5210 C   0  0  0  0  0  2  0  0  0  0  0  0
  -18.1920  -26.7920   22.1630 C   0  0  0  0  0  2  0  0  0  0  0  0
  -19.1510  -28.8820   23.2910 C   0  0  0  0  0  0  0  0  0  0  0  0
  -18.9450  -30.1430   23.8920 C   0  0  0  0  0  3  0  0  0  0  0  0
  -17.6450  -30.6580   24.0560 C   0  0  0  0  0  3  0  0  0  0  0  0
  -16.5340  -29.9080   23.6320 C   0  0  0  0  0  3  0  0  0  0  0  0
  -16.7260  -28.6500   23.0350 C   0  0  0  0  0  3  0  0  0  0  0  0
  -25.9010  -32.4840   23.8410 C   0  0  0  0  0  3  0  0  0  0  0  0
  -26.4460  -31.6600   25.0720 C   0  0  1  0  0  0  0  0  0  0  0  0
  -25.3740  -31.3690   26.1480 C   0  0  0  0  0  1  0  0  0  0  0  0
  -27.0270  -30.3050   24.6050 C   0  0  0  0  0  1  0  0  0  0  0  0
  -27.6050  -32.4310   25.7470 C   0  0  0  0  0  1  0  0  0  0  0  0
  -25.5880  -33.8640   24.2350 N   0  0  0  0  0  0  0  0  0  0  0  0
  -25.9030  -34.9490   23.5140 C   0  0  0  0  0  0  0  0  0  0  0  0
  -26.5590  -34.8930   22.4700 O   0  0  0  0  0  0  0  0  0  0  0  0
  -25.0030  -33.9800   25.0490 H   0  0  0  0  0  0  0  0  0  0  0  0
  -24.1490  -36.7330   23.2640 C   0  0  0  0  0  1  0  0  0  0  0  0
  -25.4100  -36.3120   24.0340 C   0  0  0  0  0  3  0  0  0  0  0  0
  -27.5580  -37.1820   24.8460 C   0  0  0  0  0  1  0  0  0  0  0  0
  -26.4300  -37.3800   23.9410 N   0  0  0  0  0  0  0  0  0  0  0  0
  -26.0190  -38.2890   24.1390 H   0  0  0  0  0  0  0  0  0  0  0  0
  1  7  1  0
  1 58  1  0
  2  6  1  0
  4  2  1  0
  4  7  1  0
  5  3  1  0
  6 13  1  0
  6  3  1  0
  7  5  1  0
  8  1  2  0
  9 10  2  0
  9 13  1  0
 10 14  1  0
 12 11  1  0
 12 53  1  0
 13 12  2  0
 14 23  1  0
 14 11  2  0
 15 23  1  0
 16 21  1  0
 17 18  1  0
 17 16  1  0
 19 18  1  0
 19 28  1  0
 19 20  1  0
 21 15  1  0
 21 20  1  0
 22 15  2  0
 23 24  1  0
 25 26  2  0
 26 45  1  0
 27 26  1  0
 27 30  1  0
 28 25  1  0
 28 29  1  0
 29 27  2  0
 30 31  1  0
 31 32  2  0
 33 36  1  0
 33 32  1  0
 34 33  2  0
 35 34  1  0
 35 30  2  0
 36 37  1  0
 37 38  1  0
 38 39  2  0
 40 39  1  0
 40 44  1  0
 41 40  2  0
 42 37  2  0
 42 41  1  0
 43 42  1  0
 45 46  1  0
 46 49  1  0
 46 48  1  0
 47 45  2  0
 50 51  1  0
 50 25  1  0
 52 50  1  0
 53 54  1  0
 54 57  1  0
 54 56  1  0
 55 53  2  0
 59 61  1  0
 59 58  1  0
 60 71  2  0
 61 66  1  0
 62 70  1  0
 62 72  1  0
 63 69  1  0
 63 65  1  0
 64 70  1  0
 65 64  1  0
 66 65  2  0
 67 68  1  0
 67 61  2  0
 68 63  2  0
 69 62  1  0
 70 60  1  0
 72 74  2  0
 73 72  1  0
 75 73  1  0
 76 85  2  0
 76 81  1  0
 77 73  1  0
 77 81  1  0
 78 77  1  0
 79 80  1  0
 79 78  1  0
 80 76  1  0
 81 82  2  0
 82 83  1  0
 84 83  2  0
 85 84  1  0
 86 60  1  0
 86 91  1  0
 86 87  1  0
 87 90  1  1
 87 88  1  0
 89 87  1  0
 91 94  1  0
 92 96  1  0
 92 91  1  0
 93 92  2  0
 96 95  1  0
 98 96  1  0
 98 99  1  0
 98 97  1  0
M  ISO  4  15 100  23 100  58 101  59 101
M  END
>  <TORSDO>  (92) 
F 19

>  <SCORE>  (92) 
7.876

>  <name>  (92) 
93

>  <ligand_id>  (92) 
93

>  <original_smiles>  (92) 
[H]c1c([H])c([H])c2c(c1[H])C([H])([H])C([H])([H])C([H])([H])C2([H])N([H])C(=O)C1([H])N(C(=O)C([H])(N([H])C(=O)C([H])(N([H])C([H])([H])[H])C([H])([H])[H])C(C([H])([H])[H])(C([H])([H])[H])C([H])([H])[H])C([H])([H])c2c([H])c(OC([H])([H])C(=O)N3C([H])([H])C([H])([H])C([H])(c4c([H])c([H])c(N([H])C(=O)N5C([H])([H])C([H])([H])C([H])([H])C([H])(n6nc(-c7c([H])c([H])c(Oc8c([H])c([H])c(F)c([H])c8F)c([H])c7[H])c(C(=O)N([H])[H])c6N([H])[H])C5([H])[H])c([H])c4C(=O)N([H])[H])C([H])([H])C3([H])[H])c([H])c([H])c2C1([H])[H]

>  <smiles>  (92) 
[H]c1c([H])c([H])c2c(c1[H])C([H])([H])C([H])([H])C([H])([H])C2([H])N([H])C(=O)C1([H])N(C(=O)C([H])(N([H])C(=O)C([H])(N([H])C([H])([H])[H])C([H])([H])[H])C(C([H])([H])[H])(C([H])([H])[H])C([H])([H])[H])C([H])([H])c2c([H])c(OC([H])([H])C(=O)N3C([H])([H])C([H])([H])C([H])(c4c([H])c([H])c(N([H])C(=O)N5C([H])([H])C([H])([H])C([H])([H])C([H])(n6nc(-c7c([H])c([H])c(Oc8c([H])c([H])c(F)c([H])c8F)c([H])c7[H])c(C(=O)N([H])[H])c6N([H])[H])C5([H])[H])c([H])c4C(=O)N([H])[H])C([H])([H])C3([H])[H])c([H])c([H])c2C1([H])[H]

$$$$
94:0:0
     RDKit          3D

 99108  0  0  1  0  0  0  0  0999 V2000
  -29.8590  -18.0850   18.8170 C   0  0  0  0  0  3  0  0  0  0  0  0
  -29.7810  -20.4950   18.3290 C   0  0  0  0  0  3  0  0  0  0  0  0
  -30.1250  -19.7170   20.5990 C   0  0  0  0  0  3  0  0  0  0  0  0
  -29.7070  -19.1470   17.8890 C   0  0  0  0  0  0  0  0  0  0  0  0
  -30.0630  -18.3530   20.1870 C   0  0  0  0  0  0  0  0  0  0  0  0
  -29.9850  -20.8020   19.6900 C   0  0  0  0  0  0  0  0  0  0  0  0
  -30.7840  -14.9270   20.1370 C   0  0  0  0  0  0  0  0  0  0  0  0
  -30.5200  -12.7460   18.9640 C   0  0  0  0  0  2  0  0  0  0  0  0
  -29.5290  -12.8720   17.7900 C   0  0  0  0  0  2  0  0  0  0  0  0
  -28.0750  -12.6960   18.2690 C   0  0  0  0  0  2  0  0  0  0  0  0
  -27.7540  -13.5570   19.5180 C   0  0  0  0  0  3  0  0  0  0  0  0
  -28.8410  -13.3720   20.5970 C   0  0  0  0  0  2  0  0  0  0  0  0
  -30.1420  -13.7280   19.9950 N   0  0  0  0  0  0  0  0  0  0  0  0
  -31.8000  -15.2130   19.4960 O   0  0  0  0  0  0  0  0  0  0  0  0
  -30.7530  -15.6820   22.4200 C   0  0  0  0  0  2  0  0  0  0  0  0
  -30.0960  -17.2540   21.2760 C   0  0  0  0  0  3  0  0  0  0  0  0
  -31.2560  -17.1170   22.2540 C   0  0  0  0  0  3  0  0  0  0  0  0
  -31.3520  -18.0180   23.4780 C   0  0  0  0  0  1  0  0  0  0  0  0
  -30.2230  -15.7700   21.0470 N   0  0  0  0  0  0  0  0  0  0  0  0
  -25.3750  -14.1450   20.3110 C   0  0  0  0  0  0  0  0  0  0  0  0
  -24.3230  -13.3640   20.7080 C   0  0  0  0  0  0  0  0  0  0  0  0
  -24.7900  -12.0150   20.6500 C   0  0  0  0  0  0  0  0  0  0  0  0
  -26.4170  -13.2710   20.0380 N   0  0  0  0  0  0  0  0  0  0  0  0
  -26.0700  -11.9840   20.2980 N   0  0  0  0  0  0  0  0  0  0  0  0
  -24.0770  -10.7470   20.8550 C   0  0  0  0  0  0  0  0  0  0  0  0
  -24.4960   -9.8120   21.8260 C   0  0  0  0  0  3  0  0  0  0  0  0
  -23.7840   -8.6080   22.0160 C   0  0  0  0  0  3  0  0  0  0  0  0
  -22.6370   -8.3310   21.2340 C   0  0  0  0  0  0  0  0  0  0  0  0
  -22.2360   -9.2550   20.2530 C   0  0  0  0  0  3  0  0  0  0  0  0
  -22.9510  -10.4500   20.0610 C   0  0  0  0  0  3  0  0  0  0  0  0
  -21.8970   -7.1780   21.3310 O   0  0  0  0  0  0  0  0  0  0  0  0
  -21.7660   -6.5040   22.5190 C   0  0  0  0  0  0  0  0  0  0  0  0
  -21.1660   -7.0990   23.6510 C   0  0  0  0  0  3  0  0  0  0  0  0
  -20.9900   -6.3480   24.8300 C   0  0  0  0  0  3  0  0  0  0  0  0
  -21.4030   -5.0030   24.8780 C   0  0  0  0  0  0  0  0  0  0  0  0
  -21.9940   -4.4070   23.7500 C   0  0  0  0  0  3  0  0  0  0  0  0
  -22.1730   -5.1560   22.5720 C   0  0  0  0  0  0  0  0  0  0  0  0
  -22.7250   -4.5710   21.4820 F   0  0  0  0  0  0  0  0  0  0  0  0
  -21.2250   -4.2780   26.0070 F   0  0  0  0  0  0  0  0  0  0  0  0
  -22.9340  -13.8320   21.0330 C   0  0  0  0  0  0  0  0  0  0  0  0
  -22.2410  -13.1260   21.9220 N   0  0  0  0  0  0  0  0  0  0  0  0
  -22.4700  -14.8550   20.5330 O   0  0  0  0  0  0  0  0  0  0  0  0
  -22.6300  -12.2960   22.3460 H   0  0  0  0  0  0  0  0  0  0  0  0
  -21.3120  -13.4210   22.1820 H   0  0  0  0  0  0  0  0  0  0  0  0
  -25.5280  -15.5170   20.1400 N   0  0  0  0  0  0  0  0  0  0  0  0
  -24.7690  -16.1740   20.2880 H   0  0  0  0  0  0  0  0  0  0  0  0
  -26.3770  -15.9610   19.8110 H   0  0  0  0  0  0  0  0  0  0  0  0
  -29.5010  -18.8320   16.4340 C   0  0  0  0  0  0  0  0  0  0  0  0
  -28.5800  -19.5520   15.8060 N   0  0  0  0  0  0  0  0  0  0  0  0
  -30.1080  -17.9220   15.8750 O   0  0  0  0  0  0  0  0  0  0  0  0
  -28.0640  -20.2580   16.3110 H   0  0  0  0  0  0  0  0  0  0  0  0
  -28.3750  -19.3820   14.8330 H   0  0  0  0  0  0  0  0  0  0  0  0
  -30.1290  -22.2710   20.1670 C   0  0  0  0  0  2  0  0  0  0  0  0
  -29.3190  -24.6240   19.6970 C   0  0  0  0  0  0  0  0  0  0  0  0
  -29.1840  -23.2730   19.6200 N   0  0  0  0  0  0  0  0  0  0  0  0
  -30.3410  -25.1480   20.1490 O   0  0  0  0  0  0  0  0  0  0  0  0
  -28.3140  -22.9180   19.2490 H   0  0  0  0  0  0  0  0  0  0  0  0
  -28.1320  -25.5150   19.2260 C   0  0  0  0  0  2  0  0  0  0  0  0
  -28.2700  -26.9390   19.5410 O   0  0  0  0  0  0  0  0  0  0  0  0
  -24.5030  -31.8960   23.1100 C   0  0  0  0  0  0  0  0  0  0  0  0
  -27.0980  -27.6940   19.6110 C   0  0  0  0  0  0  0  0  0  0  0  0
  -23.2540  -30.5640   21.4460 C   0  0  0  0  0  3  0  0  0  0  0  0
  -24.6720  -29.1700   19.8460 C   0  0  0  0  0  0  0  0  0  0  0  0
  -25.7620  -30.9990   21.1450 C   0  0  0  0  0  2  0  0  0  0  0  0
  -25.8520  -29.6730   20.4090 C   0  0  0  0  0  0  0  0  0  0  0  0
  -27.0650  -28.9430   20.2890 C   0  0  0  0  0  3  0  0  0  0  0  0
  -25.8930  -27.2340   19.0270 C   0  0  0  0  0  3  0  0  0  0  0  0
  -24.6910  -27.9530   19.1510 C   0  0  0  0  0  3  0  0  0  0  0  0
  -23.4100  -29.9870   20.0150 C   0  0  0  0  0  2  0  0  0  0  0  0
  -24.5280  -31.1650   21.9580 N   0  0  0  0  0  0  0  0  0  0  0  0
  -23.4430  -32.0980   23.7190 O   0  0  0  0  0  0  0  0  0  0  0  0
  -22.6830  -29.4600   22.3690 C   0  0  0  0  0  0  0  0  0  0  0  0
  -21.3660  -29.2160   22.2710 N   0  0  0  0  0  0  0  0  0  0  0  0
  -23.4220  -28.8310   23.1310 O   0  0  0  0  0  0  0  0  0  0  0  0
  -20.8270  -29.7810   21.6290 H   0  0  0  0  0  0  0  0  0  0  0  0
  -18.0740  -27.8190   22.7990 C   0  0  0  0  0  0  0  0  0  0  0  0
  -20.6220  -28.1990   23.0140 C   0  0  0  0  0  3  0  0  0  0  0  0
  -20.7810  -26.8060   22.3620 C   0  0  0  0  0  2  0  0  0  0  0  0
  -19.6680  -26.4750   21.3630 C   0  0  0  0  0  2  0  0  0  0  0  0
  -18.2990  -26.5160   22.0520 C   0  0  0  0  0  2  0  0  0  0  0  0
  -19.1650  -28.6160   23.2380 C   0  0  0  0  0  0  0  0  0  0  0  0
  -18.8990  -29.8360   23.8990 C   0  0  0  0  0  3  0  0  0  0  0  0
  -17.5760  -30.2590   24.1250 C   0  0  0  0  0  3  0  0  0  0  0  0
  -16.5000  -29.4580   23.7040 C   0  0  0  0  0  3  0  0  0  0  0  0
  -16.7510  -28.2400   23.0470 C   0  0  0  0  0  3  0  0  0  0  0  0
  -25.8000  -32.5300   23.7020 C   0  0  0  0  0  3  0  0  0  0  0  0
  -26.3920  -31.7150   24.9170 C   0  0  1  0  0  0  0  0  0  0  0  0
  -25.3500  -31.3850   26.0110 C   0  0  0  0  0  1  0  0  0  0  0  0
  -27.0050  -30.3810   24.4310 C   0  0  0  0  0  1  0  0  0  0  0  0
  -27.5410  -32.5150   25.5750 C   0  0  0  0  0  1  0  0  0  0  0  0
  -25.4740  -33.9040   24.1080 N   0  0  0  0  0  0  0  0  0  0  0  0
  -25.7530  -34.9980   23.3870 C   0  0  0  0  0  0  0  0  0  0  0  0
  -26.3860  -34.9580   22.3280 O   0  0  0  0  0  0  0  0  0  0  0  0
  -24.9080  -34.0080   24.9380 H   0  0  0  0  0  0  0  0  0  0  0  0
  -23.9820  -36.7710   23.1730 C   0  0  0  0  0  1  0  0  0  0  0  0
  -25.2540  -36.3510   23.9270 C   0  0  0  0  0  3  0  0  0  0  0  0
  -27.3870  -37.2460   24.7500 C   0  0  0  0  0  1  0  0  0  0  0  0
  -26.2610  -37.4290   23.8370 N   0  0  0  0  0  0  0  0  0  0  0  0
  -25.8410  -38.3340   24.0320 H   0  0  0  0  0  0  0  0  0  0  0  0
  1  5  1  0
  2  6  2  0
  4  2  1  0
  4  1  2  0
  5  3  2  0
  6 53  1  0
  6  3  1  0
  7 19  1  0
  8 13  1  0
  9 10  1  0
  9  8  1  0
 11 10  1  0
 11 23  1  0
 11 12  1  0
 13  7  1  0
 13 12  1  0
 14  7  2  0
 16  5  1  0
 16 17  1  0
 17 15  1  0
 17 18  1  0
 19 16  1  0
 19 15  1  0
 20 21  2  0
 21 40  1  0
 22 21  1  0
 22 25  1  0
 23 24  1  0
 23 20  1  0
 24 22  2  0
 25 26  1  0
 26 27  2  0
 28 31  1  0
 28 27  1  0
 29 28  2  0
 30 29  1  0
 30 25  2  0
 31 32  1  0
 32 37  2  0
 32 33  1  0
 33 34  2  0
 34 35  1  0
 35 39  1  0
 36 35  2  0
 37 36  1  0
 38 37  1  0
 40 41  1  0
 41 44  1  0
 41 43  1  0
 42 40  2  0
 45 46  1  0
 45 20  1  0
 47 45  1  0
 48  4  1  0
 49 51  1  0
 49 48  1  0
 50 48  2  0
 52 49  1  0
 54 56  2  0
 55 54  1  0
 55 53  1  0
 57 55  1  0
 58 59  1  0
 58 54  1  0
 59 61  1  0
 60 71  2  0
 61 66  1  0
 62 70  1  0
 62 72  1  0
 63 69  1  0
 63 65  1  0
 64 70  1  0
 65 64  1  0
 66 65  2  0
 67 68  1  0
 67 61  2  0
 68 63  2  0
 69 62  1  0
 70 60  1  0
 72 74  2  0
 73 72  1  0
 75 73  1  0
 76 85  2  0
 76 81  1  0
 77 73  1  0
 77 81  1  0
 78 77  1  0
 79 80  1  0
 79 78  1  0
 80 76  1  0
 81 82  2  0
 82 83  1  0
 84 83  2  0
 85 84  1  0
 86 60  1  0
 86 91  1  0
 86 87  1  0
 87 90  1  1
 87 88  1  0
 89 87  1  0
 91 94  1  0
 92 96  1  0
 92 91  1  0
 93 92  2  0
 96 95  1  0
 98 96  1  0
 98 99  1  0
 98 97  1  0
M  ISO  4   7 100  19 100  58 101  59 101
M  END
>  <TORSDO>  (93) 
F 20

>  <SCORE>  (93) 
-12.048

>  <name>  (93) 
94

>  <ligand_id>  (93) 
94

>  <original_smiles>  (93) 
[H]c1c([H])c([H])c2c(c1[H])C([H])([H])C([H])([H])C([H])([H])C2([H])N([H])C(=O)C1([H])N(C(=O)C([H])(N([H])C(=O)C([H])(N([H])C([H])([H])[H])C([H])([H])[H])C(C([H])([H])[H])(C([H])([H])[H])C([H])([H])[H])C([H])([H])c2c([H])c(OC([H])([H])C(=O)N([H])C([H])([H])c3c([H])c(C(=O)N([H])[H])c([H])c(C4([H])N(C(=O)N5C([H])([H])C([H])([H])C([H])([H])C([H])(n6nc(-c7c([H])c([H])c(Oc8c([H])c([H])c(F)c([H])c8F)c([H])c7[H])c(C(=O)N([H])[H])c6N([H])[H])C5([H])[H])C([H])([H])C4([H])C([H])([H])[H])c3[H])c([H])c([H])c2C1([H])[H]

>  <smiles>  (93) 
[H]c1c([H])c([H])c2c(c1[H])C([H])([H])C([H])([H])C([H])([H])C2([H])N([H])C(=O)C1([H])N(C(=O)C([H])(N([H])C(=O)C([H])(N([H])C([H])([H])[H])C([H])([H])[H])C(C([H])([H])[H])(C([H])([H])[H])C([H])([H])[H])C([H])([H])c2c([H])c(OC([H])([H])C(=O)N([H])C([H])([H])c3c([H])c(C(=O)N([H])[H])c([H])c(C4([H])N(C(=O)N5C([H])([H])C([H])([H])C([H])([H])C([H])(n6nc(-c7c([H])c([H])c(Oc8c([H])c([H])c(F)c([H])c8F)c([H])c7[H])c(C(=O)N([H])[H])c6N([H])[H])C5([H])[H])C([H])([H])C4([H])C([H])([H])[H])c3[H])c([H])c([H])c2C1([H])[H]

$$$$
95:0:0
     RDKit          3D

 98106  0  0  1  0  0  0  0  0999 V2000
  -28.8390  -22.2220   21.6980 C   0  0  0  0  0  0  0  0  0  0  0  0
  -26.8040  -21.2150   20.7230 C   0  0  0  0  0  1  0  0  0  0  0  0
  -28.2610  -21.2720   20.9140 N   0  0  0  0  0  0  0  0  0  0  0  0
  -30.0400  -22.1990   21.9870 O   0  0  0  0  0  0  0  0  0  0  0  0
  -30.8580  -19.6660   18.6870 C   0  0  0  0  0  2  0  0  0  0  0  0
  -30.0910  -19.4920   20.9500 C   0  0  0  0  0  2  0  0  0  0  0  0
  -29.8080  -20.7680   18.9330 C   0  0  0  0  0  3  0  0  0  0  0  0
  -29.0240  -20.2530   20.1520 C   0  0  0  0  0  3  0  0  0  0  0  0
  -28.9300  -21.0970   17.7160 C   0  0  0  0  0  1  0  0  0  0  0  0
  -30.9340  -18.8400   19.9210 N   0  0  2  0  0  4  0  0  0  0  0  0
  -30.4910  -17.9660   19.6850 H   0  0  0  0  0  0  0  0  0  0  0  0
  -32.3110  -18.5060   20.3610 C   0  0  0  0  0  2  0  0  0  0  0  0
  -32.3230  -17.4480   21.4860 C   0  0  0  0  0  2  0  0  0  0  0  0
  -32.0150  -15.3270   20.2220 C   0  0  0  0  0  0  0  0  0  0  0  0
  -31.6350  -13.1110   19.2130 C   0  0  0  0  0  2  0  0  0  0  0  0
  -30.7170  -13.1910   17.9790 C   0  0  0  0  0  2  0  0  0  0  0  0
  -29.2370  -13.1210   18.3980 C   0  0  0  0  0  2  0  0  0  0  0  0
  -28.8950  -14.1150   19.5370 C   0  0  0  0  0  3  0  0  0  0  0  0
  -29.9190  -14.0050   20.6900 C   0  0  0  0  0  2  0  0  0  0  0  0
  -31.2730  -14.1950   20.1360 N   0  0  0  0  0  0  0  0  0  0  0  0
  -33.0310  -15.5280   19.5520 O   0  0  0  0  0  0  0  0  0  0  0  0
  -31.5990  -16.2230   21.1290 N   0  0  0  0  0  0  0  0  0  0  0  0
  -30.8060  -15.9560   21.6950 H   0  0  0  0  0  0  0  0  0  0  0  0
  -26.5450  -14.8750   20.2720 C   0  0  0  0  0  0  0  0  0  0  0  0
  -25.4270  -14.1700   20.6270 C   0  0  0  0  0  0  0  0  0  0  0  0
  -25.7900  -12.7910   20.5550 C   0  0  0  0  0  0  0  0  0  0  0  0
  -27.5250  -13.9290   20.0130 N   0  0  0  0  0  0  0  0  0  0  0  0
  -27.0710  -12.6680   20.2370 N   0  0  0  0  0  0  0  0  0  0  0  0
  -24.9770  -11.5780   20.7140 C   0  0  0  0  0  0  0  0  0  0  0  0
  -25.3210  -10.5760   21.6480 C   0  0  0  0  0  3  0  0  0  0  0  0
  -24.5150   -9.4270   21.7960 C   0  0  0  0  0  3  0  0  0  0  0  0
  -23.3480   -9.2730   21.0090 C   0  0  0  0  0  0  0  0  0  0  0  0
  -23.0230  -10.2620   20.0650 C   0  0  0  0  0  3  0  0  0  0  0  0
  -23.8300  -11.4030   19.9160 C   0  0  0  0  0  3  0  0  0  0  0  0
  -22.5190   -8.1790   21.0650 O   0  0  0  0  0  0  0  0  0  0  0  0
  -22.3080   -7.4950   22.2360 C   0  0  0  0  0  0  0  0  0  0  0  0
  -21.7960   -8.1310   23.3880 C   0  0  0  0  0  3  0  0  0  0  0  0
  -21.5290   -7.3760   24.5490 C   0  0  0  0  0  3  0  0  0  0  0  0
  -21.7640   -5.9880   24.5560 C   0  0  0  0  0  0  0  0  0  0  0  0
  -22.2690   -5.3540   23.4080 C   0  0  0  0  0  3  0  0  0  0  0  0
  -22.5370   -6.1050   22.2500 C   0  0  0  0  0  0  0  0  0  0  0  0
  -23.0040   -5.4850   21.1390 F   0  0  0  0  0  0  0  0  0  0  0  0
  -21.5010   -5.2620   25.6670 F   0  0  0  0  0  0  0  0  0  0  0  0
  -24.0670  -14.7380   20.9230 C   0  0  0  0  0  0  0  0  0  0  0  0
  -23.3040  -14.0800   21.7890 N   0  0  0  0  0  0  0  0  0  0  0  0
  -23.6940  -15.7970   20.4200 O   0  0  0  0  0  0  0  0  0  0  0  0
  -23.6190  -13.2220   22.2170 H   0  0  0  0  0  0  0  0  0  0  0  0
  -22.3910  -14.4410   22.0290 H   0  0  0  0  0  0  0  0  0  0  0  0
  -26.8070  -16.2350   20.1300 N   0  0  0  0  0  0  0  0  0  0  0  0
  -26.0810  -16.9330   20.2410 H   0  0  0  0  0  0  0  0  0  0  0  0
  -27.6650  -16.6110   19.7500 H   0  0  0  0  0  0  0  0  0  0  0  0
  -27.9820  -23.3820   22.2530 C   0  0  0  0  0  2  0  0  0  0  0  0
  -28.7800  -25.3200   20.9170 C   0  0  0  0  0  0  0  0  0  0  0  0
  -28.6100  -24.6970   22.0910 N   0  0  0  0  0  0  0  0  0  0  0  0
  -28.4260  -24.8100   19.8500 O   0  0  0  0  0  0  0  0  0  0  0  0
  -28.9470  -25.1560   22.9260 H   0  0  0  0  0  0  0  0  0  0  0  0
  -29.4360  -26.7110   20.9430 C   0  0  0  0  0  2  0  0  0  0  0  0
  -29.0510  -27.4640   19.7900 O   0  0  0  0  0  0  0  0  0  0  0  0
  -24.8300  -31.9010   23.4240 C   0  0  0  0  0  0  0  0  0  0  0  0
  -27.8400  -28.1010   19.8940 C   0  0  0  0  0  0  0  0  0  0  0  0
  -23.7550  -30.6450   21.5810 C   0  0  0  0  0  3  0  0  0  0  0  0
  -25.3420  -29.3990   20.0220 C   0  0  0  0  0  0  0  0  0  0  0  0
  -26.2490  -31.1970   21.5050 C   0  0  0  0  0  2  0  0  0  0  0  0
  -26.4430  -29.9250   20.7110 C   0  0  0  0  0  0  0  0  0  0  0  0
  -27.6950  -29.2800   20.6540 C   0  0  0  0  0  3  0  0  0  0  0  0
  -26.7320  -27.5810   19.1960 C   0  0  0  0  0  3  0  0  0  0  0  0
  -25.4790  -28.2200   19.2650 C   0  0  0  0  0  3  0  0  0  0  0  0
  -24.0400  -30.1580   20.1350 C   0  0  0  0  0  2  0  0  0  0  0  0
  -24.9610  -31.2550   22.2320 N   0  0  0  0  0  0  0  0  0  0  0  0
  -23.7230  -32.0300   23.9640 O   0  0  0  0  0  0  0  0  0  0  0  0
  -23.1570  -29.4680   22.3860 C   0  0  0  0  0  0  0  0  0  0  0  0
  -21.8500  -29.2200   22.1960 N   0  0  0  0  0  0  0  0  0  0  0  0
  -23.8630  -28.7890   23.1360 O   0  0  0  0  0  0  0  0  0  0  0  0
  -21.3410  -29.8290   21.5710 H   0  0  0  0  0  0  0  0  0  0  0  0
  -18.5450  -27.7900   22.4600 C   0  0  0  0  0  0  0  0  0  0  0  0
  -21.0800  -28.1440   22.8150 C   0  0  0  0  0  3  0  0  0  0  0  0
  -21.2700  -26.8120   22.0520 C   0  0  0  0  0  2  0  0  0  0  0  0
  -20.2010  -26.5730   20.9810 C   0  0  0  0  0  2  0  0  0  0  0  0
  -18.8050  -26.5570   21.6100 C   0  0  0  0  0  2  0  0  0  0  0  0
  -19.6140  -28.5430   23.0120 C   0  0  0  0  0  0  0  0  0  0  0  0
  -19.3200  -29.7010   23.7640 C   0  0  0  0  0  3  0  0  0  0  0  0
  -17.9870  -30.1070   23.9690 C   0  0  0  0  0  3  0  0  0  0  0  0
  -16.9320  -29.3470   23.4340 C   0  0  0  0  0  3  0  0  0  0  0  0
  -17.2120  -28.1900   22.6860 C   0  0  0  0  0  3  0  0  0  0  0  0
  -26.0610  -32.5250   24.1560 C   0  0  0  0  0  3  0  0  0  0  0  0
  -25.7130  -33.9090   24.5020 N   0  0  0  0  0  0  0  0  0  0  0  0
  -26.0850  -34.9850   23.7960 C   0  0  0  0  0  0  0  0  0  0  0  0
  -26.8300  -34.9180   22.8140 O   0  0  0  0  0  0  0  0  0  0  0  0
  -25.0610  -34.0350   25.2640 H   0  0  0  0  0  0  0  0  0  0  0  0
  -24.3610  -36.7630   23.3630 C   0  0  0  0  0  1  0  0  0  0  0  0
  -25.5470  -36.3550   24.2520 C   0  0  0  0  0  3  0  0  0  0  0  0
  -27.6100  -37.2350   25.2510 C   0  0  0  0  0  1  0  0  0  0  0  0
  -26.5680  -37.4240   24.2440 N   0  0  0  0  0  0  0  0  0  0  0  0
  -26.1390  -38.3330   24.3970 H   0  0  0  0  0  0  0  0  0  0  0  0
  -26.4950  -31.7190   25.4400 C   0  0  1  0  0  0  0  0  0  0  0  0
  -25.3270  -31.4140   26.4060 C   0  0  0  0  0  1  0  0  0  0  0  0
  -27.1460  -30.3730   25.0440 C   0  0  0  0  0  1  0  0  0  0  0  0
  -27.5650  -32.5160   26.2230 C   0  0  0  0  0  1  0  0  0  0  0  0
  1  4  2  0
  1 52  1  0
  2  3  1  0
  3  1  1  0
  5  7  1  0
  5 10  1  0
  7  9  1  0
  7  8  1  0
  8  3  1  0
  8  6  1  0
 10 12  1  0
 10  6  1  0
 10 11  1  6
 12 13  1  0
 14 22  1  0
 15 20  1  0
 16 17  1  0
 16 15  1  0
 18 17  1  0
 18 27  1  0
 18 19  1  0
 20 14  1  0
 20 19  1  0
 21 14  2  0
 22 13  1  0
 22 23  1  0
 24 25  2  0
 25 44  1  0
 26 25  1  0
 26 29  1  0
 27 28  1  0
 27 24  1  0
 28 26  2  0
 29 30  1  0
 30 31  2  0
 32 35  1  0
 32 31  1  0
 33 32  2  0
 34 33  1  0
 34 29  2  0
 35 36  1  0
 36 41  2  0
 36 37  1  0
 37 38  2  0
 38 39  1  0
 39 43  1  0
 40 39  2  0
 41 40  1  0
 42 41  1  0
 44 45  1  0
 45 48  1  0
 45 47  1  0
 46 44  2  0
 49 50  1  0
 49 24  1  0
 51 49  1  0
 53 57  1  0
 53 54  1  0
 54 52  1  0
 54 56  1  0
 55 53  2  0
 58 60  1  0
 58 57  1  0
 59 70  2  0
 60 65  1  0
 61 69  1  0
 61 71  1  0
 62 68  1  0
 62 64  1  0
 63 69  1  0
 64 63  1  0
 65 64  2  0
 66 67  1  0
 66 60  2  0
 67 62  2  0
 68 61  1  0
 69 59  1  0
 71 73  2  0
 72 71  1  0
 74 72  1  0
 75 84  2  0
 75 80  1  0
 76 72  1  0
 76 80  1  0
 77 76  1  0
 78 79  1  0
 78 77  1  0
 79 75  1  0
 80 81  2  0
 81 82  1  0
 83 82  2  0
 84 83  1  0
 85 59  1  0
 85 86  1  0
 85 95  1  0
 86 89  1  0
 87 91  1  0
 87 86  1  0
 88 87  2  0
 91 90  1  0
 93 91  1  0
 93 94  1  0
 93 92  1  0
 95 98  1  1
 95 96  1  0
 97 95  1  0
M  ISO  4  14 100  22 100  57 101  58 101
M  END
>  <TORSDO>  (94) 
F 22

>  <SCORE>  (94) 
-8.321

>  <name>  (94) 
95

>  <ligand_id>  (94) 
95

>  <original_smiles>  (94) 
[H]c1c([H])c([H])c2c(c1[H])C([H])([H])C([H])([H])C([H])([H])C2([H])N([H])C(=O)C1([H])N(C(=O)C([H])(N([H])C(=O)C([H])(N([H])C([H])([H])[H])C([H])([H])[H])C(C([H])([H])[H])(C([H])([H])[H])C([H])([H])[H])C([H])([H])c2c([H])c(OC([H])([H])C(=O)N([H])C([H])([H])C(=O)N(C([H])([H])[H])C3([H])C([H])(C([H])([H])[H])C([H])([H])[N+]([H])(C([H])([H])C([H])([H])N([H])C(=O)N4C([H])([H])C([H])([H])C([H])([H])C([H])(n5nc(-c6c([H])c([H])c(Oc7c([H])c([H])c(F)c([H])c7F)c([H])c6[H])c(C(=O)N([H])[H])c5N([H])[H])C4([H])[H])C3([H])[H])c([H])c([H])c2C1([H])[H]

>  <smiles>  (94) 
[H]c1c([H])c([H])c2c(c1[H])C([H])([H])C([H])([H])C([H])([H])C2([H])N([H])C(=O)C1([H])N(C(=O)C([H])(N([H])C(=O)C([H])(N([H])C([H])([H])[H])C([H])([H])[H])C(C([H])([H])[H])(C([H])([H])[H])C([H])([H])[H])C([H])([H])c2c([H])c(OC([H])([H])C(=O)N([H])C([H])([H])C(=O)N(C([H])([H])[H])C3([H])C([H])(C([H])([H])[H])C([H])([H])[N+]([H])(C([H])([H])C([H])([H])N([H])C(=O)N4C([H])([H])C([H])([H])C([H])([H])C([H])(n5nc(-c6c([H])c([H])c(Oc7c([H])c([H])c(F)c([H])c7F)c([H])c6[H])c(C(=O)N([H])[H])c5N([H])[H])C4([H])[H])C3([H])[H])c([H])c([H])c2C1([H])[H]

$$$$
96:0:0
     RDKit          3D

103112  0  0  1  0  0  0  0  0999 V2000
  -30.8070  -22.6630   19.4480 C   0  0  0  0  0  0  0  0  0  0  0  0
  -30.1170  -17.1900   20.3840 C   0  0  0  0  0  0  0  0  0  0  0  0
  -30.4120  -20.4020   18.4300 C   0  0  0  0  0  2  0  0  0  0  0  0
  -31.3360  -20.6510   20.7290 C   0  0  0  0  0  2  0  0  0  0  0  0
  -29.7040  -19.1460   18.9770 C   0  0  0  0  0  2  0  0  0  0  0  0
  -31.6580  -19.1600   20.5160 C   0  0  0  0  0  2  0  0  0  0  0  0
  -30.8280  -21.3090   19.5140 N   0  0  0  0  0  0  0  0  0  0  0  0
  -30.4860  -18.4360   20.0030 N   0  0  0  0  0  0  0  0  0  0  0  0
  -31.0990  -23.3680   20.4230 O   0  0  0  0  0  0  0  0  0  0  0  0
  -29.0660  -16.6730   19.9800 O   0  0  0  0  0  0  0  0  0  0  0  0
  -32.4660  -24.3340   17.2270 C   0  0  0  0  0  2  0  0  0  0  0  0
  -31.4980  -23.1730   17.0360 C   0  0  0  0  0  2  0  0  0  0  0  0
  -31.5430  -25.4720   17.6630 C   0  0  0  0  0  2  0  0  0  0  0  0
  -30.4360  -23.3810   18.1330 C   0  0  0  0  0  3  0  0  0  0  0  0
  -30.4040  -24.8450   18.3850 N   0  0  2  0  0  4  0  0  0  0  0  0
  -30.6060  -24.8760   19.3820 H   0  0  0  0  0  0  0  0  0  0  0  0
  -29.0840  -25.4870   18.1390 C   0  0  0  0  0  2  0  0  0  0  0  0
  -28.9940  -26.9120   18.7100 C   0  0  0  0  0  2  0  0  0  0  0  0
  -28.4370  -26.8810   20.0260 O   0  0  0  0  0  0  0  0  0  0  0  0
  -24.6160  -31.9540   23.2410 C   0  0  0  0  0  0  0  0  0  0  0  0
  -27.2440  -27.5500   20.1230 C   0  0  0  0  0  0  0  0  0  0  0  0
  -23.3880  -30.5340   21.6280 C   0  0  0  0  0  3  0  0  0  0  0  0
  -24.8270  -28.9940   20.1920 C   0  0  0  0  0  0  0  0  0  0  0  0
  -25.9020  -30.9160   21.3800 C   0  0  0  0  0  2  0  0  0  0  0  0
  -25.9860  -29.5390   20.7580 C   0  0  0  0  0  0  0  0  0  0  0  0
  -27.1970  -28.8180   20.7360 C   0  0  0  0  0  3  0  0  0  0  0  0
  -26.0700  -26.9980   19.5700 C   0  0  0  0  0  3  0  0  0  0  0  0
  -24.8590  -27.7180   19.6030 C   0  0  0  0  0  3  0  0  0  0  0  0
  -23.5760  -29.8400   20.2510 C   0  0  0  0  0  2  0  0  0  0  0  0
  -24.6540  -31.1490   22.1420 N   0  0  0  0  0  0  0  0  0  0  0  0
  -23.5440  -32.2220   23.8010 O   0  0  0  0  0  0  0  0  0  0  0  0
  -22.7630  -29.5160   22.6060 C   0  0  0  0  0  0  0  0  0  0  0  0
  -21.4440  -29.2990   22.4790 N   0  0  0  0  0  0  0  0  0  0  0  0
  -23.4600  -28.9190   23.4310 O   0  0  0  0  0  0  0  0  0  0  0  0
  -20.9430  -29.8320   21.7810 H   0  0  0  0  0  0  0  0  0  0  0  0
  -18.1010  -28.0220   22.9700 C   0  0  0  0  0  0  0  0  0  0  0  0
  -20.6470  -28.3570   23.2630 C   0  0  0  0  0  3  0  0  0  0  0  0
  -20.7980  -26.9180   22.7200 C   0  0  0  0  0  2  0  0  0  0  0  0
  -19.7170  -26.5400   21.7040 C   0  0  0  0  0  2  0  0  0  0  0  0
  -18.3250  -26.6610   22.3290 C   0  0  0  0  0  2  0  0  0  0  0  0
  -19.1930  -28.8240   23.3940 C   0  0  0  0  0  0  0  0  0  0  0  0
  -18.9330  -30.0970   23.9490 C   0  0  0  0  0  3  0  0  0  0  0  0
  -17.6140  -30.5650   24.0880 C   0  0  0  0  0  3  0  0  0  0  0  0
  -16.5360  -29.7590   23.6820 C   0  0  0  0  0  3  0  0  0  0  0  0
  -16.7800  -28.4900   23.1280 C   0  0  0  0  0  3  0  0  0  0  0  0
  -25.9120  -32.5930   23.8330 C   0  0  0  0  0  3  0  0  0  0  0  0
  -25.6010  -33.9880   24.1730 N   0  0  0  0  0  0  0  0  0  0  0  0
  -25.9140  -35.0430   23.4090 C   0  0  0  0  0  0  0  0  0  0  0  0
  -26.5670  -34.9470   22.3660 O   0  0  0  0  0  0  0  0  0  0  0  0
  -25.0250  -34.1360   24.9880 H   0  0  0  0  0  0  0  0  0  0  0  0
  -24.1690  -36.8220   23.0820 C   0  0  0  0  0  1  0  0  0  0  0  0
  -25.4240  -36.4260   23.8770 C   0  0  0  0  0  3  0  0  0  0  0  0
  -27.5650  -37.3220   24.6810 C   0  0  0  0  0  1  0  0  0  0  0  0
  -26.4490  -37.4860   23.7520 N   0  0  0  0  0  0  0  0  0  0  0  0
  -26.0400  -38.4030   23.9080 H   0  0  0  0  0  0  0  0  0  0  0  0
  -26.4670  -31.8210   25.0910 C   0  0  1  0  0  0  0  0  0  0  0  0
  -25.3970  -31.5470   26.1730 C   0  0  0  0  0  1  0  0  0  0  0  0
  -27.0760  -30.4620   24.6720 C   0  0  0  0  0  1  0  0  0  0  0  0
  -27.6090  -32.6350   25.7460 C   0  0  0  0  0  1  0  0  0  0  0  0
  -31.0270  -16.3590   21.3230 C   0  0  0  0  0  3  0  0  0  0  0  0
  -31.0520  -14.1910   20.1300 C   0  0  0  0  0  0  0  0  0  0  0  0
  -30.5640  -12.1330   18.8660 C   0  0  0  0  0  2  0  0  0  0  0  0
  -29.5840  -12.4030   17.7080 C   0  0  0  0  0  2  0  0  0  0  0  0
  -28.1230  -12.3300   18.1940 C   0  0  0  0  0  2  0  0  0  0  0  0
  -27.8780  -13.1770   19.4700 C   0  0  0  0  0  3  0  0  0  0  0  0
  -28.9500  -12.8640   20.5370 C   0  0  0  0  0  2  0  0  0  0  0  0
  -30.2860  -13.0880   19.9450 N   0  0  0  0  0  0  0  0  0  0  0  0
  -32.0200  -14.4870   19.4240 O   0  0  0  0  0  0  0  0  0  0  0  0
  -30.6800  -14.9440   21.1700 N   0  0  0  0  0  0  0  0  0  0  0  0
  -29.8540  -14.6190   21.6510 H   0  0  0  0  0  0  0  0  0  0  0  0
  -25.5350  -13.9080   20.2540 C   0  0  0  0  0  0  0  0  0  0  0  0
  -24.4430  -13.1910   20.6640 C   0  0  0  0  0  0  0  0  0  0  0  0
  -24.8370  -11.8180   20.6250 C   0  0  0  0  0  0  0  0  0  0  0  0
  -26.5270  -12.9770   19.9930 N   0  0  0  0  0  0  0  0  0  0  0  0
  -26.1100  -11.7140   20.2690 N   0  0  0  0  0  0  0  0  0  0  0  0
  -24.0590  -10.5930   20.8520 C   0  0  0  0  0  0  0  0  0  0  0  0
  -24.4650   -9.6250   21.7990 C   0  0  0  0  0  3  0  0  0  0  0  0
  -23.6920   -8.4630   22.0120 C   0  0  0  0  0  3  0  0  0  0  0  0
  -22.4990   -8.2610   21.2780 C   0  0  0  0  0  0  0  0  0  0  0  0
  -22.1110   -9.2160   20.3220 C   0  0  0  0  0  3  0  0  0  0  0  0
  -22.8840  -10.3690   20.1070 C   0  0  0  0  0  3  0  0  0  0  0  0
  -21.6980   -7.1510   21.3990 O   0  0  0  0  0  0  0  0  0  0  0  0
  -21.6120   -6.4490   22.5750 C   0  0  0  0  0  0  0  0  0  0  0  0
  -21.1990   -7.0610   23.7790 C   0  0  0  0  0  3  0  0  0  0  0  0
  -21.0580   -6.2870   24.9480 C   0  0  0  0  0  3  0  0  0  0  0  0
  -21.3210   -4.9040   24.9160 C   0  0  0  0  0  0  0  0  0  0  0  0
  -21.7260   -4.2930   23.7160 C   0  0  0  0  0  3  0  0  0  0  0  0
  -21.8690   -5.0640   22.5480 C   0  0  0  0  0  0  0  0  0  0  0  0
  -22.2400   -4.4660   21.3900 F   0  0  0  0  0  0  0  0  0  0  0  0
  -21.1780   -4.1600   26.0360 F   0  0  0  0  0  0  0  0  0  0  0  0
  -23.0820  -13.7350   20.9890 C   0  0  0  0  0  0  0  0  0  0  0  0
  -22.3610  -13.0850   21.8980 N   0  0  0  0  0  0  0  0  0  0  0  0
  -22.6660  -14.7700   20.4700 O   0  0  0  0  0  0  0  0  0  0  0  0
  -22.7100  -12.2470   22.3380 H   0  0  0  0  0  0  0  0  0  0  0  0
  -21.4480  -13.4320   22.1560 H   0  0  0  0  0  0  0  0  0  0  0  0
  -25.7650  -15.2690   20.0690 N   0  0  0  0  0  0  0  0  0  0  0  0
  -25.0490  -15.9700   20.2240 H   0  0  0  0  0  0  0  0  0  0  0  0
  -26.6600  -15.6670   19.8050 H   0  0  0  0  0  0  0  0  0  0  0  0
  -30.7920  -16.7850   22.7920 C   0  0  0  0  0  2  0  0  0  0  0  0
  -31.6700  -16.0640   23.7340 N   0  0  0  0  0  4  0  0  0  0  0  0
  -31.5180  -15.0730   23.6890 H   0  0  0  0  0  0  0  0  0  0  0  0
  -31.4880  -16.3660   24.6750 H   0  0  0  0  0  0  0  0  0  0  0  0
  -32.6380  -16.2470   23.5340 H   0  0  0  0  0  0  0  0  0  0  0  0
  1  7  1  0
  1  9  2  0
  2 60  1  0
  3  5  1  0
  3  7  1  0
  5  8  1  0
  6  4  1  0
  7  4  1  0
  8  2  1  0
  8  6  1  0
 10  2  2  0
 11 13  1  0
 12 11  1  0
 12 14  1  0
 13 15  1  0
 14 15  1  0
 14  1  1  0
 15 16  1  1
 17 15  1  0
 17 18  1  0
 18 19  1  0
 19 21  1  0
 20 31  2  0
 21 26  1  0
 22 30  1  0
 22 32  1  0
 23 29  1  0
 23 25  1  0
 24 30  1  0
 25 24  1  0
 26 25  2  0
 27 28  1  0
 27 21  2  0
 28 23  2  0
 29 22  1  0
 30 20  1  0
 32 34  2  0
 33 32  1  0
 35 33  1  0
 36 45  2  0
 36 41  1  0
 37 33  1  0
 37 41  1  0
 38 37  1  0
 39 40  1  0
 39 38  1  0
 40 36  1  0
 41 42  2  0
 42 43  1  0
 44 43  2  0
 45 44  1  0
 46 20  1  0
 46 47  1  0
 46 56  1  0
 47 50  1  0
 48 52  1  0
 48 47  1  0
 49 48  2  0
 52 51  1  0
 54 52  1  0
 54 55  1  0
 54 53  1  0
 56 59  1  1
 56 57  1  0
 58 56  1  0
 60 99  1  0
 61 69  1  0
 62 67  1  0
 63 64  1  0
 63 62  1  0
 65 64  1  0
 65 74  1  0
 65 66  1  0
 67 61  1  0
 67 66  1  0
 68 61  2  0
 69 60  1  0
 69 70  1  0
 71 72  2  0
 72 91  1  0
 73 72  1  0
 73 76  1  0
 74 71  1  0
 74 75  1  0
 75 73  2  0
 76 77  1  0
 77 78  2  0
 79 82  1  0
 79 78  1  0
 80 79  2  0
 81 80  1  0
 81 76  2  0
 82 83  1  0
 83 84  1  0
 84 85  2  0
 86 85  1  0
 86 90  1  0
 87 86  2  0
 88 83  2  0
 88 87  1  0
 89 88  1  0
 91 92  1  0
 92 95  1  0
 92 94  1  0
 93 91  2  0
 96 97  1  0
 96 71  1  0
 98 96  1  0
 99100  1  0
100102  1  0
101100  1  0
103100  1  0
M  ISO  4  18 101  19 101  61 100  69 100
M  END
>  <TORSDO>  (95) 
F 22

>  <SCORE>  (95) 
-11.407

>  <name>  (95) 
96

>  <ligand_id>  (95) 
96

>  <original_smiles>  (95) 
[H]c1c([H])c([H])c2c(c1[H])C([H])([H])C([H])([H])C([H])([H])C2([H])N([H])C(=O)C1([H])N(C(=O)C([H])(N([H])C(=O)C([H])(N([H])C([H])([H])[H])C([H])([H])[H])C(C([H])([H])[H])(C([H])([H])[H])C([H])([H])[H])C([H])([H])c2c([H])c(OC([H])([H])C([H])([H])[N+]3([H])C([H])([H])C([H])([H])C([H])([H])C3([H])C(=O)N3C([H])([H])C([H])([H])N(C(=O)C([H])(N([H])C(=O)N4C([H])([H])C([H])([H])C([H])([H])C([H])(n5nc(-c6c([H])c([H])c(Oc7c([H])c([H])c(F)c([H])c7F)c([H])c6[H])c(C(=O)N([H])[H])c5N([H])[H])C4([H])[H])C([H])([H])[N+]([H])([H])[H])C([H])([H])C3([H])[H])c([H])c([H])c2C1([H])[H]

>  <smiles>  (95) 
[H]c1c([H])c([H])c2c(c1[H])C([H])([H])C([H])([H])C([H])([H])C2([H])N([H])C(=O)C1([H])N(C(=O)C([H])(N([H])C(=O)C([H])(N([H])C([H])([H])[H])C([H])([H])[H])C(C([H])([H])[H])(C([H])([H])[H])C([H])([H])[H])C([H])([H])c2c([H])c(OC([H])([H])C([H])([H])[N+]3([H])C([H])([H])C([H])([H])C([H])([H])C3([H])C(=O)N3C([H])([H])C([H])([H])N(C(=O)C([H])(N([H])C(=O)N4C([H])([H])C([H])([H])C([H])([H])C([H])(n5nc(-c6c([H])c([H])c(Oc7c([H])c([H])c(F)c([H])c7F)c([H])c6[H])c(C(=O)N([H])[H])c5N([H])[H])C4([H])[H])C([H])([H])[N+]([H])([H])[H])C([H])([H])C3([H])[H])c([H])c([H])c2C1([H])[H]

$$$$
97:0:0
     RDKit          3D

 97105  0  0  1  0  0  0  0  0999 V2000
  -27.5750  -18.9210   19.3040 C   0  0  0  0  0  3  0  0  0  0  0  0
  -28.3050  -17.8730   19.8920 C   0  0  0  0  0  3  0  0  0  0  0  0
  -29.7100  -19.5200   20.9930 C   0  0  0  0  0  3  0  0  0  0  0  0
  -27.9360  -20.2700   19.5000 C   0  0  0  0  0  0  0  0  0  0  0  0
  -28.9980  -20.6120   20.3990 C   0  0  0  0  0  0  0  0  0  0  0  0
  -29.4140  -18.1570   20.7100 C   0  0  0  0  0  0  0  0  0  0  0  0
  -27.1830  -21.2790   18.6890 C   0  0  0  0  0  0  0  0  0  0  0  0
  -26.0720  -21.7390   19.2500 N   0  0  0  0  0  0  0  0  0  0  0  0
  -27.6050  -21.6770   17.6070 O   0  0  0  0  0  0  0  0  0  0  0  0
  -25.7290  -21.3340   20.1110 H   0  0  0  0  0  0  0  0  0  0  0  0
  -25.5090  -22.4250   18.7660 H   0  0  0  0  0  0  0  0  0  0  0  0
  -29.4630  -22.0500   20.6830 C   0  0  0  0  0  0  0  0  0  0  0  0
  -28.5800  -23.0700   20.5840 N   0  0  0  0  0  0  0  0  0  0  0  0
  -30.6190  -22.2480   21.0590 O   0  0  0  0  0  0  0  0  0  0  0  0
  -27.6440  -22.8020   20.3090 H   0  0  0  0  0  0  0  0  0  0  0  0
  -28.7610  -24.5040   20.8960 C   0  0  0  0  0  2  0  0  0  0  0  0
  -28.6440  -25.4650   19.6750 C   0  0  0  0  0  2  0  0  0  0  0  0
  -28.5090  -26.8480   20.0800 O   0  0  0  0  0  0  0  0  0  0  0  0
  -24.5340  -31.8970   23.1920 C   0  0  0  0  0  0  0  0  0  0  0  0
  -27.2920  -27.5180   20.0750 C   0  0  0  0  0  0  0  0  0  0  0  0
  -23.3730  -30.5080   21.5100 C   0  0  0  0  0  3  0  0  0  0  0  0
  -24.8690  -29.0100   20.0820 C   0  0  0  0  0  0  0  0  0  0  0  0
  -25.8980  -30.8950   21.3590 C   0  0  0  0  0  2  0  0  0  0  0  0
  -26.0110  -29.5350   20.6930 C   0  0  0  0  0  0  0  0  0  0  0  0
  -27.2210  -28.7990   20.6840 C   0  0  0  0  0  3  0  0  0  0  0  0
  -26.1170  -27.0070   19.4720 C   0  0  0  0  0  3  0  0  0  0  0  0
  -24.9180  -27.7470   19.4710 C   0  0  0  0  0  3  0  0  0  0  0  0
  -23.6120  -29.8520   20.1250 C   0  0  0  0  0  2  0  0  0  0  0  0
  -24.6190  -31.1120   22.0790 N   0  0  0  0  0  0  0  0  0  0  0  0
  -23.4410  -32.1460   23.7190 O   0  0  0  0  0  0  0  0  0  0  0  0
  -22.7200  -29.4640   22.4420 C   0  0  0  0  0  0  0  0  0  0  0  0
  -21.3930  -29.2950   22.3210 N   0  0  0  0  0  0  0  0  0  0  0  0
  -23.4060  -28.8070   23.2310 O   0  0  0  0  0  0  0  0  0  0  0  0
  -20.8990  -29.8720   21.6530 H   0  0  0  0  0  0  0  0  0  0  0  0
  -18.0090  -28.1490   22.8540 C   0  0  0  0  0  0  0  0  0  0  0  0
  -20.5770  -28.3390   23.0700 C   0  0  0  0  0  3  0  0  0  0  0  0
  -20.6360  -26.9360   22.4260 C   0  0  0  0  0  2  0  0  0  0  0  0
  -19.5020  -26.6830   21.4290 C   0  0  0  0  0  2  0  0  0  0  0  0
  -18.1390  -26.8290   22.1140 C   0  0  0  0  0  2  0  0  0  0  0  0
  -19.1540  -28.8670   23.2890 C   0  0  0  0  0  0  0  0  0  0  0  0
  -18.9790  -30.1070   23.9410 C   0  0  0  0  0  3  0  0  0  0  0  0
  -17.6910  -30.6290   24.1620 C   0  0  0  0  0  3  0  0  0  0  0  0
  -16.5600  -29.9080   23.7430 C   0  0  0  0  0  3  0  0  0  0  0  0
  -16.7200  -28.6690   23.0950 C   0  0  0  0  0  3  0  0  0  0  0  0
  -25.8020  -32.5380   23.8390 C   0  0  0  0  0  3  0  0  0  0  0  0
  -25.4780  -33.9330   24.1630 N   0  0  0  0  0  0  0  0  0  0  0  0
  -25.8110  -34.9880   23.4060 C   0  0  0  0  0  0  0  0  0  0  0  0
  -26.4930  -34.8890   22.3810 O   0  0  0  0  0  0  0  0  0  0  0  0
  -24.8740  -34.0860   24.9580 H   0  0  0  0  0  0  0  0  0  0  0  0
  -24.0840  -36.7730   23.0120 C   0  0  0  0  0  1  0  0  0  0  0  0
  -25.3060  -36.3720   23.8550 C   0  0  0  0  0  3  0  0  0  0  0  0
  -27.4000  -37.2750   24.7610 C   0  0  0  0  0  1  0  0  0  0  0  0
  -26.3350  -37.4300   23.7730 N   0  0  0  0  0  0  0  0  0  0  0  0
  -25.9200  -38.3500   23.8960 H   0  0  0  0  0  0  0  0  0  0  0  0
  -26.3010  -31.7690   25.1230 C   0  0  1  0  0  0  0  0  0  0  0  0
  -25.1880  -31.5170   26.1670 C   0  0  0  0  0  1  0  0  0  0  0  0
  -26.9040  -30.4000   24.7370 C   0  0  0  0  0  1  0  0  0  0  0  0
  -27.4290  -32.5730   25.8110 C   0  0  0  0  0  1  0  0  0  0  0  0
  -30.3440  -17.0370   21.2260 C   0  0  0  0  0  2  0  0  0  0  0  0
  -30.6650  -14.6550   20.3880 C   0  0  0  0  0  0  0  0  0  0  0  0
  -30.3980  -12.5120   19.1780 C   0  0  0  0  0  2  0  0  0  0  0  0
  -29.4250  -12.7210   17.9980 C   0  0  0  0  0  2  0  0  0  0  0  0
  -27.9590  -12.5630   18.4520 C   0  0  0  0  0  2  0  0  0  0  0  0
  -27.6420  -13.3640   19.7420 C   0  0  0  0  0  3  0  0  0  0  0  0
  -28.7200  -13.1140   20.8190 C   0  0  0  0  0  2  0  0  0  0  0  0
  -30.0240  -13.4640   20.2340 N   0  0  0  0  0  0  0  0  0  0  0  0
  -31.7830  -14.8710   19.9080 O   0  0  0  0  0  0  0  0  0  0  0  0
  -29.9400  -15.6340   20.9820 N   0  0  0  0  0  0  0  0  0  0  0  0
  -29.0270  -15.3650   21.3170 H   0  0  0  0  0  0  0  0  0  0  0  0
  -25.2560  -13.9440   20.5100 C   0  0  0  0  0  0  0  0  0  0  0  0
  -24.2040  -13.1570   20.8950 C   0  0  0  0  0  0  0  0  0  0  0  0
  -24.6710  -11.8100   20.8280 C   0  0  0  0  0  0  0  0  0  0  0  0
  -26.3010  -13.0730   20.2430 N   0  0  0  0  0  0  0  0  0  0  0  0
  -25.9550  -11.7850   20.4920 N   0  0  0  0  0  0  0  0  0  0  0  0
  -23.9580  -10.5400   21.0070 C   0  0  0  0  0  0  0  0  0  0  0  0
  -24.3790   -9.5830   21.9560 C   0  0  0  0  0  3  0  0  0  0  0  0
  -23.6650   -8.3770   22.1240 C   0  0  0  0  0  3  0  0  0  0  0  0
  -22.5100   -8.1240   21.3430 C   0  0  0  0  0  0  0  0  0  0  0  0
  -22.1090   -9.0700   20.3830 C   0  0  0  0  0  3  0  0  0  0  0  0
  -22.8250  -10.2670   20.2130 C   0  0  0  0  0  3  0  0  0  0  0  0
  -21.7650   -6.9730   21.4210 O   0  0  0  0  0  0  0  0  0  0  0  0
  -21.6610   -6.2620   22.5910 C   0  0  0  0  0  0  0  0  0  0  0  0
  -21.0860   -6.8190   23.7530 C   0  0  0  0  0  3  0  0  0  0  0  0
  -20.9320   -6.0290   24.9120 C   0  0  0  0  0  3  0  0  0  0  0  0
  -21.3480   -4.6830   24.9070 C   0  0  0  0  0  0  0  0  0  0  0  0
  -21.9140   -4.1250   23.7470 C   0  0  0  0  0  3  0  0  0  0  0  0
  -22.0660   -4.9130   22.5910 C   0  0  0  0  0  0  0  0  0  0  0  0
  -22.5940   -4.3630   21.4710 F   0  0  0  0  0  0  0  0  0  0  0  0
  -21.1920   -3.9210   26.0140 F   0  0  0  0  0  0  0  0  0  0  0  0
  -22.8100  -13.6210   21.2060 C   0  0  0  0  0  0  0  0  0  0  0  0
  -22.1040  -12.9040   22.0720 N   0  0  0  0  0  0  0  0  0  0  0  0
  -22.3570  -14.6550   20.7170 O   0  0  0  0  0  0  0  0  0  0  0  0
  -22.4840  -12.0670   22.4920 H   0  0  0  0  0  0  0  0  0  0  0  0
  -21.1700  -13.1950   22.3220 H   0  0  0  0  0  0  0  0  0  0  0  0
  -25.4020  -15.3180   20.3480 N   0  0  0  0  0  0  0  0  0  0  0  0
  -24.6220  -15.9560   20.4660 H   0  0  0  0  0  0  0  0  0  0  0  0
  -26.2180  -15.7650   19.9520 H   0  0  0  0  0  0  0  0  0  0  0  0
  1  4  2  0
  1  2  1  0
  2  6  2  0
  4  5  1  0
  5 12  1  0
  5  3  2  0
  6  3  1  0
  6 59  1  0
  7  8  1  0
  7  4  1  0
  8 10  1  0
  9  7  2  0
 11  8  1  0
 12 14  2  0
 13 12  1  0
 13 16  1  0
 15 13  1  0
 17 18  1  0
 17 16  1  0
 19 30  2  0
 20 18  1  0
 20 25  1  0
 21 29  1  0
 21 31  1  0
 22 28  1  0
 22 24  1  0
 23 29  1  0
 24 23  1  0
 25 24  2  0
 26 20  2  0
 27 26  1  0
 27 22  2  0
 28 21  1  0
 29 19  1  0
 31 33  2  0
 32 31  1  0
 34 32  1  0
 35 44  2  0
 35 40  1  0
 36 32  1  0
 36 40  1  0
 37 36  1  0
 38 39  1  0
 38 37  1  0
 39 35  1  0
 40 41  2  0
 41 42  1  0
 43 42  2  0
 44 43  1  0
 45 19  1  0
 45 46  1  0
 45 55  1  0
 46 49  1  0
 47 51  1  0
 47 46  1  0
 48 47  2  0
 51 50  1  0
 53 51  1  0
 53 54  1  0
 53 52  1  0
 55 58  1  1
 55 56  1  0
 57 55  1  0
 60 68  1  0
 61 66  1  0
 62 63  1  0
 62 61  1  0
 64 63  1  0
 64 73  1  0
 64 65  1  0
 66 60  1  0
 66 65  1  0
 67 60  2  0
 68 59  1  0
 68 69  1  0
 70 71  2  0
 71 90  1  0
 72 71  1  0
 72 75  1  0
 73 74  1  0
 73 70  1  0
 74 72  2  0
 75 76  1  0
 76 77  2  0
 78 81  1  0
 78 77  1  0
 79 78  2  0
 80 79  1  0
 80 75  2  0
 81 82  1  0
 82 87  2  0
 82 83  1  0
 83 84  2  0
 85 84  1  0
 85 89  1  0
 86 85  2  0
 87 86  1  0
 88 87  1  0
 90 91  1  0
 91 94  1  0
 91 93  1  0
 92 90  2  0
 95 96  1  0
 95 70  1  0
 97 95  1  0
M  ISO  4  17 101  18 101  60 100  68 100
M  END
>  <TORSDO>  (96) 
F 21

>  <SCORE>  (96) 
-14.179

>  <name>  (96) 
97

>  <ligand_id>  (96) 
97

>  <original_smiles>  (96) 
[H]c1c([H])c([H])c2c(c1[H])C([H])([H])C([H])([H])C([H])([H])C2([H])N([H])C(=O)C1([H])N(C(=O)C([H])(N([H])C(=O)C([H])(N([H])C([H])([H])[H])C([H])([H])[H])C(C([H])([H])[H])(C([H])([H])[H])C([H])([H])[H])C([H])([H])c2c([H])c(OC([H])([H])C([H])([H])N([H])C(=O)c3c([H])c(C([H])([H])N([H])C(=O)N4C([H])([H])C([H])([H])C([H])([H])C([H])(n5nc(-c6c([H])c([H])c(Oc7c([H])c([H])c(F)c([H])c7F)c([H])c6[H])c(C(=O)N([H])[H])c5N([H])[H])C4([H])[H])c([H])c([H])c3C(=O)N([H])[H])c([H])c([H])c2C1([H])[H]

>  <smiles>  (96) 
[H]c1c([H])c([H])c2c(c1[H])C([H])([H])C([H])([H])C([H])([H])C2([H])N([H])C(=O)C1([H])N(C(=O)C([H])(N([H])C(=O)C([H])(N([H])C([H])([H])[H])C([H])([H])[H])C(C([H])([H])[H])(C([H])([H])[H])C([H])([H])[H])C([H])([H])c2c([H])c(OC([H])([H])C([H])([H])N([H])C(=O)c3c([H])c(C([H])([H])N([H])C(=O)N4C([H])([H])C([H])([H])C([H])([H])C([H])(n5nc(-c6c([H])c([H])c(Oc7c([H])c([H])c(F)c([H])c7F)c([H])c6[H])c(C(=O)N([H])[H])c5N([H])[H])C4([H])[H])c([H])c([H])c3C(=O)N([H])[H])c([H])c([H])c2C1([H])[H]

$$$$
98:0:0
     RDKit          3D

103111  0  0  1  0  0  0  0  0999 V2000
  -29.2150  -18.1840   19.8920 C   0  0  0  0  0  3  0  0  0  0  0  0
  -30.3360  -20.6650   20.5370 C   0  0  0  0  0  3  0  0  0  0  0  0
  -28.5680  -19.3730   19.4900 C   0  0  0  0  0  0  0  0  0  0  0  0
  -30.4010  -18.2020   20.6630 C   0  0  0  0  0  0  0  0  0  0  0  0
  -29.0820  -20.6400   19.8780 C   0  0  0  0  0  0  0  0  0  0  0  0
  -30.9900  -19.4690   20.9250 C   0  0  0  0  0  0  0  0  0  0  0  0
  -32.3280  -19.5910   21.6300 C   0  0  0  0  0  1  0  0  0  0  0  0
  -27.3520  -19.2440   18.6210 C   0  0  0  0  0  0  0  0  0  0  0  0
  -26.1790  -19.3650   19.2250 N   0  0  0  0  0  0  0  0  0  0  0  0
  -27.4500  -19.0240   17.4170 O   0  0  0  0  0  0  0  0  0  0  0  0
  -26.1060  -19.4810   20.2250 H   0  0  0  0  0  0  0  0  0  0  0  0
  -25.3380  -19.2650   18.6730 H   0  0  0  0  0  0  0  0  0  0  0  0
  -28.2670  -21.9300   19.6180 C   0  0  0  0  0  2  0  0  0  0  0  0
  -28.7350  -23.1630   20.2990 N   0  0  0  0  0  4  0  0  0  0  0  0
  -29.0610  -22.9030   21.2180 H   0  0  0  0  0  0  0  0  0  0  0  0
  -29.5240  -23.5120   19.7780 H   0  0  0  0  0  0  0  0  0  0  0  0
  -27.6830  -24.2200   20.4250 C   0  0  0  0  0  2  0  0  0  0  0  0
  -28.1930  -25.6180   20.8840 C   0  0  0  0  0  2  0  0  0  0  0  0
  -28.1270  -26.6480   19.8740 O   0  0  0  0  0  0  0  0  0  0  0  0
  -24.5340  -31.8600   23.1300 C   0  0  0  0  0  0  0  0  0  0  0  0
  -26.9910  -27.4260   19.9110 C   0  0  0  0  0  0  0  0  0  0  0  0
  -23.2500  -30.5100   21.5110 C   0  0  0  0  0  3  0  0  0  0  0  0
  -24.6300  -28.9740   20.0090 C   0  0  0  0  0  0  0  0  0  0  0  0
  -25.7710  -30.8360   21.2240 C   0  0  0  0  0  2  0  0  0  0  0  0
  -25.8170  -29.4730   20.5600 C   0  0  0  0  0  0  0  0  0  0  0  0
  -27.0020  -28.7040   20.5070 C   0  0  0  0  0  3  0  0  0  0  0  0
  -25.7950  -26.9460   19.3370 C   0  0  0  0  0  3  0  0  0  0  0  0
  -24.6150  -27.7120   19.3960 C   0  0  0  0  0  3  0  0  0  0  0  0
  -23.3980  -29.8440   20.1180 C   0  0  0  0  0  2  0  0  0  0  0  0
  -24.5380  -31.0810   22.0110 N   0  0  0  0  0  0  0  0  0  0  0  0
  -23.4760  -32.1270   23.7160 O   0  0  0  0  0  0  0  0  0  0  0  0
  -22.6220  -29.4790   22.4750 C   0  0  0  0  0  0  0  0  0  0  0  0
  -21.2910  -29.3260   22.4040 N   0  0  0  0  0  0  0  0  0  0  0  0
  -23.3340  -28.8170   23.2380 O   0  0  0  0  0  0  0  0  0  0  0  0
  -20.7730  -29.9540   21.8040 H   0  0  0  0  0  0  0  0  0  0  0  0
  -17.9300  -28.1070   22.9160 C   0  0  0  0  0  0  0  0  0  0  0  0
  -20.4910  -28.3640   23.1590 C   0  0  0  0  0  3  0  0  0  0  0  0
  -20.5920  -26.9510   22.5370 C   0  0  0  0  0  2  0  0  0  0  0  0
  -19.4730  -26.6660   21.5320 C   0  0  0  0  0  2  0  0  0  0  0  0
  -18.1010  -26.7830   22.1910 C   0  0  0  0  0  2  0  0  0  0  0  0
  -19.0500  -28.8680   23.3460 C   0  0  0  0  0  0  0  0  0  0  0  0
  -18.8310  -30.1320   23.9410 C   0  0  0  0  0  3  0  0  0  0  0  0
  -17.5210  -30.6210   24.1350 C   0  0  0  0  0  3  0  0  0  0  0  0
  -16.4200  -29.8460   23.7390 C   0  0  0  0  0  3  0  0  0  0  0  0
  -16.6260  -28.5980   23.1240 C   0  0  0  0  0  3  0  0  0  0  0  0
  -25.8470  -32.4640   23.7160 C   0  0  0  0  0  3  0  0  0  0  0  0
  -25.5500  -33.8370   24.1270 N   0  0  0  0  0  0  0  0  0  0  0  0
  -25.8560  -34.9290   23.4150 C   0  0  0  0  0  0  0  0  0  0  0  0
  -26.4830  -34.8790   22.3520 O   0  0  0  0  0  0  0  0  0  0  0  0
  -24.9910  -33.9490   24.9610 H   0  0  0  0  0  0  0  0  0  0  0  0
  -24.1290  -36.7400   23.2260 C   0  0  0  0  0  1  0  0  0  0  0  0
  -25.3940  -36.2870   23.9690 C   0  0  0  0  0  3  0  0  0  0  0  0
  -27.5610  -37.1260   24.7630 C   0  0  0  0  0  1  0  0  0  0  0  0
  -26.4220  -37.3440   23.8750 N   0  0  0  0  0  0  0  0  0  0  0  0
  -26.0240  -38.2570   24.0830 H   0  0  0  0  0  0  0  0  0  0  0  0
  -26.4270  -31.6280   24.9210 C   0  0  1  0  0  0  0  0  0  0  0  0
  -25.3910  -31.3330   26.0280 C   0  0  0  0  0  1  0  0  0  0  0  0
  -26.9870  -30.2780   24.4220 C   0  0  0  0  0  1  0  0  0  0  0  0
  -27.6130  -32.3850   25.5610 C   0  0  0  0  0  1  0  0  0  0  0  0
  -30.9730  -16.8870   21.2530 C   0  0  0  0  0  3  0  0  0  0  0  0
  -31.5210  -14.6780   20.0390 C   0  0  0  0  0  0  0  0  0  0  0  0
  -31.1830  -12.4710   18.9590 C   0  0  0  0  0  2  0  0  0  0  0  0
  -30.2130  -12.6090   17.7700 C   0  0  0  0  0  2  0  0  0  0  0  0
  -28.7410  -12.5310   18.2290 C   0  0  0  0  0  2  0  0  0  0  0  0
  -28.4430  -13.4860   19.4130 C   0  0  0  0  0  3  0  0  0  0  0  0
  -29.4940  -13.2760   20.5240 C   0  0  0  0  0  2  0  0  0  0  0  0
  -30.8310  -13.5100   19.9370 N   0  0  0  0  0  0  0  0  0  0  0  0
  -32.6900  -14.8220   19.6710 O   0  0  0  0  0  0  0  0  0  0  0  0
  -30.7280  -15.6940   20.4350 N   0  0  0  0  0  0  0  0  0  0  0  0
  -29.7550  -15.4360   20.4230 H   0  0  0  0  0  0  0  0  0  0  0  0
  -26.1300  -14.2840   20.2090 C   0  0  0  0  0  0  0  0  0  0  0  0
  -25.0200  -13.6010   20.6160 C   0  0  0  0  0  0  0  0  0  0  0  0
  -25.3720  -12.2150   20.5700 C   0  0  0  0  0  0  0  0  0  0  0  0
  -27.0910  -13.3240   19.9330 N   0  0  0  0  0  0  0  0  0  0  0  0
  -26.6460  -12.0740   20.2190 N   0  0  0  0  0  0  0  0  0  0  0  0
  -24.5600  -11.0190   20.7850 C   0  0  0  0  0  0  0  0  0  0  0  0
  -24.9230  -10.0380   21.7320 C   0  0  0  0  0  3  0  0  0  0  0  0
  -24.1100   -8.9000   21.9290 C   0  0  0  0  0  3  0  0  0  0  0  0
  -22.9220   -8.7390   21.1760 C   0  0  0  0  0  0  0  0  0  0  0  0
  -22.5850   -9.7050   20.2140 C   0  0  0  0  0  3  0  0  0  0  0  0
  -23.3980  -10.8320   20.0170 C   0  0  0  0  0  3  0  0  0  0  0  0
  -22.0910   -7.6500   21.2670 O   0  0  0  0  0  0  0  0  0  0  0  0
  -21.9320   -6.9650   22.4450 C   0  0  0  0  0  0  0  0  0  0  0  0
  -21.5000   -7.6090   23.6250 C   0  0  0  0  0  3  0  0  0  0  0  0
  -21.2890   -6.8580   24.8000 C   0  0  0  0  0  3  0  0  0  0  0  0
  -21.4970   -5.4660   24.7940 C   0  0  0  0  0  0  0  0  0  0  0  0
  -21.9150   -4.8230   23.6150 C   0  0  0  0  0  3  0  0  0  0  0  0
  -22.1320   -5.5710   22.4450 C   0  0  0  0  0  0  0  0  0  0  0  0
  -22.5220   -4.9420   21.3100 F   0  0  0  0  0  0  0  0  0  0  0  0
  -21.2870   -4.7440   25.9200 F   0  0  0  0  0  0  0  0  0  0  0  0
  -23.6710  -14.1810   20.9360 C   0  0  0  0  0  0  0  0  0  0  0  0
  -22.9310  -13.5560   21.8400 N   0  0  0  0  0  0  0  0  0  0  0  0
  -23.2920  -15.2280   20.4130 O   0  0  0  0  0  0  0  0  0  0  0  0
  -23.2450  -12.7020   22.2820 H   0  0  0  0  0  0  0  0  0  0  0  0
  -22.0310  -13.9340   22.1000 H   0  0  0  0  0  0  0  0  0  0  0  0
  -26.3980  -15.6410   20.0280 N   0  0  0  0  0  0  0  0  0  0  0  0
  -25.6690  -16.3340   20.1560 H   0  0  0  0  0  0  0  0  0  0  0  0
  -27.1990  -16.0040   19.5320 H   0  0  0  0  0  0  0  0  0  0  0  0
  -30.2870  -16.5680   22.6210 C   0  0  0  0  0  2  0  0  0  0  0  0
  -30.5530  -17.5240   23.7070 N   0  0  0  0  0  4  0  0  0  0  0  0
  -30.4660  -18.4760   23.3980 H   0  0  0  0  0  0  0  0  0  0  0  0
  -31.4760  -17.3810   24.0730 H   0  0  0  0  0  0  0  0  0  0  0  0
  -29.9010  -17.3690   24.4590 H   0  0  0  0  0  0  0  0  0  0  0  0
  1  4  1  0
  2  6  1  0
  3  5  1  0
  3  1  2  0
  4  6  2  0
  4 60  1  0
  5  2  2  0
  6  7  1  0
  8  9  1  0
  8  3  1  0
  9 11  1  0
 10  8  2  0
 12  9  1  0
 13  5  1  0
 13 14  1  0
 14 17  1  0
 14 15  1  0
 16 14  1  0
 17 18  1  0
 19 21  1  0
 19 18  1  0
 20 31  2  0
 21 26  1  0
 22 30  1  0
 22 32  1  0
 23 29  1  0
 23 25  1  0
 24 30  1  0
 25 24  1  0
 26 25  2  0
 27 28  1  0
 27 21  2  0
 28 23  2  0
 29 22  1  0
 30 20  1  0
 32 34  2  0
 33 32  1  0
 35 33  1  0
 36 45  2  0
 36 41  1  0
 37 33  1  0
 37 41  1  0
 38 37  1  0
 39 40  1  0
 39 38  1  0
 40 36  1  0
 41 42  2  0
 42 43  1  0
 44 43  2  0
 45 44  1  0
 46 20  1  0
 46 47  1  0
 46 56  1  0
 47 50  1  0
 48 52  1  0
 48 47  1  0
 49 48  2  0
 52 51  1  0
 54 52  1  0
 54 55  1  0
 54 53  1  0
 56 59  1  1
 56 57  1  0
 58 56  1  0
 60 99  1  0
 61 69  1  0
 62 67  1  0
 63 64  1  0
 63 62  1  0
 65 64  1  0
 65 74  1  0
 65 66  1  0
 67 61  1  0
 67 66  1  0
 68 61  2  0
 69 60  1  0
 70 69  1  0
 71 72  2  0
 72 91  1  0
 73 72  1  0
 73 76  1  0
 74 71  1  0
 74 75  1  0
 75 73  2  0
 76 77  1  0
 77 78  2  0
 79 82  1  0
 79 78  1  0
 80 79  2  0
 81 80  1  0
 81 76  2  0
 82 83  1  0
 83 84  1  0
 84 85  2  0
 86 85  1  0
 86 90  1  0
 87 86  2  0
 88 83  2  0
 88 87  1  0
 89 88  1  0
 91 92  1  0
 92 95  1  0
 92 94  1  0
 93 91  2  0
 96 97  1  0
 96 71  1  0
 98 96  1  0
 99100  1  0
100102  1  0
100103  1  0
101100  1  0
M  ISO  4  18 101  19 101  61 100  69 100
M  END
>  <TORSDO>  (97) 
F 24

>  <SCORE>  (97) 
-11.760

>  <name>  (97) 
98

>  <ligand_id>  (97) 
98

>  <original_smiles>  (97) 
[H]c1c([H])c([H])c2c(c1[H])C([H])([H])C([H])([H])C([H])([H])C2([H])N([H])C(=O)C1([H])N(C(=O)C([H])(N([H])C(=O)C([H])(N([H])C([H])([H])[H])C([H])([H])[H])C(C([H])([H])[H])(C([H])([H])[H])C([H])([H])[H])C([H])([H])c2c([H])c(OC([H])([H])C([H])([H])[N+]([H])([H])C([H])([H])c3c([H])c(C([H])([H])[H])c(C([H])(N([H])C(=O)N4C([H])([H])C([H])([H])C([H])([H])C([H])(n5nc(-c6c([H])c([H])c(Oc7c([H])c([H])c(F)c([H])c7F)c([H])c6[H])c(C(=O)N([H])[H])c5N([H])[H])C4([H])[H])C([H])([H])[N+]([H])([H])[H])c([H])c3C(=O)N([H])[H])c([H])c([H])c2C1([H])[H]

>  <smiles>  (97) 
[H]c1c([H])c([H])c2c(c1[H])C([H])([H])C([H])([H])C([H])([H])C2([H])N([H])C(=O)C1([H])N(C(=O)C([H])(N([H])C(=O)C([H])(N([H])C([H])([H])[H])C([H])([H])[H])C(C([H])([H])[H])(C([H])([H])[H])C([H])([H])[H])C([H])([H])c2c([H])c(OC([H])([H])C([H])([H])[N+]([H])([H])C([H])([H])c3c([H])c(C([H])([H])[H])c(C([H])(N([H])C(=O)N4C([H])([H])C([H])([H])C([H])([H])C([H])(n5nc(-c6c([H])c([H])c(Oc7c([H])c([H])c(F)c([H])c7F)c([H])c6[H])c(C(=O)N([H])[H])c5N([H])[H])C4([H])[H])C([H])([H])[N+]([H])([H])[H])c([H])c3C(=O)N([H])[H])c([H])c([H])c2C1([H])[H]

$$$$
99:0:0
     RDKit          3D

 99107  0  0  1  0  0  0  0  0999 V2000
  -29.6780  -19.5790   20.5680 C   0  0  0  0  0  3  0  0  0  0  0  0
  -32.1460  -19.2510   19.2830 C   0  0  0  0  0  3  0  0  0  0  0  0
  -30.3100  -18.3040   20.5720 C   0  0  0  0  0  0  0  0  0  0  0  0
  -31.5740  -18.1360   19.9370 C   0  0  0  0  0  0  0  0  0  0  0  0
  -30.2960  -20.7100   19.9790 C   0  0  0  0  0  0  0  0  0  0  0  0
  -31.5240  -20.5150   19.3110 C   0  0  0  0  0  0  0  0  0  0  0  0
  -32.1310  -21.5700   18.7110 F   0  0  0  0  0  0  0  0  0  0  0  0
  -29.6350  -17.1680   21.2860 C   0  0  0  0  0  0  0  0  0  0  0  0
  -29.7540  -17.1720   22.6070 N   0  0  0  0  0  0  0  0  0  0  0  0
  -29.0480  -16.2740   20.6820 O   0  0  0  0  0  0  0  0  0  0  0  0
  -30.2920  -17.8920   23.0660 H   0  0  0  0  0  0  0  0  0  0  0  0
  -29.3420  -16.4300   23.1550 H   0  0  0  0  0  0  0  0  0  0  0  0
  -29.7800  -22.0300   20.0250 N   0  0  0  0  0  0  0  0  0  0  0  0
  -30.3170  -22.7390   19.5340 H   0  0  0  0  0  0  0  0  0  0  0  0
  -28.5290  -22.4410   22.1310 C   0  0  0  0  0  1  0  0  0  0  0  0
  -28.4820  -22.4250   20.5930 C   0  0  0  0  0  3  0  0  0  0  0  0
  -28.0120  -23.7990   18.4540 C   0  0  0  0  0  1  0  0  0  0  0  0
  -27.9030  -23.7630   19.9900 C   0  0  0  0  0  3  0  0  0  0  0  0
  -28.3990  -25.1040   20.6260 C   0  0  0  0  0  2  0  0  0  0  0  0
  -28.3250  -26.2830   19.7940 O   0  0  0  0  0  0  0  0  0  0  0  0
  -24.8030  -31.5710   23.0660 C   0  0  0  0  0  0  0  0  0  0  0  0
  -27.1860  -27.0570   19.8760 C   0  0  0  0  0  0  0  0  0  0  0  0
  -23.5030  -30.2460   21.4330 C   0  0  0  0  0  3  0  0  0  0  0  0
  -24.8600  -28.6700   19.9530 C   0  0  0  0  0  0  0  0  0  0  0  0
  -26.0350  -30.5040   21.1780 C   0  0  0  0  0  2  0  0  0  0  0  0
  -26.0510  -29.1340   20.5260 C   0  0  0  0  0  0  0  0  0  0  0  0
  -27.2190  -28.3340   20.4850 C   0  0  0  0  0  3  0  0  0  0  0  0
  -25.9830  -26.6170   19.2860 C   0  0  0  0  0  3  0  0  0  0  0  0
  -24.8220  -27.4100   19.3270 C   0  0  0  0  0  3  0  0  0  0  0  0
  -23.6520  -29.5780   20.0400 C   0  0  0  0  0  2  0  0  0  0  0  0
  -24.8020  -30.7860   21.9510 N   0  0  0  0  0  0  0  0  0  0  0  0
  -23.7470  -31.8790   23.6360 O   0  0  0  0  0  0  0  0  0  0  0  0
  -22.8310  -29.2390   22.3940 C   0  0  0  0  0  0  0  0  0  0  0  0
  -21.5030  -29.0840   22.2670 N   0  0  0  0  0  0  0  0  0  0  0  0
  -23.5020  -28.5980   23.2080 O   0  0  0  0  0  0  0  0  0  0  0  0
  -21.0210  -29.6490   21.5830 H   0  0  0  0  0  0  0  0  0  0  0  0
  -18.1080  -27.9490   22.7570 C   0  0  0  0  0  0  0  0  0  0  0  0
  -20.6680  -28.1610   23.0370 C   0  0  0  0  0  3  0  0  0  0  0  0
  -20.7480  -26.7280   22.4610 C   0  0  0  0  0  2  0  0  0  0  0  0
  -19.6430  -26.4250   21.4440 C   0  0  0  0  0  2  0  0  0  0  0  0
  -18.2620  -26.5960   22.0840 C   0  0  0  0  0  2  0  0  0  0  0  0
  -19.2380  -28.6910   23.1900 C   0  0  0  0  0  0  0  0  0  0  0  0
  -19.0410  -29.9600   23.7780 C   0  0  0  0  0  3  0  0  0  0  0  0
  -17.7450  -30.4860   23.9360 C   0  0  0  0  0  3  0  0  0  0  0  0
  -16.6290  -29.7400   23.5220 C   0  0  0  0  0  3  0  0  0  0  0  0
  -16.8120  -28.4730   22.9370 C   0  0  0  0  0  3  0  0  0  0  0  0
  -26.1280  -32.1390   23.6640 C   0  0  0  0  0  3  0  0  0  0  0  0
  -25.8700  -33.5280   24.0690 N   0  0  0  0  0  0  0  0  0  0  0  0
  -26.2180  -34.6050   23.3550 C   0  0  0  0  0  0  0  0  0  0  0  0
  -26.8590  -34.5330   22.3030 O   0  0  0  0  0  0  0  0  0  0  0  0
  -25.3020  -33.6590   24.8920 H   0  0  0  0  0  0  0  0  0  0  0  0
  -24.5290  -36.4560   23.1400 C   0  0  0  0  0  1  0  0  0  0  0  0
  -25.7840  -35.9830   23.8900 C   0  0  0  0  0  3  0  0  0  0  0  0
  -27.9670  -36.7750   24.6890 C   0  0  0  0  0  1  0  0  0  0  0  0
  -26.8400  -37.0130   23.7910 N   0  0  0  0  0  0  0  0  0  0  0  0
  -26.4640  -37.9350   23.9930 H   0  0  0  0  0  0  0  0  0  0  0  0
  -26.6740  -31.2930   24.8790 C   0  0  1  0  0  0  0  0  0  0  0  0
  -25.6060  -30.9900   25.9570 C   0  0  0  0  0  1  0  0  0  0  0  0
  -27.2460  -29.9420   24.3890 C   0  0  0  0  0  1  0  0  0  0  0  0
  -27.8420  -32.0440   25.5600 C   0  0  0  0  0  1  0  0  0  0  0  0
  -32.4250  -16.8560   20.0580 C   0  0  0  0  0  2  0  0  0  0  0  0
  -32.2920  -14.4300   19.4310 C   0  0  0  0  0  0  0  0  0  0  0  0
  -31.8950  -12.0450   18.8970 C   0  0  0  0  0  2  0  0  0  0  0  0
  -30.9100  -11.9160   17.7180 C   0  0  0  0  0  2  0  0  0  0  0  0
  -29.4520  -11.9460   18.2120 C   0  0  0  0  0  2  0  0  0  0  0  0
  -29.1760  -13.1150   19.1940 C   0  0  0  0  0  3  0  0  0  0  0  0
  -30.2650  -13.1870   20.2880 C   0  0  0  0  0  2  0  0  0  0  0  0
  -31.5710  -13.2900   19.6160 N   0  0  0  0  0  0  0  0  0  0  0  0
  -33.3700  -14.4430   18.8320 O   0  0  0  0  0  0  0  0  0  0  0  0
  -31.7440  -15.5630   19.9040 N   0  0  0  0  0  0  0  0  0  0  0  0
  -30.8160  -15.5070   20.3060 H   0  0  0  0  0  0  0  0  0  0  0  0
  -26.9400  -14.0350   20.0810 C   0  0  0  0  0  0  0  0  0  0  0  0
  -25.8020  -13.4120   20.5140 C   0  0  0  0  0  0  0  0  0  0  0  0
  -26.0650  -12.0090   20.4350 C   0  0  0  0  0  0  0  0  0  0  0  0
  -27.8350  -13.0230   19.7700 N   0  0  0  0  0  0  0  0  0  0  0  0
  -27.3120  -11.7960   20.0350 N   0  0  0  0  0  0  0  0  0  0  0  0
  -25.1820  -10.8580   20.6630 C   0  0  0  0  0  0  0  0  0  0  0  0
  -25.4580   -9.8990   21.6620 C   0  0  0  0  0  3  0  0  0  0  0  0
  -24.5850   -8.8120   21.8750 C   0  0  0  0  0  3  0  0  0  0  0  0
  -23.4170   -8.6770   21.0850 C   0  0  0  0  0  0  0  0  0  0  0  0
  -23.1580   -9.6220   20.0770 C   0  0  0  0  0  3  0  0  0  0  0  0
  -24.0310  -10.7010   19.8650 C   0  0  0  0  0  3  0  0  0  0  0  0
  -22.5230   -7.6400   21.2030 O   0  0  0  0  0  0  0  0  0  0  0  0
  -22.2340   -7.0750   22.4170 C   0  0  0  0  0  0  0  0  0  0  0  0
  -21.7010   -7.8300   23.4860 C   0  0  0  0  0  3  0  0  0  0  0  0
  -21.3520   -7.1940   24.6930 C   0  0  0  0  0  3  0  0  0  0  0  0
  -21.5260   -5.8050   24.8340 C   0  0  0  0  0  0  0  0  0  0  0  0
  -22.0520   -5.0490   23.7710 C   0  0  0  0  0  3  0  0  0  0  0  0
  -22.4010   -5.6830   22.5650 C   0  0  0  0  0  0  0  0  0  0  0  0
  -22.8880   -4.9460   21.5370 F   0  0  0  0  0  0  0  0  0  0  0  0
  -21.1830   -5.1920   25.9910 F   0  0  0  0  0  0  0  0  0  0  0  0
  -24.5120  -14.0750   20.9010 C   0  0  0  0  0  0  0  0  0  0  0  0
  -23.7800  -13.4890   21.8420 N   0  0  0  0  0  0  0  0  0  0  0  0
  -24.1680  -15.1460   20.4020 O   0  0  0  0  0  0  0  0  0  0  0  0
  -24.0740  -12.6220   22.2660 H   0  0  0  0  0  0  0  0  0  0  0  0
  -22.9150  -13.9160   22.1440 H   0  0  0  0  0  0  0  0  0  0  0  0
  -27.2830  -15.3710   19.9120 N   0  0  0  0  0  0  0  0  0  0  0  0
  -26.6490  -16.1220   20.1620 H   0  0  0  0  0  0  0  0  0  0  0  0
  -28.2290  -15.6920   19.7400 H   0  0  0  0  0  0  0  0  0  0  0  0
  1  3  1  0
  2  6  2  0
  2  4  1  0
  3  8  1  0
  4 61  1  0
  4  3  2  0
  5 13  1  0
  5  1  2  0
  6  5  1  0
  7  6  1  0
  8  9  1  0
  9 11  1  0
  9 12  1  0
 10  8  2  0
 13 16  1  0
 14 13  1  0
 16 15  1  0
 18 17  1  0
 18 16  1  0
 18 19  1  0
 20 22  1  0
 20 19  1  0
 21 32  2  0
 22 27  1  0
 23 31  1  0
 23 33  1  0
 24 30  1  0
 24 26  1  0
 25 31  1  0
 26 25  1  0
 27 26  2  0
 28 29  1  0
 28 22  2  0
 29 24  2  0
 30 23  1  0
 31 21  1  0
 33 35  2  0
 34 33  1  0
 36 34  1  0
 37 46  2  0
 37 42  1  0
 38 34  1  0
 38 42  1  0
 39 38  1  0
 40 41  1  0
 40 39  1  0
 41 37  1  0
 42 43  2  0
 43 44  1  0
 45 44  2  0
 46 45  1  0
 47 21  1  0
 47 48  1  0
 47 57  1  0
 48 51  1  0
 49 53  1  0
 49 48  1  0
 50 49  2  0
 53 52  1  0
 55 53  1  0
 55 56  1  0
 55 54  1  0
 57 60  1  1
 57 58  1  0
 59 57  1  0
 62 68  1  0
 62 70  1  0
 63 68  1  0
 64 65  1  0
 64 63  1  0
 66 65  1  0
 66 75  1  0
 66 67  1  0
 68 67  1  0
 69 62  2  0
 70 61  1  0
 70 71  1  0
 72 73  2  0
 73 92  1  0
 74 73  1  0
 74 77  1  0
 75 76  1  0
 75 72  1  0
 76 74  2  0
 77 78  1  0
 78 79  2  0
 80 83  1  0
 80 79  1  0
 81 80  2  0
 82 81  1  0
 82 77  2  0
 83 84  1  0
 84 89  2  0
 84 85  1  0
 85 86  2  0
 86 87  1  0
 87 91  1  0
 88 87  2  0
 89 88  1  0
 90 89  1  0
 92 93  1  0
 93 96  1  0
 93 95  1  0
 94 92  2  0
 97 72  1  0
 97 98  1  0
 99 97  1  0
M  ISO  4  19 101  20 101  62 100  70 100
M  END
>  <TORSDO>  (98) 
F 22

>  <SCORE>  (98) 
-10.658

>  <name>  (98) 
99

>  <ligand_id>  (98) 
99

>  <original_smiles>  (98) 
[H]c1c([H])c([H])c2c(c1[H])C([H])([H])C([H])([H])C([H])([H])C2([H])N([H])C(=O)C1([H])N(C(=O)C([H])(N([H])C(=O)C([H])(N([H])C([H])([H])[H])C([H])([H])[H])C(C([H])([H])[H])(C([H])([H])[H])C([H])([H])[H])C([H])([H])c2c([H])c(OC([H])([H])C([H])(C([H])([H])[H])C([H])(N([H])c3c([H])c(C(=O)N([H])[H])c(C([H])([H])N([H])C(=O)N4C([H])([H])C([H])([H])C([H])([H])C([H])(n5nc(-c6c([H])c([H])c(Oc7c([H])c([H])c(F)c([H])c7F)c([H])c6[H])c(C(=O)N([H])[H])c5N([H])[H])C4([H])[H])c([H])c3F)C([H])([H])[H])c([H])c([H])c2C1([H])[H]

>  <smiles>  (98) 
[H]c1c([H])c([H])c2c(c1[H])C([H])([H])C([H])([H])C([H])([H])C2([H])N([H])C(=O)C1([H])N(C(=O)C([H])(N([H])C(=O)C([H])(N([H])C([H])([H])[H])C([H])([H])[H])C(C([H])([H])[H])(C([H])([H])[H])C([H])([H])[H])C([H])([H])c2c([H])c(OC([H])([H])C([H])(C([H])([H])[H])C([H])(N([H])c3c([H])c(C(=O)N([H])[H])c(C([H])([H])N([H])C(=O)N4C([H])([H])C([H])([H])C([H])([H])C([H])(n5nc(-c6c([H])c([H])c(Oc7c([H])c([H])c(F)c([H])c7F)c([H])c6[H])c(C(=O)N([H])[H])c5N([H])[H])C4([H])[H])c([H])c3F)C([H])([H])[H])c([H])c([H])c2C1([H])[H]

$$$$
