0:0:0
     RDKit          3D

100108  0  0  1  0  0  0  0  0999 V2000
  -31.5680  -20.5500   22.7390 C   0  0  0  0  0  0  0  0  0  0  0  0
  -30.5000  -21.3610   22.7460 N   0  0  0  0  0  0  0  0  0  0  0  0
  -32.6650  -20.9100   23.1750 O   0  0  0  0  0  0  0  0  0  0  0  0
  -29.6390  -20.9840   22.3730 H   0  0  0  0  0  0  0  0  0  0  0  0
  -30.0330  -18.6390   22.1550 C   0  0  0  0  0  3  0  0  0  0  0  0
  -32.1260  -17.0180   21.2520 C   0  0  0  0  0  3  0  0  0  0  0  0
  -31.3490  -19.1630   22.1650 C   0  0  0  0  0  0  0  0  0  0  0  0
  -29.7540  -17.3390   21.6910 C   0  0  0  0  0  0  0  0  0  0  0  0
  -32.4070  -18.3300   21.6940 C   0  0  0  0  0  0  0  0  0  0  0  0
  -30.8040  -16.5090   21.2440 C   0  0  0  0  0  0  0  0  0  0  0  0
  -28.3120  -16.8530   21.6810 C   0  0  0  0  0  1  0  0  0  0  0  0
  -30.8500  -14.4780   19.7710 C   0  0  0  0  0  0  0  0  0  0  0  0
  -30.3690  -12.4710   18.4150 C   0  0  0  0  0  2  0  0  0  0  0  0
  -29.2860  -12.7680   17.3610 C   0  0  0  0  0  2  0  0  0  0  0  0
  -27.8760  -12.5760   17.9510 C   0  0  0  0  0  2  0  0  0  0  0  0
  -27.6930  -13.3120   19.3040 C   0  0  0  0  0  3  0  0  0  0  0  0
  -28.8660  -12.9910   20.2570 C   0  0  0  0  0  2  0  0  0  0  0  0
  -30.1310  -13.3410   19.5770 N   0  0  0  0  0  0  0  0  0  0  0  0
  -31.7820  -14.8150   19.0350 O   0  0  0  0  0  0  0  0  0  0  0  0
  -30.4730  -15.1810   20.8490 N   0  0  0  0  0  0  0  0  0  0  0  0
  -29.7160  -14.7570   21.3590 H   0  0  0  0  0  0  0  0  0  0  0  0
  -25.3780  -13.8460   20.3050 C   0  0  0  0  0  0  0  0  0  0  0  0
  -24.3680  -13.0380   20.7510 C   0  0  0  0  0  0  0  0  0  0  0  0
  -24.8360  -11.6970   20.5940 C   0  0  0  0  0  0  0  0  0  0  0  0
  -26.4020  -12.9960   19.9120 N   0  0  0  0  0  0  0  0  0  0  0  0
  -26.0830  -11.6950   20.1400 N   0  0  0  0  0  0  0  0  0  0  0  0
  -24.1510  -10.4140   20.7970 C   0  0  0  0  0  0  0  0  0  0  0  0
  -24.6290   -9.4610   21.7230 C   0  0  0  0  0  3  0  0  0  0  0  0
  -23.9430   -8.2420   21.9140 C   0  0  0  0  0  3  0  0  0  0  0  0
  -22.7660   -7.9670   21.1770 C   0  0  0  0  0  0  0  0  0  0  0  0
  -22.3090   -8.9100   20.2400 C   0  0  0  0  0  3  0  0  0  0  0  0
  -22.9950  -10.1200   20.0480 C   0  0  0  0  0  3  0  0  0  0  0  0
  -22.0490   -6.8000   21.2780 O   0  0  0  0  0  0  0  0  0  0  0  0
  -21.9170   -6.1350   22.4710 C   0  0  0  0  0  0  0  0  0  0  0  0
  -21.3940   -6.7650   23.6220 C   0  0  0  0  0  3  0  0  0  0  0  0
  -21.2120   -6.0260   24.8070 C   0  0  0  0  0  3  0  0  0  0  0  0
  -21.5430   -4.6580   24.8430 C   0  0  0  0  0  0  0  0  0  0  0  0
  -22.0580   -4.0280   23.6970 C   0  0  0  0  0  3  0  0  0  0  0  0
  -22.2420   -4.7650   22.5130 C   0  0  0  0  0  0  0  0  0  0  0  0
  -22.7200   -4.1470   21.4060 F   0  0  0  0  0  0  0  0  0  0  0  0
  -21.3600   -3.9460   25.9790 F   0  0  0  0  0  0  0  0  0  0  0  0
  -23.0050  -13.4740   21.2070 C   0  0  0  0  0  0  0  0  0  0  0  0
  -22.3970  -12.7310   22.1260 N   0  0  0  0  0  0  0  0  0  0  0  0
  -22.4900  -14.5090   20.7840 O   0  0  0  0  0  0  0  0  0  0  0  0
  -22.8280  -11.8920   22.4890 H   0  0  0  0  0  0  0  0  0  0  0  0
  -21.4880  -13.0020   22.4710 H   0  0  0  0  0  0  0  0  0  0  0  0
  -25.5050  -15.2260   20.1790 N   0  0  0  0  0  0  0  0  0  0  0  0
  -24.7460  -15.8610   20.3990 H   0  0  0  0  0  0  0  0  0  0  0  0
  -26.3010  -15.6910   19.7600 H   0  0  0  0  0  0  0  0  0  0  0  0
  -33.7430  -18.7460   21.6420 N   0  0  0  0  0  0  0  0  0  0  0  0
  -34.4740  -18.0420   21.6010 H   0  0  0  0  0  0  0  0  0  0  0  0
  -33.9980  -19.5470   22.2180 H   0  0  0  0  0  0  0  0  0  0  0  0
  -30.4440  -22.6480   23.4390 C   0  0  0  0  0  2  0  0  0  0  0  0
  -30.6830  -23.8480   22.5070 C   0  0  0  0  0  2  0  0  0  0  0  0
  -29.7410  -23.8640   21.3680 N   0  0  0  0  0  4  0  0  0  0  0  0
  -28.8130  -23.7290   21.7400 H   0  0  0  0  0  0  0  0  0  0  0  0
  -29.9470  -23.0870   20.7590 H   0  0  0  0  0  0  0  0  0  0  0  0
  -29.7710  -25.1310   20.6010 C   0  0  0  0  0  2  0  0  0  0  0  0
  -28.5830  -25.2750   19.6370 C   0  0  0  0  0  2  0  0  0  0  0  0
  -28.5490  -26.6420   19.2410 O   0  0  0  0  0  0  0  0  0  0  0  0
  -24.8970  -31.4540   22.9690 C   0  0  0  0  0  0  0  0  0  0  0  0
  -27.3540  -27.2980   19.4010 C   0  0  0  0  0  0  0  0  0  0  0  0
  -23.5850  -30.1540   21.3200 C   0  0  0  0  0  3  0  0  0  0  0  0
  -24.9450  -28.7360   19.6970 C   0  0  0  0  0  0  0  0  0  0  0  0
  -26.0820  -30.5680   20.9670 C   0  0  0  0  0  2  0  0  0  0  0  0
  -26.1350  -29.2450   20.2300 C   0  0  0  0  0  0  0  0  0  0  0  0
  -27.3430  -28.5340   20.0780 C   0  0  0  0  0  3  0  0  0  0  0  0
  -26.1480  -26.7870   18.8720 C   0  0  0  0  0  3  0  0  0  0  0  0
  -24.9430  -27.5030   19.0180 C   0  0  0  0  0  3  0  0  0  0  0  0
  -23.6990  -29.5700   19.8860 C   0  0  0  0  0  2  0  0  0  0  0  0
  -24.8770  -30.7350   21.8110 N   0  0  0  0  0  0  0  0  0  0  0  0
  -23.8560  -31.6740   23.6030 O   0  0  0  0  0  0  0  0  0  0  0  0
  -23.0130  -29.0610   22.2500 C   0  0  0  0  0  0  0  0  0  0  0  0
  -21.6880  -28.8520   22.1810 N   0  0  0  0  0  0  0  0  0  0  0  0
  -23.7540  -28.4050   22.9860 O   0  0  0  0  0  0  0  0  0  0  0  0
  -21.1500  -29.4360   21.5580 H   0  0  0  0  0  0  0  0  0  0  0  0
  -18.3720  -27.5540   22.7790 C   0  0  0  0  0  0  0  0  0  0  0  0
  -20.9360  -27.8500   22.9340 C   0  0  0  0  0  3  0  0  0  0  0  0
  -21.0350  -26.4590   22.2630 C   0  0  0  0  0  2  0  0  0  0  0  0
  -19.8860  -26.1760   21.2900 C   0  0  0  0  0  2  0  0  0  0  0  0
  -18.5380  -26.2510   22.0150 C   0  0  0  0  0  2  0  0  0  0  0  0
  -19.4980  -28.3110   23.1970 C   0  0  0  0  0  0  0  0  0  0  0  0
  -19.2890  -29.5330   23.8740 C   0  0  0  0  0  3  0  0  0  0  0  0
  -17.9860  -29.9940   24.1400 C   0  0  0  0  0  3  0  0  0  0  0  0
  -16.8750  -29.2320   23.7380 C   0  0  0  0  0  3  0  0  0  0  0  0
  -17.0700  -28.0130   23.0640 C   0  0  0  0  0  3  0  0  0  0  0  0
  -26.2220  -32.0530   23.5380 C   0  0  0  0  0  3  0  0  0  0  0  0
  -25.9230  -33.4080   24.0170 N   0  0  0  0  0  0  0  0  0  0  0  0
  -26.1990  -34.5300   23.3410 C   0  0  0  0  0  0  0  0  0  0  0  0
  -26.8040  -34.5330   22.2640 O   0  0  0  0  0  0  0  0  0  0  0  0
  -25.3780  -33.4780   24.8640 H   0  0  0  0  0  0  0  0  0  0  0  0
  -24.4420  -36.3270   23.2500 C   0  0  0  0  0  1  0  0  0  0  0  0
  -25.7280  -35.8640   23.9540 C   0  0  0  0  0  3  0  0  0  0  0  0
  -27.8950  -36.6920   24.7570 C   0  0  0  0  0  1  0  0  0  0  0  0
  -26.7470  -36.9340   23.8870 N   0  0  0  0  0  0  0  0  0  0  0  0
  -26.3430  -37.8320   24.1380 H   0  0  0  0  0  0  0  0  0  0  0  0
  -26.8550  -31.1800   24.6880 C   0  0  1  0  0  0  0  0  0  0  0  0
  -25.8520  -30.7920   25.7990 C   0  0  0  0  0  1  0  0  0  0  0  0
  -27.4540  -29.8750   24.1150 C   0  0  0  0  0  1  0  0  0  0  0  0
  -28.0240  -31.9490   25.3490 C   0  0  0  0  0  1  0  0  0  0  0  0
  1  2  1  0
  1  3  2  0
  2 53  1  0
  4  2  1  0
  5  7  1  0
  6  9  1  0
  7  1  1  0
  8  5  2  0
  9  7  2  0
 10  6  2  0
 10  8  1  0
 11  8  1  0
 12 20  1  0
 13 18  1  0
 14 15  1  0
 14 13  1  0
 16 15  1  0
 16 25  1  0
 16 17  1  0
 18 12  1  0
 18 17  1  0
 19 12  2  0
 20 10  1  0
 20 21  1  0
 22 23  2  0
 23 42  1  0
 24 23  1  0
 24 27  1  0
 25 26  1  0
 25 22  1  0
 26 24  2  0
 27 28  1  0
 28 29  2  0
 30 33  1  0
 30 29  1  0
 31 30  2  0
 32 31  1  0
 32 27  2  0
 33 34  1  0
 34 39  2  0
 34 35  1  0
 35 36  2  0
 36 37  1  0
 37 41  1  0
 38 37  2  0
 39 38  1  0
 40 39  1  0
 42 43  1  0
 43 46  1  0
 43 45  1  0
 44 42  2  0
 47 22  1  0
 47 48  1  0
 49 47  1  0
 50  9  1  0
 50 52  1  0
 51 50  1  0
 54 53  1  0
 55 56  1  0
 55 54  1  0
 57 55  1  0
 58 55  1  0
 59 58  1  0
 60 62  1  0
 60 59  1  0
 61 72  2  0
 62 67  1  0
 63 71  1  0
 63 73  1  0
 64 70  1  0
 64 66  1  0
 65 71  1  0
 66 65  1  0
 67 66  2  0
 68 69  1  0
 68 62  2  0
 69 64  2  0
 70 63  1  0
 71 61  1  0
 73 75  2  0
 74 73  1  0
 76 74  1  0
 77 86  2  0
 77 82  1  0
 78 74  1  0
 78 82  1  0
 79 78  1  0
 80 81  1  0
 80 79  1  0
 81 77  1  0
 82 83  2  0
 83 84  1  0
 85 84  2  0
 86 85  1  0
 87 61  1  0
 87 88  1  0
 87 97  1  0
 88 91  1  0
 89 93  1  0
 89 88  1  0
 90 89  2  0
 93 92  1  0
 95 93  1  0
 95 96  1  0
 95 94  1  0
 97100  1  1
 97 98  1  0
 99 97  1  0
M  ISO  4  12 100  20 100  59 101  60 101
M  END
>  <TORSDO>  (1) 
F 23

>  <SCORE>  (1) 
-7.156

>  <name>  (1) 
0

>  <ligand_id>  (1) 
0

>  <original_smiles>  (1) 
[H]c1c([H])c([H])c2c(c1[H])C([H])([H])C([H])([H])C([H])([H])C2([H])N([H])C(=O)C1([H])N(C(=O)C([H])(N([H])C(=O)C([H])(N([H])C([H])([H])[H])C([H])([H])[H])C(C([H])([H])[H])(C([H])([H])[H])C([H])([H])[H])C([H])([H])c2c([H])c(OC([H])([H])C([H])([H])[N+]([H])([H])C([H])([H])C([H])([H])N([H])C(=O)c3c([H])c(C([H])([H])[H])c(N([H])C(=O)N4C([H])([H])C([H])([H])C([H])([H])C([H])(n5nc(-c6c([H])c([H])c(Oc7c([H])c([H])c(F)c([H])c7F)c([H])c6[H])c(C(=O)N([H])[H])c5N([H])[H])C4([H])[H])c([H])c3N([H])[H])c([H])c([H])c2C1([H])[H]

>  <smiles>  (1) 
[H]c1c([H])c([H])c2c(c1[H])C([H])([H])C([H])([H])C([H])([H])C2([H])N([H])C(=O)C1([H])N(C(=O)C([H])(N([H])C(=O)C([H])(N([H])C([H])([H])[H])C([H])([H])[H])C(C([H])([H])[H])(C([H])([H])[H])C([H])([H])[H])C([H])([H])c2c([H])c(OC([H])([H])C([H])([H])[N+]([H])([H])C([H])([H])C([H])([H])N([H])C(=O)c3c([H])c(C([H])([H])[H])c(N([H])C(=O)N4C([H])([H])C([H])([H])C([H])([H])C([H])(n5nc(-c6c([H])c([H])c(Oc7c([H])c([H])c(F)c([H])c7F)c([H])c6[H])c(C(=O)N([H])[H])c5N([H])[H])C4([H])[H])c([H])c3N([H])[H])c([H])c([H])c2C1([H])[H]

$$$$
1:0:0
     RDKit          3D

 93102  0  0  1  0  0  0  0  0999 V2000
  -30.0610  -19.7350   22.2250 C   0  0  0  0  0  2  0  0  0  0  0  0
  -29.1280  -18.7030   21.5750 C   0  0  0  0  0  2  0  0  0  0  0  0
  -29.2510  -19.1490   18.9660 C   0  0  0  0  0  2  0  0  0  0  0  0
  -29.2350  -20.7130   18.8720 C   0  0  0  0  0  2  0  0  0  0  0  0
  -30.4550  -20.1810   20.8110 C   0  0  0  0  0  3  0  0  0  0  0  0
  -29.9730  -18.7650   20.2730 C   0  0  1  0  0  0  0  0  0  0  0  0
  -29.5730  -21.2670   20.2120 N   0  0  1  0  0  4  0  0  0  0  0  0
  -28.7130  -21.2250   20.7400 H   0  0  0  0  0  0  0  0  0  0  0  0
  -30.9650  -17.5090   20.1030 C   0  0  0  0  0  2  0  0  0  0  0  0
  -31.1430  -14.9240   19.9740 C   0  0  0  0  0  0  0  0  0  0  0  0
  -30.8300  -12.6620   18.9830 C   0  0  0  0  0  2  0  0  0  0  0  0
  -29.8440  -12.7450   17.7980 C   0  0  0  0  0  2  0  0  0  0  0  0
  -28.3910  -12.6030   18.2920 C   0  0  0  0  0  2  0  0  0  0  0  0
  -28.0830  -13.5140   19.5110 C   0  0  0  0  0  3  0  0  0  0  0  0
  -29.1860  -13.4230   20.5910 C   0  0  0  0  0  2  0  0  0  0  0  0
  -30.4650  -13.7280   19.9410 N   0  0  0  0  0  0  0  0  0  0  0  0
  -32.3140  -14.9880   19.5930 O   0  0  0  0  0  0  0  0  0  0  0  0
  -30.4390  -16.0850   20.2280 N   0  0  0  0  0  0  0  0  0  0  0  0
  -29.4710  -15.9750   20.4850 H   0  0  0  0  0  0  0  0  0  0  0  0
  -25.7470  -14.1470   20.3600 C   0  0  0  0  0  0  0  0  0  0  0  0
  -24.6770  -13.3900   20.7590 C   0  0  0  0  0  0  0  0  0  0  0  0
  -25.1040  -12.0270   20.6780 C   0  0  0  0  0  0  0  0  0  0  0  0
  -26.7560  -13.2470   20.0580 N   0  0  0  0  0  0  0  0  0  0  0  0
  -26.3790  -11.9670   20.3130 N   0  0  0  0  0  0  0  0  0  0  0  0
  -24.3540  -10.7800   20.8700 C   0  0  0  0  0  0  0  0  0  0  0  0
  -24.7470   -9.8210   21.8320 C   0  0  0  0  0  3  0  0  0  0  0  0
  -23.9970   -8.6390   22.0110 C   0  0  0  0  0  3  0  0  0  0  0  0
  -22.8410   -8.4050   21.2290 C   0  0  0  0  0  0  0  0  0  0  0  0
  -22.4660   -9.3510   20.2590 C   0  0  0  0  0  3  0  0  0  0  0  0
  -23.2160  -10.5260   20.0790 C   0  0  0  0  0  3  0  0  0  0  0  0
  -22.0660   -7.2730   21.3170 O   0  0  0  0  0  0  0  0  0  0  0  0
  -21.8930   -6.6100   22.5070 C   0  0  0  0  0  0  0  0  0  0  0  0
  -21.3040   -7.2340   23.6270 C   0  0  0  0  0  3  0  0  0  0  0  0
  -21.0810   -6.4970   24.8070 C   0  0  0  0  0  3  0  0  0  0  0  0
  -21.4370   -5.1360   24.8660 C   0  0  0  0  0  0  0  0  0  0  0  0
  -22.0150   -4.5110   23.7460 C   0  0  0  0  0  3  0  0  0  0  0  0
  -22.2400   -5.2460   22.5710 C   0  0  0  0  0  0  0  0  0  0  0  0
  -22.7800   -4.6330   21.4890 F   0  0  0  0  0  0  0  0  0  0  0  0
  -21.2140   -4.4250   25.9960 F   0  0  0  0  0  0  0  0  0  0  0  0
  -23.3060  -13.8950   21.1040 C   0  0  0  0  0  0  0  0  0  0  0  0
  -22.6080  -13.2050   22.0000 N   0  0  0  0  0  0  0  0  0  0  0  0
  -22.8660  -14.9330   20.6140 O   0  0  0  0  0  0  0  0  0  0  0  0
  -22.9780  -12.3620   22.4110 H   0  0  0  0  0  0  0  0  0  0  0  0
  -21.6890  -13.5240   22.2740 H   0  0  0  0  0  0  0  0  0  0  0  0
  -25.9400  -15.5160   20.2030 N   0  0  0  0  0  0  0  0  0  0  0  0
  -25.1990  -16.1900   20.3580 H   0  0  0  0  0  0  0  0  0  0  0  0
  -26.7760  -15.9300   19.8120 H   0  0  0  0  0  0  0  0  0  0  0  0
  -30.0190  -22.7390   20.2940 C   0  0  0  0  0  2  0  0  0  0  0  0
  -29.0270  -23.9140   19.7640 C   0  0  0  0  0  3  0  0  0  0  0  0
  -29.3410  -24.2550   18.4150 O   0  0  0  0  0  0  0  0  0  0  0  0
  -28.5840  -24.6770   18.0130 H   0  0  0  0  0  0  0  0  0  0  0  0
  -28.7730  -25.2610   20.6440 C   0  0  0  0  0  2  0  0  0  0  0  0
  -28.9440  -26.6870   20.2090 O   0  0  0  0  0  0  0  0  0  0  0  0
  -24.7030  -31.7600   23.2440 C   0  0  0  0  0  0  0  0  0  0  0  0
  -27.7950  -27.5030   20.1800 C   0  0  0  0  0  0  0  0  0  0  0  0
  -23.6960  -30.3560   21.4830 C   0  0  0  0  0  3  0  0  0  0  0  0
  -25.3340  -28.9670   20.0950 C   0  0  0  0  0  0  0  0  0  0  0  0
  -26.2150  -30.8540   21.4640 C   0  0  0  0  0  2  0  0  0  0  0  0
  -26.4330  -29.5090   20.7730 C   0  0  0  0  0  0  0  0  0  0  0  0
  -27.6720  -28.7900   20.8030 C   0  0  0  0  0  3  0  0  0  0  0  0
  -26.6720  -27.0220   19.4820 C   0  0  0  0  0  3  0  0  0  0  0  0
  -25.4570  -27.7300   19.4450 C   0  0  0  0  0  3  0  0  0  0  0  0
  -24.0410  -29.7590   20.0960 C   0  0  0  0  0  2  0  0  0  0  0  0
  -24.8850  -31.0020   22.1250 N   0  0  0  0  0  0  0  0  0  0  0  0
  -23.5730  -31.9390   23.7290 O   0  0  0  0  0  0  0  0  0  0  0  0
  -23.0500  -29.2580   22.3630 C   0  0  0  0  0  0  0  0  0  0  0  0
  -21.7370  -29.0380   22.1870 N   0  0  0  0  0  0  0  0  0  0  0  0
  -23.7300  -28.6120   23.1640 O   0  0  0  0  0  0  0  0  0  0  0  0
  -21.2470  -29.6110   21.5130 H   0  0  0  0  0  0  0  0  0  0  0  0
  -18.3830  -27.7280   22.5540 C   0  0  0  0  0  0  0  0  0  0  0  0
  -20.9320  -28.0220   22.8710 C   0  0  0  0  0  3  0  0  0  0  0  0
  -21.0740  -26.6430   22.1840 C   0  0  0  0  0  2  0  0  0  0  0  0
  -19.9850  -26.3770   21.1390 C   0  0  0  0  0  2  0  0  0  0  0  0
  -18.5940  -26.4410   21.7780 C   0  0  0  0  0  2  0  0  0  0  0  0
  -19.4800  -28.4800   23.0550 C   0  0  0  0  0  0  0  0  0  0  0  0
  -19.2300  -29.6860   23.7410 C   0  0  0  0  0  3  0  0  0  0  0  0
  -17.9130  -30.1400   23.9400 C   0  0  0  0  0  3  0  0  0  0  0  0
  -16.8290  -29.3840   23.4620 C   0  0  0  0  0  3  0  0  0  0  0  0
  -17.0640  -28.1860   22.7670 C   0  0  0  0  0  3  0  0  0  0  0  0
  -25.8990  -32.4530   23.9700 C   0  0  0  0  0  3  0  0  0  0  0  0
  -25.5040  -33.8390   24.2580 N   0  0  0  0  0  0  0  0  0  0  0  0
  -25.8390  -34.8960   23.5070 C   0  0  0  0  0  0  0  0  0  0  0  0
  -26.5790  -34.8090   22.5240 O   0  0  0  0  0  0  0  0  0  0  0  0
  -24.8600  -33.9730   25.0240 H   0  0  0  0  0  0  0  0  0  0  0  0
  -24.0570  -36.6010   23.0130 C   0  0  0  0  0  1  0  0  0  0  0  0
  -25.2590  -36.2680   23.9100 C   0  0  0  0  0  3  0  0  0  0  0  0
  -27.2870  -37.2720   24.8620 C   0  0  0  0  0  1  0  0  0  0  0  0
  -26.2470  -37.3670   23.8420 N   0  0  0  0  0  0  0  0  0  0  0  0
  -25.7860  -38.2680   23.9420 H   0  0  0  0  0  0  0  0  0  0  0  0
  -26.3260  -31.7110   25.2950 C   0  0  1  0  0  0  0  0  0  0  0  0
  -25.1440  -31.4140   26.2520 C   0  0  0  0  0  1  0  0  0  0  0  0
  -27.0210  -30.3720   24.9640 C   0  0  0  0  0  1  0  0  0  0  0  0
  -27.3660  -32.5650   26.0600 C   0  0  0  0  0  1  0  0  0  0  0  0
  2  1  1  0
  3  6  1  0
  4  3  1  0
  4  7  1  0
  5  1  1  0
  6  9  1  6
  6  5  1  0
  6  2  1  0
  7 48  1  0
  7  8  1  1
  7  5  1  0
  9 18  1  0
 10 18  1  0
 11 16  1  0
 12 13  1  0
 12 11  1  0
 14 13  1  0
 14 23  1  0
 14 15  1  0
 16 10  1  0
 16 15  1  0
 17 10  2  0
 18 19  1  0
 20 21  2  0
 21 40  1  0
 22 21  1  0
 22 25  1  0
 23 24  1  0
 23 20  1  0
 24 22  2  0
 25 26  1  0
 26 27  2  0
 28 31  1  0
 28 27  1  0
 29 28  2  0
 30 29  1  0
 30 25  2  0
 31 32  1  0
 32 37  2  0
 32 33  1  0
 33 34  2  0
 34 35  1  0
 35 39  1  0
 36 35  2  0
 37 36  1  0
 38 37  1  0
 40 41  1  0
 41 44  1  0
 41 43  1  0
 42 40  2  0
 45 46  1  0
 45 20  1  0
 47 45  1  0
 49 48  1  0
 49 52  1  0
 50 49  1  0
 51 50  1  0
 53 52  1  0
 54 65  2  0
 55 53  1  0
 55 60  1  0
 56 64  1  0
 56 66  1  0
 57 63  1  0
 57 59  1  0
 58 64  1  0
 59 60  2  0
 59 58  1  0
 61 55  2  0
 62 61  1  0
 62 57  2  0
 63 56  1  0
 64 54  1  0
 66 68  2  0
 67 66  1  0
 69 67  1  0
 70 79  2  0
 70 75  1  0
 71 67  1  0
 71 75  1  0
 72 71  1  0
 73 74  1  0
 73 72  1  0
 74 70  1  0
 75 76  2  0
 76 77  1  0
 78 77  2  0
 79 78  1  0
 80 54  1  0
 80 81  1  0
 80 90  1  0
 81 84  1  0
 82 86  1  0
 82 81  1  0
 83 82  2  0
 86 85  1  0
 88 86  1  0
 88 89  1  0
 88 87  1  0
 90 93  1  1
 90 91  1  0
 92 90  1  0
M  ISO  4  10 100  18 100  52 101  53 101
M  END
>  <TORSDO>  (2) 
F 21

>  <SCORE>  (2) 
-11.652

>  <name>  (2) 
1

>  <ligand_id>  (2) 
1

>  <original_smiles>  (2) 
[H]OC([H])(C([H])([H])Oc1c([H])c([H])c2c(c1[H])C([H])([H])N(C(=O)C([H])(N([H])C(=O)C([H])(N([H])C([H])([H])[H])C([H])([H])[H])C(C([H])([H])[H])(C([H])([H])[H])C([H])([H])[H])C([H])(C(=O)N([H])C1([H])c3c([H])c([H])c([H])c([H])c3C([H])([H])C([H])([H])C1([H])[H])C2([H])[H])C([H])([H])[N+]1([H])C([H])([H])C([H])([H])C2(C([H])([H])N([H])C(=O)N3C([H])([H])C([H])([H])C([H])([H])C([H])(n4nc(-c5c([H])c([H])c(Oc6c([H])c([H])c(F)c([H])c6F)c([H])c5[H])c(C(=O)N([H])[H])c4N([H])[H])C3([H])[H])C([H])([H])C([H])([H])C21[H]

>  <smiles>  (2) 
[H]OC([H])(C([H])([H])Oc1c([H])c([H])c2c(c1[H])C([H])([H])N(C(=O)C([H])(N([H])C(=O)C([H])(N([H])C([H])([H])[H])C([H])([H])[H])C(C([H])([H])[H])(C([H])([H])[H])C([H])([H])[H])C([H])(C(=O)N([H])C1([H])c3c([H])c([H])c([H])c([H])c3C([H])([H])C([H])([H])C1([H])[H])C2([H])[H])C([H])([H])[N+]1([H])C([H])([H])C([H])([H])C2(C([H])([H])N([H])C(=O)N3C([H])([H])C([H])([H])C([H])([H])C([H])(n4nc(-c5c([H])c([H])c(Oc6c([H])c([H])c(F)c([H])c6F)c([H])c5[H])c(C(=O)N([H])[H])c4N([H])[H])C3([H])[H])C([H])([H])C([H])([H])C21[H]

$$$$
2:0:0
     RDKit          3D

 96105  0  0  1  0  0  0  0  0999 V2000
  -27.9650  -21.0300   20.8590 C   0  0  0  0  0  0  0  0  0  0  0  0
  -27.3700  -21.7580   20.0570 O   0  0  0  0  0  0  0  0  0  0  0  0
  -28.0000  -19.5100   20.9200 C   0  0  0  0  0  3  0  0  0  0  0  0
  -29.3890  -18.9570   20.7210 C   0  0  0  0  0  3  0  0  0  0  0  0
  -29.5970  -17.4740   20.6410 C   0  0  0  0  0  3  0  0  0  0  0  0
  -28.9260  -18.2130   19.4940 C   0  0  0  0  0  3  0  0  0  0  0  0
  -26.9350  -19.3670   18.5420 C   0  0  0  0  0  1  0  0  0  0  0  0
  -27.5610  -18.7410   19.7300 N   0  0  2  0  0  4  0  0  0  0  0  0
  -26.9720  -17.9790   20.0320 H   0  0  0  0  0  0  0  0  0  0  0  0
  -30.9650  -16.8500   20.4550 C   0  0  0  0  0  2  0  0  0  0  0  0
  -31.5530  -14.4580   20.0130 C   0  0  0  0  0  0  0  0  0  0  0  0
  -31.3210  -12.1460   19.1950 C   0  0  0  0  0  2  0  0  0  0  0  0
  -30.3690  -12.1080   17.9810 C   0  0  0  0  0  2  0  0  0  0  0  0
  -28.8970  -12.0190   18.4360 C   0  0  0  0  0  2  0  0  0  0  0  0
  -28.5420  -13.0750   19.5140 C   0  0  0  0  0  3  0  0  0  0  0  0
  -29.5850  -13.0220   20.6510 C   0  0  0  0  0  2  0  0  0  0  0  0
  -30.9210  -13.2600   20.0600 N   0  0  0  0  0  0  0  0  0  0  0  0
  -32.5920  -14.6800   19.3820 O   0  0  0  0  0  0  0  0  0  0  0  0
  -30.8860  -15.4150   20.6530 N   0  0  0  0  0  0  0  0  0  0  0  0
  -30.0860  -15.0880   21.1730 H   0  0  0  0  0  0  0  0  0  0  0  0
  -26.1890  -13.8290   20.2540 C   0  0  0  0  0  0  0  0  0  0  0  0
  -25.0910  -13.1190   20.6560 C   0  0  0  0  0  0  0  0  0  0  0  0
  -25.4770  -11.7420   20.6240 C   0  0  0  0  0  0  0  0  0  0  0  0
  -27.1820  -12.8900   20.0150 N   0  0  0  0  0  0  0  0  0  0  0  0
  -26.7550  -11.6320   20.2890 N   0  0  0  0  0  0  0  0  0  0  0  0
  -24.6930  -10.5200   20.8310 C   0  0  0  0  0  0  0  0  0  0  0  0
  -25.0260   -9.5920   21.8420 C   0  0  0  0  0  3  0  0  0  0  0  0
  -24.2460   -8.4320   22.0330 C   0  0  0  0  0  3  0  0  0  0  0  0
  -23.1200   -8.1900   21.2100 C   0  0  0  0  0  0  0  0  0  0  0  0
  -22.8070   -9.1040   20.1890 C   0  0  0  0  0  3  0  0  0  0  0  0
  -23.5870  -10.2560   19.9970 C   0  0  0  0  0  3  0  0  0  0  0  0
  -22.3220   -7.0760   21.3060 O   0  0  0  0  0  0  0  0  0  0  0  0
  -22.0730   -6.4700   22.5110 C   0  0  0  0  0  0  0  0  0  0  0  0
  -21.4880   -7.1690   23.5900 C   0  0  0  0  0  3  0  0  0  0  0  0
  -21.1890   -6.4900   24.7870 C   0  0  0  0  0  3  0  0  0  0  0  0
  -21.4630   -5.1140   24.9070 C   0  0  0  0  0  0  0  0  0  0  0  0
  -22.0370   -4.4160   23.8310 C   0  0  0  0  0  3  0  0  0  0  0  0
  -22.3390   -5.0910   22.6360 C   0  0  0  0  0  0  0  0  0  0  0  0
  -22.8750   -4.4100   21.5950 F   0  0  0  0  0  0  0  0  0  0  0  0
  -21.1670   -4.4590   26.0540 F   0  0  0  0  0  0  0  0  0  0  0  0
  -23.7250  -13.6670   20.9520 C   0  0  0  0  0  0  0  0  0  0  0  0
  -22.9880  -13.0250   21.8490 N   0  0  0  0  0  0  0  0  0  0  0  0
  -23.3260  -14.7020   20.4190 O   0  0  0  0  0  0  0  0  0  0  0  0
  -23.3270  -12.1880   22.3010 H   0  0  0  0  0  0  0  0  0  0  0  0
  -22.0700  -13.3730   22.0870 H   0  0  0  0  0  0  0  0  0  0  0  0
  -26.4230  -15.1860   20.0320 N   0  0  0  0  0  0  0  0  0  0  0  0
  -25.5490  -15.6730   19.8670 H   0  0  0  0  0  0  0  0  0  0  0  0
  -27.0710  -15.3280   19.2680 H   0  0  0  0  0  0  0  0  0  0  0  0
  -28.8250  -21.6950   21.9500 C   0  0  0  0  0  2  0  0  0  0  0  0
  -28.7440  -23.2350   21.9970 C   0  0  0  0  0  2  0  0  0  0  0  0
  -29.2660  -23.8730   20.7680 N   0  0  0  0  0  4  0  0  0  0  0  0
  -28.8150  -23.4330   19.9780 H   0  0  0  0  0  0  0  0  0  0  0  0
  -30.2570  -23.6930   20.6980 H   0  0  0  0  0  0  0  0  0  0  0  0
  -29.0360  -25.3320   20.7010 C   0  0  0  0  0  2  0  0  0  0  0  0
  -29.0310  -25.8390   19.2500 C   0  0  0  0  0  2  0  0  0  0  0  0
  -28.8390  -27.2470   19.2460 O   0  0  0  0  0  0  0  0  0  0  0  0
  -24.7060  -31.5490   23.0790 C   0  0  0  0  0  0  0  0  0  0  0  0
  -27.5720  -27.7620   19.4020 C   0  0  0  0  0  0  0  0  0  0  0  0
  -23.5410  -30.2520   21.3200 C   0  0  0  0  0  3  0  0  0  0  0  0
  -25.0520  -29.0110   19.6850 C   0  0  0  0  0  0  0  0  0  0  0  0
  -26.0180  -30.8450   21.0890 C   0  0  0  0  0  2  0  0  0  0  0  0
  -26.1840  -29.5720   20.2880 C   0  0  0  0  0  0  0  0  0  0  0  0
  -27.4420  -28.9550   20.1420 C   0  0  0  0  0  3  0  0  0  0  0  0
  -26.4190  -27.1940   18.8090 C   0  0  0  0  0  3  0  0  0  0  0  0
  -25.1630  -27.8190   18.9460 C   0  0  0  0  0  3  0  0  0  0  0  0
  -23.7470  -29.7500   19.8640 C   0  0  0  0  0  2  0  0  0  0  0  0
  -24.7730  -30.8900   21.8870 N   0  0  0  0  0  0  0  0  0  0  0  0
  -23.6310  -31.6700   23.6850 O   0  0  0  0  0  0  0  0  0  0  0  0
  -23.0120  -29.0780   22.1730 C   0  0  0  0  0  0  0  0  0  0  0  0
  -21.7100  -28.7810   22.0370 N   0  0  0  0  0  0  0  0  0  0  0  0
  -23.7680  -28.4390   22.9110 O   0  0  0  0  0  0  0  0  0  0  0  0
  -21.1590  -29.3460   21.4050 H   0  0  0  0  0  0  0  0  0  0  0  0
  -18.4870  -27.2010   22.3920 C   0  0  0  0  0  0  0  0  0  0  0  0
  -21.0050  -27.6890   22.7080 C   0  0  0  0  0  3  0  0  0  0  0  0
  -21.2520  -26.3430   21.9870 C   0  0  0  0  0  2  0  0  0  0  0  0
  -20.1860  -26.0240   20.9340 C   0  0  0  0  0  2  0  0  0  0  0  0
  -18.8000  -25.9540   21.5820 C   0  0  0  0  0  2  0  0  0  0  0  0
  -19.5230  -28.0250   22.9070 C   0  0  0  0  0  0  0  0  0  0  0  0
  -19.1800  -29.1910   23.6220 C   0  0  0  0  0  3  0  0  0  0  0  0
  -17.8320  -29.5410   23.8250 C   0  0  0  0  0  3  0  0  0  0  0  0
  -16.8120  -28.7150   23.3230 C   0  0  0  0  0  3  0  0  0  0  0  0
  -17.1390  -27.5450   22.6150 C   0  0  0  0  0  3  0  0  0  0  0  0
  -25.9700  -32.1990   23.7260 C   0  0  0  0  0  3  0  0  0  0  0  0
  -25.5870  -33.5400   24.1890 N   0  0  0  0  0  0  0  0  0  0  0  0
  -25.8490  -34.6750   23.5260 C   0  0  0  0  0  0  0  0  0  0  0  0
  -26.5080  -34.7070   22.4840 O   0  0  0  0  0  0  0  0  0  0  0  0
  -24.9960  -33.5860   25.0050 H   0  0  0  0  0  0  0  0  0  0  0  0
  -24.0100  -36.3820   23.3530 C   0  0  0  0  0  1  0  0  0  0  0  0
  -25.2850  -35.9830   24.1130 C   0  0  0  0  0  3  0  0  0  0  0  0
  -27.3710  -36.9170   25.0060 C   0  0  0  0  0  1  0  0  0  0  0  0
  -26.2490  -37.1020   24.0880 N   0  0  0  0  0  0  0  0  0  0  0  0
  -25.7900  -37.9780   24.3210 H   0  0  0  0  0  0  0  0  0  0  0  0
  -26.5720  -31.3510   24.9120 C   0  0  1  0  0  0  0  0  0  0  0  0
  -25.5270  -30.9520   25.9790 C   0  0  0  0  0  1  0  0  0  0  0  0
  -27.2270  -30.0520   24.3820 C   0  0  0  0  0  1  0  0  0  0  0  0
  -27.6910  -32.1540   25.6160 C   0  0  0  0  0  1  0  0  0  0  0  0
  1 49  1  0
  2  1  2  0
  3  1  1  0
  4  3  1  0
  5  4  1  0
  6  8  1  0
  6  5  1  0
  6  4  1  0
  7  8  1  0
  8  9  1  1
  8  3  1  0
 10  5  1  0
 10 19  1  0
 11 17  1  0
 11 19  1  0
 12 17  1  0
 13 14  1  0
 13 12  1  0
 14 15  1  0
 15 24  1  0
 15 16  1  0
 17 16  1  0
 18 11  2  0
 19 20  1  0
 21 22  2  0
 22 41  1  0
 23 22  1  0
 23 26  1  0
 24 21  1  0
 24 25  1  0
 25 23  2  0
 26 27  1  0
 27 28  2  0
 29 32  1  0
 29 28  1  0
 30 29  2  0
 31 30  1  0
 31 26  2  0
 32 33  1  0
 33 38  2  0
 33 34  1  0
 34 35  2  0
 35 36  1  0
 36 40  1  0
 37 36  2  0
 38 37  1  0
 39 38  1  0
 41 42  1  0
 42 45  1  0
 42 44  1  0
 43 41  2  0
 46 21  1  0
 47 46  1  0
 48 46  1  0
 49 50  1  0
 51 50  1  0
 52 51  1  0
 53 51  1  0
 54 51  1  0
 55 54  1  0
 56 55  1  0
 56 58  1  0
 57 68  2  0
 57 83  1  0
 58 63  1  0
 59 67  1  0
 59 69  1  0
 60 66  1  0
 60 62  1  0
 61 67  1  0
 62 61  1  0
 63 62  2  0
 64 65  1  0
 64 58  2  0
 65 60  2  0
 66 59  1  0
 67 57  1  0
 69 71  2  0
 70 69  1  0
 70 74  1  0
 72 70  1  0
 73 82  2  0
 73 78  1  0
 74 78  1  0
 75 74  1  0
 76 77  1  0
 76 75  1  0
 77 73  1  0
 78 79  2  0
 79 80  1  0
 81 80  2  0
 82 81  1  0
 83 84  1  0
 83 93  1  0
 84 87  1  0
 85 89  1  0
 85 84  1  0
 86 85  2  0
 88 89  1  0
 91 89  1  0
 91 92  1  0
 91 90  1  0
 93 96  1  1
 93 94  1  0
 95 93  1  0
M  ISO  4  11 100  19 100  55 101  56 101
M  END
>  <TORSDO>  (3) 
F 23

>  <SCORE>  (3) 
-9.970

>  <name>  (3) 
2

>  <ligand_id>  (3) 
2

>  <original_smiles>  (3) 
[H]c1c([H])c([H])c2c(c1[H])C([H])([H])C([H])([H])C([H])([H])C2([H])N([H])C(=O)C1([H])N(C(=O)C([H])(N([H])C(=O)C([H])(N([H])C([H])([H])[H])C([H])([H])[H])C(C([H])([H])[H])(C([H])([H])[H])C([H])([H])[H])C([H])([H])c2c([H])c(OC([H])([H])C([H])([H])[N+]([H])([H])C([H])([H])C([H])([H])C(=O)C3([H])C4([H])C([H])(C([H])([H])N([H])C(=O)N5C([H])([H])C([H])([H])C([H])([H])C([H])(n6nc(-c7c([H])c([H])c(Oc8c([H])c([H])c(F)c([H])c8F)c([H])c7[H])c(C(=O)N([H])[H])c6N([H])[H])C5([H])[H])C4([H])[N+]3([H])C([H])([H])[H])c([H])c([H])c2C1([H])[H]

>  <smiles>  (3) 
[H]c1c([H])c([H])c2c(c1[H])C([H])([H])C([H])([H])C([H])([H])C2([H])N([H])C(=O)C1([H])N(C(=O)C([H])(N([H])C(=O)C([H])(N([H])C([H])([H])[H])C([H])([H])[H])C(C([H])([H])[H])(C([H])([H])[H])C([H])([H])[H])C([H])([H])c2c([H])c(OC([H])([H])C([H])([H])[N+]([H])([H])C([H])([H])C([H])([H])C(=O)C3([H])C4([H])C([H])(C([H])([H])N([H])C(=O)N5C([H])([H])C([H])([H])C([H])([H])C([H])(n6nc(-c7c([H])c([H])c(Oc8c([H])c([H])c(F)c([H])c8F)c([H])c7[H])c(C(=O)N([H])[H])c6N([H])[H])C5([H])[H])C4([H])[N+]3([H])C([H])([H])[H])c([H])c([H])c2C1([H])[H]

$$$$
3:0:0
     RDKit          3D

 93102  0  0  1  0  0  0  0  0999 V2000
  -29.9820  -20.7700   20.3680 C   0  0  0  0  0  3  0  0  0  0  0  0
  -29.7210  -22.2410   20.4590 C   0  0  0  0  0  3  0  0  0  0  0  0
  -27.5670  -21.8850   19.7530 C   0  0  0  0  0  3  0  0  0  0  0  0
  -29.0400  -19.7120   19.9830 C   0  0  0  0  0  0  0  0  0  0  0  0
  -28.4750  -22.9360   20.1450 C   0  0  0  0  0  0  0  0  0  0  0  0
  -27.7980  -20.4320   19.6630 C   0  0  0  0  0  0  0  0  0  0  0  0
  -26.5610  -19.7010   19.1350 C   0  0  0  0  0  1  0  0  0  0  0  0
  -30.7190  -15.3900   20.3800 C   0  0  0  0  0  0  0  0  0  0  0  0
  -30.6590  -12.9620   19.5050 C   0  0  0  0  0  2  0  0  0  0  0  0
  -29.7660  -12.6870   18.2760 C   0  0  0  0  0  2  0  0  0  0  0  0
  -28.3120  -12.4100   18.7100 C   0  0  0  0  0  2  0  0  0  0  0  0
  -27.8230  -13.4000   19.8000 C   0  0  0  0  0  3  0  0  0  0  0  0
  -28.8620  -13.6360   20.9170 C   0  0  0  0  0  2  0  0  0  0  0  0
  -30.0680  -14.1360   20.2390 N   0  0  0  0  0  0  0  0  0  0  0  0
  -31.9490  -15.2530   20.4130 O   0  0  0  0  0  0  0  0  0  0  0  0
  -30.3940  -16.6500   18.3620 C   0  0  0  0  0  2  0  0  0  0  0  0
  -29.2540  -18.0040   19.6560 C   0  0  0  0  0  3  0  0  0  0  0  0
  -30.0300  -18.1110   18.3300 C   0  0  0  0  0  3  0  0  0  0  0  0
  -30.2820  -16.6950   19.8310 N   0  0  0  0  0  0  0  0  0  0  0  0
  -25.4400  -13.9330   20.5300 C   0  0  0  0  0  0  0  0  0  0  0  0
  -24.3790  -13.1440   20.8720 C   0  0  0  0  0  0  0  0  0  0  0  0
  -24.8620  -11.7980   20.8510 C   0  0  0  0  0  0  0  0  0  0  0  0
  -26.4980  -13.0710   20.3040 N   0  0  0  0  0  0  0  0  0  0  0  0
  -26.1620  -11.7810   20.5700 N   0  0  0  0  0  0  0  0  0  0  0  0
  -24.1470  -10.5250   21.0150 C   0  0  0  0  0  0  0  0  0  0  0  0
  -24.5350   -9.5800   21.9890 C   0  0  0  0  0  3  0  0  0  0  0  0
  -23.8150   -8.3770   22.1490 C   0  0  0  0  0  3  0  0  0  0  0  0
  -22.6930   -8.1060   21.3300 C   0  0  0  0  0  0  0  0  0  0  0  0
  -22.3230   -9.0420   20.3460 C   0  0  0  0  0  3  0  0  0  0  0  0
  -23.0450  -10.2380   20.1860 C   0  0  0  0  0  3  0  0  0  0  0  0
  -21.9500   -6.9520   21.3950 O   0  0  0  0  0  0  0  0  0  0  0  0
  -21.7860   -6.2640   22.5720 C   0  0  0  0  0  0  0  0  0  0  0  0
  -21.1550   -6.8430   23.6930 C   0  0  0  0  0  3  0  0  0  0  0  0
  -20.9500   -6.0790   24.8580 C   0  0  0  0  0  3  0  0  0  0  0  0
  -21.3670   -4.7330   24.9000 C   0  0  0  0  0  0  0  0  0  0  0  0
  -21.9860   -4.1510   23.7810 C   0  0  0  0  0  3  0  0  0  0  0  0
  -22.1910   -4.9140   22.6190 C   0  0  0  0  0  0  0  0  0  0  0  0
  -22.7710   -4.3450   21.5350 F   0  0  0  0  0  0  0  0  0  0  0  0
  -21.1600   -3.9950   26.0140 F   0  0  0  0  0  0  0  0  0  0  0  0
  -22.9700  -13.6050   21.1010 C   0  0  0  0  0  0  0  0  0  0  0  0
  -22.2360  -12.9160   21.9660 N   0  0  0  0  0  0  0  0  0  0  0  0
  -22.5300  -14.6080   20.5460 O   0  0  0  0  0  0  0  0  0  0  0  0
  -22.6050  -12.1000   22.4320 H   0  0  0  0  0  0  0  0  0  0  0  0
  -21.2900  -13.2100   22.1650 H   0  0  0  0  0  0  0  0  0  0  0  0
  -25.5950  -15.3060   20.3580 N   0  0  0  0  0  0  0  0  0  0  0  0
  -24.8300  -15.9620   20.4570 H   0  0  0  0  0  0  0  0  0  0  0  0
  -26.4650  -15.7420   20.0760 H   0  0  0  0  0  0  0  0  0  0  0  0
  -29.3470  -18.6180   17.1140 N   0  0  0  0  0  4  0  0  0  0  0  0
  -28.5620  -18.0540   16.8480 H   0  0  0  0  0  0  0  0  0  0  0  0
  -29.9820  -18.6440   16.3370 H   0  0  0  0  0  0  0  0  0  0  0  0
  -29.0290  -19.5620   17.2510 H   0  0  0  0  0  0  0  0  0  0  0  0
  -27.8900  -24.5380   20.4280 C   0  0  0  0  0  2  0  0  0  0  0  0
  -28.2510  -26.0460   19.9910 O   0  0  0  0  0  0  0  0  0  0  0  0
  -24.7120  -31.8740   23.1890 C   0  0  0  0  0  0  0  0  0  0  0  0
  -27.2480  -27.1270   20.0220 C   0  0  0  0  0  0  0  0  0  0  0  0
  -23.5070  -30.5170   21.5270 C   0  0  0  0  0  3  0  0  0  0  0  0
  -24.9470  -28.9670   20.0480 C   0  0  0  0  0  0  0  0  0  0  0  0
  -26.0670  -30.7480   21.3610 C   0  0  0  0  0  2  0  0  0  0  0  0
  -26.1340  -29.3580   20.6780 C   0  0  0  0  0  0  0  0  0  0  0  0
  -27.2830  -28.4550   20.6510 C   0  0  0  0  0  3  0  0  0  0  0  0
  -26.0370  -26.8810   19.3390 C   0  0  0  0  0  3  0  0  0  0  0  0
  -24.9180  -27.7440   19.3590 C   0  0  0  0  0  3  0  0  0  0  0  0
  -23.7270  -29.8800   20.1280 C   0  0  0  0  0  2  0  0  0  0  0  0
  -24.7850  -31.0690   22.0830 N   0  0  0  0  0  0  0  0  0  0  0  0
  -23.6270  -32.1500   23.7270 O   0  0  0  0  0  0  0  0  0  0  0  0
  -22.8280  -29.4860   22.4670 C   0  0  0  0  0  0  0  0  0  0  0  0
  -21.5010  -29.3110   22.3370 N   0  0  0  0  0  0  0  0  0  0  0  0
  -23.5050  -28.8540   23.2820 O   0  0  0  0  0  0  0  0  0  0  0  0
  -21.0120  -29.8780   21.6560 H   0  0  0  0  0  0  0  0  0  0  0  0
  -18.1250  -28.0910   22.8520 C   0  0  0  0  0  0  0  0  0  0  0  0
  -20.6870  -28.3510   23.0910 C   0  0  0  0  0  3  0  0  0  0  0  0
  -20.7830  -26.9380   22.4740 C   0  0  0  0  0  2  0  0  0  0  0  0
  -19.6680  -26.6410   21.4660 C   0  0  0  0  0  2  0  0  0  0  0  0
  -18.2940  -26.7650   22.1310 C   0  0  0  0  0  2  0  0  0  0  0  0
  -19.2490  -28.8420   23.2900 C   0  0  0  0  0  0  0  0  0  0  0  0
  -19.0360  -30.0850   23.9260 C   0  0  0  0  0  3  0  0  0  0  0  0
  -17.7340  -30.5750   24.1300 C   0  0  0  0  0  3  0  0  0  0  0  0
  -16.6250  -29.8210   23.7070 C   0  0  0  0  0  3  0  0  0  0  0  0
  -16.8230  -28.5800   23.0730 C   0  0  0  0  0  3  0  0  0  0  0  0
  -25.9920  -32.5030   23.8250 C   0  0  0  0  0  3  0  0  0  0  0  0
  -26.5240  -31.6930   25.0710 C   0  0  1  0  0  0  0  0  0  0  0  0
  -25.4410  -31.4130   26.1400 C   0  0  0  0  0  1  0  0  0  0  0  0
  -27.1170  -30.3320   24.6340 C   0  0  0  0  0  1  0  0  0  0  0  0
  -27.6740  -32.4720   25.7520 C   0  0  0  0  0  1  0  0  0  0  0  0
  -25.6730  -33.8860   24.2140 N   0  0  0  0  0  0  0  0  0  0  0  0
  -25.9680  -34.9730   23.4890 C   0  0  0  0  0  0  0  0  0  0  0  0
  -26.6100  -34.9170   22.4370 O   0  0  0  0  0  0  0  0  0  0  0  0
  -25.1020  -34.0060   25.0380 H   0  0  0  0  0  0  0  0  0  0  0  0
  -24.2180  -36.7670   23.2470 C   0  0  0  0  0  1  0  0  0  0  0  0
  -25.4780  -36.3380   24.0130 C   0  0  0  0  0  3  0  0  0  0  0  0
  -27.6150  -37.2100   24.8510 C   0  0  0  0  0  1  0  0  0  0  0  0
  -26.4990  -37.4040   23.9300 N   0  0  0  0  0  0  0  0  0  0  0  0
  -26.0840  -38.3120   24.1220 H   0  0  0  0  0  0  0  0  0  0  0  0
  1  2  1  0
  3  5  1  0
  4  1  2  0
  5 52  1  0
  5  2  2  0
  6  3  2  0
  6  4  1  0
  7  6  1  0
  8 15  2  0
  9 14  1  0
 10 11  1  0
 10  9  1  0
 12 11  1  0
 12 23  1  0
 12 13  1  0
 14  8  1  0
 14 13  1  0
 16 19  1  0
 17 19  1  0
 17  4  1  0
 18 48  1  0
 18 16  1  0
 18 17  1  0
 19  8  1  0
 20 21  2  0
 21 40  1  0
 22 21  1  0
 22 25  1  0
 23 20  1  0
 23 24  1  0
 24 22  2  0
 25 26  1  0
 26 27  2  0
 28 31  1  0
 28 27  1  0
 29 28  2  0
 30 29  1  0
 30 25  2  0
 31 32  1  0
 32 37  2  0
 32 33  1  0
 33 34  2  0
 34 35  1  0
 35 39  1  0
 36 35  2  0
 37 36  1  0
 38 37  1  0
 40 41  1  0
 41 44  1  0
 41 43  1  0
 42 40  2  0
 45 46  1  0
 45 20  1  0
 47 45  1  0
 48 51  1  0
 49 48  1  0
 50 48  1  0
 53 55  1  0
 53 52  1  0
 54 65  2  0
 55 60  1  0
 56 64  1  0
 56 66  1  0
 57 63  1  0
 57 59  1  0
 58 64  1  0
 59 58  1  0
 60 59  2  0
 61 62  1  0
 61 55  2  0
 62 57  2  0
 63 56  1  0
 64 54  1  0
 66 68  2  0
 67 66  1  0
 69 67  1  0
 70 79  2  0
 70 75  1  0
 71 67  1  0
 71 75  1  0
 72 71  1  0
 73 74  1  0
 73 72  1  0
 74 70  1  0
 75 76  2  0
 76 77  1  0
 78 77  2  0
 79 78  1  0
 80 54  1  0
 80 85  1  0
 80 81  1  0
 81 84  1  1
 81 82  1  0
 83 81  1  0
 85 88  1  0
 86 90  1  0
 86 85  1  0
 87 86  2  0
 90 89  1  0
 92 90  1  0
 92 93  1  0
 92 91  1  0
M  ISO  4   8 100  19 100  52 101  53 101
M  END
>  <TORSDO>  (4) 
F 18

>  <SCORE>  (4) 
-15.387

>  <name>  (4) 
3

>  <ligand_id>  (4) 
3

>  <original_smiles>  (4) 
[H]c1c([H])c([H])c2c(c1[H])C([H])([H])C([H])([H])C([H])([H])C2([H])N([H])C(=O)C1([H])N(C(=O)C([H])(N([H])C(=O)C([H])(N([H])C([H])([H])[H])C([H])([H])[H])C(C([H])([H])[H])(C([H])([H])[H])C([H])([H])[H])C([H])([H])c2c([H])c(OC([H])([H])c3c([H])c([H])c(C4([H])N(C(=O)N5C([H])([H])C([H])([H])C([H])([H])C([H])(n6nc(-c7c([H])c([H])c(Oc8c([H])c([H])c(F)c([H])c8F)c([H])c7[H])c(C(=O)N([H])[H])c6N([H])[H])C5([H])[H])C([H])([H])C4([H])[N+]([H])([H])[H])c(C([H])([H])[H])c3[H])c([H])c([H])c2C1([H])[H]

>  <smiles>  (4) 
[H]c1c([H])c([H])c2c(c1[H])C([H])([H])C([H])([H])C([H])([H])C2([H])N([H])C(=O)C1([H])N(C(=O)C([H])(N([H])C(=O)C([H])(N([H])C([H])([H])[H])C([H])([H])[H])C(C([H])([H])[H])(C([H])([H])[H])C([H])([H])[H])C([H])([H])c2c([H])c(OC([H])([H])c3c([H])c([H])c(C4([H])N(C(=O)N5C([H])([H])C([H])([H])C([H])([H])C([H])(n6nc(-c7c([H])c([H])c(Oc8c([H])c([H])c(F)c([H])c8F)c([H])c7[H])c(C(=O)N([H])[H])c6N([H])[H])C5([H])[H])C([H])([H])C4([H])[N+]([H])([H])[H])c(C([H])([H])[H])c3[H])c([H])c([H])c2C1([H])[H]

$$$$
4:0:0
     RDKit          3D

 94102  0  0  1  0  0  0  0  0999 V2000
  -29.1280  -22.8250   20.2290 C   0  0  0  0  0  3  0  0  0  0  0  0
  -27.6740  -19.4950   20.3770 C   0  0  0  0  0  2  0  0  0  0  0  0
  -27.4230  -20.9710   20.0870 C   0  0  0  0  0  2  0  0  0  0  0  0
  -29.1780  -19.7060   20.4090 C   0  0  0  0  0  3  0  0  0  0  0  0
  -28.8300  -21.2420   19.7740 N   0  0  2  0  0  4  0  0  0  0  0  0
  -28.9230  -21.1810   18.7710 H   0  0  0  0  0  0  0  0  0  0  0  0
  -30.0470  -18.2590   19.7870 C   0  0  0  0  0  2  0  0  0  0  0  0
  -30.6560  -15.3580   19.9350 C   0  0  0  0  0  0  0  0  0  0  0  0
  -30.5550  -12.9430   18.9970 C   0  0  0  0  0  2  0  0  0  0  0  0
  -29.5760  -12.7870   17.8060 C   0  0  0  0  0  2  0  0  0  0  0  0
  -28.1460  -12.5200   18.3070 C   0  0  0  0  0  2  0  0  0  0  0  0
  -27.7620  -13.4510   19.4840 C   0  0  0  0  0  3  0  0  0  0  0  0
  -28.8630  -13.5500   20.5630 C   0  0  0  0  0  2  0  0  0  0  0  0
  -30.0730  -14.0590   19.8930 N   0  0  0  0  0  0  0  0  0  0  0  0
  -31.8460  -15.3610   19.5910 O   0  0  0  0  0  0  0  0  0  0  0  0
  -29.9200  -16.6280   20.1560 N   0  0  0  0  0  0  0  0  0  0  0  0
  -28.9870  -16.4180   20.4830 H   0  0  0  0  0  0  0  0  0  0  0  0
  -25.4270  -14.0020   20.3470 C   0  0  0  0  0  0  0  0  0  0  0  0
  -24.3810  -13.2220   20.7530 C   0  0  0  0  0  0  0  0  0  0  0  0
  -24.8450  -11.8710   20.6870 C   0  0  0  0  0  0  0  0  0  0  0  0
  -26.4570  -13.1290   20.0460 N   0  0  0  0  0  0  0  0  0  0  0  0
  -26.1220  -11.8400   20.3180 N   0  0  0  0  0  0  0  0  0  0  0  0
  -24.1250  -10.6070   20.8910 C   0  0  0  0  0  0  0  0  0  0  0  0
  -24.5590   -9.6540   21.8370 C   0  0  0  0  0  3  0  0  0  0  0  0
  -23.8350   -8.4560   22.0290 C   0  0  0  0  0  3  0  0  0  0  0  0
  -22.6630   -8.2050   21.2780 C   0  0  0  0  0  0  0  0  0  0  0  0
  -22.2480   -9.1480   20.3210 C   0  0  0  0  0  3  0  0  0  0  0  0
  -22.9730  -10.3360   20.1260 C   0  0  0  0  0  3  0  0  0  0  0  0
  -21.9130   -7.0580   21.3800 O   0  0  0  0  0  0  0  0  0  0  0  0
  -21.8190   -6.3610   22.5600 C   0  0  0  0  0  0  0  0  0  0  0  0
  -21.3310   -6.9600   23.7420 C   0  0  0  0  0  3  0  0  0  0  0  0
  -21.1850   -6.1890   24.9120 C   0  0  0  0  0  3  0  0  0  0  0  0
  -21.5160   -4.8210   24.9020 C   0  0  0  0  0  0  0  0  0  0  0  0
  -21.9970   -4.2220   23.7240 C   0  0  0  0  0  3  0  0  0  0  0  0
  -22.1440   -4.9910   22.5560 C   0  0  0  0  0  0  0  0  0  0  0  0
  -22.5870   -4.4030   21.4180 F   0  0  0  0  0  0  0  0  0  0  0  0
  -21.3680   -4.0780   26.0240 F   0  0  0  0  0  0  0  0  0  0  0  0
  -22.9950  -13.6970   21.0840 C   0  0  0  0  0  0  0  0  0  0  0  0
  -22.3040  -12.9970   21.9760 N   0  0  0  0  0  0  0  0  0  0  0  0
  -22.5380  -14.7250   20.5860 O   0  0  0  0  0  0  0  0  0  0  0  0
  -22.6870  -12.1690   22.4060 H   0  0  0  0  0  0  0  0  0  0  0  0
  -21.3750  -13.2990   22.2360 H   0  0  0  0  0  0  0  0  0  0  0  0
  -25.5840  -15.3750   20.1770 N   0  0  0  0  0  0  0  0  0  0  0  0
  -24.8220  -16.0280   20.3280 H   0  0  0  0  0  0  0  0  0  0  0  0
  -26.4010  -15.8090   19.7700 H   0  0  0  0  0  0  0  0  0  0  0  0
  -30.5780  -23.1710   19.8170 C   0  0  0  0  0  2  0  0  0  0  0  0
  -30.7840  -23.4400   18.3090 C   0  0  0  0  0  2  0  0  0  0  0  0
  -32.2460  -23.7890   17.9580 C   0  0  0  0  0  2  0  0  0  0  0  0
  -32.4310  -24.0650   16.5230 N   0  0  0  0  0  4  0  0  0  0  0  0
  -32.2020  -23.2640   15.9620 H   0  0  0  0  0  0  0  0  0  0  0  0
  -33.3930  -24.2980   16.3460 H   0  0  0  0  0  0  0  0  0  0  0  0
  -31.8670  -24.8420   16.2250 H   0  0  0  0  0  0  0  0  0  0  0  0
  -28.1110  -24.2940   19.9300 C   0  0  0  0  0  2  0  0  0  0  0  0
  -28.2800  -25.9160   20.2060 O   0  0  0  0  0  0  0  0  0  0  0  0
  -24.5260  -31.7640   23.1530 C   0  0  0  0  0  0  0  0  0  0  0  0
  -27.2420  -26.9840   20.1260 C   0  0  0  0  0  0  0  0  0  0  0  0
  -23.3910  -30.3680   21.4720 C   0  0  0  0  0  3  0  0  0  0  0  0
  -24.9010  -28.8110   20.0580 C   0  0  0  0  0  0  0  0  0  0  0  0
  -25.9540  -30.6340   21.3790 C   0  0  0  0  0  2  0  0  0  0  0  0
  -26.0670  -29.2350   20.7060 C   0  0  0  0  0  0  0  0  0  0  0  0
  -27.2330  -28.3430   20.7150 C   0  0  0  0  0  3  0  0  0  0  0  0
  -26.0420  -26.7100   19.4320 C   0  0  0  0  0  3  0  0  0  0  0  0
  -24.9130  -27.5690   19.4000 C   0  0  0  0  0  3  0  0  0  0  0  0
  -23.6620  -29.7060   20.0920 C   0  0  0  0  0  2  0  0  0  0  0  0
  -24.6440  -30.9480   22.0560 N   0  0  0  0  0  0  0  0  0  0  0  0
  -23.4200  -32.0240   23.6570 O   0  0  0  0  0  0  0  0  0  0  0  0
  -22.6990  -29.3450   22.4110 C   0  0  0  0  0  0  0  0  0  0  0  0
  -21.3740  -29.1610   22.2600 N   0  0  0  0  0  0  0  0  0  0  0  0
  -23.3600  -28.7190   23.2410 O   0  0  0  0  0  0  0  0  0  0  0  0
  -20.8930  -29.7200   21.5700 H   0  0  0  0  0  0  0  0  0  0  0  0
  -18.0020  -27.8980   22.7000 C   0  0  0  0  0  0  0  0  0  0  0  0
  -20.5530  -28.1990   23.0040 C   0  0  0  0  0  3  0  0  0  0  0  0
  -20.6840  -26.7780   22.4080 C   0  0  0  0  0  2  0  0  0  0  0  0
  -19.6030  -26.4560   21.3710 C   0  0  0  0  0  2  0  0  0  0  0  0
  -18.2090  -26.5670   21.9980 C   0  0  0  0  0  2  0  0  0  0  0  0
  -19.1020  -28.6730   23.1570 C   0  0  0  0  0  0  0  0  0  0  0  0
  -18.8510  -29.9160   23.7770 C   0  0  0  0  0  3  0  0  0  0  0  0
  -17.5350  -30.3890   23.9390 C   0  0  0  0  0  3  0  0  0  0  0  0
  -16.4510  -29.6130   23.4950 C   0  0  0  0  0  3  0  0  0  0  0  0
  -16.6840  -28.3690   22.8820 C   0  0  0  0  0  3  0  0  0  0  0  0
  -25.7710  -32.4240   23.8190 C   0  0  0  0  0  3  0  0  0  0  0  0
  -26.2490  -31.6660   25.1190 C   0  0  1  0  0  0  0  0  0  0  0  0
  -25.1220  -31.4280   26.1530 C   0  0  0  0  0  1  0  0  0  0  0  0
  -26.8570  -30.2910   24.7650 C   0  0  0  0  0  1  0  0  0  0  0  0
  -27.3700  -32.4740   25.8150 C   0  0  0  0  0  1  0  0  0  0  0  0
  -25.4260  -33.8180   24.1460 N   0  0  0  0  0  0  0  0  0  0  0  0
  -25.7510  -34.8840   23.4030 C   0  0  0  0  0  0  0  0  0  0  0  0
  -26.4360  -34.7980   22.3800 O   0  0  0  0  0  0  0  0  0  0  0  0
  -24.8190  -33.9570   24.9410 H   0  0  0  0  0  0  0  0  0  0  0  0
  -23.9920  -36.6520   23.0530 C   0  0  0  0  0  1  0  0  0  0  0  0
  -25.2390  -36.2640   23.8650 C   0  0  0  0  0  3  0  0  0  0  0  0
  -27.3540  -37.1920   24.7040 C   0  0  0  0  0  1  0  0  0  0  0  0
  -26.2520  -37.3380   23.7570 N   0  0  0  0  0  0  0  0  0  0  0  0
  -25.8280  -38.2490   23.9030 H   0  0  0  0  0  0  0  0  0  0  0  0
  1 46  1  0
  2  4  1  0
  3  2  1  0
  4  7  1  0
  5  3  1  0
  5  1  1  0
  5  4  1  0
  5  6  1  6
  7 16  1  0
  8 16  1  0
  9 14  1  0
 10 11  1  0
 10  9  1  0
 12 11  1  0
 12 21  1  0
 12 13  1  0
 14  8  1  0
 14 13  1  0
 15  8  2  0
 16 17  1  0
 18 19  2  0
 19 38  1  0
 20 19  1  0
 20 23  1  0
 21 22  1  0
 21 18  1  0
 22 20  2  0
 23 24  1  0
 24 25  2  0
 26 29  1  0
 26 25  1  0
 27 26  2  0
 28 27  1  0
 28 23  2  0
 29 30  1  0
 30 31  1  0
 31 32  2  0
 33 32  1  0
 33 37  1  0
 34 33  2  0
 35 30  2  0
 35 34  1  0
 36 35  1  0
 38 39  1  0
 39 42  1  0
 39 41  1  0
 40 38  2  0
 43 44  1  0
 43 18  1  0
 45 43  1  0
 47 46  1  0
 48 47  1  0
 49 48  1  0
 50 49  1  0
 51 49  1  0
 52 49  1  0
 53 54  1  0
 53  1  1  0
 55 66  2  0
 56 54  1  0
 56 61  1  0
 57 65  1  0
 57 67  1  0
 58 64  1  0
 58 60  1  0
 59 65  1  0
 60 61  2  0
 60 59  1  0
 62 56  2  0
 63 62  1  0
 63 58  2  0
 64 57  1  0
 65 55  1  0
 67 69  2  0
 68 67  1  0
 70 68  1  0
 71 80  2  0
 71 76  1  0
 72 68  1  0
 72 76  1  0
 73 72  1  0
 74 75  1  0
 74 73  1  0
 75 71  1  0
 76 77  2  0
 77 78  1  0
 79 78  2  0
 80 79  1  0
 81 55  1  0
 81 86  1  0
 81 82  1  0
 82 85  1  1
 82 83  1  0
 84 82  1  0
 86 89  1  0
 87 91  1  0
 87 86  1  0
 88 87  2  0
 91 90  1  0
 93 91  1  0
 93 94  1  0
 93 92  1  0
M  ISO  4   8 100  16 100  53 101  54 101
M  END
>  <TORSDO>  (5) 
F 23

>  <SCORE>  (5) 
-14.406

>  <name>  (5) 
4

>  <ligand_id>  (5) 
4

>  <original_smiles>  (5) 
[H]c1c([H])c([H])c2c(c1[H])C([H])([H])C([H])([H])C([H])([H])C2([H])N([H])C(=O)C1([H])N(C(=O)C([H])(N([H])C(=O)C([H])(N([H])C([H])([H])[H])C([H])([H])[H])C(C([H])([H])[H])(C([H])([H])[H])C([H])([H])[H])C([H])([H])c2c([H])c(OC([H])([H])C([H])(C([H])([H])C([H])([H])C([H])([H])[N+]([H])([H])[H])[N+]3([H])C([H])([H])C([H])([H])C3([H])C([H])([H])N([H])C(=O)N3C([H])([H])C([H])([H])C([H])([H])C([H])(n4nc(-c5c([H])c([H])c(Oc6c([H])c([H])c(F)c([H])c6F)c([H])c5[H])c(C(=O)N([H])[H])c4N([H])[H])C3([H])[H])c([H])c([H])c2C1([H])[H]

>  <smiles>  (5) 
[H]c1c([H])c([H])c2c(c1[H])C([H])([H])C([H])([H])C([H])([H])C2([H])N([H])C(=O)C1([H])N(C(=O)C([H])(N([H])C(=O)C([H])(N([H])C([H])([H])[H])C([H])([H])[H])C(C([H])([H])[H])(C([H])([H])[H])C([H])([H])[H])C([H])([H])c2c([H])c(OC([H])([H])C([H])(C([H])([H])C([H])([H])C([H])([H])[N+]([H])([H])[H])[N+]3([H])C([H])([H])C([H])([H])C3([H])C([H])([H])N([H])C(=O)N3C([H])([H])C([H])([H])C([H])([H])C([H])(n4nc(-c5c([H])c([H])c(Oc6c([H])c([H])c(F)c([H])c6F)c([H])c5[H])c(C(=O)N([H])[H])c4N([H])[H])C3([H])[H])c([H])c([H])c2C1([H])[H]

$$$$
5:0:0
     RDKit          3D

 95104  0  0  1  0  0  0  0  0999 V2000
  -28.3110  -18.9130   18.0040 C   0  0  0  0  0  2  0  0  0  0  0  0
  -29.4930  -19.7660   17.4960 C   0  0  0  0  0  2  0  0  0  0  0  0
  -28.6550  -18.7540   19.5010 C   0  0  0  0  0  3  0  0  0  0  0  0
  -29.1650  -20.1930   19.8490 C   0  0  0  0  0  3  0  0  0  0  0  0
  -30.2740  -20.0750   18.8010 C   0  0  0  0  0  3  0  0  0  0  0  0
  -29.9480  -17.8400   19.5440 C   0  0  0  0  0  3  0  0  0  0  0  0
  -30.9870  -18.8460   19.2150 N   0  0  0  0  0  4  0  0  0  0  0  0
  -31.5500  -19.0420   20.0240 H   0  0  0  0  0  0  0  0  0  0  0  0
  -31.5890  -18.5160   18.4790 H   0  0  0  0  0  0  0  0  0  0  0  0
  -28.2630  -21.3580   19.6010 N   0  0  0  0  0  0  0  0  0  0  0  0
  -27.3620  -21.1610   20.0290 H   0  0  0  0  0  0  0  0  0  0  0  0
  -28.7550  -22.6550   20.1300 C   0  0  0  0  0  2  0  0  0  0  0  0
  -28.7720  -24.4080   18.2020 C   0  0  0  0  0  1  0  0  0  0  0  0
  -28.1150  -23.9760   19.5340 C   0  0  0  0  0  3  0  0  0  0  0  0
  -28.1340  -25.1580   20.5810 C   0  0  0  0  0  2  0  0  0  0  0  0
  -28.3000  -26.5450   20.1410 O   0  0  0  0  0  0  0  0  0  0  0  0
  -24.5950  -31.8720   23.2310 C   0  0  0  0  0  0  0  0  0  0  0  0
  -27.1760  -27.3510   20.1560 C   0  0  0  0  0  0  0  0  0  0  0  0
  -23.3820  -30.4720   21.6050 C   0  0  0  0  0  3  0  0  0  0  0  0
  -24.8180  -28.9250   20.1730 C   0  0  0  0  0  0  0  0  0  0  0  0
  -25.9180  -30.8030   21.4010 C   0  0  0  0  0  2  0  0  0  0  0  0
  -25.9920  -29.4310   20.7500 C   0  0  0  0  0  0  0  0  0  0  0  0
  -27.1820  -28.6540   20.7260 C   0  0  0  0  0  3  0  0  0  0  0  0
  -25.9790  -26.8740   19.5860 C   0  0  0  0  0  3  0  0  0  0  0  0
  -24.8070  -27.6470   19.5940 C   0  0  0  0  0  3  0  0  0  0  0  0
  -23.5850  -29.7970   20.2250 C   0  0  0  0  0  2  0  0  0  0  0  0
  -24.6520  -31.0650   22.1360 N   0  0  0  0  0  0  0  0  0  0  0  0
  -23.5130  -32.1480   23.7700 O   0  0  0  0  0  0  0  0  0  0  0  0
  -22.7290  -29.4530   22.5680 C   0  0  0  0  0  0  0  0  0  0  0  0
  -21.4030  -29.2710   22.4410 N   0  0  0  0  0  0  0  0  0  0  0  0
  -23.4110  -28.8270   23.3830 O   0  0  0  0  0  0  0  0  0  0  0  0
  -20.9150  -29.8160   21.7430 H   0  0  0  0  0  0  0  0  0  0  0  0
  -18.0240  -28.0820   22.9430 C   0  0  0  0  0  0  0  0  0  0  0  0
  -20.5830  -28.3400   23.2160 C   0  0  0  0  0  3  0  0  0  0  0  0
  -20.6880  -26.9070   22.6470 C   0  0  0  0  0  2  0  0  0  0  0  0
  -19.5860  -26.5790   21.6330 C   0  0  0  0  0  2  0  0  0  0  0  0
  -18.2010  -26.7300   22.2720 C   0  0  0  0  0  2  0  0  0  0  0  0
  -19.1440  -28.8440   23.3720 C   0  0  0  0  0  0  0  0  0  0  0  0
  -18.9270  -30.1100   23.9570 C   0  0  0  0  0  3  0  0  0  0  0  0
  -17.6230  -30.6180   24.1150 C   0  0  0  0  0  3  0  0  0  0  0  0
  -16.5170  -29.8500   23.7060 C   0  0  0  0  0  3  0  0  0  0  0  0
  -16.7200  -28.5850   23.1270 C   0  0  0  0  0  3  0  0  0  0  0  0
  -25.8820  -32.5030   23.8460 C   0  0  0  0  0  3  0  0  0  0  0  0
  -25.5700  -33.8990   24.1780 N   0  0  0  0  0  0  0  0  0  0  0  0
  -25.9010  -34.9520   23.4200 C   0  0  0  0  0  0  0  0  0  0  0  0
  -26.5730  -34.8560   22.3900 O   0  0  0  0  0  0  0  0  0  0  0  0
  -24.9670  -34.0480   24.9720 H   0  0  0  0  0  0  0  0  0  0  0  0
  -24.1740  -36.7460   23.0780 C   0  0  0  0  0  1  0  0  0  0  0  0
  -25.4160  -36.3380   23.8830 C   0  0  0  0  0  3  0  0  0  0  0  0
  -27.5490  -37.2230   24.7170 C   0  0  0  0  0  1  0  0  0  0  0  0
  -26.4470  -37.3920   23.7720 N   0  0  0  0  0  0  0  0  0  0  0  0
  -26.0420  -38.3100   23.9280 H   0  0  0  0  0  0  0  0  0  0  0  0
  -26.4050  -31.7310   25.1190 C   0  0  1  0  0  0  0  0  0  0  0  0
  -25.3100  -31.4850   26.1860 C   0  0  0  0  0  1  0  0  0  0  0  0
  -26.9890  -30.3550   24.7210 C   0  0  0  0  0  1  0  0  0  0  0  0
  -27.5610  -32.5230   25.7730 C   0  0  0  0  0  1  0  0  0  0  0  0
  -30.3050  -17.0160   20.8380 C   0  0  0  0  0  2  0  0  0  0  0  0
  -30.6200  -14.5260   20.4550 C   0  0  0  0  0  0  0  0  0  0  0  0
  -30.3530  -12.3320   19.3520 C   0  0  0  0  0  2  0  0  0  0  0  0
  -29.4050  -12.5090   18.1470 C   0  0  0  0  0  2  0  0  0  0  0  0
  -27.9330  -12.3770   18.5870 C   0  0  0  0  0  2  0  0  0  0  0  0
  -27.5990  -13.2240   19.8450 C   0  0  0  0  0  3  0  0  0  0  0  0
  -28.6590  -13.0150   20.9480 C   0  0  0  0  0  2  0  0  0  0  0  0
  -29.9710  -13.3300   20.3680 N   0  0  0  0  0  0  0  0  0  0  0  0
  -31.7680  -14.6870   20.0380 O   0  0  0  0  0  0  0  0  0  0  0  0
  -29.8690  -15.5910   20.8420 N   0  0  0  0  0  0  0  0  0  0  0  0
  -28.9320  -15.3950   21.1590 H   0  0  0  0  0  0  0  0  0  0  0  0
  -25.2090  -13.8390   20.5670 C   0  0  0  0  0  0  0  0  0  0  0  0
  -24.1390  -13.0660   20.9410 C   0  0  0  0  0  0  0  0  0  0  0  0
  -24.5970  -11.7140   20.9070 C   0  0  0  0  0  0  0  0  0  0  0  0
  -26.2490  -12.9530   20.3330 N   0  0  0  0  0  0  0  0  0  0  0  0
  -25.8860  -11.6700   20.5920 N   0  0  0  0  0  0  0  0  0  0  0  0
  -23.8680  -10.4540   21.0930 C   0  0  0  0  0  0  0  0  0  0  0  0
  -24.3100   -9.4730   22.0080 C   0  0  0  0  0  3  0  0  0  0  0  0
  -23.5800   -8.2770   22.1830 C   0  0  0  0  0  3  0  0  0  0  0  0
  -22.3940   -8.0560   21.4410 C   0  0  0  0  0  0  0  0  0  0  0  0
  -21.9730   -9.0260   20.5150 C   0  0  0  0  0  3  0  0  0  0  0  0
  -22.7040  -10.2120   20.3380 C   0  0  0  0  0  3  0  0  0  0  0  0
  -21.6320   -6.9170   21.5300 O   0  0  0  0  0  0  0  0  0  0  0  0
  -21.6090   -6.1500   22.6690 C   0  0  0  0  0  0  0  0  0  0  0  0
  -21.2290   -6.6840   23.9200 C   0  0  0  0  0  3  0  0  0  0  0  0
  -21.1550   -5.8460   25.0500 C   0  0  0  0  0  3  0  0  0  0  0  0
  -21.4480   -4.4750   24.9310 C   0  0  0  0  0  0  0  0  0  0  0  0
  -21.8230   -3.9400   23.6860 C   0  0  0  0  0  3  0  0  0  0  0  0
  -21.9000   -4.7750   22.5570 C   0  0  0  0  0  0  0  0  0  0  0  0
  -22.2400   -4.2500   21.3550 F   0  0  0  0  0  0  0  0  0  0  0  0
  -21.3690   -3.6680   26.0150 F   0  0  0  0  0  0  0  0  0  0  0  0
  -22.7440  -13.5490   21.2160 C   0  0  0  0  0  0  0  0  0  0  0  0
  -22.0150  -12.8500   22.0810 N   0  0  0  0  0  0  0  0  0  0  0  0
  -22.3100  -14.5770   20.7010 O   0  0  0  0  0  0  0  0  0  0  0  0
  -22.3800  -12.0190   22.5210 H   0  0  0  0  0  0  0  0  0  0  0  0
  -21.0770  -13.1500   22.3040 H   0  0  0  0  0  0  0  0  0  0  0  0
  -25.3750  -15.2080   20.3920 N   0  0  0  0  0  0  0  0  0  0  0  0
  -24.6030  -15.8570   20.4920 H   0  0  0  0  0  0  0  0  0  0  0  0
  -26.2140  -15.6430   20.0280 H   0  0  0  0  0  0  0  0  0  0  0  0
  2  1  1  0
  3  1  1  0
  3  6  1  0
  3  4  1  0
  4 10  1  0
  5  2  1  0
  5  7  1  0
  5  4  1  0
  6 57  1  0
  7  6  1  0
  7  8  1  0
  9  7  1  0
 10 11  1  0
 10 12  1  0
 14 13  1  0
 14 12  1  0
 14 15  1  0
 16 18  1  0
 16 15  1  0
 17 28  2  0
 18 23  1  0
 19 27  1  0
 19 29  1  0
 20 26  1  0
 20 22  1  0
 21 27  1  0
 22 21  1  0
 23 22  2  0
 24 25  1  0
 24 18  2  0
 25 20  2  0
 26 19  1  0
 27 17  1  0
 29 31  2  0
 30 29  1  0
 32 30  1  0
 33 42  2  0
 33 38  1  0
 34 30  1  0
 34 38  1  0
 35 34  1  0
 36 37  1  0
 36 35  1  0
 37 33  1  0
 38 39  2  0
 39 40  1  0
 41 40  2  0
 42 41  1  0
 43 17  1  0
 43 44  1  0
 43 53  1  0
 44 47  1  0
 45 49  1  0
 45 44  1  0
 46 45  2  0
 49 48  1  0
 51 49  1  0
 51 52  1  0
 51 50  1  0
 53 56  1  1
 53 54  1  0
 55 53  1  0
 57 66  1  0
 58 66  1  0
 59 64  1  0
 60 61  1  0
 60 59  1  0
 62 61  1  0
 62 71  1  0
 62 63  1  0
 64 58  1  0
 64 63  1  0
 65 58  2  0
 66 67  1  0
 68 69  2  0
 69 88  1  0
 70 69  1  0
 70 73  1  0
 71 68  1  0
 71 72  1  0
 72 70  2  0
 73 74  1  0
 74 75  2  0
 76 79  1  0
 76 75  1  0
 77 76  2  0
 78 77  1  0
 78 73  2  0
 79 80  1  0
 80 81  1  0
 81 82  2  0
 83 82  1  0
 83 87  1  0
 84 83  2  0
 85 80  2  0
 85 84  1  0
 86 85  1  0
 88 89  1  0
 89 92  1  0
 89 91  1  0
 90 88  2  0
 93 94  1  0
 93 68  1  0
 95 93  1  0
M  ISO  4  15 101  16 101  58 100  66 100
M  END
>  <TORSDO>  (6) 
F 21

>  <SCORE>  (6) 
-13.604

>  <name>  (6) 
5

>  <ligand_id>  (6) 
5

>  <original_smiles>  (6) 
[H]c1c([H])c([H])c2c(c1[H])C([H])([H])C([H])([H])C([H])([H])C2([H])N([H])C(=O)C1([H])N(C(=O)C([H])(N([H])C(=O)C([H])(N([H])C([H])([H])[H])C([H])([H])[H])C(C([H])([H])[H])(C([H])([H])[H])C([H])([H])[H])C([H])([H])c2c([H])c(OC([H])([H])C([H])(C([H])([H])[H])C([H])([H])N([H])C3([H])C4([H])C([H])([H])C([H])([H])C3([H])[N+]([H])([H])C4([H])C([H])([H])N([H])C(=O)N3C([H])([H])C([H])([H])C([H])([H])C([H])(n4nc(-c5c([H])c([H])c(Oc6c([H])c([H])c(F)c([H])c6F)c([H])c5[H])c(C(=O)N([H])[H])c4N([H])[H])C3([H])[H])c([H])c([H])c2C1([H])[H]

>  <smiles>  (6) 
[H]c1c([H])c([H])c2c(c1[H])C([H])([H])C([H])([H])C([H])([H])C2([H])N([H])C(=O)C1([H])N(C(=O)C([H])(N([H])C(=O)C([H])(N([H])C([H])([H])[H])C([H])([H])[H])C(C([H])([H])[H])(C([H])([H])[H])C([H])([H])[H])C([H])([H])c2c([H])c(OC([H])([H])C([H])(C([H])([H])[H])C([H])([H])N([H])C3([H])C4([H])C([H])([H])C([H])([H])C3([H])[N+]([H])([H])C4([H])C([H])([H])N([H])C(=O)N3C([H])([H])C([H])([H])C([H])([H])C([H])(n4nc(-c5c([H])c([H])c(Oc6c([H])c([H])c(F)c([H])c6F)c([H])c5[H])c(C(=O)N([H])[H])c4N([H])[H])C3([H])[H])c([H])c([H])c2C1([H])[H]

$$$$
6:0:0
     RDKit          3D

100109  0  0  1  0  0  0  0  0999 V2000
  -29.6740  -20.6630   20.5020 C   0  0  0  0  0  0  0  0  0  0  0  0
  -29.8930  -19.3960   20.0720 N   0  0  0  0  0  0  0  0  0  0  0  0
  -30.0470  -21.0510   21.6120 O   0  0  0  0  0  0  0  0  0  0  0  0
  -29.5670  -19.1880   19.1360 H   0  0  0  0  0  0  0  0  0  0  0  0
  -27.0150  -22.5840   19.7490 C   0  0  0  0  0  2  0  0  0  0  0  0
  -28.8840  -21.6300   19.5730 C   0  0  0  0  0  3  0  0  0  0  0  0
  -27.4280  -21.1560   19.4250 C   0  0  0  0  0  3  0  0  0  0  0  0
  -26.9620  -20.4970   18.1310 C   0  0  0  0  0  1  0  0  0  0  0  0
  -28.3720  -22.8560   20.2420 N   0  0  1  0  0  4  0  0  0  0  0  0
  -28.4530  -22.6930   21.2370 H   0  0  0  0  0  0  0  0  0  0  0  0
  -28.8960  -24.2010   19.8160 C   0  0  0  0  0  2  0  0  0  0  0  0
  -28.3540  -25.3800   20.6920 C   0  0  0  0  0  2  0  0  0  0  0  0
  -28.4880  -26.7140   20.1310 O   0  0  0  0  0  0  0  0  0  0  0  0
  -24.5480  -31.8070   23.2490 C   0  0  0  0  0  0  0  0  0  0  0  0
  -27.3310  -27.4710   20.1180 C   0  0  0  0  0  0  0  0  0  0  0  0
  -23.4060  -30.4400   21.5330 C   0  0  0  0  0  3  0  0  0  0  0  0
  -24.9210  -28.9620   20.1000 C   0  0  0  0  0  0  0  0  0  0  0  0
  -25.9320  -30.8330   21.4120 C   0  0  0  0  0  2  0  0  0  0  0  0
  -26.0550  -29.4790   20.7350 C   0  0  0  0  0  0  0  0  0  0  0  0
  -27.2680  -28.7430   20.7380 C   0  0  0  0  0  3  0  0  0  0  0  0
  -26.1800  -26.9740   19.4700 C   0  0  0  0  0  3  0  0  0  0  0  0
  -24.9790  -27.7110   19.4590 C   0  0  0  0  0  3  0  0  0  0  0  0
  -23.6630  -29.8040   20.1390 C   0  0  0  0  0  2  0  0  0  0  0  0
  -24.6460  -31.0400   22.1250 N   0  0  0  0  0  0  0  0  0  0  0  0
  -23.4490  -32.0450   23.7690 O   0  0  0  0  0  0  0  0  0  0  0  0
  -22.7400  -29.3830   22.4430 C   0  0  0  0  0  0  0  0  0  0  0  0
  -21.4160  -29.2160   22.3020 N   0  0  0  0  0  0  0  0  0  0  0  0
  -23.4140  -28.7150   23.2320 O   0  0  0  0  0  0  0  0  0  0  0  0
  -20.9290  -29.8070   21.6430 H   0  0  0  0  0  0  0  0  0  0  0  0
  -18.0210  -28.0730   22.7880 C   0  0  0  0  0  0  0  0  0  0  0  0
  -20.5900  -28.2490   23.0250 C   0  0  0  0  0  3  0  0  0  0  0  0
  -20.6440  -26.8570   22.3540 C   0  0  0  0  0  2  0  0  0  0  0  0
  -19.5150  -26.6300   21.3430 C   0  0  0  0  0  2  0  0  0  0  0  0
  -18.1500  -26.7670   22.0220 C   0  0  0  0  0  2  0  0  0  0  0  0
  -19.1680  -28.7750   23.2460 C   0  0  0  0  0  0  0  0  0  0  0  0
  -18.9920  -30.0030   23.9230 C   0  0  0  0  0  3  0  0  0  0  0  0
  -17.7040  -30.5250   24.1470 C   0  0  0  0  0  3  0  0  0  0  0  0
  -16.5740  -29.8180   23.7060 C   0  0  0  0  0  3  0  0  0  0  0  0
  -16.7320  -28.5930   23.0320 C   0  0  0  0  0  3  0  0  0  0  0  0
  -25.8060  -32.4360   23.9230 C   0  0  0  0  0  3  0  0  0  0  0  0
  -26.2530  -31.6790   25.2330 C   0  0  1  0  0  0  0  0  0  0  0  0
  -25.1080  -31.4610   26.2490 C   0  0  0  0  0  1  0  0  0  0  0  0
  -26.8470  -30.2940   24.8840 C   0  0  0  0  0  1  0  0  0  0  0  0
  -27.3750  -32.4740   25.9410 C   0  0  0  0  0  1  0  0  0  0  0  0
  -25.4970  -33.8420   24.2170 N   0  0  0  0  0  0  0  0  0  0  0  0
  -25.8770  -34.8800   23.4590 C   0  0  0  0  0  0  0  0  0  0  0  0
  -26.5960  -34.7540   22.4640 O   0  0  0  0  0  0  0  0  0  0  0  0
  -24.8700  -34.0160   24.9900 H   0  0  0  0  0  0  0  0  0  0  0  0
  -24.1830  -36.6790   22.9930 C   0  0  0  0  0  1  0  0  0  0  0  0
  -25.3820  -36.2800   23.8690 C   0  0  0  0  0  3  0  0  0  0  0  0
  -27.4780  -37.1630   24.7890 C   0  0  0  0  0  1  0  0  0  0  0  0
  -26.4270  -37.3230   23.7880 N   0  0  0  0  0  0  0  0  0  0  0  0
  -26.0230  -38.2480   23.8990 H   0  0  0  0  0  0  0  0  0  0  0  0
  -30.4320  -18.2370   20.8310 C   0  0  0  0  0  3  0  0  0  0  0  0
  -32.7200  -18.1040   19.5360 C   0  0  0  0  0  2  0  0  0  0  0  0
  -31.9560  -18.1110   20.8510 C   0  0  0  0  0  3  0  0  0  0  0  0
  -32.9220  -19.2360   20.5160 C   0  0  0  0  0  3  0  0  0  0  0  0
  -34.2160  -19.1830   21.2280 N   0  0  0  0  0  4  0  0  0  0  0  0
  -34.9510  -19.5490   20.6490 H   0  0  0  0  0  0  0  0  0  0  0  0
  -34.4620  -18.2470   21.4930 H   0  0  0  0  0  0  0  0  0  0  0  0
  -34.1810  -19.7430   22.0600 H   0  0  0  0  0  0  0  0  0  0  0  0
  -29.8040  -16.9120   20.2850 C   0  0  0  0  0  2  0  0  0  0  0  0
  -30.8650  -14.6380   20.5690 C   0  0  0  0  0  0  0  0  0  0  0  0
  -30.6420  -12.4640   19.4260 C   0  0  0  0  0  2  0  0  0  0  0  0
  -29.7330  -12.6980   18.2000 C   0  0  0  0  0  2  0  0  0  0  0  0
  -28.2450  -12.5630   18.5780 C   0  0  0  0  0  2  0  0  0  0  0  0
  -27.8790  -13.3680   19.8540 C   0  0  0  0  0  3  0  0  0  0  0  0
  -28.9020  -13.1110   20.9870 C   0  0  0  0  0  2  0  0  0  0  0  0
  -30.2450  -13.4270   20.4680 N   0  0  0  0  0  0  0  0  0  0  0  0
  -31.9870  -14.8540   20.1050 O   0  0  0  0  0  0  0  0  0  0  0  0
  -30.0690  -15.6410   21.0020 N   0  0  0  0  0  0  0  0  0  0  0  0
  -29.2730  -15.3030   21.5220 H   0  0  0  0  0  0  0  0  0  0  0  0
  -25.4610  -13.9860   20.4790 C   0  0  0  0  0  0  0  0  0  0  0  0
  -24.3800  -13.2180   20.8210 C   0  0  0  0  0  0  0  0  0  0  0  0
  -24.8380  -11.8650   20.8150 C   0  0  0  0  0  0  0  0  0  0  0  0
  -26.5110  -13.1010   20.2880 N   0  0  0  0  0  0  0  0  0  0  0  0
  -26.1370  -11.8210   20.5470 N   0  0  0  0  0  0  0  0  0  0  0  0
  -24.1040  -10.6060   20.9920 C   0  0  0  0  0  0  0  0  0  0  0  0
  -24.5040   -9.6470   21.9480 C   0  0  0  0  0  3  0  0  0  0  0  0
  -23.7710   -8.4520   22.1120 C   0  0  0  0  0  3  0  0  0  0  0  0
  -22.6270   -8.2060   21.3180 C   0  0  0  0  0  0  0  0  0  0  0  0
  -22.2470   -9.1540   20.3500 C   0  0  0  0  0  3  0  0  0  0  0  0
  -22.9800  -10.3410   20.1850 C   0  0  0  0  0  3  0  0  0  0  0  0
  -21.8680   -7.0620   21.3890 O   0  0  0  0  0  0  0  0  0  0  0  0
  -21.7840   -6.3270   22.5430 C   0  0  0  0  0  0  0  0  0  0  0  0
  -21.3100   -6.8860   23.7510 C   0  0  0  0  0  3  0  0  0  0  0  0
  -21.1750   -6.0760   24.8960 C   0  0  0  0  0  3  0  0  0  0  0  0
  -21.4990   -4.7070   24.8350 C   0  0  0  0  0  0  0  0  0  0  0  0
  -21.9660   -4.1470   23.6320 C   0  0  0  0  0  3  0  0  0  0  0  0
  -22.1040   -4.9540   22.4900 C   0  0  0  0  0  0  0  0  0  0  0  0
  -22.5330   -4.4060   21.3280 F   0  0  0  0  0  0  0  0  0  0  0  0
  -21.3620   -3.9270   25.9330 F   0  0  0  0  0  0  0  0  0  0  0  0
  -22.9770  -13.7000   21.0460 C   0  0  0  0  0  0  0  0  0  0  0  0
  -22.2180  -13.0090   21.8900 N   0  0  0  0  0  0  0  0  0  0  0  0
  -22.5580  -14.7270   20.5120 O   0  0  0  0  0  0  0  0  0  0  0  0
  -22.5660  -12.1770   22.3450 H   0  0  0  0  0  0  0  0  0  0  0  0
  -21.2760  -13.3170   22.0830 H   0  0  0  0  0  0  0  0  0  0  0  0
  -25.6330  -15.3550   20.2980 N   0  0  0  0  0  0  0  0  0  0  0  0
  -24.8630  -16.0100   20.3750 H   0  0  0  0  0  0  0  0  0  0  0  0
  -26.4910  -15.7890   19.9830 H   0  0  0  0  0  0  0  0  0  0  0  0
  1  3  2  0
  2  1  1  0
  2 54  1  0
  4  2  1  0
  5  9  1  0
  6  9  1  0
  6  1  1  0
  7  8  1  0
  7  6  1  0
  7  5  1  0
  9 10  1  1
 11  9  1  0
 11 12  1  0
 13 12  1  0
 14 25  2  0
 15 13  1  0
 15 20  1  0
 16 24  1  0
 16 26  1  0
 17 23  1  0
 17 19  1  0
 18 24  1  0
 19 20  2  0
 19 18  1  0
 21 15  2  0
 22 21  1  0
 22 17  2  0
 23 16  1  0
 24 14  1  0
 26 28  2  0
 27 26  1  0
 29 27  1  0
 30 39  2  0
 30 35  1  0
 31 27  1  0
 31 35  1  0
 32 31  1  0
 33 34  1  0
 33 32  1  0
 34 30  1  0
 35 36  2  0
 36 37  1  0
 38 37  2  0
 39 38  1  0
 40 14  1  0
 40 45  1  0
 40 41  1  0
 41 44  1  1
 41 42  1  0
 43 41  1  0
 45 48  1  0
 46 50  1  0
 46 45  1  0
 47 46  2  0
 50 49  1  0
 52 50  1  0
 52 53  1  0
 52 51  1  0
 54 62  1  0
 55 57  1  0
 55 56  1  0
 56 54  1  0
 57 56  1  0
 57 58  1  0
 58 60  1  0
 58 61  1  0
 59 58  1  0
 62 71  1  0
 63 71  1  0
 64 69  1  0
 65 66  1  0
 65 64  1  0
 67 66  1  0
 67 76  1  0
 67 68  1  0
 69 63  1  0
 69 68  1  0
 70 63  2  0
 71 72  1  0
 73 74  2  0
 74 93  1  0
 75 74  1  0
 75 78  1  0
 76 73  1  0
 76 77  1  0
 77 75  2  0
 78 79  1  0
 79 80  2  0
 81 84  1  0
 81 80  1  0
 82 81  2  0
 83 82  1  0
 83 78  2  0
 84 85  1  0
 85 86  1  0
 86 87  2  0
 88 87  1  0
 88 92  1  0
 89 88  2  0
 90 85  2  0
 90 89  1  0
 91 90  1  0
 93 94  1  0
 94 97  1  0
 94 96  1  0
 95 93  2  0
 98 99  1  0
 98 73  1  0
100 98  1  0
M  ISO  4  12 101  13 101  63 100  71 100
M  END
>  <TORSDO>  (7) 
F 23

>  <SCORE>  (7) 
-13.279

>  <name>  (7) 
6

>  <ligand_id>  (7) 
6

>  <original_smiles>  (7) 
[H]c1c([H])c([H])c2c(c1[H])C([H])([H])C([H])([H])C([H])([H])C2([H])N([H])C(=O)C1([H])N(C(=O)C([H])(N([H])C(=O)C([H])(N([H])C([H])([H])[H])C([H])([H])[H])C(C([H])([H])[H])(C([H])([H])[H])C([H])([H])[H])C([H])([H])c2c([H])c(OC([H])([H])C([H])([H])[N+]3([H])C([H])([H])C([H])(C([H])([H])[H])C3([H])C(=O)N([H])C([H])(C([H])([H])N([H])C(=O)N3C([H])([H])C([H])([H])C([H])([H])C([H])(n4nc(-c5c([H])c([H])c(Oc6c([H])c([H])c(F)c([H])c6F)c([H])c5[H])c(C(=O)N([H])[H])c4N([H])[H])C3([H])[H])C3([H])C([H])([H])C3([H])[N+]([H])([H])[H])c([H])c([H])c2C1([H])[H]

>  <smiles>  (7) 
[H]c1c([H])c([H])c2c(c1[H])C([H])([H])C([H])([H])C([H])([H])C2([H])N([H])C(=O)C1([H])N(C(=O)C([H])(N([H])C(=O)C([H])(N([H])C([H])([H])[H])C([H])([H])[H])C(C([H])([H])[H])(C([H])([H])[H])C([H])([H])[H])C([H])([H])c2c([H])c(OC([H])([H])C([H])([H])[N+]3([H])C([H])([H])C([H])(C([H])([H])[H])C3([H])C(=O)N([H])C([H])(C([H])([H])N([H])C(=O)N3C([H])([H])C([H])([H])C([H])([H])C([H])(n4nc(-c5c([H])c([H])c(Oc6c([H])c([H])c(F)c([H])c6F)c([H])c5[H])c(C(=O)N([H])[H])c4N([H])[H])C3([H])[H])C3([H])C([H])([H])C3([H])[N+]([H])([H])[H])c([H])c([H])c2C1([H])[H]

$$$$
7:0:0
     RDKit          3D

 98106  0  0  1  0  0  0  0  0999 V2000
  -29.7190  -21.4370   17.9090 C   0  0  0  0  0  2  0  0  0  0  0  0
  -30.1850  -23.8090   18.6370 C   0  0  0  0  0  0  0  0  0  0  0  0
  -30.7870  -24.1440   17.4780 N   0  0  0  0  0  4  0  0  0  0  0  0
  -29.7450  -22.5510   18.8760 N   0  0  0  0  0  0  0  0  0  0  0  0
  -31.0130  -23.4790   16.7520 H   0  0  0  0  0  0  0  0  0  0  0  0
  -31.0980  -25.0940   17.3150 H   0  0  0  0  0  0  0  0  0  0  0  0
  -29.3710  -22.3260   19.7970 H   0  0  0  0  0  0  0  0  0  0  0  0
  -29.9830  -24.8900   19.6690 C   0  0  0  0  0  2  0  0  0  0  0  0
  -28.5450  -25.4390   19.5660 C   0  0  0  0  0  2  0  0  0  0  0  0
  -28.4340  -26.7210   20.1910 O   0  0  0  0  0  0  0  0  0  0  0  0
  -24.5940  -31.8620   23.2260 C   0  0  0  0  0  0  0  0  0  0  0  0
  -27.2290  -27.3950   20.1660 C   0  0  0  0  0  0  0  0  0  0  0  0
  -23.3730  -30.4470   21.5920 C   0  0  0  0  0  3  0  0  0  0  0  0
  -24.8210  -28.8860   20.1850 C   0  0  0  0  0  0  0  0  0  0  0  0
  -25.8980  -30.8000   21.3860 C   0  0  0  0  0  2  0  0  0  0  0  0
  -25.9790  -29.4210   20.7610 C   0  0  0  0  0  0  0  0  0  0  0  0
  -27.1810  -28.6820   20.7490 C   0  0  0  0  0  3  0  0  0  0  0  0
  -26.0460  -26.8650   19.5940 C   0  0  0  0  0  3  0  0  0  0  0  0
  -24.8490  -27.6070   19.6010 C   0  0  0  0  0  3  0  0  0  0  0  0
  -23.5780  -29.7440   20.2220 C   0  0  0  0  0  2  0  0  0  0  0  0
  -24.6390  -31.0570   22.1240 N   0  0  0  0  0  0  0  0  0  0  0  0
  -23.5190  -32.1390   23.7710 O   0  0  0  0  0  0  0  0  0  0  0  0
  -22.7190  -29.4430   22.5690 C   0  0  0  0  0  0  0  0  0  0  0  0
  -21.3940  -29.2630   22.4420 N   0  0  0  0  0  0  0  0  0  0  0  0
  -23.4030  -28.8300   23.3920 O   0  0  0  0  0  0  0  0  0  0  0  0
  -20.9080  -29.8040   21.7400 H   0  0  0  0  0  0  0  0  0  0  0  0
  -18.0230  -28.0650   22.9320 C   0  0  0  0  0  0  0  0  0  0  0  0
  -20.5760  -28.3380   23.2270 C   0  0  0  0  0  3  0  0  0  0  0  0
  -20.6920  -26.8980   22.6790 C   0  0  0  0  0  2  0  0  0  0  0  0
  -19.6000  -26.5540   21.6590 C   0  0  0  0  0  2  0  0  0  0  0  0
  -18.2110  -26.7050   22.2870 C   0  0  0  0  0  2  0  0  0  0  0  0
  -19.1330  -28.8410   23.3600 C   0  0  0  0  0  0  0  0  0  0  0  0
  -18.9020  -30.1150   23.9210 C   0  0  0  0  0  3  0  0  0  0  0  0
  -17.5920  -30.6120   24.0670 C   0  0  0  0  0  3  0  0  0  0  0  0
  -16.4960  -29.8320   23.6560 C   0  0  0  0  0  3  0  0  0  0  0  0
  -16.7130  -28.5620   23.0940 C   0  0  0  0  0  3  0  0  0  0  0  0
  -25.8860  -32.4900   23.8360 C   0  0  0  0  0  3  0  0  0  0  0  0
  -25.5810  -33.8870   24.1770 N   0  0  0  0  0  0  0  0  0  0  0  0
  -25.9020  -34.9410   23.4160 C   0  0  0  0  0  0  0  0  0  0  0  0
  -26.5570  -34.8410   22.3740 O   0  0  0  0  0  0  0  0  0  0  0  0
  -25.0040  -34.0410   24.9900 H   0  0  0  0  0  0  0  0  0  0  0  0
  -24.1680  -36.7310   23.0890 C   0  0  0  0  0  1  0  0  0  0  0  0
  -25.4200  -36.3280   23.8830 C   0  0  0  0  0  3  0  0  0  0  0  0
  -27.5630  -37.2140   24.6910 C   0  0  0  0  0  1  0  0  0  0  0  0
  -26.4500  -37.3840   23.7610 N   0  0  0  0  0  0  0  0  0  0  0  0
  -26.0430  -38.3020   23.9180 H   0  0  0  0  0  0  0  0  0  0  0  0
  -26.4210  -31.7110   25.1000 C   0  0  1  0  0  0  0  0  0  0  0  0
  -25.3470  -31.4650   26.1830 C   0  0  0  0  0  1  0  0  0  0  0  0
  -26.9980  -30.3370   24.6890 C   0  0  0  0  0  1  0  0  0  0  0  0
  -27.5810  -32.5020   25.7550 C   0  0  0  0  0  1  0  0  0  0  0  0
  -30.3260  -20.1160   18.4300 C   0  0  0  0  0  2  0  0  0  0  0  0
  -29.7510  -19.7760   20.9350 C   0  0  0  0  0  0  0  0  0  0  0  0
  -29.5000  -19.3490   19.4910 C   0  0  0  0  0  3  0  0  0  0  0  0
  -29.8370  -17.8420   19.5410 C   0  0  0  0  0  3  0  0  0  0  0  0
  -29.7800  -17.4480   21.0380 C   0  0  0  0  0  3  0  0  0  0  0  0
  -28.9540  -16.9830   18.6240 C   0  0  0  0  0  1  0  0  0  0  0  0
  -29.8970  -18.7180   21.7240 N   0  0  0  0  0  0  0  0  0  0  0  0
  -29.7870  -20.9520   21.3040 O   0  0  0  0  0  0  0  0  0  0  0  0
  -29.9960  -18.7770   22.7300 H   0  0  0  0  0  0  0  0  0  0  0  0
  -30.8810  -16.4580   21.4840 C   0  0  0  0  0  2  0  0  0  0  0  0
  -31.1110  -14.2660   20.2510 C   0  0  0  0  0  0  0  0  0  0  0  0
  -30.6980  -12.2240   18.9220 C   0  0  0  0  0  2  0  0  0  0  0  0
  -29.7150  -12.5360   17.7760 C   0  0  0  0  0  2  0  0  0  0  0  0
  -28.2500  -12.4410   18.2520 C   0  0  0  0  0  2  0  0  0  0  0  0
  -28.0010  -13.2250   19.5680 C   0  0  0  0  0  3  0  0  0  0  0  0
  -29.0690  -12.8420   20.6120 C   0  0  0  0  0  2  0  0  0  0  0  0
  -30.3970  -13.1340   20.0350 N   0  0  0  0  0  0  0  0  0  0  0  0
  -32.1610  -14.5370   19.6580 O   0  0  0  0  0  0  0  0  0  0  0  0
  -30.5270  -15.0940   21.1290 N   0  0  0  0  0  0  0  0  0  0  0  0
  -29.6670  -14.7490   21.5300 H   0  0  0  0  0  0  0  0  0  0  0  0
  -25.6500  -13.9370   20.3340 C   0  0  0  0  0  0  0  0  0  0  0  0
  -24.5610  -13.2080   20.7360 C   0  0  0  0  0  0  0  0  0  0  0  0
  -24.9670  -11.8410   20.6990 C   0  0  0  0  0  0  0  0  0  0  0  0
  -26.6500  -13.0110   20.0780 N   0  0  0  0  0  0  0  0  0  0  0  0
  -26.2430  -11.7460   20.3460 N   0  0  0  0  0  0  0  0  0  0  0  0
  -24.1970  -10.6090   20.9160 C   0  0  0  0  0  0  0  0  0  0  0  0
  -24.6070   -9.6340   21.8500 C   0  0  0  0  0  3  0  0  0  0  0  0
  -23.8400   -8.4660   22.0490 C   0  0  0  0  0  3  0  0  0  0  0  0
  -22.6500   -8.2650   21.3110 C   0  0  0  0  0  0  0  0  0  0  0  0
  -22.2620   -9.2230   20.3580 C   0  0  0  0  0  3  0  0  0  0  0  0
  -23.0310  -10.3810   20.1580 C   0  0  0  0  0  3  0  0  0  0  0  0
  -21.8550   -7.1480   21.4210 O   0  0  0  0  0  0  0  0  0  0  0  0
  -21.7690   -6.4380   22.5910 C   0  0  0  0  0  0  0  0  0  0  0  0
  -21.3460   -7.0370   23.7970 C   0  0  0  0  0  3  0  0  0  0  0  0
  -21.2040   -6.2530   24.9580 C   0  0  0  0  0  3  0  0  0  0  0  0
  -21.4790   -4.8730   24.9150 C   0  0  0  0  0  0  0  0  0  0  0  0
  -21.8980   -4.2750   23.7140 C   0  0  0  0  0  3  0  0  0  0  0  0
  -22.0400   -5.0560   22.5540 C   0  0  0  0  0  0  0  0  0  0  0  0
  -22.4250   -4.4720   21.3930 F   0  0  0  0  0  0  0  0  0  0  0  0
  -21.3340   -4.1180   26.0290 F   0  0  0  0  0  0  0  0  0  0  0  0
  -23.1950  -13.7430   21.0510 C   0  0  0  0  0  0  0  0  0  0  0  0
  -22.4680  -13.0820   21.9470 N   0  0  0  0  0  0  0  0  0  0  0  0
  -22.7820  -14.7850   20.5430 O   0  0  0  0  0  0  0  0  0  0  0  0
  -22.8130  -12.2410   22.3870 H   0  0  0  0  0  0  0  0  0  0  0  0
  -21.5520  -13.4250   22.1990 H   0  0  0  0  0  0  0  0  0  0  0  0
  -25.8590  -15.2980   20.1490 N   0  0  0  0  0  0  0  0  0  0  0  0
  -25.1040  -15.9690   20.2440 H   0  0  0  0  0  0  0  0  0  0  0  0
  -26.7130  -15.7090   19.7940 H   0  0  0  0  0  0  0  0  0  0  0  0
  1 51  1  0
  1  4  1  0
  2  4  1  0
  2  8  1  0
  3  2  2  0
  4  7  1  0
  5  3  1  0
  6  3  1  0
  9  8  1  0
  9 10  1  0
 11 22  2  0
 12 10  1  0
 12 17  1  0
 13 21  1  0
 13 23  1  0
 14 20  1  0
 14 16  1  0
 15 21  1  0
 16 15  1  0
 17 16  2  0
 18 19  1  0
 18 12  2  0
 19 14  2  0
 20 13  1  0
 21 11  1  0
 23 25  2  0
 24 23  1  0
 26 24  1  0
 27 36  2  0
 27 32  1  0
 28 24  1  0
 28 32  1  0
 29 28  1  0
 30 31  1  0
 30 29  1  0
 31 27  1  0
 32 33  2  0
 33 34  1  0
 35 34  2  0
 36 35  1  0
 37 11  1  0
 37 38  1  0
 37 47  1  0
 38 41  1  0
 39 43  1  0
 39 38  1  0
 40 39  2  0
 43 42  1  0
 45 43  1  0
 45 46  1  0
 45 44  1  0
 47 50  1  1
 47 48  1  0
 49 47  1  0
 52 58  2  0
 52 57  1  0
 53 51  1  0
 53 54  1  0
 53 52  1  0
 54 56  1  0
 54 55  1  0
 55 60  1  0
 55 57  1  0
 57 59  1  0
 61 69  1  0
 62 67  1  0
 63 64  1  0
 63 62  1  0
 65 64  1  0
 65 74  1  0
 65 66  1  0
 67 61  1  0
 67 66  1  0
 68 61  2  0
 69 60  1  0
 69 70  1  0
 71 72  2  0
 72 91  1  0
 73 72  1  0
 73 76  1  0
 74 71  1  0
 74 75  1  0
 75 73  2  0
 76 77  1  0
 77 78  2  0
 79 82  1  0
 79 78  1  0
 80 79  2  0
 81 80  1  0
 81 76  2  0
 82 83  1  0
 83 84  1  0
 84 85  2  0
 86 85  1  0
 86 90  1  0
 87 86  2  0
 88 83  2  0
 88 87  1  0
 89 88  1  0
 91 92  1  0
 92 95  1  0
 92 94  1  0
 93 91  2  0
 96 97  1  0
 96 71  1  0
 98 96  1  0
M  ISO  4   9 101  10 101  61 100  69 100
M  END
>  <TORSDO>  (8) 
F 22

>  <SCORE>  (8) 
-13.121

>  <name>  (8) 
7

>  <ligand_id>  (8) 
7

>  <original_smiles>  (8) 
[H]c1c([H])c([H])c2c(c1[H])C([H])([H])C([H])([H])C([H])([H])C2([H])N([H])C(=O)C1([H])N(C(=O)C([H])(N([H])C(=O)C([H])(N([H])C([H])([H])[H])C([H])([H])[H])C(C([H])([H])[H])(C([H])([H])[H])C([H])([H])[H])C([H])([H])c2c([H])c(OC([H])([H])C([H])([H])C(N([H])[H])=[N+]([H])C([H])([H])C([H])([H])C3([H])C(=O)N([H])C([H])(C([H])([H])N([H])C(=O)N4C([H])([H])C([H])([H])C([H])([H])C([H])(n5nc(-c6c([H])c([H])c(Oc7c([H])c([H])c(F)c([H])c7F)c([H])c6[H])c(C(=O)N([H])[H])c5N([H])[H])C4([H])[H])C3([H])C([H])([H])[H])c([H])c([H])c2C1([H])[H]

>  <smiles>  (8) 
[H]c1c([H])c([H])c2c(c1[H])C([H])([H])C([H])([H])C([H])([H])C2([H])N([H])C(=O)C1([H])N(C(=O)C([H])(N([H])C(=O)C([H])(N([H])C([H])([H])[H])C([H])([H])[H])C(C([H])([H])[H])(C([H])([H])[H])C([H])([H])[H])C([H])([H])c2c([H])c(OC([H])([H])C([H])([H])C(N([H])[H])=[N+]([H])C([H])([H])C([H])([H])C3([H])C(=O)N([H])C([H])(C([H])([H])N([H])C(=O)N4C([H])([H])C([H])([H])C([H])([H])C([H])(n5nc(-c6c([H])c([H])c(Oc7c([H])c([H])c(F)c([H])c7F)c([H])c6[H])c(C(=O)N([H])[H])c5N([H])[H])C4([H])[H])C3([H])C([H])([H])[H])c([H])c([H])c2C1([H])[H]

$$$$
8:0:0
     RDKit          3D

101111  0  0  1  0  0  0  0  0999 V2000
  -30.2930  -22.6200   16.3740 C   0  0  0  0  0  0  0  0  0  0  0  0
  -31.1170  -21.6460   16.7810 N   0  0  0  0  0  0  0  0  0  0  0  0
  -29.0670  -22.4890   16.3410 O   0  0  0  0  0  0  0  0  0  0  0  0
  -32.1120  -21.8330   16.7480 H   0  0  0  0  0  0  0  0  0  0  0  0
  -30.4750  -25.8150   15.2480 C   0  0  0  0  0  2  0  0  0  0  0  0
  -30.9340  -23.9730   16.0350 C   0  0  0  0  0  3  0  0  0  0  0  0
  -30.7670  -24.4640   14.5900 C   0  0  0  0  0  3  0  0  0  0  0  0
  -31.9100  -24.3200   13.5890 C   0  0  0  0  0  1  0  0  0  0  0  0
  -30.0410  -25.0600   16.4240 N   0  0  1  0  0  4  0  0  0  0  0  0
  -29.0980  -24.7090   16.3200 H   0  0  0  0  0  0  0  0  0  0  0  0
  -30.2790  -25.6490   17.7630 C   0  0  0  0  0  2  0  0  0  0  0  0
  -29.5850  -27.0080   17.9610 C   0  0  0  0  0  2  0  0  0  0  0  0
  -29.5470  -27.4290   19.4390 C   0  0  0  0  0  2  0  0  0  0  0  0
  -28.4680  -26.7550   20.0930 O   0  0  0  0  0  0  0  0  0  0  0  0
  -24.6070  -31.8650   23.2260 C   0  0  0  0  0  0  0  0  0  0  0  0
  -27.2960  -27.4660   20.1530 C   0  0  0  0  0  0  0  0  0  0  0  0
  -23.4090  -30.4520   21.5840 C   0  0  0  0  0  3  0  0  0  0  0  0
  -24.8730  -28.9110   20.1750 C   0  0  0  0  0  0  0  0  0  0  0  0
  -25.9260  -30.8310   21.3880 C   0  0  0  0  0  2  0  0  0  0  0  0
  -26.0210  -29.4580   20.7620 C   0  0  0  0  0  0  0  0  0  0  0  0
  -27.2310  -28.7390   20.7610 C   0  0  0  0  0  3  0  0  0  0  0  0
  -26.1280  -26.9080   19.5940 C   0  0  0  0  0  3  0  0  0  0  0  0
  -24.9180  -27.6290   19.5960 C   0  0  0  0  0  3  0  0  0  0  0  0
  -23.6230  -29.7600   20.2090 C   0  0  0  0  0  2  0  0  0  0  0  0
  -24.6650  -31.0640   22.1250 N   0  0  0  0  0  0  0  0  0  0  0  0
  -23.5250  -32.1350   23.7650 O   0  0  0  0  0  0  0  0  0  0  0  0
  -22.7600  -29.4340   22.5470 C   0  0  0  0  0  0  0  0  0  0  0  0
  -21.4350  -29.2570   22.4220 N   0  0  0  0  0  0  0  0  0  0  0  0
  -23.4450  -28.8070   23.3590 O   0  0  0  0  0  0  0  0  0  0  0  0
  -20.9450  -29.8150   21.7370 H   0  0  0  0  0  0  0  0  0  0  0  0
  -18.0560  -28.0930   22.9370 C   0  0  0  0  0  0  0  0  0  0  0  0
  -20.6170  -28.3230   23.1940 C   0  0  0  0  0  3  0  0  0  0  0  0
  -20.7020  -26.8950   22.6080 C   0  0  0  0  0  2  0  0  0  0  0  0
  -19.5910  -26.5890   21.5990 C   0  0  0  0  0  2  0  0  0  0  0  0
  -18.2140  -26.7460   22.2530 C   0  0  0  0  0  2  0  0  0  0  0  0
  -19.1840  -28.8410   23.3640 C   0  0  0  0  0  0  0  0  0  0  0  0
  -18.9840  -30.1040   23.9620 C   0  0  0  0  0  3  0  0  0  0  0  0
  -17.6860  -30.6200   24.1380 C   0  0  0  0  0  3  0  0  0  0  0  0
  -16.5710  -29.8680   23.7270 C   0  0  0  0  0  3  0  0  0  0  0  0
  -16.7570  -28.6070   23.1330 C   0  0  0  0  0  3  0  0  0  0  0  0
  -25.8930  -32.4980   23.8470 C   0  0  0  0  0  3  0  0  0  0  0  0
  -25.5800  -33.8940   24.1820 N   0  0  0  0  0  0  0  0  0  0  0  0
  -25.9100  -34.9490   23.4260 C   0  0  0  0  0  0  0  0  0  0  0  0
  -26.5820  -34.8500   22.3950 O   0  0  0  0  0  0  0  0  0  0  0  0
  -24.9850  -34.0430   24.9850 H   0  0  0  0  0  0  0  0  0  0  0  0
  -24.1780  -36.7360   23.0670 C   0  0  0  0  0  1  0  0  0  0  0  0
  -25.4160  -36.3330   23.8850 C   0  0  0  0  0  3  0  0  0  0  0  0
  -27.5440  -37.2210   24.7300 C   0  0  0  0  0  1  0  0  0  0  0  0
  -26.4460  -37.3900   23.7820 N   0  0  0  0  0  0  0  0  0  0  0  0
  -26.0360  -38.3080   23.9310 H   0  0  0  0  0  0  0  0  0  0  0  0
  -26.4190  -31.7220   25.1160 C   0  0  1  0  0  0  0  0  0  0  0  0
  -25.3310  -31.4740   26.1880 C   0  0  0  0  0  1  0  0  0  0  0  0
  -27.0060  -30.3500   24.7120 C   0  0  0  0  0  1  0  0  0  0  0  0
  -27.5690  -32.5180   25.7790 C   0  0  0  0  0  1  0  0  0  0  0  0
  -30.7070  -20.3690   17.3560 C   0  0  0  0  0  2  0  0  0  0  0  0
  -30.5150  -20.4940   18.8790 C   0  0  0  0  0  2  0  0  0  0  0  0
  -31.9910  -18.4960   20.2190 C   0  0  0  0  0  2  0  0  0  0  0  0
  -30.8980  -17.8190   19.4070 C   0  0  0  0  0  3  0  0  0  0  0  0
  -30.1410  -19.1520   19.5490 C   0  0  0  0  0  3  0  0  0  0  0  0
  -30.2490  -17.4910   20.7630 C   0  0  0  0  0  3  0  0  0  0  0  0
  -30.7300  -18.8940   20.8940 N   0  0  1  0  0  4  0  0  0  0  0  0
  -30.6330  -19.4820   21.7090 H   0  0  0  0  0  0  0  0  0  0  0  0
  -30.7660  -16.4640   21.8030 C   0  0  0  0  0  2  0  0  0  0  0  0
  -30.7530  -14.3190   20.5460 C   0  0  0  0  0  0  0  0  0  0  0  0
  -30.3740  -12.2610   19.2430 C   0  0  0  0  0  2  0  0  0  0  0  0
  -29.4400  -12.5340   18.0500 C   0  0  0  0  0  2  0  0  0  0  0  0
  -27.9620  -12.4120   18.4710 C   0  0  0  0  0  2  0  0  0  0  0  0
  -27.6420  -13.2230   19.7550 C   0  0  0  0  0  3  0  0  0  0  0  0
  -28.6780  -12.9200   20.8590 C   0  0  0  0  0  2  0  0  0  0  0  0
  -30.0260  -13.1940   20.3240 N   0  0  0  0  0  0  0  0  0  0  0  0
  -31.7840  -14.6000   19.9310 O   0  0  0  0  0  0  0  0  0  0  0  0
  -30.2590  -15.1320   21.4870 N   0  0  0  0  0  0  0  0  0  0  0  0
  -29.4330  -14.8160   21.9750 H   0  0  0  0  0  0  0  0  0  0  0  0
  -25.2350  -13.8690   20.4130 C   0  0  0  0  0  0  0  0  0  0  0  0
  -24.1550  -13.1120   20.7810 C   0  0  0  0  0  0  0  0  0  0  0  0
  -24.6030  -11.7560   20.7780 C   0  0  0  0  0  0  0  0  0  0  0  0
  -26.2760  -12.9730   20.2140 N   0  0  0  0  0  0  0  0  0  0  0  0
  -25.8960  -11.6990   20.4880 N   0  0  0  0  0  0  0  0  0  0  0  0
  -23.8630  -10.5030   20.9800 C   0  0  0  0  0  0  0  0  0  0  0  0
  -24.2810   -9.5450   21.9300 C   0  0  0  0  0  3  0  0  0  0  0  0
  -23.5430   -8.3550   22.1180 C   0  0  0  0  0  3  0  0  0  0  0  0
  -22.3740   -8.1180   21.3560 C   0  0  0  0  0  0  0  0  0  0  0  0
  -21.9760   -9.0650   20.3970 C   0  0  0  0  0  3  0  0  0  0  0  0
  -22.7150  -10.2450   20.2070 C   0  0  0  0  0  3  0  0  0  0  0  0
  -21.6100   -6.9810   21.4530 O   0  0  0  0  0  0  0  0  0  0  0  0
  -21.5530   -6.2480   22.6110 C   0  0  0  0  0  0  0  0  0  0  0  0
  -21.1380   -6.8170   23.8340 C   0  0  0  0  0  3  0  0  0  0  0  0
  -21.0280   -6.0110   24.9850 C   0  0  0  0  0  3  0  0  0  0  0  0
  -21.3230   -4.6370   24.9130 C   0  0  0  0  0  0  0  0  0  0  0  0
  -21.7310   -4.0660   23.6940 C   0  0  0  0  0  3  0  0  0  0  0  0
  -21.8430   -4.8690   22.5460 C   0  0  0  0  0  0  0  0  0  0  0  0
  -22.2160   -4.3110   21.3690 F   0  0  0  0  0  0  0  0  0  0  0  0
  -21.2100   -3.8600   26.0160 F   0  0  0  0  0  0  0  0  0  0  0  0
  -22.7580  -13.6060   21.0290 C   0  0  0  0  0  0  0  0  0  0  0  0
  -22.0140  -12.9310   21.8980 N   0  0  0  0  0  0  0  0  0  0  0  0
  -22.3360  -14.6270   20.4880 O   0  0  0  0  0  0  0  0  0  0  0  0
  -22.3690  -12.1050   22.3580 H   0  0  0  0  0  0  0  0  0  0  0  0
  -21.0770  -13.2440   22.1070 H   0  0  0  0  0  0  0  0  0  0  0  0
  -25.4160  -15.2340   20.2150 N   0  0  0  0  0  0  0  0  0  0  0  0
  -24.6550  -15.8990   20.3000 H   0  0  0  0  0  0  0  0  0  0  0  0
  -26.2770  -15.6580   19.8930 H   0  0  0  0  0  0  0  0  0  0  0  0
  1  2  1  0
  2 55  1  0
  3  1  2  0
  4  2  1  0
  5  9  1  0
  6  1  1  0
  6  9  1  0
  7  8  1  0
  7  5  1  0
  7  6  1  0
  9 11  1  0
  9 10  1  6
 11 12  1  0
 12 13  1  0
 13 14  1  0
 14 16  1  0
 15 26  2  0
 16 21  1  0
 17 25  1  0
 17 27  1  0
 18 24  1  0
 18 20  1  0
 19 25  1  0
 20 19  1  0
 21 20  2  0
 22 23  1  0
 22 16  2  0
 23 18  2  0
 24 17  1  0
 25 15  1  0
 27 29  2  0
 28 27  1  0
 30 28  1  0
 31 40  2  0
 31 36  1  0
 32 28  1  0
 32 36  1  0
 33 32  1  0
 34 35  1  0
 34 33  1  0
 35 31  1  0
 36 37  2  0
 37 38  1  0
 39 38  2  0
 40 39  1  0
 41 15  1  0
 41 42  1  0
 41 51  1  0
 42 45  1  0
 43 47  1  0
 43 42  1  0
 44 43  2  0
 47 46  1  0
 49 47  1  0
 49 50  1  0
 49 48  1  0
 51 54  1  1
 51 52  1  0
 53 51  1  0
 55 56  1  0
 57 61  1  0
 58 59  1  0
 58 57  1  0
 58 60  1  0
 59 56  1  0
 59 61  1  0
 60 61  1  0
 60 63  1  0
 61 62  1  1
 64 72  1  0
 65 70  1  0
 66 67  1  0
 66 65  1  0
 68 67  1  0
 68 77  1  0
 68 69  1  0
 70 64  1  0
 70 69  1  0
 71 64  2  0
 72 63  1  0
 72 73  1  0
 74 75  2  0
 75 94  1  0
 76 75  1  0
 76 79  1  0
 77 74  1  0
 77 78  1  0
 78 76  2  0
 79 80  1  0
 80 81  2  0
 82 85  1  0
 82 81  1  0
 83 82  2  0
 84 83  1  0
 84 79  2  0
 85 86  1  0
 86 87  1  0
 87 88  2  0
 89 88  1  0
 89 93  1  0
 90 89  2  0
 91 86  2  0
 91 90  1  0
 92 91  1  0
 94 95  1  0
 95 98  1  0
 95 97  1  0
 96 94  2  0
 99100  1  0
 99 74  1  0
101 99  1  0
M  ISO  4  13 101  14 101  64 100  72 100
M  END
>  <TORSDO>  (9) 
F 24

>  <SCORE>  (9) 
-12.647

>  <name>  (9) 
8

>  <ligand_id>  (9) 
8

>  <original_smiles>  (9) 
[H]c1c([H])c([H])c2c(c1[H])C([H])([H])C([H])([H])C([H])([H])C2([H])N([H])C(=O)C1([H])N(C(=O)C([H])(N([H])C(=O)C([H])(N([H])C([H])([H])[H])C([H])([H])[H])C(C([H])([H])[H])(C([H])([H])[H])C([H])([H])[H])C([H])([H])c2c([H])c(OC([H])([H])C([H])([H])C([H])([H])[N+]3([H])C([H])([H])C([H])(C([H])([H])[H])C3([H])C(=O)N([H])C([H])([H])C([H])([H])C3([H])C4([H])C([H])([H])[N+]3([H])C4([H])C([H])([H])N([H])C(=O)N3C([H])([H])C([H])([H])C([H])([H])C([H])(n4nc(-c5c([H])c([H])c(Oc6c([H])c([H])c(F)c([H])c6F)c([H])c5[H])c(C(=O)N([H])[H])c4N([H])[H])C3([H])[H])c([H])c([H])c2C1([H])[H]

>  <smiles>  (9) 
[H]c1c([H])c([H])c2c(c1[H])C([H])([H])C([H])([H])C([H])([H])C2([H])N([H])C(=O)C1([H])N(C(=O)C([H])(N([H])C(=O)C([H])(N([H])C([H])([H])[H])C([H])([H])[H])C(C([H])([H])[H])(C([H])([H])[H])C([H])([H])[H])C([H])([H])c2c([H])c(OC([H])([H])C([H])([H])C([H])([H])[N+]3([H])C([H])([H])C([H])(C([H])([H])[H])C3([H])C(=O)N([H])C([H])([H])C([H])([H])C3([H])C4([H])C([H])([H])[N+]3([H])C4([H])C([H])([H])N([H])C(=O)N3C([H])([H])C([H])([H])C([H])([H])C([H])(n4nc(-c5c([H])c([H])c(Oc6c([H])c([H])c(F)c([H])c6F)c([H])c5[H])c(C(=O)N([H])[H])c4N([H])[H])C3([H])[H])c([H])c([H])c2C1([H])[H]

$$$$
9:0:0
     RDKit          3D

 99108  0  0  1  0  0  0  0  0999 V2000
  -30.3320  -20.2990   17.6970 C   0  0  0  0  0  3  0  0  0  0  0  0
  -27.2550  -18.5400   18.4360 C   0  0  0  0  0  2  0  0  0  0  0  0
  -28.3770  -18.4920   17.4100 C   0  0  0  0  0  2  0  0  0  0  0  0
  -27.7870  -19.9340   18.8050 C   0  0  0  0  0  2  0  0  0  0  0  0
  -29.1820  -19.4430   18.3280 C   0  0  0  0  0  3  0  0  0  0  0  0
  -31.6520  -19.4680   17.6450 C   0  0  0  0  0  0  0  0  0  0  0  0
  -31.5540  -18.1950   17.2050 N   0  0  0  0  0  0  0  0  0  0  0  0
  -32.7230  -19.9620   18.0040 O   0  0  0  0  0  0  0  0  0  0  0  0
  -30.6210  -17.9340   16.8990 H   0  0  0  0  0  0  0  0  0  0  0  0
  -32.5850  -17.1290   17.2040 C   0  0  0  0  0  2  0  0  0  0  0  0
  -33.8850  -15.5620   18.8790 C   0  0  0  0  0  2  0  0  0  0  0  0
  -32.5900  -16.1960   18.4400 C   0  0  0  0  0  3  0  0  0  0  0  0
  -32.8000  -14.6360   18.4290 C   0  0  0  0  0  3  0  0  0  0  0  0
  -31.1330  -13.9970   20.1460 C   0  0  0  0  0  0  0  0  0  0  0  0
  -30.1920  -12.0570   19.0780 C   0  0  0  0  0  2  0  0  0  0  0  0
  -29.4140  -12.7190   17.9400 C   0  0  0  0  0  2  0  0  0  0  0  0
  -27.9320  -12.7180   18.3390 C   0  0  0  0  0  2  0  0  0  0  0  0
  -27.6940  -13.3400   19.7490 C   0  0  0  0  0  3  0  0  0  0  0  0
  -28.8080  -13.0080   20.7880 C   0  0  0  0  0  2  0  0  0  0  0  0
  -30.1750  -13.0230   20.1770 N   0  0  0  0  0  0  0  0  0  0  0  0
  -31.0650  -15.1060   20.5900 O   0  0  0  0  0  0  0  0  0  0  0  0
  -32.2250  -13.7160   19.4050 N   0  0  0  0  0  0  0  0  0  0  0  0
  -32.3270  -12.7380   19.1430 H   0  0  0  0  0  0  0  0  0  0  0  0
  -25.2770  -13.8940   20.5150 C   0  0  0  0  0  0  0  0  0  0  0  0
  -24.2150  -13.1190   20.8650 C   0  0  0  0  0  0  0  0  0  0  0  0
  -24.6760  -11.7640   20.8020 C   0  0  0  0  0  0  0  0  0  0  0  0
  -26.3310  -13.0340   20.2340 N   0  0  0  0  0  0  0  0  0  0  0  0
  -25.9630  -11.7360   20.4490 N   0  0  0  0  0  0  0  0  0  0  0  0
  -23.9390  -10.5080   21.0180 C   0  0  0  0  0  0  0  0  0  0  0  0
  -24.3630   -9.5470   21.9630 C   0  0  0  0  0  3  0  0  0  0  0  0
  -23.6410   -8.3520   22.1470 C   0  0  0  0  0  3  0  0  0  0  0  0
  -22.4610   -8.1060   21.4070 C   0  0  0  0  0  0  0  0  0  0  0  0
  -22.0530   -9.0550   20.4540 C   0  0  0  0  0  3  0  0  0  0  0  0
  -22.7730  -10.2470   20.2670 C   0  0  0  0  0  3  0  0  0  0  0  0
  -21.7080   -6.9610   21.5140 O   0  0  0  0  0  0  0  0  0  0  0  0
  -21.6610   -6.2280   22.6720 C   0  0  0  0  0  0  0  0  0  0  0  0
  -21.2040   -6.7840   23.8850 C   0  0  0  0  0  3  0  0  0  0  0  0
  -21.0900   -5.9740   25.0310 C   0  0  0  0  0  3  0  0  0  0  0  0
  -21.4200   -4.6090   24.9700 C   0  0  0  0  0  0  0  0  0  0  0  0
  -21.8810   -4.0510   23.7630 C   0  0  0  0  0  3  0  0  0  0  0  0
  -21.9880   -4.8590   22.6170 C   0  0  0  0  0  0  0  0  0  0  0  0
  -22.4020   -4.3040   21.4490 F   0  0  0  0  0  0  0  0  0  0  0  0
  -21.3220   -3.8340   26.0790 F   0  0  0  0  0  0  0  0  0  0  0  0
  -22.8160  -13.5810   21.1880 C   0  0  0  0  0  0  0  0  0  0  0  0
  -22.1170  -12.8700   22.0630 N   0  0  0  0  0  0  0  0  0  0  0  0
  -22.3550  -14.6140   20.6920 O   0  0  0  0  0  0  0  0  0  0  0  0
  -22.5210  -12.0590   22.5200 H   0  0  0  0  0  0  0  0  0  0  0  0
  -21.1630  -13.1240   22.2870 H   0  0  0  0  0  0  0  0  0  0  0  0
  -25.4400  -15.2750   20.3990 N   0  0  0  0  0  0  0  0  0  0  0  0
  -24.7250  -15.9630   20.5910 H   0  0  0  0  0  0  0  0  0  0  0  0
  -26.3400  -15.6690   20.1750 H   0  0  0  0  0  0  0  0  0  0  0  0
  -30.5840  -21.7300   18.2920 C   0  0  0  0  0  2  0  0  0  0  0  0
  -29.4590  -22.7540   18.0300 C   0  0  0  0  0  2  0  0  0  0  0  0
  -29.9490  -24.1540   18.0580 N   0  0  0  0  0  4  0  0  0  0  0  0
  -29.4340  -24.6750   17.3620 H   0  0  0  0  0  0  0  0  0  0  0  0
  -30.9150  -24.1710   17.7660 H   0  0  0  0  0  0  0  0  0  0  0  0
  -29.7900  -24.8940   19.3390 C   0  0  0  0  0  2  0  0  0  0  0  0
  -28.3880  -25.5030   19.4420 C   0  0  0  0  0  2  0  0  0  0  0  0
  -28.3910  -26.7270   20.1780 O   0  0  0  0  0  0  0  0  0  0  0  0
  -24.5570  -31.8800   23.2780 C   0  0  0  0  0  0  0  0  0  0  0  0
  -27.2060  -27.4420   20.1880 C   0  0  0  0  0  0  0  0  0  0  0  0
  -23.3610  -30.4870   21.6280 C   0  0  0  0  0  3  0  0  0  0  0  0
  -24.8130  -28.9540   20.2100 C   0  0  0  0  0  0  0  0  0  0  0  0
  -25.8880  -30.8350   21.4480 C   0  0  0  0  0  2  0  0  0  0  0  0
  -25.9710  -29.4680   20.8030 C   0  0  0  0  0  0  0  0  0  0  0  0
  -27.1700  -28.7180   20.7930 C   0  0  0  0  0  3  0  0  0  0  0  0
  -26.0130  -26.9390   19.6070 C   0  0  0  0  0  3  0  0  0  0  0  0
  -24.8260  -27.6850   19.6200 C   0  0  0  0  0  3  0  0  0  0  0  0
  -23.5770  -29.8230   20.2450 C   0  0  0  0  0  2  0  0  0  0  0  0
  -24.6200  -31.0820   22.1760 N   0  0  0  0  0  0  0  0  0  0  0  0
  -23.4730  -32.1470   23.8160 O   0  0  0  0  0  0  0  0  0  0  0  0
  -22.7070  -29.4540   22.5750 C   0  0  0  0  0  0  0  0  0  0  0  0
  -21.3840  -29.2710   22.4330 N   0  0  0  0  0  0  0  0  0  0  0  0
  -23.3870  -28.8230   23.3880 O   0  0  0  0  0  0  0  0  0  0  0  0
  -20.8950  -29.8280   21.7490 H   0  0  0  0  0  0  0  0  0  0  0  0
  -18.0040  -28.0950   22.9150 C   0  0  0  0  0  0  0  0  0  0  0  0
  -20.5640  -28.3290   23.1940 C   0  0  0  0  0  3  0  0  0  0  0  0
  -20.6570  -26.9050   22.6010 C   0  0  0  0  0  2  0  0  0  0  0  0
  -19.5550  -26.6000   21.5820 C   0  0  0  0  0  2  0  0  0  0  0  0
  -18.1720  -26.7510   22.2240 C   0  0  0  0  0  2  0  0  0  0  0  0
  -19.1290  -28.8430   23.3540 C   0  0  0  0  0  0  0  0  0  0  0  0
  -18.9200  -30.1040   23.9540 C   0  0  0  0  0  3  0  0  0  0  0  0
  -17.6200  -30.6170   24.1190 C   0  0  0  0  0  3  0  0  0  0  0  0
  -16.5100  -29.8670   23.6980 C   0  0  0  0  0  3  0  0  0  0  0  0
  -16.7010  -28.6070   23.1020 C   0  0  0  0  0  3  0  0  0  0  0  0
  -25.8420  -32.5030   23.9050 C   0  0  0  0  0  3  0  0  0  0  0  0
  -26.3350  -31.7400   25.1940 C   0  0  1  0  0  0  0  0  0  0  0  0
  -25.2280  -31.5240   26.2510 C   0  0  0  0  0  1  0  0  0  0  0  0
  -26.9110  -30.3540   24.8230 C   0  0  0  0  0  1  0  0  0  0  0  0
  -27.4850  -32.5310   25.8650 C   0  0  0  0  0  1  0  0  0  0  0  0
  -25.5480  -33.9070   24.2150 N   0  0  0  0  0  0  0  0  0  0  0  0
  -25.8920  -34.9430   23.4400 C   0  0  0  0  0  0  0  0  0  0  0  0
  -26.5710  -34.8200   22.4180 O   0  0  0  0  0  0  0  0  0  0  0  0
  -24.9650  -34.0800   25.0200 H   0  0  0  0  0  0  0  0  0  0  0  0
  -24.1890  -36.7430   23.0200 C   0  0  0  0  0  1  0  0  0  0  0  0
  -25.4060  -36.3400   23.8700 C   0  0  0  0  0  3  0  0  0  0  0  0
  -27.5220  -37.2190   24.7490 C   0  0  0  0  0  1  0  0  0  0  0  0
  -26.4480  -37.3850   23.7710 N   0  0  0  0  0  0  0  0  0  0  0  0
  -26.0430  -38.3080   23.9040 H   0  0  0  0  0  0  0  0  0  0  0  0
  1 52  1  0
  1  5  1  0
  2  4  1  0
  3  5  1  0
  3  2  1  0
  5  4  1  0
  6  1  1  0
  6  8  2  0
  7  6  1  0
  9  7  1  0
 10  7  1  0
 12 10  1  0
 12 11  1  0
 13 12  1  0
 13 11  1  0
 13 22  1  0
 14 20  1  0
 14 21  2  0
 15 20  1  0
 16 17  1  0
 16 15  1  0
 18 17  1  0
 18 27  1  0
 18 19  1  0
 20 19  1  0
 22 14  1  0
 23 22  1  0
 24 25  2  0
 25 44  1  0
 26 25  1  0
 26 29  1  0
 27 28  1  0
 27 24  1  0
 28 26  2  0
 29 30  1  0
 30 31  2  0
 32 35  1  0
 32 31  1  0
 33 32  2  0
 34 33  1  0
 34 29  2  0
 35 36  1  0
 36 37  1  0
 37 38  2  0
 39 38  1  0
 39 43  1  0
 40 39  2  0
 41 36  2  0
 41 40  1  0
 42 41  1  0
 44 45  1  0
 45 48  1  0
 45 47  1  0
 46 44  2  0
 49 24  1  0
 49 50  1  0
 51 49  1  0
 53 54  1  0
 53 52  1  0
 54 57  1  0
 55 54  1  0
 56 54  1  0
 57 58  1  0
 58 59  1  0
 59 61  1  0
 60 71  2  0
 61 66  1  0
 62 70  1  0
 62 72  1  0
 63 69  1  0
 63 65  1  0
 64 70  1  0
 65 64  1  0
 66 65  2  0
 67 68  1  0
 67 61  2  0
 68 63  2  0
 69 62  1  0
 70 60  1  0
 72 74  2  0
 73 72  1  0
 75 73  1  0
 76 85  2  0
 76 81  1  0
 77 73  1  0
 77 81  1  0
 78 77  1  0
 79 80  1  0
 79 78  1  0
 80 76  1  0
 81 82  2  0
 82 83  1  0
 84 83  2  0
 85 84  1  0
 86 60  1  0
 86 91  1  0
 86 87  1  0
 87 90  1  1
 87 88  1  0
 89 87  1  0
 91 94  1  0
 92 96  1  0
 92 91  1  0
 93 92  2  0
 96 95  1  0
 98 96  1  0
 98 99  1  0
 98 97  1  0
M  ISO  4  14 100  22 100  58 101  59 101
M  END
>  <TORSDO>  (10) 
F 25

>  <SCORE>  (10) 
-12.199

>  <name>  (10) 
9

>  <ligand_id>  (10) 
9

>  <original_smiles>  (10) 
[H]c1c([H])c([H])c2c(c1[H])C([H])([H])C([H])([H])C([H])([H])C2([H])N([H])C(=O)C1([H])N(C(=O)C([H])(N([H])C(=O)C([H])(N([H])C([H])([H])[H])C([H])([H])[H])C(C([H])([H])[H])(C([H])([H])[H])C([H])([H])[H])C([H])([H])c2c([H])c(OC([H])([H])C([H])([H])[N+]([H])([H])C([H])([H])C([H])([H])C([H])(C(=O)N([H])C([H])([H])C3([H])C([H])([H])C3([H])N([H])C(=O)N3C([H])([H])C([H])([H])C([H])([H])C([H])(n4nc(-c5c([H])c([H])c(Oc6c([H])c([H])c(F)c([H])c6F)c([H])c5[H])c(C(=O)N([H])[H])c4N([H])[H])C3([H])[H])C3([H])C([H])([H])C([H])([H])C3([H])[H])c([H])c([H])c2C1([H])[H]

>  <smiles>  (10) 
[H]c1c([H])c([H])c2c(c1[H])C([H])([H])C([H])([H])C([H])([H])C2([H])N([H])C(=O)C1([H])N(C(=O)C([H])(N([H])C(=O)C([H])(N([H])C([H])([H])[H])C([H])([H])[H])C(C([H])([H])[H])(C([H])([H])[H])C([H])([H])[H])C([H])([H])c2c([H])c(OC([H])([H])C([H])([H])[N+]([H])([H])C([H])([H])C([H])([H])C([H])(C(=O)N([H])C([H])([H])C3([H])C([H])([H])C3([H])N([H])C(=O)N3C([H])([H])C([H])([H])C([H])([H])C([H])(n4nc(-c5c([H])c([H])c(Oc6c([H])c([H])c(F)c([H])c6F)c([H])c5[H])c(C(=O)N([H])[H])c4N([H])[H])C3([H])[H])C3([H])C([H])([H])C([H])([H])C3([H])[H])c([H])c([H])c2C1([H])[H]

$$$$
10:0:0
     RDKit          3D

 92101  0  0  1  0  0  0  0  0999 V2000
  -27.4980  -21.4030   19.0110 C   0  0  0  0  0  2  0  0  0  0  0  0
  -27.7900  -19.9270   19.2360 C   0  0  0  0  0  2  0  0  0  0  0  0
  -28.8430  -21.6550   19.6920 C   0  0  0  0  0  3  0  0  0  0  0  0
  -28.6770  -20.3240   20.3330 N   0  0  2  0  0  4  0  0  0  0  0  0
  -28.1470  -20.3890   21.1890 H   0  0  0  0  0  0  0  0  0  0  0  0
  -30.1430  -18.9970   21.8950 C   0  0  0  0  0  2  0  0  0  0  0  0
  -29.6550  -18.0010   20.8580 C   0  0  0  0  0  3  0  0  0  0  0  0
  -29.8960  -19.4710   20.4800 C   0  0  0  0  0  3  0  0  0  0  0  0
  -30.5910  -16.9080   20.3350 C   0  0  0  0  0  2  0  0  0  0  0  0
  -30.8710  -14.4530   20.0530 C   0  0  0  0  0  0  0  0  0  0  0  0
  -30.4800  -12.2950   18.9330 C   0  0  0  0  0  2  0  0  0  0  0  0
  -29.4830  -12.5180   17.7760 C   0  0  0  0  0  2  0  0  0  0  0  0
  -28.0300  -12.4080   18.2780 C   0  0  0  0  0  2  0  0  0  0  0  0
  -27.7730  -13.2490   19.5580 C   0  0  0  0  0  3  0  0  0  0  0  0
  -28.8790  -13.0090   20.6130 C   0  0  0  0  0  2  0  0  0  0  0  0
  -30.1760  -13.2850   19.9780 N   0  0  0  0  0  0  0  0  0  0  0  0
  -31.9750  -14.6080   19.5270 O   0  0  0  0  0  0  0  0  0  0  0  0
  -30.1980  -15.5070   20.5570 N   0  0  0  0  0  0  0  0  0  0  0  0
  -29.2960  -15.3230   20.9720 H   0  0  0  0  0  0  0  0  0  0  0  0
  -25.4320  -13.9040   20.3990 C   0  0  0  0  0  0  0  0  0  0  0  0
  -24.3670  -13.1530   20.8150 C   0  0  0  0  0  0  0  0  0  0  0  0
  -24.7920  -11.7910   20.7460 C   0  0  0  0  0  0  0  0  0  0  0  0
  -26.4420  -13.0010   20.1030 N   0  0  0  0  0  0  0  0  0  0  0  0
  -26.0630  -11.7260   20.3680 N   0  0  0  0  0  0  0  0  0  0  0  0
  -24.0480  -10.5450   20.9600 C   0  0  0  0  0  0  0  0  0  0  0  0
  -24.4920   -9.5670   21.8760 C   0  0  0  0  0  3  0  0  0  0  0  0
  -23.7490   -8.3830   22.0760 C   0  0  0  0  0  3  0  0  0  0  0  0
  -22.5470   -8.1710   21.3610 C   0  0  0  0  0  0  0  0  0  0  0  0
  -22.1210   -9.1370   20.4330 C   0  0  0  0  0  3  0  0  0  0  0  0
  -22.8640  -10.3110   20.2310 C   0  0  0  0  0  3  0  0  0  0  0  0
  -21.7720   -7.0420   21.4730 O   0  0  0  0  0  0  0  0  0  0  0  0
  -21.7270   -6.3130   22.6340 C   0  0  0  0  0  0  0  0  0  0  0  0
  -21.3320   -6.8890   23.8620 C   0  0  0  0  0  3  0  0  0  0  0  0
  -21.2320   -6.0870   25.0160 C   0  0  0  0  0  3  0  0  0  0  0  0
  -21.5180   -4.7100   24.9440 C   0  0  0  0  0  0  0  0  0  0  0  0
  -21.9040   -4.1340   23.7220 C   0  0  0  0  0  3  0  0  0  0  0  0
  -22.0060   -4.9330   22.5700 C   0  0  0  0  0  0  0  0  0  0  0  0
  -22.3600   -4.3690   21.3900 F   0  0  0  0  0  0  0  0  0  0  0  0
  -21.4140   -3.9380   26.0510 F   0  0  0  0  0  0  0  0  0  0  0  0
  -22.9980  -13.6620   21.1670 C   0  0  0  0  0  0  0  0  0  0  0  0
  -22.3010  -12.9730   22.0630 N   0  0  0  0  0  0  0  0  0  0  0  0
  -22.5580  -14.7040   20.6820 O   0  0  0  0  0  0  0  0  0  0  0  0
  -22.6690  -12.1290   22.4770 H   0  0  0  0  0  0  0  0  0  0  0  0
  -21.3840  -13.2950   22.3400 H   0  0  0  0  0  0  0  0  0  0  0  0
  -25.6220  -15.2720   20.2260 N   0  0  0  0  0  0  0  0  0  0  0  0
  -24.8710  -15.9400   20.3680 H   0  0  0  0  0  0  0  0  0  0  0  0
  -26.4520  -15.6880   19.8240 H   0  0  0  0  0  0  0  0  0  0  0  0
  -28.9840  -22.8600   20.6550 C   0  0  0  0  0  2  0  0  0  0  0  0
  -28.9300  -24.2350   19.9510 C   0  0  0  0  0  0  0  0  0  0  0  0
  -29.2170  -24.3540   18.7540 O   0  0  0  0  0  0  0  0  0  0  0  0
  -28.5180  -25.4530   20.8030 C   0  0  0  0  0  2  0  0  0  0  0  0
  -28.5570  -26.6850   20.0580 O   0  0  0  0  0  0  0  0  0  0  0  0
  -24.5310  -31.6770   23.1540 C   0  0  0  0  0  0  0  0  0  0  0  0
  -27.3710  -27.3820   20.0550 C   0  0  0  0  0  0  0  0  0  0  0  0
  -23.3940  -30.2560   21.4760 C   0  0  0  0  0  3  0  0  0  0  0  0
  -24.9210  -28.7910   20.0490 C   0  0  0  0  0  0  0  0  0  0  0  0
  -25.9060  -30.7130   21.3110 C   0  0  0  0  0  2  0  0  0  0  0  0
  -26.0500  -29.3550   20.6550 C   0  0  0  0  0  0  0  0  0  0  0  0
  -27.2830  -28.6610   20.6490 C   0  0  0  0  0  3  0  0  0  0  0  0
  -26.2270  -26.8270   19.4450 C   0  0  0  0  0  3  0  0  0  0  0  0
  -25.0040  -27.5260   19.4380 C   0  0  0  0  0  3  0  0  0  0  0  0
  -23.6440  -29.6000   20.0910 C   0  0  0  0  0  2  0  0  0  0  0  0
  -24.6270  -30.8960   22.0410 N   0  0  0  0  0  0  0  0  0  0  0  0
  -23.4340  -31.9000   23.6860 O   0  0  0  0  0  0  0  0  0  0  0  0
  -22.7690  -29.2000   22.4160 C   0  0  0  0  0  0  0  0  0  0  0  0
  -21.4490  -28.9920   22.2860 N   0  0  0  0  0  0  0  0  0  0  0  0
  -23.4680  -28.5720   23.2140 O   0  0  0  0  0  0  0  0  0  0  0  0
  -20.9440  -29.5560   21.6160 H   0  0  0  0  0  0  0  0  0  0  0  0
  -18.1000  -27.7150   22.7610 C   0  0  0  0  0  0  0  0  0  0  0  0
  -20.6530  -28.0170   23.0320 C   0  0  0  0  0  3  0  0  0  0  0  0
  -20.7840  -26.6030   22.4200 C   0  0  0  0  0  2  0  0  0  0  0  0
  -19.6840  -26.2840   21.4010 C   0  0  0  0  0  2  0  0  0  0  0  0
  -18.3010  -26.3860   22.0510 C   0  0  0  0  0  2  0  0  0  0  0  0
  -19.2050  -28.4880   23.2080 C   0  0  0  0  0  0  0  0  0  0  0  0
  -18.9630  -29.7330   23.8290 C   0  0  0  0  0  3  0  0  0  0  0  0
  -17.6500  -30.2040   24.0110 C   0  0  0  0  0  3  0  0  0  0  0  0
  -16.5590  -29.4270   23.5830 C   0  0  0  0  0  3  0  0  0  0  0  0
  -16.7850  -28.1850   22.9630 C   0  0  0  0  0  3  0  0  0  0  0  0
  -25.7860  -32.3440   23.7990 C   0  0  0  0  0  3  0  0  0  0  0  0
  -25.4230  -33.7230   24.1530 N   0  0  0  0  0  0  0  0  0  0  0  0
  -25.7130  -34.7990   23.4090 C   0  0  0  0  0  0  0  0  0  0  0  0
  -26.3870  -34.7390   22.3760 O   0  0  0  0  0  0  0  0  0  0  0  0
  -24.8300  -33.8430   24.9600 H   0  0  0  0  0  0  0  0  0  0  0  0
  -23.9100  -36.5220   23.0850 C   0  0  0  0  0  1  0  0  0  0  0  0
  -25.1700  -36.1600   23.8870 C   0  0  0  0  0  3  0  0  0  0  0  0
  -27.2680  -37.1220   24.7220 C   0  0  0  0  0  1  0  0  0  0  0  0
  -26.1550  -37.2570   23.7850 N   0  0  0  0  0  0  0  0  0  0  0  0
  -25.7120  -38.1560   23.9490 H   0  0  0  0  0  0  0  0  0  0  0  0
  -26.3240  -31.5680   25.0620 C   0  0  1  0  0  0  0  0  0  0  0  0
  -25.2360  -31.2640   26.1190 C   0  0  0  0  0  1  0  0  0  0  0  0
  -26.9620  -30.2230   24.6440 C   0  0  0  0  0  1  0  0  0  0  0  0
  -27.4400  -32.3910   25.7470 C   0  0  0  0  0  1  0  0  0  0  0  0
  1  2  1  0
  1  3  1  0
  2  4  1  0
  3  4  1  0
  3 48  1  0
  4  8  1  0
  4  5  1  1
  7  9  1  0
  7  6  1  0
  8  7  1  0
  8  6  1  0
  9 18  1  0
 10 18  1  0
 11 16  1  0
 12 13  1  0
 12 11  1  0
 14 13  1  0
 14 23  1  0
 14 15  1  0
 16 10  1  0
 16 15  1  0
 17 10  2  0
 18 19  1  0
 20 21  2  0
 21 40  1  0
 22 21  1  0
 22 25  1  0
 23 24  1  0
 23 20  1  0
 24 22  2  0
 25 26  1  0
 26 27  2  0
 28 31  1  0
 28 27  1  0
 29 28  2  0
 30 29  1  0
 30 25  2  0
 31 32  1  0
 32 33  1  0
 33 34  2  0
 35 34  1  0
 35 39  1  0
 36 35  2  0
 37 32  2  0
 37 36  1  0
 38 37  1  0
 40 41  1  0
 41 44  1  0
 41 43  1  0
 42 40  2  0
 45 46  1  0
 45 20  1  0
 47 45  1  0
 49 48  1  0
 49 51  1  0
 50 49  2  0
 52 51  1  0
 53 64  2  0
 54 52  1  0
 54 59  1  0
 55 63  1  0
 55 65  1  0
 56 62  1  0
 56 58  1  0
 57 63  1  0
 58 57  1  0
 59 58  2  0
 60 54  2  0
 61 60  1  0
 61 56  2  0
 62 55  1  0
 63 53  1  0
 65 67  2  0
 66 65  1  0
 68 66  1  0
 69 78  2  0
 69 74  1  0
 70 66  1  0
 70 74  1  0
 71 70  1  0
 72 73  1  0
 72 71  1  0
 73 69  1  0
 74 75  2  0
 75 76  1  0
 77 76  2  0
 78 77  1  0
 79 53  1  0
 79 80  1  0
 79 89  1  0
 80 83  1  0
 81 85  1  0
 81 80  1  0
 82 81  2  0
 85 84  1  0
 87 85  1  0
 87 88  1  0
 87 86  1  0
 89 92  1  1
 89 90  1  0
 91 89  1  0
M  ISO  4  10 100  18 100  51 101  52 101
M  END
>  <TORSDO>  (11) 
F 21

>  <SCORE>  (11) 
-12.855

>  <name>  (11) 
10

>  <ligand_id>  (11) 
10

>  <original_smiles>  (11) 
[H]c1c([H])c([H])c2c(c1[H])C([H])([H])C([H])([H])C([H])([H])C2([H])N([H])C(=O)C1([H])N(C(=O)C([H])(N([H])C(=O)C([H])(N([H])C([H])([H])[H])C([H])([H])[H])C(C([H])([H])[H])(C([H])([H])[H])C([H])([H])[H])C([H])([H])c2c([H])c(OC([H])([H])C(=O)C([H])([H])C3([H])C([H])([H])C([H])([H])[N+]3([H])C3([H])C([H])([H])C3([H])C([H])([H])N([H])C(=O)N3C([H])([H])C([H])([H])C([H])([H])C([H])(n4nc(-c5c([H])c([H])c(Oc6c([H])c([H])c(F)c([H])c6F)c([H])c5[H])c(C(=O)N([H])[H])c4N([H])[H])C3([H])[H])c([H])c([H])c2C1([H])[H]

>  <smiles>  (11) 
[H]c1c([H])c([H])c2c(c1[H])C([H])([H])C([H])([H])C([H])([H])C2([H])N([H])C(=O)C1([H])N(C(=O)C([H])(N([H])C(=O)C([H])(N([H])C([H])([H])[H])C([H])([H])[H])C(C([H])([H])[H])(C([H])([H])[H])C([H])([H])[H])C([H])([H])c2c([H])c(OC([H])([H])C(=O)C([H])([H])C3([H])C([H])([H])C([H])([H])[N+]3([H])C3([H])C([H])([H])C3([H])C([H])([H])N([H])C(=O)N3C([H])([H])C([H])([H])C([H])([H])C([H])(n4nc(-c5c([H])c([H])c(Oc6c([H])c([H])c(F)c([H])c6F)c([H])c5[H])c(C(=O)N([H])[H])c4N([H])[H])C3([H])[H])c([H])c([H])c2C1([H])[H]

$$$$
11:0:0
     RDKit          3D

 94103  0  0  1  0  0  0  0  0999 V2000
  -29.4930  -21.0580   20.1050 C   0  0  0  0  0  0  0  0  0  0  0  0
  -30.4020  -20.2560   19.5260 N   0  0  0  0  0  0  0  0  0  0  0  0
  -28.3380  -20.6910   20.3270 O   0  0  0  0  0  0  0  0  0  0  0  0
  -31.3340  -20.6450   19.4390 H   0  0  0  0  0  0  0  0  0  0  0  0
  -28.1340  -17.6600   18.7160 C   0  0  0  0  0  0  0  0  0  0  0  0
  -28.0850  -18.5030   17.4620 C   0  0  0  0  0  3  0  0  0  0  0  0
  -29.3580  -19.3450   17.4830 C   0  0  0  0  0  3  0  0  0  0  0  0
  -29.3980  -17.8710   19.5420 C   0  0  0  0  0  3  0  0  0  0  0  0
  -30.1600  -19.0090   18.7730 C   0  0  0  0  0  3  0  0  0  0  0  0
  -27.2390  -16.8670   19.0040 O   0  0  0  0  0  0  0  0  0  0  0  0
  -30.1260  -16.5200   19.6340 C   0  0  0  0  0  2  0  0  0  0  0  0
  -29.9630  -15.6360   20.5590 N   0  0  0  0  0  2  0  0  0  0  0  0
  -30.7300  -14.4850   20.3980 C   0  0  0  0  0  0  0  0  0  0  0  0
  -30.3590  -12.2990   19.3410 C   0  0  0  0  0  2  0  0  0  0  0  0
  -29.4360  -12.5500   18.1330 C   0  0  0  0  0  2  0  0  0  0  0  0
  -27.9600  -12.4160   18.5560 C   0  0  0  0  0  2  0  0  0  0  0  0
  -27.6220  -13.2560   19.8170 C   0  0  0  0  0  3  0  0  0  0  0  0
  -28.6890  -13.0810   20.9240 C   0  0  0  0  0  2  0  0  0  0  0  0
  -30.0200  -13.3200   20.3450 N   0  0  0  0  0  0  0  0  0  0  0  0
  -31.9120  -14.5250   20.0690 O   0  0  0  0  0  0  0  0  0  0  0  0
  -25.2250  -13.8640   20.5260 C   0  0  0  0  0  0  0  0  0  0  0  0
  -24.1480  -13.0940   20.8740 C   0  0  0  0  0  0  0  0  0  0  0  0
  -24.6130  -11.7430   20.8600 C   0  0  0  0  0  0  0  0  0  0  0  0
  -26.2710  -12.9800   20.3030 N   0  0  0  0  0  0  0  0  0  0  0  0
  -25.9060  -11.6990   20.5680 N   0  0  0  0  0  0  0  0  0  0  0  0
  -23.8850  -10.4820   21.0550 C   0  0  0  0  0  0  0  0  0  0  0  0
  -24.3350   -9.5040   21.9670 C   0  0  0  0  0  3  0  0  0  0  0  0
  -23.6040   -8.3110   22.1490 C   0  0  0  0  0  3  0  0  0  0  0  0
  -22.4160   -8.0830   21.4110 C   0  0  0  0  0  0  0  0  0  0  0  0
  -21.9880   -9.0480   20.4850 C   0  0  0  0  0  3  0  0  0  0  0  0
  -22.7150  -10.2350   20.3060 C   0  0  0  0  0  3  0  0  0  0  0  0
  -21.6610   -6.9380   21.5040 O   0  0  0  0  0  0  0  0  0  0  0  0
  -21.6340   -6.1880   22.6530 C   0  0  0  0  0  0  0  0  0  0  0  0
  -21.2420   -6.7400   23.8920 C   0  0  0  0  0  3  0  0  0  0  0  0
  -21.1550   -5.9170   25.0330 C   0  0  0  0  0  3  0  0  0  0  0  0
  -21.4450   -4.5410   24.9370 C   0  0  0  0  0  0  0  0  0  0  0  0
  -21.8240   -3.9890   23.7010 C   0  0  0  0  0  3  0  0  0  0  0  0
  -21.9170   -4.8110   22.5630 C   0  0  0  0  0  0  0  0  0  0  0  0
  -22.2620   -4.2660   21.3710 F   0  0  0  0  0  0  0  0  0  0  0  0
  -21.3570   -3.7460   26.0290 F   0  0  0  0  0  0  0  0  0  0  0  0
  -22.7460  -13.5790   21.1280 C   0  0  0  0  0  0  0  0  0  0  0  0
  -22.0030  -12.8950   21.9930 N   0  0  0  0  0  0  0  0  0  0  0  0
  -22.3160  -14.6030   20.5980 O   0  0  0  0  0  0  0  0  0  0  0  0
  -22.3620  -12.0760   22.4550 H   0  0  0  0  0  0  0  0  0  0  0  0
  -21.0630  -13.2070   22.1950 H   0  0  0  0  0  0  0  0  0  0  0  0
  -25.4040  -15.2310   20.3640 N   0  0  0  0  0  0  0  0  0  0  0  0
  -24.6530  -15.9100   20.3550 H   0  0  0  0  0  0  0  0  0  0  0  0
  -26.2780  -15.6350   20.0140 H   0  0  0  0  0  0  0  0  0  0  0  0
  -29.3030  -23.1790   21.6510 C   0  0  0  0  0  2  0  0  0  0  0  0
  -29.2790  -23.5880   19.5870 C   0  0  0  0  0  2  0  0  0  0  0  0
  -29.9540  -22.4900   20.4360 C   0  0  0  0  0  3  0  0  0  0  0  0
  -29.2940  -24.4880   20.8330 C   0  0  0  0  0  3  0  0  0  0  0  0
  -28.2010  -25.5190   21.0690 C   0  0  0  0  0  2  0  0  0  0  0  0
  -28.3620  -26.6750   20.2350 O   0  0  0  0  0  0  0  0  0  0  0  0
  -24.6000  -31.8990   23.2520 C   0  0  0  0  0  0  0  0  0  0  0  0
  -27.2310  -27.4510   20.1960 C   0  0  0  0  0  0  0  0  0  0  0  0
  -23.3920  -30.4920   21.6150 C   0  0  0  0  0  3  0  0  0  0  0  0
  -24.8490  -28.9610   20.1880 C   0  0  0  0  0  0  0  0  0  0  0  0
  -25.9150  -30.8660   21.4030 C   0  0  0  0  0  2  0  0  0  0  0  0
  -26.0080  -29.4890   20.7710 C   0  0  0  0  0  0  0  0  0  0  0  0
  -27.2110  -28.7450   20.7640 C   0  0  0  0  0  3  0  0  0  0  0  0
  -26.0600  -26.9360   19.6040 C   0  0  0  0  0  3  0  0  0  0  0  0
  -24.8710  -27.6890   19.5950 C   0  0  0  0  0  3  0  0  0  0  0  0
  -23.5970  -29.8130   20.2360 C   0  0  0  0  0  2  0  0  0  0  0  0
  -24.6540  -31.1000   22.1490 N   0  0  0  0  0  0  0  0  0  0  0  0
  -23.5190  -32.1720   23.7920 O   0  0  0  0  0  0  0  0  0  0  0  0
  -22.7440  -29.4710   22.5800 C   0  0  0  0  0  0  0  0  0  0  0  0
  -21.4180  -29.2900   22.4610 N   0  0  0  0  0  0  0  0  0  0  0  0
  -23.4270  -28.8420   23.3930 O   0  0  0  0  0  0  0  0  0  0  0  0
  -20.9230  -29.8480   21.7820 H   0  0  0  0  0  0  0  0  0  0  0  0
  -18.0440  -28.1080   22.9610 C   0  0  0  0  0  0  0  0  0  0  0  0
  -20.6010  -28.3550   23.2340 C   0  0  0  0  0  3  0  0  0  0  0  0
  -20.6980  -26.9240   22.6600 C   0  0  0  0  0  2  0  0  0  0  0  0
  -19.5950  -26.6040   21.6430 C   0  0  0  0  0  2  0  0  0  0  0  0
  -18.2140  -26.7580   22.2880 C   0  0  0  0  0  2  0  0  0  0  0  0
  -19.1640  -28.8670   23.3910 C   0  0  0  0  0  0  0  0  0  0  0  0
  -18.9510  -30.1300   23.9830 C   0  0  0  0  0  3  0  0  0  0  0  0
  -17.6480  -30.6440   24.1370 C   0  0  0  0  0  3  0  0  0  0  0  0
  -16.5410  -29.8820   23.7280 C   0  0  0  0  0  3  0  0  0  0  0  0
  -16.7390  -28.6140   23.1510 C   0  0  0  0  0  3  0  0  0  0  0  0
  -25.8890  -32.5310   23.8700 C   0  0  0  0  0  3  0  0  0  0  0  0
  -26.4120  -31.7630   25.1440 C   0  0  1  0  0  0  0  0  0  0  0  0
  -25.3240  -31.5390   26.2190 C   0  0  0  0  0  1  0  0  0  0  0  0
  -26.9880  -30.3840   24.7410 C   0  0  0  0  0  1  0  0  0  0  0  0
  -27.5620  -32.5580   25.8090 C   0  0  0  0  0  1  0  0  0  0  0  0
  -25.5810  -33.9270   24.1980 N   0  0  0  0  0  0  0  0  0  0  0  0
  -25.9100  -34.9740   23.4340 C   0  0  0  0  0  0  0  0  0  0  0  0
  -26.5800  -34.8710   22.4020 O   0  0  0  0  0  0  0  0  0  0  0  0
  -25.0030  -34.0850   25.0120 H   0  0  0  0  0  0  0  0  0  0  0  0
  -24.1820  -36.7630   23.0710 C   0  0  0  0  0  1  0  0  0  0  0  0
  -25.4200  -36.3610   23.8870 C   0  0  0  0  0  3  0  0  0  0  0  0
  -27.5570  -37.2540   24.7190 C   0  0  0  0  0  1  0  0  0  0  0  0
  -26.4520  -37.4160   23.7780 N   0  0  0  0  0  0  0  0  0  0  0  0
  -26.0390  -38.3320   23.9310 H   0  0  0  0  0  0  0  0  0  0  0  0
  1  3  2  0
  2  1  1  0
  4  2  1  0
  5 10  2  0
  5  8  1  0
  6  7  2  0
  6  5  1  0
  7  9  1  0
  8 11  1  0
  9  2  1  0
  9  8  1  0
 11 12  1  0
 13 12  1  0
 14 19  1  0
 15 16  1  0
 15 14  1  0
 17 16  1  0
 17 24  1  0
 17 18  1  0
 19 13  1  0
 19 18  1  0
 20 13  2  0
 21 22  2  0
 22 41  1  0
 23 22  1  0
 23 26  1  0
 24 21  1  0
 24 25  1  0
 25 23  2  0
 26 27  1  0
 27 28  2  0
 29 32  1  0
 29 28  1  0
 30 29  2  0
 31 30  1  0
 31 26  2  0
 32 33  1  0
 33 34  1  0
 34 35  2  0
 36 35  1  0
 36 40  1  0
 37 36  2  0
 38 33  2  0
 38 37  1  0
 39 38  1  0
 41 42  1  0
 42 45  1  0
 42 44  1  0
 43 41  2  0
 46 21  1  0
 47 46  1  0
 48 46  1  0
 50 51  1  0
 50 52  1  0
 51  1  1  0
 51 49  1  0
 52 53  1  0
 52 49  1  0
 54 53  1  0
 55 66  2  0
 56 54  1  0
 56 61  1  0
 57 65  1  0
 57 67  1  0
 58 64  1  0
 58 60  1  0
 59 65  1  0
 60 59  1  0
 61 60  2  0
 62 56  2  0
 63 62  1  0
 63 58  2  0
 64 57  1  0
 65 55  1  0
 67 69  2  0
 68 67  1  0
 70 68  1  0
 71 80  2  0
 71 76  1  0
 72 68  1  0
 72 76  1  0
 73 72  1  0
 74 75  1  0
 74 73  1  0
 75 71  1  0
 76 77  2  0
 77 78  1  0
 79 78  2  0
 80 79  1  0
 81 55  1  0
 81 86  1  0
 81 82  1  0
 82 85  1  1
 82 83  1  0
 84 82  1  0
 86 89  1  0
 87 91  1  0
 87 86  1  0
 88 87  2  0
 91 90  1  0
 93 91  1  0
 93 94  1  0
 93 92  1  0
M  ISO  4  12 100  13 100  53 101  54 101
M  END
>  <TORSDO>  (12) 
F 20

>  <SCORE>  (12) 
-14.259

>  <name>  (12) 
11

>  <ligand_id>  (12) 
11

>  <original_smiles>  (12) 
[H]C(=NC(=O)N1C([H])([H])C([H])([H])C([H])([H])C([H])(n2nc(-c3c([H])c([H])c(Oc4c([H])c([H])c(F)c([H])c4F)c([H])c3[H])c(C(=O)N([H])[H])c2N([H])[H])C1([H])[H])C1([H])C(=O)C([H])([H])C([H])([H])C1([H])N([H])C(=O)C1([H])C([H])([H])C([H])(C([H])([H])Oc2c([H])c([H])c3c(c2[H])C([H])([H])N(C(=O)C([H])(N([H])C(=O)C([H])(N([H])C([H])([H])[H])C([H])([H])[H])C(C([H])([H])[H])(C([H])([H])[H])C([H])([H])[H])C([H])(C(=O)N([H])C2([H])c4c([H])c([H])c([H])c([H])c4C([H])([H])C([H])([H])C2([H])[H])C3([H])[H])C1([H])[H]

>  <smiles>  (12) 
[H]C(=NC(=O)N1C([H])([H])C([H])([H])C([H])([H])C([H])(n2nc(-c3c([H])c([H])c(Oc4c([H])c([H])c(F)c([H])c4F)c([H])c3[H])c(C(=O)N([H])[H])c2N([H])[H])C1([H])[H])C1([H])C(=O)C([H])([H])C([H])([H])C1([H])N([H])C(=O)C1([H])C([H])([H])C([H])(C([H])([H])Oc2c([H])c([H])c3c(c2[H])C([H])([H])N(C(=O)C([H])(N([H])C(=O)C([H])(N([H])C([H])([H])[H])C([H])([H])[H])C(C([H])([H])[H])(C([H])([H])[H])C([H])([H])[H])C([H])(C(=O)N([H])C2([H])c4c([H])c([H])c([H])c([H])c4C([H])([H])C([H])([H])C2([H])[H])C3([H])[H])C1([H])[H]

$$$$
12:0:0
     RDKit          3D

 91 99  0  0  1  0  0  0  0  0999 V2000
  -27.1960  -19.9350   19.2510 C   0  0  0  0  0  3  0  0  0  0  0  0
  -28.0740  -18.8920   19.6050 C   0  0  0  0  0  3  0  0  0  0  0  0
  -27.4580  -21.3110   19.4880 C   0  0  0  0  0  0  0  0  0  0  0  0
  -29.3020  -19.1450   20.2320 C   0  0  0  0  0  0  0  0  0  0  0  0
  -29.5540  -20.6010   20.4980 C   0  0  0  0  0  0  0  0  0  0  0  0
  -28.6580  -21.7440   20.1310 C   0  0  0  0  0  0  0  0  0  0  0  0
  -26.3900  -22.2770   19.0080 C   0  0  0  0  0  1  0  0  0  0  0  0
  -30.8470  -20.9830   21.2030 C   0  0  0  0  0  1  0  0  0  0  0  0
  -31.4720  -18.0550   19.4740 C   0  0  0  0  0  1  0  0  0  0  0  0
  -30.3040  -17.8410   20.4600 C   0  0  0  0  0  3  0  0  0  0  0  0
  -30.6180  -15.0760   20.3200 C   0  0  0  0  0  0  0  0  0  0  0  0
  -30.4610  -12.7390   19.3510 C   0  0  0  0  0  2  0  0  0  0  0  0
  -29.5160  -12.7010   18.1300 C   0  0  0  0  0  2  0  0  0  0  0  0
  -28.0580  -12.4880   18.5770 C   0  0  0  0  0  2  0  0  0  0  0  0
  -27.6650  -13.3950   19.7720 C   0  0  0  0  0  3  0  0  0  0  0  0
  -28.7360  -13.4090   20.8830 C   0  0  0  0  0  2  0  0  0  0  0  0
  -29.9910  -13.8320   20.2520 N   0  0  0  0  0  0  0  0  0  0  0  0
  -31.8280  -15.0820   20.0770 O   0  0  0  0  0  0  0  0  0  0  0  0
  -29.8850  -16.3000   20.4460 N   0  0  0  0  0  0  0  0  0  0  0  0
  -28.9000  -16.1510   20.5910 H   0  0  0  0  0  0  0  0  0  0  0  0
  -25.2920  -13.9520   20.5480 C   0  0  0  0  0  0  0  0  0  0  0  0
  -24.2340  -13.1670   20.9170 C   0  0  0  0  0  0  0  0  0  0  0  0
  -24.7060  -11.8180   20.8660 C   0  0  0  0  0  0  0  0  0  0  0  0
  -26.3360  -13.0820   20.2850 N   0  0  0  0  0  0  0  0  0  0  0  0
  -25.9940  -11.7930   20.5430 N   0  0  0  0  0  0  0  0  0  0  0  0
  -23.9860  -10.5510   21.0450 C   0  0  0  0  0  0  0  0  0  0  0  0
  -24.4180   -9.5820   21.9770 C   0  0  0  0  0  3  0  0  0  0  0  0
  -23.6970   -8.3800   22.1470 C   0  0  0  0  0  3  0  0  0  0  0  0
  -22.5290   -8.1400   21.3850 C   0  0  0  0  0  0  0  0  0  0  0  0
  -22.1170   -9.0970   20.4410 C   0  0  0  0  0  3  0  0  0  0  0  0
  -22.8380  -10.2900   20.2700 C   0  0  0  0  0  3  0  0  0  0  0  0
  -21.7800   -6.9900   21.4640 O   0  0  0  0  0  0  0  0  0  0  0  0
  -21.7070   -6.2560   22.6210 C   0  0  0  0  0  0  0  0  0  0  0  0
  -21.1870   -6.7980   23.8160 C   0  0  0  0  0  3  0  0  0  0  0  0
  -21.0660   -5.9870   24.9620 C   0  0  0  0  0  3  0  0  0  0  0  0
  -21.4550   -4.6350   24.9150 C   0  0  0  0  0  0  0  0  0  0  0  0
  -21.9680   -4.0920   23.7240 C   0  0  0  0  0  3  0  0  0  0  0  0
  -22.0910   -4.9000   22.5790 C   0  0  0  0  0  0  0  0  0  0  0  0
  -22.5660   -4.3660   21.4280 F   0  0  0  0  0  0  0  0  0  0  0  0
  -21.3330   -3.8540   26.0130 F   0  0  0  0  0  0  0  0  0  0  0  0
  -22.8380  -13.6350   21.2030 C   0  0  0  0  0  0  0  0  0  0  0  0
  -22.1180  -12.9210   22.0600 N   0  0  0  0  0  0  0  0  0  0  0  0
  -22.3960  -14.6670   20.7030 O   0  0  0  0  0  0  0  0  0  0  0  0
  -22.4910  -12.0850   22.4860 H   0  0  0  0  0  0  0  0  0  0  0  0
  -21.1800  -13.2150   22.2920 H   0  0  0  0  0  0  0  0  0  0  0  0
  -25.4460  -15.3250   20.3830 N   0  0  0  0  0  0  0  0  0  0  0  0
  -24.6720  -15.9690   20.5040 H   0  0  0  0  0  0  0  0  0  0  0  0
  -26.2760  -15.7700   20.0180 H   0  0  0  0  0  0  0  0  0  0  0  0
  -28.9710  -23.3700   20.3980 C   0  0  0  0  0  3  0  0  0  0  0  0
  -28.0240  -24.7380   20.0470 C   0  0  0  0  0  3  0  0  0  0  0  0
  -28.3030  -26.2550   20.2970 O   0  0  0  0  0  0  0  0  0  0  0  0
  -24.6300  -31.9090   23.2940 C   0  0  0  0  0  0  0  0  0  0  0  0
  -27.2540  -27.2470   20.2210 C   0  0  0  0  0  0  0  0  0  0  0  0
  -23.4530  -30.5360   21.6200 C   0  0  0  0  0  3  0  0  0  0  0  0
  -24.9230  -28.9900   20.1860 C   0  0  0  0  0  0  0  0  0  0  0  0
  -26.0080  -30.8110   21.4890 C   0  0  0  0  0  2  0  0  0  0  0  0
  -26.0940  -29.4290   20.8170 C   0  0  0  0  0  0  0  0  0  0  0  0
  -27.2610  -28.5740   20.8170 C   0  0  0  0  0  3  0  0  0  0  0  0
  -26.0580  -26.9160   19.5440 C   0  0  0  0  0  3  0  0  0  0  0  0
  -24.9190  -27.7500   19.5330 C   0  0  0  0  0  3  0  0  0  0  0  0
  -23.6920  -29.8820   20.2330 C   0  0  0  0  0  2  0  0  0  0  0  0
  -24.7170  -31.1050   22.1890 N   0  0  0  0  0  0  0  0  0  0  0  0
  -23.5370  -32.1830   23.8130 O   0  0  0  0  0  0  0  0  0  0  0  0
  -22.7660  -29.5120   22.5580 C   0  0  0  0  0  0  0  0  0  0  0  0
  -21.4450  -29.3210   22.3960 N   0  0  0  0  0  0  0  0  0  0  0  0
  -23.4260  -28.8920   23.3960 O   0  0  0  0  0  0  0  0  0  0  0  0
  -20.9690  -29.8730   21.6960 H   0  0  0  0  0  0  0  0  0  0  0  0
  -18.0660  -28.0840   22.8210 C   0  0  0  0  0  0  0  0  0  0  0  0
  -20.6160  -28.3680   23.1400 C   0  0  0  0  0  3  0  0  0  0  0  0
  -20.7440  -26.9430   22.5520 C   0  0  0  0  0  2  0  0  0  0  0  0
  -19.6640  -26.6210   21.5130 C   0  0  0  0  0  2  0  0  0  0  0  0
  -18.2690  -26.7460   22.1320 C   0  0  0  0  0  2  0  0  0  0  0  0
  -19.1690  -28.8530   23.2800 C   0  0  0  0  0  0  0  0  0  0  0  0
  -18.9250  -30.1050   23.8850 C   0  0  0  0  0  3  0  0  0  0  0  0
  -17.6110  -30.5900   24.0330 C   0  0  0  0  0  3  0  0  0  0  0  0
  -16.5230  -29.8180   23.5890 C   0  0  0  0  0  3  0  0  0  0  0  0
  -16.7520  -28.5670   22.9890 C   0  0  0  0  0  3  0  0  0  0  0  0
  -25.8990  -32.5380   23.9450 C   0  0  0  0  0  3  0  0  0  0  0  0
  -26.3560  -31.7910   25.2590 C   0  0  1  0  0  0  0  0  0  0  0  0
  -25.2190  -31.5900   26.2880 C   0  0  0  0  0  1  0  0  0  0  0  0
  -26.9380  -30.3970   24.9260 C   0  0  0  0  0  1  0  0  0  0  0  0
  -27.4900  -32.5880   25.9470 C   0  0  0  0  0  1  0  0  0  0  0  0
  -25.6020  -33.9490   24.2350 N   0  0  0  0  0  0  0  0  0  0  0  0
  -25.9610  -34.9810   23.4610 C   0  0  0  0  0  0  0  0  0  0  0  0
  -26.6440  -34.8450   22.4430 O   0  0  0  0  0  0  0  0  0  0  0  0
  -24.9980  -34.1300   25.0240 H   0  0  0  0  0  0  0  0  0  0  0  0
  -24.2710  -36.7980   23.0390 C   0  0  0  0  0  1  0  0  0  0  0  0
  -25.4890  -36.3880   23.8810 C   0  0  0  0  0  3  0  0  0  0  0  0
  -27.6120  -37.2670   24.7490 C   0  0  0  0  0  1  0  0  0  0  0  0
  -26.5400  -37.4210   23.7670 N   0  0  0  0  0  0  0  0  0  0  0  0
  -26.1440  -38.3510   23.8720 H   0  0  0  0  0  0  0  0  0  0  0  0
  1  3  2  0
  1  2  1  0
  2  4  2  0
  3  6  1  0
  4 10  1  0
  4  5  1  0
  5  8  1  0
  6 49  1  0
  6  5  2  0
  7  3  1  0
 10  9  1  0
 11 19  1  0
 12 17  1  0
 13 14  1  0
 13 12  1  0
 15 14  1  0
 15 24  1  0
 15 16  1  0
 17 11  1  0
 17 16  1  0
 18 11  2  0
 19 10  1  0
 19 20  1  0
 21 22  2  0
 22 41  1  0
 23 22  1  0
 23 26  1  0
 24 25  1  0
 24 21  1  0
 25 23  2  0
 26 27  1  0
 27 28  2  0
 29 32  1  0
 29 28  1  0
 30 29  2  0
 31 30  1  0
 31 26  2  0
 32 33  1  0
 33 34  1  0
 34 35  2  0
 36 35  1  0
 36 40  1  0
 37 36  2  0
 38 33  2  0
 38 37  1  0
 39 38  1  0
 41 42  1  0
 42 45  1  0
 42 44  1  0
 43 41  2  0
 46 47  1  0
 46 21  1  0
 48 46  1  0
 50 51  1  0
 50 49  2  0
 52 63  2  0
 53 51  1  0
 53 58  1  0
 54 62  1  0
 54 64  1  0
 55 61  1  0
 55 57  1  0
 56 62  1  0
 57 56  1  0
 58 57  2  0
 59 53  2  0
 60 59  1  0
 60 55  2  0
 61 54  1  0
 62 52  1  0
 64 66  2  0
 65 64  1  0
 67 65  1  0
 68 77  2  0
 68 73  1  0
 69 65  1  0
 69 73  1  0
 70 69  1  0
 71 72  1  0
 71 70  1  0
 72 68  1  0
 73 74  2  0
 74 75  1  0
 76 75  2  0
 77 76  1  0
 78 52  1  0
 78 83  1  0
 78 79  1  0
 79 82  1  1
 79 80  1  0
 81 79  1  0
 83 86  1  0
 84 88  1  0
 84 83  1  0
 85 84  2  0
 88 87  1  0
 90 91  1  0
 90 88  1  0
 90 89  1  0
M  ISO  4  11 100  19 100  50 101  51 101
M  END
>  <TORSDO>  (13) 
F 19

>  <SCORE>  (13) 
-15.125

>  <name>  (13) 
12

>  <ligand_id>  (13) 
12

>  <original_smiles>  (13) 
[H]c1c([H])c([H])c2c(c1[H])C([H])([H])C([H])([H])C([H])([H])C2([H])N([H])C(=O)C1([H])N(C(=O)C([H])(N([H])C(=O)C([H])(N([H])C([H])([H])[H])C([H])([H])[H])C(C([H])([H])[H])(C([H])([H])[H])C([H])([H])[H])C([H])([H])c2c([H])c(OC([H])([H])C([H])([H])c3c(C([H])([H])[H])c([H])c([H])c(C([H])(N([H])C(=O)N4C([H])([H])C([H])([H])C([H])([H])C([H])(n5nc(-c6c([H])c([H])c(Oc7c([H])c([H])c(F)c([H])c7F)c([H])c6[H])c(C(=O)N([H])[H])c5N([H])[H])C4([H])[H])C([H])([H])[H])c3C([H])([H])[H])c([H])c([H])c2C1([H])[H]

>  <smiles>  (13) 
[H]c1c([H])c([H])c2c(c1[H])C([H])([H])C([H])([H])C([H])([H])C2([H])N([H])C(=O)C1([H])N(C(=O)C([H])(N([H])C(=O)C([H])(N([H])C([H])([H])[H])C([H])([H])[H])C(C([H])([H])[H])(C([H])([H])[H])C([H])([H])[H])C([H])([H])c2c([H])c(OC([H])([H])C([H])([H])c3c(C([H])([H])[H])c([H])c([H])c(C([H])(N([H])C(=O)N4C([H])([H])C([H])([H])C([H])([H])C([H])(n5nc(-c6c([H])c([H])c(Oc7c([H])c([H])c(F)c([H])c7F)c([H])c6[H])c(C(=O)N([H])[H])c5N([H])[H])C4([H])[H])C([H])([H])[H])c3C([H])([H])[H])c([H])c([H])c2C1([H])[H]

$$$$
13:0:0
     RDKit          3D

 94103  0  0  1  0  0  0  0  0999 V2000
  -30.9970  -22.9580   21.1770 N   0  0  0  0  0  4  0  0  0  0  0  0
  -31.6740  -23.6700   20.9430 H   0  0  0  0  0  0  0  0  0  0  0  0
  -30.8860  -22.3780   20.3620 H   0  0  0  0  0  0  0  0  0  0  0  0
  -29.7250  -23.6730   21.4110 C   0  0  0  0  0  2  0  0  0  0  0  0
  -29.6220  -24.8210   20.4040 C   0  0  0  0  0  0  0  0  0  0  0  0
  -30.6220  -25.2470   19.8120 O   0  0  0  0  0  0  0  0  0  0  0  0
  -28.2320  -25.4260   20.1760 C   0  0  0  0  0  2  0  0  0  0  0  0
  -28.3130  -26.8510   20.1630 O   0  0  0  0  0  0  0  0  0  0  0  0
  -24.4950  -31.9730   23.2570 C   0  0  0  0  0  0  0  0  0  0  0  0
  -27.1170  -27.5330   20.1730 C   0  0  0  0  0  0  0  0  0  0  0  0
  -23.2700  -30.5620   21.6340 C   0  0  0  0  0  3  0  0  0  0  0  0
  -24.7090  -29.0150   20.2090 C   0  0  0  0  0  0  0  0  0  0  0  0
  -25.7900  -30.9280   21.4030 C   0  0  0  0  0  2  0  0  0  0  0  0
  -25.8710  -29.5530   20.7760 C   0  0  0  0  0  0  0  0  0  0  0  0
  -27.0760  -28.8200   20.7510 C   0  0  0  0  0  3  0  0  0  0  0  0
  -25.9330  -26.9990   19.6100 C   0  0  0  0  0  3  0  0  0  0  0  0
  -24.7330  -27.7360   19.6270 C   0  0  0  0  0  3  0  0  0  0  0  0
  -23.4660  -29.8700   20.2600 C   0  0  0  0  0  2  0  0  0  0  0  0
  -24.5380  -31.1690   22.1570 N   0  0  0  0  0  0  0  0  0  0  0  0
  -23.4200  -32.2480   23.8080 O   0  0  0  0  0  0  0  0  0  0  0  0
  -22.6290  -29.5480   22.6080 C   0  0  0  0  0  0  0  0  0  0  0  0
  -21.3070  -29.3500   22.4790 N   0  0  0  0  0  0  0  0  0  0  0  0
  -23.3180  -28.9400   23.4320 O   0  0  0  0  0  0  0  0  0  0  0  0
  -20.8130  -29.8930   21.7850 H   0  0  0  0  0  0  0  0  0  0  0  0
  -17.9480  -28.1160   22.9630 C   0  0  0  0  0  0  0  0  0  0  0  0
  -20.4970  -28.4140   23.2590 C   0  0  0  0  0  3  0  0  0  0  0  0
  -20.6270  -26.9750   22.7090 C   0  0  0  0  0  2  0  0  0  0  0  0
  -19.5410  -26.6190   21.6890 C   0  0  0  0  0  2  0  0  0  0  0  0
  -18.1510  -26.7560   22.3160 C   0  0  0  0  0  2  0  0  0  0  0  0
  -19.0500  -28.9010   23.3910 C   0  0  0  0  0  0  0  0  0  0  0  0
  -18.8070  -30.1730   23.9540 C   0  0  0  0  0  3  0  0  0  0  0  0
  -17.4950  -30.6590   24.0930 C   0  0  0  0  0  3  0  0  0  0  0  0
  -16.4060  -29.8710   23.6840 C   0  0  0  0  0  3  0  0  0  0  0  0
  -16.6330  -28.6010   23.1240 C   0  0  0  0  0  3  0  0  0  0  0  0
  -25.7890  -32.6050   23.8610 C   0  0  0  0  0  3  0  0  0  0  0  0
  -26.3170  -31.8420   25.1380 C   0  0  1  0  0  0  0  0  0  0  0  0
  -25.2320  -31.6110   26.2150 C   0  0  0  0  0  1  0  0  0  0  0  0
  -26.8950  -30.4620   24.7470 C   0  0  0  0  0  1  0  0  0  0  0  0
  -27.4720  -32.6390   25.7870 C   0  0  0  0  0  1  0  0  0  0  0  0
  -25.4910  -34.0070   24.1780 N   0  0  0  0  0  0  0  0  0  0  0  0
  -25.8300  -35.0490   23.4080 C   0  0  0  0  0  0  0  0  0  0  0  0
  -26.5000  -34.9300   22.3780 O   0  0  0  0  0  0  0  0  0  0  0  0
  -24.8980  -34.1730   24.9780 H   0  0  0  0  0  0  0  0  0  0  0  0
  -24.1190  -36.8500   23.0250 C   0  0  0  0  0  1  0  0  0  0  0  0
  -25.3500  -36.4440   23.8500 C   0  0  0  0  0  3  0  0  0  0  0  0
  -27.4860  -37.3180   24.6880 C   0  0  0  0  0  1  0  0  0  0  0  0
  -26.3910  -37.4880   23.7360 N   0  0  0  0  0  0  0  0  0  0  0  0
  -25.9910  -38.4120   23.8730 H   0  0  0  0  0  0  0  0  0  0  0  0
  -31.4730  -22.1560   22.3250 C   0  0  0  0  0  2  0  0  0  0  0  0
  -32.6260  -21.2080   21.9370 C   0  0  0  0  0  2  0  0  0  0  0  0
  -32.1600  -19.8880   21.2890 C   0  0  0  0  0  2  0  0  0  0  0  0
  -31.9260  -18.7560   22.3070 C   0  0  0  0  0  2  0  0  0  0  0  0
  -30.3540  -14.4200   20.0850 C   0  0  0  0  0  0  0  0  0  0  0  0
  -30.0010  -12.3490   18.7990 C   0  0  0  0  0  2  0  0  0  0  0  0
  -28.9640  -12.6240   17.6900 C   0  0  0  0  0  2  0  0  0  0  0  0
  -27.5290  -12.4360   18.2220 C   0  0  0  0  0  2  0  0  0  0  0  0
  -27.2830  -13.1830   19.5600 C   0  0  0  0  0  3  0  0  0  0  0  0
  -28.4190  -12.8860   20.5660 C   0  0  0  0  0  2  0  0  0  0  0  0
  -29.6950  -13.2440   19.9220 N   0  0  0  0  0  0  0  0  0  0  0  0
  -31.4170  -14.6860   19.5130 O   0  0  0  0  0  0  0  0  0  0  0  0
  -31.3320  -16.1810   22.4850 C   0  0  0  0  0  2  0  0  0  0  0  0
  -29.3720  -16.6910   20.0970 C   0  0  0  0  0  2  0  0  0  0  0  0
  -29.9120  -17.3400   21.3610 C   0  0  0  0  0  3  0  0  0  0  0  0
  -31.4170  -17.4720   21.6560 C   0  0  0  0  0  3  0  0  0  0  0  0
  -29.8790  -15.9700   22.0260 C   0  0  0  0  0  3  0  0  0  0  0  0
  -29.6280  -15.3770   20.6970 N   0  0  0  0  0  0  0  0  0  0  0  0
  -24.9050  -13.7060   20.4040 C   0  0  0  0  0  0  0  0  0  0  0  0
  -23.8900  -12.8950   20.8380 C   0  0  0  0  0  0  0  0  0  0  0  0
  -24.4010  -11.5620   20.7830 C   0  0  0  0  0  0  0  0  0  0  0  0
  -25.9680  -12.8640   20.1160 N   0  0  0  0  0  0  0  0  0  0  0  0
  -25.6700  -11.5700   20.3970 N   0  0  0  0  0  0  0  0  0  0  0  0
  -23.7390  -10.2730   21.0210 C   0  0  0  0  0  0  0  0  0  0  0  0
  -24.2350   -9.3510   21.9680 C   0  0  0  0  0  3  0  0  0  0  0  0
  -23.5720   -8.1260   22.1910 C   0  0  0  0  0  3  0  0  0  0  0  0
  -22.3970   -7.8130   21.4660 C   0  0  0  0  0  0  0  0  0  0  0  0
  -21.9190   -8.7240   20.5080 C   0  0  0  0  0  3  0  0  0  0  0  0
  -22.5850   -9.9420   20.2830 C   0  0  0  0  0  3  0  0  0  0  0  0
  -21.7000   -6.6360   21.5970 O   0  0  0  0  0  0  0  0  0  0  0  0
  -21.6840   -5.9370   22.7770 C   0  0  0  0  0  0  0  0  0  0  0  0
  -21.2330   -6.5190   23.9810 C   0  0  0  0  0  3  0  0  0  0  0  0
  -21.1680   -5.7440   25.1570 C   0  0  0  0  0  3  0  0  0  0  0  0
  -21.5430   -4.3880   25.1290 C   0  0  0  0  0  0  0  0  0  0  0  0
  -21.9860   -3.8060   23.9280 C   0  0  0  0  0  3  0  0  0  0  0  0
  -22.0530   -4.5780   22.7550 C   0  0  0  0  0  0  0  0  0  0  0  0
  -22.4620   -4.0050   21.5970 F   0  0  0  0  0  0  0  0  0  0  0  0
  -21.4720   -3.6400   26.2550 F   0  0  0  0  0  0  0  0  0  0  0  0
  -22.4950  -13.3180   21.1970 C   0  0  0  0  0  0  0  0  0  0  0  0
  -21.8510  -12.5980   22.1090 N   0  0  0  0  0  0  0  0  0  0  0  0
  -21.9830  -14.3220   20.7020 O   0  0  0  0  0  0  0  0  0  0  0  0
  -22.2780  -11.7840   22.5280 H   0  0  0  0  0  0  0  0  0  0  0  0
  -20.9190  -12.8630   22.3930 H   0  0  0  0  0  0  0  0  0  0  0  0
  -25.0100  -15.0810   20.2110 N   0  0  0  0  0  0  0  0  0  0  0  0
  -24.2350  -15.7170   20.3580 H   0  0  0  0  0  0  0  0  0  0  0  0
  -25.8390  -15.5400   19.8570 H   0  0  0  0  0  0  0  0  0  0  0  0
  1  4  1  0
  1 49  1  0
  2  1  1  0
  3  1  1  0
  5  4  1  0
  6  5  2  0
  7  5  1  0
  8 10  1  0
  8  7  1  0
  9 20  2  0
 10 15  1  0
 11 19  1  0
 11 21  1  0
 12 18  1  0
 12 14  1  0
 13 19  1  0
 14 13  1  0
 15 14  2  0
 16 17  1  0
 16 10  2  0
 17 12  2  0
 18 11  1  0
 19  9  1  0
 21 23  2  0
 22 21  1  0
 24 22  1  0
 25 34  2  0
 25 30  1  0
 26 22  1  0
 26 30  1  0
 27 26  1  0
 28 29  1  0
 28 27  1  0
 29 25  1  0
 30 31  2  0
 31 32  1  0
 33 32  2  0
 34 33  1  0
 35  9  1  0
 35 40  1  0
 35 36  1  0
 36 39  1  1
 36 37  1  0
 38 36  1  0
 40 43  1  0
 41 45  1  0
 41 40  1  0
 42 41  2  0
 45 44  1  0
 47 45  1  0
 47 48  1  0
 47 46  1  0
 50 49  1  0
 51 50  1  0
 51 52  1  0
 53 66  1  0
 54 59  1  0
 55 56  1  0
 55 54  1  0
 57 56  1  0
 57 70  1  0
 57 58  1  0
 59 53  1  0
 59 58  1  0
 60 53  2  0
 62 66  1  0
 63 62  1  0
 63 64  1  0
 63 65  1  0
 64 52  1  0
 64 61  1  0
 65 61  1  0
 66 65  1  0
 67 68  2  0
 68 87  1  0
 69 68  1  0
 69 72  1  0
 70 71  1  0
 70 67  1  0
 71 69  2  0
 72 73  1  0
 73 74  2  0
 75 78  1  0
 75 74  1  0
 76 75  2  0
 77 76  1  0
 77 72  2  0
 78 79  1  0
 79 80  1  0
 80 81  2  0
 82 81  1  0
 82 86  1  0
 83 82  2  0
 84 79  2  0
 84 83  1  0
 85 84  1  0
 87 88  1  0
 88 91  1  0
 88 90  1  0
 89 87  2  0
 92 93  1  0
 92 67  1  0
 94 92  1  0
M  ISO  4   7 101   8 101  53 100  66 100
M  END
>  <TORSDO>  (14) 
F 23

>  <SCORE>  (14) 
-11.144

>  <name>  (14) 
13

>  <ligand_id>  (14) 
13

>  <original_smiles>  (14) 
[H]c1c([H])c([H])c2c(c1[H])C([H])([H])C([H])([H])C([H])([H])C2([H])N([H])C(=O)C1([H])N(C(=O)C([H])(N([H])C(=O)C([H])(N([H])C([H])([H])[H])C([H])([H])[H])C(C([H])([H])[H])(C([H])([H])[H])C([H])([H])[H])C([H])([H])c2c([H])c(OC([H])([H])C(=O)C([H])([H])[N+]([H])([H])C([H])([H])C([H])([H])C([H])([H])C([H])([H])C3([H])C([H])([H])C4([H])N(C(=O)N5C([H])([H])C([H])([H])C([H])([H])C([H])(n6nc(-c7c([H])c([H])c(Oc8c([H])c([H])c(F)c([H])c8F)c([H])c7[H])c(C(=O)N([H])[H])c6N([H])[H])C5([H])[H])C([H])([H])C43[H])c([H])c([H])c2C1([H])[H]

>  <smiles>  (14) 
[H]c1c([H])c([H])c2c(c1[H])C([H])([H])C([H])([H])C([H])([H])C2([H])N([H])C(=O)C1([H])N(C(=O)C([H])(N([H])C(=O)C([H])(N([H])C([H])([H])[H])C([H])([H])[H])C(C([H])([H])[H])(C([H])([H])[H])C([H])([H])[H])C([H])([H])c2c([H])c(OC([H])([H])C(=O)C([H])([H])[N+]([H])([H])C([H])([H])C([H])([H])C([H])([H])C([H])([H])C3([H])C([H])([H])C4([H])N(C(=O)N5C([H])([H])C([H])([H])C([H])([H])C([H])(n6nc(-c7c([H])c([H])c(Oc8c([H])c([H])c(F)c([H])c8F)c([H])c7[H])c(C(=O)N([H])[H])c6N([H])[H])C5([H])[H])C([H])([H])C43[H])c([H])c([H])c2C1([H])[H]

$$$$
14:0:0
     RDKit          3D

 94103  0  0  1  0  0  0  0  0999 V2000
  -29.6820  -21.0010   21.3740 C   0  0  0  0  0  0  0  0  0  0  0  0
  -29.9470  -19.7150   21.0950 N   0  0  0  0  0  0  0  0  0  0  0  0
  -29.4760  -21.3980   22.5280 O   0  0  0  0  0  0  0  0  0  0  0  0
  -30.1080  -19.4630   20.1290 H   0  0  0  0  0  0  0  0  0  0  0  0
  -31.0360  -14.5180   19.6730 C   0  0  0  0  0  0  0  0  0  0  0  0
  -30.5130  -12.4710   18.3920 C   0  0  0  0  0  2  0  0  0  0  0  0
  -29.3960  -12.7560   17.3690 C   0  0  0  0  0  2  0  0  0  0  0  0
  -28.0040  -12.5940   18.0120 C   0  0  0  0  0  2  0  0  0  0  0  0
  -27.8780  -13.3520   19.3600 C   0  0  0  0  0  3  0  0  0  0  0  0
  -29.0820  -13.0370   20.2740 C   0  0  0  0  0  2  0  0  0  0  0  0
  -30.3170  -13.3710   19.5390 N   0  0  0  0  0  0  0  0  0  0  0  0
  -31.9920  -14.8120   18.9470 O   0  0  0  0  0  0  0  0  0  0  0  0
  -31.2940  -18.0610   22.4540 C   0  0  0  0  0  2  0  0  0  0  0  0
  -31.1640  -15.4480   21.9420 C   0  0  0  0  0  2  0  0  0  0  0  0
  -29.9110  -16.6450   20.2490 C   0  0  0  0  0  2  0  0  0  0  0  0
  -30.5730  -16.7000   22.5670 C   0  0  0  0  0  3  0  0  0  0  0  0
  -29.5410  -17.2510   21.5990 C   0  0  0  0  0  3  0  0  0  0  0  0
  -29.9270  -18.6540   22.1040 C   0  0  0  0  0  3  0  0  0  0  0  0
  -30.5690  -15.3760   20.6020 N   0  0  0  0  0  0  0  0  0  0  0  0
  -25.6490  -13.9370   20.5110 C   0  0  0  0  0  0  0  0  0  0  0  0
  -24.6230  -13.1540   20.9680 C   0  0  0  0  0  0  0  0  0  0  0  0
  -25.0180  -11.8040   20.7220 C   0  0  0  0  0  0  0  0  0  0  0  0
  -26.6060  -13.0630   20.0210 N   0  0  0  0  0  0  0  0  0  0  0  0
  -26.2370  -11.7690   20.2010 N   0  0  0  0  0  0  0  0  0  0  0  0
  -24.2830  -10.5450   20.8990 C   0  0  0  0  0  0  0  0  0  0  0  0
  -24.7700   -9.5170   21.7360 C   0  0  0  0  0  3  0  0  0  0  0  0
  -24.0370   -8.3220   21.9030 C   0  0  0  0  0  3  0  0  0  0  0  0
  -22.8030   -8.1470   21.2340 C   0  0  0  0  0  0  0  0  0  0  0  0
  -22.3350   -9.1630   20.3830 C   0  0  0  0  0  3  0  0  0  0  0  0
  -23.0670  -10.3490   20.2130 C   0  0  0  0  0  3  0  0  0  0  0  0
  -22.0370   -7.0090   21.3150 O   0  0  0  0  0  0  0  0  0  0  0  0
  -21.9820   -6.2590   22.4620 C   0  0  0  0  0  0  0  0  0  0  0  0
  -21.5810   -6.8140   23.6970 C   0  0  0  0  0  3  0  0  0  0  0  0
  -21.4720   -5.9920   24.8360 C   0  0  0  0  0  3  0  0  0  0  0  0
  -21.7530   -4.6150   24.7410 C   0  0  0  0  0  0  0  0  0  0  0  0
  -22.1470   -4.0600   23.5100 C   0  0  0  0  0  3  0  0  0  0  0  0
  -22.2580   -4.8800   22.3740 C   0  0  0  0  0  0  0  0  0  0  0  0
  -22.6180   -4.3360   21.1860 F   0  0  0  0  0  0  0  0  0  0  0  0
  -21.6410   -3.8240   25.8320 F   0  0  0  0  0  0  0  0  0  0  0  0
  -23.3080  -13.6300   21.5180 C   0  0  0  0  0  0  0  0  0  0  0  0
  -22.7170  -12.8740   22.4350 N   0  0  0  0  0  0  0  0  0  0  0  0
  -22.8200  -14.7040   21.1680 O   0  0  0  0  0  0  0  0  0  0  0  0
  -23.1270  -12.0030   22.7400 H   0  0  0  0  0  0  0  0  0  0  0  0
  -21.8400  -13.1690   22.8410 H   0  0  0  0  0  0  0  0  0  0  0  0
  -25.8370  -15.3150   20.4530 N   0  0  0  0  0  0  0  0  0  0  0  0
  -25.1280  -15.9720   20.7580 H   0  0  0  0  0  0  0  0  0  0  0  0
  -26.6510  -15.7670   20.0550 H   0  0  0  0  0  0  0  0  0  0  0  0
  -29.6210  -22.0010   20.2090 C   0  0  0  0  0  2  0  0  0  0  0  0
  -28.9960  -24.4200   20.0050 C   0  0  0  0  0  0  0  0  0  0  0  0
  -29.2860  -23.3290   20.7210 N   0  0  0  0  0  0  0  0  0  0  0  0
  -29.0120  -24.4210   18.7710 O   0  0  0  0  0  0  0  0  0  0  0  0
  -29.2350  -23.3820   21.7320 H   0  0  0  0  0  0  0  0  0  0  0  0
  -28.6410  -25.6890   20.8010 C   0  0  0  0  0  2  0  0  0  0  0  0
  -28.5710  -26.8330   19.9440 O   0  0  0  0  0  0  0  0  0  0  0  0
  -24.7560  -31.8740   23.2120 C   0  0  0  0  0  0  0  0  0  0  0  0
  -27.3900  -27.5270   20.0160 C   0  0  0  0  0  0  0  0  0  0  0  0
  -23.5320  -30.4860   21.5680 C   0  0  0  0  0  3  0  0  0  0  0  0
  -24.9750  -28.9790   20.1000 C   0  0  0  0  0  0  0  0  0  0  0  0
  -26.0460  -30.8780   21.3280 C   0  0  0  0  0  2  0  0  0  0  0  0
  -26.1360  -29.5170   20.6720 C   0  0  0  0  0  0  0  0  0  0  0  0
  -27.3480  -28.7970   20.6280 C   0  0  0  0  0  3  0  0  0  0  0  0
  -26.2170  -26.9900   19.4490 C   0  0  0  0  0  3  0  0  0  0  0  0
  -25.0080  -27.7120   19.4880 C   0  0  0  0  0  3  0  0  0  0  0  0
  -23.7230  -29.8230   20.1770 C   0  0  0  0  0  2  0  0  0  0  0  0
  -24.7970  -31.0930   22.0960 N   0  0  0  0  0  0  0  0  0  0  0  0
  -23.6840  -32.1270   23.7780 O   0  0  0  0  0  0  0  0  0  0  0  0
  -22.9070  -29.4460   22.5250 C   0  0  0  0  0  0  0  0  0  0  0  0
  -21.5900  -29.2240   22.3900 N   0  0  0  0  0  0  0  0  0  0  0  0
  -23.6040  -28.8400   23.3430 O   0  0  0  0  0  0  0  0  0  0  0  0
  -21.0870  -29.7670   21.7020 H   0  0  0  0  0  0  0  0  0  0  0  0
  -18.2580  -27.9020   22.8310 C   0  0  0  0  0  0  0  0  0  0  0  0
  -20.7970  -28.2620   23.1530 C   0  0  0  0  0  3  0  0  0  0  0  0
  -20.9670  -26.8310   22.5930 C   0  0  0  0  0  2  0  0  0  0  0  0
  -19.9000  -26.4580   21.5600 C   0  0  0  0  0  2  0  0  0  0  0  0
  -18.5000  -26.5550   22.1740 C   0  0  0  0  0  2  0  0  0  0  0  0
  -19.3370  -28.7110   23.2770 C   0  0  0  0  0  0  0  0  0  0  0  0
  -19.0560  -29.9730   23.8480 C   0  0  0  0  0  3  0  0  0  0  0  0
  -17.7300  -30.4250   23.9800 C   0  0  0  0  0  3  0  0  0  0  0  0
  -16.6650  -29.6130   23.5510 C   0  0  0  0  0  3  0  0  0  0  0  0
  -16.9300  -28.3550   22.9830 C   0  0  0  0  0  3  0  0  0  0  0  0
  -26.0490  -32.5040   23.8190 C   0  0  0  0  0  3  0  0  0  0  0  0
  -26.6140  -31.6980   25.0530 C   0  0  1  0  0  0  0  0  0  0  0  0
  -25.5490  -31.3770   26.1260 C   0  0  0  0  0  1  0  0  0  0  0  0
  -27.2380  -30.3620   24.5890 C   0  0  0  0  0  1  0  0  0  0  0  0
  -27.7460  -32.5050   25.7320 C   0  0  0  0  0  1  0  0  0  0  0  0
  -25.7300  -33.8860   24.2020 N   0  0  0  0  0  0  0  0  0  0  0  0
  -26.0260  -34.9650   23.4670 C   0  0  0  0  0  0  0  0  0  0  0  0
  -26.6660  -34.9030   22.4140 O   0  0  0  0  0  0  0  0  0  0  0  0
  -25.1590  -34.0060   25.0250 H   0  0  0  0  0  0  0  0  0  0  0  0
  -24.2550  -36.7340   23.2210 C   0  0  0  0  0  1  0  0  0  0  0  0
  -25.5290  -36.3310   23.9800 C   0  0  0  0  0  3  0  0  0  0  0  0
  -27.6770  -37.2290   24.7590 C   0  0  0  0  0  1  0  0  0  0  0  0
  -26.5390  -37.4060   23.8610 N   0  0  0  0  0  0  0  0  0  0  0  0
  -26.1240  -38.3130   24.0510 H   0  0  0  0  0  0  0  0  0  0  0  0
  1  3  2  0
  2  1  1  0
  4  2  1  0
  5 19  1  0
  6 11  1  0
  7  8  1  0
  7  6  1  0
  9  8  1  0
  9 23  1  0
  9 10  1  0
 11  5  1  0
 11 10  1  0
 12  5  2  0
 13 16  1  0
 15 19  1  0
 16 14  1  0
 17 15  1  0
 17 18  1  0
 17 16  1  0
 18  2  1  0
 18 13  1  0
 19 14  1  0
 20 21  2  0
 21 40  1  0
 22 25  1  0
 22 21  1  0
 23 24  1  0
 23 20  1  0
 24 22  2  0
 25 26  1  0
 26 27  2  0
 28 31  1  0
 28 27  1  0
 29 28  2  0
 30 29  1  0
 30 25  2  0
 31 32  1  0
 32 33  1  0
 33 34  2  0
 35 34  1  0
 35 39  1  0
 36 35  2  0
 37 32  2  0
 37 36  1  0
 38 37  1  0
 40 41  1  0
 41 43  1  0
 41 44  1  0
 42 40  2  0
 45 20  1  0
 45 46  1  0
 47 45  1  0
 48 50  1  0
 48  1  1  0
 49 50  1  0
 49 53  1  0
 50 52  1  0
 51 49  2  0
 54 56  1  0
 54 53  1  0
 55 66  2  0
 56 61  1  0
 57 65  1  0
 57 67  1  0
 58 64  1  0
 58 60  1  0
 59 65  1  0
 60 59  1  0
 61 60  2  0
 62 63  1  0
 62 56  2  0
 63 58  2  0
 64 57  1  0
 65 55  1  0
 67 69  2  0
 68 67  1  0
 70 68  1  0
 71 80  2  0
 71 76  1  0
 72 68  1  0
 72 76  1  0
 73 72  1  0
 74 75  1  0
 74 73  1  0
 75 71  1  0
 76 77  2  0
 77 78  1  0
 79 78  2  0
 80 79  1  0
 81 55  1  0
 81 86  1  0
 81 82  1  0
 82 85  1  1
 82 83  1  0
 84 82  1  0
 86 89  1  0
 87 91  1  0
 87 86  1  0
 88 87  2  0
 91 90  1  0
 93 91  1  0
 93 94  1  0
 93 92  1  0
M  ISO  4   5 100  19 100  53 101  54 101
M  END
>  <TORSDO>  (15) 
F 19

>  <SCORE>  (15) 
-11.698

>  <name>  (15) 
14

>  <ligand_id>  (15) 
14

>  <original_smiles>  (15) 
[H]c1c([H])c([H])c2c(c1[H])C([H])([H])C([H])([H])C([H])([H])C2([H])N([H])C(=O)C1([H])N(C(=O)C([H])(N([H])C(=O)C([H])(N([H])C([H])([H])[H])C([H])([H])[H])C(C([H])([H])[H])(C([H])([H])[H])C([H])([H])[H])C([H])([H])c2c([H])c(OC([H])([H])C(=O)N([H])C([H])([H])C(=O)N([H])C3([H])C([H])([H])C4([H])C([H])([H])N(C(=O)N5C([H])([H])C([H])([H])C([H])([H])C([H])(n6nc(-c7c([H])c([H])c(Oc8c([H])c([H])c(F)c([H])c8F)c([H])c7[H])c(C(=O)N([H])[H])c6N([H])[H])C5([H])[H])C([H])([H])C34[H])c([H])c([H])c2C1([H])[H]

>  <smiles>  (15) 
[H]c1c([H])c([H])c2c(c1[H])C([H])([H])C([H])([H])C([H])([H])C2([H])N([H])C(=O)C1([H])N(C(=O)C([H])(N([H])C(=O)C([H])(N([H])C([H])([H])[H])C([H])([H])[H])C(C([H])([H])[H])(C([H])([H])[H])C([H])([H])[H])C([H])([H])c2c([H])c(OC([H])([H])C(=O)N([H])C([H])([H])C(=O)N([H])C3([H])C([H])([H])C4([H])C([H])([H])N(C(=O)N5C([H])([H])C([H])([H])C([H])([H])C([H])(n6nc(-c7c([H])c([H])c(Oc8c([H])c([H])c(F)c([H])c8F)c([H])c7[H])c(C(=O)N([H])[H])c6N([H])[H])C5([H])[H])C([H])([H])C34[H])c([H])c([H])c2C1([H])[H]

$$$$
15:0:0
     RDKit          3D

 99107  0  0  1  0  0  0  0  0999 V2000
  -29.7180  -23.1810   21.2490 C   0  0  0  0  0  0  0  0  0  0  0  0
  -29.9210  -22.0190   20.5830 N   0  0  0  0  0  0  0  0  0  0  0  0
  -29.6090  -23.1990   22.4760 O   0  0  0  0  0  0  0  0  0  0  0  0
  -29.9810  -22.0690   19.5740 H   0  0  0  0  0  0  0  0  0  0  0  0
  -29.0980  -18.4540   21.4200 C   0  0  0  0  0  2  0  0  0  0  0  0
  -28.9030  -19.9640   21.7000 C   0  0  0  0  0  2  0  0  0  0  0  0
  -30.5330  -18.2630   20.9010 C   0  0  0  0  0  3  0  0  0  0  0  0
  -30.1710  -20.6950   21.2150 C   0  0  0  0  0  3  0  0  0  0  0  0
  -30.8440  -19.6590   20.2770 C   0  0  0  0  0  3  0  0  0  0  0  0
  -32.2830  -19.9310   20.0970 N   0  0  0  0  0  4  0  0  0  0  0  0
  -32.7820  -19.8550   20.9640 H   0  0  0  0  0  0  0  0  0  0  0  0
  -32.4140  -20.8600   19.7360 H   0  0  0  0  0  0  0  0  0  0  0  0
  -32.6870  -19.2950   19.4350 H   0  0  0  0  0  0  0  0  0  0  0  0
  -30.7090  -17.0530   19.9280 C   0  0  0  0  0  2  0  0  0  0  0  0
  -31.0950  -14.5840   20.0800 C   0  0  0  0  0  0  0  0  0  0  0  0
  -30.6590  -12.4510   18.9290 C   0  0  0  0  0  2  0  0  0  0  0  0
  -29.6820  -12.7410   17.7710 C   0  0  0  0  0  2  0  0  0  0  0  0
  -28.2240  -12.6340   18.2560 C   0  0  0  0  0  2  0  0  0  0  0  0
  -27.9690  -13.4280   19.5660 C   0  0  0  0  0  3  0  0  0  0  0  0
  -29.0720  -13.1660   20.6210 C   0  0  0  0  0  2  0  0  0  0  0  0
  -30.3750  -13.4310   19.9940 N   0  0  0  0  0  0  0  0  0  0  0  0
  -32.2270  -14.6900   19.6030 O   0  0  0  0  0  0  0  0  0  0  0  0
  -30.4180  -15.6930   20.4610 N   0  0  0  0  0  0  0  0  0  0  0  0
  -29.5000  -15.5400   20.8510 H   0  0  0  0  0  0  0  0  0  0  0  0
  -25.6200  -14.0690   20.3890 C   0  0  0  0  0  0  0  0  0  0  0  0
  -24.5500  -13.3120   20.7880 C   0  0  0  0  0  0  0  0  0  0  0  0
  -24.9780  -11.9520   20.7090 C   0  0  0  0  0  0  0  0  0  0  0  0
  -26.6330  -13.1690   20.0960 N   0  0  0  0  0  0  0  0  0  0  0  0
  -26.2530  -11.8900   20.3460 N   0  0  0  0  0  0  0  0  0  0  0  0
  -24.2290  -10.7030   20.9050 C   0  0  0  0  0  0  0  0  0  0  0  0
  -24.6300   -9.7460   21.8620 C   0  0  0  0  0  3  0  0  0  0  0  0
  -23.8840   -8.5600   22.0450 C   0  0  0  0  0  3  0  0  0  0  0  0
  -22.7230   -8.3260   21.2690 C   0  0  0  0  0  0  0  0  0  0  0  0
  -22.3410   -9.2740   20.3030 C   0  0  0  0  0  3  0  0  0  0  0  0
  -23.0870  -10.4510   20.1190 C   0  0  0  0  0  3  0  0  0  0  0  0
  -21.9520   -7.1930   21.3600 O   0  0  0  0  0  0  0  0  0  0  0  0
  -21.8030   -6.5150   22.5440 C   0  0  0  0  0  0  0  0  0  0  0  0
  -21.2920   -7.1410   23.7020 C   0  0  0  0  0  3  0  0  0  0  0  0
  -21.0910   -6.3910   24.8770 C   0  0  0  0  0  3  0  0  0  0  0  0
  -21.3890   -5.0160   24.8960 C   0  0  0  0  0  0  0  0  0  0  0  0
  -21.8920   -4.3890   23.7420 C   0  0  0  0  0  3  0  0  0  0  0  0
  -22.0950   -5.1370   22.5690 C   0  0  0  0  0  0  0  0  0  0  0  0
  -22.5600   -4.5240   21.4530 F   0  0  0  0  0  0  0  0  0  0  0  0
  -21.1880   -4.2920   26.0220 F   0  0  0  0  0  0  0  0  0  0  0  0
  -23.1770  -13.8160   21.1300 C   0  0  0  0  0  0  0  0  0  0  0  0
  -22.4770  -13.1250   22.0230 N   0  0  0  0  0  0  0  0  0  0  0  0
  -22.7370  -14.8570   20.6430 O   0  0  0  0  0  0  0  0  0  0  0  0
  -22.8440  -12.2820   22.4400 H   0  0  0  0  0  0  0  0  0  0  0  0
  -21.5570  -13.4440   22.2940 H   0  0  0  0  0  0  0  0  0  0  0  0
  -25.8070  -15.4390   20.2290 N   0  0  0  0  0  0  0  0  0  0  0  0
  -25.0560  -16.1070   20.3620 H   0  0  0  0  0  0  0  0  0  0  0  0
  -26.6490  -15.8640   19.8630 H   0  0  0  0  0  0  0  0  0  0  0  0
  -29.7310  -24.5380   20.4940 C   0  0  0  0  0  3  0  0  0  0  0  0
  -30.7670  -25.3790   21.1270 N   0  0  0  0  0  4  0  0  0  0  0  0
  -30.6050  -25.4000   22.1200 H   0  0  0  0  0  0  0  0  0  0  0  0
  -30.7330  -26.3140   20.7600 H   0  0  0  0  0  0  0  0  0  0  0  0
  -31.6810  -24.9910   20.9720 H   0  0  0  0  0  0  0  0  0  0  0  0
  -28.3760  -25.3090   20.5290 C   0  0  0  0  0  2  0  0  0  0  0  0
  -28.5010  -26.6710   20.0310 O   0  0  0  0  0  0  0  0  0  0  0  0
  -24.6540  -31.8170   23.1410 C   0  0  0  0  0  0  0  0  0  0  0  0
  -27.3350  -27.4180   20.0210 C   0  0  0  0  0  0  0  0  0  0  0  0
  -23.4590  -30.4210   21.4870 C   0  0  0  0  0  3  0  0  0  0  0  0
  -24.9270  -28.9150   20.0410 C   0  0  0  0  0  0  0  0  0  0  0  0
  -25.9810  -30.8110   21.2830 C   0  0  0  0  0  2  0  0  0  0  0  0
  -26.0830  -29.4450   20.6280 C   0  0  0  0  0  0  0  0  0  0  0  0
  -27.2920  -28.7090   20.6060 C   0  0  0  0  0  3  0  0  0  0  0  0
  -26.1620  -26.9140   19.4170 C   0  0  0  0  0  3  0  0  0  0  0  0
  -24.9630  -27.6520   19.4280 C   0  0  0  0  0  3  0  0  0  0  0  0
  -23.6740  -29.7610   20.1000 C   0  0  0  0  0  2  0  0  0  0  0  0
  -24.7170  -31.0290   22.0310 N   0  0  0  0  0  0  0  0  0  0  0  0
  -23.5720  -32.0690   23.6890 O   0  0  0  0  0  0  0  0  0  0  0  0
  -22.8210  -29.3810   22.4380 C   0  0  0  0  0  0  0  0  0  0  0  0
  -21.4970  -29.1890   22.3150 N   0  0  0  0  0  0  0  0  0  0  0  0
  -23.5140  -28.7510   23.2410 O   0  0  0  0  0  0  0  0  0  0  0  0
  -20.9980  -29.7490   21.6390 H   0  0  0  0  0  0  0  0  0  0  0  0
  -18.1380  -27.9550   22.8180 C   0  0  0  0  0  0  0  0  0  0  0  0
  -20.6940  -28.2330   23.0780 C   0  0  0  0  0  3  0  0  0  0  0  0
  -20.8070  -26.8110   22.4810 C   0  0  0  0  0  2  0  0  0  0  0  0
  -19.7010  -26.4920   21.4700 C   0  0  0  0  0  2  0  0  0  0  0  0
  -18.3210  -26.6160   22.1230 C   0  0  0  0  0  2  0  0  0  0  0  0
  -19.2510  -28.7210   23.2530 C   0  0  0  0  0  0  0  0  0  0  0  0
  -19.0250  -29.9730   23.8630 C   0  0  0  0  0  3  0  0  0  0  0  0
  -17.7180  -30.4620   24.0420 C   0  0  0  0  0  3  0  0  0  0  0  0
  -16.6180  -29.6920   23.6250 C   0  0  0  0  0  3  0  0  0  0  0  0
  -16.8290  -28.4410   23.0180 C   0  0  0  0  0  3  0  0  0  0  0  0
  -25.9340  -32.4560   23.7650 C   0  0  0  0  0  3  0  0  0  0  0  0
  -25.6100  -33.8460   24.1150 N   0  0  0  0  0  0  0  0  0  0  0  0
  -25.9350  -34.9130   23.3730 C   0  0  0  0  0  0  0  0  0  0  0  0
  -26.6120  -34.8310   22.3450 O   0  0  0  0  0  0  0  0  0  0  0  0
  -25.0100  -33.9830   24.9160 H   0  0  0  0  0  0  0  0  0  0  0  0
  -24.1990  -36.6990   23.0270 C   0  0  0  0  0  1  0  0  0  0  0  0
  -25.4320  -36.2890   23.8490 C   0  0  0  0  0  3  0  0  0  0  0  0
  -27.5470  -37.1730   24.7270 C   0  0  0  0  0  1  0  0  0  0  0  0
  -26.4590  -37.3510   23.7690 N   0  0  0  0  0  0  0  0  0  0  0  0
  -26.0430  -38.2650   23.9270 H   0  0  0  0  0  0  0  0  0  0  0  0
  -26.4690  -31.6740   25.0260 C   0  0  1  0  0  0  0  0  0  0  0  0
  -25.3830  -31.4070   26.0970 C   0  0  0  0  0  1  0  0  0  0  0  0
  -27.0680  -30.3100   24.6100 C   0  0  0  0  0  1  0  0  0  0  0  0
  -27.6090  -32.4750   25.6970 C   0  0  0  0  0  1  0  0  0  0  0  0
  1  3  2  0
  2  1  1  0
  4  2  1  0
  5  6  1  0
  7 14  1  0
  7  5  1  0
  8  2  1  0
  8  6  1  0
  9 10  1  0
  9  7  1  0
  9  8  1  0
 10 11  1  0
 12 10  1  0
 13 10  1  0
 14 23  1  0
 15 23  1  0
 16 21  1  0
 17 18  1  0
 17 16  1  0
 19 18  1  0
 19 28  1  0
 19 20  1  0
 21 15  1  0
 21 20  1  0
 22 15  2  0
 23 24  1  0
 25 26  2  0
 26 45  1  0
 27 26  1  0
 27 30  1  0
 28 29  1  0
 28 25  1  0
 29 27  2  0
 30 31  1  0
 31 32  2  0
 33 36  1  0
 33 32  1  0
 34 33  2  0
 35 34  1  0
 35 30  2  0
 36 37  1  0
 37 42  2  0
 37 38  1  0
 38 39  2  0
 39 40  1  0
 40 44  1  0
 41 40  2  0
 42 41  1  0
 43 42  1  0
 45 46  1  0
 46 49  1  0
 46 48  1  0
 47 45  2  0
 50 51  1  0
 50 25  1  0
 52 50  1  0
 53 58  1  0
 53 54  1  0
 53  1  1  0
 54 55  1  0
 56 54  1  0
 57 54  1  0
 59 58  1  0
 60 71  2  0
 61 59  1  0
 61 66  1  0
 62 70  1  0
 62 72  1  0
 63 69  1  0
 63 65  1  0
 64 70  1  0
 65 64  1  0
 66 65  2  0
 67 68  1  0
 67 61  2  0
 68 63  2  0
 69 62  1  0
 70 60  1  0
 72 74  2  0
 73 72  1  0
 75 73  1  0
 76 85  2  0
 76 81  1  0
 77 73  1  0
 77 81  1  0
 78 77  1  0
 79 80  1  0
 79 78  1  0
 80 76  1  0
 81 82  2  0
 82 83  1  0
 84 83  2  0
 85 84  1  0
 86 60  1  0
 86 87  1  0
 86 96  1  0
 87 90  1  0
 88 92  1  0
 88 87  1  0
 89 88  2  0
 92 91  1  0
 94 92  1  0
 94 95  1  0
 94 93  1  0
 96 99  1  1
 96 97  1  0
 98 96  1  0
M  ISO  4  15 100  23 100  58 101  59 101
M  END
>  <TORSDO>  (16) 
F 22

>  <SCORE>  (16) 
-11.885

>  <name>  (16) 
15

>  <ligand_id>  (16) 
15

>  <original_smiles>  (16) 
[H]c1c([H])c([H])c2c(c1[H])C([H])([H])C([H])([H])C([H])([H])C2([H])N([H])C(=O)C1([H])N(C(=O)C([H])(N([H])C(=O)C([H])(N([H])C([H])([H])[H])C([H])([H])[H])C(C([H])([H])[H])(C([H])([H])[H])C([H])([H])[H])C([H])([H])c2c([H])c(OC([H])([H])C([H])(C(=O)N([H])C3([H])C([H])([H])C([H])([H])C([H])(C([H])([H])N([H])C(=O)N4C([H])([H])C([H])([H])C([H])([H])C([H])(n5nc(-c6c([H])c([H])c(Oc7c([H])c([H])c(F)c([H])c7F)c([H])c6[H])c(C(=O)N([H])[H])c5N([H])[H])C4([H])[H])C3([H])[N+]([H])([H])[H])[N+]([H])([H])[H])c([H])c([H])c2C1([H])[H]

>  <smiles>  (16) 
[H]c1c([H])c([H])c2c(c1[H])C([H])([H])C([H])([H])C([H])([H])C2([H])N([H])C(=O)C1([H])N(C(=O)C([H])(N([H])C(=O)C([H])(N([H])C([H])([H])[H])C([H])([H])[H])C(C([H])([H])[H])(C([H])([H])[H])C([H])([H])[H])C([H])([H])c2c([H])c(OC([H])([H])C([H])(C(=O)N([H])C3([H])C([H])([H])C([H])([H])C([H])(C([H])([H])N([H])C(=O)N4C([H])([H])C([H])([H])C([H])([H])C([H])(n5nc(-c6c([H])c([H])c(Oc7c([H])c([H])c(F)c([H])c7F)c([H])c6[H])c(C(=O)N([H])[H])c5N([H])[H])C4([H])[H])C3([H])[N+]([H])([H])[H])[N+]([H])([H])[H])c([H])c([H])c2C1([H])[H]

$$$$
16:0:0
     RDKit          3D

 94103  0  0  1  0  0  0  0  0999 V2000
  -29.5460  -21.1740   19.8610 C   0  0  0  0  0  0  0  0  0  0  0  0
  -28.8590  -22.3630   19.7010 N   0  0  0  0  0  0  0  0  0  0  0  0
  -30.7510  -21.1570   20.1130 O   0  0  0  0  0  0  0  0  0  0  0  0
  -27.8820  -22.2520   19.4630 H   0  0  0  0  0  0  0  0  0  0  0  0
  -30.2820  -17.8320   21.5330 C   0  0  0  0  0  0  0  0  0  0  0  0
  -27.8220  -17.9990   19.9840 C   0  0  0  0  0  2  0  0  0  0  0  0
  -30.3150  -17.3790   20.0570 C   0  0  0  0  0  3  0  0  0  0  0  0
  -28.7460  -19.8090   19.6870 C   0  0  0  0  0  3  0  0  0  0  0  0
  -29.2010  -18.2800   19.3310 C   0  0  0  0  0  3  0  0  0  0  0  0
  -28.2170  -19.1250   20.9720 C   0  0  0  0  0  3  0  0  0  0  0  0
  -29.2870  -18.6670   21.9010 N   0  0  0  0  0  0  0  0  0  0  0  0
  -31.1290  -17.4260   22.3280 O   0  0  0  0  0  0  0  0  0  0  0  0
  -29.2620  -18.9940   22.8570 H   0  0  0  0  0  0  0  0  0  0  0  0
  -30.8550  -14.7750   19.8620 C   0  0  0  0  0  0  0  0  0  0  0  0
  -30.6400  -12.4850   18.8890 C   0  0  0  0  0  2  0  0  0  0  0  0
  -29.6430  -12.5450   17.7110 C   0  0  0  0  0  2  0  0  0  0  0  0
  -28.1940  -12.3720   18.2080 C   0  0  0  0  0  2  0  0  0  0  0  0
  -27.8720  -13.2590   19.4400 C   0  0  0  0  0  3  0  0  0  0  0  0
  -28.9850  -13.1860   20.5070 C   0  0  0  0  0  2  0  0  0  0  0  0
  -30.2490  -13.5400   19.8470 N   0  0  0  0  0  0  0  0  0  0  0  0
  -32.0340  -14.8990   19.5200 O   0  0  0  0  0  0  0  0  0  0  0  0
  -30.0360  -15.8750   20.0250 N   0  0  0  0  0  0  0  0  0  0  0  0
  -29.0830  -15.6370   20.2450 H   0  0  0  0  0  0  0  0  0  0  0  0
  -25.5320  -13.8360   20.3160 C   0  0  0  0  0  0  0  0  0  0  0  0
  -24.4880  -13.0570   20.7300 C   0  0  0  0  0  0  0  0  0  0  0  0
  -24.9430  -11.7070   20.6380 C   0  0  0  0  0  0  0  0  0  0  0  0
  -26.5580  -12.9620   19.9990 N   0  0  0  0  0  0  0  0  0  0  0  0
  -26.2130  -11.6730   20.2540 N   0  0  0  0  0  0  0  0  0  0  0  0
  -24.2200  -10.4440   20.8330 C   0  0  0  0  0  0  0  0  0  0  0  0
  -24.6180   -9.5100   21.8140 C   0  0  0  0  0  3  0  0  0  0  0  0
  -23.8950   -8.3110   21.9960 C   0  0  0  0  0  3  0  0  0  0  0  0
  -22.7610   -8.0380   21.1950 C   0  0  0  0  0  0  0  0  0  0  0  0
  -22.3840   -8.9600   20.2020 C   0  0  0  0  0  3  0  0  0  0  0  0
  -23.1070  -10.1500   20.0190 C   0  0  0  0  0  3  0  0  0  0  0  0
  -22.0110   -6.8900   21.2850 O   0  0  0  0  0  0  0  0  0  0  0  0
  -21.8080   -6.2550   22.4840 C   0  0  0  0  0  0  0  0  0  0  0  0
  -21.1810   -6.8990   23.5730 C   0  0  0  0  0  3  0  0  0  0  0  0
  -20.9310   -6.1870   24.7620 C   0  0  0  0  0  3  0  0  0  0  0  0
  -21.2960   -4.8320   24.8630 C   0  0  0  0  0  0  0  0  0  0  0  0
  -21.9150   -4.1870   23.7780 C   0  0  0  0  0  3  0  0  0  0  0  0
  -22.1670   -4.8960   22.5910 C   0  0  0  0  0  0  0  0  0  0  0  0
  -22.7460   -4.2650   21.5410 F   0  0  0  0  0  0  0  0  0  0  0  0
  -21.0470   -4.1440   26.0020 F   0  0  0  0  0  0  0  0  0  0  0  0
  -23.1110  -13.5310   21.0900 C   0  0  0  0  0  0  0  0  0  0  0  0
  -22.4390  -12.8260   21.9930 N   0  0  0  0  0  0  0  0  0  0  0  0
  -22.6410  -14.5610   20.6060 O   0  0  0  0  0  0  0  0  0  0  0  0
  -22.8360  -11.9930   22.4040 H   0  0  0  0  0  0  0  0  0  0  0  0
  -21.5150  -13.1190   22.2790 H   0  0  0  0  0  0  0  0  0  0  0  0
  -25.6790  -15.2090   20.1540 N   0  0  0  0  0  0  0  0  0  0  0  0
  -24.8890  -15.8320   20.2790 H   0  0  0  0  0  0  0  0  0  0  0  0
  -26.4480  -15.6450   19.6660 H   0  0  0  0  0  0  0  0  0  0  0  0
  -29.3110  -23.8100   19.8270 C   0  0  0  0  0  3  0  0  0  0  0  0
  -28.2010  -24.9560   19.6080 C   0  0  0  0  0  3  0  0  0  0  0  0
  -28.4470  -26.4090   19.8940 O   0  0  0  0  0  0  0  0  0  0  0  0
  -24.7070  -31.6770   23.1980 C   0  0  0  0  0  0  0  0  0  0  0  0
  -27.3380  -27.2850   19.8910 C   0  0  0  0  0  0  0  0  0  0  0  0
  -23.5110  -30.3550   21.4930 C   0  0  0  0  0  3  0  0  0  0  0  0
  -24.9690  -28.9020   19.9780 C   0  0  0  0  0  0  0  0  0  0  0  0
  -26.0490  -30.7030   21.3150 C   0  0  0  0  0  2  0  0  0  0  0  0
  -26.1390  -29.3590   20.5950 C   0  0  0  0  0  0  0  0  0  0  0  0
  -27.3290  -28.5650   20.5380 C   0  0  0  0  0  3  0  0  0  0  0  0
  -26.1350  -26.8950   19.2540 C   0  0  0  0  0  3  0  0  0  0  0  0
  -24.9710  -27.6790   19.2970 C   0  0  0  0  0  3  0  0  0  0  0  0
  -23.7280  -29.7630   20.0770 C   0  0  0  0  0  2  0  0  0  0  0  0
  -24.7750  -30.9260   22.0600 N   0  0  0  0  0  0  0  0  0  0  0  0
  -23.6230  -31.9150   23.7510 O   0  0  0  0  0  0  0  0  0  0  0  0
  -22.8630  -29.2780   22.3990 C   0  0  0  0  0  0  0  0  0  0  0  0
  -21.5420  -29.0810   22.2550 N   0  0  0  0  0  0  0  0  0  0  0  0
  -23.5500  -28.6290   23.1910 O   0  0  0  0  0  0  0  0  0  0  0  0
  -21.0480  -29.6650   21.5960 H   0  0  0  0  0  0  0  0  0  0  0  0
  -18.1820  -27.8030   22.6750 C   0  0  0  0  0  0  0  0  0  0  0  0
  -20.7340  -28.0930   22.9750 C   0  0  0  0  0  3  0  0  0  0  0  0
  -20.8620  -26.6910   22.3330 C   0  0  0  0  0  2  0  0  0  0  0  0
  -19.7720  -26.3980   21.2980 C   0  0  0  0  0  2  0  0  0  0  0  0
  -18.3850  -26.4890   21.9400 C   0  0  0  0  0  2  0  0  0  0  0  0
  -19.2840  -28.5640   23.1470 C   0  0  0  0  0  0  0  0  0  0  0  0
  -19.0390  -29.7940   23.7930 C   0  0  0  0  0  3  0  0  0  0  0  0
  -17.7250  -30.2630   23.9750 C   0  0  0  0  0  3  0  0  0  0  0  0
  -16.6380  -29.4990   23.5180 C   0  0  0  0  0  3  0  0  0  0  0  0
  -16.8670  -28.2700   22.8750 C   0  0  0  0  0  3  0  0  0  0  0  0
  -25.9850  -32.2920   23.8470 C   0  0  0  0  0  3  0  0  0  0  0  0
  -26.4690  -31.5030   25.1250 C   0  0  1  0  0  0  0  0  0  0  0  0
  -25.3560  -31.2660   26.1710 C   0  0  0  0  0  1  0  0  0  0  0  0
  -27.0460  -30.1230   24.7300 C   0  0  0  0  0  1  0  0  0  0  0  0
  -27.6090  -32.2830   25.8200 C   0  0  0  0  0  1  0  0  0  0  0  0
  -25.6830  -33.6900   24.1840 N   0  0  0  0  0  0  0  0  0  0  0  0
  -26.0000  -34.7440   23.4190 C   0  0  0  0  0  0  0  0  0  0  0  0
  -26.6470  -34.6410   22.3750 O   0  0  0  0  0  0  0  0  0  0  0  0
  -25.1080  -33.8450   24.9990 H   0  0  0  0  0  0  0  0  0  0  0  0
  -24.2450  -36.5280   23.1290 C   0  0  0  0  0  1  0  0  0  0  0  0
  -25.5220  -36.1320   23.8880 C   0  0  0  0  0  3  0  0  0  0  0  0
  -27.6780  -37.0460   24.6330 C   0  0  0  0  0  1  0  0  0  0  0  0
  -26.5420  -37.1920   23.7270 N   0  0  0  0  0  0  0  0  0  0  0  0
  -26.1320  -38.1100   23.8790 H   0  0  0  0  0  0  0  0  0  0  0  0
  1  3  2  0
  2 52  1  0
  2  1  1  0
  4  2  1  0
  5 11  1  0
  5 12  2  0
  7 22  1  0
  7  5  1  0
  8  1  1  0
  8 10  1  0
  9  8  1  0
  9  6  1  0
  9  7  1  0
 10  6  1  0
 10 11  1  0
 11 13  1  0
 14 22  1  0
 15 20  1  0
 16 17  1  0
 16 15  1  0
 18 17  1  0
 18 27  1  0
 18 19  1  0
 20 14  1  0
 20 19  1  0
 21 14  2  0
 22 23  1  0
 24 25  2  0
 25 44  1  0
 26 25  1  0
 26 29  1  0
 27 28  1  0
 27 24  1  0
 28 26  2  0
 29 30  1  0
 30 31  2  0
 32 35  1  0
 32 31  1  0
 33 32  2  0
 34 33  1  0
 34 29  2  0
 35 36  1  0
 36 41  2  0
 36 37  1  0
 37 38  2  0
 38 39  1  0
 39 43  1  0
 40 39  2  0
 41 40  1  0
 42 41  1  0
 44 45  1  0
 45 48  1  0
 45 47  1  0
 46 44  2  0
 49 50  1  0
 49 24  1  0
 51 49  1  0
 53 52  2  0
 53 54  1  0
 55 66  2  0
 56 54  1  0
 56 61  1  0
 57 65  1  0
 57 67  1  0
 58 64  1  0
 58 60  1  0
 59 65  1  0
 60 59  1  0
 61 60  2  0
 62 63  1  0
 62 56  2  0
 63 58  2  0
 64 57  1  0
 65 55  1  0
 67 69  2  0
 68 67  1  0
 70 68  1  0
 71 80  2  0
 71 76  1  0
 72 68  1  0
 72 76  1  0
 73 72  1  0
 74 75  1  0
 74 73  1  0
 75 71  1  0
 76 77  2  0
 77 78  1  0
 79 78  2  0
 80 79  1  0
 81 55  1  0
 81 86  1  0
 81 82  1  0
 82 85  1  1
 82 83  1  0
 84 82  1  0
 86 89  1  0
 87 91  1  0
 87 86  1  0
 88 87  2  0
 91 90  1  0
 93 94  1  0
 93 91  1  0
 93 92  1  0
M  ISO  4  14 100  22 100  53 101  54 101
M  END
>  <TORSDO>  (17) 
F 19

>  <SCORE>  (17) 
-12.436

>  <name>  (17) 
16

>  <ligand_id>  (17) 
16

>  <original_smiles>  (17) 
[H]c1c([H])c([H])c2c(c1[H])C([H])([H])C([H])([H])C([H])([H])C2([H])N([H])C(=O)C1([H])N(C(=O)C([H])(N([H])C(=O)C([H])(N([H])C([H])([H])[H])C([H])([H])[H])C(C([H])([H])[H])(C([H])([H])[H])C([H])([H])[H])C([H])([H])c2c([H])c(OC([H])([H])C([H])([H])N([H])C(=O)C3([H])C4([H])N([H])C(=O)C([H])(N([H])C(=O)N5C([H])([H])C([H])([H])C([H])([H])C([H])(n6nc(-c7c([H])c([H])c(Oc8c([H])c([H])c(F)c([H])c8F)c([H])c7[H])c(C(=O)N([H])[H])c6N([H])[H])C5([H])[H])C3([H])C4([H])[H])c([H])c([H])c2C1([H])[H]

>  <smiles>  (17) 
[H]c1c([H])c([H])c2c(c1[H])C([H])([H])C([H])([H])C([H])([H])C2([H])N([H])C(=O)C1([H])N(C(=O)C([H])(N([H])C(=O)C([H])(N([H])C([H])([H])[H])C([H])([H])[H])C(C([H])([H])[H])(C([H])([H])[H])C([H])([H])[H])C([H])([H])c2c([H])c(OC([H])([H])C([H])([H])N([H])C(=O)C3([H])C4([H])N([H])C(=O)C([H])(N([H])C(=O)N5C([H])([H])C([H])([H])C([H])([H])C([H])(n6nc(-c7c([H])c([H])c(Oc8c([H])c([H])c(F)c([H])c8F)c([H])c7[H])c(C(=O)N([H])[H])c6N([H])[H])C5([H])[H])C3([H])C4([H])[H])c([H])c([H])c2C1([H])[H]

$$$$
17:0:0
     RDKit          3D

 95104  0  0  1  0  0  0  0  0999 V2000
  -28.2920  -18.9530   17.1560 C   0  0  0  0  0  2  0  0  0  0  0  0
  -26.1980  -19.9850   17.7080 C   0  0  0  0  0  2  0  0  0  0  0  0
  -27.6190  -20.3920   17.0960 C   0  0  0  0  0  3  0  0  0  0  0  0
  -27.5950  -18.0150   18.2540 C   0  0  0  0  0  3  0  0  0  0  0  0
  -26.3670  -18.7900   18.7240 C   0  0  0  0  0  3  0  0  0  0  0  0
  -27.9700  -17.8000   19.7740 C   0  0  0  0  0  3  0  0  0  0  0  0
  -27.0130  -18.9170   20.0510 N   0  0  0  0  0  4  0  0  0  0  0  0
  -26.2910  -18.6610   20.7450 H   0  0  0  0  0  0  0  0  0  0  0  0
  -27.2810  -19.8020   20.4270 H   0  0  0  0  0  0  0  0  0  0  0  0
  -28.4400  -21.5120   17.8130 C   0  0  0  0  0  0  0  0  0  0  0  0
  -27.9180  -22.3980   18.6420 N   0  0  0  0  0  0  0  0  0  0  0  0
  -29.6600  -21.5720   17.5070 O   0  0  0  0  0  0  0  0  0  0  0  0
  -26.9890  -22.1660   18.8960 H   0  0  0  0  0  0  0  0  0  0  0  0
  -28.6060  -23.6460   19.2720 C   0  0  0  0  0  3  0  0  0  0  0  0
  -27.7920  -24.8630   19.9960 C   0  0  0  0  0  3  0  0  0  0  0  0
  -28.3610  -26.3230   20.2780 O   0  0  0  0  0  0  0  0  0  0  0  0
  -24.7280  -32.0470   23.4350 C   0  0  0  0  0  0  0  0  0  0  0  0
  -27.4180  -27.3980   20.3150 C   0  0  0  0  0  0  0  0  0  0  0  0
  -23.6280  -30.6550   21.7640 C   0  0  0  0  0  3  0  0  0  0  0  0
  -25.1410  -29.1560   20.3450 C   0  0  0  0  0  0  0  0  0  0  0  0
  -26.1940  -30.9530   21.7200 C   0  0  0  0  0  2  0  0  0  0  0  0
  -26.3090  -29.5650   20.9950 C   0  0  0  0  0  0  0  0  0  0  0  0
  -27.4660  -28.6900   20.9720 C   0  0  0  0  0  3  0  0  0  0  0  0
  -26.2360  -27.1680   19.6050 C   0  0  0  0  0  3  0  0  0  0  0  0
  -25.1050  -27.9630   19.6550 C   0  0  0  0  0  3  0  0  0  0  0  0
  -23.9230  -30.0630   20.3650 C   0  0  0  0  0  2  0  0  0  0  0  0
  -24.8610  -31.2480   22.3460 N   0  0  0  0  0  0  0  0  0  0  0  0
  -23.6200  -32.3090   23.9180 O   0  0  0  0  0  0  0  0  0  0  0  0
  -22.9570  -29.5820   22.6430 C   0  0  0  0  0  0  0  0  0  0  0  0
  -21.6560  -29.3390   22.4210 N   0  0  0  0  0  0  0  0  0  0  0  0
  -23.5980  -28.9870   23.5080 O   0  0  0  0  0  0  0  0  0  0  0  0
  -21.1800  -29.8530   21.6950 H   0  0  0  0  0  0  0  0  0  0  0  0
  -18.2850  -28.0320   22.7350 C   0  0  0  0  0  0  0  0  0  0  0  0
  -20.8220  -28.3790   23.1510 C   0  0  0  0  0  3  0  0  0  0  0  0
  -21.0000  -26.9400   22.5950 C   0  0  0  0  0  2  0  0  0  0  0  0
  -19.9670  -26.5760   21.5260 C   0  0  0  0  0  2  0  0  0  0  0  0
  -18.5470  -26.6880   22.0840 C   0  0  0  0  0  2  0  0  0  0  0  0
  -19.3510  -28.8310   23.2310 C   0  0  0  0  0  0  0  0  0  0  0  0
  -19.0690  -30.0970   23.7920 C   0  0  0  0  0  3  0  0  0  0  0  0
  -17.7430  -30.5550   23.8830 C   0  0  0  0  0  3  0  0  0  0  0  0
  -16.6890  -29.7520   23.4140 C   0  0  0  0  0  3  0  0  0  0  0  0
  -16.9610  -28.4950   22.8480 C   0  0  0  0  0  3  0  0  0  0  0  0
  -25.9680  -32.6940   24.1010 C   0  0  0  0  0  3  0  0  0  0  0  0
  -26.3970  -31.9790   25.4370 C   0  0  1  0  0  0  0  0  0  0  0  0
  -25.2260  -31.7680   26.4220 C   0  0  0  0  0  1  0  0  0  0  0  0
  -27.0290  -30.5930   25.1710 C   0  0  0  0  0  1  0  0  0  0  0  0
  -27.4820  -32.8210   26.1530 C   0  0  0  0  0  1  0  0  0  0  0  0
  -25.6390  -34.1020   24.3550 N   0  0  0  0  0  0  0  0  0  0  0  0
  -25.9560  -35.1200   23.5420 C   0  0  0  0  0  0  0  0  0  0  0  0
  -26.6480  -34.9790   22.5280 O   0  0  0  0  0  0  0  0  0  0  0  0
  -25.0060  -34.2840   25.1230 H   0  0  0  0  0  0  0  0  0  0  0  0
  -24.1760  -36.8350   23.0950 C   0  0  0  0  0  1  0  0  0  0  0  0
  -25.4250  -36.5140   23.9270 C   0  0  0  0  0  3  0  0  0  0  0  0
  -27.5190  -37.4950   24.7420 C   0  0  0  0  0  1  0  0  0  0  0  0
  -26.4290  -37.5870   23.7740 N   0  0  0  0  0  0  0  0  0  0  0  0
  -25.9900  -38.4950   23.8770 H   0  0  0  0  0  0  0  0  0  0  0  0
  -29.3710  -17.6040   20.4040 C   0  0  0  0  0  2  0  0  0  0  0  0
  -30.6810  -15.2020   20.7480 C   0  0  0  0  0  0  0  0  0  0  0  0
  -30.9280  -12.8970   19.9880 C   0  0  0  0  0  2  0  0  0  0  0  0
  -30.0920  -12.6420   18.6910 C   0  0  0  0  0  2  0  0  0  0  0  0
  -28.5960  -12.4020   19.0700 C   0  0  0  0  0  2  0  0  0  0  0  0
  -28.0330  -13.5250   19.9490 C   0  0  0  0  0  3  0  0  0  0  0  0
  -28.9250  -13.5370   21.2120 C   0  0  0  0  0  2  0  0  0  0  0  0
  -30.2760  -13.9110   20.7940 N   0  0  0  0  0  0  0  0  0  0  0  0
  -31.9010  -15.5060   20.5560 O   0  0  0  0  0  0  0  0  0  0  0  0
  -29.6130  -16.1110   20.6850 N   0  0  0  0  0  0  0  0  0  0  0  0
  -28.7300  -15.6500   20.6590 H   0  0  0  0  0  0  0  0  0  0  0  0
  -25.6650  -14.1190   20.7290 C   0  0  0  0  0  0  0  0  0  0  0  0
  -24.5720  -13.3140   21.0080 C   0  0  0  0  0  0  0  0  0  0  0  0
  -25.0910  -11.9690   20.9660 C   0  0  0  0  0  0  0  0  0  0  0  0
  -26.6900  -13.2780   20.3940 N   0  0  0  0  0  0  0  0  0  0  0  0
  -26.3330  -11.9470   20.5660 N   0  0  0  0  0  0  0  0  0  0  0  0
  -24.4250  -10.6660   21.1300 C   0  0  0  0  0  0  0  0  0  0  0  0
  -24.7710   -9.6950   22.1270 C   0  0  0  0  0  3  0  0  0  0  0  0
  -24.0640   -8.4990   22.2220 C   0  0  0  0  0  3  0  0  0  0  0  0
  -22.9870   -8.2350   21.3390 C   0  0  0  0  0  0  0  0  0  0  0  0
  -22.6160   -9.1990   20.3880 C   0  0  0  0  0  3  0  0  0  0  0  0
  -23.3370  -10.3950   20.3170 C   0  0  0  0  0  3  0  0  0  0  0  0
  -22.2490   -7.0890   21.3260 O   0  0  0  0  0  0  0  0  0  0  0  0
  -21.9690   -6.4470   22.4640 C   0  0  0  0  0  0  0  0  0  0  0  0
  -21.2670   -7.0510   23.5380 C   0  0  0  0  0  3  0  0  0  0  0  0
  -20.9460   -6.2760   24.6620 C   0  0  0  0  0  3  0  0  0  0  0  0
  -21.3640   -4.9350   24.7290 C   0  0  0  0  0  0  0  0  0  0  0  0
  -22.0520   -4.3440   23.6570 C   0  0  0  0  0  3  0  0  0  0  0  0
  -22.3470   -5.0950   22.5230 C   0  0  0  0  0  0  0  0  0  0  0  0
  -23.0190   -4.5410   21.4820 F   0  0  0  0  0  0  0  0  0  0  0  0
  -21.0430   -4.1850   25.8120 F   0  0  0  0  0  0  0  0  0  0  0  0
  -23.1490  -13.7830   21.1740 C   0  0  0  0  0  0  0  0  0  0  0  0
  -22.3470  -13.0660   21.9580 N   0  0  0  0  0  0  0  0  0  0  0  0
  -22.7210  -14.8100   20.6210 O   0  0  0  0  0  0  0  0  0  0  0  0
  -22.5930  -12.2530   22.5010 H   0  0  0  0  0  0  0  0  0  0  0  0
  -21.4300  -13.4280   22.0690 H   0  0  0  0  0  0  0  0  0  0  0  0
  -25.7500  -15.4960   20.7010 N   0  0  0  0  0  0  0  0  0  0  0  0
  -24.8770  -15.9390   20.9110 H   0  0  0  0  0  0  0  0  0  0  0  0
  -26.5390  -15.8510   21.2690 H   0  0  0  0  0  0  0  0  0  0  0  0
  3  1  1  0
  3  2  1  0
  3 10  1  0
  4  1  1  0
  4  5  1  0
  4  6  1  0
  5  2  1  0
  5  7  1  0
  6  7  1  0
  6 57  1  0
  7  9  1  0
  7  8  1  0
 10 11  1  0
 11 13  1  0
 11 14  1  0
 12 10  2  0
 14 15  2  0
 15 16  1  0
 16 18  1  0
 17 28  2  0
 18 23  1  0
 19 27  1  0
 19 29  1  0
 20 26  1  0
 20 22  1  0
 21 27  1  0
 22 21  1  0
 23 22  2  0
 24 25  1  0
 24 18  2  0
 25 20  2  0
 26 19  1  0
 27 17  1  0
 29 31  2  0
 30 29  1  0
 32 30  1  0
 33 42  2  0
 33 38  1  0
 34 30  1  0
 34 38  1  0
 35 34  1  0
 36 37  1  0
 36 35  1  0
 37 33  1  0
 38 39  2  0
 39 40  1  0
 41 40  2  0
 42 41  1  0
 43 17  1  0
 43 48  1  0
 43 44  1  0
 44 47  1  1
 44 45  1  0
 46 44  1  0
 48 51  1  0
 49 53  1  0
 49 48  1  0
 50 49  2  0
 53 52  1  0
 55 56  1  0
 55 53  1  0
 55 54  1  0
 57 66  1  0
 58 64  1  0
 59 64  1  0
 60 61  1  0
 60 59  1  0
 62 61  1  0
 62 71  1  0
 62 63  1  0
 64 63  1  0
 65 58  2  0
 66 58  1  0
 67 66  1  0
 68 69  2  0
 69 88  1  0
 70 69  1  0
 70 73  1  0
 71 72  1  0
 71 68  1  0
 72 70  2  0
 73 74  1  0
 74 75  2  0
 76 75  1  0
 77 76  2  0
 78 77  1  0
 78 73  2  0
 79 76  1  0
 79 80  1  0
 80 85  2  0
 80 81  1  0
 81 82  2  0
 82 83  1  0
 83 87  1  0
 84 83  2  0
 85 84  1  0
 86 85  1  0
 88 89  1  0
 89 92  1  0
 89 91  1  0
 90 88  2  0
 93 68  1  0
 93 94  1  0
 93 95  1  0
M  ISO  4  15 101  16 101  58 100  66 100
M  END
>  <TORSDO>  (18) 
F 20

>  <SCORE>  (18) 
-12.780

>  <name>  (18) 
17

>  <ligand_id>  (18) 
17

>  <original_smiles>  (18) 
[H]c1c([H])c([H])c2c(c1[H])C([H])([H])C([H])([H])C([H])([H])C2([H])N([H])C(=O)C1([H])N(C(=O)C([H])(N([H])C(=O)C([H])(N([H])C([H])([H])[H])C([H])([H])[H])C(C([H])([H])[H])(C([H])([H])[H])C([H])([H])[H])C([H])([H])c2c([H])c(OC([H])([H])C([H])([H])N([H])C(=O)C3([H])C([H])([H])C4([H])C([H])(C([H])([H])N([H])C(=O)N5C([H])([H])C([H])([H])C([H])([H])C([H])(n6nc(-c7c([H])c([H])c(Oc8c([H])c([H])c(F)c([H])c8F)c([H])c7[H])c(C(=O)N([H])[H])c6N([H])[H])C5([H])[H])[N+]([H])([H])C4([H])C3([H])[H])c([H])c([H])c2C1([H])[H]

>  <smiles>  (18) 
[H]c1c([H])c([H])c2c(c1[H])C([H])([H])C([H])([H])C([H])([H])C2([H])N([H])C(=O)C1([H])N(C(=O)C([H])(N([H])C(=O)C([H])(N([H])C([H])([H])[H])C([H])([H])[H])C(C([H])([H])[H])(C([H])([H])[H])C([H])([H])[H])C([H])([H])c2c([H])c(OC([H])([H])C([H])([H])N([H])C(=O)C3([H])C([H])([H])C4([H])C([H])(C([H])([H])N([H])C(=O)N5C([H])([H])C([H])([H])C([H])([H])C([H])(n6nc(-c7c([H])c([H])c(Oc8c([H])c([H])c(F)c([H])c8F)c([H])c7[H])c(C(=O)N([H])[H])c6N([H])[H])C5([H])[H])[N+]([H])([H])C4([H])C3([H])[H])c([H])c([H])c2C1([H])[H]

$$$$
18:0:0
     RDKit          3D

 92101  0  0  1  0  0  0  0  0999 V2000
  -28.9100  -18.3730   19.9680 C   0  0  0  0  0  3  0  0  0  0  0  0
  -27.5600  -19.0670   20.0770 C   0  0  0  0  0  2  0  0  0  0  0  0
  -27.9070  -21.7340   20.6390 C   0  0  0  0  0  2  0  0  0  0  0  0
  -29.5430  -19.8450   20.1580 C   0  0  0  0  0  3  0  0  0  0  0  0
  -28.2400  -20.2350   20.8650 C   0  0  0  0  0  3  0  0  0  0  0  0
  -28.7180  -22.1920   19.4070 C   0  0  0  0  0  3  0  0  0  0  0  0
  -29.1490  -17.0470   19.9340 N   0  0  0  0  0  2  0  0  0  0  0  0
  -29.6050  -20.9670   19.0940 N   0  0  0  0  0  4  0  0  0  0  0  0
  -29.3070  -20.5840   18.2060 H   0  0  0  0  0  0  0  0  0  0  0  0
  -30.5600  -21.2670   18.9730 H   0  0  0  0  0  0  0  0  0  0  0  0
  -30.8620  -15.0280   20.0370 C   0  0  0  0  0  0  0  0  0  0  0  0
  -30.5910  -12.6870   19.1740 C   0  0  0  0  0  2  0  0  0  0  0  0
  -29.6440  -12.5860   17.9650 C   0  0  0  0  0  2  0  0  0  0  0  0
  -28.1820  -12.4380   18.4290 C   0  0  0  0  0  2  0  0  0  0  0  0
  -27.8090  -13.4410   19.5470 C   0  0  0  0  0  3  0  0  0  0  0  0
  -28.8740  -13.5270   20.6570 C   0  0  0  0  0  2  0  0  0  0  0  0
  -30.1410  -13.8460   19.9970 N   0  0  0  0  0  0  0  0  0  0  0  0
  -32.0560  -14.9630   19.7370 O   0  0  0  0  0  0  0  0  0  0  0  0
  -30.3570  -16.3320   20.2440 N   0  0  0  0  0  0  0  0  0  0  0  0
  -31.1030  -16.9760   20.4390 H   0  0  0  0  0  0  0  0  0  0  0  0
  -25.4840  -14.0770   20.4060 C   0  0  0  0  0  0  0  0  0  0  0  0
  -24.4060  -13.3250   20.7720 C   0  0  0  0  0  0  0  0  0  0  0  0
  -24.8210  -11.9600   20.6800 C   0  0  0  0  0  0  0  0  0  0  0  0
  -26.4850  -13.1740   20.0900 N   0  0  0  0  0  0  0  0  0  0  0  0
  -26.0990  -11.8920   20.3320 N   0  0  0  0  0  0  0  0  0  0  0  0
  -24.0530  -10.7230   20.8540 C   0  0  0  0  0  0  0  0  0  0  0  0
  -24.4500   -9.7280   21.7740 C   0  0  0  0  0  3  0  0  0  0  0  0
  -23.6760   -8.5560   21.9340 C   0  0  0  0  0  3  0  0  0  0  0  0
  -22.5050   -8.3710   21.1630 C   0  0  0  0  0  0  0  0  0  0  0  0
  -22.1330   -9.3530   20.2260 C   0  0  0  0  0  3  0  0  0  0  0  0
  -22.9010  -10.5200   20.0700 C   0  0  0  0  0  3  0  0  0  0  0  0
  -21.7060   -7.2530   21.2370 O   0  0  0  0  0  0  0  0  0  0  0  0
  -21.5920   -6.5190   22.3920 C   0  0  0  0  0  0  0  0  0  0  0  0
  -21.0670   -7.0710   23.5800 C   0  0  0  0  0  3  0  0  0  0  0  0
  -20.8910   -6.2590   24.7200 C   0  0  0  0  0  3  0  0  0  0  0  0
  -21.2440   -4.8950   24.6730 C   0  0  0  0  0  0  0  0  0  0  0  0
  -21.7720   -4.3440   23.4940 C   0  0  0  0  0  3  0  0  0  0  0  0
  -21.9430   -5.1530   22.3550 C   0  0  0  0  0  0  0  0  0  0  0  0
  -22.4240   -4.6100   21.2110 F   0  0  0  0  0  0  0  0  0  0  0  0
  -21.0760   -4.1100   25.7630 F   0  0  0  0  0  0  0  0  0  0  0  0
  -23.0320  -13.8350   21.1000 C   0  0  0  0  0  0  0  0  0  0  0  0
  -22.3290  -13.1430   21.9830 N   0  0  0  0  0  0  0  0  0  0  0  0
  -22.6000  -14.8770   20.6070 O   0  0  0  0  0  0  0  0  0  0  0  0
  -22.7000  -12.2920   22.3800 H   0  0  0  0  0  0  0  0  0  0  0  0
  -21.4030  -13.4490   22.2570 H   0  0  0  0  0  0  0  0  0  0  0  0
  -25.7000  -15.4490   20.2870 N   0  0  0  0  0  0  0  0  0  0  0  0
  -24.9800  -16.1330   20.4930 H   0  0  0  0  0  0  0  0  0  0  0  0
  -26.5810  -15.8600   20.0060 H   0  0  0  0  0  0  0  0  0  0  0  0
  -30.7690  -23.9520   19.5780 C   0  0  0  0  0  1  0  0  0  0  0  0
  -29.2450  -23.7760   19.2980 C   0  0  0  0  0  3  0  0  0  0  0  0
  -28.3510  -24.9870   19.9880 C   0  0  0  0  0  2  0  0  0  0  0  0
  -28.4700  -26.4870   19.7140 O   0  0  0  0  0  0  0  0  0  0  0  0
  -24.5520  -31.7350   23.0860 C   0  0  0  0  0  0  0  0  0  0  0  0
  -27.3300  -27.3460   19.7930 C   0  0  0  0  0  0  0  0  0  0  0  0
  -23.4000  -30.3630   21.3880 C   0  0  0  0  0  3  0  0  0  0  0  0
  -24.9050  -28.9190   19.8990 C   0  0  0  0  0  0  0  0  0  0  0  0
  -25.9350  -30.7620   21.2220 C   0  0  0  0  0  2  0  0  0  0  0  0
  -26.0700  -29.4060   20.5110 C   0  0  0  0  0  0  0  0  0  0  0  0
  -27.2840  -28.6360   20.4440 C   0  0  0  0  0  3  0  0  0  0  0  0
  -26.1360  -26.9390   19.1600 C   0  0  0  0  0  3  0  0  0  0  0  0
  -24.9450  -27.6880   19.2260 C   0  0  0  0  0  3  0  0  0  0  0  0
  -23.6450  -29.7590   19.9830 C   0  0  0  0  0  2  0  0  0  0  0  0
  -24.6470  -30.9710   21.9570 N   0  0  0  0  0  0  0  0  0  0  0  0
  -23.4580  -31.9470   23.6280 O   0  0  0  0  0  0  0  0  0  0  0  0
  -22.7740  -29.2820   22.3000 C   0  0  0  0  0  0  0  0  0  0  0  0
  -21.4530  -29.0710   22.1770 N   0  0  0  0  0  0  0  0  0  0  0  0
  -23.4770  -28.6400   23.0860 O   0  0  0  0  0  0  0  0  0  0  0  0
  -20.9410  -29.6470   21.5240 H   0  0  0  0  0  0  0  0  0  0  0  0
  -18.1120  -27.7690   22.6860 C   0  0  0  0  0  0  0  0  0  0  0  0
  -20.6700  -28.0680   22.9060 C   0  0  0  0  0  3  0  0  0  0  0  0
  -20.7860  -26.6760   22.2410 C   0  0  0  0  0  2  0  0  0  0  0  0
  -19.6660  -26.3930   21.2360 C   0  0  0  0  0  2  0  0  0  0  0  0
  -18.2970  -26.4690   21.9220 C   0  0  0  0  0  2  0  0  0  0  0  0
  -19.2260  -28.5280   23.1320 C   0  0  0  0  0  0  0  0  0  0  0  0
  -18.9940  -29.7450   23.8070 C   0  0  0  0  0  3  0  0  0  0  0  0
  -17.6840  -30.2070   24.0330 C   0  0  0  0  0  3  0  0  0  0  0  0
  -16.5860  -29.4440   23.5990 C   0  0  0  0  0  3  0  0  0  0  0  0
  -16.8000  -28.2250   22.9310 C   0  0  0  0  0  3  0  0  0  0  0  0
  -25.8060  -32.3930   23.7380 C   0  0  0  0  0  3  0  0  0  0  0  0
  -25.4500  -33.7730   24.0970 N   0  0  0  0  0  0  0  0  0  0  0  0
  -25.7340  -34.8500   23.3540 C   0  0  0  0  0  0  0  0  0  0  0  0
  -26.3870  -34.7870   22.3090 O   0  0  0  0  0  0  0  0  0  0  0  0
  -24.8690  -33.8960   24.9140 H   0  0  0  0  0  0  0  0  0  0  0  0
  -23.9430  -36.5920   23.0620 C   0  0  0  0  0  1  0  0  0  0  0  0
  -25.2110  -36.2140   23.8460 C   0  0  0  0  0  3  0  0  0  0  0  0
  -27.3160  -37.1640   24.6820 C   0  0  0  0  0  1  0  0  0  0  0  0
  -26.2080  -37.3020   23.7390 N   0  0  0  0  0  0  0  0  0  0  0  0
  -25.7740  -38.2080   23.8940 H   0  0  0  0  0  0  0  0  0  0  0  0
  -26.3280  -31.6100   25.0020 C   0  0  1  0  0  0  0  0  0  0  0  0
  -25.2300  -31.3120   26.0520 C   0  0  0  0  0  1  0  0  0  0  0  0
  -26.9600  -30.2610   24.5880 C   0  0  0  0  0  1  0  0  0  0  0  0
  -27.4470  -32.4230   25.6950 C   0  0  0  0  0  1  0  0  0  0  0  0
  1  7  1  0
  1  2  1  0
  1  4  1  0
  3  5  1  0
  4  8  1  0
  4  5  1  0
  5  2  1  0
  6 50  1  0
  6  3  1  0
  7 19  1  0
  8  6  1  0
  9  8  1  0
 10  8  1  0
 11 19  1  0
 12 17  1  0
 13 14  1  0
 13 12  1  0
 15 14  1  0
 15 24  1  0
 15 16  1  0
 17 11  1  0
 17 16  1  0
 18 11  2  0
 19 20  1  0
 21 22  2  0
 22 41  1  0
 23 22  1  0
 23 26  1  0
 24 25  1  0
 24 21  1  0
 25 23  2  0
 26 27  1  0
 27 28  2  0
 29 32  1  0
 29 28  1  0
 30 29  2  0
 31 30  1  0
 31 26  2  0
 32 33  1  0
 33 34  1  0
 34 35  2  0
 36 35  1  0
 36 40  1  0
 37 36  2  0
 38 33  2  0
 38 37  1  0
 39 38  1  0
 41 42  1  0
 42 45  1  0
 42 44  1  0
 43 41  2  0
 46 21  1  0
 46 47  1  0
 48 46  1  0
 50 49  1  0
 50 51  1  0
 52 54  1  0
 52 51  1  0
 53 64  2  0
 54 59  1  0
 55 63  1  0
 55 65  1  0
 56 62  1  0
 56 58  1  0
 57 63  1  0
 58 57  1  0
 59 58  2  0
 60 61  1  0
 60 54  2  0
 61 56  2  0
 62 55  1  0
 63 53  1  0
 65 67  2  0
 66 65  1  0
 68 66  1  0
 69 78  2  0
 69 74  1  0
 70 66  1  0
 70 74  1  0
 71 70  1  0
 72 73  1  0
 72 71  1  0
 73 69  1  0
 74 75  2  0
 75 76  1  0
 77 76  2  0
 78 77  1  0
 79 53  1  0
 79 80  1  0
 79 89  1  0
 80 83  1  0
 81 85  1  0
 81 80  1  0
 82 81  2  0
 85 84  1  0
 87 85  1  0
 87 88  1  0
 87 86  1  0
 89 92  1  1
 89 90  1  0
 91 89  1  0
M  ISO  4  11 100  19 100  51 101  52 101
M  END
>  <TORSDO>  (19) 
F 18

>  <SCORE>  (19) 
-13.945

>  <name>  (19) 
18

>  <ligand_id>  (19) 
18

>  <original_smiles>  (19) 
[H]c1c([H])c([H])c2c(c1[H])C([H])([H])C([H])([H])C([H])([H])C2([H])N([H])C(=O)C1([H])N(C(=O)C([H])(N([H])C(=O)C([H])(N([H])C([H])([H])[H])C([H])([H])[H])C(C([H])([H])[H])(C([H])([H])[H])C([H])([H])[H])C([H])([H])c2c([H])c(OC([H])([H])C([H])(C([H])([H])[H])C3([H])C([H])([H])C4([H])C([H])([H])C(=NN([H])C(=O)N5C([H])([H])C([H])([H])C([H])([H])C([H])(n6nc(-c7c([H])c([H])c(Oc8c([H])c([H])c(F)c([H])c8F)c([H])c7[H])c(C(=O)N([H])[H])c6N([H])[H])C5([H])[H])C4([H])[N+]3([H])[H])c([H])c([H])c2C1([H])[H]

>  <smiles>  (19) 
[H]c1c([H])c([H])c2c(c1[H])C([H])([H])C([H])([H])C([H])([H])C2([H])N([H])C(=O)C1([H])N(C(=O)C([H])(N([H])C(=O)C([H])(N([H])C([H])([H])[H])C([H])([H])[H])C(C([H])([H])[H])(C([H])([H])[H])C([H])([H])[H])C([H])([H])c2c([H])c(OC([H])([H])C([H])(C([H])([H])[H])C3([H])C([H])([H])C4([H])C([H])([H])C(=NN([H])C(=O)N5C([H])([H])C([H])([H])C([H])([H])C([H])(n6nc(-c7c([H])c([H])c(Oc8c([H])c([H])c(F)c([H])c8F)c([H])c7[H])c(C(=O)N([H])[H])c6N([H])[H])C5([H])[H])C4([H])[N+]3([H])[H])c([H])c([H])c2C1([H])[H]

$$$$
19:0:0
     RDKit          3D

 92101  0  0  1  0  0  0  0  0999 V2000
  -29.7160  -21.6060   20.5350 C   0  0  0  0  0  0  0  0  0  0  0  0
  -28.9010  -22.6980   20.5390 N   0  0  0  0  0  0  0  0  0  0  0  0
  -30.9410  -21.7290   20.4720 O   0  0  0  0  0  0  0  0  0  0  0  0
  -27.9090  -22.5060   20.5790 H   0  0  0  0  0  0  0  0  0  0  0  0
  -30.6770  -14.6550   20.0760 C   0  0  0  0  0  0  0  0  0  0  0  0
  -30.3260  -12.4840   18.9290 C   0  0  0  0  0  2  0  0  0  0  0  0
  -29.3130  -12.6690   17.7790 C   0  0  0  0  0  2  0  0  0  0  0  0
  -27.8700  -12.5030   18.2960 C   0  0  0  0  0  2  0  0  0  0  0  0
  -27.5960  -13.3250   19.5830 C   0  0  0  0  0  3  0  0  0  0  0  0
  -28.7220  -13.1410   20.6250 C   0  0  0  0  0  2  0  0  0  0  0  0
  -29.9930  -13.4730   19.9710 N   0  0  0  0  0  0  0  0  0  0  0  0
  -31.8230  -14.7720   19.6300 O   0  0  0  0  0  0  0  0  0  0  0  0
  -29.7850  -19.2260   21.7040 C   0  0  0  0  0  2  0  0  0  0  0  0
  -29.1080  -19.2990   19.3660 C   0  0  0  0  0  2  0  0  0  0  0  0
  -30.6220  -16.6900   21.5270 C   0  0  0  0  0  2  0  0  0  0  0  0
  -29.2410  -16.6340   19.6470 C   0  0  0  0  0  2  0  0  0  0  0  0
  -29.0980  -20.1620   20.6630 C   0  0  0  0  0  3  0  0  0  0  0  0
  -30.6010  -18.1390   20.9500 C   0  0  0  0  0  3  0  0  0  0  0  0
  -29.9550  -18.0110   19.5940 C   0  0  0  0  0  3  0  0  0  0  0  0
  -30.0050  -15.7510   20.5580 N   0  0  0  0  0  0  0  0  0  0  0  0
  -25.2540  -13.9040   20.4680 C   0  0  0  0  0  0  0  0  0  0  0  0
  -24.2080  -13.1200   20.8760 C   0  0  0  0  0  0  0  0  0  0  0  0
  -24.6650  -11.7690   20.7750 C   0  0  0  0  0  0  0  0  0  0  0  0
  -26.2800  -13.0300   20.1430 N   0  0  0  0  0  0  0  0  0  0  0  0
  -25.9350  -11.7400   20.3890 N   0  0  0  0  0  0  0  0  0  0  0  0
  -23.9490  -10.5030   20.9690 C   0  0  0  0  0  0  0  0  0  0  0  0
  -24.4010   -9.5310   21.8890 C   0  0  0  0  0  3  0  0  0  0  0  0
  -23.6830   -8.3280   22.0710 C   0  0  0  0  0  3  0  0  0  0  0  0
  -22.5000   -8.0890   21.3330 C   0  0  0  0  0  0  0  0  0  0  0  0
  -22.0660   -9.0500   20.4010 C   0  0  0  0  0  3  0  0  0  0  0  0
  -22.7850  -10.2430   20.2180 C   0  0  0  0  0  3  0  0  0  0  0  0
  -21.7530   -6.9400   21.4240 O   0  0  0  0  0  0  0  0  0  0  0  0
  -21.6800   -6.2210   22.5900 C   0  0  0  0  0  0  0  0  0  0  0  0
  -21.1950   -6.7890   23.7870 C   0  0  0  0  0  3  0  0  0  0  0  0
  -21.0710   -5.9930   24.9440 C   0  0  0  0  0  3  0  0  0  0  0  0
  -21.4230   -4.6320   24.9040 C   0  0  0  0  0  0  0  0  0  0  0  0
  -21.9030   -4.0630   23.7110 C   0  0  0  0  0  3  0  0  0  0  0  0
  -22.0270   -4.8550   22.5560 C   0  0  0  0  0  0  0  0  0  0  0  0
  -22.4700   -4.2970   21.4040 F   0  0  0  0  0  0  0  0  0  0  0  0
  -21.2980   -3.8650   26.0140 F   0  0  0  0  0  0  0  0  0  0  0  0
  -22.8300  -13.5900   21.2430 C   0  0  0  0  0  0  0  0  0  0  0  0
  -22.1520  -12.8670   22.1270 N   0  0  0  0  0  0  0  0  0  0  0  0
  -22.3670  -14.6330   20.7860 O   0  0  0  0  0  0  0  0  0  0  0  0
  -22.5410  -12.0240   22.5220 H   0  0  0  0  0  0  0  0  0  0  0  0
  -21.2290  -13.1620   22.4140 H   0  0  0  0  0  0  0  0  0  0  0  0
  -25.4110  -15.2790   20.3230 N   0  0  0  0  0  0  0  0  0  0  0  0
  -24.6570  -15.9320   20.5080 H   0  0  0  0  0  0  0  0  0  0  0  0
  -26.2480  -15.7270   19.9770 H   0  0  0  0  0  0  0  0  0  0  0  0
  -29.2800  -24.1480   20.6250 C   0  0  0  0  0  2  0  0  0  0  0  0
  -28.5320  -24.9900   18.3420 C   0  0  0  0  0  1  0  0  0  0  0  0
  -28.3180  -25.1400   19.8600 C   0  0  0  0  0  3  0  0  0  0  0  0
  -28.4210  -26.5710   20.2100 O   0  0  0  0  0  0  0  0  0  0  0  0
  -24.6270  -31.8910   23.2370 C   0  0  0  0  0  0  0  0  0  0  0  0
  -27.2750  -27.3800   20.1600 C   0  0  0  0  0  0  0  0  0  0  0  0
  -23.4310  -30.4880   21.5950 C   0  0  0  0  0  3  0  0  0  0  0  0
  -24.8910  -28.9590   20.1660 C   0  0  0  0  0  0  0  0  0  0  0  0
  -25.9680  -30.8320   21.4100 C   0  0  0  0  0  2  0  0  0  0  0  0
  -26.0550  -29.4590   20.7590 C   0  0  0  0  0  0  0  0  0  0  0  0
  -27.2490  -28.6800   20.7490 C   0  0  0  0  0  3  0  0  0  0  0  0
  -26.0780  -26.9310   19.5500 C   0  0  0  0  0  3  0  0  0  0  0  0
  -24.9020  -27.6980   19.5550 C   0  0  0  0  0  3  0  0  0  0  0  0
  -23.6480  -29.8210   20.2130 C   0  0  0  0  0  2  0  0  0  0  0  0
  -24.6940  -31.0870   22.1370 N   0  0  0  0  0  0  0  0  0  0  0  0
  -23.5430  -32.1600   23.7730 O   0  0  0  0  0  0  0  0  0  0  0  0
  -22.7800  -29.4620   22.5520 C   0  0  0  0  0  0  0  0  0  0  0  0
  -21.4550  -29.2780   22.4280 N   0  0  0  0  0  0  0  0  0  0  0  0
  -23.4650  -28.8350   23.3650 O   0  0  0  0  0  0  0  0  0  0  0  0
  -20.9620  -29.8370   21.7460 H   0  0  0  0  0  0  0  0  0  0  0  0
  -18.0800  -28.0820   22.9430 C   0  0  0  0  0  0  0  0  0  0  0  0
  -20.6400  -28.3360   23.1980 C   0  0  0  0  0  3  0  0  0  0  0  0
  -20.7360  -26.9080   22.6120 C   0  0  0  0  0  2  0  0  0  0  0  0
  -19.6260  -26.5930   21.6040 C   0  0  0  0  0  2  0  0  0  0  0  0
  -18.2490  -26.7360   22.2590 C   0  0  0  0  0  2  0  0  0  0  0  0
  -19.2030  -28.8390   23.3700 C   0  0  0  0  0  0  0  0  0  0  0  0
  -18.9890  -30.1000   23.9710 C   0  0  0  0  0  3  0  0  0  0  0  0
  -17.6860  -30.6010   24.1490 C   0  0  0  0  0  3  0  0  0  0  0  0
  -16.5780  -29.8400   23.7370 C   0  0  0  0  0  3  0  0  0  0  0  0
  -16.7760  -28.5820   23.1410 C   0  0  0  0  0  3  0  0  0  0  0  0
  -25.9070  -32.5310   23.8580 C   0  0  0  0  0  3  0  0  0  0  0  0
  -25.5880  -33.9260   24.1910 N   0  0  0  0  0  0  0  0  0  0  0  0
  -25.9050  -34.9820   23.4290 C   0  0  0  0  0  0  0  0  0  0  0  0
  -26.5670  -34.8840   22.3920 O   0  0  0  0  0  0  0  0  0  0  0  0
  -24.9980  -34.0750   24.9970 H   0  0  0  0  0  0  0  0  0  0  0  0
  -24.1590  -36.7600   23.0850 C   0  0  0  0  0  1  0  0  0  0  0  0
  -25.4090  -36.3660   23.8900 C   0  0  0  0  0  3  0  0  0  0  0  0
  -27.5390  -37.2700   24.7120 C   0  0  0  0  0  1  0  0  0  0  0  0
  -26.4320  -37.4270   23.7700 N   0  0  0  0  0  0  0  0  0  0  0  0
  -26.0190  -38.3440   23.9180 H   0  0  0  0  0  0  0  0  0  0  0  0
  -26.4290  -31.7610   25.1330 C   0  0  1  0  0  0  0  0  0  0  0  0
  -25.3370  -31.5110   26.1990 C   0  0  0  0  0  1  0  0  0  0  0  0
  -27.0260  -30.3900   24.7380 C   0  0  0  0  0  1  0  0  0  0  0  0
  -27.5720  -32.5650   25.7960 C   0  0  0  0  0  1  0  0  0  0  0  0
  1  2  1  0
  2  4  1  0
  2 49  1  0
  3  1  2  0
  5 20  1  0
  6 11  1  0
  7  8  1  0
  7  6  1  0
  9  8  1  0
  9 24  1  0
  9 10  1  0
 11  5  1  0
 11 10  1  0
 12  5  2  0
 14 17  1  0
 16 20  1  0
 17  1  1  0
 17 13  1  0
 18 15  1  0
 18 13  1  0
 19 14  1  0
 19 16  1  0
 19 18  1  0
 20 15  1  0
 21 22  2  0
 22 41  1  0
 23 22  1  0
 23 26  1  0
 24 25  1  0
 24 21  1  0
 25 23  2  0
 26 27  1  0
 27 28  2  0
 29 32  1  0
 29 28  1  0
 30 29  2  0
 31 30  1  0
 31 26  2  0
 32 33  1  0
 33 34  1  0
 34 35  2  0
 36 35  1  0
 36 40  1  0
 37 36  2  0
 38 33  2  0
 38 37  1  0
 39 38  1  0
 41 42  1  0
 42 45  1  0
 42 44  1  0
 43 41  2  0
 46 21  1  0
 46 47  1  0
 48 46  1  0
 51 50  1  0
 51 52  1  0
 51 49  1  0
 53 64  2  0
 54 52  1  0
 54 59  1  0
 55 63  1  0
 55 65  1  0
 56 62  1  0
 56 58  1  0
 57 63  1  0
 58 57  1  0
 59 58  2  0
 60 61  1  0
 60 54  2  0
 61 56  2  0
 62 55  1  0
 63 53  1  0
 65 67  2  0
 66 65  1  0
 68 66  1  0
 69 78  2  0
 69 74  1  0
 70 66  1  0
 70 74  1  0
 71 70  1  0
 72 73  1  0
 72 71  1  0
 73 69  1  0
 74 75  2  0
 75 76  1  0
 77 76  2  0
 78 77  1  0
 79 53  1  0
 79 80  1  0
 79 89  1  0
 80 83  1  0
 81 85  1  0
 81 80  1  0
 82 81  2  0
 85 84  1  0
 87 85  1  0
 87 88  1  0
 87 86  1  0
 89 92  1  1
 89 90  1  0
 91 89  1  0
M  ISO  4   5 100  20 100  51 101  52 101
M  END
>  <TORSDO>  (20) 
F 18

>  <SCORE>  (20) 
-14.371

>  <name>  (20) 
19

>  <ligand_id>  (20) 
19

>  <original_smiles>  (20) 
[H]c1c([H])c([H])c2c(c1[H])C([H])([H])C([H])([H])C([H])([H])C2([H])N([H])C(=O)C1([H])N(C(=O)C([H])(N([H])C(=O)C([H])(N([H])C([H])([H])[H])C([H])([H])[H])C(C([H])([H])[H])(C([H])([H])[H])C([H])([H])[H])C([H])([H])c2c([H])c(OC([H])(C([H])([H])[H])C([H])([H])N([H])C(=O)C3([H])C([H])([H])C4([H])C([H])([H])N(C(=O)N5C([H])([H])C([H])([H])C([H])([H])C([H])(n6nc(-c7c([H])c([H])c(Oc8c([H])c([H])c(F)c([H])c8F)c([H])c7[H])c(C(=O)N([H])[H])c6N([H])[H])C5([H])[H])C([H])([H])C4([H])C3([H])[H])c([H])c([H])c2C1([H])[H]

>  <smiles>  (20) 
[H]c1c([H])c([H])c2c(c1[H])C([H])([H])C([H])([H])C([H])([H])C2([H])N([H])C(=O)C1([H])N(C(=O)C([H])(N([H])C(=O)C([H])(N([H])C([H])([H])[H])C([H])([H])[H])C(C([H])([H])[H])(C([H])([H])[H])C([H])([H])[H])C([H])([H])c2c([H])c(OC([H])(C([H])([H])[H])C([H])([H])N([H])C(=O)C3([H])C([H])([H])C4([H])C([H])([H])N(C(=O)N5C([H])([H])C([H])([H])C([H])([H])C([H])(n6nc(-c7c([H])c([H])c(Oc8c([H])c([H])c(F)c([H])c8F)c([H])c7[H])c(C(=O)N([H])[H])c6N([H])[H])C5([H])[H])C([H])([H])C4([H])C3([H])[H])c([H])c([H])c2C1([H])[H]

$$$$
20:0:0
     RDKit          3D

 96106  0  0  1  0  0  0  0  0999 V2000
  -30.5620  -15.0360   20.3740 C   0  0  0  0  0  0  0  0  0  0  0  0
  -30.4110  -12.6810   19.4660 C   0  0  0  0  0  2  0  0  0  0  0  0
  -29.4860  -12.6040   18.2310 C   0  0  0  0  0  2  0  0  0  0  0  0
  -28.0180  -12.4110   18.6600 C   0  0  0  0  0  2  0  0  0  0  0  0
  -27.6050  -13.3310   19.8400 C   0  0  0  0  0  3  0  0  0  0  0  0
  -28.6680  -13.3880   20.9550 C   0  0  0  0  0  2  0  0  0  0  0  0
  -29.9220  -13.7990   20.3170 N   0  0  0  0  0  0  0  0  0  0  0  0
  -31.7930  -15.0180   20.2810 O   0  0  0  0  0  0  0  0  0  0  0  0
  -28.3990  -17.2230   18.4200 C   0  0  0  0  0  2  0  0  0  0  0  0
  -29.9680  -18.8410   17.7960 C   0  0  0  0  0  2  0  0  0  0  0  0
  -31.3940  -18.0680   19.6850 C   0  0  0  0  0  2  0  0  0  0  0  0
  -28.7020  -18.7160   18.6510 C   0  0  0  0  0  3  0  0  0  0  0  0
  -29.7700  -16.5510   18.6670 C   0  0  0  0  0  3  0  0  0  0  0  0
  -30.1580  -17.7670   20.5360 C   0  0  0  0  0  3  0  0  0  0  0  0
  -29.0460  -18.9970   20.1520 C   0  0  0  0  0  3  0  0  0  0  0  0
  -30.8240  -17.6660   18.3190 C   0  0  1  0  0  0  0  0  0  0  0  0
  -29.8610  -16.2690   20.1160 N   0  0  0  0  0  0  0  0  0  0  0  0
  -25.2180  -13.8770   20.5830 C   0  0  0  0  0  0  0  0  0  0  0  0
  -24.1610  -13.0830   20.9410 C   0  0  0  0  0  0  0  0  0  0  0  0
  -24.6450  -11.7400   20.9100 C   0  0  0  0  0  0  0  0  0  0  0  0
  -26.2730  -13.0130   20.3470 N   0  0  0  0  0  0  0  0  0  0  0  0
  -25.9390  -11.7230   20.6120 N   0  0  0  0  0  0  0  0  0  0  0  0
  -23.9310  -10.4680   21.0900 C   0  0  0  0  0  0  0  0  0  0  0  0
  -24.3730   -9.4990   22.0180 C   0  0  0  0  0  3  0  0  0  0  0  0
  -23.6590   -8.2930   22.1880 C   0  0  0  0  0  3  0  0  0  0  0  0
  -22.4900   -8.0460   21.4260 C   0  0  0  0  0  0  0  0  0  0  0  0
  -22.0700   -9.0030   20.4870 C   0  0  0  0  0  3  0  0  0  0  0  0
  -22.7850  -10.2010   20.3160 C   0  0  0  0  0  3  0  0  0  0  0  0
  -21.7470   -6.8920   21.5050 O   0  0  0  0  0  0  0  0  0  0  0  0
  -21.7040   -6.1420   22.6530 C   0  0  0  0  0  0  0  0  0  0  0  0
  -21.2630   -6.6830   23.8810 C   0  0  0  0  0  3  0  0  0  0  0  0
  -21.1660   -5.8560   25.0190 C   0  0  0  0  0  3  0  0  0  0  0  0
  -21.5020   -4.4920   24.9310 C   0  0  0  0  0  0  0  0  0  0  0  0
  -21.9340   -3.9510   23.7070 C   0  0  0  0  0  3  0  0  0  0  0  0
  -22.0330   -4.7730   22.5720 C   0  0  0  0  0  0  0  0  0  0  0  0
  -22.4290   -4.2420   21.3900 F   0  0  0  0  0  0  0  0  0  0  0  0
  -21.4020   -3.6980   26.0220 F   0  0  0  0  0  0  0  0  0  0  0  0
  -22.7540  -13.5400   21.1920 C   0  0  0  0  0  0  0  0  0  0  0  0
  -22.0270  -12.8450   22.0610 N   0  0  0  0  0  0  0  0  0  0  0  0
  -22.3050  -14.5530   20.6570 O   0  0  0  0  0  0  0  0  0  0  0  0
  -22.3960  -12.0280   22.5250 H   0  0  0  0  0  0  0  0  0  0  0  0
  -21.0860  -13.1440   22.2710 H   0  0  0  0  0  0  0  0  0  0  0  0
  -25.3560  -15.2500   20.4110 N   0  0  0  0  0  0  0  0  0  0  0  0
  -24.5760  -15.8860   20.5380 H   0  0  0  0  0  0  0  0  0  0  0  0
  -26.2010  -15.7180   20.1090 H   0  0  0  0  0  0  0  0  0  0  0  0
  -31.8510  -17.2710   17.3320 N   0  0  0  0  0  4  0  0  0  0  0  0
  -32.4690  -18.0340   17.1320 H   0  0  0  0  0  0  0  0  0  0  0  0
  -31.4350  -16.9850   16.4620 H   0  0  0  0  0  0  0  0  0  0  0  0
  -32.4140  -16.5120   17.6710 H   0  0  0  0  0  0  0  0  0  0  0  0
  -28.5100  -21.7180   20.2040 C   0  0  0  0  0  0  0  0  0  0  0  0
  -29.3250  -20.5540   20.3570 N   0  0  0  0  0  0  0  0  0  0  0  0
  -27.3430  -21.5420   19.8550 O   0  0  0  0  0  0  0  0  0  0  0  0
  -30.2640  -20.7590   20.6710 H   0  0  0  0  0  0  0  0  0  0  0  0
  -28.9520  -23.3080   20.4390 C   0  0  0  0  0  3  0  0  0  0  0  0
  -27.9390  -24.6600   20.2200 C   0  0  0  0  0  3  0  0  0  0  0  0
  -28.2310  -26.1910   20.4230 O   0  0  0  0  0  0  0  0  0  0  0  0
  -24.6200  -31.9970   23.2880 C   0  0  0  0  0  0  0  0  0  0  0  0
  -27.1900  -27.1990   20.3400 C   0  0  0  0  0  0  0  0  0  0  0  0
  -23.4320  -30.5910   21.6500 C   0  0  0  0  0  3  0  0  0  0  0  0
  -24.8820  -28.9810   20.2720 C   0  0  0  0  0  0  0  0  0  0  0  0
  -25.9940  -30.8160   21.5270 C   0  0  0  0  0  2  0  0  0  0  0  0
  -26.0610  -29.4160   20.8900 C   0  0  0  0  0  0  0  0  0  0  0  0
  -27.2150  -28.5400   20.9090 C   0  0  0  0  0  3  0  0  0  0  0  0
  -25.9820  -26.8720   19.6830 C   0  0  0  0  0  3  0  0  0  0  0  0
  -24.8550  -27.7240   19.6530 C   0  0  0  0  0  3  0  0  0  0  0  0
  -23.6680  -29.8980   20.2840 C   0  0  0  0  0  2  0  0  0  0  0  0
  -24.7010  -31.1590   22.2080 N   0  0  0  0  0  0  0  0  0  0  0  0
  -23.5300  -32.2970   23.7970 O   0  0  0  0  0  0  0  0  0  0  0  0
  -22.7260  -29.6030   22.6140 C   0  0  0  0  0  0  0  0  0  0  0  0
  -21.3950  -29.4530   22.4750 N   0  0  0  0  0  0  0  0  0  0  0  0
  -23.3790  -28.9750   23.4510 O   0  0  0  0  0  0  0  0  0  0  0  0
  -20.9260  -30.0130   21.7780 H   0  0  0  0  0  0  0  0  0  0  0  0
  -17.9900  -28.3250   22.9650 C   0  0  0  0  0  0  0  0  0  0  0  0
  -20.5530  -28.5360   23.2480 C   0  0  0  0  0  3  0  0  0  0  0  0
  -20.6330  -27.0990   22.6790 C   0  0  0  0  0  2  0  0  0  0  0  0
  -19.5280  -26.7930   21.6610 C   0  0  0  0  0  2  0  0  0  0  0  0
  -18.1450  -26.9700   22.2940 C   0  0  0  0  0  2  0  0  0  0  0  0
  -19.1210  -29.0650   23.3980 C   0  0  0  0  0  0  0  0  0  0  0  0
  -18.9240  -30.3370   23.9810 C   0  0  0  0  0  3  0  0  0  0  0  0
  -17.6270  -30.8600   24.1420 C   0  0  0  0  0  3  0  0  0  0  0  0
  -16.5110  -30.1150   23.7240 C   0  0  0  0  0  3  0  0  0  0  0  0
  -16.6930  -28.8510   23.1380 C   0  0  0  0  0  3  0  0  0  0  0  0
  -25.8960  -32.6240   23.9290 C   0  0  0  0  0  3  0  0  0  0  0  0
  -26.3860  -31.8580   25.2200 C   0  0  1  0  0  0  0  0  0  0  0  0
  -25.2760  -31.6340   26.2730 C   0  0  0  0  0  1  0  0  0  0  0  0
  -26.9630  -30.4720   24.8540 C   0  0  0  0  0  1  0  0  0  0  0  0
  -27.5320  -32.6490   25.8920 C   0  0  0  0  0  1  0  0  0  0  0  0
  -25.5900  -34.0270   24.2510 N   0  0  0  0  0  0  0  0  0  0  0  0
  -25.9180  -35.0760   23.4830 C   0  0  0  0  0  0  0  0  0  0  0  0
  -26.5780  -34.9620   22.4470 O   0  0  0  0  0  0  0  0  0  0  0  0
  -25.0020  -34.1920   25.0560 H   0  0  0  0  0  0  0  0  0  0  0  0
  -24.1800  -36.8660   23.1570 C   0  0  0  0  0  1  0  0  0  0  0  0
  -25.4430  -36.4710   23.9370 C   0  0  0  0  0  3  0  0  0  0  0  0
  -27.5990  -37.3670   24.7040 C   0  0  0  0  0  1  0  0  0  0  0  0
  -26.4730  -37.5250   23.7840 N   0  0  0  0  0  0  0  0  0  0  0  0
  -26.0680  -38.4460   23.9320 H   0  0  0  0  0  0  0  0  0  0  0  0
  2  7  1  0
  3  4  1  0
  3  2  1  0
  5  4  1  0
  5 21  1  0
  5  6  1  0
  7  1  1  0
  7  6  1  0
  8  1  2  0
  9 12  1  0
 10 16  1  0
 12 10  1  0
 12 15  1  0
 13  9  1  0
 13 17  1  0
 14 11  1  0
 15 51  1  0
 15 14  1  0
 16 46  1  6
 16 13  1  0
 16 11  1  0
 17  1  1  0
 17 14  1  0
 18 19  2  0
 19 38  1  0
 20 19  1  0
 20 23  1  0
 21 18  1  0
 21 22  1  0
 22 20  2  0
 23 24  1  0
 24 25  2  0
 26 29  1  0
 26 25  1  0
 27 26  2  0
 28 27  1  0
 28 23  2  0
 29 30  1  0
 30 31  1  0
 31 32  2  0
 33 32  1  0
 33 37  1  0
 34 33  2  0
 35 30  2  0
 35 34  1  0
 36 35  1  0
 38 39  1  0
 39 42  1  0
 39 41  1  0
 40 38  2  0
 43 44  1  0
 43 18  1  0
 45 43  1  0
 46 49  1  0
 47 46  1  0
 48 46  1  0
 50 51  1  0
 50 54  1  0
 51 53  1  0
 52 50  2  0
 55 56  1  0
 55 54  2  0
 57 68  2  0
 58 56  1  0
 58 63  1  0
 59 67  1  0
 59 69  1  0
 60 66  1  0
 60 62  1  0
 61 67  1  0
 62 63  2  0
 62 61  1  0
 64 58  2  0
 65 64  1  0
 65 60  2  0
 66 59  1  0
 67 57  1  0
 69 71  2  0
 70 69  1  0
 72 70  1  0
 73 82  2  0
 73 78  1  0
 74 70  1  0
 74 78  1  0
 75 74  1  0
 76 77  1  0
 76 75  1  0
 77 73  1  0
 78 79  2  0
 79 80  1  0
 81 80  2  0
 82 81  1  0
 83 57  1  0
 83 88  1  0
 83 84  1  0
 84 87  1  1
 84 85  1  0
 86 84  1  0
 88 91  1  0
 89 93  1  0
 89 88  1  0
 90 89  2  0
 93 92  1  0
 95 96  1  0
 95 93  1  0
 95 94  1  0
M  ISO  4   1 100  17 100  55 101  56 101
M  END
>  <TORSDO>  (21) 
F 19

>  <SCORE>  (21) 
-15.238

>  <name>  (21) 
20

>  <ligand_id>  (21) 
20

>  <original_smiles>  (21) 
[H]c1c([H])c([H])c2c(c1[H])C([H])([H])C([H])([H])C([H])([H])C2([H])N([H])C(=O)C1([H])N(C(=O)C([H])(N([H])C(=O)C([H])(N([H])C([H])([H])[H])C([H])([H])[H])C(C([H])([H])[H])(C([H])([H])[H])C([H])([H])[H])C([H])([H])c2c([H])c(OC([H])([H])C([H])([H])C(=O)N([H])C3([H])C4([H])N(C(=O)N5C([H])([H])C([H])([H])C([H])([H])C([H])(n6nc(-c7c([H])c([H])c(Oc8c([H])c([H])c(F)c([H])c8F)c([H])c7[H])c(C(=O)N([H])[H])c6N([H])[H])C5([H])[H])C5([H])C([H])([H])C3([H])C([H])([H])C5([N+]([H])([H])[H])C4([H])[H])c([H])c([H])c2C1([H])[H]

>  <smiles>  (21) 
[H]c1c([H])c([H])c2c(c1[H])C([H])([H])C([H])([H])C([H])([H])C2([H])N([H])C(=O)C1([H])N(C(=O)C([H])(N([H])C(=O)C([H])(N([H])C([H])([H])[H])C([H])([H])[H])C(C([H])([H])[H])(C([H])([H])[H])C([H])([H])[H])C([H])([H])c2c([H])c(OC([H])([H])C([H])([H])C(=O)N([H])C3([H])C4([H])N(C(=O)N5C([H])([H])C([H])([H])C([H])([H])C([H])(n6nc(-c7c([H])c([H])c(Oc8c([H])c([H])c(F)c([H])c8F)c([H])c7[H])c(C(=O)N([H])[H])c6N([H])[H])C5([H])[H])C5([H])C([H])([H])C3([H])C([H])([H])C5([N+]([H])([H])[H])C4([H])[H])c([H])c([H])c2C1([H])[H]

$$$$
21:0:0
     RDKit          3D

 97106  0  0  1  0  0  0  0  0999 V2000
  -28.8620  -19.1080   20.0280 C   0  0  0  0  0  0  0  0  0  0  0  0
  -27.7830  -18.8770   19.4750 O   0  0  0  0  0  0  0  0  0  0  0  0
  -30.5840  -15.0540   19.8200 C   0  0  0  0  0  0  0  0  0  0  0  0
  -30.1310  -12.8100   18.7270 C   0  0  0  0  0  2  0  0  0  0  0  0
  -29.0790  -12.7150   17.6130 C   0  0  0  0  0  2  0  0  0  0  0  0
  -27.6970  -12.4680   18.2300 C   0  0  0  0  0  2  0  0  0  0  0  0
  -27.4150  -13.3770   19.4550 C   0  0  0  0  0  3  0  0  0  0  0  0
  -28.6080  -13.4900   20.4290 C   0  0  0  0  0  2  0  0  0  0  0  0
  -29.7380  -13.9600   19.6130 N   0  0  0  0  0  0  0  0  0  0  0  0
  -31.7490  -14.6710   19.7120 O   0  0  0  0  0  0  0  0  0  0  0  0
  -33.0070  -18.5180   20.7650 C   0  0  0  0  0  2  0  0  0  0  0  0
  -30.0410  -17.9540   20.2560 C   0  0  0  0  0  3  0  0  0  0  0  0
  -31.6680  -17.0860   19.2430 C   0  0  0  0  0  3  0  0  0  0  0  0
  -32.8160  -17.0580   20.3060 C   0  0  0  0  0  3  0  0  0  0  0  0
  -31.1240  -18.4450   19.3010 C   0  0  0  0  0  3  0  0  0  0  0  0
  -30.3030  -16.4810   19.5820 N   0  0  0  0  0  0  0  0  0  0  0  0
  -32.1830  -19.3260   19.8520 N   0  0  0  0  0  4  0  0  0  0  0  0
  -32.7820  -19.6160   19.0970 H   0  0  0  0  0  0  0  0  0  0  0  0
  -31.8480  -20.1560   20.3090 H   0  0  0  0  0  0  0  0  0  0  0  0
  -25.1540  -13.8790   20.5180 C   0  0  0  0  0  0  0  0  0  0  0  0
  -24.1400  -13.0730   20.9550 C   0  0  0  0  0  0  0  0  0  0  0  0
  -24.6030  -11.7290   20.7980 C   0  0  0  0  0  0  0  0  0  0  0  0
  -26.1650  -13.0260   20.1130 N   0  0  0  0  0  0  0  0  0  0  0  0
  -25.8530  -11.7250   20.3490 N   0  0  0  0  0  0  0  0  0  0  0  0
  -23.9040  -10.4510   20.9870 C   0  0  0  0  0  0  0  0  0  0  0  0
  -24.3830   -9.4750   21.8880 C   0  0  0  0  0  3  0  0  0  0  0  0
  -23.6830   -8.2630   22.0720 C   0  0  0  0  0  3  0  0  0  0  0  0
  -22.4870   -8.0190   21.3550 C   0  0  0  0  0  0  0  0  0  0  0  0
  -22.0280   -8.9830   20.4420 C   0  0  0  0  0  3  0  0  0  0  0  0
  -22.7290  -10.1860   20.2550 C   0  0  0  0  0  3  0  0  0  0  0  0
  -21.7510   -6.8630   21.4530 O   0  0  0  0  0  0  0  0  0  0  0  0
  -21.6810   -6.1500   22.6230 C   0  0  0  0  0  0  0  0  0  0  0  0
  -21.1990   -6.7270   23.8180 C   0  0  0  0  0  3  0  0  0  0  0  0
  -21.0780   -5.9390   24.9810 C   0  0  0  0  0  3  0  0  0  0  0  0
  -21.4270   -4.5760   24.9470 C   0  0  0  0  0  0  0  0  0  0  0  0
  -21.9020   -3.9990   23.7560 C   0  0  0  0  0  3  0  0  0  0  0  0
  -22.0240   -4.7830   22.5960 C   0  0  0  0  0  0  0  0  0  0  0  0
  -22.4620   -4.2170   21.4460 F   0  0  0  0  0  0  0  0  0  0  0  0
  -21.3010   -3.8180   26.0610 F   0  0  0  0  0  0  0  0  0  0  0  0
  -22.7790  -13.5230   21.3950 C   0  0  0  0  0  0  0  0  0  0  0  0
  -22.1500  -12.7850   22.3020 N   0  0  0  0  0  0  0  0  0  0  0  0
  -22.2810  -14.5620   20.9640 O   0  0  0  0  0  0  0  0  0  0  0  0
  -22.5660  -11.9420   22.6700 H   0  0  0  0  0  0  0  0  0  0  0  0
  -21.2400  -13.0710   22.6380 H   0  0  0  0  0  0  0  0  0  0  0  0
  -25.2990  -15.2570   20.4000 N   0  0  0  0  0  0  0  0  0  0  0  0
  -24.5610  -15.9110   20.6360 H   0  0  0  0  0  0  0  0  0  0  0  0
  -26.1200  -15.7110   20.0170 H   0  0  0  0  0  0  0  0  0  0  0  0
  -34.0310  -16.5500   19.6880 N   0  0  0  0  0  0  0  0  0  0  0  0
  -34.1520  -16.9520   18.7640 H   0  0  0  0  0  0  0  0  0  0  0  0
  -33.8600  -15.5630   19.5050 H   0  0  0  0  0  0  0  0  0  0  0  0
  -29.1280  -20.6840   20.5250 C   0  0  0  0  0  2  0  0  0  0  0  0
  -28.6140  -23.3610   20.4040 C   0  0  0  0  0  0  0  0  0  0  0  0
  -28.3830  -21.9980   20.0440 N   0  0  0  0  0  0  0  0  0  0  0  0
  -29.5700  -23.5930   21.1460 O   0  0  0  0  0  0  0  0  0  0  0  0
  -27.6090  -21.8350   19.4120 H   0  0  0  0  0  0  0  0  0  0  0  0
  -27.7070  -24.6770   19.9530 C   0  0  0  0  0  2  0  0  0  0  0  0
  -28.0620  -26.1590   20.3320 O   0  0  0  0  0  0  0  0  0  0  0  0
  -24.6130  -31.9740   23.3180 C   0  0  0  0  0  0  0  0  0  0  0  0
  -27.0620  -27.2020   20.2560 C   0  0  0  0  0  0  0  0  0  0  0  0
  -23.3800  -30.6070   21.6790 C   0  0  0  0  0  3  0  0  0  0  0  0
  -24.7880  -29.0130   20.2400 C   0  0  0  0  0  0  0  0  0  0  0  0
  -25.9430  -30.8110   21.5150 C   0  0  0  0  0  2  0  0  0  0  0  0
  -25.9800  -29.4230   20.8500 C   0  0  0  0  0  0  0  0  0  0  0  0
  -27.1190  -28.5290   20.8510 C   0  0  0  0  0  3  0  0  0  0  0  0
  -25.8540  -26.9120   19.5900 C   0  0  0  0  0  3  0  0  0  0  0  0
  -24.7360  -27.7690   19.5990 C   0  0  0  0  0  3  0  0  0  0  0  0
  -23.5790  -29.9320   20.2960 C   0  0  0  0  0  2  0  0  0  0  0  0
  -24.6650  -31.1550   22.2220 N   0  0  0  0  0  0  0  0  0  0  0  0
  -23.5340  -32.2730   23.8540 O   0  0  0  0  0  0  0  0  0  0  0  0
  -22.6900  -29.6060   22.6410 C   0  0  0  0  0  0  0  0  0  0  0  0
  -21.3640  -29.4310   22.5010 N   0  0  0  0  0  0  0  0  0  0  0  0
  -23.3530  -28.9860   23.4790 O   0  0  0  0  0  0  0  0  0  0  0  0
  -20.8810  -29.9820   21.8040 H   0  0  0  0  0  0  0  0  0  0  0  0
  -17.9850  -28.2080   22.9550 C   0  0  0  0  0  0  0  0  0  0  0  0
  -20.5350  -28.5000   23.2730 C   0  0  0  0  0  3  0  0  0  0  0  0
  -20.6610  -27.0580   22.7290 C   0  0  0  0  0  2  0  0  0  0  0  0
  -19.5850  -26.7060   21.6960 C   0  0  0  0  0  2  0  0  0  0  0  0
  -18.1870  -26.8510   22.3060 C   0  0  0  0  0  2  0  0  0  0  0  0
  -19.0870  -28.9910   23.3940 C   0  0  0  0  0  0  0  0  0  0  0  0
  -18.8410  -30.2620   23.9580 C   0  0  0  0  0  3  0  0  0  0  0  0
  -17.5270  -30.7510   24.0880 C   0  0  0  0  0  3  0  0  0  0  0  0
  -16.4390  -29.9650   23.6650 C   0  0  0  0  0  3  0  0  0  0  0  0
  -16.6690  -28.6970   23.1040 C   0  0  0  0  0  3  0  0  0  0  0  0
  -25.9060  -32.5830   23.9400 C   0  0  0  0  0  3  0  0  0  0  0  0
  -26.3980  -31.8170   25.2310 C   0  0  1  0  0  0  0  0  0  0  0  0
  -25.2940  -31.6110   26.2930 C   0  0  0  0  0  1  0  0  0  0  0  0
  -26.9590  -30.4230   24.8690 C   0  0  0  0  0  1  0  0  0  0  0  0
  -27.5570  -32.5970   25.8920 C   0  0  0  0  0  1  0  0  0  0  0  0
  -25.6250  -33.9910   24.2600 N   0  0  0  0  0  0  0  0  0  0  0  0
  -25.9540  -35.0350   23.4870 C   0  0  0  0  0  0  0  0  0  0  0  0
  -26.5950  -34.9120   22.4390 O   0  0  0  0  0  0  0  0  0  0  0  0
  -25.0620  -34.1620   25.0800 H   0  0  0  0  0  0  0  0  0  0  0  0
  -24.2390  -36.8500   23.1760 C   0  0  0  0  0  1  0  0  0  0  0  0
  -25.5030  -36.4340   23.9460 C   0  0  0  0  0  3  0  0  0  0  0  0
  -27.6740  -37.3070   24.6900 C   0  0  0  0  0  1  0  0  0  0  0  0
  -26.5420  -37.4730   23.7830 N   0  0  0  0  0  0  0  0  0  0  0  0
  -26.1510  -38.3990   23.9300 H   0  0  0  0  0  0  0  0  0  0  0  0
  1 51  1  0
  2  1  2  0
  4  9  1  0
  5  6  1  0
  5  4  1  0
  7  6  1  0
  7 23  1  0
  7  8  1  0
  9  3  1  0
  9  8  1  0
 10  3  2  0
 12  1  1  0
 13 15  1  0
 13 16  1  0
 13 14  1  0
 14 48  1  0
 14 11  1  0
 15 17  1  0
 15 12  1  0
 16  3  1  0
 16 12  1  0
 17 19  1  0
 17 11  1  0
 18 17  1  0
 20 21  2  0
 21 40  1  0
 22 21  1  0
 22 25  1  0
 23 24  1  0
 23 20  1  0
 24 22  2  0
 25 26  1  0
 26 27  2  0
 28 31  1  0
 28 27  1  0
 29 28  2  0
 30 29  1  0
 30 25  2  0
 31 32  1  0
 32 33  1  0
 33 34  2  0
 35 34  1  0
 35 39  1  0
 36 35  2  0
 37 32  2  0
 37 36  1  0
 38 37  1  0
 40 41  1  0
 41 44  1  0
 41 43  1  0
 42 40  2  0
 45 20  1  0
 45 46  1  0
 47 45  1  0
 49 48  1  0
 50 48  1  0
 52 54  2  0
 53 52  1  0
 53 51  1  0
 55 53  1  0
 56 57  1  0
 56 52  1  0
 58 69  2  0
 59 57  1  0
 59 64  1  0
 60 68  1  0
 60 70  1  0
 61 67  1  0
 61 63  1  0
 62 68  1  0
 63 64  2  0
 63 62  1  0
 65 66  1  0
 65 59  2  0
 66 61  2  0
 67 60  1  0
 68 58  1  0
 70 72  2  0
 71 70  1  0
 73 71  1  0
 74 83  2  0
 74 79  1  0
 75 71  1  0
 75 79  1  0
 76 75  1  0
 77 78  1  0
 77 76  1  0
 78 74  1  0
 79 80  2  0
 80 81  1  0
 82 81  2  0
 83 82  1  0
 84 58  1  0
 84 89  1  0
 84 85  1  0
 85 88  1  1
 85 86  1  0
 87 85  1  0
 89 92  1  0
 90 94  1  0
 90 89  1  0
 91 90  2  0
 94 93  1  0
 96 97  1  0
 96 94  1  0
 96 95  1  0
M  ISO  4   3 100  16 100  56 101  57 101
M  END
>  <TORSDO>  (22) 
F 20

>  <SCORE>  (22) 
-13.632

>  <name>  (22) 
21

>  <ligand_id>  (22) 
21

>  <original_smiles>  (22) 
[H]c1c([H])c([H])c2c(c1[H])C([H])([H])C([H])([H])C([H])([H])C2([H])N([H])C(=O)C1([H])N(C(=O)C([H])(N([H])C(=O)C([H])(N([H])C([H])([H])[H])C([H])([H])[H])C(C([H])([H])[H])(C([H])([H])[H])C([H])([H])[H])C([H])([H])c2c([H])c(OC([H])([H])C(=O)N([H])C([H])([H])C(=O)C3([H])N(C(=O)N4C([H])([H])C([H])([H])C([H])([H])C([H])(n5nc(-c6c([H])c([H])c(Oc7c([H])c([H])c(F)c([H])c7F)c([H])c6[H])c(C(=O)N([H])[H])c5N([H])[H])C4([H])[H])C4([H])C([H])(N([H])[H])C([H])([H])[N+]([H])([H])C34[H])c([H])c([H])c2C1([H])[H]

>  <smiles>  (22) 
[H]c1c([H])c([H])c2c(c1[H])C([H])([H])C([H])([H])C([H])([H])C2([H])N([H])C(=O)C1([H])N(C(=O)C([H])(N([H])C(=O)C([H])(N([H])C([H])([H])[H])C([H])([H])[H])C(C([H])([H])[H])(C([H])([H])[H])C([H])([H])[H])C([H])([H])c2c([H])c(OC([H])([H])C(=O)N([H])C([H])([H])C(=O)C3([H])N(C(=O)N4C([H])([H])C([H])([H])C([H])([H])C([H])(n5nc(-c6c([H])c([H])c(Oc7c([H])c([H])c(F)c([H])c7F)c([H])c6[H])c(C(=O)N([H])[H])c5N([H])[H])C4([H])[H])C4([H])C([H])(N([H])[H])C([H])([H])[N+]([H])([H])C34[H])c([H])c([H])c2C1([H])[H]

$$$$
22:0:0
     RDKit          3D

 97106  0  0  1  0  0  0  0  0999 V2000
  -29.3530  -21.2260   21.4530 C   0  0  0  0  0  2  0  0  0  0  0  0
  -29.0290  -19.6720   21.3840 C   0  0  0  0  0  2  0  0  0  0  0  0
  -30.9250  -19.5800   17.2260 C   0  0  0  0  0  2  0  0  0  0  0  0
  -31.4330  -17.7000   18.8530 C   0  0  0  0  0  2  0  0  0  0  0  0
  -29.4310  -19.3930   17.5520 C   0  0  0  0  0  2  0  0  0  0  0  0
  -29.3410  -21.3990   19.0590 C   0  0  0  0  0  2  0  0  0  0  0  0
  -28.7550  -22.1320   20.3180 C   0  0  0  0  0  3  0  0  0  0  0  0
  -30.3460  -17.6360   19.9760 C   0  0  0  0  0  3  0  0  0  0  0  0
  -29.2250  -18.8840   20.0310 C   0  0  0  0  0  3  0  0  0  0  0  0
  -31.8750  -19.0810   18.3330 C   0  0  0  0  0  3  0  0  0  0  0  0
  -29.0580  -19.8990   18.8940 N   0  0  2  0  0  4  0  0  0  0  0  0
  -28.0500  -19.9090   18.8270 H   0  0  0  0  0  0  0  0  0  0  0  0
  -30.6240  -14.9400   20.0520 C   0  0  0  0  0  0  0  0  0  0  0  0
  -30.3490  -12.6620   19.0450 C   0  0  0  0  0  2  0  0  0  0  0  0
  -29.3640  -12.7240   17.8580 C   0  0  0  0  0  2  0  0  0  0  0  0
  -27.9200  -12.5290   18.3590 C   0  0  0  0  0  2  0  0  0  0  0  0
  -27.5890  -13.4170   19.5880 C   0  0  0  0  0  3  0  0  0  0  0  0
  -28.6990  -13.3690   20.6600 C   0  0  0  0  0  2  0  0  0  0  0  0
  -29.9580  -13.7290   20.0000 N   0  0  0  0  0  0  0  0  0  0  0  0
  -31.8140  -14.9500   19.7370 O   0  0  0  0  0  0  0  0  0  0  0  0
  -29.9150  -16.1450   20.2070 N   0  0  0  0  0  0  0  0  0  0  0  0
  -28.9450  -16.0180   20.4540 H   0  0  0  0  0  0  0  0  0  0  0  0
  -25.2500  -13.9880   20.4610 C   0  0  0  0  0  0  0  0  0  0  0  0
  -24.2020  -13.2080   20.8640 C   0  0  0  0  0  0  0  0  0  0  0  0
  -24.6570  -11.8570   20.7740 C   0  0  0  0  0  0  0  0  0  0  0  0
  -26.2760  -13.1140   20.1450 N   0  0  0  0  0  0  0  0  0  0  0  0
  -25.9310  -11.8240   20.3990 N   0  0  0  0  0  0  0  0  0  0  0  0
  -23.9350  -10.5910   20.9650 C   0  0  0  0  0  0  0  0  0  0  0  0
  -24.3720   -9.6250   21.8970 C   0  0  0  0  0  3  0  0  0  0  0  0
  -23.6490   -8.4250   22.0760 C   0  0  0  0  0  3  0  0  0  0  0  0
  -22.4750   -8.1850   21.3240 C   0  0  0  0  0  0  0  0  0  0  0  0
  -22.0580   -9.1410   20.3810 C   0  0  0  0  0  3  0  0  0  0  0  0
  -22.7810  -10.3310   20.1990 C   0  0  0  0  0  3  0  0  0  0  0  0
  -21.7230   -7.0390   21.4120 O   0  0  0  0  0  0  0  0  0  0  0  0
  -21.6270   -6.3300   22.5830 C   0  0  0  0  0  0  0  0  0  0  0  0
  -21.0930   -6.9020   23.7580 C   0  0  0  0  0  3  0  0  0  0  0  0
  -20.9480   -6.1160   24.9190 C   0  0  0  0  0  3  0  0  0  0  0  0
  -21.3260   -4.7600   24.9050 C   0  0  0  0  0  0  0  0  0  0  0  0
  -21.8540   -4.1890   23.7340 C   0  0  0  0  0  3  0  0  0  0  0  0
  -22.0000   -4.9700   22.5760 C   0  0  0  0  0  0  0  0  0  0  0  0
  -22.4890   -4.4100   21.4440 F   0  0  0  0  0  0  0  0  0  0  0  0
  -21.1800   -4.0030   26.0180 F   0  0  0  0  0  0  0  0  0  0  0  0
  -22.8210  -13.6820   21.2130 C   0  0  0  0  0  0  0  0  0  0  0  0
  -22.1300  -12.9670   22.0940 N   0  0  0  0  0  0  0  0  0  0  0  0
  -22.3650  -14.7240   20.7420 O   0  0  0  0  0  0  0  0  0  0  0  0
  -22.5110  -12.1250   22.4990 H   0  0  0  0  0  0  0  0  0  0  0  0
  -21.2040  -13.2670   22.3670 H   0  0  0  0  0  0  0  0  0  0  0  0
  -25.4080  -15.3620   20.3110 N   0  0  0  0  0  0  0  0  0  0  0  0
  -24.6390  -16.0070   20.4600 H   0  0  0  0  0  0  0  0  0  0  0  0
  -26.2200  -15.8030   19.9000 H   0  0  0  0  0  0  0  0  0  0  0  0
  -33.2690  -19.0520   17.8370 N   0  0  0  0  0  4  0  0  0  0  0  0
  -33.3740  -18.4110   17.0690 H   0  0  0  0  0  0  0  0  0  0  0  0
  -33.9020  -18.7710   18.5650 H   0  0  0  0  0  0  0  0  0  0  0  0
  -33.5590  -19.9620   17.5240 H   0  0  0  0  0  0  0  0  0  0  0  0
  -29.0580  -23.7530   20.4670 C   0  0  0  0  0  3  0  0  0  0  0  0
  -28.0530  -24.9460   19.9730 C   0  0  0  0  0  3  0  0  0  0  0  0
  -28.2950  -26.4260   20.2380 O   0  0  0  0  0  0  0  0  0  0  0  0
  -24.6230  -31.9400   23.2780 C   0  0  0  0  0  0  0  0  0  0  0  0
  -27.2130  -27.3490   20.1730 C   0  0  0  0  0  0  0  0  0  0  0  0
  -23.4180  -30.5570   21.6310 C   0  0  0  0  0  3  0  0  0  0  0  0
  -24.8640  -29.0210   20.1760 C   0  0  0  0  0  0  0  0  0  0  0  0
  -25.9620  -30.8620   21.4460 C   0  0  0  0  0  2  0  0  0  0  0  0
  -26.0400  -29.4850   20.7800 C   0  0  0  0  0  0  0  0  0  0  0  0
  -27.2170  -28.6630   20.7640 C   0  0  0  0  0  3  0  0  0  0  0  0
  -26.0150  -26.9680   19.5290 C   0  0  0  0  0  3  0  0  0  0  0  0
  -24.8590  -27.7730   19.5380 C   0  0  0  0  0  3  0  0  0  0  0  0
  -23.6300  -29.9000   20.2420 C   0  0  0  0  0  2  0  0  0  0  0  0
  -24.6880  -31.1380   22.1740 N   0  0  0  0  0  0  0  0  0  0  0  0
  -23.5410  -32.2100   23.8190 O   0  0  0  0  0  0  0  0  0  0  0  0
  -22.7580  -29.5290   22.5830 C   0  0  0  0  0  0  0  0  0  0  0  0
  -21.4350  -29.3380   22.4490 N   0  0  0  0  0  0  0  0  0  0  0  0
  -23.4380  -28.9080   23.4050 O   0  0  0  0  0  0  0  0  0  0  0  0
  -20.9420  -29.8920   21.7630 H   0  0  0  0  0  0  0  0  0  0  0  0
  -18.0660  -28.1020   22.9390 C   0  0  0  0  0  0  0  0  0  0  0  0
  -20.6210  -28.3880   23.2130 C   0  0  0  0  0  3  0  0  0  0  0  0
  -20.7390  -26.9600   22.6300 C   0  0  0  0  0  2  0  0  0  0  0  0
  -19.6420  -26.6320   21.6120 C   0  0  0  0  0  2  0  0  0  0  0  0
  -18.2580  -26.7590   22.2530 C   0  0  0  0  0  2  0  0  0  0  0  0
  -19.1760  -28.8730   23.3750 C   0  0  0  0  0  0  0  0  0  0  0  0
  -18.9420  -30.1290   23.9760 C   0  0  0  0  0  3  0  0  0  0  0  0
  -17.6320  -30.6140   24.1450 C   0  0  0  0  0  3  0  0  0  0  0  0
  -16.5370  -29.8400   23.7240 C   0  0  0  0  0  3  0  0  0  0  0  0
  -16.7540  -28.5850   23.1270 C   0  0  0  0  0  3  0  0  0  0  0  0
  -25.9050  -32.5730   23.9020 C   0  0  0  0  0  3  0  0  0  0  0  0
  -26.4150  -31.8040   25.1830 C   0  0  1  0  0  0  0  0  0  0  0  0
  -25.3170  -31.5660   26.2460 C   0  0  0  0  0  1  0  0  0  0  0  0
  -27.0040  -30.4270   24.7990 C   0  0  0  0  0  1  0  0  0  0  0  0
  -27.5610  -32.6020   25.8500 C   0  0  0  0  0  1  0  0  0  0  0  0
  -25.5970  -33.9720   24.2310 N   0  0  0  0  0  0  0  0  0  0  0  0
  -25.9040  -35.0230   23.4590 C   0  0  0  0  0  0  0  0  0  0  0  0
  -26.5460  -34.9170   22.4110 O   0  0  0  0  0  0  0  0  0  0  0  0
  -25.0230  -34.1280   25.0480 H   0  0  0  0  0  0  0  0  0  0  0  0
  -24.1560  -36.8070   23.1490 C   0  0  0  0  0  1  0  0  0  0  0  0
  -25.4250  -36.4130   23.9230 C   0  0  0  0  0  3  0  0  0  0  0  0
  -27.5730  -37.3220   24.6900 C   0  0  0  0  0  1  0  0  0  0  0  0
  -26.4470  -37.4700   23.7710 N   0  0  0  0  0  0  0  0  0  0  0  0
  -26.0390  -38.3900   23.9150 H   0  0  0  0  0  0  0  0  0  0  0  0
  2  1  1  0
  3  5  1  0
  3 10  1  0
  4  8  1  0
  5 11  1  0
  6  7  1  0
  7 55  1  0
  7  1  1  0
  8  9  1  0
  8 21  1  0
  9  2  1  0
 10 51  1  0
 10  4  1  0
 11 12  1  6
 11  6  1  0
 11  9  1  0
 13 21  1  0
 14 19  1  0
 15 16  1  0
 15 14  1  0
 17 16  1  0
 17 26  1  0
 17 18  1  0
 19 13  1  0
 19 18  1  0
 20 13  2  0
 21 22  1  0
 23 24  2  0
 24 43  1  0
 25 24  1  0
 25 28  1  0
 26 27  1  0
 26 23  1  0
 27 25  2  0
 28 29  1  0
 29 30  2  0
 31 34  1  0
 31 30  1  0
 32 31  2  0
 33 32  1  0
 33 28  2  0
 34 35  1  0
 35 36  1  0
 36 37  2  0
 38 37  1  0
 38 42  1  0
 39 38  2  0
 40 35  2  0
 40 39  1  0
 41 40  1  0
 43 44  1  0
 44 47  1  0
 44 46  1  0
 45 43  2  0
 48 49  1  0
 48 23  1  0
 50 48  1  0
 51 53  1  0
 52 51  1  0
 54 51  1  0
 56 57  1  0
 56 55  2  0
 58 69  2  0
 59 57  1  0
 59 64  1  0
 60 68  1  0
 60 70  1  0
 61 67  1  0
 61 63  1  0
 62 68  1  0
 63 62  1  0
 64 63  2  0
 65 66  1  0
 65 59  2  0
 66 61  2  0
 67 60  1  0
 68 58  1  0
 70 72  2  0
 71 70  1  0
 73 71  1  0
 74 83  2  0
 74 79  1  0
 75 71  1  0
 75 79  1  0
 76 75  1  0
 77 78  1  0
 77 76  1  0
 78 74  1  0
 79 80  2  0
 80 81  1  0
 82 81  2  0
 83 82  1  0
 84 58  1  0
 84 89  1  0
 84 85  1  0
 85 88  1  1
 85 86  1  0
 87 85  1  0
 89 92  1  0
 90 94  1  0
 90 89  1  0
 91 90  2  0
 94 93  1  0
 96 97  1  0
 96 94  1  0
 96 95  1  0
M  ISO  4  13 100  21 100  56 101  57 101
M  END
>  <TORSDO>  (23) 
F 19

>  <SCORE>  (23) 
-14.026

>  <name>  (23) 
22

>  <ligand_id>  (23) 
22

>  <original_smiles>  (23) 
[H]c1c([H])c([H])c2c(c1[H])C([H])([H])C([H])([H])C([H])([H])C2([H])N([H])C(=O)C1([H])N(C(=O)C([H])(N([H])C(=O)C([H])(N([H])C([H])([H])[H])C([H])([H])[H])C(C([H])([H])[H])(C([H])([H])[H])C([H])([H])[H])C([H])([H])c2c([H])c(OC([H])([H])C([H])([H])C3([H])C([H])([H])C([H])([H])C4([H])C([H])(N([H])C(=O)N5C([H])([H])C([H])([H])C([H])([H])C([H])(n6nc(-c7c([H])c([H])c(Oc8c([H])c([H])c(F)c([H])c8F)c([H])c7[H])c(C(=O)N([H])[H])c6N([H])[H])C5([H])[H])C([H])([H])C([H])([N+]([H])([H])[H])C([H])([H])C([H])([H])[N+]4([H])C3([H])[H])c([H])c([H])c2C1([H])[H]

>  <smiles>  (23) 
[H]c1c([H])c([H])c2c(c1[H])C([H])([H])C([H])([H])C([H])([H])C2([H])N([H])C(=O)C1([H])N(C(=O)C([H])(N([H])C(=O)C([H])(N([H])C([H])([H])[H])C([H])([H])[H])C(C([H])([H])[H])(C([H])([H])[H])C([H])([H])[H])C([H])([H])c2c([H])c(OC([H])([H])C([H])([H])C3([H])C([H])([H])C([H])([H])C4([H])C([H])(N([H])C(=O)N5C([H])([H])C([H])([H])C([H])([H])C([H])(n6nc(-c7c([H])c([H])c(Oc8c([H])c([H])c(F)c([H])c8F)c([H])c7[H])c(C(=O)N([H])[H])c6N([H])[H])C5([H])[H])C([H])([H])C([H])([N+]([H])([H])[H])C([H])([H])C([H])([H])[N+]4([H])C3([H])[H])c([H])c([H])c2C1([H])[H]

$$$$
23:0:0
     RDKit          3D

 94104  0  0  1  0  0  0  0  0999 V2000
  -30.9970  -21.2570   21.3700 C   0  0  0  0  0  2  0  0  0  0  0  0
  -28.4070  -22.4430   21.5680 C   0  0  0  0  0  2  0  0  0  0  0  0
  -29.9150  -20.2240   21.0180 C   0  0  0  0  0  3  0  0  0  0  0  0
  -28.9910  -21.3970   20.6100 C   0  0  0  0  0  3  0  0  0  0  0  0
  -30.2250  -22.2920   20.5250 C   0  0  0  0  0  3  0  0  0  0  0  0
  -29.4980  -23.3630   21.2170 N   0  0  1  0  0  4  0  0  0  0  0  0
  -30.0070  -23.6810   22.0310 H   0  0  0  0  0  0  0  0  0  0  0  0
  -30.7200  -14.5680   20.3590 C   0  0  0  0  0  0  0  0  0  0  0  0
  -30.4620  -12.3480   19.3580 C   0  0  0  0  0  2  0  0  0  0  0  0
  -29.5360  -12.4750   18.1280 C   0  0  0  0  0  2  0  0  0  0  0  0
  -28.0520  -12.3790   18.5400 C   0  0  0  0  0  2  0  0  0  0  0  0
  -27.6850  -13.2620   19.7630 C   0  0  0  0  0  3  0  0  0  0  0  0
  -28.7320  -13.1270   20.8940 C   0  0  0  0  0  2  0  0  0  0  0  0
  -30.0600  -13.3830   20.3180 N   0  0  0  0  0  0  0  0  0  0  0  0
  -31.9430  -14.6640   20.2370 O   0  0  0  0  0  0  0  0  0  0  0  0
  -30.2120  -18.0020   19.6930 C   0  0  0  0  0  0  0  0  0  0  0  0
  -30.5110  -17.3630   18.4280 C   0  0  0  0  0  0  0  0  0  0  0  0
  -30.2710  -19.3470   19.8220 C   0  0  0  0  0  3  0  0  0  0  0  0
  -30.0920  -15.9190   18.4910 C   0  0  0  0  0  2  0  0  0  0  0  0
  -29.8220  -16.8940   20.6680 C   0  0  0  0  0  3  0  0  0  0  0  0
  -28.3700  -17.0470   21.1610 C   0  0  0  0  0  1  0  0  0  0  0  0
  -29.9590  -15.6070   19.9300 N   0  0  0  0  0  0  0  0  0  0  0  0
  -31.0060  -17.8770   17.4210 O   0  0  0  0  0  0  0  0  0  0  0  0
  -25.2730  -13.8680   20.4230 C   0  0  0  0  0  0  0  0  0  0  0  0
  -24.2030  -13.0970   20.7900 C   0  0  0  0  0  0  0  0  0  0  0  0
  -24.6750  -11.7490   20.8060 C   0  0  0  0  0  0  0  0  0  0  0  0
  -26.3300  -12.9910   20.2360 N   0  0  0  0  0  0  0  0  0  0  0  0
  -25.9730  -11.7130   20.5300 N   0  0  0  0  0  0  0  0  0  0  0  0
  -23.9550  -10.4870   21.0100 C   0  0  0  0  0  0  0  0  0  0  0  0
  -24.3830   -9.5400   21.9680 C   0  0  0  0  0  3  0  0  0  0  0  0
  -23.6660   -8.3400   22.1590 C   0  0  0  0  0  3  0  0  0  0  0  0
  -22.5060   -8.0780   21.3910 C   0  0  0  0  0  0  0  0  0  0  0  0
  -22.0970   -9.0120   20.4240 C   0  0  0  0  0  3  0  0  0  0  0  0
  -22.8150  -10.2040   20.2310 C   0  0  0  0  0  3  0  0  0  0  0  0
  -21.7610   -6.9280   21.4910 O   0  0  0  0  0  0  0  0  0  0  0  0
  -21.7040   -6.2050   22.6560 C   0  0  0  0  0  0  0  0  0  0  0  0
  -21.2640   -6.7790   23.8680 C   0  0  0  0  0  3  0  0  0  0  0  0
  -21.1570   -5.9820   25.0260 C   0  0  0  0  0  3  0  0  0  0  0  0
  -21.4780   -4.6130   24.9710 C   0  0  0  0  0  0  0  0  0  0  0  0
  -21.9110   -4.0380   23.7610 C   0  0  0  0  0  3  0  0  0  0  0  0
  -22.0200   -4.8320   22.6070 C   0  0  0  0  0  0  0  0  0  0  0  0
  -22.4190   -4.2700   21.4400 F   0  0  0  0  0  0  0  0  0  0  0  0
  -21.3680   -3.8430   26.0790 F   0  0  0  0  0  0  0  0  0  0  0  0
  -22.7970  -13.5700   21.0140 C   0  0  0  0  0  0  0  0  0  0  0  0
  -22.0550  -12.9020   21.8900 N   0  0  0  0  0  0  0  0  0  0  0  0
  -22.3600  -14.5690   20.4440 O   0  0  0  0  0  0  0  0  0  0  0  0
  -22.4180  -12.0930   22.3730 H   0  0  0  0  0  0  0  0  0  0  0  0
  -21.1080  -13.2030   22.0780 H   0  0  0  0  0  0  0  0  0  0  0  0
  -25.4310  -15.2330   20.2110 N   0  0  0  0  0  0  0  0  0  0  0  0
  -24.6590  -15.8880   20.2820 H   0  0  0  0  0  0  0  0  0  0  0  0
  -26.2960  -15.6630   19.9100 H   0  0  0  0  0  0  0  0  0  0  0  0
  -29.1520  -24.4960   20.3150 C   0  0  0  0  0  2  0  0  0  0  0  0
  -28.5270  -25.7020   21.0330 C   0  0  0  0  0  2  0  0  0  0  0  0
  -28.4420  -26.7860   20.1010 O   0  0  0  0  0  0  0  0  0  0  0  0
  -24.6130  -31.8950   23.2210 C   0  0  0  0  0  0  0  0  0  0  0  0
  -27.2660  -27.4900   20.1360 C   0  0  0  0  0  0  0  0  0  0  0  0
  -23.4030  -30.4870   21.5840 C   0  0  0  0  0  3  0  0  0  0  0  0
  -24.8570  -28.9550   20.1540 C   0  0  0  0  0  0  0  0  0  0  0  0
  -25.9190  -30.8700   21.3620 C   0  0  0  0  0  2  0  0  0  0  0  0
  -26.0110  -29.4970   20.7330 C   0  0  0  0  0  0  0  0  0  0  0  0
  -27.2210  -28.7710   20.7210 C   0  0  0  0  0  3  0  0  0  0  0  0
  -26.1020  -26.9520   19.5490 C   0  0  0  0  0  3  0  0  0  0  0  0
  -24.8950  -27.6800   19.5590 C   0  0  0  0  0  3  0  0  0  0  0  0
  -23.6070  -29.8030   20.2030 C   0  0  0  0  0  2  0  0  0  0  0  0
  -24.6640  -31.0980   22.1140 N   0  0  0  0  0  0  0  0  0  0  0  0
  -23.5350  -32.1600   23.7690 O   0  0  0  0  0  0  0  0  0  0  0  0
  -22.7640  -29.4630   22.5480 C   0  0  0  0  0  0  0  0  0  0  0  0
  -21.4400  -29.2780   22.4330 N   0  0  0  0  0  0  0  0  0  0  0  0
  -23.4580  -28.8370   23.3540 O   0  0  0  0  0  0  0  0  0  0  0  0
  -20.9430  -29.8350   21.7510 H   0  0  0  0  0  0  0  0  0  0  0  0
  -18.0710  -28.0800   22.9520 C   0  0  0  0  0  0  0  0  0  0  0  0
  -20.6310  -28.3380   23.2070 C   0  0  0  0  0  3  0  0  0  0  0  0
  -20.7300  -26.9090   22.6250 C   0  0  0  0  0  2  0  0  0  0  0  0
  -19.6210  -26.5890   21.6180 C   0  0  0  0  0  2  0  0  0  0  0  0
  -18.2440  -26.7330   22.2730 C   0  0  0  0  0  2  0  0  0  0  0  0
  -19.1930  -28.8410   23.3770 C   0  0  0  0  0  0  0  0  0  0  0  0
  -18.9790  -30.1030   23.9710 C   0  0  0  0  0  3  0  0  0  0  0  0
  -17.6760  -30.6050   24.1480 C   0  0  0  0  0  3  0  0  0  0  0  0
  -16.5690  -29.8400   23.7400 C   0  0  0  0  0  3  0  0  0  0  0  0
  -16.7680  -28.5800   23.1490 C   0  0  0  0  0  3  0  0  0  0  0  0
  -25.9010  -32.5310   23.8310 C   0  0  0  0  0  3  0  0  0  0  0  0
  -25.5910  -33.9260   24.1680 N   0  0  0  0  0  0  0  0  0  0  0  0
  -25.9140  -34.9810   23.4070 C   0  0  0  0  0  0  0  0  0  0  0  0
  -26.5800  -34.8810   22.3720 O   0  0  0  0  0  0  0  0  0  0  0  0
  -24.9990  -34.0760   24.9720 H   0  0  0  0  0  0  0  0  0  0  0  0
  -24.1800  -36.7690   23.0560 C   0  0  0  0  0  1  0  0  0  0  0  0
  -25.4220  -36.3660   23.8680 C   0  0  0  0  0  3  0  0  0  0  0  0
  -27.5550  -37.2530   24.7010 C   0  0  0  0  0  1  0  0  0  0  0  0
  -26.4520  -37.4220   23.7590 N   0  0  0  0  0  0  0  0  0  0  0  0
  -26.0430  -38.3400   23.9110 H   0  0  0  0  0  0  0  0  0  0  0  0
  -26.4370  -31.7560   25.0980 C   0  0  1  0  0  0  0  0  0  0  0  0
  -25.3580  -31.5070   26.1770 C   0  0  0  0  0  1  0  0  0  0  0  0
  -27.0220  -30.3850   24.6880 C   0  0  0  0  0  1  0  0  0  0  0  0
  -27.5900  -32.5540   25.7510 C   0  0  0  0  0  1  0  0  0  0  0  0
  3 18  1  0
  3  1  1  0
  4  3  1  0
  4  2  1  0
  5  4  1  0
  5  6  1  0
  5  1  1  0
  6  2  1  0
  6  7  1  1
  9 14  1  0
 10 11  1  0
 10  9  1  0
 12 11  1  0
 12 27  1  0
 12 13  1  0
 14  8  1  0
 14 13  1  0
 15  8  2  0
 16 18  2  0
 16 20  1  0
 17 19  1  0
 17 16  1  0
 19 22  1  0
 20 21  1  0
 22  8  1  0
 22 20  1  0
 23 17  2  0
 24 25  2  0
 25 26  1  0
 25 44  1  0
 26 29  1  0
 27 24  1  0
 27 28  1  0
 28 26  2  0
 29 30  1  0
 30 31  2  0
 32 35  1  0
 32 31  1  0
 33 32  2  0
 34 33  1  0
 34 29  2  0
 35 36  1  0
 36 37  1  0
 37 38  2  0
 39 38  1  0
 39 43  1  0
 40 39  2  0
 41 36  2  0
 41 40  1  0
 42 41  1  0
 44 45  1  0
 45 48  1  0
 45 47  1  0
 46 44  2  0
 49 50  1  0
 49 24  1  0
 51 49  1  0
 52 53  1  0
 52  6  1  0
 54 56  1  0
 54 53  1  0
 55 66  2  0
 56 61  1  0
 57 65  1  0
 57 67  1  0
 58 64  1  0
 58 60  1  0
 59 65  1  0
 60 59  1  0
 61 60  2  0
 62 63  1  0
 62 56  2  0
 63 58  2  0
 64 57  1  0
 65 55  1  0
 67 69  2  0
 68 67  1  0
 70 68  1  0
 71 80  2  0
 71 76  1  0
 72 68  1  0
 72 76  1  0
 73 72  1  0
 74 75  1  0
 74 73  1  0
 75 71  1  0
 76 77  2  0
 77 78  1  0
 79 78  2  0
 80 79  1  0
 81 55  1  0
 81 82  1  0
 81 91  1  0
 82 85  1  0
 83 87  1  0
 83 82  1  0
 84 83  2  0
 87 86  1  0
 89 87  1  0
 89 90  1  0
 89 88  1  0
 91 94  1  1
 91 92  1  0
 93 91  1  0
M  ISO  4   8 100  22 100  53 101  54 101
M  END
>  <TORSDO>  (24) 
F 18

>  <SCORE>  (24) 
-14.030

>  <name>  (24) 
23

>  <ligand_id>  (24) 
23

>  <original_smiles>  (24) 
[H]C(=C1C(=O)C([H])([H])N(C(=O)N2C([H])([H])C([H])([H])C([H])([H])C([H])(n3nc(-c4c([H])c([H])c(Oc5c([H])c([H])c(F)c([H])c5F)c([H])c4[H])c(C(=O)N([H])[H])c3N([H])[H])C2([H])[H])C1([H])C([H])([H])[H])C1([H])C([H])([H])C2([H])C1([H])C([H])([H])[N+]2([H])C([H])([H])C([H])([H])Oc1c([H])c([H])c2c(c1[H])C([H])([H])N(C(=O)C([H])(N([H])C(=O)C([H])(N([H])C([H])([H])[H])C([H])([H])[H])C(C([H])([H])[H])(C([H])([H])[H])C([H])([H])[H])C([H])(C(=O)N([H])C1([H])c3c([H])c([H])c([H])c([H])c3C([H])([H])C([H])([H])C1([H])[H])C2([H])[H]

>  <smiles>  (24) 
[H]C(=C1C(=O)C([H])([H])N(C(=O)N2C([H])([H])C([H])([H])C([H])([H])C([H])(n3nc(-c4c([H])c([H])c(Oc5c([H])c([H])c(F)c([H])c5F)c([H])c4[H])c(C(=O)N([H])[H])c3N([H])[H])C2([H])[H])C1([H])C([H])([H])[H])C1([H])C([H])([H])C2([H])C1([H])C([H])([H])[N+]2([H])C([H])([H])C([H])([H])Oc1c([H])c([H])c2c(c1[H])C([H])([H])N(C(=O)C([H])(N([H])C(=O)C([H])(N([H])C([H])([H])[H])C([H])([H])[H])C(C([H])([H])[H])(C([H])([H])[H])C([H])([H])[H])C([H])(C(=O)N([H])C1([H])c3c([H])c([H])c([H])c([H])c3C([H])([H])C([H])([H])C1([H])[H])C2([H])[H]

$$$$
24:0:0
     RDKit          3D

103112  0  0  1  0  0  0  0  0999 V2000
  -28.1440  -21.6040   19.4690 C   0  0  0  0  0  3  0  0  0  0  0  0
  -29.2530  -20.5960   19.9180 C   0  0  0  0  0  2  0  0  0  0  0  0
  -31.5180  -19.3000   19.7640 C   0  0  0  0  0  0  0  0  0  0  0  0
  -32.6850  -20.3340   18.0430 C   0  0  0  0  0  2  0  0  0  0  0  0
  -32.4360  -18.9330   18.5930 C   0  0  0  0  0  3  0  0  0  0  0  0
  -30.7270  -20.5550   19.3660 C   0  0  0  0  0  3  0  0  0  0  0  0
  -31.1930  -20.6370   17.8720 C   0  0  0  0  0  3  0  0  0  0  0  0
  -31.6440  -18.3680   17.3850 C   0  0  0  0  0  3  0  0  0  0  0  0
  -30.7520  -19.4930   17.0220 N   0  0  0  0  0  4  0  0  0  0  0  0
  -31.4590  -18.7050   20.8430 O   0  0  0  0  0  0  0  0  0  0  0  0
  -29.7790  -19.2580   17.1410 H   0  0  0  0  0  0  0  0  0  0  0  0
  -30.8860  -19.7000   16.0440 H   0  0  0  0  0  0  0  0  0  0  0  0
  -30.8600  -17.0600   17.5460 C   0  0  0  0  0  2  0  0  0  0  0  0
  -32.1770  -15.3420   18.7240 C   0  0  0  0  0  0  0  0  0  0  0  0
  -32.2310  -12.8940   18.9450 C   0  0  0  0  0  2  0  0  0  0  0  0
  -31.2290  -12.3320   17.9190 C   0  0  0  0  0  2  0  0  0  0  0  0
  -29.7950  -12.3110   18.4980 C   0  0  0  0  0  2  0  0  0  0  0  0
  -29.3770  -13.6660   19.1270 C   0  0  0  0  0  3  0  0  0  0  0  0
  -30.4830  -14.1320   20.1060 C   0  0  0  0  0  2  0  0  0  0  0  0
  -31.7530  -14.2220   19.3530 N   0  0  0  0  0  0  0  0  0  0  0  0
  -33.1930  -15.4100   18.0290 O   0  0  0  0  0  0  0  0  0  0  0  0
  -31.2410  -16.2950   18.7190 N   0  0  0  0  0  0  0  0  0  0  0  0
  -30.4870  -16.1180   19.3710 H   0  0  0  0  0  0  0  0  0  0  0  0
  -27.2700  -14.5840   20.3080 C   0  0  0  0  0  0  0  0  0  0  0  0
  -26.1390  -13.9640   20.7610 C   0  0  0  0  0  0  0  0  0  0  0  0
  -26.3200  -12.5720   20.4960 C   0  0  0  0  0  0  0  0  0  0  0  0
  -28.0780  -13.5800   19.7940 N   0  0  0  0  0  0  0  0  0  0  0  0
  -27.5130  -12.3580   19.9580 N   0  0  0  0  0  0  0  0  0  0  0  0
  -25.4010  -11.4380   20.6570 C   0  0  0  0  0  0  0  0  0  0  0  0
  -25.6940  -10.3720   21.5360 C   0  0  0  0  0  3  0  0  0  0  0  0
  -24.7910   -9.2990   21.6860 C   0  0  0  0  0  3  0  0  0  0  0  0
  -23.5780   -9.2830   20.9570 C   0  0  0  0  0  0  0  0  0  0  0  0
  -23.2980  -10.3390   20.0680 C   0  0  0  0  0  3  0  0  0  0  0  0
  -24.2010  -11.4030   19.9180 C   0  0  0  0  0  3  0  0  0  0  0  0
  -22.6490   -8.2750   21.0240 O   0  0  0  0  0  0  0  0  0  0  0  0
  -22.3700   -7.6290   22.2060 C   0  0  0  0  0  0  0  0  0  0  0  0
  -21.8790   -8.3230   23.3320 C   0  0  0  0  0  3  0  0  0  0  0  0
  -21.5420   -7.6120   24.5020 C   0  0  0  0  0  3  0  0  0  0  0  0
  -21.6810   -6.2130   24.5410 C   0  0  0  0  0  0  0  0  0  0  0  0
  -22.1590   -5.5200   23.4160 C   0  0  0  0  0  3  0  0  0  0  0  0
  -22.5010   -6.2280   22.2490 C   0  0  0  0  0  0  0  0  0  0  0  0
  -22.9450   -5.5540   21.1610 F   0  0  0  0  0  0  0  0  0  0  0  0
  -21.3450   -5.5300   25.6600 F   0  0  0  0  0  0  0  0  0  0  0  0
  -24.9140  -14.6240   21.3350 C   0  0  0  0  0  0  0  0  0  0  0  0
  -24.2220  -13.9520   22.2420 N   0  0  0  0  0  0  0  0  0  0  0  0
  -24.5960  -15.7680   21.0030 O   0  0  0  0  0  0  0  0  0  0  0  0
  -24.4770  -13.0170   22.5220 H   0  0  0  0  0  0  0  0  0  0  0  0
  -23.4060  -14.3740   22.6620 H   0  0  0  0  0  0  0  0  0  0  0  0
  -27.6770  -15.9180   20.2710 N   0  0  0  0  0  0  0  0  0  0  0  0
  -27.1040  -16.6730   20.6220 H   0  0  0  0  0  0  0  0  0  0  0  0
  -28.5570  -16.2360   19.8890 H   0  0  0  0  0  0  0  0  0  0  0  0
  -26.8100  -21.5370   20.3110 C   0  0  0  0  0  2  0  0  0  0  0  0
  -26.7520  -20.4930   21.3580 N   0  0  0  0  0  4  0  0  0  0  0  0
  -27.5930  -20.4720   21.9080 H   0  0  0  0  0  0  0  0  0  0  0  0
  -26.6010  -19.5710   20.9830 H   0  0  0  0  0  0  0  0  0  0  0  0
  -25.9950  -20.6890   21.9910 H   0  0  0  0  0  0  0  0  0  0  0  0
  -28.5680  -23.0810   19.1940 C   0  0  0  0  0  2  0  0  0  0  0  0
  -28.7820  -23.9390   20.3980 N   0  0  0  0  0  4  0  0  0  0  0  0
  -29.4030  -23.4820   21.0460 H   0  0  0  0  0  0  0  0  0  0  0  0
  -27.9070  -24.0530   20.8850 H   0  0  0  0  0  0  0  0  0  0  0  0
  -29.3160  -25.3100   20.1070 C   0  0  0  0  0  2  0  0  0  0  0  0
  -28.5230  -26.0290   18.9860 C   0  0  0  0  0  2  0  0  0  0  0  0
  -28.5340  -27.4700   19.0490 O   0  0  0  0  0  0  0  0  0  0  0  0
  -24.4930  -31.6430   23.1250 C   0  0  0  0  0  0  0  0  0  0  0  0
  -27.3120  -28.1080   19.1670 C   0  0  0  0  0  0  0  0  0  0  0  0
  -23.3140  -30.4220   21.3310 C   0  0  0  0  0  3  0  0  0  0  0  0
  -24.8030  -29.3650   19.5550 C   0  0  0  0  0  0  0  0  0  0  0  0
  -25.7670  -31.1010   21.0550 C   0  0  0  0  0  2  0  0  0  0  0  0
  -25.9450  -29.8770   20.1770 C   0  0  0  0  0  0  0  0  0  0  0  0
  -27.2010  -29.2520   19.9900 C   0  0  0  0  0  3  0  0  0  0  0  0
  -26.1600  -27.6680   18.4730 C   0  0  0  0  0  3  0  0  0  0  0  0
  -24.9080  -28.2650   18.6910 C   0  0  0  0  0  3  0  0  0  0  0  0
  -23.4780  -30.0400   19.8380 C   0  0  0  0  0  2  0  0  0  0  0  0
  -24.5500  -31.0530   21.8970 N   0  0  0  0  0  0  0  0  0  0  0  0
  -23.4300  -31.6900   23.7600 O   0  0  0  0  0  0  0  0  0  0  0  0
  -22.8500  -29.1700   22.1150 C   0  0  0  0  0  0  0  0  0  0  0  0
  -21.5690  -28.7990   21.9580 N   0  0  0  0  0  0  0  0  0  0  0  0
  -23.6420  -28.5470   22.8240 O   0  0  0  0  0  0  0  0  0  0  0  0
  -20.9760  -29.3840   21.3880 H   0  0  0  0  0  0  0  0  0  0  0  0
  -18.4750  -26.9520   22.1300 C   0  0  0  0  0  0  0  0  0  0  0  0
  -20.9260  -27.6320   22.5720 C   0  0  0  0  0  3  0  0  0  0  0  0
  -21.3100  -26.3220   21.8470 C   0  0  0  0  0  2  0  0  0  0  0  0
  -20.3250  -25.9300   20.7420 C   0  0  0  0  0  2  0  0  0  0  0  0
  -18.9160  -25.7500   21.3150 C   0  0  0  0  0  2  0  0  0  0  0  0
  -19.4160  -27.8430   22.7090 C   0  0  0  0  0  0  0  0  0  0  0  0
  -18.9470  -28.9700   23.4170 C   0  0  0  0  0  3  0  0  0  0  0  0
  -17.5670  -29.2070   23.5620 C   0  0  0  0  0  3  0  0  0  0  0  0
  -16.6390  -28.3090   23.0050 C   0  0  0  0  0  3  0  0  0  0  0  0
  -17.0950  -27.1810   22.2990 C   0  0  0  0  0  3  0  0  0  0  0  0
  -25.7480  -32.2990   23.7750 C   0  0  0  0  0  3  0  0  0  0  0  0
  -26.3310  -31.4630   24.9800 C   0  0  1  0  0  0  0  0  0  0  0  0
  -25.2740  -31.0780   26.0410 C   0  0  0  0  0  1  0  0  0  0  0  0
  -26.9820  -30.1570   24.4670 C   0  0  0  0  0  1  0  0  0  0  0  0
  -27.4490  -32.2660   25.6870 C   0  0  0  0  0  1  0  0  0  0  0  0
  -25.3600  -33.6420   24.2210 N   0  0  0  0  0  0  0  0  0  0  0  0
  -25.6630  -34.7750   23.5670 C   0  0  0  0  0  0  0  0  0  0  0  0
  -26.3670  -34.7960   22.5560 O   0  0  0  0  0  0  0  0  0  0  0  0
  -24.7320  -33.6990   25.0080 H   0  0  0  0  0  0  0  0  0  0  0  0
  -23.8740  -36.5200   23.2900 C   0  0  0  0  0  1  0  0  0  0  0  0
  -25.0900  -36.0900   24.1260 C   0  0  0  0  0  3  0  0  0  0  0  0
  -27.1400  -36.9710   25.1490 C   0  0  0  0  0  1  0  0  0  0  0  0
  -26.0790  -37.1890   24.1690 N   0  0  0  0  0  0  0  0  0  0  0  0
  -25.6250  -38.0730   24.3820 H   0  0  0  0  0  0  0  0  0  0  0  0
  1 57  1  0
  1  2  1  0
  1 52  1  0
  3 10  2  0
  5  4  1  0
  5  3  1  0
  6  3  1  0
  6  2  1  0
  7  4  1  0
  7  6  1  0
  8 13  1  0
  8  5  1  0
  9 11  1  0
  9  8  1  0
  9  7  1  0
 12  9  1  0
 13 22  1  0
 14 20  1  0
 15 20  1  0
 16 17  1  0
 16 15  1  0
 18 17  1  0
 18 27  1  0
 18 19  1  0
 20 19  1  0
 21 14  2  0
 22 14  1  0
 22 23  1  0
 24 25  2  0
 25 44  1  0
 26 29  1  0
 26 25  1  0
 27 28  1  0
 27 24  1  0
 28 26  2  0
 29 30  1  0
 30 31  2  0
 32 35  1  0
 32 31  1  0
 33 32  2  0
 34 33  1  0
 34 29  2  0
 35 36  1  0
 36 41  2  0
 36 37  1  0
 37 38  2  0
 38 39  1  0
 39 43  1  0
 40 39  2  0
 41 40  1  0
 42 41  1  0
 44 45  1  0
 45 47  1  0
 45 48  1  0
 46 44  2  0
 49 24  1  0
 49 50  1  0
 51 49  1  0
 52 53  1  0
 53 54  1  0
 53 56  1  0
 55 53  1  0
 57 58  1  0
 58 60  1  0
 58 59  1  0
 61 58  1  0
 62 63  1  0
 62 61  1  0
 63 65  1  0
 64 75  2  0
 65 70  1  0
 66 74  1  0
 66 76  1  0
 67 73  1  0
 67 69  1  0
 68 74  1  0
 69 68  1  0
 70 69  2  0
 71 72  1  0
 71 65  2  0
 72 67  2  0
 73 66  1  0
 74 64  1  0
 76 78  2  0
 77 76  1  0
 79 77  1  0
 80 89  2  0
 80 85  1  0
 81 77  1  0
 81 85  1  0
 82 81  1  0
 83 84  1  0
 83 82  1  0
 84 80  1  0
 85 86  2  0
 86 87  1  0
 88 87  2  0
 89 88  1  0
 90 64  1  0
 90 95  1  0
 90 91  1  0
 91 94  1  1
 91 92  1  0
 93 91  1  0
 95 98  1  0
 96100  1  0
 96 95  1  0
 97 96  2  0
100 99  1  0
100102  1  0
102103  1  0
102101  1  0
M  ISO  4  14 100  22 100  62 101  63 101
M  END
>  <TORSDO>  (25) 
F 25

>  <SCORE>  (25) 
-5.540

>  <name>  (25) 
24

>  <ligand_id>  (25) 
24

>  <original_smiles>  (25) 
[H]c1c([H])c([H])c2c(c1[H])C([H])([H])C([H])([H])C([H])([H])C2([H])N([H])C(=O)C1([H])N(C(=O)C([H])(N([H])C(=O)C([H])(N([H])C([H])([H])[H])C([H])([H])[H])C(C([H])([H])[H])(C([H])([H])[H])C([H])([H])[H])C([H])([H])c2c([H])c(OC([H])([H])C([H])([H])[N+]([H])([H])C([H])([H])C([H])(C([H])([H])C3([H])C(=O)C4([H])C([H])([H])C3([H])[N+]([H])([H])C4([H])C([H])([H])N([H])C(=O)N3C([H])([H])C([H])([H])C([H])([H])C([H])(n4nc(-c5c([H])c([H])c(Oc6c([H])c([H])c(F)c([H])c6F)c([H])c5[H])c(C(=O)N([H])[H])c4N([H])[H])C3([H])[H])C([H])([H])[N+]([H])([H])[H])c([H])c([H])c2C1([H])[H]

>  <smiles>  (25) 
[H]c1c([H])c([H])c2c(c1[H])C([H])([H])C([H])([H])C([H])([H])C2([H])N([H])C(=O)C1([H])N(C(=O)C([H])(N([H])C(=O)C([H])(N([H])C([H])([H])[H])C([H])([H])[H])C(C([H])([H])[H])(C([H])([H])[H])C([H])([H])[H])C([H])([H])c2c([H])c(OC([H])([H])C([H])([H])[N+]([H])([H])C([H])([H])C([H])(C([H])([H])C3([H])C(=O)C4([H])C([H])([H])C3([H])[N+]([H])([H])C4([H])C([H])([H])N([H])C(=O)N3C([H])([H])C([H])([H])C([H])([H])C([H])(n4nc(-c5c([H])c([H])c(Oc6c([H])c([H])c(F)c([H])c6F)c([H])c5[H])c(C(=O)N([H])[H])c4N([H])[H])C3([H])[H])C([H])([H])[N+]([H])([H])[H])c([H])c([H])c2C1([H])[H]

$$$$
25:0:0
     RDKit          3D

 88 97  0  0  1  0  0  0  0  0999 V2000
  -29.4500  -19.0520   21.4890 C   0  0  0  0  0  2  0  0  0  0  0  0
  -29.6680  -21.6400   18.8390 C   0  0  0  0  0  2  0  0  0  0  0  0
  -29.2220  -20.6160   21.6560 C   0  0  0  0  0  2  0  0  0  0  0  0
  -29.8520  -18.7010   20.0280 C   0  0  0  0  0  3  0  0  0  0  0  0
  -29.0800  -20.1960   19.3640 C   0  0  0  0  0  3  0  0  0  0  0  0
  -29.0170  -22.6660   19.9270 C   0  0  0  0  0  3  0  0  0  0  0  0
  -28.5770  -21.2000   20.4360 N   0  0  2  0  0  4  0  0  0  0  0  0
  -27.5730  -21.1410   20.5110 H   0  0  0  0  0  0  0  0  0  0  0  0
  -30.4910  -15.6960   19.7080 C   0  0  0  0  0  0  0  0  0  0  0  0
  -30.4710  -13.1900   18.8950 C   0  0  0  0  0  2  0  0  0  0  0  0
  -29.4720  -12.8350   17.7600 C   0  0  0  0  0  2  0  0  0  0  0  0
  -28.0760  -12.5370   18.3290 C   0  0  0  0  0  2  0  0  0  0  0  0
  -27.6720  -13.5580   19.4190 C   0  0  0  0  0  3  0  0  0  0  0  0
  -28.7940  -13.8220   20.4460 C   0  0  0  0  0  2  0  0  0  0  0  0
  -29.9360  -14.3670   19.6880 N   0  0  0  0  0  0  0  0  0  0  0  0
  -31.7130  -15.6680   19.4920 O   0  0  0  0  0  0  0  0  0  0  0  0
  -29.7160  -17.0010   19.7650 N   0  0  0  0  0  0  0  0  0  0  0  0
  -28.7370  -16.7570   19.7510 H   0  0  0  0  0  0  0  0  0  0  0  0
  -25.3880  -14.1170   20.3950 C   0  0  0  0  0  0  0  0  0  0  0  0
  -24.3470  -13.3430   20.8220 C   0  0  0  0  0  0  0  0  0  0  0  0
  -24.7860  -11.9880   20.7070 C   0  0  0  0  0  0  0  0  0  0  0  0
  -26.3940  -13.2360   20.0380 N   0  0  0  0  0  0  0  0  0  0  0  0
  -26.0490  -11.9470   20.2900 N   0  0  0  0  0  0  0  0  0  0  0  0
  -24.0530  -10.7310   20.9060 C   0  0  0  0  0  0  0  0  0  0  0  0
  -24.4880   -9.7620   21.8360 C   0  0  0  0  0  3  0  0  0  0  0  0
  -23.7530   -8.5710   22.0300 C   0  0  0  0  0  3  0  0  0  0  0  0
  -22.5650   -8.3450   21.2930 C   0  0  0  0  0  0  0  0  0  0  0  0
  -22.1470   -9.3030   20.3530 C   0  0  0  0  0  3  0  0  0  0  0  0
  -22.8840  -10.4840   20.1600 C   0  0  0  0  0  3  0  0  0  0  0  0
  -21.7980   -7.2090   21.3960 O   0  0  0  0  0  0  0  0  0  0  0  0
  -21.6950   -6.5170   22.5740 C   0  0  0  0  0  0  0  0  0  0  0  0
  -21.1330   -7.0950   23.7330 C   0  0  0  0  0  3  0  0  0  0  0  0
  -20.9830   -6.3250   24.9020 C   0  0  0  0  0  3  0  0  0  0  0  0
  -21.3830   -4.9750   24.9120 C   0  0  0  0  0  0  0  0  0  0  0  0
  -21.9370   -4.3950   23.7580 C   0  0  0  0  0  3  0  0  0  0  0  0
  -22.0890   -5.1630   22.5890 C   0  0  0  0  0  0  0  0  0  0  0  0
  -22.6040   -4.5930   21.4750 F   0  0  0  0  0  0  0  0  0  0  0  0
  -21.2310   -4.2320   26.0340 F   0  0  0  0  0  0  0  0  0  0  0  0
  -22.9850  -13.8330   21.2120 C   0  0  0  0  0  0  0  0  0  0  0  0
  -22.3100  -13.1250   22.1110 N   0  0  0  0  0  0  0  0  0  0  0  0
  -22.5290  -14.8820   20.7560 O   0  0  0  0  0  0  0  0  0  0  0  0
  -22.6890  -12.2770   22.5040 H   0  0  0  0  0  0  0  0  0  0  0  0
  -21.4010  -13.4420   22.4130 H   0  0  0  0  0  0  0  0  0  0  0  0
  -25.5560  -15.4910   20.2480 N   0  0  0  0  0  0  0  0  0  0  0  0
  -24.7960  -16.1410   20.4260 H   0  0  0  0  0  0  0  0  0  0  0  0
  -26.3510  -15.9260   19.8030 H   0  0  0  0  0  0  0  0  0  0  0  0
  -28.0020  -24.2390   19.7800 C   0  0  0  0  0  2  0  0  0  0  0  0
  -28.1890  -25.9290   19.9230 O   0  0  0  0  0  0  0  0  0  0  0  0
  -24.6300  -31.8720   23.1550 C   0  0  0  0  0  0  0  0  0  0  0  0
  -27.1700  -27.0580   19.9170 C   0  0  0  0  0  0  0  0  0  0  0  0
  -23.4180  -30.5220   21.4970 C   0  0  0  0  0  3  0  0  0  0  0  0
  -24.8510  -28.9700   19.9820 C   0  0  0  0  0  0  0  0  0  0  0  0
  -25.9830  -30.7420   21.3030 C   0  0  0  0  0  2  0  0  0  0  0  0
  -26.0510  -29.3500   20.5950 C   0  0  0  0  0  0  0  0  0  0  0  0
  -27.2000  -28.4200   20.5330 C   0  0  0  0  0  3  0  0  0  0  0  0
  -25.9310  -26.8550   19.2630 C   0  0  0  0  0  3  0  0  0  0  0  0
  -24.8240  -27.7480   19.2900 C   0  0  0  0  0  3  0  0  0  0  0  0
  -23.6250  -29.8870   20.0930 C   0  0  0  0  0  2  0  0  0  0  0  0
  -24.7020  -31.0750   22.0370 N   0  0  0  0  0  0  0  0  0  0  0  0
  -23.5480  -32.1310   23.7090 O   0  0  0  0  0  0  0  0  0  0  0  0
  -22.7500  -29.4890   22.4420 C   0  0  0  0  0  0  0  0  0  0  0  0
  -21.4300  -29.2660   22.2980 N   0  0  0  0  0  0  0  0  0  0  0  0
  -23.4310  -28.8870   23.2760 O   0  0  0  0  0  0  0  0  0  0  0  0
  -20.9320  -29.8060   21.6030 H   0  0  0  0  0  0  0  0  0  0  0  0
  -18.1050  -27.8750   22.7370 C   0  0  0  0  0  0  0  0  0  0  0  0
  -20.6420  -28.2810   23.0470 C   0  0  0  0  0  3  0  0  0  0  0  0
  -20.8330  -26.8620   22.4640 C   0  0  0  0  0  2  0  0  0  0  0  0
  -19.7700  -26.4870   21.4270 C   0  0  0  0  0  2  0  0  0  0  0  0
  -18.3710  -26.5470   22.0490 C   0  0  0  0  0  2  0  0  0  0  0  0
  -19.1730  -28.6970   23.1910 C   0  0  0  0  0  0  0  0  0  0  0  0
  -18.8720  -29.9360   23.7970 C   0  0  0  0  0  3  0  0  0  0  0  0
  -17.5380  -30.3560   23.9520 C   0  0  0  0  0  3  0  0  0  0  0  0
  -16.4860  -29.5340   23.5130 C   0  0  0  0  0  3  0  0  0  0  0  0
  -16.7700  -28.2950   22.9110 C   0  0  0  0  0  3  0  0  0  0  0  0
  -25.9030  -32.5130   23.7870 C   0  0  0  0  0  3  0  0  0  0  0  0
  -25.5920  -33.9170   24.1190 N   0  0  0  0  0  0  0  0  0  0  0  0
  -25.8930  -34.9760   23.3540 C   0  0  0  0  0  0  0  0  0  0  0  0
  -26.5240  -34.8740   22.2980 O   0  0  0  0  0  0  0  0  0  0  0  0
  -25.0280  -34.0690   24.9430 H   0  0  0  0  0  0  0  0  0  0  0  0
  -24.1400  -36.7680   23.0910 C   0  0  0  0  0  1  0  0  0  0  0  0
  -25.4260  -36.3670   23.8330 C   0  0  0  0  0  3  0  0  0  0  0  0
  -27.5850  -37.2870   24.5600 C   0  0  0  0  0  1  0  0  0  0  0  0
  -26.4450  -37.4250   23.6580 N   0  0  0  0  0  0  0  0  0  0  0  0
  -26.0390  -38.3470   23.7990 H   0  0  0  0  0  0  0  0  0  0  0  0
  -26.4030  -31.7530   25.0780 C   0  0  1  0  0  0  0  0  0  0  0  0
  -25.2970  -31.5310   26.1380 C   0  0  0  0  0  1  0  0  0  0  0  0
  -26.9860  -30.3690   24.7160 C   0  0  0  0  0  1  0  0  0  0  0  0
  -27.5460  -32.5530   25.7450 C   0  0  0  0  0  1  0  0  0  0  0  0
  1  3  1  0
  2  6  1  0
  4 17  1  0
  4  1  1  0
  5  2  1  0
  5  4  1  0
  5  7  1  0
  6 47  1  0
  6  7  1  0
  7  8  1  1
  7  3  1  0
  9 17  1  0
 10 15  1  0
 11 12  1  0
 11 10  1  0
 13 12  1  0
 13 22  1  0
 13 14  1  0
 15  9  1  0
 15 14  1  0
 16  9  2  0
 18 17  1  0
 19 20  2  0
 20 39  1  0
 21 20  1  0
 21 24  1  0
 22 23  1  0
 22 19  1  0
 23 21  2  0
 24 25  1  0
 25 26  2  0
 27 30  1  0
 27 26  1  0
 28 27  2  0
 29 28  1  0
 29 24  2  0
 30 31  1  0
 31 36  2  0
 31 32  1  0
 32 33  2  0
 33 34  1  0
 34 38  1  0
 35 34  2  0
 36 35  1  0
 37 36  1  0
 39 40  1  0
 40 43  1  0
 40 42  1  0
 41 39  2  0
 44 19  1  0
 44 45  1  0
 46 44  1  0
 47 48  1  0
 49 60  2  0
 50 48  1  0
 50 55  1  0
 51 59  1  0
 51 61  1  0
 52 58  1  0
 52 54  1  0
 53 59  1  0
 54 53  1  0
 55 54  2  0
 56 57  1  0
 56 50  2  0
 57 52  2  0
 58 51  1  0
 59 49  1  0
 61 63  2  0
 62 61  1  0
 64 62  1  0
 65 74  2  0
 65 70  1  0
 66 62  1  0
 66 70  1  0
 67 66  1  0
 68 69  1  0
 68 67  1  0
 69 65  1  0
 70 71  2  0
 71 72  1  0
 73 72  2  0
 74 73  1  0
 75 49  1  0
 75 76  1  0
 75 85  1  0
 76 79  1  0
 77 81  1  0
 77 76  1  0
 78 77  2  0
 81 80  1  0
 83 84  1  0
 83 81  1  0
 83 82  1  0
 85 88  1  1
 85 86  1  0
 87 85  1  0
M  ISO  4   9 100  17 100  47 101  48 101
M  END
>  <TORSDO>  (26) 
F 17

>  <SCORE>  (26) 
-15.368

>  <name>  (26) 
25

>  <ligand_id>  (26) 
25

>  <original_smiles>  (26) 
[H]c1c([H])c([H])c2c(c1[H])C([H])([H])C([H])([H])C([H])([H])C2([H])N([H])C(=O)C1([H])N(C(=O)C([H])(N([H])C(=O)C([H])(N([H])C([H])([H])[H])C([H])([H])[H])C(C([H])([H])[H])(C([H])([H])[H])C([H])([H])[H])C([H])([H])c2c([H])c(OC([H])([H])C3([H])C([H])([H])C4([H])C([H])(N([H])C(=O)N5C([H])([H])C([H])([H])C([H])([H])C([H])(n6nc(-c7c([H])c([H])c(Oc8c([H])c([H])c(F)c([H])c8F)c([H])c7[H])c(C(=O)N([H])[H])c6N([H])[H])C5([H])[H])C([H])([H])C([H])([H])[N+]34[H])c([H])c([H])c2C1([H])[H]

>  <smiles>  (26) 
[H]c1c([H])c([H])c2c(c1[H])C([H])([H])C([H])([H])C([H])([H])C2([H])N([H])C(=O)C1([H])N(C(=O)C([H])(N([H])C(=O)C([H])(N([H])C([H])([H])[H])C([H])([H])[H])C(C([H])([H])[H])(C([H])([H])[H])C([H])([H])[H])C([H])([H])c2c([H])c(OC([H])([H])C3([H])C([H])([H])C4([H])C([H])(N([H])C(=O)N5C([H])([H])C([H])([H])C([H])([H])C([H])(n6nc(-c7c([H])c([H])c(Oc8c([H])c([H])c(F)c([H])c8F)c([H])c7[H])c(C(=O)N([H])[H])c6N([H])[H])C5([H])[H])C([H])([H])C([H])([H])[N+]34[H])c([H])c([H])c2C1([H])[H]

$$$$
26:0:0
     RDKit          3D

 99107  0  0  1  0  0  0  0  0999 V2000
  -30.4920  -19.7730   20.4870 C   0  0  0  0  0  3  0  0  0  0  0  0
  -30.8770  -15.3820   21.0860 C   0  0  0  0  0  0  0  0  0  0  0  0
  -30.8250  -12.9660   20.3260 C   0  0  0  0  0  2  0  0  0  0  0  0
  -30.0740  -12.7130   19.0030 C   0  0  0  0  0  2  0  0  0  0  0  0
  -28.5780  -12.4820   19.2760 C   0  0  0  0  0  2  0  0  0  0  0  0
  -27.9790  -13.5230   20.2530 C   0  0  0  0  0  3  0  0  0  0  0  0
  -28.8790  -13.7770   21.4830 C   0  0  0  0  0  2  0  0  0  0  0  0
  -30.2040  -14.1600   20.9680 N   0  0  0  0  0  0  0  0  0  0  0  0
  -32.0810  -15.2690   21.3180 O   0  0  0  0  0  0  0  0  0  0  0  0
  -32.0650  -17.7380   18.5310 C   0  0  0  0  0  2  0  0  0  0  0  0
  -32.3320  -17.9750   20.0380 C   0  0  0  0  0  2  0  0  0  0  0  0
  -29.8530  -16.6920   19.2700 C   0  0  0  0  0  2  0  0  0  0  0  0
  -31.0450  -16.6060   18.2750 C   0  0  0  0  0  3  0  0  0  0  0  0
  -30.9950  -18.1270   20.8610 C   0  0  0  0  0  3  0  0  0  0  0  0
  -30.3430  -16.6720   20.6600 N   0  0  0  0  0  0  0  0  0  0  0  0
  -25.5370  -14.1290   20.6570 C   0  0  0  0  0  0  0  0  0  0  0  0
  -24.4280  -13.3630   20.8870 C   0  0  0  0  0  0  0  0  0  0  0  0
  -24.8880  -12.0140   20.9650 C   0  0  0  0  0  0  0  0  0  0  0  0
  -26.5970  -13.2400   20.5960 N   0  0  0  0  0  0  0  0  0  0  0  0
  -26.2090  -11.9670   20.8500 N   0  0  0  0  0  0  0  0  0  0  0  0
  -24.1410  -10.7560   21.0800 C   0  0  0  0  0  0  0  0  0  0  0  0
  -24.4890   -9.7800   22.0400 C   0  0  0  0  0  3  0  0  0  0  0  0
  -23.7450   -8.5870   22.1470 C   0  0  0  0  0  3  0  0  0  0  0  0
  -22.6380   -8.3640   21.2950 C   0  0  0  0  0  0  0  0  0  0  0  0
  -22.3070   -9.3290   20.3280 C   0  0  0  0  0  3  0  0  0  0  0  0
  -23.0520  -10.5150   20.2190 C   0  0  0  0  0  3  0  0  0  0  0  0
  -21.8710   -7.2230   21.3120 O   0  0  0  0  0  0  0  0  0  0  0  0
  -21.7270   -6.4710   22.4490 C   0  0  0  0  0  0  0  0  0  0  0  0
  -21.1610   -7.0050   23.6260 C   0  0  0  0  0  3  0  0  0  0  0  0
  -20.9670   -6.1800   24.7510 C   0  0  0  0  0  3  0  0  0  0  0  0
  -21.3270   -4.8200   24.6980 C   0  0  0  0  0  0  0  0  0  0  0  0
  -21.8880   -4.2850   23.5240 C   0  0  0  0  0  3  0  0  0  0  0  0
  -22.0830   -5.1080   22.4010 C   0  0  0  0  0  0  0  0  0  0  0  0
  -22.6040   -4.5850   21.2650 F   0  0  0  0  0  0  0  0  0  0  0  0
  -21.1340   -4.0220   25.7740 F   0  0  0  0  0  0  0  0  0  0  0  0
  -23.0090  -13.8480   20.9350 C   0  0  0  0  0  0  0  0  0  0  0  0
  -22.1720  -13.2050   21.7420 N   0  0  0  0  0  0  0  0  0  0  0  0
  -22.6460  -14.8340   20.2940 O   0  0  0  0  0  0  0  0  0  0  0  0
  -22.4800  -12.4110   22.2820 H   0  0  0  0  0  0  0  0  0  0  0  0
  -21.2140  -13.5150   21.8230 H   0  0  0  0  0  0  0  0  0  0  0  0
  -25.7290  -15.4930   20.4650 N   0  0  0  0  0  0  0  0  0  0  0  0
  -24.9580  -16.1520   20.4520 H   0  0  0  0  0  0  0  0  0  0  0  0
  -26.6250  -15.9250   20.2830 H   0  0  0  0  0  0  0  0  0  0  0  0
  -30.5940  -16.5900   16.8660 N   0  0  0  0  0  4  0  0  0  0  0  0
  -30.0540  -17.4040   16.6320 H   0  0  0  0  0  0  0  0  0  0  0  0
  -30.0310  -15.7790   16.6770 H   0  0  0  0  0  0  0  0  0  0  0  0
  -31.3850  -16.5530   16.2470 H   0  0  0  0  0  0  0  0  0  0  0  0
  -31.6470  -20.7570   20.9250 C   0  0  0  0  0  2  0  0  0  0  0  0
  -32.0220  -20.6740   22.3550 N   0  0  0  0  0  4  0  0  0  0  0  0
  -31.2510  -20.8910   22.9630 H   0  0  0  0  0  0  0  0  0  0  0  0
  -32.7500  -21.3420   22.5510 H   0  0  0  0  0  0  0  0  0  0  0  0
  -32.3770  -19.7670   22.5950 H   0  0  0  0  0  0  0  0  0  0  0  0
  -29.1800  -20.7630   20.8290 C   0  0  0  0  0  2  0  0  0  0  0  0
  -28.9150  -22.1540   20.0800 N   0  0  0  0  0  4  0  0  0  0  0  0
  -29.2340  -22.0620   19.1280 H   0  0  0  0  0  0  0  0  0  0  0  0
  -27.9090  -22.1470   20.0060 H   0  0  0  0  0  0  0  0  0  0  0  0
  -29.2110  -23.6470   20.5530 C   0  0  0  0  0  3  0  0  0  0  0  0
  -28.2650  -24.9530   20.0330 C   0  0  0  0  0  3  0  0  0  0  0  0
  -28.4870  -26.4850   20.2290 O   0  0  0  0  0  0  0  0  0  0  0  0
  -24.6540  -31.9870   23.2630 C   0  0  0  0  0  0  0  0  0  0  0  0
  -27.4050  -27.4370   20.1500 C   0  0  0  0  0  0  0  0  0  0  0  0
  -23.5110  -30.5980   21.5790 C   0  0  0  0  0  3  0  0  0  0  0  0
  -25.0220  -29.1100   20.1270 C   0  0  0  0  0  0  0  0  0  0  0  0
  -26.0580  -30.9500   21.4400 C   0  0  0  0  0  2  0  0  0  0  0  0
  -26.1830  -29.5790   20.7560 C   0  0  0  0  0  0  0  0  0  0  0  0
  -27.3760  -28.7630   20.7470 C   0  0  0  0  0  3  0  0  0  0  0  0
  -26.2160  -27.0710   19.4810 C   0  0  0  0  0  3  0  0  0  0  0  0
  -25.0530  -27.8700   19.4750 C   0  0  0  0  0  3  0  0  0  0  0  0
  -23.7640  -29.9640   20.1870 C   0  0  0  0  0  2  0  0  0  0  0  0
  -24.7610  -31.1970   22.1520 N   0  0  0  0  0  0  0  0  0  0  0  0
  -23.5540  -32.2300   23.7850 O   0  0  0  0  0  0  0  0  0  0  0  0
  -22.8560  -29.5460   22.5080 C   0  0  0  0  0  0  0  0  0  0  0  0
  -21.5320  -29.3490   22.3730 N   0  0  0  0  0  0  0  0  0  0  0  0
  -23.5410  -28.9060   23.3100 O   0  0  0  0  0  0  0  0  0  0  0  0
  -21.0320  -29.9210   21.7070 H   0  0  0  0  0  0  0  0  0  0  0  0
  -18.1730  -28.0810   22.8560 C   0  0  0  0  0  0  0  0  0  0  0  0
  -20.7310  -28.3710   23.1150 C   0  0  0  0  0  3  0  0  0  0  0  0
  -20.8470  -26.9600   22.4880 C   0  0  0  0  0  2  0  0  0  0  0  0
  -19.7430  -26.6620   21.4700 C   0  0  0  0  0  2  0  0  0  0  0  0
  -18.3640  -26.7620   22.1290 C   0  0  0  0  0  2  0  0  0  0  0  0
  -19.2850  -28.8440   23.3050 C   0  0  0  0  0  0  0  0  0  0  0  0
  -19.0510  -30.0790   23.9470 C   0  0  0  0  0  3  0  0  0  0  0  0
  -17.7410  -30.5530   24.1440 C   0  0  0  0  0  3  0  0  0  0  0  0
  -16.6440  -29.7870   23.7110 C   0  0  0  0  0  3  0  0  0  0  0  0
  -16.8610  -28.5540   23.0710 C   0  0  0  0  0  3  0  0  0  0  0  0
  -25.9070  -32.6410   23.9200 C   0  0  0  0  0  3  0  0  0  0  0  0
  -25.5710  -34.0400   24.2270 N   0  0  0  0  0  0  0  0  0  0  0  0
  -25.8930  -35.0900   23.4590 C   0  0  0  0  0  0  0  0  0  0  0  0
  -26.5710  -34.9840   22.4340 O   0  0  0  0  0  0  0  0  0  0  0  0
  -24.9650  -34.1990   25.0190 H   0  0  0  0  0  0  0  0  0  0  0  0
  -24.1240  -36.8450   23.0980 C   0  0  0  0  0  1  0  0  0  0  0  0
  -25.3840  -36.4780   23.8970 C   0  0  0  0  0  3  0  0  0  0  0  0
  -27.5070  -37.4290   24.6870 C   0  0  0  0  0  1  0  0  0  0  0  0
  -26.3920  -37.5500   23.7510 N   0  0  0  0  0  0  0  0  0  0  0  0
  -25.9670  -38.4620   23.8900 H   0  0  0  0  0  0  0  0  0  0  0  0
  -26.3940  -31.8900   25.2210 C   0  0  1  0  0  0  0  0  0  0  0  0
  -25.2660  -31.6280   26.2450 C   0  0  0  0  0  1  0  0  0  0  0  0
  -27.0290  -30.5240   24.8690 C   0  0  0  0  0  1  0  0  0  0  0  0
  -27.4920  -32.7240   25.9240 C   0  0  0  0  0  1  0  0  0  0  0  0
  1 53  1  0
  1 48  1  0
  2  9  2  0
  3  8  1  0
  4  5  1  0
  4  3  1  0
  6  5  1  0
  6 19  1  0
  6  7  1  0
  8  2  1  0
  8  7  1  0
 10 11  1  0
 11 14  1  0
 12 15  1  0
 13 44  1  0
 13 10  1  0
 13 12  1  0
 14  1  1  0
 15 14  1  0
 15  2  1  0
 16 17  2  0
 17 36  1  0
 17 18  1  0
 18 21  1  0
 19 16  1  0
 19 20  1  0
 20 18  2  0
 21 22  1  0
 22 23  2  0
 24 27  1  0
 24 23  1  0
 25 24  2  0
 26 25  1  0
 26 21  2  0
 27 28  1  0
 28 29  1  0
 29 30  2  0
 31 30  1  0
 31 35  1  0
 32 31  2  0
 33 28  2  0
 33 32  1  0
 34 33  1  0
 36 37  1  0
 37 40  1  0
 37 39  1  0
 38 36  2  0
 41 16  1  0
 42 41  1  0
 43 41  1  0
 45 44  1  0
 46 44  1  0
 47 44  1  0
 48 49  1  0
 49 51  1  0
 49 52  1  0
 49 50  1  0
 54 57  1  0
 54 53  1  0
 55 54  1  0
 56 54  1  0
 58 59  1  0
 58 57  2  0
 60 71  2  0
 61 59  1  0
 61 66  1  0
 62 70  1  0
 62 72  1  0
 63 69  1  0
 63 65  1  0
 64 70  1  0
 65 64  1  0
 66 65  2  0
 67 61  2  0
 68 67  1  0
 68 63  2  0
 69 62  1  0
 70 60  1  0
 72 74  2  0
 73 72  1  0
 75 73  1  0
 76 85  2  0
 76 81  1  0
 77 73  1  0
 77 81  1  0
 78 77  1  0
 79 80  1  0
 79 78  1  0
 80 76  1  0
 81 82  2  0
 82 83  1  0
 84 83  2  0
 85 84  1  0
 86 60  1  0
 86 87  1  0
 86 96  1  0
 87 90  1  0
 88 92  1  0
 88 87  1  0
 89 88  2  0
 92 91  1  0
 94 95  1  0
 94 92  1  0
 94 93  1  0
 96 99  1  1
 96 97  1  0
 98 96  1  0
M  ISO  4   2 100  15 100  58 101  59 101
M  END
>  <TORSDO>  (27) 
F 23

>  <SCORE>  (27) 
-13.018

>  <name>  (27) 
26

>  <ligand_id>  (27) 
26

>  <original_smiles>  (27) 
[H]c1c([H])c([H])c2c(c1[H])C([H])([H])C([H])([H])C([H])([H])C2([H])N([H])C(=O)C1([H])N(C(=O)C([H])(N([H])C(=O)C([H])(N([H])C([H])([H])[H])C([H])([H])[H])C(C([H])([H])[H])(C([H])([H])[H])C([H])([H])[H])C([H])([H])c2c([H])c(OC([H])([H])C([H])([H])[N+]([H])([H])C([H])([H])C([H])(C3([H])N(C(=O)N4C([H])([H])C([H])([H])C([H])([H])C([H])(n5nc(-c6c([H])c([H])c(Oc7c([H])c([H])c(F)c([H])c7F)c([H])c6[H])c(C(=O)N([H])[H])c5N([H])[H])C4([H])[H])C([H])([H])C([H])([N+]([H])([H])[H])C([H])([H])C3([H])[H])C([H])([H])[N+]([H])([H])[H])c([H])c([H])c2C1([H])[H]

>  <smiles>  (27) 
[H]c1c([H])c([H])c2c(c1[H])C([H])([H])C([H])([H])C([H])([H])C2([H])N([H])C(=O)C1([H])N(C(=O)C([H])(N([H])C(=O)C([H])(N([H])C([H])([H])[H])C([H])([H])[H])C(C([H])([H])[H])(C([H])([H])[H])C([H])([H])[H])C([H])([H])c2c([H])c(OC([H])([H])C([H])([H])[N+]([H])([H])C([H])([H])C([H])(C3([H])N(C(=O)N4C([H])([H])C([H])([H])C([H])([H])C([H])(n5nc(-c6c([H])c([H])c(Oc7c([H])c([H])c(F)c([H])c7F)c([H])c6[H])c(C(=O)N([H])[H])c5N([H])[H])C4([H])[H])C([H])([H])C([H])([N+]([H])([H])[H])C([H])([H])C3([H])[H])C([H])([H])[N+]([H])([H])[H])c([H])c([H])c2C1([H])[H]

$$$$
27:0:0
     RDKit          3D

 93102  0  0  1  0  0  0  0  0999 V2000
  -28.5610  -23.1360   19.5750 C   0  0  0  0  0  0  0  0  0  0  0  0
  -29.3600  -22.0550   19.6110 N   0  0  0  0  0  0  0  0  0  0  0  0
  -27.4050  -23.0760   19.1500 O   0  0  0  0  0  0  0  0  0  0  0  0
  -30.3070  -22.1790   19.9450 H   0  0  0  0  0  0  0  0  0  0  0  0
  -29.1240  -24.4620   20.1190 C   0  0  0  0  0  2  0  0  0  0  0  0
  -28.7590  -25.7090   19.2740 C   0  0  0  0  0  2  0  0  0  0  0  0
  -28.4750  -26.8180   20.1370 O   0  0  0  0  0  0  0  0  0  0  0  0
  -24.5690  -31.8740   23.2220 C   0  0  0  0  0  0  0  0  0  0  0  0
  -27.2490  -27.4560   20.1310 C   0  0  0  0  0  0  0  0  0  0  0  0
  -23.3660  -30.4650   21.5800 C   0  0  0  0  0  3  0  0  0  0  0  0
  -24.8260  -28.9300   20.1580 C   0  0  0  0  0  0  0  0  0  0  0  0
  -25.8860  -30.8400   21.3760 C   0  0  0  0  0  2  0  0  0  0  0  0
  -25.9780  -29.4670   20.7450 C   0  0  0  0  0  0  0  0  0  0  0  0
  -27.1850  -28.7340   20.7320 C   0  0  0  0  0  3  0  0  0  0  0  0
  -26.0650  -26.9160   19.5720 C   0  0  0  0  0  3  0  0  0  0  0  0
  -24.8650  -27.6520   19.5760 C   0  0  0  0  0  3  0  0  0  0  0  0
  -23.5760  -29.7790   20.2020 C   0  0  0  0  0  2  0  0  0  0  0  0
  -24.6260  -31.0730   22.1190 N   0  0  0  0  0  0  0  0  0  0  0  0
  -23.4860  -32.1440   23.7610 O   0  0  0  0  0  0  0  0  0  0  0  0
  -22.7150  -29.4470   22.5430 C   0  0  0  0  0  0  0  0  0  0  0  0
  -21.3910  -29.2700   22.4160 N   0  0  0  0  0  0  0  0  0  0  0  0
  -23.4010  -28.8180   23.3530 O   0  0  0  0  0  0  0  0  0  0  0  0
  -20.9030  -29.8250   21.7280 H   0  0  0  0  0  0  0  0  0  0  0  0
  -18.0130  -28.0990   22.9210 C   0  0  0  0  0  0  0  0  0  0  0  0
  -20.5740  -28.3340   23.1860 C   0  0  0  0  0  3  0  0  0  0  0  0
  -20.6650  -26.9080   22.5990 C   0  0  0  0  0  2  0  0  0  0  0  0
  -19.5530  -26.5990   21.5880 C   0  0  0  0  0  2  0  0  0  0  0  0
  -18.1750  -26.7520   22.2390 C   0  0  0  0  0  2  0  0  0  0  0  0
  -19.1400  -28.8490   23.3540 C   0  0  0  0  0  0  0  0  0  0  0  0
  -18.9350  -30.1090   23.9540 C   0  0  0  0  0  3  0  0  0  0  0  0
  -17.6350  -30.6230   24.1260 C   0  0  0  0  0  3  0  0  0  0  0  0
  -16.5220  -29.8700   23.7100 C   0  0  0  0  0  3  0  0  0  0  0  0
  -16.7120  -28.6110   23.1130 C   0  0  0  0  0  3  0  0  0  0  0  0
  -25.8520  -32.5040   23.8450 C   0  0  0  0  0  3  0  0  0  0  0  0
  -25.5420  -33.9000   24.1810 N   0  0  0  0  0  0  0  0  0  0  0  0
  -25.8720  -34.9540   23.4230 C   0  0  0  0  0  0  0  0  0  0  0  0
  -26.5430  -34.8550   22.3930 O   0  0  0  0  0  0  0  0  0  0  0  0
  -24.9480  -34.0510   24.9820 H   0  0  0  0  0  0  0  0  0  0  0  0
  -24.1360  -36.7390   23.0750 C   0  0  0  0  0  1  0  0  0  0  0  0
  -25.3810  -36.3400   23.8820 C   0  0  0  0  0  3  0  0  0  0  0  0
  -27.5180  -37.2280   24.7060 C   0  0  0  0  0  1  0  0  0  0  0  0
  -26.4100  -37.3970   23.7690 N   0  0  0  0  0  0  0  0  0  0  0  0
  -26.0030  -38.3140   23.9260 H   0  0  0  0  0  0  0  0  0  0  0  0
  -26.3700  -31.7250   25.1160 C   0  0  1  0  0  0  0  0  0  0  0  0
  -25.2750  -31.4810   26.1800 C   0  0  0  0  0  1  0  0  0  0  0  0
  -26.9510  -30.3500   24.7090 C   0  0  0  0  0  1  0  0  0  0  0  0
  -27.5200  -32.5160   25.7850 C   0  0  0  0  0  1  0  0  0  0  0  0
  -28.9760  -20.7080   19.1740 C   0  0  0  0  0  2  0  0  0  0  0  0
  -30.1720  -19.7260   19.1630 C   0  0  0  0  0  2  0  0  0  0  0  0
  -31.9010  -17.1880   21.2910 C   0  0  0  0  0  2  0  0  0  0  0  0
  -30.8610  -19.5950   21.7240 C   0  0  0  0  0  2  0  0  0  0  0  0
  -29.5980  -17.6140   20.5170 C   0  0  0  0  0  2  0  0  0  0  0  0
  -31.7650  -18.6560   20.9580 C   0  0  0  0  0  3  0  0  0  0  0  0
  -30.4540  -16.6550   21.3810 C   0  0  0  0  0  3  0  0  0  0  0  0
  -30.3720  -18.9260   20.4540 C   0  0  1  0  0  0  0  0  0  0  0  0
  -30.7230  -14.3970   20.1890 C   0  0  0  0  0  0  0  0  0  0  0  0
  -30.3160  -12.3170   18.9200 C   0  0  0  0  0  2  0  0  0  0  0  0
  -29.3120  -12.5940   17.7820 C   0  0  0  0  0  2  0  0  0  0  0  0
  -27.8620  -12.4570   18.2890 C   0  0  0  0  0  2  0  0  0  0  0  0
  -27.6070  -13.2590   19.5910 C   0  0  0  0  0  3  0  0  0  0  0  0
  -28.7090  -12.9440   20.6310 C   0  0  0  0  0  2  0  0  0  0  0  0
  -30.0210  -13.2440   20.0230 N   0  0  0  0  0  0  0  0  0  0  0  0
  -31.7170  -14.6720   19.5120 O   0  0  0  0  0  0  0  0  0  0  0  0
  -30.2180  -15.2280   21.1190 N   0  0  0  0  0  0  0  0  0  0  0  0
  -29.4560  -14.8260   21.6450 H   0  0  0  0  0  0  0  0  0  0  0  0
  -25.2380  -13.8930   20.3960 C   0  0  0  0  0  0  0  0  0  0  0  0
  -24.1790  -13.1270   20.8070 C   0  0  0  0  0  0  0  0  0  0  0  0
  -24.6240  -11.7700   20.7480 C   0  0  0  0  0  0  0  0  0  0  0  0
  -26.2680  -13.0010   20.1210 N   0  0  0  0  0  0  0  0  0  0  0  0
  -25.9030  -11.7200   20.3870 N   0  0  0  0  0  0  0  0  0  0  0  0
  -23.8940  -10.5140   20.9590 C   0  0  0  0  0  0  0  0  0  0  0  0
  -24.3540   -9.5450   21.8770 C   0  0  0  0  0  3  0  0  0  0  0  0
  -23.6280   -8.3530   22.0790 C   0  0  0  0  0  3  0  0  0  0  0  0
  -22.4260   -8.1200   21.3650 C   0  0  0  0  0  0  0  0  0  0  0  0
  -21.9860   -9.0810   20.4370 C   0  0  0  0  0  3  0  0  0  0  0  0
  -22.7130  -10.2650   20.2320 C   0  0  0  0  0  3  0  0  0  0  0  0
  -21.6710   -6.9790   21.4790 O   0  0  0  0  0  0  0  0  0  0  0  0
  -21.6560   -6.2380   22.6360 C   0  0  0  0  0  0  0  0  0  0  0  0
  -21.2870   -6.7950   23.8800 C   0  0  0  0  0  3  0  0  0  0  0  0
  -21.2210   -5.9780   25.0270 C   0  0  0  0  0  3  0  0  0  0  0  0
  -21.5130   -4.6060   24.9310 C   0  0  0  0  0  0  0  0  0  0  0  0
  -21.8750   -4.0470   23.6930 C   0  0  0  0  0  3  0  0  0  0  0  0
  -21.9440   -4.8630   22.5480 C   0  0  0  0  0  0  0  0  0  0  0  0
  -22.2720   -4.3170   21.3530 F   0  0  0  0  0  0  0  0  0  0  0  0
  -21.4420   -3.8170   26.0300 F   0  0  0  0  0  0  0  0  0  0  0  0
  -22.7970  -13.6150   21.1420 C   0  0  0  0  0  0  0  0  0  0  0  0
  -22.1010  -12.9140   22.0310 N   0  0  0  0  0  0  0  0  0  0  0  0
  -22.3400  -14.6440   20.6490 O   0  0  0  0  0  0  0  0  0  0  0  0
  -22.4800  -12.0770   22.4490 H   0  0  0  0  0  0  0  0  0  0  0  0
  -21.1720  -13.2180   22.2900 H   0  0  0  0  0  0  0  0  0  0  0  0
  -25.4070  -15.2640   20.2140 N   0  0  0  0  0  0  0  0  0  0  0  0
  -24.6610  -15.9310   20.3770 H   0  0  0  0  0  0  0  0  0  0  0  0
  -26.2440  -15.6960   19.8440 H   0  0  0  0  0  0  0  0  0  0  0  0
  1  2  1  0
  1  5  1  0
  2  4  1  0
  3  1  2  0
  6  5  1  0
  6  7  1  0
  8 19  2  0
  9  7  1  0
  9 14  1  0
 10 18  1  0
 10 20  1  0
 11 17  1  0
 11 13  1  0
 12 18  1  0
 13 12  1  0
 14 13  2  0
 15 16  1  0
 15  9  2  0
 16 11  2  0
 17 10  1  0
 18  8  1  0
 20 22  2  0
 21 20  1  0
 23 21  1  0
 24 33  2  0
 24 29  1  0
 25 21  1  0
 25 29  1  0
 26 25  1  0
 27 28  1  0
 27 26  1  0
 28 24  1  0
 29 30  2  0
 30 31  1  0
 32 31  2  0
 33 32  1  0
 34  8  1  0
 34 35  1  0
 34 44  1  0
 35 38  1  0
 36 40  1  0
 36 35  1  0
 37 36  2  0
 40 39  1  0
 42 40  1  0
 42 43  1  0
 42 41  1  0
 44 47  1  1
 44 45  1  0
 46 44  1  0
 48  2  1  0
 49 48  1  0
 50 54  1  0
 52 54  1  0
 53 50  1  0
 53 51  1  0
 54 64  1  0
 55 49  1  6
 55 52  1  0
 55 53  1  0
 55 51  1  0
 56 64  1  0
 57 62  1  0
 58 59  1  0
 58 57  1  0
 60 59  1  0
 60 69  1  0
 60 61  1  0
 62 56  1  0
 62 61  1  0
 63 56  2  0
 64 65  1  0
 66 67  2  0
 67 86  1  0
 68 67  1  0
 68 71  1  0
 69 70  1  0
 69 66  1  0
 70 68  2  0
 71 72  1  0
 72 73  2  0
 74 77  1  0
 74 73  1  0
 75 74  2  0
 76 75  1  0
 76 71  2  0
 77 78  1  0
 78 79  1  0
 79 80  2  0
 81 80  1  0
 81 85  1  0
 82 81  2  0
 83 78  2  0
 83 82  1  0
 84 83  1  0
 86 87  1  0
 87 90  1  0
 87 89  1  0
 88 86  2  0
 91 92  1  0
 91 66  1  0
 93 91  1  0
M  ISO  4   6 101   7 101  56 100  64 100
M  END
>  <TORSDO>  (28) 
F 21

>  <SCORE>  (28) 
-13.419

>  <name>  (28) 
27

>  <ligand_id>  (28) 
27

>  <original_smiles>  (28) 
[H]c1c([H])c([H])c2c(c1[H])C([H])([H])C([H])([H])C([H])([H])C2([H])N([H])C(=O)C1([H])N(C(=O)C([H])(N([H])C(=O)C([H])(N([H])C([H])([H])[H])C([H])([H])[H])C(C([H])([H])[H])(C([H])([H])[H])C([H])([H])[H])C([H])([H])c2c([H])c(OC([H])([H])C([H])([H])C(=O)N([H])C([H])([H])C([H])([H])C34C([H])([H])C([H])(N([H])C(=O)N5C([H])([H])C([H])([H])C([H])([H])C([H])(n6nc(-c7c([H])c([H])c(Oc8c([H])c([H])c(F)c([H])c8F)c([H])c7[H])c(C(=O)N([H])[H])c6N([H])[H])C5([H])[H])C([H])([H])C3([H])C4([H])[H])c([H])c([H])c2C1([H])[H]

>  <smiles>  (28) 
[H]c1c([H])c([H])c2c(c1[H])C([H])([H])C([H])([H])C([H])([H])C2([H])N([H])C(=O)C1([H])N(C(=O)C([H])(N([H])C(=O)C([H])(N([H])C([H])([H])[H])C([H])([H])[H])C(C([H])([H])[H])(C([H])([H])[H])C([H])([H])[H])C([H])([H])c2c([H])c(OC([H])([H])C([H])([H])C(=O)N([H])C([H])([H])C([H])([H])C34C([H])([H])C([H])(N([H])C(=O)N5C([H])([H])C([H])([H])C([H])([H])C([H])(n6nc(-c7c([H])c([H])c(Oc8c([H])c([H])c(F)c([H])c8F)c([H])c7[H])c(C(=O)N([H])[H])c6N([H])[H])C5([H])[H])C([H])([H])C3([H])C4([H])[H])c([H])c([H])c2C1([H])[H]

$$$$
28:0:0
     RDKit          3D

 99106  0  0  1  0  0  0  0  0999 V2000
  -31.2920  -17.4180   20.4250 C   0  0  0  0  0  3  0  0  0  0  0  0
  -31.0620  -18.8100   20.4720 C   0  0  0  0  0  0  0  0  0  0  0  0
  -28.6550  -18.3850   20.3700 C   0  0  0  0  0  0  0  0  0  0  0  0
  -29.7340  -19.3090   20.4360 C   0  0  0  0  0  0  0  0  0  0  0  0
  -28.8830  -16.9820   20.5110 C   0  0  0  0  0  0  0  0  0  0  0  0
  -30.2220  -16.4910   20.4510 C   0  0  0  0  0  0  0  0  0  0  0  0
  -27.2400  -18.9150   20.1450 C   0  0  0  0  0  1  0  0  0  0  0  0
  -30.8090  -14.2850   19.4060 C   0  0  0  0  0  0  0  0  0  0  0  0
  -30.3430  -12.1520   18.2490 C   0  0  0  0  0  2  0  0  0  0  0  0
  -29.2340  -12.3650   17.1980 C   0  0  0  0  0  2  0  0  0  0  0  0
  -27.8270  -12.2360   17.8180 C   0  0  0  0  0  2  0  0  0  0  0  0
  -27.6840  -13.0590   19.1250 C   0  0  0  0  0  3  0  0  0  0  0  0
  -28.8810  -12.8010   20.0680 C   0  0  0  0  0  2  0  0  0  0  0  0
  -30.1300  -13.1090   19.3440 N   0  0  0  0  0  0  0  0  0  0  0  0
  -31.7260  -14.5720   18.6290 O   0  0  0  0  0  0  0  0  0  0  0  0
  -30.4530  -15.0770   20.4290 N   0  0  0  0  0  0  0  0  0  0  0  0
  -29.9300  -14.5750   21.1350 H   0  0  0  0  0  0  0  0  0  0  0  0
  -25.4070  -13.6830   20.1580 C   0  0  0  0  0  0  0  0  0  0  0  0
  -24.3960  -12.9190   20.6750 C   0  0  0  0  0  0  0  0  0  0  0  0
  -24.8280  -11.5610   20.5620 C   0  0  0  0  0  0  0  0  0  0  0  0
  -26.4040  -12.7960   19.7850 N   0  0  0  0  0  0  0  0  0  0  0  0
  -26.0610  -11.5120   20.0710 N   0  0  0  0  0  0  0  0  0  0  0  0
  -24.1160  -10.3060   20.8370 C   0  0  0  0  0  0  0  0  0  0  0  0
  -24.5940   -9.3770   21.7880 C   0  0  0  0  0  3  0  0  0  0  0  0
  -23.8810   -8.1870   22.0480 C   0  0  0  0  0  3  0  0  0  0  0  0
  -22.6780   -7.9160   21.3560 C   0  0  0  0  0  0  0  0  0  0  0  0
  -22.2170   -8.8330   20.3940 C   0  0  0  0  0  3  0  0  0  0  0  0
  -22.9310  -10.0140   20.1340 C   0  0  0  0  0  3  0  0  0  0  0  0
  -21.9330   -6.7720   21.5230 O   0  0  0  0  0  0  0  0  0  0  0  0
  -21.8330   -6.1520   22.7430 C   0  0  0  0  0  0  0  0  0  0  0  0
  -21.3330   -6.8200   23.8820 C   0  0  0  0  0  3  0  0  0  0  0  0
  -21.1830   -6.1220   25.0990 C   0  0  0  0  0  3  0  0  0  0  0  0
  -21.5220   -4.7580   25.1730 C   0  0  0  0  0  0  0  0  0  0  0  0
  -22.0150   -4.0900   24.0380 C   0  0  0  0  0  3  0  0  0  0  0  0
  -22.1670   -4.7850   22.8260 C   0  0  0  0  0  0  0  0  0  0  0  0
  -22.6220   -4.1320   21.7310 F   0  0  0  0  0  0  0  0  0  0  0  0
  -21.3710   -4.0850   26.3380 F   0  0  0  0  0  0  0  0  0  0  0  0
  -23.0610  -13.4110   21.1610 C   0  0  0  0  0  0  0  0  0  0  0  0
  -22.4680  -12.7240   22.1320 N   0  0  0  0  0  0  0  0  0  0  0  0
  -22.5590  -14.4420   20.7160 O   0  0  0  0  0  0  0  0  0  0  0  0
  -22.8890  -11.8890   22.5140 H   0  0  0  0  0  0  0  0  0  0  0  0
  -21.5770  -13.0310   22.4970 H   0  0  0  0  0  0  0  0  0  0  0  0
  -25.5480  -15.0490   19.9490 N   0  0  0  0  0  2  0  0  0  0  0  0
  -24.8260  -15.7080   20.2090 H   0  0  0  0  0  0  0  0  0  0  0  0
  -26.3790  -15.4910   19.5790 H   0  0  0  0  0  0  0  0  0  0  0  0
  -27.7010  -16.0160   20.7530 C   0  0  0  0  0  3  0  0  0  0  0  0
  -27.1930  -15.6160   19.5930 F   0  0  0  0  0  0  0  0  0  0  0  0
  -28.0510  -14.9270   21.4410 F   0  0  0  0  0  0  0  0  0  0  0  0
  -26.7300  -16.5800   21.4700 F   0  0  0  0  0  0  0  0  0  0  0  0
  -32.6680  -20.0840   21.9970 C   0  0  0  0  0  1  0  0  0  0  0  0
  -32.2750  -19.7330   20.5560 C   0  0  0  0  0  2  0  0  0  0  0  0
  -29.4450  -20.8120   20.6210 C   0  0  0  0  0  2  0  0  0  0  0  0
  -29.1510  -21.6680   19.3650 C   0  0  0  0  0  2  0  0  0  0  0  0
  -28.5650  -22.9610   19.8010 N   0  0  0  0  0  4  0  0  0  0  0  0
  -29.0110  -23.2110   20.6700 H   0  0  0  0  0  0  0  0  0  0  0  0
  -27.5900  -22.8050   20.0080 H   0  0  0  0  0  0  0  0  0  0  0  0
  -28.6880  -24.1270   18.8890 C   0  0  0  0  0  2  0  0  0  0  0  0
  -28.2810  -25.4100   19.6470 C   0  0  0  0  0  2  0  0  0  0  0  0
  -28.2320  -26.5870   18.8330 O   0  0  0  0  0  0  0  0  0  0  0  0
  -24.5210  -31.2040   22.7900 C   0  0  0  0  0  0  0  0  0  0  0  0
  -27.0700  -27.3060   18.9910 C   0  0  0  0  0  0  0  0  0  0  0  0
  -23.2580  -30.0320   21.0150 C   0  0  0  0  0  3  0  0  0  0  0  0
  -24.6640  -28.7380   19.3250 C   0  0  0  0  0  0  0  0  0  0  0  0
  -25.7690  -30.4590   20.7670 C   0  0  0  0  0  2  0  0  0  0  0  0
  -25.8410  -29.1970   19.9310 C   0  0  0  0  0  0  0  0  0  0  0  0
  -27.0510  -28.4900   19.7580 C   0  0  0  0  0  3  0  0  0  0  0  0
  -25.8800  -26.8530   18.3840 C   0  0  0  0  0  3  0  0  0  0  0  0
  -24.6770  -27.5630   18.5530 C   0  0  0  0  0  3  0  0  0  0  0  0
  -23.4140  -29.5610   19.5440 C   0  0  0  0  0  2  0  0  0  0  0  0
  -24.5380  -30.5690   21.5840 N   0  0  0  0  0  0  0  0  0  0  0  0
  -23.4600  -31.3830   23.4050 O   0  0  0  0  0  0  0  0  0  0  0  0
  -22.6600  -28.8740   21.8410 C   0  0  0  0  0  0  0  0  0  0  0  0
  -21.3320  -28.6980   21.7490 N   0  0  0  0  0  0  0  0  0  0  0  0
  -23.3790  -28.1400   22.5240 O   0  0  0  0  0  0  0  0  0  0  0  0
  -20.8090  -29.3460   21.1760 H   0  0  0  0  0  0  0  0  0  0  0  0
  -17.9900  -27.4010   22.1910 C   0  0  0  0  0  0  0  0  0  0  0  0
  -20.5530  -27.6490   22.4070 C   0  0  0  0  0  3  0  0  0  0  0  0
  -20.6430  -26.3150   21.6260 C   0  0  0  0  0  2  0  0  0  0  0  0
  -19.5090  -26.1320   20.6150 C   0  0  0  0  0  2  0  0  0  0  0  0
  -18.1500  -26.1690   21.3190 C   0  0  0  0  0  2  0  0  0  0  0  0
  -19.1190  -28.1060   22.6870 C   0  0  0  0  0  0  0  0  0  0  0  0
  -18.9140  -29.2710   23.4570 C   0  0  0  0  0  3  0  0  0  0  0  0
  -17.6140  -29.7310   23.7370 C   0  0  0  0  0  3  0  0  0  0  0  0
  -16.5000  -29.0190   23.2590 C   0  0  0  0  0  3  0  0  0  0  0  0
  -16.6900  -27.8550   22.4920 C   0  0  0  0  0  3  0  0  0  0  0  0
  -25.8230  -31.7560   23.4450 C   0  0  0  0  0  3  0  0  0  0  0  0
  -25.5200  -33.0880   23.9800 N   0  0  0  0  0  0  0  0  0  0  0  0
  -25.8560  -34.2410   23.3870 C   0  0  0  0  0  0  0  0  0  0  0  0
  -26.5280  -34.2930   22.3540 O   0  0  0  0  0  0  0  0  0  0  0  0
  -24.9240  -33.1240   24.7960 H   0  0  0  0  0  0  0  0  0  0  0  0
  -24.1350  -36.0730   23.2990 C   0  0  0  0  0  1  0  0  0  0  0  0
  -25.3700  -35.5460   24.0470 C   0  0  0  0  0  3  0  0  0  0  0  0
  -27.5020  -36.2890   25.0120 C   0  0  0  0  0  1  0  0  0  0  0  0
  -26.4060  -36.6010   24.0980 N   0  0  0  0  0  0  0  0  0  0  0  0
  -26.0030  -37.4910   24.3790 H   0  0  0  0  0  0  0  0  0  0  0  0
  -26.4010  -30.8150   24.5720 C   0  0  1  0  0  0  0  0  0  0  0  0
  -25.3600  -30.4160   25.6430 C   0  0  0  0  0  1  0  0  0  0  0  0
  -26.9700  -29.5140   23.9580 C   0  0  0  0  0  1  0  0  0  0  0  0
  -27.5770  -31.5210   25.2910 C   0  0  0  0  0  1  0  0  0  0  0  0
  1  6  2  0
  1  2  1  0
  2 51  1  0
  3  4  1  0
  3  5  2  0
  4  2  2  0
  4 52  1  0
  5 46  1  0
  6  5  1  0
  7  3  1  0
  8 16  1  0
  9 14  1  0
 10 11  1  0
 10  9  1  0
 12 11  1  0
 12 21  1  0
 12 13  1  0
 14  8  1  0
 14 13  1  0
 15  8  2  0
 16  6  1  0
 16 17  1  0
 18 19  2  0
 19 38  1  0
 20 19  1  0
 20 23  1  0
 21 22  1  0
 21 18  1  0
 22 20  2  0
 23 24  1  0
 24 25  2  0
 26 29  1  0
 26 25  1  0
 27 26  2  0
 28 27  1  0
 28 23  2  0
 29 30  1  0
 30 35  2  0
 30 31  1  0
 31 32  2  0
 32 33  1  0
 33 37  1  0
 34 33  2  0
 35 34  1  0
 36 35  1  0
 38 39  1  0
 39 42  1  0
 39 41  1  0
 40 38  2  0
 43 18  1  0
 43 44  1  0
 45 47  1  0
 46 48  1  0
 46 49  1  0
 51 50  1  0
 53 54  1  0
 53 52  1  0
 54 56  1  0
 54 55  1  0
 57 58  1  0
 57 54  1  0
 59 61  1  0
 59 58  1  0
 60 71  2  0
 61 66  1  0
 62 70  1  0
 62 72  1  0
 63 69  1  0
 63 65  1  0
 64 70  1  0
 65 64  1  0
 66 65  2  0
 67 68  1  0
 67 61  2  0
 68 63  2  0
 69 62  1  0
 70 60  1  0
 72 74  2  0
 73 72  1  0
 75 73  1  0
 76 85  2  0
 76 81  1  0
 77 73  1  0
 77 81  1  0
 78 77  1  0
 79 80  1  0
 79 78  1  0
 80 76  1  0
 81 82  2  0
 82 83  1  0
 84 83  2  0
 85 84  1  0
 86 60  1  0
 86 87  1  0
 86 96  1  0
 87 90  1  0
 88 87  1  0
 88 92  1  0
 89 88  2  0
 92 91  1  0
 92 94  1  0
 94 95  1  0
 94 93  1  0
 96 99  1  1
 96 97  1  0
 98 96  1  0
M  ISO  4   8 100  16 100  58 101  59 101
M  END
>  <TORSDO>  (29) 
F 23

>  <SCORE>  (29) 
-9.294

>  <name>  (29) 
28

>  <ligand_id>  (29) 
28

>  <original_smiles>  (29) 
[H]c1c([H])c([H])c2c(c1[H])C([H])([H])C([H])([H])C([H])([H])C2([H])N([H])C(=O)C1([H])N(C(=O)C([H])(N([H])C(=O)C([H])(N([H])C([H])([H])[H])C([H])([H])[H])C(C([H])([H])[H])(C([H])([H])[H])C([H])([H])[H])C([H])([H])c2c([H])c(OC([H])([H])C([H])([H])[N+]([H])([H])C([H])([H])C([H])([H])c3c(C([H])([H])[H])c(C(F)(F)F)c(N([H])C(=O)N4C([H])([H])C([H])([H])C([H])([H])C([H])(n5nc(-c6c([H])c([H])c(Oc7c([H])c([H])c(F)c([H])c7F)c([H])c6[H])c(C(=O)N([H])[H])c5N([H])[H])C4([H])[H])c([H])c3C([H])([H])C([H])([H])[H])c([H])c([H])c2C1([H])[H]

>  <smiles>  (29) 
[H]c1c([H])c([H])c2c(c1[H])C([H])([H])C([H])([H])C([H])([H])C2([H])N([H])C(=O)C1([H])N(C(=O)C([H])(N([H])C(=O)C([H])(N([H])C([H])([H])[H])C([H])([H])[H])C(C([H])([H])[H])(C([H])([H])[H])C([H])([H])[H])C([H])([H])c2c([H])c(OC([H])([H])C([H])([H])[N+]([H])([H])C([H])([H])C([H])([H])c3c(C([H])([H])[H])c(C(F)(F)F)c(N([H])C(=O)N4C([H])([H])C([H])([H])C([H])([H])C([H])(n5nc(-c6c([H])c([H])c(Oc7c([H])c([H])c(F)c([H])c7F)c([H])c6[H])c(C(=O)N([H])[H])c5N([H])[H])C4([H])[H])c([H])c3C([H])([H])C([H])([H])[H])c([H])c([H])c2C1([H])[H]

$$$$
29:0:0
     RDKit          3D

 98106  0  0  1  0  0  0  0  0999 V2000
  -30.8220  -20.5320   20.8310 C   0  0  0  0  0  3  0  0  0  0  0  0
  -28.7010  -19.2560   20.1520 C   0  0  0  0  0  3  0  0  0  0  0  0
  -28.5240  -16.8270   20.3200 C   0  0  0  0  0  3  0  0  0  0  0  0
  -30.6510  -17.9130   20.7720 C   0  0  0  0  0  3  0  0  0  0  0  0
  -27.9410  -18.0770   20.0370 C   0  0  0  0  0  0  0  0  0  0  0  0
  -30.0550  -19.2050   20.5450 C   0  0  0  0  0  0  0  0  0  0  0  0
  -29.8840  -16.7090   20.6740 C   0  0  0  0  0  0  0  0  0  0  0  0
  -26.4780  -18.1550   19.6460 C   0  0  0  0  0  1  0  0  0  0  0  0
  -30.9180  -14.4150   20.3510 C   0  0  0  0  0  0  0  0  0  0  0  0
  -30.6650  -12.1310   19.3960 C   0  0  0  0  0  2  0  0  0  0  0  0
  -29.7430  -12.1960   18.1590 C   0  0  0  0  0  2  0  0  0  0  0  0
  -28.2580  -12.1030   18.5660 C   0  0  0  0  0  2  0  0  0  0  0  0
  -27.9000  -13.0660   19.7270 C   0  0  0  0  0  3  0  0  0  0  0  0
  -28.9270  -12.9410   20.8760 C   0  0  0  0  0  2  0  0  0  0  0  0
  -30.2720  -13.2080   20.3250 N   0  0  0  0  0  0  0  0  0  0  0  0
  -32.0000  -14.6000   19.7830 O   0  0  0  0  0  0  0  0  0  0  0  0
  -30.3000  -15.3830   21.0670 N   0  0  0  0  0  0  0  0  0  0  0  0
  -29.6130  -14.9420   21.6590 H   0  0  0  0  0  0  0  0  0  0  0  0
  -25.5150  -13.7850   20.3850 C   0  0  0  0  0  0  0  0  0  0  0  0
  -24.4150  -13.0690   20.7730 C   0  0  0  0  0  0  0  0  0  0  0  0
  -24.8200  -11.6990   20.7770 C   0  0  0  0  0  0  0  0  0  0  0  0
  -26.5290  -12.8580   20.1940 N   0  0  0  0  0  0  0  0  0  0  0  0
  -26.1110  -11.5980   20.4820 N   0  0  0  0  0  0  0  0  0  0  0  0
  -24.0380  -10.4750   20.9860 C   0  0  0  0  0  0  0  0  0  0  0  0
  -24.4420   -9.4900   21.9140 C   0  0  0  0  0  3  0  0  0  0  0  0
  -23.6630   -8.3300   22.1110 C   0  0  0  0  0  3  0  0  0  0  0  0
  -22.4650   -8.1470   21.3810 C   0  0  0  0  0  0  0  0  0  0  0  0
  -22.0790   -9.1200   20.4410 C   0  0  0  0  0  3  0  0  0  0  0  0
  -22.8590  -10.2720   20.2420 C   0  0  0  0  0  3  0  0  0  0  0  0
  -21.6580   -7.0400   21.4870 O   0  0  0  0  0  0  0  0  0  0  0  0
  -21.6190   -6.2870   22.6340 C   0  0  0  0  0  0  0  0  0  0  0  0
  -21.2800   -6.8500   23.8830 C   0  0  0  0  0  3  0  0  0  0  0  0
  -21.1830   -6.0270   25.0230 C   0  0  0  0  0  3  0  0  0  0  0  0
  -21.4140   -4.6420   24.9150 C   0  0  0  0  0  0  0  0  0  0  0  0
  -21.7470   -4.0790   23.6700 C   0  0  0  0  0  3  0  0  0  0  0  0
  -21.8460   -4.8990   22.5320 C   0  0  0  0  0  0  0  0  0  0  0  0
  -22.1450   -4.3490   21.3310 F   0  0  0  0  0  0  0  0  0  0  0  0
  -21.3130   -3.8500   26.0070 F   0  0  0  0  0  0  0  0  0  0  0  0
  -23.0390  -13.6130   21.0240 C   0  0  0  0  0  0  0  0  0  0  0  0
  -22.2790  -12.9750   21.9090 N   0  0  0  0  0  0  0  0  0  0  0  0
  -22.6460  -14.6400   20.4720 O   0  0  0  0  0  0  0  0  0  0  0  0
  -22.6090  -12.1450   22.3780 H   0  0  0  0  0  0  0  0  0  0  0  0
  -21.3540  -13.3250   22.1200 H   0  0  0  0  0  0  0  0  0  0  0  0
  -25.7220  -15.1370   20.1550 N   0  0  0  0  0  0  0  0  0  0  0  0
  -24.9590  -15.8030   20.2030 H   0  0  0  0  0  0  0  0  0  0  0  0
  -26.5570  -15.5220   19.7320 H   0  0  0  0  0  0  0  0  0  0  0  0
  -30.8490  -20.8630   22.3460 C   0  0  0  0  0  2  0  0  0  0  0  0
  -31.4260  -19.7880   23.1760 N   0  0  0  0  0  4  0  0  0  0  0  0
  -30.9020  -18.9380   23.0720 H   0  0  0  0  0  0  0  0  0  0  0  0
  -31.3990  -20.0540   24.1450 H   0  0  0  0  0  0  0  0  0  0  0  0
  -32.3850  -19.6160   22.9320 H   0  0  0  0  0  0  0  0  0  0  0  0
  -30.5270  -21.8340   19.9590 C   0  0  0  0  0  2  0  0  0  0  0  0
  -29.3460  -22.7240   20.2700 N   0  0  0  0  0  4  0  0  0  0  0  0
  -28.6150  -22.4610   19.6250 H   0  0  0  0  0  0  0  0  0  0  0  0
  -28.9940  -22.5400   21.1960 H   0  0  0  0  0  0  0  0  0  0  0  0
  -29.5750  -24.2190   20.1420 C   0  0  0  0  0  3  0  0  0  0  0  0
  -28.2740  -25.0940   20.0210 C   0  0  0  0  0  3  0  0  0  0  0  0
  -28.4400  -26.5520   20.0440 O   0  0  0  0  0  0  0  0  0  0  0  0
  -24.5960  -31.7790   23.1430 C   0  0  0  0  0  0  0  0  0  0  0  0
  -27.2820  -27.3350   20.0240 C   0  0  0  0  0  0  0  0  0  0  0  0
  -23.4130  -30.3960   21.4720 C   0  0  0  0  0  3  0  0  0  0  0  0
  -24.8870  -28.8860   20.0360 C   0  0  0  0  0  0  0  0  0  0  0  0
  -25.9470  -30.7530   21.3060 C   0  0  0  0  0  2  0  0  0  0  0  0
  -26.0450  -29.3890   20.6410 C   0  0  0  0  0  0  0  0  0  0  0  0
  -27.2450  -28.6260   20.6240 C   0  0  0  0  0  3  0  0  0  0  0  0
  -26.0950  -26.8710   19.4050 C   0  0  0  0  0  3  0  0  0  0  0  0
  -24.9110  -27.6300   19.4130 C   0  0  0  0  0  3  0  0  0  0  0  0
  -23.6410  -29.7430   20.0840 C   0  0  0  0  0  2  0  0  0  0  0  0
  -24.6710  -30.9910   22.0310 N   0  0  0  0  0  0  0  0  0  0  0  0
  -23.5070  -32.0370   23.6770 O   0  0  0  0  0  0  0  0  0  0  0  0
  -22.7560  -29.3560   22.4120 C   0  0  0  0  0  0  0  0  0  0  0  0
  -21.4310  -29.1780   22.2800 N   0  0  0  0  0  0  0  0  0  0  0  0
  -23.4370  -28.7140   23.2150 O   0  0  0  0  0  0  0  0  0  0  0  0
  -20.9410  -29.7500   21.6050 H   0  0  0  0  0  0  0  0  0  0  0  0
  -18.0530  -27.9830   22.7620 C   0  0  0  0  0  0  0  0  0  0  0  0
  -20.6120  -28.2260   23.0300 C   0  0  0  0  0  3  0  0  0  0  0  0
  -20.7080  -26.8080   22.4210 C   0  0  0  0  0  2  0  0  0  0  0  0
  -19.6010  -26.5140   21.4030 C   0  0  0  0  0  2  0  0  0  0  0  0
  -18.2220  -26.6500   22.0550 C   0  0  0  0  0  2  0  0  0  0  0  0
  -19.1760  -28.7310   23.2060 C   0  0  0  0  0  0  0  0  0  0  0  0
  -18.9640  -29.9810   23.8280 C   0  0  0  0  0  3  0  0  0  0  0  0
  -17.6620  -30.4840   24.0080 C   0  0  0  0  0  3  0  0  0  0  0  0
  -16.5530  -29.7330   23.5810 C   0  0  0  0  0  3  0  0  0  0  0  0
  -16.7500  -28.4840   22.9640 C   0  0  0  0  0  3  0  0  0  0  0  0
  -25.8720  -32.4090   23.7820 C   0  0  0  0  0  3  0  0  0  0  0  0
  -25.5520  -33.8020   24.1270 N   0  0  0  0  0  0  0  0  0  0  0  0
  -25.8890  -34.8650   23.3860 C   0  0  0  0  0  0  0  0  0  0  0  0
  -26.5730  -34.7780   22.3630 O   0  0  0  0  0  0  0  0  0  0  0  0
  -24.9460  -33.9430   24.9230 H   0  0  0  0  0  0  0  0  0  0  0  0
  -24.1560  -36.6540   23.0340 C   0  0  0  0  0  1  0  0  0  0  0  0
  -25.3890  -36.2460   23.8550 C   0  0  0  0  0  3  0  0  0  0  0  0
  -27.5100  -37.1290   24.7220 C   0  0  0  0  0  1  0  0  0  0  0  0
  -26.4180  -37.3050   23.7680 N   0  0  0  0  0  0  0  0  0  0  0  0
  -26.0060  -38.2200   23.9250 H   0  0  0  0  0  0  0  0  0  0  0  0
  -26.3810  -31.6250   25.0540 C   0  0  1  0  0  0  0  0  0  0  0  0
  -25.2830  -31.3710   26.1110 C   0  0  0  0  0  1  0  0  0  0  0  0
  -26.9720  -30.2550   24.6490 C   0  0  0  0  0  1  0  0  0  0  0  0
  -27.5240  -32.4150   25.7340 C   0  0  0  0  0  1  0  0  0  0  0  0
  1 52  1  0
  1 47  1  0
  2  6  1  0
  3  7  2  0
  5  2  2  0
  5  3  1  0
  6  4  2  0
  6  1  1  0
  7  4  1  0
  7 17  1  0
  8  5  1  0
  9 17  1  0
 10 15  1  0
 11 12  1  0
 11 10  1  0
 13 12  1  0
 13 22  1  0
 13 14  1  0
 15  9  1  0
 15 14  1  0
 16  9  2  0
 17 18  1  0
 19 20  2  0
 20 21  1  0
 20 39  1  0
 21 24  1  0
 22 19  1  0
 22 23  1  0
 23 21  2  0
 24 25  1  0
 25 26  2  0
 27 30  1  0
 27 26  1  0
 28 27  2  0
 29 28  1  0
 29 24  2  0
 30 31  1  0
 31 32  1  0
 32 33  2  0
 34 33  1  0
 34 38  1  0
 35 34  2  0
 36 31  2  0
 36 35  1  0
 37 36  1  0
 39 40  1  0
 40 43  1  0
 40 42  1  0
 41 39  2  0
 44 45  1  0
 44 19  1  0
 46 44  1  0
 47 48  1  0
 48 50  1  0
 49 48  1  0
 51 48  1  0
 52 53  1  0
 53 55  1  0
 54 53  1  0
 56 53  1  0
 57 58  1  0
 57 56  2  0
 59 70  2  0
 60 58  1  0
 60 65  1  0
 61 69  1  0
 61 71  1  0
 62 68  1  0
 62 64  1  0
 63 69  1  0
 64 63  1  0
 65 64  2  0
 66 67  1  0
 66 60  2  0
 67 62  2  0
 68 61  1  0
 69 59  1  0
 71 73  2  0
 72 71  1  0
 74 72  1  0
 75 84  2  0
 75 80  1  0
 76 72  1  0
 76 80  1  0
 77 76  1  0
 78 79  1  0
 78 77  1  0
 79 75  1  0
 80 81  2  0
 81 82  1  0
 83 82  2  0
 84 83  1  0
 85 59  1  0
 85 86  1  0
 85 95  1  0
 86 89  1  0
 87 91  1  0
 87 86  1  0
 88 87  2  0
 91 90  1  0
 93 91  1  0
 93 94  1  0
 93 92  1  0
 95 98  1  1
 95 96  1  0
 97 95  1  0
M  ISO  4   9 100  17 100  57 101  58 101
M  END
>  <TORSDO>  (30) 
F 23

>  <SCORE>  (30) 
-13.314

>  <name>  (30) 
29

>  <ligand_id>  (30) 
29

>  <original_smiles>  (30) 
[H]c1c([H])c([H])c2c(c1[H])C([H])([H])C([H])([H])C([H])([H])C2([H])N([H])C(=O)C1([H])N(C(=O)C([H])(N([H])C(=O)C([H])(N([H])C([H])([H])[H])C([H])([H])[H])C(C([H])([H])[H])(C([H])([H])[H])C([H])([H])[H])C([H])([H])c2c([H])c(OC([H])([H])C([H])([H])[N+]([H])([H])C([H])([H])C([H])(c3c([H])c(N([H])C(=O)N4C([H])([H])C([H])([H])C([H])([H])C([H])(n5nc(-c6c([H])c([H])c(Oc7c([H])c([H])c(F)c([H])c7F)c([H])c6[H])c(C(=O)N([H])[H])c5N([H])[H])C4([H])[H])c([H])c(C([H])([H])[H])c3[H])C([H])([H])[N+]([H])([H])[H])c([H])c([H])c2C1([H])[H]

>  <smiles>  (30) 
[H]c1c([H])c([H])c2c(c1[H])C([H])([H])C([H])([H])C([H])([H])C2([H])N([H])C(=O)C1([H])N(C(=O)C([H])(N([H])C(=O)C([H])(N([H])C([H])([H])[H])C([H])([H])[H])C(C([H])([H])[H])(C([H])([H])[H])C([H])([H])[H])C([H])([H])c2c([H])c(OC([H])([H])C([H])([H])[N+]([H])([H])C([H])([H])C([H])(c3c([H])c(N([H])C(=O)N4C([H])([H])C([H])([H])C([H])([H])C([H])(n5nc(-c6c([H])c([H])c(Oc7c([H])c([H])c(F)c([H])c7F)c([H])c6[H])c(C(=O)N([H])[H])c5N([H])[H])C4([H])[H])c([H])c(C([H])([H])[H])c3[H])C([H])([H])[N+]([H])([H])[H])c([H])c([H])c2C1([H])[H]

$$$$
30:0:0
     RDKit          3D

 96107  0  0  1  0  0  0  0  0999 V2000
  -28.9700  -19.6310   20.6710 C   0  0  0  0  0  2  0  0  0  0  0  0
  -32.0610  -19.2420   22.3390 C   0  0  0  0  0  2  0  0  0  0  0  0
  -30.2660  -17.5460   22.5420 C   0  0  0  0  0  2  0  0  0  0  0  0
  -29.1230  -20.5150   19.4480 C   0  0  0  0  0  2  0  0  0  0  0  0
  -30.5260  -21.3260   21.1730 C   0  0  0  0  0  2  0  0  0  0  0  0
  -30.5820  -19.0350   22.7010 C   0  0  1  0  0  0  0  0  0  0  0  0
  -31.4440  -18.7760   21.0100 C   0  0  2  0  0  0  0  0  0  0  0  0
  -30.9080  -17.3520   21.1610 C   0  0  0  0  0  3  0  0  0  0  0  0
  -30.3190  -19.7880   21.3650 C   0  0  1  0  0  0  0  0  0  0  0  0
  -29.7320  -21.7520   19.9830 N   0  0  2  0  0  4  0  0  0  0  0  0
  -30.3660  -22.1130   19.2870 H   0  0  0  0  0  0  0  0  0  0  0  0
  -31.9440  -16.2230   21.0660 C   0  0  0  0  0  2  0  0  0  0  0  0
  -31.3140  -14.2880   19.6310 C   0  0  0  0  0  0  0  0  0  0  0  0
  -30.6660  -12.1910   18.5130 C   0  0  0  0  0  2  0  0  0  0  0  0
  -29.6090  -12.3870   17.4150 C   0  0  0  0  0  2  0  0  0  0  0  0
  -28.1910  -12.3400   18.0100 C   0  0  0  0  0  2  0  0  0  0  0  0
  -28.0370  -13.2810   19.2330 C   0  0  0  0  0  3  0  0  0  0  0  0
  -29.1890  -13.0810   20.2470 C   0  0  0  0  0  2  0  0  0  0  0  0
  -30.4850  -13.2180   19.5490 N   0  0  0  0  0  0  0  0  0  0  0  0
  -32.1490  -14.5700   18.7640 O   0  0  0  0  0  0  0  0  0  0  0  0
  -31.2570  -14.9610   20.7890 N   0  0  0  0  0  0  0  0  0  0  0  0
  -30.6370  -14.5970   21.4990 H   0  0  0  0  0  0  0  0  0  0  0  0
  -25.8070  -14.0870   20.2440 C   0  0  0  0  0  0  0  0  0  0  0  0
  -24.7170  -13.4050   20.7170 C   0  0  0  0  0  0  0  0  0  0  0  0
  -25.0280  -12.0180   20.5780 C   0  0  0  0  0  0  0  0  0  0  0  0
  -26.7250  -13.1200   19.8600 N   0  0  0  0  0  0  0  0  0  0  0  0
  -26.2630  -11.8680   20.1130 N   0  0  0  0  0  0  0  0  0  0  0  0
  -24.2020  -10.8250   20.8080 C   0  0  0  0  0  0  0  0  0  0  0  0
  -24.6110   -9.8060   21.6950 C   0  0  0  0  0  3  0  0  0  0  0  0
  -23.7930   -8.6760   21.9150 C   0  0  0  0  0  3  0  0  0  0  0  0
  -22.5530   -8.5600   21.2450 C   0  0  0  0  0  0  0  0  0  0  0  0
  -22.1630   -9.5650   20.3440 C   0  0  0  0  0  3  0  0  0  0  0  0
  -22.9790  -10.6850   20.1230 C   0  0  0  0  0  3  0  0  0  0  0  0
  -21.7010   -7.4890   21.3770 O   0  0  0  0  0  0  0  0  0  0  0  0
  -21.6140   -6.7780   22.5490 C   0  0  0  0  0  0  0  0  0  0  0  0
  -21.2710   -7.3960   23.7720 C   0  0  0  0  0  3  0  0  0  0  0  0
  -21.1230   -6.6200   24.9370 C   0  0  0  0  0  3  0  0  0  0  0  0
  -21.3100   -5.2260   24.8830 C   0  0  0  0  0  0  0  0  0  0  0  0
  -21.6470   -4.6060   23.6680 C   0  0  0  0  0  3  0  0  0  0  0  0
  -21.7960   -5.3810   22.5030 C   0  0  0  0  0  0  0  0  0  0  0  0
  -22.1010   -4.7750   21.3320 F   0  0  0  0  0  0  0  0  0  0  0  0
  -21.1600   -4.4790   26.0010 F   0  0  0  0  0  0  0  0  0  0  0  0
  -23.4190  -14.0000   21.1820 C   0  0  0  0  0  0  0  0  0  0  0  0
  -22.7450  -13.3420   22.1200 N   0  0  0  0  0  0  0  0  0  0  0  0
  -23.0190  -15.0780   20.7480 O   0  0  0  0  0  0  0  0  0  0  0  0
  -23.0820  -12.4670   22.4940 H   0  0  0  0  0  0  0  0  0  0  0  0
  -21.8800  -13.7220   22.4750 H   0  0  0  0  0  0  0  0  0  0  0  0
  -26.0780  -15.4440   20.0860 N   0  0  0  0  0  0  0  0  0  0  0  0
  -25.3800  -16.1570   20.2760 H   0  0  0  0  0  0  0  0  0  0  0  0
  -26.8940  -15.8090   19.6100 H   0  0  0  0  0  0  0  0  0  0  0  0
  -28.6940  -22.7940   20.2320 C   0  0  0  0  0  2  0  0  0  0  0  0
  -29.1820  -24.2700   20.2950 C   0  0  0  0  0  3  0  0  0  0  0  0
  -29.6700  -24.5380   21.6010 O   0  0  0  0  0  0  0  0  0  0  0  0
  -28.9230  -24.6600   22.1770 H   0  0  0  0  0  0  0  0  0  0  0  0
  -27.9720  -25.1950   20.0180 C   0  0  0  0  0  2  0  0  0  0  0  0
  -28.2190  -26.6180   19.9750 O   0  0  0  0  0  0  0  0  0  0  0  0
  -24.4620  -31.7830   23.1380 C   0  0  0  0  0  0  0  0  0  0  0  0
  -27.0700  -27.3930   19.9450 C   0  0  0  0  0  0  0  0  0  0  0  0
  -23.2310  -30.3810   21.5160 C   0  0  0  0  0  3  0  0  0  0  0  0
  -24.6660  -28.8950   20.0260 C   0  0  0  0  0  0  0  0  0  0  0  0
  -25.7520  -30.7760   21.2550 C   0  0  0  0  0  2  0  0  0  0  0  0
  -25.8370  -29.4150   20.5940 C   0  0  0  0  0  0  0  0  0  0  0  0
  -27.0430  -28.6730   20.5520 C   0  0  0  0  0  3  0  0  0  0  0  0
  -25.8780  -26.9130   19.3440 C   0  0  0  0  0  3  0  0  0  0  0  0
  -24.6840  -27.6440   19.3960 C   0  0  0  0  0  3  0  0  0  0  0  0
  -23.4110  -29.7320   20.1200 C   0  0  0  0  0  2  0  0  0  0  0  0
  -24.5020  -30.9930   22.0270 N   0  0  0  0  0  0  0  0  0  0  0  0
  -23.3910  -32.0300   23.7080 O   0  0  0  0  0  0  0  0  0  0  0  0
  -22.6280  -29.3340   22.4800 C   0  0  0  0  0  0  0  0  0  0  0  0
  -21.3130  -29.0870   22.3480 N   0  0  0  0  0  0  0  0  0  0  0  0
  -23.3370  -28.7460   23.2990 O   0  0  0  0  0  0  0  0  0  0  0  0
  -20.7980  -29.6240   21.6670 H   0  0  0  0  0  0  0  0  0  0  0  0
  -18.0090  -27.6950   22.7920 C   0  0  0  0  0  0  0  0  0  0  0  0
  -20.5360  -28.1190   23.1250 C   0  0  0  0  0  3  0  0  0  0  0  0
  -20.7440  -26.6810   22.5970 C   0  0  0  0  0  2  0  0  0  0  0  0
  -19.6970  -26.2630   21.5610 C   0  0  0  0  0  2  0  0  0  0  0  0
  -18.2900  -26.3430   22.1580 C   0  0  0  0  0  2  0  0  0  0  0  0
  -19.0650  -28.5360   23.2330 C   0  0  0  0  0  0  0  0  0  0  0  0
  -18.7500  -29.7970   23.7830 C   0  0  0  0  0  3  0  0  0  0  0  0
  -17.4120  -30.2190   23.8970 C   0  0  0  0  0  3  0  0  0  0  0  0
  -16.3690  -29.3780   23.4710 C   0  0  0  0  0  3  0  0  0  0  0  0
  -16.6700  -28.1170   22.9260 C   0  0  0  0  0  3  0  0  0  0  0  0
  -25.7560  -32.4280   23.7260 C   0  0  0  0  0  3  0  0  0  0  0  0
  -25.4270  -33.8140   24.0910 N   0  0  0  0  0  0  0  0  0  0  0  0
  -25.7050  -34.8850   23.3350 C   0  0  0  0  0  0  0  0  0  0  0  0
  -26.3380  -34.8090   22.2780 O   0  0  0  0  0  0  0  0  0  0  0  0
  -24.8670  -33.9450   24.9200 H   0  0  0  0  0  0  0  0  0  0  0  0
  -23.9220  -36.6390   23.0740 C   0  0  0  0  0  1  0  0  0  0  0  0
  -25.2040  -36.2550   23.8300 C   0  0  0  0  0  3  0  0  0  0  0  0
  -27.3520  -37.1750   24.5870 C   0  0  0  0  0  1  0  0  0  0  0  0
  -26.2050  -37.3350   23.6950 N   0  0  0  0  0  0  0  0  0  0  0  0
  -25.7820  -38.2400   23.8830 H   0  0  0  0  0  0  0  0  0  0  0  0
  -26.3280  -31.6450   24.9700 C   0  0  1  0  0  0  0  0  0  0  0  0
  -25.2740  -31.3660   26.0660 C   0  0  0  0  0  1  0  0  0  0  0  0
  -26.9260  -30.2890   24.5310 C   0  0  0  0  0  1  0  0  0  0  0  0
  -27.4800  -32.4510   25.6110 C   0  0  0  0  0  1  0  0  0  0  0  0
  6  3  1  1
  4 10  1  0
  4  1  1  0
  9  5  1  1
  6  2  1  0
  7  8  1  0
  7  9  1  0
  7  2  1  6
  7  6  1  0
  8 12  1  0
  8  3  1  0
  9  1  1  0
  9  6  1  0
 10 51  1  0
 10  5  1  0
 10 11  1  6
 13 21  1  0
 14 19  1  0
 15 16  1  0
 15 14  1  0
 17 16  1  0
 17 26  1  0
 17 18  1  0
 19 13  1  0
 19 18  1  0
 20 13  2  0
 21 12  1  0
 21 22  1  0
 23 24  2  0
 24 43  1  0
 25 24  1  0
 25 28  1  0
 26 27  1  0
 26 23  1  0
 27 25  2  0
 28 29  1  0
 29 30  2  0
 31 34  1  0
 31 30  1  0
 32 31  2  0
 33 32  1  0
 33 28  2  0
 34 35  1  0
 35 36  1  0
 36 37  2  0
 38 37  1  0
 38 42  1  0
 39 38  2  0
 40 35  2  0
 40 39  1  0
 41 40  1  0
 43 44  1  0
 44 47  1  0
 44 46  1  0
 45 43  2  0
 48 23  1  0
 48 49  1  0
 50 48  1  0
 51 52  1  0
 52 55  1  0
 52 53  1  0
 53 54  1  0
 56 55  1  0
 57 68  2  0
 58 56  1  0
 58 63  1  0
 59 67  1  0
 59 69  1  0
 60 66  1  0
 60 62  1  0
 61 67  1  0
 62 61  1  0
 63 62  2  0
 64 65  1  0
 64 58  2  0
 65 60  2  0
 66 59  1  0
 67 57  1  0
 69 71  2  0
 70 69  1  0
 72 70  1  0
 73 82  2  0
 73 78  1  0
 74 70  1  0
 74 78  1  0
 75 74  1  0
 76 77  1  0
 76 75  1  0
 77 73  1  0
 78 79  2  0
 79 80  1  0
 81 80  2  0
 82 81  1  0
 83 57  1  0
 83 84  1  0
 83 93  1  0
 84 87  1  0
 85 89  1  0
 85 84  1  0
 86 85  2  0
 89 88  1  0
 91 89  1  0
 91 92  1  0
 91 90  1  0
 93 96  1  1
 93 94  1  0
 95 93  1  0
M  ISO  4  13 100  21 100  55 101  56 101
M  END
>  <TORSDO>  (31) 
F 21

>  <SCORE>  (31) 
-12.047

>  <name>  (31) 
30

>  <ligand_id>  (31) 
30

>  <original_smiles>  (31) 
[H]OC([H])(C([H])([H])Oc1c([H])c([H])c2c(c1[H])C([H])([H])N(C(=O)C([H])(N([H])C(=O)C([H])(N([H])C([H])([H])[H])C([H])([H])[H])C(C([H])([H])[H])(C([H])([H])[H])C([H])([H])[H])C([H])(C(=O)N([H])C1([H])c3c([H])c([H])c([H])c([H])c3C([H])([H])C([H])([H])C1([H])[H])C2([H])[H])C([H])([H])[N+]1([H])C([H])([H])C([H])([H])C2(C3([H])C([H])([H])C([H])(C([H])([H])N([H])C(=O)N4C([H])([H])C([H])([H])C([H])([H])C([H])(n5nc(-c6c([H])c([H])c(Oc7c([H])c([H])c(F)c([H])c7F)c([H])c6[H])c(C(=O)N([H])[H])c5N([H])[H])C4([H])[H])C2([H])C3([H])[H])C1([H])[H]

>  <smiles>  (31) 
[H]OC([H])(C([H])([H])Oc1c([H])c([H])c2c(c1[H])C([H])([H])N(C(=O)C([H])(N([H])C(=O)C([H])(N([H])C([H])([H])[H])C([H])([H])[H])C(C([H])([H])[H])(C([H])([H])[H])C([H])([H])[H])C([H])(C(=O)N([H])C1([H])c3c([H])c([H])c([H])c([H])c3C([H])([H])C([H])([H])C1([H])[H])C2([H])[H])C([H])([H])[N+]1([H])C([H])([H])C([H])([H])C2(C3([H])C([H])([H])C([H])(C([H])([H])N([H])C(=O)N4C([H])([H])C([H])([H])C([H])([H])C([H])(n5nc(-c6c([H])c([H])c(Oc7c([H])c([H])c(F)c([H])c7F)c([H])c6[H])c(C(=O)N([H])[H])c5N([H])[H])C4([H])[H])C2([H])C3([H])[H])C1([H])[H]

$$$$
31:0:0
     RDKit          3D

 89 98  0  0  1  0  0  0  0  0999 V2000
  -29.1530  -20.6760   21.8660 C   0  0  0  0  0  2  0  0  0  0  0  0
  -28.6230  -22.1750   21.7410 C   0  0  0  0  0  2  0  0  0  0  0  0
  -30.1540  -19.1860   18.6690 C   0  0  0  0  0  2  0  0  0  0  0  0
  -30.1030  -20.7890   18.7630 C   0  0  0  0  0  2  0  0  0  0  0  0
  -29.8980  -18.5490   20.0720 C   0  0  0  0  0  3  0  0  0  0  0  0
  -28.8900  -19.9300   20.5260 C   0  0  0  0  0  3  0  0  0  0  0  0
  -28.9440  -22.7280   20.3190 C   0  0  0  0  0  3  0  0  0  0  0  0
  -28.9510  -21.2290   19.6130 N   0  0  1  0  0  4  0  0  0  0  0  0
  -28.1310  -21.1790   19.0260 H   0  0  0  0  0  0  0  0  0  0  0  0
  -30.4730  -15.5680   20.0780 C   0  0  0  0  0  0  0  0  0  0  0  0
  -30.4750  -13.0930   19.2320 C   0  0  0  0  0  2  0  0  0  0  0  0
  -29.5360  -12.8210   18.0280 C   0  0  0  0  0  2  0  0  0  0  0  0
  -28.1060  -12.5260   18.5070 C   0  0  0  0  0  2  0  0  0  0  0  0
  -27.6570  -13.5030   19.6200 C   0  0  0  0  0  3  0  0  0  0  0  0
  -28.7240  -13.7130   20.7160 C   0  0  0  0  0  2  0  0  0  0  0  0
  -29.9210  -14.2470   20.0430 N   0  0  0  0  0  0  0  0  0  0  0  0
  -31.6910  -15.5580   19.8380 O   0  0  0  0  0  0  0  0  0  0  0  0
  -29.7020  -16.8560   20.1800 N   0  0  0  0  0  0  0  0  0  0  0  0
  -28.7300  -16.6330   20.3370 H   0  0  0  0  0  0  0  0  0  0  0  0
  -25.3050  -14.0340   20.4370 C   0  0  0  0  0  0  0  0  0  0  0  0
  -24.2570  -13.2490   20.8250 C   0  0  0  0  0  0  0  0  0  0  0  0
  -24.7310  -11.9020   20.7730 C   0  0  0  0  0  0  0  0  0  0  0  0
  -26.3470  -13.1690   20.1610 N   0  0  0  0  0  0  0  0  0  0  0  0
  -26.0170  -11.8790   20.4310 N   0  0  0  0  0  0  0  0  0  0  0  0
  -24.0160  -10.6330   20.9650 C   0  0  0  0  0  0  0  0  0  0  0  0
  -24.4460   -9.6740   21.9080 C   0  0  0  0  0  3  0  0  0  0  0  0
  -23.7230   -8.4740   22.0900 C   0  0  0  0  0  3  0  0  0  0  0  0
  -22.5570   -8.2250   21.3280 C   0  0  0  0  0  0  0  0  0  0  0  0
  -22.1480   -9.1720   20.3730 C   0  0  0  0  0  3  0  0  0  0  0  0
  -22.8710  -10.3630   20.1900 C   0  0  0  0  0  3  0  0  0  0  0  0
  -21.8080   -7.0770   21.4190 O   0  0  0  0  0  0  0  0  0  0  0  0
  -21.7250   -6.3630   22.5890 C   0  0  0  0  0  0  0  0  0  0  0  0
  -21.1950   -6.9280   23.7690 C   0  0  0  0  0  3  0  0  0  0  0  0
  -21.0620   -6.1380   24.9290 C   0  0  0  0  0  3  0  0  0  0  0  0
  -21.4480   -4.7840   24.9070 C   0  0  0  0  0  0  0  0  0  0  0  0
  -21.9680   -4.2190   23.7300 C   0  0  0  0  0  3  0  0  0  0  0  0
  -22.1030   -5.0060   22.5730 C   0  0  0  0  0  0  0  0  0  0  0  0
  -22.5850   -4.4500   21.4360 F   0  0  0  0  0  0  0  0  0  0  0  0
  -21.3130   -4.0210   26.0180 F   0  0  0  0  0  0  0  0  0  0  0  0
  -22.8640  -13.7150   21.1250 C   0  0  0  0  0  0  0  0  0  0  0  0
  -22.1630  -13.0190   22.0120 N   0  0  0  0  0  0  0  0  0  0  0  0
  -22.4090  -14.7370   20.6120 O   0  0  0  0  0  0  0  0  0  0  0  0
  -22.5440  -12.1910   22.4450 H   0  0  0  0  0  0  0  0  0  0  0  0
  -21.2310  -13.3180   22.2620 H   0  0  0  0  0  0  0  0  0  0  0  0
  -25.4530  -15.4080   20.2650 N   0  0  0  0  0  0  0  0  0  0  0  0
  -24.6750  -16.0480   20.3780 H   0  0  0  0  0  0  0  0  0  0  0  0
  -26.2720  -15.8490   19.8690 H   0  0  0  0  0  0  0  0  0  0  0  0
  -28.1000  -24.3030   19.8500 C   0  0  0  0  0  2  0  0  0  0  0  0
  -28.2320  -25.9500   20.1760 O   0  0  0  0  0  0  0  0  0  0  0  0
  -24.6580  -31.9430   23.1800 C   0  0  0  0  0  0  0  0  0  0  0  0
  -27.2130  -27.0620   20.1020 C   0  0  0  0  0  0  0  0  0  0  0  0
  -23.4530  -30.5400   21.5570 C   0  0  0  0  0  3  0  0  0  0  0  0
  -24.8960  -28.9510   20.1000 C   0  0  0  0  0  0  0  0  0  0  0  0
  -26.0160  -30.7670   21.3720 C   0  0  0  0  0  2  0  0  0  0  0  0
  -26.0900  -29.3550   20.7080 C   0  0  0  0  0  0  0  0  0  0  0  0
  -27.2380  -28.4340   20.6830 C   0  0  0  0  0  3  0  0  0  0  0  0
  -25.9870  -26.8250   19.4380 C   0  0  0  0  0  3  0  0  0  0  0  0
  -24.8720  -27.7080   19.4430 C   0  0  0  0  0  3  0  0  0  0  0  0
  -23.6670  -29.8600   20.1750 C   0  0  0  0  0  2  0  0  0  0  0  0
  -24.7320  -31.1120   22.0900 N   0  0  0  0  0  0  0  0  0  0  0  0
  -23.5740  -32.2200   23.7190 O   0  0  0  0  0  0  0  0  0  0  0  0
  -22.7820  -29.5370   22.5310 C   0  0  0  0  0  0  0  0  0  0  0  0
  -21.4530  -29.3470   22.4160 N   0  0  0  0  0  0  0  0  0  0  0  0
  -23.4650  -28.9260   23.3570 O   0  0  0  0  0  0  0  0  0  0  0  0
  -20.9520  -29.8920   21.7280 H   0  0  0  0  0  0  0  0  0  0  0  0
  -18.0990  -28.0720   22.9570 C   0  0  0  0  0  0  0  0  0  0  0  0
  -20.6550  -28.3930   23.1940 C   0  0  0  0  0  3  0  0  0  0  0  0
  -20.7790  -26.9620   22.6190 C   0  0  0  0  0  2  0  0  0  0  0  0
  -19.6750  -26.6180   21.6140 C   0  0  0  0  0  2  0  0  0  0  0  0
  -18.2980  -26.7290   22.2730 C   0  0  0  0  0  2  0  0  0  0  0  0
  -19.2040  -28.8600   23.3740 C   0  0  0  0  0  0  0  0  0  0  0  0
  -18.9600  -30.1130   23.9760 C   0  0  0  0  0  3  0  0  0  0  0  0
  -17.6460  -30.5800   24.1610 C   0  0  0  0  0  3  0  0  0  0  0  0
  -16.5550  -29.7910   23.7580 C   0  0  0  0  0  3  0  0  0  0  0  0
  -16.7820  -28.5370   23.1620 C   0  0  0  0  0  3  0  0  0  0  0  0
  -25.9310  -32.5990   23.7960 C   0  0  0  0  0  3  0  0  0  0  0  0
  -25.6030  -33.9940   24.1410 N   0  0  0  0  0  0  0  0  0  0  0  0
  -25.8970  -35.0620   23.3860 C   0  0  0  0  0  0  0  0  0  0  0  0
  -26.5310  -34.9760   22.3320 O   0  0  0  0  0  0  0  0  0  0  0  0
  -25.0320  -34.1330   24.9610 H   0  0  0  0  0  0  0  0  0  0  0  0
  -24.1320  -36.8380   23.1230 C   0  0  0  0  0  1  0  0  0  0  0  0
  -25.4120  -36.4420   23.8760 C   0  0  0  0  0  3  0  0  0  0  0  0
  -27.5590  -37.3640   24.6370 C   0  0  0  0  0  1  0  0  0  0  0  0
  -26.4250  -37.5120   23.7280 N   0  0  0  0  0  0  0  0  0  0  0  0
  -26.0090  -38.4250   23.8870 H   0  0  0  0  0  0  0  0  0  0  0  0
  -26.4610  -31.8380   25.0740 C   0  0  1  0  0  0  0  0  0  0  0  0
  -25.3710  -31.5850   26.1420 C   0  0  0  0  0  1  0  0  0  0  0  0
  -27.0680  -30.4700   24.6900 C   0  0  0  0  0  1  0  0  0  0  0  0
  -27.6000  -32.6510   25.7340 C   0  0  0  0  0  1  0  0  0  0  0  0
  2  1  1  0
  3  4  1  0
  3  5  1  0
  4  8  1  0
  5 18  1  0
  5  6  1  0
  6  1  1  0
  7 48  1  0
  7  2  1  0
  8  9  1  6
  8  7  1  0
  8  6  1  0
 10 18  1  0
 11 16  1  0
 12 13  1  0
 12 11  1  0
 14 13  1  0
 14 23  1  0
 14 15  1  0
 16 10  1  0
 16 15  1  0
 17 10  2  0
 18 19  1  0
 20 21  2  0
 21 40  1  0
 22 21  1  0
 22 25  1  0
 23 24  1  0
 23 20  1  0
 24 22  2  0
 25 26  1  0
 26 27  2  0
 28 31  1  0
 28 27  1  0
 29 28  2  0
 30 29  1  0
 30 25  2  0
 31 32  1  0
 32 33  1  0
 33 34  2  0
 35 34  1  0
 35 39  1  0
 36 35  2  0
 37 32  2  0
 37 36  1  0
 38 37  1  0
 40 41  1  0
 41 44  1  0
 41 43  1  0
 42 40  2  0
 45 46  1  0
 45 20  1  0
 47 45  1  0
 48 49  1  0
 50 61  2  0
 51 49  1  0
 51 56  1  0
 52 60  1  0
 52 62  1  0
 53 59  1  0
 53 55  1  0
 54 60  1  0
 55 54  1  0
 56 55  2  0
 57 58  1  0
 57 51  2  0
 58 53  2  0
 59 52  1  0
 60 50  1  0
 62 64  2  0
 63 62  1  0
 65 63  1  0
 66 75  2  0
 66 71  1  0
 67 63  1  0
 67 71  1  0
 68 67  1  0
 69 70  1  0
 69 68  1  0
 70 66  1  0
 71 72  2  0
 72 73  1  0
 74 73  2  0
 75 74  1  0
 76 50  1  0
 76 77  1  0
 76 86  1  0
 77 80  1  0
 78 82  1  0
 78 77  1  0
 79 78  2  0
 82 81  1  0
 84 82  1  0
 84 85  1  0
 84 83  1  0
 86 89  1  1
 86 87  1  0
 88 86  1  0
M  ISO  4  10 100  18 100  48 101  49 101
M  END
>  <TORSDO>  (32) 
F 17

>  <SCORE>  (32) 
-16.390

>  <name>  (32) 
31

>  <ligand_id>  (32) 
31

>  <original_smiles>  (32) 
[H]c1c([H])c([H])c2c(c1[H])C([H])([H])C([H])([H])C([H])([H])C2([H])N([H])C(=O)C1([H])N(C(=O)C([H])(N([H])C(=O)C([H])(N([H])C([H])([H])[H])C([H])([H])[H])C(C([H])([H])[H])(C([H])([H])[H])C([H])([H])[H])C([H])([H])c2c([H])c(OC([H])([H])C3([H])C([H])([H])C([H])([H])C4([H])C([H])(N([H])C(=O)N5C([H])([H])C([H])([H])C([H])([H])C([H])(n6nc(-c7c([H])c([H])c(Oc8c([H])c([H])c(F)c([H])c8F)c([H])c7[H])c(C(=O)N([H])[H])c6N([H])[H])C5([H])[H])C([H])([H])C([H])([H])[N+]34[H])c([H])c([H])c2C1([H])[H]

>  <smiles>  (32) 
[H]c1c([H])c([H])c2c(c1[H])C([H])([H])C([H])([H])C([H])([H])C2([H])N([H])C(=O)C1([H])N(C(=O)C([H])(N([H])C(=O)C([H])(N([H])C([H])([H])[H])C([H])([H])[H])C(C([H])([H])[H])(C([H])([H])[H])C([H])([H])[H])C([H])([H])c2c([H])c(OC([H])([H])C3([H])C([H])([H])C([H])([H])C4([H])C([H])(N([H])C(=O)N5C([H])([H])C([H])([H])C([H])([H])C([H])(n6nc(-c7c([H])c([H])c(Oc8c([H])c([H])c(F)c([H])c8F)c([H])c7[H])c(C(=O)N([H])[H])c6N([H])[H])C5([H])[H])C([H])([H])C([H])([H])[N+]34[H])c([H])c([H])c2C1([H])[H]

$$$$
32:0:0
     RDKit          3D

 97107  0  0  1  0  0  0  0  0999 V2000
  -30.0020  -21.1130   18.0950 C   0  0  0  0  0  2  0  0  0  0  0  0
  -28.6390  -21.1290   20.2590 C   0  0  0  0  0  2  0  0  0  0  0  0
  -30.1760  -22.6160   18.4100 C   0  0  0  0  0  2  0  0  0  0  0  0
  -29.9260  -21.8040   20.7690 C   0  0  0  0  0  2  0  0  0  0  0  0
  -28.7780  -20.5290   18.8390 C   0  0  0  0  0  3  0  0  0  0  0  0
  -30.4140  -22.8870   19.8610 N   0  0  2  0  0  4  0  0  0  0  0  0
  -31.4180  -22.8610   19.9850 H   0  0  0  0  0  0  0  0  0  0  0  0
  -28.6490  -18.9830   18.7910 C   0  0  0  0  0  2  0  0  0  0  0  0
  -29.9520  -18.1820   19.0390 C   0  0  0  0  0  2  0  0  0  0  0  0
  -29.9850  -16.5970   22.4770 C   0  0  0  0  0  2  0  0  0  0  0  0
  -29.2220  -17.2550   21.3260 C   0  0  0  0  0  2  0  0  0  0  0  0
  -31.3370  -16.2990   21.8870 C   0  0  0  0  0  3  0  0  0  0  0  0
  -31.4760  -15.5840   20.5530 C   0  0  0  0  0  3  0  0  0  0  0  0
  -31.5420  -17.1040   20.6390 C   0  0  0  0  0  3  0  0  0  0  0  0
  -30.2720  -17.8580   20.4610 N   0  0  1  0  0  4  0  0  0  0  0  0
  -30.4570  -18.7560   20.8840 H   0  0  0  0  0  0  0  0  0  0  0  0
  -32.8410  -13.7450   19.6210 C   0  0  0  0  0  0  0  0  0  0  0  0
  -32.4830  -11.3110   19.4330 C   0  0  0  0  0  2  0  0  0  0  0  0
  -31.4960  -10.9580   18.3040 C   0  0  0  0  0  2  0  0  0  0  0  0
  -30.0420  -11.0060   18.8090 C   0  0  0  0  0  2  0  0  0  0  0  0
  -29.7320  -12.3140   19.5820 C   0  0  0  0  0  3  0  0  0  0  0  0
  -30.8200  -12.5670   20.6460 C   0  0  0  0  0  2  0  0  0  0  0  0
  -32.1290  -12.6350   19.9720 N   0  0  0  0  0  0  0  0  0  0  0  0
  -33.7960  -13.7040   18.8430 O   0  0  0  0  0  0  0  0  0  0  0  0
  -32.6850  -14.8510   20.3640 N   0  0  0  0  0  0  0  0  0  0  0  0
  -33.4960  -15.4490   20.2900 H   0  0  0  0  0  0  0  0  0  0  0  0
  -27.5460  -13.3270   20.4880 C   0  0  0  0  0  0  0  0  0  0  0  0
  -26.4000  -12.7530   20.9640 C   0  0  0  0  0  0  0  0  0  0  0  0
  -26.6130  -11.3400   20.9070 C   0  0  0  0  0  0  0  0  0  0  0  0
  -28.3970  -12.2780   20.1770 N   0  0  0  0  0  0  0  0  0  0  0  0
  -27.8420  -11.0780   20.4820 N   0  0  0  0  0  0  0  0  0  0  0  0
  -25.7020  -10.2230   21.1820 C   0  0  0  0  0  0  0  0  0  0  0  0
  -25.6770   -9.5870   22.4440 C   0  0  0  0  0  3  0  0  0  0  0  0
  -24.7780   -8.5250   22.6920 C   0  0  0  0  0  3  0  0  0  0  0  0
  -23.8970   -8.0910   21.6730 C   0  0  0  0  0  0  0  0  0  0  0  0
  -23.9470   -8.7090   20.4120 C   0  0  0  0  0  3  0  0  0  0  0  0
  -24.8430   -9.7620   20.1650 C   0  0  0  0  0  3  0  0  0  0  0  0
  -23.0150   -7.0450   21.8110 O   0  0  0  0  0  0  0  0  0  0  0  0
  -22.1590   -6.9650   22.8800 C   0  0  0  0  0  0  0  0  0  0  0  0
  -21.1470   -7.9250   23.0970 C   0  0  0  0  0  3  0  0  0  0  0  0
  -20.2470   -7.7670   24.1680 C   0  0  0  0  0  3  0  0  0  0  0  0
  -20.3500   -6.6500   25.0190 C   0  0  0  0  0  0  0  0  0  0  0  0
  -21.3540   -5.6910   24.8010 C   0  0  0  0  0  3  0  0  0  0  0  0
  -22.2560   -5.8460   23.7320 C   0  0  0  0  0  0  0  0  0  0  0  0
  -23.2090   -4.9100   23.5160 F   0  0  0  0  0  0  0  0  0  0  0  0
  -19.4800   -6.4950   26.0460 F   0  0  0  0  0  0  0  0  0  0  0  0
  -25.1380  -13.4640   21.3580 C   0  0  0  0  0  0  0  0  0  0  0  0
  -24.3100  -12.8370   22.1850 N   0  0  0  0  0  0  0  0  0  0  0  0
  -24.9030  -14.6080   20.9690 O   0  0  0  0  0  0  0  0  0  0  0  0
  -24.5100  -11.9100   22.5290 H   0  0  0  0  0  0  0  0  0  0  0  0
  -23.4610  -13.2940   22.4860 H   0  0  0  0  0  0  0  0  0  0  0  0
  -27.9290  -14.6480   20.2750 N   0  0  0  0  0  0  0  0  0  0  0  0
  -27.2580  -15.4030   20.3600 H   0  0  0  0  0  0  0  0  0  0  0  0
  -28.7530  -14.9090   19.7480 H   0  0  0  0  0  0  0  0  0  0  0  0
  -30.0010  -24.2540   20.3040 C   0  0  0  0  0  2  0  0  0  0  0  0
  -30.6160  -25.4020   19.4620 C   0  0  0  0  0  2  0  0  0  0  0  0
  -30.6090  -26.6600   20.1500 O   0  0  0  0  0  0  0  0  0  0  0  0
  -26.5780  -30.4650   24.5760 C   0  0  0  0  0  0  0  0  0  0  0  0
  -29.4380  -27.3770   20.2800 C   0  0  0  0  0  0  0  0  0  0  0  0
  -25.5300  -29.8910   22.4090 C   0  0  0  0  0  3  0  0  0  0  0  0
  -27.0960  -28.9220   20.6430 C   0  0  0  0  0  0  0  0  0  0  0  0
  -28.0690  -30.1240   22.6080 C   0  0  0  0  0  2  0  0  0  0  0  0
  -28.1910  -29.1030   21.4960 C   0  0  0  0  0  0  0  0  0  0  0  0
  -29.3650  -28.3390   21.3130 C   0  0  0  0  0  3  0  0  0  0  0  0
  -28.3230  -27.2080   19.4270 C   0  0  0  0  0  3  0  0  0  0  0  0
  -27.1560  -27.9750   19.6060 C   0  0  0  0  0  3  0  0  0  0  0  0
  -25.8800  -29.7840   20.9000 C   0  0  0  0  0  2  0  0  0  0  0  0
  -26.7370  -30.1480   23.2590 N   0  0  0  0  0  0  0  0  0  0  0  0
  -25.4500  -30.5820   25.0740 O   0  0  0  0  0  0  0  0  0  0  0  0
  -24.7470  -28.6240   22.8240 C   0  0  0  0  0  0  0  0  0  0  0  0
  -23.4670  -28.5560   22.4270 N   0  0  0  0  0  0  0  0  0  0  0  0
  -25.2970  -27.7230   23.4650 O   0  0  0  0  0  0  0  0  0  0  0  0
  -23.0910  -29.3410   21.9130 H   0  0  0  0  0  0  0  0  0  0  0  0
  -20.0840  -27.4050   21.8900 C   0  0  0  0  0  0  0  0  0  0  0  0
  -22.5480  -27.4450   22.6700 C   0  0  0  0  0  3  0  0  0  0  0  0
  -22.7810  -26.3000   21.6590 C   0  0  0  0  0  2  0  0  0  0  0  0
  -21.8820  -26.3950   20.4220 C   0  0  0  0  0  2  0  0  0  0  0  0
  -20.4060  -26.3660   20.8280 C   0  0  0  0  0  2  0  0  0  0  0  0
  -21.0940  -27.9220   22.7430 C   0  0  0  0  0  0  0  0  0  0  0  0
  -20.7500  -28.9130   23.6900 C   0  0  0  0  0  3  0  0  0  0  0  0
  -19.4280  -29.3840   23.7920 C   0  0  0  0  0  3  0  0  0  0  0  0
  -18.4290  -28.8570   22.9540 C   0  0  0  0  0  3  0  0  0  0  0  0
  -18.7560  -27.8660   22.0100 C   0  0  0  0  0  3  0  0  0  0  0  0
  -27.8000  -30.7130   25.5130 C   0  0  0  0  0  3  0  0  0  0  0  0
  -27.5240  -31.9340   26.2830 N   0  0  0  0  0  0  0  0  0  0  0  0
  -28.1320  -33.1110   26.0830 C   0  0  0  0  0  0  0  0  0  0  0  0
  -29.0470  -33.2640   25.2700 O   0  0  0  0  0  0  0  0  0  0  0  0
  -26.7490  -31.8960   26.9300 H   0  0  0  0  0  0  0  0  0  0  0  0
  -26.7920  -35.2360   26.0420 C   0  0  0  0  0  1  0  0  0  0  0  0
  -27.6470  -34.3090   26.9190 C   0  0  0  0  0  3  0  0  0  0  0  0
  -29.4520  -34.3500   28.5840 C   0  0  0  0  0  1  0  0  0  0  0  0
  -28.7500  -35.0820   27.5330 N   0  0  0  0  0  0  0  0  0  0  0  0
  -28.4010  -35.9490   27.9330 H   0  0  0  0  0  0  0  0  0  0  0  0
  -28.1050  -29.5020   26.4760 C   0  0  1  0  0  0  0  0  0  0  0  0
  -26.8690  -29.0100   27.2650 C   0  0  0  0  0  1  0  0  0  0  0  0
  -28.6670  -28.3020   25.6790 C   0  0  0  0  0  1  0  0  0  0  0  0
  -29.1960  -29.9050   27.4970 C   0  0  0  0  0  1  0  0  0  0  0  0
  1  3  1  0
  1  5  1  0
  2  4  1  0
  3  6  1  0
  5  8  1  0
  5  2  1  0
  6  7  1  6
  6 55  1  0
  6  4  1  0
  8  9  1  0
  9 15  1  0
 11 10  1  0
 12 10  1  0
 13 25  1  0
 13 14  1  0
 13 12  1  0
 14 15  1  0
 14 12  1  0
 15 16  1  1
 15 11  1  0
 17 23  1  0
 17 25  1  0
 18 23  1  0
 19 20  1  0
 19 18  1  0
 21 20  1  0
 21 30  1  0
 21 22  1  0
 23 22  1  0
 24 17  2  0
 26 25  1  0
 27 28  2  0
 28 47  1  0
 29 28  1  0
 29 32  1  0
 30 31  1  0
 30 27  1  0
 31 29  2  0
 32 33  1  0
 33 34  2  0
 35 38  1  0
 35 34  1  0
 36 35  2  0
 37 36  1  0
 37 32  2  0
 38 39  1  0
 39 40  2  0
 39 44  1  0
 40 41  1  0
 41 42  2  0
 42 46  1  0
 43 42  1  0
 44 43  2  0
 45 44  1  0
 47 48  1  0
 48 51  1  0
 48 50  1  0
 49 47  2  0
 52 53  1  0
 52 27  1  0
 54 52  1  0
 56 57  1  0
 56 55  1  0
 57 59  1  0
 58 69  2  0
 59 64  1  0
 60 70  1  0
 60 68  1  0
 61 67  1  0
 61 63  1  0
 62 68  1  0
 63 62  1  0
 64 63  2  0
 65 66  1  0
 65 59  2  0
 66 61  2  0
 67 60  1  0
 68 58  1  0
 70 72  2  0
 71 70  1  0
 73 71  1  0
 74 83  2  0
 74 79  1  0
 75 71  1  0
 75 79  1  0
 76 75  1  0
 77 78  1  0
 77 76  1  0
 78 74  1  0
 79 80  2  0
 80 81  1  0
 82 81  2  0
 83 82  1  0
 84 58  1  0
 84 85  1  0
 84 94  1  0
 85 88  1  0
 86 85  1  0
 86 90  1  0
 87 86  2  0
 90 89  1  0
 90 92  1  0
 92 93  1  0
 92 91  1  0
 94 95  1  1
 94 97  1  0
 96 94  1  0
M  ISO  4  17 100  25 100  56 101  57 101
M  END
>  <TORSDO>  (33) 
F 21

>  <SCORE>  (33) 
-6.128

>  <name>  (33) 
32

>  <ligand_id>  (33) 
32

>  <original_smiles>  (33) 
[H]c1c([H])c([H])c2c(c1[H])C([H])([H])C([H])([H])C([H])([H])C2([H])N([H])C(=O)C1([H])N(C(=O)C([H])(N([H])C(=O)C([H])(N([H])C([H])([H])[H])C([H])([H])[H])C(C([H])([H])[H])(C([H])([H])[H])C([H])([H])[H])C([H])([H])c2c([H])c(OC([H])([H])C([H])([H])[N+]3([H])C([H])([H])C([H])([H])C([H])(C([H])([H])C([H])([H])[N+]4([H])C([H])([H])C([H])([H])C5([H])C([H])(N([H])C(=O)N6C([H])([H])C([H])([H])C([H])([H])C([H])(n7nc(-c8c([H])c([H])c(Oc9c([H])c([H])c(F)c([H])c9F)c([H])c8[H])c(C(=O)N([H])[H])c7N([H])[H])C6([H])[H])C54[H])C([H])([H])C3([H])[H])c([H])c([H])c2C1([H])[H]

>  <smiles>  (33) 
[H]c1c([H])c([H])c2c(c1[H])C([H])([H])C([H])([H])C([H])([H])C2([H])N([H])C(=O)C1([H])N(C(=O)C([H])(N([H])C(=O)C([H])(N([H])C([H])([H])[H])C([H])([H])[H])C(C([H])([H])[H])(C([H])([H])[H])C([H])([H])[H])C([H])([H])c2c([H])c(OC([H])([H])C([H])([H])[N+]3([H])C([H])([H])C([H])([H])C([H])(C([H])([H])C([H])([H])[N+]4([H])C([H])([H])C([H])([H])C5([H])C([H])(N([H])C(=O)N6C([H])([H])C([H])([H])C([H])([H])C([H])(n7nc(-c8c([H])c([H])c(Oc9c([H])c([H])c(F)c([H])c9F)c([H])c8[H])c(C(=O)N([H])[H])c7N([H])[H])C6([H])[H])C54[H])C([H])([H])C3([H])[H])c([H])c([H])c2C1([H])[H]

$$$$
33:0:0
     RDKit          3D

 93101  0  0  1  0  0  0  0  0999 V2000
  -27.3520  -21.8850   20.0580 N   0  0  0  0  0  4  0  0  0  0  0  0
  -26.7550  -21.3680   19.4320 H   0  0  0  0  0  0  0  0  0  0  0  0
  -26.7600  -22.2230   20.8000 H   0  0  0  0  0  0  0  0  0  0  0  0
  -27.9080  -23.0500   19.3290 C   0  0  0  0  0  2  0  0  0  0  0  0
  -27.9740  -24.3290   20.1940 C   0  0  0  0  0  2  0  0  0  0  0  0
  -28.5080  -25.5470   19.4040 C   0  0  0  0  0  2  0  0  0  0  0  0
  -28.3860  -26.7840   20.1150 O   0  0  0  0  0  0  0  0  0  0  0  0
  -24.5610  -31.9110   23.2150 C   0  0  0  0  0  0  0  0  0  0  0  0
  -27.1870  -27.4730   20.1050 C   0  0  0  0  0  0  0  0  0  0  0  0
  -23.3450  -30.5160   21.5760 C   0  0  0  0  0  3  0  0  0  0  0  0
  -24.7870  -28.9790   20.1420 C   0  0  0  0  0  0  0  0  0  0  0  0
  -25.8720  -30.8660   21.3710 C   0  0  0  0  0  2  0  0  0  0  0  0
  -25.9480  -29.4960   20.7300 C   0  0  0  0  0  0  0  0  0  0  0  0
  -27.1450  -28.7470   20.7160 C   0  0  0  0  0  3  0  0  0  0  0  0
  -26.0040  -26.9690   19.5120 C   0  0  0  0  0  3  0  0  0  0  0  0
  -24.8100  -27.7120   19.5350 C   0  0  0  0  0  3  0  0  0  0  0  0
  -23.5460  -29.8390   20.1940 C   0  0  0  0  0  2  0  0  0  0  0  0
  -24.6120  -31.1130   22.1120 N   0  0  0  0  0  0  0  0  0  0  0  0
  -23.4830  -32.1860   23.7590 O   0  0  0  0  0  0  0  0  0  0  0  0
  -22.6970  -29.4930   22.5360 C   0  0  0  0  0  0  0  0  0  0  0  0
  -21.3710  -29.3210   22.4160 N   0  0  0  0  0  0  0  0  0  0  0  0
  -23.3830  -28.8580   23.3410 O   0  0  0  0  0  0  0  0  0  0  0  0
  -20.8810  -29.8820   21.7350 H   0  0  0  0  0  0  0  0  0  0  0  0
  -17.9900  -28.1600   22.9360 C   0  0  0  0  0  0  0  0  0  0  0  0
  -20.5530  -28.3840   23.1850 C   0  0  0  0  0  3  0  0  0  0  0  0
  -20.6330  -26.9580   22.5900 C   0  0  0  0  0  2  0  0  0  0  0  0
  -19.5170  -26.6610   21.5840 C   0  0  0  0  0  2  0  0  0  0  0  0
  -18.1440  -26.8150   22.2450 C   0  0  0  0  0  2  0  0  0  0  0  0
  -19.1220  -28.9040   23.3620 C   0  0  0  0  0  0  0  0  0  0  0  0
  -18.9250  -30.1650   23.9650 C   0  0  0  0  0  3  0  0  0  0  0  0
  -17.6290  -30.6810   24.1480 C   0  0  0  0  0  3  0  0  0  0  0  0
  -16.5110  -29.9320   23.7390 C   0  0  0  0  0  3  0  0  0  0  0  0
  -16.6920  -28.6740   23.1380 C   0  0  0  0  0  3  0  0  0  0  0  0
  -25.8520  -32.5350   23.8320 C   0  0  0  0  0  3  0  0  0  0  0  0
  -25.5470  -33.9320   24.1710 N   0  0  0  0  0  0  0  0  0  0  0  0
  -25.8890  -34.9880   23.4210 C   0  0  0  0  0  0  0  0  0  0  0  0
  -26.5640  -34.8880   22.3930 O   0  0  0  0  0  0  0  0  0  0  0  0
  -24.9490  -34.0840   24.9700 H   0  0  0  0  0  0  0  0  0  0  0  0
  -24.1770  -36.7940   23.0530 C   0  0  0  0  0  1  0  0  0  0  0  0
  -25.4020  -36.3750   23.8820 C   0  0  0  0  0  3  0  0  0  0  0  0
  -27.5290  -37.2340   24.7560 C   0  0  0  0  0  1  0  0  0  0  0  0
  -26.4440  -37.4210   23.7980 N   0  0  0  0  0  0  0  0  0  0  0  0
  -26.0410  -38.3430   23.9490 H   0  0  0  0  0  0  0  0  0  0  0  0
  -26.3760  -31.7550   25.0990 C   0  0  1  0  0  0  0  0  0  0  0  0
  -25.2890  -31.5090   26.1710 C   0  0  0  0  0  1  0  0  0  0  0  0
  -26.9580  -30.3810   24.6910 C   0  0  0  0  0  1  0  0  0  0  0  0
  -27.5310  -32.5440   25.7590 C   0  0  0  0  0  1  0  0  0  0  0  0
  -28.3340  -20.9350   20.6330 C   0  0  0  0  0  2  0  0  0  0  0  0
  -28.7490  -19.8350   19.6280 C   0  0  0  0  0  2  0  0  0  0  0  0
  -29.5910  -17.5340   20.1570 C   0  0  0  0  0  0  0  0  0  0  0  0
  -29.6820  -18.8700   20.2200 N   0  0  0  0  0  0  0  0  0  0  0  0
  -28.6790  -16.9500   19.5670 O   0  0  0  0  0  0  0  0  0  0  0  0
  -30.4800  -19.2460   20.7160 H   0  0  0  0  0  0  0  0  0  0  0  0
  -30.9210  -14.4400   19.9460 C   0  0  0  0  0  0  0  0  0  0  0  0
  -30.4320  -12.3700   18.6870 C   0  0  0  0  0  2  0  0  0  0  0  0
  -29.3790  -12.6330   17.5940 C   0  0  0  0  0  2  0  0  0  0  0  0
  -27.9510  -12.5040   18.1610 C   0  0  0  0  0  2  0  0  0  0  0  0
  -27.7610  -13.3110   19.4720 C   0  0  0  0  0  3  0  0  0  0  0  0
  -28.9050  -13.0140   20.4640 C   0  0  0  0  0  2  0  0  0  0  0  0
  -30.1850  -13.3070   19.7930 N   0  0  0  0  0  0  0  0  0  0  0  0
  -31.8880  -14.7180   19.2290 O   0  0  0  0  0  0  0  0  0  0  0  0
  -30.5830  -16.7030   22.3760 C   0  0  0  0  0  2  0  0  0  0  0  0
  -30.9610  -15.2330   22.2750 C   0  0  0  0  0  2  0  0  0  0  0  0
  -30.7100  -16.7440   20.8570 C   0  0  0  0  0  3  0  0  0  0  0  0
  -30.4780  -15.2870   20.8900 N   0  0  0  0  0  0  0  0  0  0  0  0
  -25.4780  -13.9640   20.4680 C   0  0  0  0  0  0  0  0  0  0  0  0
  -24.4180  -13.2090   20.8910 C   0  0  0  0  0  0  0  0  0  0  0  0
  -24.8070  -11.8460   20.7170 C   0  0  0  0  0  0  0  0  0  0  0  0
  -26.4510  -13.0600   20.0680 N   0  0  0  0  0  0  0  0  0  0  0  0
  -26.0550  -11.7780   20.2720 N   0  0  0  0  0  0  0  0  0  0  0  0
  -24.0480  -10.6010   20.8950 C   0  0  0  0  0  0  0  0  0  0  0  0
  -24.5100   -9.5670   21.7390 C   0  0  0  0  0  3  0  0  0  0  0  0
  -23.7520   -8.3890   21.9090 C   0  0  0  0  0  3  0  0  0  0  0  0
  -22.5170   -8.2360   21.2330 C   0  0  0  0  0  0  0  0  0  0  0  0
  -22.0730   -9.2590   20.3760 C   0  0  0  0  0  3  0  0  0  0  0  0
  -22.8310  -10.4290   20.2050 C   0  0  0  0  0  3  0  0  0  0  0  0
  -21.7260   -7.1150   21.3160 O   0  0  0  0  0  0  0  0  0  0  0  0
  -21.7090   -6.3280   22.4390 C   0  0  0  0  0  0  0  0  0  0  0  0
  -21.3740   -6.8480   23.7080 C   0  0  0  0  0  3  0  0  0  0  0  0
  -21.3010   -5.9890   24.8230 C   0  0  0  0  0  3  0  0  0  0  0  0
  -21.5520   -4.6130   24.6710 C   0  0  0  0  0  0  0  0  0  0  0  0
  -21.8800   -4.0920   23.4060 C   0  0  0  0  0  3  0  0  0  0  0  0
  -21.9560   -4.9480   22.2940 C   0  0  0  0  0  0  0  0  0  0  0  0
  -22.2520   -4.4380   21.0730 F   0  0  0  0  0  0  0  0  0  0  0  0
  -21.4740   -3.7860   25.7400 F   0  0  0  0  0  0  0  0  0  0  0  0
  -23.0800  -13.7180   21.3480 C   0  0  0  0  0  0  0  0  0  0  0  0
  -22.4280  -13.0000   22.2550 N   0  0  0  0  0  0  0  0  0  0  0  0
  -22.6280  -14.7860   20.9370 O   0  0  0  0  0  0  0  0  0  0  0  0
  -22.8080  -12.1340   22.6090 H   0  0  0  0  0  0  0  0  0  0  0  0
  -21.5350  -13.3220   22.6020 H   0  0  0  0  0  0  0  0  0  0  0  0
  -25.6950  -15.3360   20.3760 N   0  0  0  0  0  0  0  0  0  0  0  0
  -24.9890  -16.0190   20.6340 H   0  0  0  0  0  0  0  0  0  0  0  0
  -26.5640  -15.7610   20.0680 H   0  0  0  0  0  0  0  0  0  0  0  0
  1 48  1  0
  1  3  1  0
  2  1  1  0
  4  1  1  0
  4  5  1  0
  6  7  1  0
  6  5  1  0
  8 19  2  0
  9  7  1  0
  9 14  1  0
 10 18  1  0
 10 20  1  0
 11 17  1  0
 11 13  1  0
 12 18  1  0
 13 12  1  0
 14 13  2  0
 15 16  1  0
 15  9  2  0
 16 11  2  0
 17 10  1  0
 18  8  1  0
 20 22  2  0
 21 20  1  0
 23 21  1  0
 24 33  2  0
 24 29  1  0
 25 21  1  0
 25 29  1  0
 26 25  1  0
 27 28  1  0
 27 26  1  0
 28 24  1  0
 29 30  2  0
 30 31  1  0
 32 31  2  0
 33 32  1  0
 34  8  1  0
 34 35  1  0
 34 44  1  0
 35 38  1  0
 36 40  1  0
 36 35  1  0
 37 36  2  0
 40 39  1  0
 42 40  1  0
 42 43  1  0
 42 41  1  0
 44 47  1  1
 44 45  1  0
 46 44  1  0
 49 51  1  0
 49 48  1  0
 50 51  1  0
 51 53  1  0
 52 50  2  0
 54 65  1  0
 55 60  1  0
 56 57  1  0
 56 55  1  0
 58 57  1  0
 58 69  1  0
 58 59  1  0
 60 54  1  0
 60 59  1  0
 61 54  2  0
 63 62  1  0
 64 50  1  0
 64 65  1  0
 64 62  1  0
 65 63  1  0
 66 67  2  0
 67 86  1  0
 68 67  1  0
 68 71  1  0
 69 70  1  0
 69 66  1  0
 70 68  2  0
 71 72  1  0
 72 73  2  0
 74 77  1  0
 74 73  1  0
 75 74  2  0
 76 75  1  0
 76 71  2  0
 77 78  1  0
 78 79  1  0
 79 80  2  0
 81 80  1  0
 81 85  1  0
 82 81  2  0
 83 78  2  0
 83 82  1  0
 84 83  1  0
 86 87  1  0
 87 90  1  0
 87 89  1  0
 88 86  2  0
 91 66  1  0
 91 92  1  0
 93 91  1  0
M  ISO  4   6 101   7 101  54 100  65 100
M  END
>  <TORSDO>  (34) 
F 22

>  <SCORE>  (34) 
-12.374

>  <name>  (34) 
33

>  <ligand_id>  (34) 
33

>  <original_smiles>  (34) 
[H]c1c([H])c([H])c2c(c1[H])C([H])([H])C([H])([H])C([H])([H])C2([H])N([H])C(=O)C1([H])N(C(=O)C([H])(N([H])C(=O)C([H])(N([H])C([H])([H])[H])C([H])([H])[H])C(C([H])([H])[H])(C([H])([H])[H])C([H])([H])[H])C([H])([H])c2c([H])c(OC([H])([H])C([H])([H])C([H])([H])[N+]([H])([H])C([H])([H])C([H])([H])N([H])C(=O)C3([H])N(C(=O)N4C([H])([H])C([H])([H])C([H])([H])C([H])(n5nc(-c6c([H])c([H])c(Oc7c([H])c([H])c(F)c([H])c7F)c([H])c6[H])c(C(=O)N([H])[H])c5N([H])[H])C4([H])[H])C([H])([H])C3([H])[H])c([H])c([H])c2C1([H])[H]

>  <smiles>  (34) 
[H]c1c([H])c([H])c2c(c1[H])C([H])([H])C([H])([H])C([H])([H])C2([H])N([H])C(=O)C1([H])N(C(=O)C([H])(N([H])C(=O)C([H])(N([H])C([H])([H])[H])C([H])([H])[H])C(C([H])([H])[H])(C([H])([H])[H])C([H])([H])[H])C([H])([H])c2c([H])c(OC([H])([H])C([H])([H])C([H])([H])[N+]([H])([H])C([H])([H])C([H])([H])N([H])C(=O)C3([H])N(C(=O)N4C([H])([H])C([H])([H])C([H])([H])C([H])(n5nc(-c6c([H])c([H])c(Oc7c([H])c([H])c(F)c([H])c7F)c([H])c6[H])c(C(=O)N([H])[H])c5N([H])[H])C4([H])[H])C([H])([H])C3([H])[H])c([H])c([H])c2C1([H])[H]

$$$$
34:0:0
     RDKit          3D

 94102  0  0  1  0  0  0  0  0999 V2000
  -30.1630  -21.0090   18.2470 C   0  0  0  0  0  2  0  0  0  0  0  0
  -29.6680  -18.4440   21.0600 C   0  0  0  0  0  3  0  0  0  0  0  0
  -29.4990  -19.5520   20.2080 C   0  0  0  0  0  3  0  0  0  0  0  0
  -31.6190  -17.7700   19.7760 C   0  0  0  0  0  3  0  0  0  0  0  0
  -30.7400  -17.5530   20.8560 C   0  0  0  0  0  0  0  0  0  0  0  0
  -30.3890  -19.7830   19.1310 C   0  0  0  0  0  0  0  0  0  0  0  0
  -31.4450  -18.8630   18.9010 C   0  0  0  0  0  0  0  0  0  0  0  0
  -32.3960  -18.9980   17.7190 C   0  0  0  0  0  1  0  0  0  0  0  0
  -30.9480  -16.3710   21.7900 C   0  0  0  0  0  2  0  0  0  0  0  0
  -30.7990  -14.2900   20.4280 C   0  0  0  0  0  0  0  0  0  0  0  0
  -30.3740  -12.2370   19.1270 C   0  0  0  0  0  2  0  0  0  0  0  0
  -29.4160  -12.5180   17.9530 C   0  0  0  0  0  2  0  0  0  0  0  0
  -27.9440  -12.4200   18.3970 C   0  0  0  0  0  2  0  0  0  0  0  0
  -27.6620  -13.2150   19.6970 C   0  0  0  0  0  3  0  0  0  0  0  0
  -28.7180  -12.9020   20.7770 C   0  0  0  0  0  2  0  0  0  0  0  0
  -30.0510  -13.1770   20.2100 N   0  0  0  0  0  0  0  0  0  0  0  0
  -31.8630  -14.5150   19.8430 O   0  0  0  0  0  0  0  0  0  0  0  0
  -30.3020  -15.1430   21.3290 N   0  0  0  0  0  0  0  0  0  0  0  0
  -29.4180  -14.8980   21.7500 H   0  0  0  0  0  0  0  0  0  0  0  0
  -25.2740  -13.8750   20.4050 C   0  0  0  0  0  0  0  0  0  0  0  0
  -24.1960  -13.1220   20.7890 C   0  0  0  0  0  0  0  0  0  0  0  0
  -24.6350  -11.7620   20.7680 C   0  0  0  0  0  0  0  0  0  0  0  0
  -26.3050  -12.9730   20.1830 N   0  0  0  0  0  0  0  0  0  0  0  0
  -25.9240  -11.7000   20.4570 N   0  0  0  0  0  0  0  0  0  0  0  0
  -23.8910  -10.5130   20.9730 C   0  0  0  0  0  0  0  0  0  0  0  0
  -24.3190   -9.5430   21.9060 C   0  0  0  0  0  3  0  0  0  0  0  0
  -23.5780   -8.3580   22.0990 C   0  0  0  0  0  3  0  0  0  0  0  0
  -22.3910   -8.1360   21.3590 C   0  0  0  0  0  0  0  0  0  0  0  0
  -21.9840   -9.0920   20.4130 C   0  0  0  0  0  3  0  0  0  0  0  0
  -22.7270  -10.2680   20.2180 C   0  0  0  0  0  3  0  0  0  0  0  0
  -21.6180   -7.0040   21.4660 O   0  0  0  0  0  0  0  0  0  0  0  0
  -21.5810   -6.2640   22.6210 C   0  0  0  0  0  0  0  0  0  0  0  0
  -21.1970   -6.8300   23.8570 C   0  0  0  0  0  3  0  0  0  0  0  0
  -21.1010   -6.0180   25.0040 C   0  0  0  0  0  3  0  0  0  0  0  0
  -21.3820   -4.6400   24.9160 C   0  0  0  0  0  0  0  0  0  0  0  0
  -21.7600   -4.0750   23.6860 C   0  0  0  0  0  3  0  0  0  0  0  0
  -21.8550   -4.8840   22.5410 C   0  0  0  0  0  0  0  0  0  0  0  0
  -22.2010   -4.3300   21.3540 F   0  0  0  0  0  0  0  0  0  0  0  0
  -21.2800   -3.8560   26.0160 F   0  0  0  0  0  0  0  0  0  0  0  0
  -22.8060  -13.6220   21.0640 C   0  0  0  0  0  0  0  0  0  0  0  0
  -22.0740  -12.9440   21.9430 N   0  0  0  0  0  0  0  0  0  0  0  0
  -22.3790  -14.6460   20.5340 O   0  0  0  0  0  0  0  0  0  0  0  0
  -22.4310  -12.1160   22.3970 H   0  0  0  0  0  0  0  0  0  0  0  0
  -21.1400  -13.2570   22.1640 H   0  0  0  0  0  0  0  0  0  0  0  0
  -25.4590  -15.2390   20.2040 N   0  0  0  0  0  0  0  0  0  0  0  0
  -24.7100  -15.9120   20.3210 H   0  0  0  0  0  0  0  0  0  0  0  0
  -26.3130  -15.6550   19.8490 H   0  0  0  0  0  0  0  0  0  0  0  0
  -30.4700  -22.2670   18.9650 N   0  0  0  0  0  4  0  0  0  0  0  0
  -31.2230  -22.7250   18.4790 H   0  0  0  0  0  0  0  0  0  0  0  0
  -30.7890  -22.0250   19.8880 H   0  0  0  0  0  0  0  0  0  0  0  0
  -29.3140  -23.1860   19.0430 C   0  0  0  0  0  2  0  0  0  0  0  0
  -29.5870  -24.5430   19.7300 C   0  0  0  0  0  2  0  0  0  0  0  0
  -28.2920  -25.3620   19.6640 C   0  0  0  0  0  2  0  0  0  0  0  0
  -28.3720  -26.6890   20.1800 O   0  0  0  0  0  0  0  0  0  0  0  0
  -24.5830  -31.8800   23.2350 C   0  0  0  0  0  0  0  0  0  0  0  0
  -27.1890  -27.4090   20.1720 C   0  0  0  0  0  0  0  0  0  0  0  0
  -23.3650  -30.4820   21.6030 C   0  0  0  0  0  3  0  0  0  0  0  0
  -24.8010  -28.9320   20.1900 C   0  0  0  0  0  0  0  0  0  0  0  0
  -25.8940  -30.8210   21.3990 C   0  0  0  0  0  2  0  0  0  0  0  0
  -25.9670  -29.4470   20.7700 C   0  0  0  0  0  0  0  0  0  0  0  0
  -27.1610  -28.6920   20.7610 C   0  0  0  0  0  3  0  0  0  0  0  0
  -25.9920  -26.9100   19.5920 C   0  0  0  0  0  3  0  0  0  0  0  0
  -24.8070  -27.6620   19.6010 C   0  0  0  0  0  3  0  0  0  0  0  0
  -23.5670  -29.7980   20.2280 C   0  0  0  0  0  2  0  0  0  0  0  0
  -24.6340  -31.0750   22.1360 N   0  0  0  0  0  0  0  0  0  0  0  0
  -23.5040  -32.1620   23.7730 O   0  0  0  0  0  0  0  0  0  0  0  0
  -22.7080  -29.4660   22.5670 C   0  0  0  0  0  0  0  0  0  0  0  0
  -21.3830  -29.2920   22.4390 N   0  0  0  0  0  0  0  0  0  0  0  0
  -23.3860  -28.8410   23.3860 O   0  0  0  0  0  0  0  0  0  0  0  0
  -20.8960  -29.8440   21.7470 H   0  0  0  0  0  0  0  0  0  0  0  0
  -18.0010  -28.1240   22.9400 C   0  0  0  0  0  0  0  0  0  0  0  0
  -20.5600  -28.3650   23.2160 C   0  0  0  0  0  3  0  0  0  0  0  0
  -20.6540  -26.9300   22.6510 C   0  0  0  0  0  2  0  0  0  0  0  0
  -19.5520  -26.6060   21.6390 C   0  0  0  0  0  2  0  0  0  0  0  0
  -18.1690  -26.7680   22.2770 C   0  0  0  0  0  2  0  0  0  0  0  0
  -19.1230  -28.8790   23.3680 C   0  0  0  0  0  0  0  0  0  0  0  0
  -18.9120  -30.1490   23.9500 C   0  0  0  0  0  3  0  0  0  0  0  0
  -17.6110  -30.6630   24.1080 C   0  0  0  0  0  3  0  0  0  0  0  0
  -16.5020  -29.9040   23.6930 C   0  0  0  0  0  3  0  0  0  0  0  0
  -16.6970  -28.6370   23.1160 C   0  0  0  0  0  3  0  0  0  0  0  0
  -25.8740  -32.5030   23.8490 C   0  0  0  0  0  3  0  0  0  0  0  0
  -25.5730  -33.9010   24.1850 N   0  0  0  0  0  0  0  0  0  0  0  0
  -25.9070  -34.9530   23.4260 C   0  0  0  0  0  0  0  0  0  0  0  0
  -26.5740  -34.8490   22.3920 O   0  0  0  0  0  0  0  0  0  0  0  0
  -24.9790  -34.0570   24.9850 H   0  0  0  0  0  0  0  0  0  0  0  0
  -24.1810  -36.7450   23.0830 C   0  0  0  0  0  1  0  0  0  0  0  0
  -25.4270  -36.3410   23.8870 C   0  0  0  0  0  3  0  0  0  0  0  0
  -27.5690  -37.2140   24.7080 C   0  0  0  0  0  1  0  0  0  0  0  0
  -26.4640  -37.3900   23.7690 N   0  0  0  0  0  0  0  0  0  0  0  0
  -26.0630  -38.3120   23.9210 H   0  0  0  0  0  0  0  0  0  0  0  0
  -26.3950  -31.7260   25.1180 C   0  0  1  0  0  0  0  0  0  0  0  0
  -25.3020  -31.4900   26.1850 C   0  0  0  0  0  1  0  0  0  0  0  0
  -26.9690  -30.3490   24.7140 C   0  0  0  0  0  1  0  0  0  0  0  0
  -27.5550  -32.5110   25.7720 C   0  0  0  0  0  1  0  0  0  0  0  0
  1 48  1  0
  1  6  1  0
  3  2  2  0
  4  5  2  0
  5  2  1  0
  5  9  1  0
  6  3  1  0
  7  6  2  0
  7  4  1  0
  8  7  1  0
 10 18  1  0
 11 16  1  0
 12 13  1  0
 12 11  1  0
 14 13  1  0
 14 23  1  0
 14 15  1  0
 16 10  1  0
 16 15  1  0
 17 10  2  0
 18 19  1  0
 18  9  1  0
 20 21  2  0
 21 40  1  0
 22 21  1  0
 22 25  1  0
 23 20  1  0
 23 24  1  0
 24 22  2  0
 25 26  1  0
 26 27  2  0
 28 31  1  0
 28 27  1  0
 29 28  2  0
 30 29  1  0
 30 25  2  0
 31 32  1  0
 32 33  1  0
 33 34  2  0
 35 34  1  0
 35 39  1  0
 36 35  2  0
 37 32  2  0
 37 36  1  0
 38 37  1  0
 40 41  1  0
 41 44  1  0
 41 43  1  0
 42 40  2  0
 45 46  1  0
 45 20  1  0
 47 45  1  0
 48 51  1  0
 48 50  1  0
 49 48  1  0
 51 52  1  0
 53 52  1  0
 53 54  1  0
 55 66  2  0
 56 54  1  0
 56 61  1  0
 57 65  1  0
 57 67  1  0
 58 64  1  0
 58 60  1  0
 59 65  1  0
 60 59  1  0
 61 60  2  0
 62 63  1  0
 62 56  2  0
 63 58  2  0
 64 57  1  0
 65 55  1  0
 67 69  2  0
 68 67  1  0
 70 68  1  0
 71 80  2  0
 71 76  1  0
 72 68  1  0
 72 76  1  0
 73 72  1  0
 74 75  1  0
 74 73  1  0
 75 71  1  0
 76 77  2  0
 77 78  1  0
 79 78  2  0
 80 79  1  0
 81 55  1  0
 81 82  1  0
 81 91  1  0
 82 85  1  0
 83 87  1  0
 83 82  1  0
 84 83  2  0
 87 86  1  0
 89 87  1  0
 89 90  1  0
 89 88  1  0
 91 94  1  1
 91 92  1  0
 93 91  1  0
M  ISO  4  10 100  18 100  53 101  54 101
M  END
>  <TORSDO>  (35) 
F 22

>  <SCORE>  (35) 
-13.157

>  <name>  (35) 
34

>  <ligand_id>  (35) 
34

>  <original_smiles>  (35) 
[H]c1c([H])c([H])c2c(c1[H])C([H])([H])C([H])([H])C([H])([H])C2([H])N([H])C(=O)C1([H])N(C(=O)C([H])(N([H])C(=O)C([H])(N([H])C([H])([H])[H])C([H])([H])[H])C(C([H])([H])[H])(C([H])([H])[H])C([H])([H])[H])C([H])([H])c2c([H])c(OC([H])([H])C([H])([H])C([H])([H])[N+]([H])([H])C([H])([H])c3c([H])c([H])c(C([H])([H])N([H])C(=O)N4C([H])([H])C([H])([H])C([H])([H])C([H])(n5nc(-c6c([H])c([H])c(Oc7c([H])c([H])c(F)c([H])c7F)c([H])c6[H])c(C(=O)N([H])[H])c5N([H])[H])C4([H])[H])c([H])c3C([H])([H])[H])c([H])c([H])c2C1([H])[H]

>  <smiles>  (35) 
[H]c1c([H])c([H])c2c(c1[H])C([H])([H])C([H])([H])C([H])([H])C2([H])N([H])C(=O)C1([H])N(C(=O)C([H])(N([H])C(=O)C([H])(N([H])C([H])([H])[H])C([H])([H])[H])C(C([H])([H])[H])(C([H])([H])[H])C([H])([H])[H])C([H])([H])c2c([H])c(OC([H])([H])C([H])([H])C([H])([H])[N+]([H])([H])C([H])([H])c3c([H])c([H])c(C([H])([H])N([H])C(=O)N4C([H])([H])C([H])([H])C([H])([H])C([H])(n5nc(-c6c([H])c([H])c(Oc7c([H])c([H])c(F)c([H])c7F)c([H])c6[H])c(C(=O)N([H])[H])c5N([H])[H])C4([H])[H])c([H])c3C([H])([H])[H])c([H])c([H])c2C1([H])[H]

$$$$
35:0:0
     RDKit          3D

 93101  0  0  1  0  0  0  0  0999 V2000
  -29.0930  -19.8740   20.1760 C   0  0  0  0  0  0  0  0  0  0  0  0
  -28.8710  -22.8520   20.1370 C   0  0  0  0  0  0  0  0  0  0  0  0
  -29.0560  -21.4800   20.7080 N   0  0  0  0  0  4  0  0  0  0  0  0
  -29.0890  -22.9310   18.9270 O   0  0  0  0  0  0  0  0  0  0  0  0
  -28.9610  -21.5160   21.7150 H   0  0  0  0  0  0  0  0  0  0  0  0
  -28.3030  -24.3730   20.8480 C   0  0  0  0  0  2  0  0  0  0  0  0
  -28.4900  -25.9630   20.3860 O   0  0  0  0  0  0  0  0  0  0  0  0
  -24.7340  -31.9320   23.2590 C   0  0  0  0  0  0  0  0  0  0  0  0
  -27.4560  -27.0490   20.3670 C   0  0  0  0  0  0  0  0  0  0  0  0
  -23.6090  -30.4930   21.6100 C   0  0  0  0  0  3  0  0  0  0  0  0
  -25.1230  -28.8980   20.2450 C   0  0  0  0  0  0  0  0  0  0  0  0
  -26.1750  -30.7500   21.5220 C   0  0  0  0  0  2  0  0  0  0  0  0
  -26.2910  -29.3310   20.8860 C   0  0  0  0  0  0  0  0  0  0  0  0
  -27.4550  -28.4310   20.9140 C   0  0  0  0  0  3  0  0  0  0  0  0
  -26.2510  -26.7720   19.6820 C   0  0  0  0  0  3  0  0  0  0  0  0
  -25.1300  -27.6400   19.6220 C   0  0  0  0  0  3  0  0  0  0  0  0
  -23.8870  -29.7980   20.2490 C   0  0  0  0  0  2  0  0  0  0  0  0
  -24.8600  -31.0870   22.1840 N   0  0  0  0  0  0  0  0  0  0  0  0
  -23.6260  -32.2040   23.7500 O   0  0  0  0  0  0  0  0  0  0  0  0
  -22.9120  -29.4950   22.5710 C   0  0  0  0  0  0  0  0  0  0  0  0
  -21.5950  -29.2790   22.3980 N   0  0  0  0  0  0  0  0  0  0  0  0
  -23.5650  -28.9130   23.4400 O   0  0  0  0  0  0  0  0  0  0  0  0
  -21.1190  -29.7990   21.6740 H   0  0  0  0  0  0  0  0  0  0  0  0
  -18.2450  -27.9400   22.7920 C   0  0  0  0  0  0  0  0  0  0  0  0
  -20.7760  -28.3260   23.1570 C   0  0  0  0  0  3  0  0  0  0  0  0
  -20.9640  -26.8850   22.6280 C   0  0  0  0  0  2  0  0  0  0  0  0
  -19.9230  -26.4880   21.5770 C   0  0  0  0  0  2  0  0  0  0  0  0
  -18.5100  -26.5850   22.1580 C   0  0  0  0  0  2  0  0  0  0  0  0
  -19.3080  -28.7640   23.2470 C   0  0  0  0  0  0  0  0  0  0  0  0
  -19.0050  -30.0250   23.8020 C   0  0  0  0  0  3  0  0  0  0  0  0
  -17.6720  -30.4670   23.9050 C   0  0  0  0  0  3  0  0  0  0  0  0
  -16.6230  -29.6430   23.4630 C   0  0  0  0  0  3  0  0  0  0  0  0
  -16.9100  -28.3810   22.9130 C   0  0  0  0  0  3  0  0  0  0  0  0
  -25.9750  -32.6100   23.9160 C   0  0  0  0  0  3  0  0  0  0  0  0
  -25.6260  -34.0130   24.2020 N   0  0  0  0  0  0  0  0  0  0  0  0
  -25.9710  -35.0610   23.4420 C   0  0  0  0  0  0  0  0  0  0  0  0
  -26.6780  -34.9510   22.4370 O   0  0  0  0  0  0  0  0  0  0  0  0
  -25.0000  -34.1710   24.9770 H   0  0  0  0  0  0  0  0  0  0  0  0
  -24.2450  -36.8410   22.9970 C   0  0  0  0  0  1  0  0  0  0  0  0
  -25.4560  -36.4540   23.8630 C   0  0  0  0  0  3  0  0  0  0  0  0
  -27.5400  -37.3790   24.7760 C   0  0  0  0  0  1  0  0  0  0  0  0
  -26.4830  -37.5150   23.7770 N   0  0  0  0  0  0  0  0  0  0  0  0
  -26.0630  -38.4350   23.8830 H   0  0  0  0  0  0  0  0  0  0  0  0
  -26.4460  -31.8880   25.2390 C   0  0  1  0  0  0  0  0  0  0  0  0
  -25.3110  -31.6680   26.2680 C   0  0  0  0  0  1  0  0  0  0  0  0
  -27.0650  -30.5070   24.9260 C   0  0  0  0  0  1  0  0  0  0  0  0
  -27.5550  -32.7210   25.9220 C   0  0  0  0  0  1  0  0  0  0  0  0
  -26.9240  -19.7780   18.7230 C   0  0  0  0  0  2  0  0  0  0  0  0
  -27.6380  -19.4360   20.0180 C   0  0  0  0  0  3  0  0  0  0  0  0
  -27.1690  -18.3300   19.0860 C   0  0  0  0  0  3  0  0  0  0  0  0
  -25.9170  -17.6350   19.4680 N   0  0  0  0  0  4  0  0  0  0  0  0
  -25.2570  -18.2680   19.8820 H   0  0  0  0  0  0  0  0  0  0  0  0
  -26.0530  -16.8760   20.1250 H   0  0  0  0  0  0  0  0  0  0  0  0
  -25.4810  -17.2370   18.6560 H   0  0  0  0  0  0  0  0  0  0  0  0
  -30.0120  -18.4000   20.7180 C   0  0  0  0  0  2  0  0  0  0  0  0
  -30.6180  -15.4750   20.4180 C   0  0  0  0  0  0  0  0  0  0  0  0
  -30.6500  -13.0270   19.5180 C   0  0  0  0  0  2  0  0  0  0  0  0
  -29.7390  -12.7910   18.2880 C   0  0  0  0  0  2  0  0  0  0  0  0
  -28.2920  -12.4950   18.7240 C   0  0  0  0  0  2  0  0  0  0  0  0
  -27.8210  -13.4530   19.8470 C   0  0  0  0  0  3  0  0  0  0  0  0
  -28.8610  -13.6180   20.9720 C   0  0  0  0  0  2  0  0  0  0  0  0
  -30.0740  -14.1590   20.3360 N   0  0  0  0  0  0  0  0  0  0  0  0
  -31.8480  -15.4860   20.2540 O   0  0  0  0  0  0  0  0  0  0  0  0
  -29.8220  -16.7380   20.4880 N   0  0  0  0  0  0  0  0  0  0  0  0
  -28.8440  -16.4950   20.5020 H   0  0  0  0  0  0  0  0  0  0  0  0
  -25.4510  -13.9880   20.6060 C   0  0  0  0  0  0  0  0  0  0  0  0
  -24.3890  -13.1960   20.9420 C   0  0  0  0  0  0  0  0  0  0  0  0
  -24.8620  -11.8490   20.8940 C   0  0  0  0  0  0  0  0  0  0  0  0
  -26.4970  -13.1190   20.3510 N   0  0  0  0  0  0  0  0  0  0  0  0
  -26.1560  -11.8270   20.5940 N   0  0  0  0  0  0  0  0  0  0  0  0
  -24.1420  -10.5780   21.0610 C   0  0  0  0  0  0  0  0  0  0  0  0
  -24.5370   -9.6230   22.0230 C   0  0  0  0  0  3  0  0  0  0  0  0
  -23.8140   -8.4190   22.1770 C   0  0  0  0  0  3  0  0  0  0  0  0
  -22.6810   -8.1640   21.3670 C   0  0  0  0  0  0  0  0  0  0  0  0
  -22.3050   -9.1090   20.3960 C   0  0  0  0  0  3  0  0  0  0  0  0
  -23.0290  -10.3020   20.2410 C   0  0  0  0  0  3  0  0  0  0  0  0
  -21.9340   -7.0120   21.4270 O   0  0  0  0  0  0  0  0  0  0  0  0
  -21.7850   -6.3100   22.5960 C   0  0  0  0  0  0  0  0  0  0  0  0
  -21.1880   -6.8830   23.7390 C   0  0  0  0  0  3  0  0  0  0  0  0
  -20.9920   -6.1040   24.8970 C   0  0  0  0  0  3  0  0  0  0  0  0
  -21.3840   -4.7520   24.9110 C   0  0  0  0  0  0  0  0  0  0  0  0
  -21.9730   -4.1770   23.7710 C   0  0  0  0  0  3  0  0  0  0  0  0
  -22.1710   -4.9540   22.6160 C   0  0  0  0  0  0  0  0  0  0  0  0
  -22.7190   -4.3890   21.5140 F   0  0  0  0  0  0  0  0  0  0  0  0
  -21.1880   -4.0010   26.0200 F   0  0  0  0  0  0  0  0  0  0  0  0
  -22.9880  -13.6610   21.2150 C   0  0  0  0  0  0  0  0  0  0  0  0
  -22.2600  -12.9510   22.0680 N   0  0  0  0  0  0  0  0  0  0  0  0
  -22.5560  -14.6960   20.7100 O   0  0  0  0  0  0  0  0  0  0  0  0
  -22.6270  -12.1150   22.4980 H   0  0  0  0  0  0  0  0  0  0  0  0
  -21.3210  -13.2480   22.2940 H   0  0  0  0  0  0  0  0  0  0  0  0
  -25.6280  -15.3690   20.4900 N   0  0  0  0  0  0  0  0  0  0  0  0
  -24.7810  -15.7970   20.8530 H   0  0  0  0  0  0  0  0  0  0  0  0
  -26.3940  -15.6030   21.1120 H   0  0  0  0  0  0  0  0  0  0  0  0
  1  3  2  3
  1 55  1  0
  2  3  1  0
  2  6  1  0
  3  5  1  0
  4  2  2  0
  7  6  1  0
  8 19  2  0
  9  7  1  0
  9 14  1  0
 10 18  1  0
 10 20  1  0
 11 17  1  0
 11 13  1  0
 12 18  1  0
 13 14  2  0
 13 12  1  0
 15  9  2  0
 16 15  1  0
 16 11  2  0
 17 10  1  0
 18  8  1  0
 20 22  2  0
 21 20  1  0
 23 21  1  0
 24 33  2  0
 24 29  1  0
 25 21  1  0
 25 29  1  0
 26 25  1  0
 27 28  1  0
 27 26  1  0
 28 24  1  0
 29 30  2  0
 30 31  1  0
 32 31  2  0
 33 32  1  0
 34  8  1  0
 34 35  1  0
 34 44  1  0
 35 38  1  0
 36 40  1  0
 36 35  1  0
 37 36  2  0
 40 39  1  0
 42 40  1  0
 42 43  1  0
 42 41  1  0
 44 47  1  1
 44 45  1  0
 46 44  1  0
 48 50  1  0
 48 49  1  0
 49  1  1  0
 50 51  1  0
 50 49  1  0
 51 52  1  0
 51 53  1  0
 54 51  1  0
 56 64  1  0
 57 62  1  0
 58 59  1  0
 58 57  1  0
 60 59  1  0
 60 69  1  0
 60 61  1  0
 62 56  1  0
 62 61  1  0
 63 56  2  0
 64 65  1  0
 64 55  1  0
 66 67  2  0
 67 86  1  0
 68 67  1  0
 68 71  1  0
 69 70  1  0
 69 66  1  0
 70 68  2  0
 71 72  1  0
 72 73  2  0
 74 77  1  0
 74 73  1  0
 75 74  2  0
 76 75  1  0
 76 71  2  0
 77 78  1  0
 78 83  2  0
 78 79  1  0
 79 80  2  0
 80 81  1  0
 81 85  1  0
 82 81  2  0
 83 82  1  0
 84 83  1  0
 86 87  1  0
 87 90  1  0
 87 89  1  0
 88 86  2  0
 91 66  1  0
 91 92  1  0
 91 93  1  0
M  ISO  4   6 101   7 101  56 100  64 100
M  END
>  <TORSDO>  (36) 
F 21

>  <SCORE>  (36) 
-15.703

>  <name>  (36) 
35

>  <ligand_id>  (36) 
35

>  <original_smiles>  (36) 
[H]c1c([H])c([H])c2c(c1[H])C([H])([H])C([H])([H])C([H])([H])C2([H])N([H])C(=O)C1([H])N(C(=O)C([H])(N([H])C(=O)C([H])(N([H])C([H])([H])[H])C([H])([H])[H])C(C([H])([H])[H])(C([H])([H])[H])C([H])([H])[H])C([H])([H])c2c([H])c(OC([H])([H])C(=O)N([H])C([H])(C([H])([H])N([H])C(=O)N3C([H])([H])C([H])([H])C([H])([H])C([H])(n4nc(-c5c([H])c([H])c(Oc6c([H])c([H])c(F)c([H])c6F)c([H])c5[H])c(C(=O)N([H])[H])c4N([H])[H])C3([H])[H])C3([H])C([H])([H])C3([H])[N+]([H])([H])[H])c([H])c([H])c2C1([H])[H]

>  <smiles>  (36) 
[H]c1c([H])c([H])c2c(c1[H])C([H])([H])C([H])([H])C([H])([H])C2([H])N([H])C(=O)C1([H])N(C(=O)C([H])(N([H])C(=O)C([H])(N([H])C([H])([H])[H])C([H])([H])[H])C(C([H])([H])[H])(C([H])([H])[H])C([H])([H])[H])C([H])([H])c2c([H])c(OC([H])([H])C(=O)N([H])C([H])(C([H])([H])N([H])C(=O)N3C([H])([H])C([H])([H])C([H])([H])C([H])(n4nc(-c5c([H])c([H])c(Oc6c([H])c([H])c(F)c([H])c6F)c([H])c5[H])c(C(=O)N([H])[H])c4N([H])[H])C3([H])[H])C3([H])C([H])([H])C3([H])[N+]([H])([H])[H])c([H])c([H])c2C1([H])[H]

$$$$
36:0:0
     RDKit          3D

 95 95  0  0  1  0  0  0  0  0999 V2000
  -26.6640  -21.5630   19.5340 C   0  0  0  0  0  3  0  0  0  0  0  0
  -25.9120  -22.9750   19.5040 C   0  0  0  0  0  3  0  0  0  0  0  0
  -27.4410  -23.7850   18.3110 C   0  0  0  0  0  3  0  0  0  0  0  0
  -27.9690  -20.9760   18.9480 C   0  0  0  0  0  3  0  0  0  0  0  0
  -26.1420  -24.3800   18.8890 C   0  0  0  0  0  3  0  0  0  0  0  0
  -28.2130  -22.3830   18.3370 C   0  0  0  0  0  0  0  0  0  0  0  0
  -29.4960  -22.4430   17.5280 C   0  0  0  0  0  1  0  0  0  0  0  0
  -31.4140  -16.5450   18.7590 C   0  0  0  0  0  0  0  0  0  0  0  0
  -32.1420  -13.8570   18.3760 C   0  0  0  0  0  2  0  0  0  0  0  0
  -31.2280  -12.9870   17.4270 C   0  0  0  0  0  2  0  0  0  0  0  0
  -29.8510  -12.7130   18.0570 C   0  0  0  0  0  2  0  0  0  0  0  0
  -29.4330  -13.9560   18.8590 C   0  0  0  0  0  3  0  0  0  0  0  0
  -30.4830  -14.3790   19.8780 C   0  0  0  0  0  2  0  0  0  0  0  0
  -31.4040  -15.0820   19.0360 N   0  0  0  0  0  0  0  0  0  0  0  0
  -32.5250  -16.5970   18.1300 O   0  0  0  0  0  0  0  0  0  0  0  0
  -29.8200  -17.7710   20.4790 C   0  0  0  0  0  2  0  0  0  0  0  0
  -29.0080  -19.1990   18.7680 C   0  0  0  0  0  1  0  0  0  0  0  0
  -28.8270  -18.9320   20.2750 C   0  0  0  0  0  3  0  0  0  0  0  0
  -27.4220  -18.7990   20.8750 C   0  0  0  0  0  1  0  0  0  0  0  0
  -30.2880  -17.7640   19.0980 N   0  0  0  0  0  2  0  0  0  0  0  0
  -27.5600  -14.9040   20.2010 C   0  0  0  0  0  0  0  0  0  0  0  0
  -26.4190  -14.3510   20.6870 C   0  0  0  0  0  0  0  0  0  0  0  0
  -26.4390  -12.9820   20.2790 C   0  0  0  0  0  0  0  0  0  0  0  0
  -28.1880  -13.8790   19.5330 N   0  0  0  0  0  0  0  0  0  0  0  0
  -27.5600  -12.6940   19.6390 N   0  0  0  0  0  0  0  0  0  0  0  0
  -25.4220  -11.9450   20.3830 C   0  0  0  0  0  0  0  0  0  0  0  0
  -25.6730  -10.7280   21.0530 C   0  0  0  0  0  3  0  0  0  0  0  0
  -24.6610   -9.7520   21.1460 C   0  0  0  0  0  3  0  0  0  0  0  0
  -23.3910   -9.9930   20.5710 C   0  0  0  0  0  0  0  0  0  0  0  0
  -23.1600  -11.1960   19.8820 C   0  0  0  0  0  3  0  0  0  0  0  0
  -24.1690  -12.1650   19.7850 C   0  0  0  0  0  3  0  0  0  0  0  0
  -22.3530   -9.0960   20.5950 O   0  0  0  0  0  0  0  0  0  0  0  0
  -22.0520   -8.3820   21.7250 C   0  0  0  0  0  0  0  0  0  0  0  0
  -21.8100   -9.0130   22.9660 C   0  0  0  0  0  3  0  0  0  0  0  0
  -21.4350   -8.2430   24.0840 C   0  0  0  0  0  3  0  0  0  0  0  0
  -21.2930   -6.8480   23.9620 C   0  0  0  0  0  0  0  0  0  0  0  0
  -21.5300   -6.2190   22.7280 C   0  0  0  0  0  3  0  0  0  0  0  0
  -21.9070   -6.9850   21.6120 C   0  0  0  0  0  0  0  0  0  0  0  0
  -22.1150   -6.3790   20.4180 F   0  0  0  0  0  0  0  0  0  0  0  0
  -20.9240   -6.1080   25.0350 F   0  0  0  0  0  0  0  0  0  0  0  0
  -25.3240  -15.0880   21.3900 C   0  0  0  0  0  0  0  0  0  0  0  0
  -24.6100  -14.4090   22.2790 N   0  0  0  0  0  0  0  0  0  0  0  0
  -25.1340  -16.2870   21.1890 O   0  0  0  0  0  0  0  0  0  0  0  0
  -24.7850  -13.4310   22.4520 H   0  0  0  0  0  0  0  0  0  0  0  0
  -23.8770  -14.8760   22.7950 H   0  0  0  0  0  0  0  0  0  0  0  0
  -28.0960  -16.1850   20.2400 N   0  0  0  0  0  0  0  0  0  0  0  0
  -27.6050  -16.9490   20.6890 H   0  0  0  0  0  0  0  0  0  0  0  0
  -28.9770  -16.4610   19.8270 H   0  0  0  0  0  0  0  0  0  0  0  0
  -25.0060  -26.0780   18.6430 C   0  0  0  0  0 15  0  0  0  0  0  0
  -24.7730  -28.0510   18.7770 N   0  0  0  0  0  1  0  0  0  0  0  0
  -24.0600  -28.2050   19.4710 H   0  0  0  0  0  0  0  0  0  0  0  0
  -24.3830  -28.3790   17.9070 H   0  0  0  0  0  0  0  0  0  0  0  0
  -26.7340  -29.5050   19.2960 C   0  0  0  0  0 15  0  0  0  0  0  0
  -28.3400  -28.6740   20.3290 C   0  0  0  0  0  1  0  0  0  0  0  0
  -28.7890  -27.6670   21.8050 O   0  0  0  0  0  0  0  0  0  0  0  0
  -25.2720  -28.2700   26.0400 C   0  0  0  0  0  0  0  0  0  0  0  0
  -29.8920  -27.5120   22.7380 C   0  0  0  0  0  3  0  0  0  0  0  0
  -26.0950  -29.5090   24.1090 C   0  0  0  0  0  3  0  0  0  0  0  0
  -28.6620  -29.5380   23.7130 C   0  0  0  0  0  3  0  0  0  0  0  0
  -27.7370  -28.3860   25.7070 C   0  0  0  0  0  2  0  0  0  0  0  0
  -28.6790  -28.4090   24.5310 C   0  0  0  0  0  3  0  0  0  0  0  0
  -29.4920  -27.3450   24.1010 C   0  0  0  0  0  2  0  0  0  0  0  0
  -30.6040  -28.6540   22.5170 C   0  0  0  0  0  2  0  0  0  0  0  0
  -29.7820  -29.7450   22.8490 C   0  0  0  0  0  2  0  0  0  0  0  0
  -27.3740  -30.3410   23.7180 C   0  0  0  0  0  2  0  0  0  0  0  0
  -26.3430  -28.7350   25.3500 N   0  0  0  0  0  0  0  0  0  0  0  0
  -24.1140  -28.5680   25.7110 O   0  0  0  0  0  0  0  0  0  0  0  0
  -25.5750  -28.4700   23.0740 C   0  0  0  0  0  0  0  0  0  0  0  0
  -24.3130  -28.3590   22.7620 N   0  0  0  0  0  0  0  0  0  0  0  0
  -26.3130  -27.6470   22.5580 O   0  0  0  0  0  0  0  0  0  0  0  0
  -23.6250  -28.9160   23.2500 H   0  0  0  0  0  0  0  0  0  0  0  0
  -20.8880  -28.0220   21.6110 C   0  0  0  0  0  0  0  0  0  0  0  0
  -23.8910  -27.7370   21.4630 C   0  0  0  0  0  2  0  0  0  0  0  0
  -24.4010  -28.9380   19.7260 C   0  0  0  0  0  1  0  0  0  0  0  0
  -22.2400  -30.1230   19.0280 C   0  0  0  0  0 15  0  0  0  0  0  0
  -20.6640  -29.2560   20.2440 C   0  0  0  0  0  1  0  0  0  0  0  0
  -22.2300  -27.4420   22.1110 C   0  0  0  0  0  0  0  0  0  0  0  0
  -22.1680  -26.7160   23.3960 C   0  0  0  0  0  3  0  0  0  0  0  0
  -21.0090  -26.3670   24.1480 C   0  0  0  0  0  3  0  0  0  0  0  0
  -19.7680  -26.7100   23.6030 C   0  0  0  0  0  3  0  0  0  0  0  0
  -19.7350  -27.5030   22.3970 C   0  0  0  0  0  3  0  0  0  0  0  0
  -25.4660  -27.3640   27.2820 C   0  0  0  0  0  3  0  0  0  0  0  0
  -25.4260  -25.8250   26.9420 C   0  0  1  0  0  0  0  0  0  0  0  0
  -24.3060  -25.4310   25.9510 C   0  0  0  0  0  1  0  0  0  0  0  0
  -26.7680  -25.3480   26.3390 C   0  0  0  0  0  1  0  0  0  0  0  0
  -25.2240  -25.0220   28.2460 C   0  0  0  0  0  1  0  0  0  0  0  0
  -24.4000  -27.7240   28.2180 N   0  0  0  0  0  0  0  0  0  0  0  0
  -24.5670  -28.5280   29.2740 C   0  0  0  0  0  0  0  0  0  0  0  0
  -25.6670  -28.9710   29.6110 O   0  0  0  0  0  0  0  0  0  0  0  0
  -23.4630  -27.4390   27.9740 H   0  0  0  0  0  0  0  0  0  0  0  0
  -22.8390  -30.3020   29.7100 C   0  0  0  0  0  1  0  0  0  0  0  0
  -23.3120  -28.8910   30.0880 C   0  0  0  0  0  3  0  0  0  0  0  0
  -23.7030  -27.4390   32.0290 C   0  0  0  0  0  1  0  0  0  0  0  0
  -23.5210  -28.8070   31.5500 N   0  0  0  0  0  0  0  0  0  0  0  0
  -22.7360  -29.2150   32.0500 H   0  0  0  0  0  0  0  0  0  0  0  0
  2  1  1  0
  3  6  2  0
  3  5  1  0
  4  1  2  0
  5  2  2  0
  6  4  1  0
  7  6  1  0
  8 14  1  0
  8 20  1  0
  9 14  1  0
 10 11  1  0
 10  9  1  0
 12 11  1  0
 12 24  1  0
 12 13  1  0
 14 13  1  0
 15  8  2  0
 17 18  1  0
 18 16  1  0
 18 19  1  0
 20 16  1  0
 21 46  1  0
 21 22  2  0
 22 41  1  0
 23 26  1  0
 23 22  1  0
 24 25  1  0
 24 21  1  0
 25 23  2  0
 26 27  1  0
 27 28  2  0
 29 32  1  0
 29 28  1  0
 30 29  2  0
 31 30  1  0
 31 26  2  0
 32 33  1  0
 33 34  1  0
 34 35  2  0
 36 35  1  0
 36 40  1  0
 37 36  2  0
 38 33  2  0
 38 37  1  0
 39 38  1  0
 41 42  1  0
 42 44  1  0
 42 45  1  0
 43 41  2  0
 46 47  1  0
 48 46  1  0
 51 74  1  0
 52 50  1  0
 54 55  1  0
 57 55  1  0
 57 62  1  0
 58 68  1  0
 58 66  1  0
 59 64  1  0
 59 65  1  0
 59 61  1  0
 61 62  1  0
 61 60  1  0
 63 57  1  0
 63 64  1  0
 65 58  1  0
 66 60  1  0
 66 56  1  0
 67 56  2  0
 69 68  1  0
 69 71  1  0
 70 68  2  0
 72 77  2  0
 72 81  1  0
 73 77  1  0
 73 69  1  0
 76 72  1  0
 77 78  1  0
 78 79  2  0
 80 79  1  0
 81 80  2  0
 82 56  1  0
 82 87  1  0
 83 82  1  0
 83 86  1  1
 84 83  1  0
 85 83  1  0
 87 88  1  0
 88 89  2  0
 88 92  1  0
 90 87  1  0
 92 91  1  0
 92 94  1  0
 94 93  1  0
 94 95  1  0
M  ISO  4   8 100  20 100  54 101  55 101
M  END
>  <TORSDO>  (37) 
F 20

>  <SCORE>  (37) 
3.271

>  <name>  (37) 
36

>  <ligand_id>  (37) 
36

>  <original_smiles>  (37) 
[H]c1c([H])c([H])c2c(c1[H])C([H])([H])C([H])([H])C([H])([H])C2([H])N([H])C(=O)C1([H])N(C(=O)C([H])(N([H])C(=O)C([H])(N([H])C([H])([H])[H])C([H])([H])[H])C(C([H])([H])[H])(C([H])([H])[H])C([H])([H])[H])C([H])([H])c2c([H])c(OC([H])([H])C([H])([H])[N+]([H])([H])C([H])([H])c3c([H])c([H])c(C4([H])N(C(=O)N5C([H])([H])C([H])([H])C([H])([H])C([H])(n6nc(-c7c([H])c([H])c(Oc8c([H])c([H])c(F)c([H])c8F)c([H])c7[H])c(C(=O)N([H])[H])c6N([H])[H])C5([H])[H])C([H])([H])C4([H])C([H])([H])[H])c(C([H])([H])[H])c3[H])c([H])c([H])c2C1([H])[H]

>  <smiles>  (37) 
[H]c1c([H])c([H])c2c(c1[H])C([H])([H])C([H])([H])C([H])([H])C2([H])N([H])C(=O)C1([H])N(C(=O)C([H])(N([H])C(=O)C([H])(N([H])C([H])([H])[H])C([H])([H])[H])C(C([H])([H])[H])(C([H])([H])[H])C([H])([H])[H])C([H])([H])c2c([H])c(OC([H])([H])C([H])([H])[N+]([H])([H])C([H])([H])c3c([H])c([H])c(C4([H])N(C(=O)N5C([H])([H])C([H])([H])C([H])([H])C([H])(n6nc(-c7c([H])c([H])c(Oc8c([H])c([H])c(F)c([H])c8F)c([H])c7[H])c(C(=O)N([H])[H])c6N([H])[H])C5([H])[H])C([H])([H])C4([H])C([H])([H])[H])c(C([H])([H])[H])c3[H])c([H])c([H])c2C1([H])[H]

$$$$
37:0:0
     RDKit          3D

 97106  0  0  1  0  0  0  0  0999 V2000
  -30.2240  -19.3070   18.1570 C   0  0  0  0  0  3  0  0  0  0  0  0
  -29.1560  -18.9310   20.6570 C   0  0  0  0  0  3  0  0  0  0  0  0
  -29.6610  -20.4380   18.8000 C   0  0  0  0  0  0  0  0  0  0  0  0
  -29.1160  -20.3100   20.0830 C   0  0  0  0  0  0  0  0  0  0  0  0
  -30.2460  -17.9920   18.7140 C   0  0  0  0  0  0  0  0  0  0  0  0
  -29.7290  -17.7080   20.0160 C   0  0  0  0  0  0  0  0  0  0  0  0
  -29.5220  -21.7850   18.0720 C   0  0  0  0  0  2  0  0  0  0  0  0
  -28.4410  -21.6880   20.6620 C   0  0  0  0  0  2  0  0  0  0  0  0
  -29.7650  -23.0680   18.9250 C   0  0  0  0  0  2  0  0  0  0  0  0
  -28.9270  -23.2580   20.2380 C   0  0  2  0  0  0  0  0  0  0  0  0
  -30.7700  -16.8900   17.8080 C   0  0  0  0  0  1  0  0  0  0  0  0
  -30.4350  -15.0450   20.4050 C   0  0  0  0  0  0  0  0  0  0  0  0
  -30.3670  -12.6570   19.5560 C   0  0  0  0  0  2  0  0  0  0  0  0
  -29.4770  -12.5640   18.2970 C   0  0  0  0  0  2  0  0  0  0  0  0
  -27.9990  -12.3620   18.6840 C   0  0  0  0  0  2  0  0  0  0  0  0
  -27.5490  -13.3100   19.8280 C   0  0  0  0  0  3  0  0  0  0  0  0
  -28.5700  -13.3620   20.9830 C   0  0  0  0  0  2  0  0  0  0  0  0
  -29.8530  -13.7760   20.4020 N   0  0  0  0  0  0  0  0  0  0  0  0
  -31.6480  -15.0840   20.1700 O   0  0  0  0  0  0  0  0  0  0  0  0
  -29.6510  -16.2420   20.5320 N   0  0  0  0  0  0  0  0  0  0  0  0
  -28.7560  -16.0400   20.9560 H   0  0  0  0  0  0  0  0  0  0  0  0
  -25.1420  -13.8870   20.4800 C   0  0  0  0  0  0  0  0  0  0  0  0
  -24.0700  -13.1140   20.8320 C   0  0  0  0  0  0  0  0  0  0  0  0
  -24.5410  -11.7650   20.8380 C   0  0  0  0  0  0  0  0  0  0  0  0
  -26.1980  -13.0110   20.2920 N   0  0  0  0  0  0  0  0  0  0  0  0
  -25.8430  -11.7300   20.5750 N   0  0  0  0  0  0  0  0  0  0  0  0
  -23.8120  -10.5030   21.0250 C   0  0  0  0  0  0  0  0  0  0  0  0
  -24.2230   -9.5480   21.9820 C   0  0  0  0  0  3  0  0  0  0  0  0
  -23.4930   -8.3530   22.1570 C   0  0  0  0  0  3  0  0  0  0  0  0
  -22.3380   -8.1030   21.3770 C   0  0  0  0  0  0  0  0  0  0  0  0
  -21.9470   -9.0470   20.4130 C   0  0  0  0  0  3  0  0  0  0  0  0
  -22.6750  -10.2350   20.2350 C   0  0  0  0  0  3  0  0  0  0  0  0
  -21.5830   -6.9590   21.4600 O   0  0  0  0  0  0  0  0  0  0  0  0
  -21.5090   -6.2260   22.6170 C   0  0  0  0  0  0  0  0  0  0  0  0
  -21.0720   -6.7930   23.8340 C   0  0  0  0  0  3  0  0  0  0  0  0
  -20.9480   -5.9850   24.9840 C   0  0  0  0  0  3  0  0  0  0  0  0
  -21.2520   -4.6130   24.9150 C   0  0  0  0  0  0  0  0  0  0  0  0
  -21.6820   -4.0460   23.7020 C   0  0  0  0  0  3  0  0  0  0  0  0
  -21.8070   -4.8510   22.5560 C   0  0  0  0  0  0  0  0  0  0  0  0
  -22.2000   -4.2950   21.3840 F   0  0  0  0  0  0  0  0  0  0  0  0
  -21.1310   -3.8340   26.0160 F   0  0  0  0  0  0  0  0  0  0  0  0
  -22.6630  -13.5920   21.0480 C   0  0  0  0  0  0  0  0  0  0  0  0
  -21.9070  -12.9150   21.9050 N   0  0  0  0  0  0  0  0  0  0  0  0
  -22.2400  -14.6020   20.4870 O   0  0  0  0  0  0  0  0  0  0  0  0
  -22.2540  -12.0930   22.3780 H   0  0  0  0  0  0  0  0  0  0  0  0
  -20.9620  -13.2200   22.0920 H   0  0  0  0  0  0  0  0  0  0  0  0
  -25.3010  -15.2550   20.2760 N   0  0  0  0  0  0  0  0  0  0  0  0
  -24.5180  -15.8990   20.3320 H   0  0  0  0  0  0  0  0  0  0  0  0
  -26.1370  -15.6860   19.9000 H   0  0  0  0  0  0  0  0  0  0  0  0
  -29.9390  -23.7060   21.3410 C   0  0  0  0  0  2  0  0  0  0  0  0
  -29.3840  -23.9840   22.7610 C   0  0  0  0  0  2  0  0  0  0  0  0
  -30.4570  -24.2750   23.7320 N   0  0  0  0  0  4  0  0  0  0  0  0
  -31.0910  -23.5000   23.8190 H   0  0  0  0  0  0  0  0  0  0  0  0
  -30.0590  -24.4410   24.6390 H   0  0  0  0  0  0  0  0  0  0  0  0
  -30.9810  -25.0890   23.4700 H   0  0  0  0  0  0  0  0  0  0  0  0
  -27.8370  -24.5760   20.0510 C   0  0  0  0  0  2  0  0  0  0  0  0
  -28.1030  -26.1310   19.9950 O   0  0  0  0  0  0  0  0  0  0  0  0
  -24.5320  -31.8530   23.0670 C   0  0  0  0  0  0  0  0  0  0  0  0
  -27.0380  -27.1210   19.9680 C   0  0  0  0  0  0  0  0  0  0  0  0
  -23.2880  -30.4540   21.4630 C   0  0  0  0  0  3  0  0  0  0  0  0
  -24.6990  -28.8780   19.9990 C   0  0  0  0  0  0  0  0  0  0  0  0
  -25.8380  -30.7210   21.2240 C   0  0  0  0  0  2  0  0  0  0  0  0
  -25.8990  -29.3260   20.5700 C   0  0  0  0  0  0  0  0  0  0  0  0
  -27.0670  -28.4670   20.5290 C   0  0  0  0  0  3  0  0  0  0  0  0
  -25.8070  -26.7850   19.3590 C   0  0  0  0  0  3  0  0  0  0  0  0
  -24.6700  -27.6220   19.3760 C   0  0  0  0  0  3  0  0  0  0  0  0
  -23.4720  -29.7740   20.0800 C   0  0  0  0  0  2  0  0  0  0  0  0
  -24.5740  -31.0320   21.9710 N   0  0  0  0  0  0  0  0  0  0  0  0
  -23.4620  -32.1350   23.6270 O   0  0  0  0  0  0  0  0  0  0  0  0
  -22.6380  -29.4480   22.4470 C   0  0  0  0  0  0  0  0  0  0  0  0
  -21.3060  -29.2790   22.3630 N   0  0  0  0  0  0  0  0  0  0  0  0
  -23.3350  -28.8210   23.2480 O   0  0  0  0  0  0  0  0  0  0  0  0
  -20.7990  -29.8350   21.6870 H   0  0  0  0  0  0  0  0  0  0  0  0
  -17.9460  -28.0540   22.9520 C   0  0  0  0  0  0  0  0  0  0  0  0
  -20.5090  -28.3420   23.1590 C   0  0  0  0  0  3  0  0  0  0  0  0
  -20.6090  -26.9060   22.5940 C   0  0  0  0  0  2  0  0  0  0  0  0
  -19.4890  -26.5660   21.6060 C   0  0  0  0  0  2  0  0  0  0  0  0
  -18.1200  -26.7030   22.2790 C   0  0  0  0  0  2  0  0  0  0  0  0
  -19.0670  -28.8290   23.3510 C   0  0  0  0  0  0  0  0  0  0  0  0
  -18.8500  -30.0920   23.9440 C   0  0  0  0  0  3  0  0  0  0  0  0
  -17.5440  -30.5810   24.1390 C   0  0  0  0  0  3  0  0  0  0  0  0
  -16.4370  -29.8030   23.7570 C   0  0  0  0  0  3  0  0  0  0  0  0
  -16.6390  -28.5400   23.1710 C   0  0  0  0  0  3  0  0  0  0  0  0
  -25.8260  -32.4930   23.6560 C   0  0  0  0  0  3  0  0  0  0  0  0
  -26.4090  -31.6920   24.8850 C   0  0  1  0  0  0  0  0  0  0  0  0
  -25.3700  -31.4080   25.9950 C   0  0  0  0  0  1  0  0  0  0  0  0
  -26.9900  -30.3320   24.4320 C   0  0  0  0  0  1  0  0  0  0  0  0
  -27.5820  -32.4810   25.5150 C   0  0  0  0  0  1  0  0  0  0  0  0
  -25.5040  -33.8740   24.0550 N   0  0  0  0  0  0  0  0  0  0  0  0
  -25.8140  -34.9660   23.3440 C   0  0  0  0  0  0  0  0  0  0  0  0
  -26.4680  -34.9180   22.2990 O   0  0  0  0  0  0  0  0  0  0  0  0
  -24.9230  -33.9830   24.8710 H   0  0  0  0  0  0  0  0  0  0  0  0
  -24.0750  -36.7680   23.0960 C   0  0  0  0  0  1  0  0  0  0  0  0
  -25.3240  -36.3280   23.8760 C   0  0  0  0  0  3  0  0  0  0  0  0
  -27.4610  -37.1810   24.7350 C   0  0  0  0  0  1  0  0  0  0  0  0
  -26.3490  -37.3920   23.8100 N   0  0  0  0  0  0  0  0  0  0  0  0
  -25.9400  -38.2990   24.0110 H   0  0  0  0  0  0  0  0  0  0  0  0
  1  5  2  0
  1  3  1  0
  3  4  2  0
  4  2  1  0
  4  8  1  0
  5  6  1  0
  6 20  1  0
  6  2  2  0
  7  3  1  0
  7  9  1  0
  9 10  1  0
 10 56  1  6
 10  8  1  0
 10 50  1  0
 11  5  1  0
 12 20  1  0
 13 18  1  0
 14 15  1  0
 14 13  1  0
 16 15  1  0
 16 25  1  0
 16 17  1  0
 18 12  1  0
 18 17  1  0
 19 12  2  0
 20 21  1  0
 22 23  2  0
 23 24  1  0
 23 42  1  0
 24 27  1  0
 25 22  1  0
 25 26  1  0
 26 24  2  0
 27 28  1  0
 28 29  2  0
 30 33  1  0
 30 29  1  0
 31 30  2  0
 32 31  1  0
 32 27  2  0
 33 34  1  0
 34 35  1  0
 35 36  2  0
 37 36  1  0
 37 41  1  0
 38 37  2  0
 39 34  2  0
 39 38  1  0
 40 39  1  0
 42 43  1  0
 43 46  1  0
 43 45  1  0
 44 42  2  0
 47 48  1  0
 47 22  1  0
 49 47  1  0
 50 51  1  0
 51 52  1  0
 52 53  1  0
 52 54  1  0
 55 52  1  0
 57 56  1  0
 58 69  2  0
 59 57  1  0
 59 64  1  0
 60 68  1  0
 60 70  1  0
 61 67  1  0
 61 63  1  0
 62 68  1  0
 63 62  1  0
 64 63  2  0
 65 66  1  0
 65 59  2  0
 66 61  2  0
 67 60  1  0
 68 58  1  0
 70 72  2  0
 71 70  1  0
 73 71  1  0
 74 83  2  0
 74 79  1  0
 75 71  1  0
 75 79  1  0
 76 75  1  0
 77 78  1  0
 77 76  1  0
 78 74  1  0
 79 80  2  0
 80 81  1  0
 82 81  2  0
 83 82  1  0
 84 58  1  0
 84 89  1  0
 84 85  1  0
 85 88  1  1
 85 86  1  0
 87 85  1  0
 89 92  1  0
 90 94  1  0
 90 89  1  0
 91 90  2  0
 94 93  1  0
 96 94  1  0
 96 97  1  0
 96 95  1  0
M  ISO  4  12 100  20 100  56 101  57 101
M  END
>  <TORSDO>  (38) 
F 20

>  <SCORE>  (38) 
-13.681

>  <name>  (38) 
37

>  <ligand_id>  (38) 
37

>  <original_smiles>  (38) 
[H]c1c([H])c([H])c2c(c1[H])C([H])([H])C([H])([H])C([H])([H])C2([H])N([H])C(=O)C1([H])N(C(=O)C([H])(N([H])C(=O)C([H])(N([H])C([H])([H])[H])C([H])([H])[H])C(C([H])([H])[H])(C([H])([H])[H])C([H])([H])[H])C([H])([H])c2c([H])c(OC([H])([H])C3(C([H])([H])C([H])([H])[N+]([H])([H])[H])C([H])([H])c4c([H])c(N([H])C(=O)N5C([H])([H])C([H])([H])C([H])([H])C([H])(n6nc(-c7c([H])c([H])c(Oc8c([H])c([H])c(F)c([H])c8F)c([H])c7[H])c(C(=O)N([H])[H])c6N([H])[H])C5([H])[H])c(C([H])([H])[H])c([H])c4C([H])([H])C3([H])[H])c([H])c([H])c2C1([H])[H]

>  <smiles>  (38) 
[H]c1c([H])c([H])c2c(c1[H])C([H])([H])C([H])([H])C([H])([H])C2([H])N([H])C(=O)C1([H])N(C(=O)C([H])(N([H])C(=O)C([H])(N([H])C([H])([H])[H])C([H])([H])[H])C(C([H])([H])[H])(C([H])([H])[H])C([H])([H])[H])C([H])([H])c2c([H])c(OC([H])([H])C3(C([H])([H])C([H])([H])[N+]([H])([H])[H])C([H])([H])c4c([H])c(N([H])C(=O)N5C([H])([H])C([H])([H])C([H])([H])C([H])(n6nc(-c7c([H])c([H])c(Oc8c([H])c([H])c(F)c([H])c8F)c([H])c7[H])c(C(=O)N([H])[H])c6N([H])[H])C5([H])[H])c(C([H])([H])[H])c([H])c4C([H])([H])C3([H])[H])c([H])c([H])c2C1([H])[H]

$$$$
38:0:0
     RDKit          3D

 91100  0  0  1  0  0  0  0  0999 V2000
  -28.1260  -22.3700   19.0200 C   0  0  0  0  0  2  0  0  0  0  0  0
  -28.6310  -21.6960   20.2680 C   0  0  0  0  0  3  0  0  0  0  0  0
  -28.8550  -23.3320   19.9420 C   0  0  0  0  0  3  0  0  0  0  0  0
  -31.8320  -19.4760   19.7060 C   0  0  0  0  0  3  0  0  0  0  0  0
  -30.9140  -20.5380   19.8440 C   0  0  0  0  0  3  0  0  0  0  0  0
  -31.4590  -18.1200   19.8470 C   0  0  0  0  0  3  0  0  0  0  0  0
  -29.5500  -20.3260   20.1270 C   0  0  0  0  0  0  0  0  0  0  0  0
  -29.1890  -18.8760   20.2550 C   0  0  0  0  0  0  0  0  0  0  0  0
  -30.1290  -17.7220   20.1290 C   0  0  0  0  0  0  0  0  0  0  0  0
  -27.7320  -18.5290   20.5190 C   0  0  0  0  0  1  0  0  0  0  0  0
  -30.5520  -15.0100   20.0400 C   0  0  0  0  0  0  0  0  0  0  0  0
  -30.3380  -12.6950   19.0340 C   0  0  0  0  0  2  0  0  0  0  0  0
  -29.3440  -12.7140   17.8520 C   0  0  0  0  0  2  0  0  0  0  0  0
  -27.9020  -12.5070   18.3500 C   0  0  0  0  0  2  0  0  0  0  0  0
  -27.5700  -13.3780   19.5880 C   0  0  0  0  0  3  0  0  0  0  0  0
  -28.6850  -13.3410   20.6550 C   0  0  0  0  0  2  0  0  0  0  0  0
  -29.9240  -13.7660   19.9890 N   0  0  0  0  0  0  0  0  0  0  0  0
  -31.7410  -15.0340   19.7090 O   0  0  0  0  0  0  0  0  0  0  0  0
  -29.8130  -16.2150   20.2570 N   0  0  0  0  0  0  0  0  0  0  0  0
  -28.8570  -16.0230   20.5070 H   0  0  0  0  0  0  0  0  0  0  0  0
  -25.2220  -13.9270   20.4400 C   0  0  0  0  0  0  0  0  0  0  0  0
  -24.1810  -13.1400   20.8460 C   0  0  0  0  0  0  0  0  0  0  0  0
  -24.6510  -11.7920   20.7720 C   0  0  0  0  0  0  0  0  0  0  0  0
  -26.2580  -13.0610   20.1420 N   0  0  0  0  0  0  0  0  0  0  0  0
  -25.9290  -11.7700   20.4100 N   0  0  0  0  0  0  0  0  0  0  0  0
  -23.9410  -10.5230   20.9730 C   0  0  0  0  0  0  0  0  0  0  0  0
  -24.3950   -9.5570   21.8970 C   0  0  0  0  0  3  0  0  0  0  0  0
  -23.6830   -8.3530   22.0840 C   0  0  0  0  0  3  0  0  0  0  0  0
  -22.5000   -8.1050   21.3480 C   0  0  0  0  0  0  0  0  0  0  0  0
  -22.0660   -9.0580   20.4100 C   0  0  0  0  0  3  0  0  0  0  0  0
  -22.7790  -10.2540   20.2210 C   0  0  0  0  0  3  0  0  0  0  0  0
  -21.7570   -6.9530   21.4490 O   0  0  0  0  0  0  0  0  0  0  0  0
  -21.7060   -6.2260   22.6110 C   0  0  0  0  0  0  0  0  0  0  0  0
  -21.2400   -6.7860   23.8210 C   0  0  0  0  0  3  0  0  0  0  0  0
  -21.1430   -5.9830   24.9750 C   0  0  0  0  0  3  0  0  0  0  0  0
  -21.4980   -4.6200   24.9200 C   0  0  0  0  0  0  0  0  0  0  0  0
  -21.9570   -4.0630   23.7140 C   0  0  0  0  0  3  0  0  0  0  0  0
  -22.0580   -4.8620   22.5620 C   0  0  0  0  0  0  0  0  0  0  0  0
  -22.4810   -4.3120   21.3970 F   0  0  0  0  0  0  0  0  0  0  0  0
  -21.3960   -3.8490   26.0260 F   0  0  0  0  0  0  0  0  0  0  0  0
  -22.7940  -13.6030   21.1830 C   0  0  0  0  0  0  0  0  0  0  0  0
  -22.1070  -12.8860   22.0660 N   0  0  0  0  0  0  0  0  0  0  0  0
  -22.3290  -14.6330   20.6980 O   0  0  0  0  0  0  0  0  0  0  0  0
  -22.4980  -12.0560   22.4840 H   0  0  0  0  0  0  0  0  0  0  0  0
  -21.1790  -13.1780   22.3330 H   0  0  0  0  0  0  0  0  0  0  0  0
  -25.3650  -15.3010   20.2710 N   0  0  0  0  0  0  0  0  0  0  0  0
  -24.5900  -15.9400   20.4070 H   0  0  0  0  0  0  0  0  0  0  0  0
  -26.1690  -15.7410   19.8440 H   0  0  0  0  0  0  0  0  0  0  0  0
  -28.0290  -24.7140   21.9600 C   0  0  0  0  0  1  0  0  0  0  0  0
  -28.0270  -24.7040   20.4300 C   0  0  0  0  0  3  0  0  0  0  0  0
  -28.2880  -26.2120   20.0990 O   0  0  0  0  0  0  0  0  0  0  0  0
  -24.6090  -31.8770   23.1450 C   0  0  0  0  0  0  0  0  0  0  0  0
  -27.2220  -27.1890   20.0900 C   0  0  0  0  0  0  0  0  0  0  0  0
  -23.4280  -30.4800   21.4950 C   0  0  0  0  0  3  0  0  0  0  0  0
  -24.8890  -28.9190   20.0720 C   0  0  0  0  0  0  0  0  0  0  0  0
  -25.9850  -30.7510   21.3540 C   0  0  0  0  0  2  0  0  0  0  0  0
  -26.0660  -29.3660   20.6850 C   0  0  0  0  0  0  0  0  0  0  0  0
  -27.2380  -28.5180   20.6740 C   0  0  0  0  0  3  0  0  0  0  0  0
  -26.0210  -26.8440   19.4370 C   0  0  0  0  0  3  0  0  0  0  0  0
  -24.8760  -27.6690   19.4320 C   0  0  0  0  0  3  0  0  0  0  0  0
  -23.6610  -29.8110   20.1170 C   0  0  0  0  0  2  0  0  0  0  0  0
  -24.6940  -31.0580   22.0520 N   0  0  0  0  0  0  0  0  0  0  0  0
  -23.5170  -32.1590   23.6630 O   0  0  0  0  0  0  0  0  0  0  0  0
  -22.7470  -29.4680   22.4500 C   0  0  0  0  0  0  0  0  0  0  0  0
  -21.4190  -29.2940   22.3150 N   0  0  0  0  0  0  0  0  0  0  0  0
  -23.4150  -28.8430   23.2790 O   0  0  0  0  0  0  0  0  0  0  0  0
  -20.9370  -29.8540   21.6250 H   0  0  0  0  0  0  0  0  0  0  0  0
  -18.0360  -28.0740   22.7940 C   0  0  0  0  0  0  0  0  0  0  0  0
  -20.5920  -28.3520   23.0770 C   0  0  0  0  0  3  0  0  0  0  0  0
  -20.7070  -26.9230   22.5010 C   0  0  0  0  0  2  0  0  0  0  0  0
  -19.6130  -26.5920   21.4800 C   0  0  0  0  0  2  0  0  0  0  0  0
  -18.2250  -26.7270   22.1150 C   0  0  0  0  0  2  0  0  0  0  0  0
  -19.1470  -28.8440   23.2290 C   0  0  0  0  0  0  0  0  0  0  0  0
  -18.9160  -30.1020   23.8290 C   0  0  0  0  0  3  0  0  0  0  0  0
  -17.6080  -30.5950   23.9870 C   0  0  0  0  0  3  0  0  0  0  0  0
  -16.5100  -29.8240   23.5650 C   0  0  0  0  0  3  0  0  0  0  0  0
  -16.7260  -28.5640   22.9750 C   0  0  0  0  0  3  0  0  0  0  0  0
  -25.8780  -32.5190   23.7830 C   0  0  0  0  0  3  0  0  0  0  0  0
  -25.5530  -33.9120   24.1230 N   0  0  0  0  0  0  0  0  0  0  0  0
  -25.8820  -34.9780   23.3800 C   0  0  0  0  0  0  0  0  0  0  0  0
  -26.5610  -34.8930   22.3530 O   0  0  0  0  0  0  0  0  0  0  0  0
  -24.9440  -34.0510   24.9160 H   0  0  0  0  0  0  0  0  0  0  0  0
  -24.1490  -36.7760   23.0460 C   0  0  0  0  0  1  0  0  0  0  0  0
  -25.3870  -36.3590   23.8560 C   0  0  0  0  0  3  0  0  0  0  0  0
  -27.5110  -37.2420   24.7210 C   0  0  0  0  0  1  0  0  0  0  0  0
  -26.4160  -37.4190   23.7670 N   0  0  0  0  0  0  0  0  0  0  0  0
  -26.0040  -38.3360   23.9220 H   0  0  0  0  0  0  0  0  0  0  0  0
  -26.3890  -31.7480   25.0640 C   0  0  1  0  0  0  0  0  0  0  0  0
  -25.2880  -31.4930   26.1230 C   0  0  0  0  0  1  0  0  0  0  0  0
  -26.9920  -30.3770   24.6840 C   0  0  0  0  0  1  0  0  0  0  0  0
  -27.5300  -32.5500   25.7340 C   0  0  0  0  0  1  0  0  0  0  0  0
  1  3  1  0
  1  2  1  0
  2  7  1  0
  3  2  1  0
  3 50  1  0
  4  5  2  0
  4  6  1  0
  5  7  1  0
  6  9  2  0
  7  8  2  0
  8 10  1  0
  9  8  1  0
  9 19  1  0
 11 19  1  0
 12 17  1  0
 13 14  1  0
 13 12  1  0
 15 14  1  0
 15 24  1  0
 15 16  1  0
 17 11  1  0
 17 16  1  0
 18 11  2  0
 19 20  1  0
 21 22  2  0
 22 41  1  0
 23 22  1  0
 23 26  1  0
 24 25  1  0
 24 21  1  0
 25 23  2  0
 26 27  1  0
 27 28  2  0
 29 32  1  0
 29 28  1  0
 30 29  2  0
 31 30  1  0
 31 26  2  0
 32 33  1  0
 33 34  1  0
 34 35  2  0
 36 35  1  0
 36 40  1  0
 37 36  2  0
 38 33  2  0
 38 37  1  0
 39 38  1  0
 41 42  1  0
 42 45  1  0
 42 44  1  0
 43 41  2  0
 46 47  1  0
 46 21  1  0
 48 46  1  0
 50 49  1  0
 51 50  1  0
 52 63  2  0
 53 51  1  0
 53 58  1  0
 54 62  1  0
 54 64  1  0
 55 61  1  0
 55 57  1  0
 56 62  1  0
 57 56  1  0
 58 57  2  0
 59 53  2  0
 60 59  1  0
 60 55  2  0
 61 54  1  0
 62 52  1  0
 64 66  2  0
 65 64  1  0
 67 65  1  0
 68 77  2  0
 68 73  1  0
 69 65  1  0
 69 73  1  0
 70 69  1  0
 71 72  1  0
 71 70  1  0
 72 68  1  0
 73 74  2  0
 74 75  1  0
 76 75  2  0
 77 76  1  0
 78 52  1  0
 78 79  1  0
 78 88  1  0
 79 82  1  0
 80 84  1  0
 80 79  1  0
 81 80  2  0
 84 83  1  0
 86 84  1  0
 86 87  1  0
 86 85  1  0
 88 91  1  1
 88 89  1  0
 90 88  1  0
M  ISO  4  11 100  19 100  50 101  51 101
M  END
>  <TORSDO>  (39) 
F 18

>  <SCORE>  (39) 
-14.651

>  <name>  (39) 
38

>  <ligand_id>  (39) 
38

>  <original_smiles>  (39) 
[H]c1c([H])c([H])c2c(c1[H])C([H])([H])C([H])([H])C([H])([H])C2([H])N([H])C(=O)C1([H])N(C(=O)C([H])(N([H])C(=O)C([H])(N([H])C([H])([H])[H])C([H])([H])[H])C(C([H])([H])[H])(C([H])([H])[H])C([H])([H])[H])C([H])([H])c2c([H])c(OC([H])(C([H])([H])[H])C3([H])C([H])([H])C3([H])c3c([H])c([H])c([H])c(N([H])C(=O)N4C([H])([H])C([H])([H])C([H])([H])C([H])(n5nc(-c6c([H])c([H])c(Oc7c([H])c([H])c(F)c([H])c7F)c([H])c6[H])c(C(=O)N([H])[H])c5N([H])[H])C4([H])[H])c3C([H])([H])[H])c([H])c([H])c2C1([H])[H]

>  <smiles>  (39) 
[H]c1c([H])c([H])c2c(c1[H])C([H])([H])C([H])([H])C([H])([H])C2([H])N([H])C(=O)C1([H])N(C(=O)C([H])(N([H])C(=O)C([H])(N([H])C([H])([H])[H])C([H])([H])[H])C(C([H])([H])[H])(C([H])([H])[H])C([H])([H])[H])C([H])([H])c2c([H])c(OC([H])(C([H])([H])[H])C3([H])C([H])([H])C3([H])c3c([H])c([H])c([H])c(N([H])C(=O)N4C([H])([H])C([H])([H])C([H])([H])C([H])(n5nc(-c6c([H])c([H])c(Oc7c([H])c([H])c(F)c([H])c7F)c([H])c6[H])c(C(=O)N([H])[H])c5N([H])[H])C4([H])[H])c3C([H])([H])[H])c([H])c([H])c2C1([H])[H]

$$$$
39:0:0
     RDKit          3D

 97107  0  0  1  0  0  0  0  0999 V2000
  -29.0120  -22.7180   20.2090 C   0  0  0  0  0  0  0  0  0  0  0  0
  -27.8990  -22.3870   19.7890 O   0  0  0  0  0  0  0  0  0  0  0  0
  -30.0330  -21.5880   20.5320 C   0  0  0  0  0  2  0  0  0  0  0  0
  -29.3760  -20.2540   20.3590 N   0  0  0  0  0  4  0  0  0  0  0  0
  -28.5990  -20.2240   20.9970 H   0  0  0  0  0  0  0  0  0  0  0  0
  -28.9760  -20.2540   19.4340 H   0  0  0  0  0  0  0  0  0  0  0  0
  -28.4370  -17.6020   19.6020 C   0  0  0  0  0  2  0  0  0  0  0  0
  -28.2150  -17.6380   20.9090 C   0  0  0  0  0  2  0  0  0  0  0  0
  -29.9270  -17.8520   19.5230 C   0  0  1  0  0  0  0  0  0  0  0  0
  -29.5980  -17.9090   21.4610 C   0  0  2  0  0  0  0  0  0  0  0  0
  -30.5460  -16.9620   20.6530 C   0  0  0  0  0  3  0  0  0  0  0  0
  -30.2110  -19.0160   20.5350 C   0  0  0  0  0  3  0  0  0  0  0  0
  -30.8040  -14.5110   20.0820 C   0  0  0  0  0  0  0  0  0  0  0  0
  -30.4660  -12.3490   18.9370 C   0  0  0  0  0  2  0  0  0  0  0  0
  -29.4640  -12.5260   17.7770 C   0  0  0  0  0  2  0  0  0  0  0  0
  -28.0130  -12.3800   18.2750 C   0  0  0  0  0  2  0  0  0  0  0  0
  -27.7250  -13.2170   19.5500 C   0  0  0  0  0  3  0  0  0  0  0  0
  -28.8320  -13.0260   20.6120 C   0  0  0  0  0  2  0  0  0  0  0  0
  -30.1260  -13.3330   19.9790 N   0  0  0  0  0  0  0  0  0  0  0  0
  -31.9110  -14.6900   19.5680 O   0  0  0  0  0  0  0  0  0  0  0  0
  -30.1290  -15.5370   20.6410 N   0  0  0  0  0  0  0  0  0  0  0  0
  -29.2160  -15.3290   21.0140 H   0  0  0  0  0  0  0  0  0  0  0  0
  -25.3590  -13.8020   20.3750 C   0  0  0  0  0  0  0  0  0  0  0  0
  -24.3120  -13.0210   20.7820 C   0  0  0  0  0  0  0  0  0  0  0  0
  -24.7770  -11.6720   20.7160 C   0  0  0  0  0  0  0  0  0  0  0  0
  -26.3970  -12.9300   20.0880 N   0  0  0  0  0  0  0  0  0  0  0  0
  -26.0520  -11.6430   20.3500 N   0  0  0  0  0  0  0  0  0  0  0  0
  -24.0650  -10.4050   20.9260 C   0  0  0  0  0  0  0  0  0  0  0  0
  -24.5060   -9.4560   21.8750 C   0  0  0  0  0  3  0  0  0  0  0  0
  -23.7910   -8.2550   22.0700 C   0  0  0  0  0  3  0  0  0  0  0  0
  -22.6230   -7.9940   21.3160 C   0  0  0  0  0  0  0  0  0  0  0  0
  -22.2020   -8.9310   20.3560 C   0  0  0  0  0  3  0  0  0  0  0  0
  -22.9170  -10.1250   20.1600 C   0  0  0  0  0  3  0  0  0  0  0  0
  -21.8790   -6.8430   21.4210 O   0  0  0  0  0  0  0  0  0  0  0  0
  -21.7870   -6.1510   22.6030 C   0  0  0  0  0  0  0  0  0  0  0  0
  -21.2930   -6.7530   23.7810 C   0  0  0  0  0  3  0  0  0  0  0  0
  -21.1480   -5.9860   24.9560 C   0  0  0  0  0  3  0  0  0  0  0  0
  -21.4870   -4.6190   24.9500 C   0  0  0  0  0  0  0  0  0  0  0  0
  -21.9740   -4.0190   23.7760 C   0  0  0  0  0  3  0  0  0  0  0  0
  -22.1200   -4.7820   22.6050 C   0  0  0  0  0  0  0  0  0  0  0  0
  -22.5700   -4.1930   21.4710 F   0  0  0  0  0  0  0  0  0  0  0  0
  -21.3420   -3.8800   26.0750 F   0  0  0  0  0  0  0  0  0  0  0  0
  -22.9270  -13.4920   21.1230 C   0  0  0  0  0  0  0  0  0  0  0  0
  -22.2430  -12.7930   22.0240 N   0  0  0  0  0  0  0  0  0  0  0  0
  -22.4610  -14.5170   20.6270 O   0  0  0  0  0  0  0  0  0  0  0  0
  -22.6350  -11.9680   22.4510 H   0  0  0  0  0  0  0  0  0  0  0  0
  -21.3170  -13.0970   22.2900 H   0  0  0  0  0  0  0  0  0  0  0  0
  -25.5080  -15.1750   20.2090 N   0  0  0  0  0  0  0  0  0  0  0  0
  -24.7390  -15.8180   20.3670 H   0  0  0  0  0  0  0  0  0  0  0  0
  -26.3360  -15.6280   19.8450 H   0  0  0  0  0  0  0  0  0  0  0  0
  -29.4000  -24.2350   20.3740 C   0  0  0  0  0  3  0  0  0  0  0  0
  -30.4790  -24.5540   19.4080 N   0  0  0  0  0  4  0  0  0  0  0  0
  -30.1640  -24.4380   18.4590 H   0  0  0  0  0  0  0  0  0  0  0  0
  -31.2960  -23.9850   19.5440 H   0  0  0  0  0  0  0  0  0  0  0  0
  -30.7670  -25.5120   19.5160 H   0  0  0  0  0  0  0  0  0  0  0  0
  -28.1660  -25.1650   20.1310 C   0  0  0  0  0  2  0  0  0  0  0  0
  -28.3730  -26.6010   20.2610 O   0  0  0  0  0  0  0  0  0  0  0  0
  -24.5720  -31.8780   23.2580 C   0  0  0  0  0  0  0  0  0  0  0  0
  -27.2250  -27.3890   20.2030 C   0  0  0  0  0  0  0  0  0  0  0  0
  -23.3810  -30.4860   21.6000 C   0  0  0  0  0  3  0  0  0  0  0  0
  -24.8470  -28.9510   20.1860 C   0  0  0  0  0  0  0  0  0  0  0  0
  -25.9190  -30.8210   21.4410 C   0  0  0  0  0  2  0  0  0  0  0  0
  -26.0070  -29.4510   20.7940 C   0  0  0  0  0  0  0  0  0  0  0  0
  -27.1980  -28.6780   20.7980 C   0  0  0  0  0  3  0  0  0  0  0  0
  -26.0430  -26.9300   19.5740 C   0  0  0  0  0  3  0  0  0  0  0  0
  -24.8640  -27.6930   19.5710 C   0  0  0  0  0  3  0  0  0  0  0  0
  -23.6090  -29.8160   20.2200 C   0  0  0  0  0  2  0  0  0  0  0  0
  -24.6420  -31.0760   22.1580 N   0  0  0  0  0  0  0  0  0  0  0  0
  -23.4840  -32.1560   23.7810 O   0  0  0  0  0  0  0  0  0  0  0  0
  -22.7120  -29.4620   22.5470 C   0  0  0  0  0  0  0  0  0  0  0  0
  -21.3880  -29.2850   22.4050 N   0  0  0  0  0  0  0  0  0  0  0  0
  -23.3830  -28.8300   23.3680 O   0  0  0  0  0  0  0  0  0  0  0  0
  -20.9040  -29.8450   21.7160 H   0  0  0  0  0  0  0  0  0  0  0  0
  -18.0020  -28.1100   22.8690 C   0  0  0  0  0  0  0  0  0  0  0  0
  -20.5600  -28.3480   23.1640 C   0  0  0  0  0  3  0  0  0  0  0  0
  -20.6570  -26.9190   22.5800 C   0  0  0  0  0  2  0  0  0  0  0  0
  -19.5620  -26.6130   21.5530 C   0  0  0  0  0  2  0  0  0  0  0  0
  -18.1750  -26.7630   22.1870 C   0  0  0  0  0  2  0  0  0  0  0  0
  -19.1220  -28.8610   23.3140 C   0  0  0  0  0  0  0  0  0  0  0  0
  -18.9070  -30.1230   23.9090 C   0  0  0  0  0  3  0  0  0  0  0  0
  -17.6050  -30.6330   24.0650 C   0  0  0  0  0  3  0  0  0  0  0  0
  -16.4990  -29.8790   23.6370 C   0  0  0  0  0  3  0  0  0  0  0  0
  -16.6980  -28.6190   23.0440 C   0  0  0  0  0  3  0  0  0  0  0  0
  -25.8520  -32.5030   23.8930 C   0  0  0  0  0  3  0  0  0  0  0  0
  -25.5520  -33.9090   24.1920 N   0  0  0  0  0  0  0  0  0  0  0  0
  -25.8960  -34.9420   23.4110 C   0  0  0  0  0  0  0  0  0  0  0  0
  -26.5710  -34.8120   22.3870 O   0  0  0  0  0  0  0  0  0  0  0  0
  -24.9460  -34.0850   24.9800 H   0  0  0  0  0  0  0  0  0  0  0  0
  -24.1710  -36.7350   23.0270 C   0  0  0  0  0  1  0  0  0  0  0  0
  -25.4160  -36.3420   23.8370 C   0  0  0  0  0  3  0  0  0  0  0  0
  -27.5580  -37.2460   24.6330 C   0  0  0  0  0  1  0  0  0  0  0  0
  -26.4510  -37.3880   23.6900 N   0  0  0  0  0  0  0  0  0  0  0  0
  -26.0470  -38.3130   23.8130 H   0  0  0  0  0  0  0  0  0  0  0  0
  -26.3350  -31.7450   25.1910 C   0  0  1  0  0  0  0  0  0  0  0  0
  -25.2170  -31.5380   26.2370 C   0  0  0  0  0  1  0  0  0  0  0  0
  -26.9140  -30.3540   24.8350 C   0  0  0  0  0  1  0  0  0  0  0  0
  -27.4780  -32.5380   25.8670 C   0  0  0  0  0  1  0  0  0  0  0  0
  1 51  1  0
  1  3  1  0
  2  1  2  0
  4  3  1  0
  4  5  1  0
  6  4  1  0
  7  8  1  0
  9  7  1  1
  9 12  1  0
  9 11  1  0
  9 10  1  0
 10  8  1  6
 11 21  1  0
 11 10  1  0
 12  4  1  0
 12 10  1  0
 13 21  1  0
 14 19  1  0
 15 16  1  0
 15 14  1  0
 17 16  1  0
 17 26  1  0
 17 18  1  0
 19 13  1  0
 19 18  1  0
 20 13  2  0
 21 22  1  0
 23 24  2  0
 24 43  1  0
 25 24  1  0
 25 28  1  0
 26 27  1  0
 26 23  1  0
 27 25  2  0
 28 29  1  0
 29 30  2  0
 31 34  1  0
 31 30  1  0
 32 31  2  0
 33 32  1  0
 33 28  2  0
 34 35  1  0
 35 40  2  0
 35 36  1  0
 36 37  2  0
 38 37  1  0
 38 42  1  0
 39 38  2  0
 40 39  1  0
 41 40  1  0
 43 44  1  0
 44 47  1  0
 44 46  1  0
 45 43  2  0
 48 49  1  0
 48 23  1  0
 50 48  1  0
 51 56  1  0
 52 55  1  0
 52 54  1  0
 52 51  1  0
 53 52  1  0
 56 57  1  0
 58 69  2  0
 59 57  1  0
 59 64  1  0
 60 68  1  0
 60 70  1  0
 61 67  1  0
 61 63  1  0
 62 68  1  0
 63 64  2  0
 63 62  1  0
 65 59  2  0
 66 65  1  0
 66 61  2  0
 67 60  1  0
 68 58  1  0
 70 72  2  0
 71 70  1  0
 73 71  1  0
 74 83  2  0
 74 79  1  0
 75 71  1  0
 75 79  1  0
 76 75  1  0
 77 78  1  0
 77 76  1  0
 78 74  1  0
 79 80  2  0
 80 81  1  0
 82 81  2  0
 83 82  1  0
 84 58  1  0
 84 85  1  0
 84 94  1  0
 85 88  1  0
 86 90  1  0
 86 85  1  0
 87 86  2  0
 90 89  1  0
 92 93  1  0
 92 90  1  0
 92 91  1  0
 94 97  1  1
 94 95  1  0
 96 94  1  0
M  ISO  4  13 100  21 100  56 101  57 101
M  END
>  <TORSDO>  (40) 
F 22

>  <SCORE>  (40) 
-12.757

>  <name>  (40) 
39

>  <ligand_id>  (40) 
39

>  <original_smiles>  (40) 
[H]C1=C([H])C2([H])C([H])(N([H])C(=O)N3C([H])([H])C([H])([H])C([H])([H])C([H])(n4nc(-c5c([H])c([H])c(Oc6c([H])c([H])c(F)c([H])c6F)c([H])c5[H])c(C(=O)N([H])[H])c4N([H])[H])C3([H])[H])C1([H])C2([H])[N+]([H])([H])C([H])([H])C(=O)C([H])(C([H])([H])Oc1c([H])c([H])c2c(c1[H])C([H])([H])N(C(=O)C([H])(N([H])C(=O)C([H])(N([H])C([H])([H])[H])C([H])([H])[H])C(C([H])([H])[H])(C([H])([H])[H])C([H])([H])[H])C([H])(C(=O)N([H])C1([H])c3c([H])c([H])c([H])c([H])c3C([H])([H])C([H])([H])C1([H])[H])C2([H])[H])[N+]([H])([H])[H]

>  <smiles>  (40) 
[H]C1=C([H])C2([H])C([H])(N([H])C(=O)N3C([H])([H])C([H])([H])C([H])([H])C([H])(n4nc(-c5c([H])c([H])c(Oc6c([H])c([H])c(F)c([H])c6F)c([H])c5[H])c(C(=O)N([H])[H])c4N([H])[H])C3([H])[H])C1([H])C2([H])[N+]([H])([H])C([H])([H])C(=O)C([H])(C([H])([H])Oc1c([H])c([H])c2c(c1[H])C([H])([H])N(C(=O)C([H])(N([H])C(=O)C([H])(N([H])C([H])([H])[H])C([H])([H])[H])C(C([H])([H])[H])(C([H])([H])[H])C([H])([H])[H])C([H])(C(=O)N([H])C1([H])c3c([H])c([H])c([H])c([H])c3C([H])([H])C([H])([H])C1([H])[H])C2([H])[H])[N+]([H])([H])[H]

$$$$
40:0:0
     RDKit          3D

 93102  0  0  1  0  0  0  0  0999 V2000
  -27.3480  -20.2890   19.0460 C   0  0  0  0  0  2  0  0  0  0  0  0
  -28.0600  -20.3140   17.6610 C   0  0  0  0  0  2  0  0  0  0  0  0
  -30.1570  -19.2190   18.5730 C   0  0  0  0  0  2  0  0  0  0  0  0
  -28.4480  -20.3130   20.1440 C   0  0  0  0  0  3  0  0  0  0  0  0
  -29.2630  -18.8560   19.7790 C   0  0  0  0  0  3  0  0  0  0  0  0
  -29.6010  -20.4760   17.8480 C   0  0  0  0  0  3  0  0  0  0  0  0
  -29.0790  -21.8620   19.8920 C   0  0  0  0  0  3  0  0  0  0  0  0
  -29.9080  -21.6960   18.6600 N   0  0  0  0  0  4  0  0  0  0  0  0
  -29.7670  -22.5120   18.0840 H   0  0  0  0  0  0  0  0  0  0  0  0
  -30.8820  -21.6820   18.9140 H   0  0  0  0  0  0  0  0  0  0  0  0
  -28.0650  -23.7900   18.2660 C   0  0  0  0  0  1  0  0  0  0  0  0
  -28.1840  -23.3340   19.7410 C   0  0  0  0  0  3  0  0  0  0  0  0
  -28.3600  -24.7620   20.6130 C   0  0  0  0  0  2  0  0  0  0  0  0
  -28.3200  -26.2500   20.1580 O   0  0  0  0  0  0  0  0  0  0  0  0
  -24.6130  -31.8640   23.2360 C   0  0  0  0  0  0  0  0  0  0  0  0
  -27.2040  -27.1520   20.2260 C   0  0  0  0  0  0  0  0  0  0  0  0
  -23.4140  -30.4550   21.6070 C   0  0  0  0  0  3  0  0  0  0  0  0
  -24.8630  -28.8700   20.1980 C   0  0  0  0  0  0  0  0  0  0  0  0
  -25.9650  -30.7330   21.4290 C   0  0  0  0  0  2  0  0  0  0  0  0
  -26.0440  -29.3350   20.7900 C   0  0  0  0  0  0  0  0  0  0  0  0
  -27.2180  -28.4970   20.7750 C   0  0  0  0  0  3  0  0  0  0  0  0
  -25.9850  -26.7640   19.6350 C   0  0  0  0  0  3  0  0  0  0  0  0
  -24.8450  -27.5980   19.6060 C   0  0  0  0  0  3  0  0  0  0  0  0
  -23.6330  -29.7640   20.2350 C   0  0  0  0  0  2  0  0  0  0  0  0
  -24.6850  -31.0380   22.1480 N   0  0  0  0  0  0  0  0  0  0  0  0
  -23.5260  -32.1500   23.7620 O   0  0  0  0  0  0  0  0  0  0  0  0
  -22.7380  -29.4540   22.5780 C   0  0  0  0  0  0  0  0  0  0  0  0
  -21.4120  -29.2790   22.4480 N   0  0  0  0  0  0  0  0  0  0  0  0
  -23.4110  -28.8370   23.4070 O   0  0  0  0  0  0  0  0  0  0  0  0
  -20.9280  -29.8270   21.7520 H   0  0  0  0  0  0  0  0  0  0  0  0
  -18.0310  -28.0710   22.9420 C   0  0  0  0  0  0  0  0  0  0  0  0
  -20.5880  -28.3450   23.2210 C   0  0  0  0  0  3  0  0  0  0  0  0
  -20.7000  -26.9100   22.6570 C   0  0  0  0  0  2  0  0  0  0  0  0
  -19.6050  -26.5720   21.6410 C   0  0  0  0  0  2  0  0  0  0  0  0
  -18.2180  -26.7170   22.2760 C   0  0  0  0  0  2  0  0  0  0  0  0
  -19.1450  -28.8420   23.3710 C   0  0  0  0  0  0  0  0  0  0  0  0
  -18.9170  -30.1070   23.9540 C   0  0  0  0  0  3  0  0  0  0  0  0
  -17.6080  -30.6010   24.1140 C   0  0  0  0  0  3  0  0  0  0  0  0
  -16.5100  -29.8270   23.7030 C   0  0  0  0  0  3  0  0  0  0  0  0
  -16.7220  -28.5640   23.1220 C   0  0  0  0  0  3  0  0  0  0  0  0
  -25.8910  -32.5050   23.8620 C   0  0  0  0  0  3  0  0  0  0  0  0
  -26.3960  -31.7480   25.1510 C   0  0  1  0  0  0  0  0  0  0  0  0
  -25.2960  -31.5260   26.2160 C   0  0  0  0  0  1  0  0  0  0  0  0
  -26.9780  -30.3670   24.7810 C   0  0  0  0  0  1  0  0  0  0  0  0
  -27.5470  -32.5460   25.8120 C   0  0  0  0  0  1  0  0  0  0  0  0
  -25.5800  -33.9070   24.1850 N   0  0  0  0  0  0  0  0  0  0  0  0
  -25.9120  -34.9580   23.4230 C   0  0  0  0  0  0  0  0  0  0  0  0
  -26.5810  -34.8490   22.3910 O   0  0  0  0  0  0  0  0  0  0  0  0
  -24.9930  -34.0660   24.9920 H   0  0  0  0  0  0  0  0  0  0  0  0
  -24.1870  -36.7530   23.0640 C   0  0  0  0  0  1  0  0  0  0  0  0
  -25.4280  -36.3490   23.8780 C   0  0  0  0  0  3  0  0  0  0  0  0
  -27.5620  -37.2320   24.7100 C   0  0  0  0  0  1  0  0  0  0  0  0
  -26.4630  -37.4010   23.7630 N   0  0  0  0  0  0  0  0  0  0  0  0
  -26.0580  -38.3220   23.9070 H   0  0  0  0  0  0  0  0  0  0  0  0
  -29.9150  -17.6300   20.7220 C   0  0  0  0  0  2  0  0  0  0  0  0
  -30.5040  -14.9300   20.3440 C   0  0  0  0  0  0  0  0  0  0  0  0
  -30.4010  -12.5900   19.3770 C   0  0  0  0  0  2  0  0  0  0  0  0
  -29.4600  -12.5580   18.1510 C   0  0  0  0  0  2  0  0  0  0  0  0
  -27.9900  -12.3730   18.5810 C   0  0  0  0  0  2  0  0  0  0  0  0
  -27.5930  -13.2740   19.7800 C   0  0  0  0  0  3  0  0  0  0  0  0
  -28.6560  -13.2450   20.8970 C   0  0  0  0  0  2  0  0  0  0  0  0
  -29.9210  -13.6680   20.2840 N   0  0  0  0  0  0  0  0  0  0  0  0
  -31.7110  -15.0170   20.1040 O   0  0  0  0  0  0  0  0  0  0  0  0
  -29.6870  -16.0830   20.4770 N   0  0  0  0  0  0  0  0  0  0  0  0
  -28.7170  -15.8260   20.5760 H   0  0  0  0  0  0  0  0  0  0  0  0
  -25.2090  -13.8510   20.5110 C   0  0  0  0  0  0  0  0  0  0  0  0
  -24.1440  -13.0740   20.8840 C   0  0  0  0  0  0  0  0  0  0  0  0
  -24.6140  -11.7250   20.8580 C   0  0  0  0  0  0  0  0  0  0  0  0
  -26.2540  -12.9760   20.2780 N   0  0  0  0  0  0  0  0  0  0  0  0
  -25.9060  -11.6910   20.5500 N   0  0  0  0  0  0  0  0  0  0  0  0
  -23.8880  -10.4610   21.0490 C   0  0  0  0  0  0  0  0  0  0  0  0
  -24.3250   -9.4910   21.9780 C   0  0  0  0  0  3  0  0  0  0  0  0
  -23.5990   -8.2940   22.1560 C   0  0  0  0  0  3  0  0  0  0  0  0
  -22.4220   -8.0580   21.4060 C   0  0  0  0  0  0  0  0  0  0  0  0
  -22.0040   -9.0180   20.4670 C   0  0  0  0  0  3  0  0  0  0  0  0
  -22.7320  -10.2070   20.2850 C   0  0  0  0  0  3  0  0  0  0  0  0
  -21.6660   -6.9140   21.4960 O   0  0  0  0  0  0  0  0  0  0  0  0
  -21.6280   -6.1630   22.6440 C   0  0  0  0  0  0  0  0  0  0  0  0
  -21.2180   -6.7110   23.8790 C   0  0  0  0  0  3  0  0  0  0  0  0
  -21.1280   -5.8880   25.0200 C   0  0  0  0  0  3  0  0  0  0  0  0
  -21.4370   -4.5190   24.9260 C   0  0  0  0  0  0  0  0  0  0  0  0
  -21.8380   -3.9690   23.6970 C   0  0  0  0  0  3  0  0  0  0  0  0
  -21.9310   -4.7900   22.5580 C   0  0  0  0  0  0  0  0  0  0  0  0
  -22.2990   -4.2510   21.3700 F   0  0  0  0  0  0  0  0  0  0  0  0
  -21.3440   -3.7260   26.0200 F   0  0  0  0  0  0  0  0  0  0  0  0
  -22.7450  -13.5490   21.1470 C   0  0  0  0  0  0  0  0  0  0  0  0
  -22.0140  -12.8540   22.0110 N   0  0  0  0  0  0  0  0  0  0  0  0
  -22.3090  -14.5730   20.6230 O   0  0  0  0  0  0  0  0  0  0  0  0
  -22.3780  -12.0270   22.4600 H   0  0  0  0  0  0  0  0  0  0  0  0
  -21.0720  -13.1520   22.2250 H   0  0  0  0  0  0  0  0  0  0  0  0
  -25.3650  -15.2220   20.3260 N   0  0  0  0  0  0  0  0  0  0  0  0
  -24.5870  -15.8660   20.4230 H   0  0  0  0  0  0  0  0  0  0  0  0
  -26.1980  -15.6610   19.9570 H   0  0  0  0  0  0  0  0  0  0  0  0
  2  1  1  0
  3  5  1  0
  4  1  1  0
  5  4  1  0
  5 55  1  0
  6  2  1  0
  6  3  1  0
  6  8  1  0
  7 12  1  0
  7  4  1  0
  8 10  1  0
  8  7  1  0
  9  8  1  0
 12 11  1  0
 12 13  1  0
 14 16  1  0
 14 13  1  0
 15 26  2  0
 16 21  1  0
 17 25  1  0
 17 27  1  0
 18 24  1  0
 18 20  1  0
 19 25  1  0
 20 19  1  0
 21 20  2  0
 22 16  2  0
 23 22  1  0
 23 18  2  0
 24 17  1  0
 25 15  1  0
 27 29  2  0
 28 27  1  0
 30 28  1  0
 31 40  2  0
 31 36  1  0
 32 28  1  0
 32 36  1  0
 33 32  1  0
 34 35  1  0
 34 33  1  0
 35 31  1  0
 36 37  2  0
 37 38  1  0
 39 38  2  0
 40 39  1  0
 41 15  1  0
 41 46  1  0
 41 42  1  0
 42 45  1  1
 42 43  1  0
 44 42  1  0
 46 49  1  0
 47 51  1  0
 47 46  1  0
 48 47  2  0
 51 50  1  0
 53 51  1  0
 53 54  1  0
 53 52  1  0
 56 64  1  0
 57 62  1  0
 58 59  1  0
 58 57  1  0
 60 59  1  0
 60 69  1  0
 60 61  1  0
 62 56  1  0
 62 61  1  0
 63 56  2  0
 64 65  1  0
 64 55  1  0
 66 67  2  0
 67 86  1  0
 68 67  1  0
 68 71  1  0
 69 66  1  0
 69 70  1  0
 70 68  2  0
 71 72  1  0
 72 73  2  0
 74 77  1  0
 74 73  1  0
 75 74  2  0
 76 75  1  0
 76 71  2  0
 77 78  1  0
 78 79  1  0
 79 80  2  0
 81 80  1  0
 81 85  1  0
 82 81  2  0
 83 78  2  0
 83 82  1  0
 84 83  1  0
 86 87  1  0
 87 90  1  0
 87 89  1  0
 88 86  2  0
 91 92  1  0
 91 66  1  0
 93 91  1  0
M  ISO  4  13 101  14 101  56 100  64 100
M  END
>  <TORSDO>  (41) 
F 19

>  <SCORE>  (41) 
-14.676

>  <name>  (41) 
40

>  <ligand_id>  (41) 
40

>  <original_smiles>  (41) 
[H]c1c([H])c([H])c2c(c1[H])C([H])([H])C([H])([H])C([H])([H])C2([H])N([H])C(=O)C1([H])N(C(=O)C([H])(N([H])C(=O)C([H])(N([H])C([H])([H])[H])C([H])([H])[H])C(C([H])([H])[H])(C([H])([H])[H])C([H])([H])[H])C([H])([H])c2c([H])c(OC([H])([H])C([H])(C([H])([H])[H])C3([H])C4([H])C([H])([H])C([H])([H])C([H])(C([H])([H])C4([H])C([H])([H])N([H])C(=O)N4C([H])([H])C([H])([H])C([H])([H])C([H])(n5nc(-c6c([H])c([H])c(Oc7c([H])c([H])c(F)c([H])c7F)c([H])c6[H])c(C(=O)N([H])[H])c5N([H])[H])C4([H])[H])[N+]3([H])[H])c([H])c([H])c2C1([H])[H]

>  <smiles>  (41) 
[H]c1c([H])c([H])c2c(c1[H])C([H])([H])C([H])([H])C([H])([H])C2([H])N([H])C(=O)C1([H])N(C(=O)C([H])(N([H])C(=O)C([H])(N([H])C([H])([H])[H])C([H])([H])[H])C(C([H])([H])[H])(C([H])([H])[H])C([H])([H])[H])C([H])([H])c2c([H])c(OC([H])([H])C([H])(C([H])([H])[H])C3([H])C4([H])C([H])([H])C([H])([H])C([H])(C([H])([H])C4([H])C([H])([H])N([H])C(=O)N4C([H])([H])C([H])([H])C([H])([H])C([H])(n5nc(-c6c([H])c([H])c(Oc7c([H])c([H])c(F)c([H])c7F)c([H])c6[H])c(C(=O)N([H])[H])c5N([H])[H])C4([H])[H])[N+]3([H])[H])c([H])c([H])c2C1([H])[H]

$$$$
41:0:0
     RDKit          3D

 98108  0  0  1  0  0  0  0  0999 V2000
  -26.1840  -24.0270   21.8810 C   0  0  0  0  0  2  0  0  0  0  0  0
  -26.9990  -25.2050   22.4540 C   0  0  0  0  0  2  0  0  0  0  0  0
  -27.7970  -24.6970   20.2670 C   0  0  0  0  0  2  0  0  0  0  0  0
  -26.3910  -24.0980   20.3610 C   0  0  0  0  0  3  0  0  0  0  0  0
  -27.9110  -25.6620   21.3740 N   0  0  2  0  0  4  0  0  0  0  0  0
  -27.5090  -26.5180   21.0200 H   0  0  0  0  0  0  0  0  0  0  0  0
  -26.2570  -22.7430   19.6240 C   0  0  0  0  0  2  0  0  0  0  0  0
  -26.9690  -22.7190   18.2460 C   0  0  0  0  0  2  0  0  0  0  0  0
  -28.1070  -21.7670   18.1960 N   0  0  0  0  0  4  0  0  0  0  0  0
  -28.1970  -21.3200   19.0940 H   0  0  0  0  0  0  0  0  0  0  0  0
  -27.9030  -21.0520   17.5150 H   0  0  0  0  0  0  0  0  0  0  0  0
  -29.4000  -22.4120   17.8680 C   0  0  0  0  0  2  0  0  0  0  0  0
  -34.1430  -23.1990   16.4850 C   0  0  0  0  0  0  0  0  0  0  0  0
  -35.5430  -23.2160   14.4550 C   0  0  0  0  0  2  0  0  0  0  0  0
  -34.8450  -23.9970   13.3220 C   0  0  0  0  0  2  0  0  0  0  0  0
  -33.9070  -23.0730   12.5210 C   0  0  0  0  0  2  0  0  0  0  0  0
  -32.9660  -22.2500   13.4380 C   0  0  0  0  0  3  0  0  0  0  0  0
  -33.7620  -21.5780   14.5750 C   0  0  0  0  0  2  0  0  0  0  0  0
  -34.5010  -22.6200   15.3070 N   0  0  0  0  0  0  0  0  0  0  0  0
  -34.7260  -24.1970   16.9280 O   0  0  0  0  0  0  0  0  0  0  0  0
  -32.9060  -21.7720   19.2020 C   0  0  0  0  0  2  0  0  0  0  0  0
  -31.4930  -20.8530   17.5060 C   0  0  0  0  0  2  0  0  0  0  0  0
  -32.2090  -23.6210   17.9460 C   0  0  0  0  0  2  0  0  0  0  0  0
  -31.6940  -22.6730   19.0440 C   0  0  0  0  0  3  0  0  0  0  0  0
  -30.6330  -21.6990   18.4790 C   0  0  0  0  0  3  0  0  0  0  0  0
  -32.9220  -21.4180   17.7220 C   0  0  0  0  0  3  0  0  0  0  0  0
  -33.0100  -22.7420   17.0780 N   0  0  0  0  0  0  0  0  0  0  0  0
  -30.8330  -21.1560   12.4960 C   0  0  0  0  0  0  0  0  0  0  0  0
  -30.6460  -20.1090   11.6340 C   0  0  0  0  0  0  0  0  0  0  0  0
  -31.9510  -19.6260   11.3120 C   0  0  0  0  0  0  0  0  0  0  0  0
  -32.2030  -21.2660   12.6690 N   0  0  0  0  0  0  0  0  0  0  0  0
  -32.8710  -20.2990   11.9890 N   0  0  0  0  0  0  0  0  0  0  0  0
  -32.3780  -18.5950   10.3580 C   0  0  0  0  0  0  0  0  0  0  0  0
  -33.1210  -17.4680   10.7720 C   0  0  0  0  0  3  0  0  0  0  0  0
  -33.5050  -16.4830    9.8380 C   0  0  0  0  0  3  0  0  0  0  0  0
  -33.1420  -16.6140    8.4760 C   0  0  0  0  0  0  0  0  0  0  0  0
  -32.4210  -17.7480    8.0670 C   0  0  0  0  0  3  0  0  0  0  0  0
  -32.0440  -18.7330    8.9960 C   0  0  0  0  0  3  0  0  0  0  0  0
  -33.4950  -15.7200    7.4940 O   0  0  0  0  0  0  0  0  0  0  0  0
  -33.6880  -14.3900    7.7670 C   0  0  0  0  0  0  0  0  0  0  0  0
  -32.6630  -13.5880    8.3140 C   0  0  0  0  0  3  0  0  0  0  0  0
  -32.8750  -12.2080    8.5100 C   0  0  0  0  0  3  0  0  0  0  0  0
  -34.1090  -11.6290    8.1570 C   0  0  0  0  0  0  0  0  0  0  0  0
  -35.1310  -12.4250    7.6100 C   0  0  0  0  0  3  0  0  0  0  0  0
  -34.9200  -13.8010    7.4130 C   0  0  0  0  0  0  0  0  0  0  0  0
  -35.8990  -14.5580    6.8630 F   0  0  0  0  0  0  0  0  0  0  0  0
  -34.3110  -10.3020    8.3400 F   0  0  0  0  0  0  0  0  0  0  0  0
  -29.3390  -19.6440   11.0630 C   0  0  0  0  0  0  0  0  0  0  0  0
  -29.1800  -18.3390   10.8790 N   0  0  0  0  0  0  0  0  0  0  0  0
  -28.4290  -20.4360   10.8230 O   0  0  0  0  0  0  0  0  0  0  0  0
  -29.9170  -17.6850   11.0970 H   0  0  0  0  0  0  0  0  0  0  0  0
  -28.3050  -17.9860   10.5160 H   0  0  0  0  0  0  0  0  0  0  0  0
  -29.9560  -22.0300   13.1350 N   0  0  0  0  0  0  0  0  0  0  0  0
  -28.9580  -22.0070   12.9590 H   0  0  0  0  0  0  0  0  0  0  0  0
  -30.2440  -22.8210   13.6960 H   0  0  0  0  0  0  0  0  0  0  0  0
  -29.3180  -25.9570   21.7650 C   0  0  0  0  0  2  0  0  0  0  0  0
  -29.8040  -27.3280   21.2560 C   0  0  0  0  0  2  0  0  0  0  0  0
  -29.4790  -28.3520   22.1920 O   0  0  0  0  0  0  0  0  0  0  0  0
  -24.4500  -28.3190   27.1780 C   0  0  0  0  0  0  0  0  0  0  0  0
  -28.1660  -28.6520   22.4730 C   0  0  0  0  0  0  0  0  0  0  0  0
  -23.6900  -28.9720   24.9160 C   0  0  0  0  0  3  0  0  0  0  0  0
  -25.5350  -29.3790   23.2070 C   0  0  0  0  0  0  0  0  0  0  0  0
  -26.1090  -29.3540   25.6420 C   0  0  0  0  0  2  0  0  0  0  0  0
  -26.5070  -29.1730   24.1950 C   0  0  0  0  0  0  0  0  0  0  0  0
  -27.8170  -28.8080   23.8320 C   0  0  0  0  0  3  0  0  0  0  0  0
  -27.1730  -28.8580   21.4850 C   0  0  0  0  0  3  0  0  0  0  0  0
  -25.8600  -29.2100   21.8510 C   0  0  0  0  0  3  0  0  0  0  0  0
  -24.1590  -29.7870   23.6800 C   0  0  0  0  0  2  0  0  0  0  0  0
  -24.7570  -28.8410   25.9580 N   0  0  0  0  0  0  0  0  0  0  0  0
  -23.2900  -27.9820   27.4550 O   0  0  0  0  0  0  0  0  0  0  0  0
  -23.1470  -27.6120   24.4250 C   0  0  0  0  0  0  0  0  0  0  0  0
  -22.2050  -27.6550   23.4710 N   0  0  0  0  0  0  0  0  0  0  0  0
  -23.5920  -26.5530   24.8780 O   0  0  0  0  0  0  0  0  0  0  0  0
  -21.8880  -28.5630   23.1610 H   0  0  0  0  0  0  0  0  0  0  0  0
  -19.9960  -26.6560   20.7910 C   0  0  0  0  0  0  0  0  0  0  0  0
  -21.5870  -26.5000   22.8230 C   0  0  0  0  0  3  0  0  0  0  0  0
  -22.5810  -25.8000   21.8680 C   0  0  0  0  0  2  0  0  0  0  0  0
  -22.4660  -26.2760   20.4140 C   0  0  0  0  0  2  0  0  0  0  0  0
  -21.0510  -26.0470   19.8840 C   0  0  0  0  0  2  0  0  0  0  0  0
  -20.2510  -26.8790   22.1710 C   0  0  0  0  0  0  0  0  0  0  0  0
  -19.2460  -27.4740   22.9640 C   0  0  0  0  0  3  0  0  0  0  0  0
  -18.0080  -27.8410   22.4030 C   0  0  0  0  0  3  0  0  0  0  0  0
  -17.7580  -27.6040   21.0400 C   0  0  0  0  0  3  0  0  0  0  0  0
  -18.7480  -27.0090   20.2390 C   0  0  0  0  0  3  0  0  0  0  0  0
  -25.5320  -28.1400   28.2880 C   0  0  0  0  0  3  0  0  0  0  0  0
  -24.8310  -28.0330   29.5740 N   0  0  0  0  0  0  0  0  0  0  0  0
  -24.8080  -28.9900   30.5100 C   0  0  0  0  0  0  0  0  0  0  0  0
  -25.4440  -30.0420   30.4080 O   0  0  0  0  0  0  0  0  0  0  0  0
  -24.2490  -27.2190   29.7020 H   0  0  0  0  0  0  0  0  0  0  0  0
  -22.5710  -29.4080   31.5790 C   0  0  0  0  0  1  0  0  0  0  0  0
  -23.9420  -28.7380   31.7590 C   0  0  0  0  0  3  0  0  0  0  0  0
  -25.7430  -28.4450   33.4030 C   0  0  0  0  0  1  0  0  0  0  0  0
  -24.5620  -29.2130   33.0140 N   0  0  0  0  0  0  0  0  0  0  0  0
  -23.8940  -29.1790   33.7800 H   0  0  0  0  0  0  0  0  0  0  0  0
  -26.4600  -26.8840   28.0540 C   0  0  1  0  0  0  0  0  0  0  0  0
  -25.6960  -25.5400   28.0540 C   0  0  0  0  0  1  0  0  0  0  0  0
  -27.2130  -27.0040   26.7080 C   0  0  0  0  0  1  0  0  0  0  0  0
  -27.5350  -26.8090   29.1620 C   0  0  0  0  0  1  0  0  0  0  0  0
  1  2  1  0
  3  4  1  0
  3  5  1  0
  4  7  1  0
  4  1  1  0
  5 56  1  0
  5  2  1  0
  5  6  1  6
  8  7  1  0
  9  8  1  0
  9 10  1  0
 11  9  1  0
 12  9  1  0
 13 20  2  0
 13 27  1  0
 14 19  1  0
 15 14  1  0
 16 15  1  0
 17 16  1  0
 17 18  1  0
 18 19  1  0
 19 13  1  0
 22 25  1  0
 24 23  1  0
 24 21  1  0
 25 12  1  0
 25 24  1  0
 26 22  1  0
 26 21  1  0
 27 26  1  0
 27 23  1  0
 28 31  1  0
 28 53  1  0
 29 28  2  0
 30 29  1  0
 30 32  2  0
 31 17  1  0
 32 31  1  0
 33 34  1  0
 33 30  1  0
 35 34  2  0
 36 35  1  0
 37 36  2  0
 37 38  1  0
 38 33  2  0
 39 40  1  0
 39 36  1  0
 40 41  1  0
 41 42  2  0
 43 47  1  0
 43 42  1  0
 44 43  2  0
 45 44  1  0
 45 40  2  0
 46 45  1  0
 48 29  1  0
 49 48  1  0
 49 51  1  0
 50 48  2  0
 52 49  1  0
 53 55  1  0
 54 53  1  0
 57 56  1  0
 57 58  1  0
 58 60  1  0
 59 70  2  0
 60 65  1  0
 61 71  1  0
 61 69  1  0
 62 68  1  0
 62 64  1  0
 63 69  1  0
 64 63  1  0
 65 64  2  0
 66 67  1  0
 66 60  2  0
 67 62  2  0
 68 61  1  0
 69 59  1  0
 71 73  2  0
 72 71  1  0
 74 72  1  0
 75 80  1  0
 76 72  1  0
 77 76  1  0
 78 77  1  0
 79 78  1  0
 79 75  1  0
 80 76  1  0
 80 81  2  0
 82 81  1  0
 83 82  2  0
 84 75  2  0
 84 83  1  0
 85 59  1  0
 85 86  1  0
 86 89  1  0
 86 87  1  0
 87 91  1  0
 88 87  2  0
 91 90  1  0
 91 93  1  0
 93 92  1  0
 93 94  1  0
 95 96  1  6
 95 85  1  0
 95 98  1  0
 97 95  1  0
M  ISO  4  13 100  27 100  57 101  58 101
M  END
>  <TORSDO>  (42) 
F 22

>  <SCORE>  (42) 
-4.837

>  <name>  (42) 
41

>  <ligand_id>  (42) 
41

>  <original_smiles>  (42) 
[H]c1c([H])c([H])c2c(c1[H])C([H])([H])C([H])([H])C([H])([H])C2([H])N([H])C(=O)C1([H])N(C(=O)C([H])(N([H])C(=O)C([H])(N([H])C([H])([H])[H])C([H])([H])[H])C(C([H])([H])[H])(C([H])([H])[H])C([H])([H])[H])C([H])([H])c2c([H])c(OC([H])([H])C([H])([H])[N+]3([H])C([H])([H])C([H])([H])C([H])(C([H])([H])C([H])([H])[N+]([H])([H])C([H])([H])C4([H])C([H])([H])C5([H])N(C(=O)N6C([H])([H])C([H])([H])C([H])([H])C([H])(n7nc(-c8c([H])c([H])c(Oc9c([H])c([H])c(F)c([H])c9F)c([H])c8[H])c(C(=O)N([H])[H])c7N([H])[H])C6([H])[H])C([H])([H])C4([H])C5([H])[H])C3([H])[H])c([H])c([H])c2C1([H])[H]

>  <smiles>  (42) 
[H]c1c([H])c([H])c2c(c1[H])C([H])([H])C([H])([H])C([H])([H])C2([H])N([H])C(=O)C1([H])N(C(=O)C([H])(N([H])C(=O)C([H])(N([H])C([H])([H])[H])C([H])([H])[H])C(C([H])([H])[H])(C([H])([H])[H])C([H])([H])[H])C([H])([H])c2c([H])c(OC([H])([H])C([H])([H])[N+]3([H])C([H])([H])C([H])([H])C([H])(C([H])([H])C([H])([H])[N+]([H])([H])C([H])([H])C4([H])C([H])([H])C5([H])N(C(=O)N6C([H])([H])C([H])([H])C([H])([H])C([H])(n7nc(-c8c([H])c([H])c(Oc9c([H])c([H])c(F)c([H])c9F)c([H])c8[H])c(C(=O)N([H])[H])c7N([H])[H])C6([H])[H])C([H])([H])C4([H])C5([H])[H])C3([H])[H])c([H])c([H])c2C1([H])[H]

$$$$
42:0:0
     RDKit          3D

 94103  0  0  1  0  0  0  0  0999 V2000
  -29.9710  -18.1650   19.9730 C   0  0  0  0  0  3  0  0  0  0  0  0
  -27.5700  -18.4890   19.0570 C   0  0  0  0  0  2  0  0  0  0  0  0
  -27.0950  -19.7630   19.8020 C   0  0  0  0  0  2  0  0  0  0  0  0
  -29.0750  -18.6490   18.8520 C   0  0  0  0  0  3  0  0  0  0  0  0
  -29.4810  -19.9900   19.4480 C   0  0  0  0  0  3  0  0  0  0  0  0
  -28.1990  -20.8270   19.5920 C   0  0  0  0  0  3  0  0  0  0  0  0
  -29.9170  -19.1960   20.6940 N   0  0  0  0  0  2  0  0  0  0  0  0
  -28.2010  -21.9140   20.6150 N   0  0  0  0  0  4  0  0  0  0  0  0
  -28.7280  -21.6130   21.4210 H   0  0  0  0  0  0  0  0  0  0  0  0
  -27.2420  -22.0120   20.9070 H   0  0  0  0  0  0  0  0  0  0  0  0
  -28.6470  -23.2790   20.1860 C   0  0  0  0  0  2  0  0  0  0  0  0
  -28.0280  -24.4170   21.0590 C   0  0  0  0  0  2  0  0  0  0  0  0
  -28.7050  -25.8240   21.0200 C   0  0  0  0  0  2  0  0  0  0  0  0
  -28.3860  -26.6690   19.9050 O   0  0  0  0  0  0  0  0  0  0  0  0
  -24.5310  -31.7250   23.2390 C   0  0  0  0  0  0  0  0  0  0  0  0
  -27.2390  -27.4260   20.0030 C   0  0  0  0  0  0  0  0  0  0  0  0
  -23.3640  -30.4100   21.4990 C   0  0  0  0  0  3  0  0  0  0  0  0
  -24.8510  -28.9430   20.0350 C   0  0  0  0  0  0  0  0  0  0  0  0
  -25.8960  -30.7700   21.3820 C   0  0  0  0  0  2  0  0  0  0  0  0
  -25.9950  -29.4290   20.6820 C   0  0  0  0  0  0  0  0  0  0  0  0
  -27.1940  -28.6740   20.6710 C   0  0  0  0  0  3  0  0  0  0  0  0
  -26.0830  -26.9620   19.3460 C   0  0  0  0  0  3  0  0  0  0  0  0
  -24.8890  -27.7060   19.3670 C   0  0  0  0  0  3  0  0  0  0  0  0
  -23.6070  -29.8020   20.0920 C   0  0  0  0  0  2  0  0  0  0  0  0
  -24.6140  -30.9810   22.0990 N   0  0  0  0  0  0  0  0  0  0  0  0
  -23.4370  -31.9700   23.7660 O   0  0  0  0  0  0  0  0  0  0  0  0
  -22.6900  -29.3410   22.3900 C   0  0  0  0  0  0  0  0  0  0  0  0
  -21.3610  -29.1980   22.2540 N   0  0  0  0  0  0  0  0  0  0  0  0
  -23.3610  -28.6490   23.1600 O   0  0  0  0  0  0  0  0  0  0  0  0
  -20.8830  -29.8090   21.6070 H   0  0  0  0  0  0  0  0  0  0  0  0
  -17.9530  -28.1010   22.7440 C   0  0  0  0  0  0  0  0  0  0  0  0
  -20.5260  -28.2280   22.9610 C   0  0  0  0  0  3  0  0  0  0  0  0
  -20.5520  -26.8530   22.2540 C   0  0  0  0  0  2  0  0  0  0  0  0
  -19.4120  -26.6710   21.2500 C   0  0  0  0  0  2  0  0  0  0  0  0
  -18.0540  -26.8140   21.9430 C   0  0  0  0  0  2  0  0  0  0  0  0
  -19.1150  -28.7740   23.2080 C   0  0  0  0  0  0  0  0  0  0  0  0
  -18.9670  -29.9850   23.9160 C   0  0  0  0  0  3  0  0  0  0  0  0
  -17.6900  -30.5250   24.1630 C   0  0  0  0  0  3  0  0  0  0  0  0
  -16.5440  -29.8480   23.7140 C   0  0  0  0  0  3  0  0  0  0  0  0
  -16.6760  -28.6370   23.0100 C   0  0  0  0  0  3  0  0  0  0  0  0
  -25.8020  -32.3220   23.9190 C   0  0  0  0  0  3  0  0  0  0  0  0
  -25.5170  -33.7270   24.2360 N   0  0  0  0  0  0  0  0  0  0  0  0
  -25.9170  -34.7690   23.4940 C   0  0  0  0  0  0  0  0  0  0  0  0
  -26.6350  -34.6470   22.4980 O   0  0  0  0  0  0  0  0  0  0  0  0
  -24.8900  -33.8990   25.0070 H   0  0  0  0  0  0  0  0  0  0  0  0
  -24.2730  -36.6170   23.0380 C   0  0  0  0  0  1  0  0  0  0  0  0
  -25.4440  -36.1700   23.9270 C   0  0  0  0  0  3  0  0  0  0  0  0
  -27.5370  -36.9940   24.9130 C   0  0  0  0  0  1  0  0  0  0  0  0
  -26.5150  -37.1900   23.8880 N   0  0  0  0  0  0  0  0  0  0  0  0
  -26.1280  -38.1240   23.9990 H   0  0  0  0  0  0  0  0  0  0  0  0
  -26.2420  -31.5370   25.2150 C   0  0  1  0  0  0  0  0  0  0  0  0
  -25.0960  -31.3240   26.2300 C   0  0  0  0  0  1  0  0  0  0  0  0
  -26.8090  -30.1460   24.8470 C   0  0  0  0  0  1  0  0  0  0  0  0
  -27.3810  -32.3000   25.9320 C   0  0  0  0  0  1  0  0  0  0  0  0
  -31.5000  -16.7920   18.5640 C   0  0  0  0  0  1  0  0  0  0  0  0
  -30.9250  -16.9590   19.9880 C   0  0  0  0  0  3  0  0  0  0  0  0
  -31.0950  -14.5220   20.5040 C   0  0  0  0  0  0  0  0  0  0  0  0
  -30.7680  -12.3170   19.4870 C   0  0  0  0  0  2  0  0  0  0  0  0
  -29.8820  -12.5010   18.2380 C   0  0  0  0  0  2  0  0  0  0  0  0
  -28.3930  -12.4050   18.6220 C   0  0  0  0  0  2  0  0  0  0  0  0
  -28.0230  -13.2970   19.8390 C   0  0  0  0  0  3  0  0  0  0  0  0
  -29.0410  -13.1390   20.9910 C   0  0  0  0  0  2  0  0  0  0  0  0
  -30.3810  -13.3670   20.4420 N   0  0  0  0  0  0  0  0  0  0  0  0
  -32.3050  -14.5540   20.2780 O   0  0  0  0  0  0  0  0  0  0  0  0
  -30.3760  -15.6710   20.4890 N   0  0  0  0  0  0  0  0  0  0  0  0
  -29.3810  -15.6050   20.6350 H   0  0  0  0  0  0  0  0  0  0  0  0
  -25.6250  -13.9620   20.4790 C   0  0  0  0  0  0  0  0  0  0  0  0
  -24.5310  -13.2200   20.8260 C   0  0  0  0  0  0  0  0  0  0  0  0
  -24.9610  -11.8590   20.8270 C   0  0  0  0  0  0  0  0  0  0  0  0
  -26.6560  -13.0550   20.2880 N   0  0  0  0  0  0  0  0  0  0  0  0
  -26.2590  -11.7850   20.5600 N   0  0  0  0  0  0  0  0  0  0  0  0
  -24.1990  -10.6160   21.0090 C   0  0  0  0  0  0  0  0  0  0  0  0
  -24.5590   -9.6650   21.9870 C   0  0  0  0  0  3  0  0  0  0  0  0
  -23.7990   -8.4860   22.1540 C   0  0  0  0  0  3  0  0  0  0  0  0
  -22.6650   -8.2530   21.3410 C   0  0  0  0  0  0  0  0  0  0  0  0
  -22.3240   -9.1930   20.3530 C   0  0  0  0  0  3  0  0  0  0  0  0
  -23.0840  -10.3620   20.1850 C   0  0  0  0  0  3  0  0  0  0  0  0
  -21.8830   -7.1250   21.4150 O   0  0  0  0  0  0  0  0  0  0  0  0
  -21.7470   -6.4180   22.5830 C   0  0  0  0  0  0  0  0  0  0  0  0
  -21.2090   -7.0040   23.7490 C   0  0  0  0  0  3  0  0  0  0  0  0
  -21.0200   -6.2240   24.9070 C   0  0  0  0  0  3  0  0  0  0  0  0
  -21.3610   -4.8580   24.8990 C   0  0  0  0  0  0  0  0  0  0  0  0
  -21.8910   -4.2710   23.7370 C   0  0  0  0  0  3  0  0  0  0  0  0
  -22.0800   -5.0480   22.5810 C   0  0  0  0  0  0  0  0  0  0  0  0
  -22.5720   -4.4730   21.4570 F   0  0  0  0  0  0  0  0  0  0  0  0
  -21.1740   -4.1060   26.0080 F   0  0  0  0  0  0  0  0  0  0  0  0
  -23.1370  -13.7350   21.0450 C   0  0  0  0  0  0  0  0  0  0  0  0
  -22.3670  -13.0740   21.9000 N   0  0  0  0  0  0  0  0  0  0  0  0
  -22.7410  -14.7610   20.4940 O   0  0  0  0  0  0  0  0  0  0  0  0
  -22.6980  -12.2450   22.3710 H   0  0  0  0  0  0  0  0  0  0  0  0
  -21.4310  -13.4030   22.0890 H   0  0  0  0  0  0  0  0  0  0  0  0
  -25.8250  -15.3250   20.2850 N   0  0  0  0  0  0  0  0  0  0  0  0
  -25.0570  -15.9860   20.3390 H   0  0  0  0  0  0  0  0  0  0  0  0
  -26.6780  -15.7340   19.9310 H   0  0  0  0  0  0  0  0  0  0  0  0
  1 56  1  0
  1  7  1  0
  2  3  1  0
  4  2  1  0
  4  5  1  0
  4  1  1  0
  5  6  1  0
  5  7  1  0
  6  3  1  0
  6  8  1  0
  8 10  1  0
  8  9  1  0
 11  8  1  0
 11 12  1  0
 13 12  1  0
 14 16  1  0
 14 13  1  0
 15 26  2  0
 16 21  1  0
 17 25  1  0
 17 27  1  0
 18 24  1  0
 18 20  1  0
 19 25  1  0
 20 19  1  0
 21 20  2  0
 22 23  1  0
 22 16  2  0
 23 18  2  0
 24 17  1  0
 25 15  1  0
 27 29  2  0
 28 27  1  0
 30 28  1  0
 31 40  2  0
 31 36  1  0
 32 28  1  0
 32 36  1  0
 33 32  1  0
 34 35  1  0
 34 33  1  0
 35 31  1  0
 36 37  2  0
 37 38  1  0
 39 38  2  0
 40 39  1  0
 41 15  1  0
 41 42  1  0
 41 51  1  0
 42 45  1  0
 43 47  1  0
 43 42  1  0
 44 43  2  0
 47 46  1  0
 49 47  1  0
 49 50  1  0
 49 48  1  0
 51 54  1  1
 51 52  1  0
 53 51  1  0
 56 55  1  0
 56 65  1  0
 58 63  1  0
 59 60  1  0
 59 58  1  0
 61 60  1  0
 61 70  1  0
 61 62  1  0
 63 57  1  0
 63 62  1  0
 64 57  2  0
 65 57  1  0
 65 66  1  0
 67 68  2  0
 68 69  1  0
 68 87  1  0
 69 72  1  0
 70 67  1  0
 70 71  1  0
 71 69  2  0
 72 73  1  0
 73 74  2  0
 75 78  1  0
 75 74  1  0
 76 75  2  0
 77 76  1  0
 77 72  2  0
 78 79  1  0
 79 80  1  0
 80 81  2  0
 82 81  1  0
 82 86  1  0
 83 82  2  0
 84 79  2  0
 84 83  1  0
 85 84  1  0
 87 88  1  0
 88 91  1  0
 88 90  1  0
 89 87  2  0
 92 93  1  0
 92 67  1  0
 94 92  1  0
M  ISO  4  13 101  14 101  57 100  65 100
M  END
>  <TORSDO>  (43) 
F 21

>  <SCORE>  (43) 
-13.053

>  <name>  (43) 
42

>  <ligand_id>  (43) 
42

>  <original_smiles>  (43) 
[H]c1c([H])c([H])c2c(c1[H])C([H])([H])C([H])([H])C([H])([H])C2([H])N([H])C(=O)C1([H])N(C(=O)C([H])(N([H])C(=O)C([H])(N([H])C([H])([H])[H])C([H])([H])[H])C(C([H])([H])[H])(C([H])([H])[H])C([H])([H])[H])C([H])([H])c2c([H])c(OC([H])([H])C([H])([H])C([H])([H])[N+]([H])([H])C3([H])C([H])([H])C([H])([H])C4([H])C(C([H])(N([H])C(=O)N5C([H])([H])C([H])([H])C([H])([H])C([H])(n6nc(-c7c([H])c([H])c(Oc8c([H])c([H])c(F)c([H])c8F)c([H])c7[H])c(C(=O)N([H])[H])c6N([H])[H])C5([H])[H])C([H])([H])[H])=NC43[H])c([H])c([H])c2C1([H])[H]

>  <smiles>  (43) 
[H]c1c([H])c([H])c2c(c1[H])C([H])([H])C([H])([H])C([H])([H])C2([H])N([H])C(=O)C1([H])N(C(=O)C([H])(N([H])C(=O)C([H])(N([H])C([H])([H])[H])C([H])([H])[H])C(C([H])([H])[H])(C([H])([H])[H])C([H])([H])[H])C([H])([H])c2c([H])c(OC([H])([H])C([H])([H])C([H])([H])[N+]([H])([H])C3([H])C([H])([H])C([H])([H])C4([H])C(C([H])(N([H])C(=O)N5C([H])([H])C([H])([H])C([H])([H])C([H])(n6nc(-c7c([H])c([H])c(Oc8c([H])c([H])c(F)c([H])c8F)c([H])c7[H])c(C(=O)N([H])[H])c6N([H])[H])C5([H])[H])C([H])([H])[H])=NC43[H])c([H])c([H])c2C1([H])[H]

$$$$
43:0:0
     RDKit          3D

 92102  0  0  1  0  0  0  0  0999 V2000
  -28.4830  -22.9760   19.3750 C   0  0  0  0  0  0  0  0  0  0  0  0
  -27.0860  -20.2950   17.2620 C   0  0  0  0  0  2  0  0  0  0  0  0
  -27.4540  -19.7940   18.7040 C   0  0  0  0  0  2  0  0  0  0  0  0
  -29.5200  -20.3450   16.7640 C   0  0  0  0  0  2  0  0  0  0  0  0
  -30.0040  -19.5050   18.0360 C   0  0  0  0  0  3  0  0  0  0  0  0
  -28.3200  -21.2920   17.2180 C   0  0  0  0  0  3  0  0  0  0  0  0
  -28.9560  -20.3230   19.0180 C   0  0  0  0  0  3  0  0  0  0  0  0
  -28.6860  -21.7890   18.5770 N   0  0  0  0  0  0  0  0  0  0  0  0
  -28.6920  -22.7880   20.5870 O   0  0  0  0  0  0  0  0  0  0  0  0
  -31.6240  -17.4510   16.9850 C   0  0  0  0  0  2  0  0  0  0  0  0
  -30.2900  -17.9220   17.6380 C   0  0  0  0  0  3  0  0  0  0  0  0
  -30.9410  -16.4180   17.9650 C   0  0  0  0  0  3  0  0  0  0  0  0
  -31.5410  -14.7930   20.3610 C   0  0  0  0  0  0  0  0  0  0  0  0
  -29.5960  -14.5890   20.3330 C   0  0  0  0  0  2  0  0  0  0  0  0
  -28.9990  -14.0770   18.9160 C   0  0  0  0  0  2  0  0  0  0  0  0
  -28.3480  -12.7940   18.8550 C   0  0  0  0  0  2  0  0  0  0  0  0
  -28.0750  -12.6590   20.3200 C   0  0  0  0  0  3  0  0  0  0  0  0
  -29.6140  -12.5720   20.9720 C   0  0  0  0  0  2  0  0  0  0  0  0
  -30.5850  -13.8720   20.8630 N   0  0  0  0  0  0  0  0  0  0  0  0
  -32.4350  -15.0850   21.1110 O   0  0  0  0  0  0  0  0  0  0  0  0
  -31.5860  -15.4260   19.0390 N   0  0  0  0  0  0  0  0  0  0  0  0
  -31.5400  -14.5370   18.5670 H   0  0  0  0  0  0  0  0  0  0  0  0
  -25.6650  -13.8140   20.7160 C   0  0  0  0  0  0  0  0  0  0  0  0
  -24.4960  -13.1390   20.9920 C   0  0  0  0  0  0  0  0  0  0  0  0
  -24.8870  -11.7710   21.0740 C   0  0  0  0  0  0  0  0  0  0  0  0
  -26.6750  -12.7710   20.6970 N   0  0  0  0  0  0  0  0  0  0  0  0
  -26.1760  -11.5830   20.9610 N   0  0  0  0  0  0  0  0  0  0  0  0
  -24.1380  -10.5750   21.2040 C   0  0  0  0  0  0  0  0  0  0  0  0
  -24.4740   -9.6530   22.2130 C   0  0  0  0  0  3  0  0  0  0  0  0
  -23.7490   -8.4470   22.3290 C   0  0  0  0  0  3  0  0  0  0  0  0
  -22.6690   -8.2090   21.4390 C   0  0  0  0  0  0  0  0  0  0  0  0
  -22.3550   -9.1270   20.4350 C   0  0  0  0  0  3  0  0  0  0  0  0
  -23.0940  -10.3340   20.3150 C   0  0  0  0  0  3  0  0  0  0  0  0
  -21.9320   -7.0660   21.4440 O   0  0  0  0  0  0  0  0  0  0  0  0
  -21.7890   -6.3390   22.6160 C   0  0  0  0  0  0  0  0  0  0  0  0
  -21.2590   -6.9230   23.7710 C   0  0  0  0  0  3  0  0  0  0  0  0
  -21.0400   -6.1480   24.9320 C   0  0  0  0  0  3  0  0  0  0  0  0
  -21.3810   -4.7570   24.9190 C   0  0  0  0  0  0  0  0  0  0  0  0
  -21.9110   -4.1830   23.7370 C   0  0  0  0  0  3  0  0  0  0  0  0
  -22.1210   -4.9840   22.6070 C   0  0  0  0  0  0  0  0  0  0  0  0
  -22.6270   -4.4100   21.4770 F   0  0  0  0  0  0  0  0  0  0  0  0
  -21.1700   -4.0150   26.0070 F   0  0  0  0  0  0  0  0  0  0  0  0
  -23.1130  -13.7070   20.9870 C   0  0  0  0  0  0  0  0  0  0  0  0
  -22.2410  -13.0910   21.7730 N   0  0  0  0  0  0  0  0  0  0  0  0
  -22.7940  -14.7330   20.4070 O   0  0  0  0  0  0  0  0  0  0  0  0
  -22.5200  -12.2870   22.2880 H   0  0  0  0  0  0  0  0  0  0  0  0
  -21.3200  -13.5010   21.8360 H   0  0  0  0  0  0  0  0  0  0  0  0
  -25.8820  -15.1620   20.5180 N   0  0  0  0  0  0  0  0  0  0  0  0
  -25.0660  -15.7820   20.5510 H   0  0  0  0  0  0  0  0  0  0  0  0
  -26.7940  -15.5740   20.3020 H   0  0  0  0  0  0  0  0  0  0  0  0
  -27.9030  -24.5210   18.9600 C   0  0  0  0  0  2  0  0  0  0  0  0
  -28.2310  -25.9430   19.7530 O   0  0  0  0  0  0  0  0  0  0  0  0
  -24.6920  -31.8760   23.0570 C   0  0  0  0  0  0  0  0  0  0  0  0
  -27.2560  -27.0250   19.8710 C   0  0  0  0  0  0  0  0  0  0  0  0
  -23.5160  -30.4320   21.4670 C   0  0  0  0  0  3  0  0  0  0  0  0
  -24.9650  -28.8580   20.0430 C   0  0  0  0  0  0  0  0  0  0  0  0
  -26.1030  -30.6660   21.2930 C   0  0  0  0  0  2  0  0  0  0  0  0
  -26.1740  -29.2580   20.6150 C   0  0  0  0  0  0  0  0  0  0  0  0
  -27.3210  -28.3410   20.5490 C   0  0  0  0  0  3  0  0  0  0  0  0
  -25.9960  -26.8010   19.3180 C   0  0  0  0  0  3  0  0  0  0  0  0
  -24.8890  -27.6430   19.3930 C   0  0  0  0  0  3  0  0  0  0  0  0
  -23.7480  -29.7600   20.0820 C   0  0  0  0  0  2  0  0  0  0  0  0
  -24.7960  -31.0180   21.9840 N   0  0  0  0  0  0  0  0  0  0  0  0
  -23.5990  -32.1540   23.5760 O   0  0  0  0  0  0  0  0  0  0  0  0
  -22.8530  -29.4340   22.4450 C   0  0  0  0  0  0  0  0  0  0  0  0
  -21.5250  -29.2620   22.3490 N   0  0  0  0  0  0  0  0  0  0  0  0
  -23.5460  -28.8120   23.2550 O   0  0  0  0  0  0  0  0  0  0  0  0
  -21.0100  -29.8320   21.6850 H   0  0  0  0  0  0  0  0  0  0  0  0
  -18.1510  -28.0350   22.9550 C   0  0  0  0  0  0  0  0  0  0  0  0
  -20.7230  -28.3240   23.1520 C   0  0  0  0  0  3  0  0  0  0  0  0
  -20.8140  -26.8890   22.5870 C   0  0  0  0  0  2  0  0  0  0  0  0
  -19.6850  -26.5480   21.6020 C   0  0  0  0  0  2  0  0  0  0  0  0
  -18.3230  -26.6830   22.2820 C   0  0  0  0  0  2  0  0  0  0  0  0
  -19.2780  -28.8060   23.3540 C   0  0  0  0  0  0  0  0  0  0  0  0
  -19.0590  -30.0700   23.9470 C   0  0  0  0  0  3  0  0  0  0  0  0
  -17.7510  -30.5580   24.1500 C   0  0  0  0  0  3  0  0  0  0  0  0
  -16.6460  -29.7820   23.7740 C   0  0  0  0  0  3  0  0  0  0  0  0
  -16.8460  -28.5240   23.1810 C   0  0  0  0  0  3  0  0  0  0  0  0
  -25.9630  -32.5570   23.6590 C   0  0  0  0  0  3  0  0  0  0  0  0
  -25.5960  -33.9320   24.0340 N   0  0  0  0  0  0  0  0  0  0  0  0
  -25.9170  -35.0290   23.3400 C   0  0  0  0  0  0  0  0  0  0  0  0
  -26.6210  -34.9910   22.3290 O   0  0  0  0  0  0  0  0  0  0  0  0
  -24.9770  -34.0360   24.8210 H   0  0  0  0  0  0  0  0  0  0  0  0
  -24.1670  -36.8070   23.0230 C   0  0  0  0  0  1  0  0  0  0  0  0
  -25.3840  -36.3760   23.8520 C   0  0  0  0  0  3  0  0  0  0  0  0
  -27.4670  -37.2720   24.8050 C   0  0  0  0  0  1  0  0  0  0  0  0
  -26.3890  -37.4600   23.8390 N   0  0  0  0  0  0  0  0  0  0  0  0
  -25.9520  -38.3610   24.0230 H   0  0  0  0  0  0  0  0  0  0  0  0
  -26.5270  -31.7850   24.9130 C   0  0  1  0  0  0  0  0  0  0  0  0
  -25.4760  -31.5140   26.0110 C   0  0  0  0  0  1  0  0  0  0  0  0
  -27.1520  -30.4290   24.5160 C   0  0  0  0  0  1  0  0  0  0  0  0
  -27.6670  -32.6140   25.5680 C   0  0  0  0  0  1  0  0  0  0  0  0
  1  9  2  0
  2  3  1  0
  5  4  1  0
  5  7  1  0
  6  4  1  0
  6  2  1  0
  6  8  1  0
  7  3  1  0
  8  7  1  0
  8  1  1  0
 10 12  1  0
 11 10  1  0
 11 12  1  0
 11  5  1  0
 12 21  1  0
 13 19  1  0
 13 20  2  0
 14 19  1  0
 15 14  1  0
 16 15  1  0
 17 16  1  0
 17 26  1  0
 17 18  1  0
 19 18  1  0
 21 13  1  0
 22 21  1  0
 23 24  2  0
 24 25  1  0
 25 28  1  0
 26 23  1  0
 26 27  1  0
 27 25  2  0
 28 29  1  0
 29 30  2  0
 31 34  1  0
 31 30  1  0
 32 31  2  0
 33 32  1  0
 33 28  2  0
 34 35  1  0
 35 36  1  0
 36 37  2  0
 38 37  1  0
 38 42  1  0
 39 38  2  0
 40 35  2  0
 40 39  1  0
 41 40  1  0
 43 24  1  0
 43 44  1  0
 44 47  1  0
 44 46  1  0
 45 43  2  0
 48 49  1  0
 48 23  1  0
 50 48  1  0
 51  1  1  0
 51 52  1  0
 52 54  1  0
 53 64  2  0
 54 59  1  0
 55 63  1  0
 55 65  1  0
 56 62  1  0
 56 58  1  0
 57 63  1  0
 58 57  1  0
 59 58  2  0
 60 61  1  0
 60 54  2  0
 61 56  2  0
 62 55  1  0
 63 53  1  0
 65 67  2  0
 66 65  1  0
 68 66  1  0
 69 78  2  0
 69 74  1  0
 70 66  1  0
 70 74  1  0
 71 70  1  0
 72 73  1  0
 72 71  1  0
 73 69  1  0
 74 75  2  0
 75 76  1  0
 77 76  2  0
 78 77  1  0
 79 53  1  0
 79 80  1  0
 79 89  1  0
 80 83  1  0
 81 85  1  0
 81 80  1  0
 82 81  2  0
 85 84  1  0
 87 85  1  0
 87 88  1  0
 87 86  1  0
 89 92  1  1
 89 90  1  0
 91 89  1  0
M  ISO  4  13 100  21 100  51 101  52 101
M  END
>  <TORSDO>  (44) 
F 18

>  <SCORE>  (44) 
-14.488

>  <name>  (44) 
43

>  <ligand_id>  (44) 
43

>  <original_smiles>  (44) 
[H]c1c([H])c([H])c2c(c1[H])C([H])([H])C([H])([H])C([H])([H])C2([H])N([H])C(=O)C1([H])N(C(=O)C([H])(N([H])C(=O)C([H])(N([H])C([H])([H])[H])C([H])([H])[H])C(C([H])([H])[H])(C([H])([H])[H])C([H])([H])[H])C([H])([H])c2c([H])c(OC([H])([H])C(=O)N3C4([H])C([H])([H])C([H])([H])C3([H])C([H])(C3([H])C([H])([H])C3([H])N([H])C(=O)N3C([H])([H])C([H])([H])C([H])([H])C([H])(n5nc(-c6c([H])c([H])c(Oc7c([H])c([H])c(F)c([H])c7F)c([H])c6[H])c(C(=O)N([H])[H])c5N([H])[H])C3([H])[H])C4([H])[H])c([H])c([H])c2C1([H])[H]

>  <smiles>  (44) 
[H]c1c([H])c([H])c2c(c1[H])C([H])([H])C([H])([H])C([H])([H])C2([H])N([H])C(=O)C1([H])N(C(=O)C([H])(N([H])C(=O)C([H])(N([H])C([H])([H])[H])C([H])([H])[H])C(C([H])([H])[H])(C([H])([H])[H])C([H])([H])[H])C([H])([H])c2c([H])c(OC([H])([H])C(=O)N3C4([H])C([H])([H])C([H])([H])C3([H])C([H])(C3([H])C([H])([H])C3([H])N([H])C(=O)N3C([H])([H])C([H])([H])C([H])([H])C([H])(n5nc(-c6c([H])c([H])c(Oc7c([H])c([H])c(F)c([H])c7F)c([H])c6[H])c(C(=O)N([H])[H])c5N([H])[H])C3([H])[H])C4([H])[H])c([H])c([H])c2C1([H])[H]

$$$$
44:0:0
     RDKit          3D

 97106  0  0  1  0  0  0  0  0999 V2000
  -29.6880  -23.6220   19.5850 C   0  0  0  0  0  0  0  0  0  0  0  0
  -29.7500  -24.5200   18.5970 N   0  0  0  0  0  0  0  0  0  0  0  0
  -29.9590  -23.8870   20.7580 O   0  0  0  0  0  0  0  0  0  0  0  0
  -29.4960  -24.2010   17.6720 H   0  0  0  0  0  0  0  0  0  0  0  0
  -30.4820  -21.2770   18.9290 C   0  0  0  0  0  2  0  0  0  0  0  0
  -28.0390  -19.9650   20.0750 C   0  0  0  0  0  2  0  0  0  0  0  0
  -29.2750  -22.2000   19.1720 C   0  0  0  0  0  3  0  0  0  0  0  0
  -28.8120  -21.2650   20.3120 C   0  0  0  0  0  3  0  0  0  0  0  0
  -30.0910  -20.4490   20.1650 C   0  0  0  0  0  3  0  0  0  0  0  0
  -29.3010  -19.2400   19.9080 N   0  0  1  0  0  4  0  0  0  0  0  0
  -29.4050  -18.9370   18.9500 H   0  0  0  0  0  0  0  0  0  0  0  0
  -29.5220  -18.1080   20.8410 C   0  0  0  0  0  2  0  0  0  0  0  0
  -30.9430  -17.5130   20.7210 C   0  0  0  0  0  2  0  0  0  0  0  0
  -31.1930  -16.2810   21.6160 C   0  0  0  0  0  2  0  0  0  0  0  0
  -30.8670  -14.2790   20.1690 C   0  0  0  0  0  0  0  0  0  0  0  0
  -30.3940  -12.2170   18.9020 C   0  0  0  0  0  2  0  0  0  0  0  0
  -29.3920  -12.4730   17.7620 C   0  0  0  0  0  2  0  0  0  0  0  0
  -27.9440  -12.3520   18.2720 C   0  0  0  0  0  2  0  0  0  0  0  0
  -27.6970  -13.1760   19.5640 C   0  0  0  0  0  3  0  0  0  0  0  0
  -28.8000  -12.9000   20.6100 C   0  0  0  0  0  2  0  0  0  0  0  0
  -30.1110  -13.1670   19.9900 N   0  0  0  0  0  0  0  0  0  0  0  0
  -31.8600  -14.5430   19.4880 O   0  0  0  0  0  0  0  0  0  0  0  0
  -30.4760  -15.0870   21.1650 N   0  0  0  0  0  0  0  0  0  0  0  0
  -29.6730  -14.7870   21.7020 H   0  0  0  0  0  0  0  0  0  0  0  0
  -25.3490  -13.8250   20.4010 C   0  0  0  0  0  0  0  0  0  0  0  0
  -24.2860  -13.0680   20.8180 C   0  0  0  0  0  0  0  0  0  0  0  0
  -24.7180  -11.7090   20.7470 C   0  0  0  0  0  0  0  0  0  0  0  0
  -26.3640  -12.9260   20.1070 N   0  0  0  0  0  0  0  0  0  0  0  0
  -25.9880  -11.6480   20.3690 N   0  0  0  0  0  0  0  0  0  0  0  0
  -23.9780  -10.4580   20.9600 C   0  0  0  0  0  0  0  0  0  0  0  0
  -24.4230   -9.4860   21.8830 C   0  0  0  0  0  3  0  0  0  0  0  0
  -23.6850   -8.3000   22.0840 C   0  0  0  0  0  3  0  0  0  0  0  0
  -22.4880   -8.0780   21.3610 C   0  0  0  0  0  0  0  0  0  0  0  0
  -22.0620   -9.0390   20.4290 C   0  0  0  0  0  3  0  0  0  0  0  0
  -22.8000  -10.2170   20.2250 C   0  0  0  0  0  3  0  0  0  0  0  0
  -21.7190   -6.9440   21.4720 O   0  0  0  0  0  0  0  0  0  0  0  0
  -21.6790   -6.2120   22.6320 C   0  0  0  0  0  0  0  0  0  0  0  0
  -21.2760   -6.7820   23.8590 C   0  0  0  0  0  3  0  0  0  0  0  0
  -21.1820   -5.9770   25.0120 C   0  0  0  0  0  3  0  0  0  0  0  0
  -21.4830   -4.6030   24.9390 C   0  0  0  0  0  0  0  0  0  0  0  0
  -21.8790   -4.0340   23.7170 C   0  0  0  0  0  3  0  0  0  0  0  0
  -21.9740   -4.8350   22.5660 C   0  0  0  0  0  0  0  0  0  0  0  0
  -22.3360   -4.2770   21.3860 F   0  0  0  0  0  0  0  0  0  0  0  0
  -21.3850   -3.8280   26.0440 F   0  0  0  0  0  0  0  0  0  0  0  0
  -22.9160  -13.5690   21.1710 C   0  0  0  0  0  0  0  0  0  0  0  0
  -22.2200  -12.8740   22.0650 N   0  0  0  0  0  0  0  0  0  0  0  0
  -22.4710  -14.6110   20.6910 O   0  0  0  0  0  0  0  0  0  0  0  0
  -22.5930  -12.0300   22.4750 H   0  0  0  0  0  0  0  0  0  0  0  0
  -21.3020  -13.1900   22.3430 H   0  0  0  0  0  0  0  0  0  0  0  0
  -25.5330  -15.1930   20.2310 N   0  0  0  0  0  0  0  0  0  0  0  0
  -24.7830  -15.8600   20.3800 H   0  0  0  0  0  0  0  0  0  0  0  0
  -26.3700  -15.6150   19.8480 H   0  0  0  0  0  0  0  0  0  0  0  0
  -30.2100  -25.9050   18.7080 C   0  0  0  0  0  3  0  0  0  0  0  0
  -32.3410  -25.3740   17.3500 C   0  0  0  0  0  1  0  0  0  0  0  0
  -31.0910  -26.2550   17.4910 C   0  0  0  0  0  2  0  0  0  0  0  0
  -29.0110  -26.8630   18.8090 C   0  0  0  0  0  2  0  0  0  0  0  0
  -28.4140  -26.7910   20.1010 O   0  0  0  0  0  0  0  0  0  0  0  0
  -24.5970  -31.9010   23.2710 C   0  0  0  0  0  0  0  0  0  0  0  0
  -27.2390  -27.4890   20.1700 C   0  0  0  0  0  0  0  0  0  0  0  0
  -23.3860  -30.4990   21.6300 C   0  0  0  0  0  3  0  0  0  0  0  0
  -24.8350  -28.9560   20.2110 C   0  0  0  0  0  0  0  0  0  0  0  0
  -25.9080  -30.8610   21.4270 C   0  0  0  0  0  2  0  0  0  0  0  0
  -25.9910  -29.4890   20.7960 C   0  0  0  0  0  0  0  0  0  0  0  0
  -27.1960  -28.7560   20.7880 C   0  0  0  0  0  3  0  0  0  0  0  0
  -26.0680  -26.9510   19.5990 C   0  0  0  0  0  3  0  0  0  0  0  0
  -24.8650  -27.6810   19.6160 C   0  0  0  0  0  3  0  0  0  0  0  0
  -23.5910  -29.8120   20.2540 C   0  0  0  0  0  2  0  0  0  0  0  0
  -24.6490  -31.1010   22.1680 N   0  0  0  0  0  0  0  0  0  0  0  0
  -23.5170  -32.1770   23.8120 O   0  0  0  0  0  0  0  0  0  0  0  0
  -22.7370  -29.4790   22.5930 C   0  0  0  0  0  0  0  0  0  0  0  0
  -21.4150  -29.2920   22.4600 N   0  0  0  0  0  0  0  0  0  0  0  0
  -23.4210  -28.8610   23.4130 O   0  0  0  0  0  0  0  0  0  0  0  0
  -20.9260  -29.8440   21.7680 H   0  0  0  0  0  0  0  0  0  0  0  0
  -18.0440  -28.0880   22.9440 C   0  0  0  0  0  0  0  0  0  0  0  0
  -20.5990  -28.3540   23.2290 C   0  0  0  0  0  3  0  0  0  0  0  0
  -20.7090  -26.9210   22.6590 C   0  0  0  0  0  2  0  0  0  0  0  0
  -19.6130  -26.5920   21.6390 C   0  0  0  0  0  2  0  0  0  0  0  0
  -18.2280  -26.7370   22.2750 C   0  0  0  0  0  2  0  0  0  0  0  0
  -19.1580  -28.8540   23.3780 C   0  0  0  0  0  0  0  0  0  0  0  0
  -18.9340  -30.1210   23.9610 C   0  0  0  0  0  3  0  0  0  0  0  0
  -17.6280  -30.6200   24.1160 C   0  0  0  0  0  3  0  0  0  0  0  0
  -16.5270  -29.8510   23.6980 C   0  0  0  0  0  3  0  0  0  0  0  0
  -16.7370  -28.5870   23.1200 C   0  0  0  0  0  3  0  0  0  0  0  0
  -25.8860  -32.5290   23.8880 C   0  0  0  0  0  3  0  0  0  0  0  0
  -25.5850  -33.9320   24.2020 N   0  0  0  0  0  0  0  0  0  0  0  0
  -25.9400  -34.9760   23.4390 C   0  0  0  0  0  0  0  0  0  0  0  0
  -26.6270  -34.8580   22.4210 O   0  0  0  0  0  0  0  0  0  0  0  0
  -24.9710  -34.0980   24.9870 H   0  0  0  0  0  0  0  0  0  0  0  0
  -24.2410  -36.7860   23.0320 C   0  0  0  0  0  1  0  0  0  0  0  0
  -25.4560  -36.3720   23.8760 C   0  0  0  0  0  3  0  0  0  0  0  0
  -27.5790  -37.2360   24.7580 C   0  0  0  0  0  1  0  0  0  0  0  0
  -26.5040  -37.4120   23.7860 N   0  0  0  0  0  0  0  0  0  0  0  0
  -26.1050  -38.3370   23.9190 H   0  0  0  0  0  0  0  0  0  0  0  0
  -26.3990  -31.7640   25.1700 C   0  0  1  0  0  0  0  0  0  0  0  0
  -25.3050  -31.5350   26.2380 C   0  0  0  0  0  1  0  0  0  0  0  0
  -26.9770  -30.3820   24.7850 C   0  0  0  0  0  1  0  0  0  0  0  0
  -27.5520  -32.5580   25.8270 C   0  0  0  0  0  1  0  0  0  0  0  0
  1  3  2  0
  2 53  1  0
  2  1  1  0
  4  2  1  0
  5  7  1  0
  7  1  1  0
  7  8  1  0
  8  6  1  0
  9  5  1  0
  9  8  1  0
 10  6  1  0
 10  9  1  0
 10 12  1  0
 10 11  1  6
 13 12  1  0
 13 14  1  0
 15 23  1  0
 16 21  1  0
 17 18  1  0
 17 16  1  0
 19 18  1  0
 19 28  1  0
 19 20  1  0
 21 15  1  0
 21 20  1  0
 22 15  2  0
 23 14  1  0
 23 24  1  0
 25 26  2  0
 26 45  1  0
 27 26  1  0
 27 30  1  0
 28 29  1  0
 28 25  1  0
 29 27  2  0
 30 31  1  0
 31 32  2  0
 33 36  1  0
 33 32  1  0
 34 33  2  0
 35 34  1  0
 35 30  2  0
 36 37  1  0
 37 38  1  0
 38 39  2  0
 40 39  1  0
 40 44  1  0
 41 40  2  0
 42 37  2  0
 42 41  1  0
 43 42  1  0
 45 46  1  0
 46 49  1  0
 46 48  1  0
 47 45  2  0
 50 51  1  0
 50 25  1  0
 52 50  1  0
 53 55  1  0
 53 56  1  0
 54 55  1  0
 56 57  1  0
 57 59  1  0
 58 69  2  0
 59 64  1  0
 60 68  1  0
 60 70  1  0
 61 67  1  0
 61 63  1  0
 62 68  1  0
 63 62  1  0
 64 63  2  0
 65 66  1  0
 65 59  2  0
 66 61  2  0
 67 60  1  0
 68 58  1  0
 70 72  2  0
 71 70  1  0
 73 71  1  0
 74 83  2  0
 74 79  1  0
 75 71  1  0
 75 79  1  0
 76 75  1  0
 77 78  1  0
 77 76  1  0
 78 74  1  0
 79 80  2  0
 80 81  1  0
 82 81  2  0
 83 82  1  0
 84 58  1  0
 84 85  1  0
 84 94  1  0
 85 88  1  0
 86 90  1  0
 86 85  1  0
 87 86  2  0
 90 89  1  0
 92 90  1  0
 92 93  1  0
 92 91  1  0
 94 97  1  1
 94 95  1  0
 96 94  1  0
M  ISO  4  15 100  23 100  56 101  57 101
M  END
>  <TORSDO>  (45) 
F 23

>  <SCORE>  (45) 
-12.812

>  <name>  (45) 
44

>  <ligand_id>  (45) 
44

>  <original_smiles>  (45) 
[H]c1c([H])c([H])c2c(c1[H])C([H])([H])C([H])([H])C([H])([H])C2([H])N([H])C(=O)C1([H])N(C(=O)C([H])(N([H])C(=O)C([H])(N([H])C([H])([H])[H])C([H])([H])[H])C(C([H])([H])[H])(C([H])([H])[H])C([H])([H])[H])C([H])([H])c2c([H])c(OC([H])([H])C([H])(N([H])C(=O)C3([H])C([H])([H])C4([H])C3([H])C([H])([H])[N+]4([H])C([H])([H])C([H])([H])C([H])([H])N([H])C(=O)N3C([H])([H])C([H])([H])C([H])([H])C([H])(n4nc(-c5c([H])c([H])c(Oc6c([H])c([H])c(F)c([H])c6F)c([H])c5[H])c(C(=O)N([H])[H])c4N([H])[H])C3([H])[H])C([H])([H])C([H])([H])[H])c([H])c([H])c2C1([H])[H]

>  <smiles>  (45) 
[H]c1c([H])c([H])c2c(c1[H])C([H])([H])C([H])([H])C([H])([H])C2([H])N([H])C(=O)C1([H])N(C(=O)C([H])(N([H])C(=O)C([H])(N([H])C([H])([H])[H])C([H])([H])[H])C(C([H])([H])[H])(C([H])([H])[H])C([H])([H])[H])C([H])([H])c2c([H])c(OC([H])([H])C([H])(N([H])C(=O)C3([H])C([H])([H])C4([H])C3([H])C([H])([H])[N+]4([H])C([H])([H])C([H])([H])C([H])([H])N([H])C(=O)N3C([H])([H])C([H])([H])C([H])([H])C([H])(n4nc(-c5c([H])c([H])c(Oc6c([H])c([H])c(F)c([H])c6F)c([H])c5[H])c(C(=O)N([H])[H])c4N([H])[H])C3([H])[H])C([H])([H])C([H])([H])[H])c([H])c([H])c2C1([H])[H]

$$$$
45:0:0
     RDKit          3D

 97105  0  0  1  0  0  0  0  0999 V2000
  -29.5730  -22.4430   22.1870 C   0  0  0  0  0  2  0  0  0  0  0  0
  -30.3500  -21.1150   22.2030 C   0  0  0  0  0  2  0  0  0  0  0  0
  -30.3940  -23.3320   21.2350 C   0  0  0  0  0  3  0  0  0  0  0  0
  -30.9090  -20.9480   20.7780 C   0  0  0  0  0  3  0  0  0  0  0  0
  -30.9370  -22.3590   20.2410 N   0  0  0  0  0  4  0  0  0  0  0  0
  -31.8580  -22.6510   19.9550 H   0  0  0  0  0  0  0  0  0  0  0  0
  -30.3510  -22.4490   19.4270 H   0  0  0  0  0  0  0  0  0  0  0  0
  -29.6190  -24.4830   20.4640 C   0  0  0  0  0  0  0  0  0  0  0  0
  -29.5800  -24.4720   19.2280 O   0  0  0  0  0  0  0  0  0  0  0  0
  -28.9320  -25.6760   21.2120 C   0  0  0  0  0  2  0  0  0  0  0  0
  -28.8440  -26.9030   20.4090 O   0  0  0  0  0  0  0  0  0  0  0  0
  -24.7120  -32.0030   23.3220 C   0  0  0  0  0  0  0  0  0  0  0  0
  -27.6500  -27.6150   20.4090 C   0  0  0  0  0  0  0  0  0  0  0  0
  -23.6210  -30.5540   21.6330 C   0  0  0  0  0  3  0  0  0  0  0  0
  -25.1970  -29.0620   20.2710 C   0  0  0  0  0  0  0  0  0  0  0  0
  -26.1430  -30.9950   21.5490 C   0  0  0  0  0  2  0  0  0  0  0  0
  -26.3080  -29.6240   20.9150 C   0  0  0  0  0  0  0  0  0  0  0  0
  -27.5360  -28.9140   20.9730 C   0  0  0  0  0  3  0  0  0  0  0  0
  -26.5220  -27.0810   19.7490 C   0  0  0  0  0  3  0  0  0  0  0  0
  -25.3050  -27.7920   19.6730 C   0  0  0  0  0  3  0  0  0  0  0  0
  -23.9190  -29.8760   20.2650 C   0  0  0  0  0  2  0  0  0  0  0  0
  -24.8360  -31.2050   22.2220 N   0  0  0  0  0  0  0  0  0  0  0  0
  -23.6010  -32.2380   23.8200 O   0  0  0  0  0  0  0  0  0  0  0  0
  -22.9660  -29.5160   22.5760 C   0  0  0  0  0  0  0  0  0  0  0  0
  -21.6470  -29.3140   22.4300 N   0  0  0  0  0  0  0  0  0  0  0  0
  -23.6440  -28.8900   23.3920 O   0  0  0  0  0  0  0  0  0  0  0  0
  -21.1570  -29.8700   21.7450 H   0  0  0  0  0  0  0  0  0  0  0  0
  -18.2780  -28.0880   22.9050 C   0  0  0  0  0  0  0  0  0  0  0  0
  -20.8340  -28.3570   23.1810 C   0  0  0  0  0  3  0  0  0  0  0  0
  -20.9460  -26.9410   22.5740 C   0  0  0  0  0  2  0  0  0  0  0  0
  -19.8470  -26.6340   21.5520 C   0  0  0  0  0  2  0  0  0  0  0  0
  -18.4630  -26.7560   22.1980 C   0  0  0  0  0  2  0  0  0  0  0  0
  -19.3920  -28.8480   23.3500 C   0  0  0  0  0  0  0  0  0  0  0  0
  -19.1620  -30.0950   23.9710 C   0  0  0  0  0  3  0  0  0  0  0  0
  -17.8530  -30.5840   24.1460 C   0  0  0  0  0  3  0  0  0  0  0  0
  -16.7550  -29.8210   23.7150 C   0  0  0  0  0  3  0  0  0  0  0  0
  -16.9670  -28.5750   23.0990 C   0  0  0  0  0  3  0  0  0  0  0  0
  -25.9520  -32.6800   23.9860 C   0  0  0  0  0  3  0  0  0  0  0  0
  -26.4340  -31.9510   25.2990 C   0  0  1  0  0  0  0  0  0  0  0  0
  -25.2970  -31.6950   26.3140 C   0  0  0  0  0  1  0  0  0  0  0  0
  -27.0820  -30.5840   24.9700 C   0  0  0  0  0  1  0  0  0  0  0  0
  -27.5250  -32.7950   25.9980 C   0  0  0  0  0  1  0  0  0  0  0  0
  -25.6000  -34.0780   24.2670 N   0  0  0  0  0  0  0  0  0  0  0  0
  -25.9370  -35.1150   23.4900 C   0  0  0  0  0  0  0  0  0  0  0  0
  -26.6480  -35.0030   22.4870 O   0  0  0  0  0  0  0  0  0  0  0  0
  -24.9790  -34.2440   25.0450 H   0  0  0  0  0  0  0  0  0  0  0  0
  -24.1810  -36.8530   23.0250 C   0  0  0  0  0  1  0  0  0  0  0  0
  -25.4020  -36.5040   23.8910 C   0  0  0  0  0  3  0  0  0  0  0  0
  -27.4850  -37.4610   24.7720 C   0  0  0  0  0  1  0  0  0  0  0  0
  -26.4110  -37.5800   23.7880 N   0  0  0  0  0  0  0  0  0  0  0  0
  -25.9800  -38.4930   23.8950 H   0  0  0  0  0  0  0  0  0  0  0  0
  -30.1330  -19.9670   19.8060 C   0  0  0  0  0  2  0  0  0  0  0  0
  -29.8540  -18.4080   20.0170 C   0  0  0  0  0  3  0  0  0  0  0  0
  -31.0370  -17.4580   20.4750 C   0  0  0  0  0  2  0  0  0  0  0  0
  -31.3500  -14.8970   20.2370 C   0  0  0  0  0  0  0  0  0  0  0  0
  -31.0690  -12.5910   19.3610 C   0  0  0  0  0  2  0  0  0  0  0  0
  -30.1690  -12.6350   18.1070 C   0  0  0  0  0  2  0  0  0  0  0  0
  -28.6780  -12.5670   18.4960 C   0  0  0  0  0  2  0  0  0  0  0  0
  -28.3130  -13.5520   19.6390 C   0  0  0  0  0  3  0  0  0  0  0  0
  -29.3290  -13.4790   20.8010 C   0  0  0  0  0  2  0  0  0  0  0  0
  -30.6690  -13.7080   20.2400 N   0  0  0  0  0  0  0  0  0  0  0  0
  -32.4820  -14.9910   19.7600 O   0  0  0  0  0  0  0  0  0  0  0  0
  -30.6620  -16.0060   20.6400 N   0  0  0  0  0  0  0  0  0  0  0  0
  -29.7640  -15.8140   21.0530 H   0  0  0  0  0  0  0  0  0  0  0  0
  -25.9630  -14.3040   20.3680 C   0  0  0  0  0  0  0  0  0  0  0  0
  -24.8360  -13.6050   20.7080 C   0  0  0  0  0  0  0  0  0  0  0  0
  -25.1930  -12.2250   20.6400 C   0  0  0  0  0  0  0  0  0  0  0  0
  -26.9390  -13.3550   20.1070 N   0  0  0  0  0  0  0  0  0  0  0  0
  -26.4790  -12.0940   20.3300 N   0  0  0  0  0  0  0  0  0  0  0  0
  -24.3690  -11.0180   20.8070 C   0  0  0  0  0  0  0  0  0  0  0  0
  -24.7230   -9.9990   21.7160 C   0  0  0  0  0  3  0  0  0  0  0  0
  -23.9030   -8.8570   21.8670 C   0  0  0  0  0  3  0  0  0  0  0  0
  -22.7160   -8.7290   21.1050 C   0  0  0  0  0  0  0  0  0  0  0  0
  -22.3820   -9.7380   20.1850 C   0  0  0  0  0  3  0  0  0  0  0  0
  -23.2020  -10.8680   20.0310 C   0  0  0  0  0  3  0  0  0  0  0  0
  -21.8710   -7.6450   21.1680 O   0  0  0  0  0  0  0  0  0  0  0  0
  -21.7500   -6.8960   22.3110 C   0  0  0  0  0  0  0  0  0  0  0  0
  -21.3680   -7.4730   23.5450 C   0  0  0  0  0  3  0  0  0  0  0  0
  -21.1820   -6.6570   24.6760 C   0  0  0  0  0  3  0  0  0  0  0  0
  -21.3660   -5.2630   24.5810 C   0  0  0  0  0  0  0  0  0  0  0  0
  -21.7420   -4.6870   23.3540 C   0  0  0  0  0  3  0  0  0  0  0  0
  -21.9290   -5.5010   22.2230 C   0  0  0  0  0  0  0  0  0  0  0  0
  -22.2700   -4.9350   21.0410 F   0  0  0  0  0  0  0  0  0  0  0  0
  -21.1780   -4.4790   25.6680 F   0  0  0  0  0  0  0  0  0  0  0  0
  -23.4810  -14.1860   20.9880 C   0  0  0  0  0  0  0  0  0  0  0  0
  -22.6960  -13.5420   21.8490 N   0  0  0  0  0  0  0  0  0  0  0  0
  -23.1180  -15.2390   20.4710 O   0  0  0  0  0  0  0  0  0  0  0  0
  -22.9950  -12.6930   22.3040 H   0  0  0  0  0  0  0  0  0  0  0  0
  -21.7850  -13.9170   22.0640 H   0  0  0  0  0  0  0  0  0  0  0  0
  -26.2420  -15.6620   20.2440 N   0  0  0  0  0  0  0  0  0  0  0  0
  -25.5210  -16.3670   20.3510 H   0  0  0  0  0  0  0  0  0  0  0  0
  -27.1230  -16.0230   19.9030 H   0  0  0  0  0  0  0  0  0  0  0  0
  -28.5250  -18.1210   20.7800 C   0  0  0  0  0  2  0  0  0  0  0  0
  -27.3110  -18.5840   20.0650 N   0  0  0  0  0  4  0  0  0  0  0  0
  -27.1370  -17.9980   19.2690 H   0  0  0  0  0  0  0  0  0  0  0  0
  -27.3790  -19.5370   19.7600 H   0  0  0  0  0  0  0  0  0  0  0  0
  -26.5070  -18.5200   20.6650 H   0  0  0  0  0  0  0  0  0  0  0  0
  1  2  1  0
  3  8  1  0
  3  1  1  0
  4 52  1  0
  4  2  1  0
  5  4  1  0
  5  3  1  0
  6  5  1  0
  7  5  1  0
  8 10  1  0
  9  8  2  0
 11 10  1  0
 12 23  2  0
 13 11  1  0
 13 18  1  0
 14 22  1  0
 14 24  1  0
 15 17  1  0
 16 22  1  0
 17 18  2  0
 17 16  1  0
 19 13  2  0
 20 19  1  0
 20 15  2  0
 21 15  1  0
 21 14  1  0
 22 12  1  0
 24 26  2  0
 25 24  1  0
 27 25  1  0
 28 37  2  0
 28 33  1  0
 29 25  1  0
 29 33  1  0
 30 29  1  0
 31 32  1  0
 31 30  1  0
 32 28  1  0
 33 34  2  0
 34 35  1  0
 36 35  2  0
 37 36  1  0
 38 12  1  0
 38 43  1  0
 38 39  1  0
 39 42  1  1
 39 40  1  0
 41 39  1  0
 43 46  1  0
 44 48  1  0
 44 43  1  0
 45 44  2  0
 48 47  1  0
 50 48  1  0
 50 51  1  0
 50 49  1  0
 53 52  1  0
 53 54  1  0
 53 93  1  0
 54 63  1  0
 55 61  1  0
 55 63  1  0
 56 61  1  0
 57 58  1  0
 57 56  1  0
 59 58  1  0
 59 68  1  0
 59 60  1  0
 61 60  1  0
 62 55  2  0
 63 64  1  0
 65 66  2  0
 66 85  1  0
 67 66  1  0
 67 70  1  0
 68 69  1  0
 68 65  1  0
 69 67  2  0
 70 71  1  0
 71 72  2  0
 73 76  1  0
 73 72  1  0
 74 73  2  0
 75 74  1  0
 75 70  2  0
 76 77  1  0
 77 78  1  0
 78 79  2  0
 80 79  1  0
 80 84  1  0
 81 80  2  0
 82 77  2  0
 82 81  1  0
 83 82  1  0
 85 86  1  0
 86 89  1  0
 86 88  1  0
 87 85  2  0
 90 91  1  0
 90 65  1  0
 92 90  1  0
 94 97  1  0
 94 93  1  0
 95 94  1  0
 96 94  1  0
M  ISO  4  10 101  11 101  55 100  63 100
M  END
>  <TORSDO>  (46) 
F 23

>  <SCORE>  (46) 
-12.493

>  <name>  (46) 
45

>  <ligand_id>  (46) 
45

>  <original_smiles>  (46) 
[H]c1c([H])c([H])c2c(c1[H])C([H])([H])C([H])([H])C([H])([H])C2([H])N([H])C(=O)C1([H])N(C(=O)C([H])(N([H])C(=O)C([H])(N([H])C([H])([H])[H])C([H])([H])[H])C(C([H])([H])[H])(C([H])([H])[H])C([H])([H])[H])C([H])([H])c2c([H])c(OC([H])([H])C(=O)C3([H])C([H])([H])C([H])([H])C([H])(C([H])([H])C([H])(C([H])([H])N([H])C(=O)N4C([H])([H])C([H])([H])C([H])([H])C([H])(n5nc(-c6c([H])c([H])c(Oc7c([H])c([H])c(F)c([H])c7F)c([H])c6[H])c(C(=O)N([H])[H])c5N([H])[H])C4([H])[H])C([H])([H])[N+]([H])([H])[H])[N+]3([H])[H])c([H])c([H])c2C1([H])[H]

>  <smiles>  (46) 
[H]c1c([H])c([H])c2c(c1[H])C([H])([H])C([H])([H])C([H])([H])C2([H])N([H])C(=O)C1([H])N(C(=O)C([H])(N([H])C(=O)C([H])(N([H])C([H])([H])[H])C([H])([H])[H])C(C([H])([H])[H])(C([H])([H])[H])C([H])([H])[H])C([H])([H])c2c([H])c(OC([H])([H])C(=O)C3([H])C([H])([H])C([H])([H])C([H])(C([H])([H])C([H])(C([H])([H])N([H])C(=O)N4C([H])([H])C([H])([H])C([H])([H])C([H])(n5nc(-c6c([H])c([H])c(Oc7c([H])c([H])c(F)c([H])c7F)c([H])c6[H])c(C(=O)N([H])[H])c5N([H])[H])C4([H])[H])C([H])([H])[N+]([H])([H])[H])[N+]3([H])[H])c([H])c([H])c2C1([H])[H]

$$$$
46:0:0
     RDKit          3D

 97108  0  0  1  0  0  0  0  0999 V2000
  -31.0250  -22.8700   20.2090 C   0  0  0  0  0  2  0  0  0  0  0  0
  -28.6130  -23.0700   22.1820 C   0  0  0  0  0  2  0  0  0  0  0  0
  -31.4370  -23.8300   21.3320 C   0  0  0  0  0  2  0  0  0  0  0  0
  -28.6190  -21.9810   21.0970 C   0  0  0  0  0  3  0  0  0  0  0  0
  -29.4980  -22.9100   20.2200 C   0  0  0  0  0  3  0  0  0  0  0  0
  -29.0820  -24.0790   21.1120 C   0  0  0  0  0  3  0  0  0  0  0  0
  -30.3330  -24.8160   21.4520 N   0  0  2  0  0  4  0  0  0  0  0  0
  -30.2870  -25.1280   22.4110 H   0  0  0  0  0  0  0  0  0  0  0  0
  -29.2900  -20.6470   21.4500 C   0  0  0  0  0  0  0  0  0  0  0  0
  -29.0450  -19.6310   20.6180 N   0  0  0  0  0  0  0  0  0  0  0  0
  -30.0740  -20.5570   22.3970 O   0  0  0  0  0  0  0  0  0  0  0  0
  -28.3720  -19.8060   19.8840 H   0  0  0  0  0  0  0  0  0  0  0  0
  -30.8580  -14.5190   19.9700 C   0  0  0  0  0  0  0  0  0  0  0  0
  -30.4860  -12.3290   18.9340 C   0  0  0  0  0  2  0  0  0  0  0  0
  -29.4860  -12.5340   17.7770 C   0  0  0  0  0  2  0  0  0  0  0  0
  -28.0340  -12.4110   18.2910 C   0  0  0  0  0  2  0  0  0  0  0  0
  -27.7690  -13.2590   19.5650 C   0  0  0  0  0  3  0  0  0  0  0  0
  -28.8970  -13.0800   20.6110 C   0  0  0  0  0  2  0  0  0  0  0  0
  -30.1800  -13.3440   19.9460 N   0  0  0  0  0  0  0  0  0  0  0  0
  -32.0340  -14.6170   19.6180 O   0  0  0  0  0  0  0  0  0  0  0  0
  -29.9030  -17.4180   21.5130 C   0  0  0  0  0  2  0  0  0  0  0  0
  -30.3000  -16.5650   18.6550 C   0  0  0  0  0  2  0  0  0  0  0  0
  -29.3820  -17.5010   19.4190 C   0  0  0  0  0  3  0  0  0  0  0  0
  -29.2260  -16.4520   20.5200 C   0  0  0  0  0  3  0  0  0  0  0  0
  -29.9530  -18.5030   20.4250 C   0  0  0  0  0  3  0  0  0  0  0  0
  -30.0560  -15.5640   19.6920 N   0  0  0  0  0  0  0  0  0  0  0  0
  -25.4310  -13.8570   20.4570 C   0  0  0  0  0  0  0  0  0  0  0  0
  -24.3840  -13.0830   20.8740 C   0  0  0  0  0  0  0  0  0  0  0  0
  -24.8280  -11.7290   20.7640 C   0  0  0  0  0  0  0  0  0  0  0  0
  -26.4520  -12.9770   20.1310 N   0  0  0  0  0  0  0  0  0  0  0  0
  -26.0940  -11.6910   20.3700 N   0  0  0  0  0  0  0  0  0  0  0  0
  -24.1010  -10.4670   20.9540 C   0  0  0  0  0  0  0  0  0  0  0  0
  -24.5290   -9.5010   21.8920 C   0  0  0  0  0  3  0  0  0  0  0  0
  -23.8020   -8.3040   22.0680 C   0  0  0  0  0  3  0  0  0  0  0  0
  -22.6330   -8.0650   21.3070 C   0  0  0  0  0  0  0  0  0  0  0  0
  -22.2250   -9.0200   20.3590 C   0  0  0  0  0  3  0  0  0  0  0  0
  -22.9520  -10.2070   20.1800 C   0  0  0  0  0  3  0  0  0  0  0  0
  -21.8780   -6.9200   21.3950 O   0  0  0  0  0  0  0  0  0  0  0  0
  -21.7520   -6.2300   22.5750 C   0  0  0  0  0  0  0  0  0  0  0  0
  -21.1960   -6.8230   23.7290 C   0  0  0  0  0  3  0  0  0  0  0  0
  -21.0160   -6.0540   24.8980 C   0  0  0  0  0  3  0  0  0  0  0  0
  -21.3850   -4.6960   24.9120 C   0  0  0  0  0  0  0  0  0  0  0  0
  -21.9360   -4.1040   23.7610 C   0  0  0  0  0  3  0  0  0  0  0  0
  -22.1150   -4.8690   22.5950 C   0  0  0  0  0  0  0  0  0  0  0  0
  -22.6250   -4.2860   21.4830 F   0  0  0  0  0  0  0  0  0  0  0  0
  -21.2090   -3.9550   26.0310 F   0  0  0  0  0  0  0  0  0  0  0  0
  -23.0140  -13.5630   21.2630 C   0  0  0  0  0  0  0  0  0  0  0  0
  -22.3420  -12.8380   22.1500 N   0  0  0  0  0  0  0  0  0  0  0  0
  -22.5520  -14.6150   20.8220 O   0  0  0  0  0  0  0  0  0  0  0  0
  -22.7310  -11.9880   22.5310 H   0  0  0  0  0  0  0  0  0  0  0  0
  -21.4310  -13.1420   22.4620 H   0  0  0  0  0  0  0  0  0  0  0  0
  -25.5990  -15.2300   20.2950 N   0  0  0  0  0  0  0  0  0  0  0  0
  -24.8250  -15.8780   20.3910 H   0  0  0  0  0  0  0  0  0  0  0  0
  -26.4050  -15.6420   19.8460 H   0  0  0  0  0  0  0  0  0  0  0  0
  -30.6160  -26.0200   20.6210 C   0  0  0  0  0  2  0  0  0  0  0  0
  -29.5840  -27.1500   20.7530 C   0  0  0  0  0  2  0  0  0  0  0  0
  -28.4820  -26.8180   19.9220 O   0  0  0  0  0  0  0  0  0  0  0  0
  -24.6240  -31.8700   23.1950 C   0  0  0  0  0  0  0  0  0  0  0  0
  -27.3340  -27.5620   20.0280 C   0  0  0  0  0  0  0  0  0  0  0  0
  -23.4250  -30.4660   21.5450 C   0  0  0  0  0  3  0  0  0  0  0  0
  -24.8950  -28.9750   20.0880 C   0  0  0  0  0  0  0  0  0  0  0  0
  -25.9340  -30.8880   21.3180 C   0  0  0  0  0  2  0  0  0  0  0  0
  -26.0400  -29.5270   20.6740 C   0  0  0  0  0  0  0  0  0  0  0  0
  -27.2620  -28.8280   20.6500 C   0  0  0  0  0  3  0  0  0  0  0  0
  -26.1740  -27.0120   19.4490 C   0  0  0  0  0  3  0  0  0  0  0  0
  -24.9530  -27.7120   19.4720 C   0  0  0  0  0  3  0  0  0  0  0  0
  -23.6330  -29.8050   20.1520 C   0  0  0  0  0  2  0  0  0  0  0  0
  -24.6790  -31.0880   22.0790 N   0  0  0  0  0  0  0  0  0  0  0  0
  -23.5470  -32.1160   23.7500 O   0  0  0  0  0  0  0  0  0  0  0  0
  -22.8030  -29.4210   22.4990 C   0  0  0  0  0  0  0  0  0  0  0  0
  -21.4840  -29.2060   22.3700 N   0  0  0  0  0  0  0  0  0  0  0  0
  -23.5060  -28.8080   23.3060 O   0  0  0  0  0  0  0  0  0  0  0  0
  -20.9840  -29.7570   21.6870 H   0  0  0  0  0  0  0  0  0  0  0  0
  -18.1390  -27.9350   22.8530 C   0  0  0  0  0  0  0  0  0  0  0  0
  -20.6890  -28.2440   23.1300 C   0  0  0  0  0  3  0  0  0  0  0  0
  -20.8240  -26.8220   22.5410 C   0  0  0  0  0  2  0  0  0  0  0  0
  -19.7310  -26.4860   21.5230 C   0  0  0  0  0  2  0  0  0  0  0  0
  -18.3460  -26.5940   22.1670 C   0  0  0  0  0  2  0  0  0  0  0  0
  -19.2400  -28.7170   23.2900 C   0  0  0  0  0  0  0  0  0  0  0  0
  -18.9930  -29.9730   23.8900 C   0  0  0  0  0  3  0  0  0  0  0  0
  -17.6770  -30.4430   24.0560 C   0  0  0  0  0  3  0  0  0  0  0  0
  -16.5910  -29.6560   23.6370 C   0  0  0  0  0  3  0  0  0  0  0  0
  -16.8230  -28.4040   23.0420 C   0  0  0  0  0  3  0  0  0  0  0  0
  -25.9080  -32.5120   23.8090 C   0  0  0  0  0  3  0  0  0  0  0  0
  -26.4420  -31.7430   25.0800 C   0  0  1  0  0  0  0  0  0  0  0  0
  -25.3560  -31.4840   26.1500 C   0  0  0  0  0  1  0  0  0  0  0  0
  -27.0410  -30.3760   24.6750 C   0  0  0  0  0  1  0  0  0  0  0  0
  -27.5870  -32.5490   25.7390 C   0  0  0  0  0  1  0  0  0  0  0  0
  -25.5880  -33.9070   24.1400 N   0  0  0  0  0  0  0  0  0  0  0  0
  -25.9090  -34.9620   23.3780 C   0  0  0  0  0  0  0  0  0  0  0  0
  -26.5780  -34.8630   22.3450 O   0  0  0  0  0  0  0  0  0  0  0  0
  -24.9950  -34.0560   24.9430 H   0  0  0  0  0  0  0  0  0  0  0  0
  -24.1710  -36.7430   23.0110 C   0  0  0  0  0  1  0  0  0  0  0  0
  -25.4070  -36.3440   23.8330 C   0  0  0  0  0  3  0  0  0  0  0  0
  -27.5240  -37.2500   24.6880 C   0  0  0  0  0  1  0  0  0  0  0  0
  -26.4330  -37.4040   23.7280 N   0  0  0  0  0  0  0  0  0  0  0  0
  -26.0190  -38.3230   23.8610 H   0  0  0  0  0  0  0  0  0  0  0  0
  1  3  1  0
  3  7  1  0
  4  9  1  0
  4  2  1  0
  5  1  1  0
  5  4  1  0
  5  6  1  0
  6  7  1  0
  6  2  1  0
  7  8  1  1
  9 11  2  0
 10  9  1  0
 12 10  1  0
 14 19  1  0
 15 16  1  0
 15 14  1  0
 17 16  1  0
 17 30  1  0
 17 18  1  0
 19 13  1  0
 19 18  1  0
 20 13  2  0
 22 26  1  0
 23 22  1  0
 23 25  1  0
 23 24  1  0
 24 21  1  0
 25 10  1  0
 25 21  1  0
 26 13  1  0
 26 24  1  0
 27 28  2  0
 28 47  1  0
 29 28  1  0
 29 32  1  0
 30 31  1  0
 30 27  1  0
 31 29  2  0
 32 33  1  0
 33 34  2  0
 35 38  1  0
 35 34  1  0
 36 35  2  0
 37 36  1  0
 37 32  2  0
 38 39  1  0
 39 44  2  0
 39 40  1  0
 40 41  2  0
 41 42  1  0
 42 46  1  0
 43 42  2  0
 44 43  1  0
 45 44  1  0
 47 48  1  0
 48 51  1  0
 48 50  1  0
 49 47  2  0
 52 53  1  0
 52 27  1  0
 54 52  1  0
 55 56  1  0
 55  7  1  0
 57 59  1  0
 57 56  1  0
 58 69  2  0
 59 64  1  0
 60 68  1  0
 60 70  1  0
 61 67  1  0
 61 63  1  0
 62 68  1  0
 63 62  1  0
 64 63  2  0
 65 66  1  0
 65 59  2  0
 66 61  2  0
 67 60  1  0
 68 58  1  0
 70 72  2  0
 71 70  1  0
 73 71  1  0
 74 83  2  0
 74 79  1  0
 75 71  1  0
 75 79  1  0
 76 75  1  0
 77 78  1  0
 77 76  1  0
 78 74  1  0
 79 80  2  0
 80 81  1  0
 82 81  2  0
 83 82  1  0
 84 58  1  0
 84 89  1  0
 84 85  1  0
 85 88  1  1
 85 86  1  0
 87 85  1  0
 89 92  1  0
 90 94  1  0
 90 89  1  0
 91 90  2  0
 94 93  1  0
 96 94  1  0
 96 97  1  0
 96 95  1  0
M  ISO  4  13 100  26 100  56 101  57 101
M  END
>  <TORSDO>  (47) 
F 19

>  <SCORE>  (47) 
-13.802

>  <name>  (47) 
46

>  <ligand_id>  (47) 
46

>  <original_smiles>  (47) 
[H]c1c([H])c([H])c2c(c1[H])C([H])([H])C([H])([H])C([H])([H])C2([H])N([H])C(=O)C1([H])N(C(=O)C([H])(N([H])C(=O)C([H])(N([H])C([H])([H])[H])C([H])([H])[H])C(C([H])([H])[H])(C([H])([H])[H])C([H])([H])[H])C([H])([H])c2c([H])c(OC([H])([H])C([H])([H])[N+]3([H])C([H])([H])C([H])([H])C4([H])C([H])(C(=O)N([H])C5([H])C([H])([H])C6([H])N(C(=O)N7C([H])([H])C([H])([H])C([H])([H])C([H])(n8nc(-c9c([H])c([H])c(Oc%10c([H])c([H])c(F)c([H])c%10F)c([H])c9[H])c(C(=O)N([H])[H])c8N([H])[H])C7([H])[H])C([H])([H])C56[H])C([H])([H])C43[H])c([H])c([H])c2C1([H])[H]

>  <smiles>  (47) 
[H]c1c([H])c([H])c2c(c1[H])C([H])([H])C([H])([H])C([H])([H])C2([H])N([H])C(=O)C1([H])N(C(=O)C([H])(N([H])C(=O)C([H])(N([H])C([H])([H])[H])C([H])([H])[H])C(C([H])([H])[H])(C([H])([H])[H])C([H])([H])[H])C([H])([H])c2c([H])c(OC([H])([H])C([H])([H])[N+]3([H])C([H])([H])C([H])([H])C4([H])C([H])(C(=O)N([H])C5([H])C([H])([H])C6([H])N(C(=O)N7C([H])([H])C([H])([H])C([H])([H])C([H])(n8nc(-c9c([H])c([H])c(Oc%10c([H])c([H])c(F)c([H])c%10F)c([H])c9[H])c(C(=O)N([H])[H])c8N([H])[H])C7([H])[H])C([H])([H])C56[H])C([H])([H])C43[H])c([H])c([H])c2C1([H])[H]

$$$$
47:0:0
     RDKit          3D

 97105  0  0  1  0  0  0  0  0999 V2000
  -29.7710  -20.4130   20.3260 C   0  0  0  0  0  3  0  0  0  0  0  0
  -31.4360  -19.6040   23.7010 C   0  0  0  0  0  3  0  0  0  0  0  0
  -31.3200  -18.2190   23.7910 C   0  0  0  0  0  3  0  0  0  0  0  0
  -30.9930  -20.2480   22.5440 C   0  0  0  0  0  3  0  0  0  0  0  0
  -30.8540  -17.4640   22.7010 C   0  0  0  0  0  0  0  0  0  0  0  0
  -30.4740  -19.5420   21.4260 C   0  0  0  0  0  0  0  0  0  0  0  0
  -30.5480  -18.0850   21.4410 C   0  0  0  0  0  0  0  0  0  0  0  0
  -30.6400  -15.9920   23.0210 C   0  0  0  0  0  1  0  0  0  0  0  0
  -30.3520  -17.2160   20.1480 C   0  0  0  0  0  2  0  0  0  0  0  0
  -31.0340  -14.7110   19.8250 C   0  0  0  0  0  0  0  0  0  0  0  0
  -30.7120  -12.4800   18.7890 C   0  0  0  0  0  2  0  0  0  0  0  0
  -29.6750  -12.6350   17.6520 C   0  0  0  0  0  2  0  0  0  0  0  0
  -28.2300  -12.5410   18.1840 C   0  0  0  0  0  2  0  0  0  0  0  0
  -28.0010  -13.4070   19.4510 C   0  0  0  0  0  3  0  0  0  0  0  0
  -29.1340  -13.1790   20.4770 C   0  0  0  0  0  2  0  0  0  0  0  0
  -30.4090  -13.4960   19.8100 N   0  0  0  0  0  0  0  0  0  0  0  0
  -32.1400  -14.8980   19.3050 O   0  0  0  0  0  0  0  0  0  0  0  0
  -30.2560  -15.7300   20.2710 N   0  0  0  0  0  0  0  0  0  0  0  0
  -29.3980  -15.4090   20.6910 H   0  0  0  0  0  0  0  0  0  0  0  0
  -25.7160  -14.1040   20.4050 C   0  0  0  0  0  0  0  0  0  0  0  0
  -24.6330  -13.3720   20.8170 C   0  0  0  0  0  0  0  0  0  0  0  0
  -25.0030  -12.0020   20.6590 C   0  0  0  0  0  0  0  0  0  0  0  0
  -26.6810  -13.1810   20.0310 N   0  0  0  0  0  0  0  0  0  0  0  0
  -26.2600  -11.9080   20.2390 N   0  0  0  0  0  0  0  0  0  0  0  0
  -24.2150  -10.7750   20.8380 C   0  0  0  0  0  0  0  0  0  0  0  0
  -24.6380   -9.7520   21.7160 C   0  0  0  0  0  3  0  0  0  0  0  0
  -23.8580   -8.5880   21.8890 C   0  0  0  0  0  3  0  0  0  0  0  0
  -22.6410   -8.4410   21.1840 C   0  0  0  0  0  0  0  0  0  0  0  0
  -22.2350   -9.4520   20.2950 C   0  0  0  0  0  3  0  0  0  0  0  0
  -23.0140  -10.6070   20.1210 C   0  0  0  0  0  3  0  0  0  0  0  0
  -21.8310   -7.3340   21.2660 O   0  0  0  0  0  0  0  0  0  0  0  0
  -21.7140   -6.6130   22.4270 C   0  0  0  0  0  0  0  0  0  0  0  0
  -21.2810   -7.2070   23.6330 C   0  0  0  0  0  3  0  0  0  0  0  0
  -21.1090   -6.4140   24.7850 C   0  0  0  0  0  3  0  0  0  0  0  0
  -21.3580   -5.0290   24.7310 C   0  0  0  0  0  0  0  0  0  0  0  0
  -21.7820   -4.4350   23.5300 C   0  0  0  0  0  3  0  0  0  0  0  0
  -21.9560   -5.2260   22.3790 C   0  0  0  0  0  0  0  0  0  0  0  0
  -22.3450   -4.6450   21.2190 F   0  0  0  0  0  0  0  0  0  0  0  0
  -21.1840   -4.2660   25.8340 F   0  0  0  0  0  0  0  0  0  0  0  0
  -23.2990  -13.9130   21.2390 C   0  0  0  0  0  0  0  0  0  0  0  0
  -22.6320  -13.2370   22.1700 N   0  0  0  0  0  0  0  0  0  0  0  0
  -22.8560  -14.9640   20.7790 O   0  0  0  0  0  0  0  0  0  0  0  0
  -23.0030  -12.3810   22.5530 H   0  0  0  0  0  0  0  0  0  0  0  0
  -21.7360  -13.5760   22.4890 H   0  0  0  0  0  0  0  0  0  0  0  0
  -25.9510  -15.4710   20.3030 N   0  0  0  0  0  0  0  0  0  0  0  0
  -25.2310  -16.1520   20.5190 H   0  0  0  0  0  0  0  0  0  0  0  0
  -26.8060  -15.8940   19.9660 H   0  0  0  0  0  0  0  0  0  0  0  0
  -28.4030  -19.9600   20.1660 N   0  0  0  0  0  0  0  0  0  0  0  0
  -28.2900  -19.1410   20.7530 H   0  0  0  0  0  0  0  0  0  0  0  0
  -28.2790  -19.6210   19.2190 H   0  0  0  0  0  0  0  0  0  0  0  0
  -29.6540  -21.9690   20.6600 C   0  0  0  0  0  2  0  0  0  0  0  0
  -29.0710  -22.8640   19.6100 N   0  0  0  0  0  4  0  0  0  0  0  0
  -29.4600  -22.6210   18.7140 H   0  0  0  0  0  0  0  0  0  0  0  0
  -28.0940  -22.6210   19.5700 H   0  0  0  0  0  0  0  0  0  0  0  0
  -29.2340  -24.3490   19.8500 C   0  0  0  0  0  2  0  0  0  0  0  0
  -28.0490  -25.2490   19.3700 C   0  0  0  0  0  2  0  0  0  0  0  0
  -28.2020  -26.6740   19.6620 O   0  0  0  0  0  0  0  0  0  0  0  0
  -24.8200  -31.9290   23.1790 C   0  0  0  0  0  0  0  0  0  0  0  0
  -27.0610  -27.4730   19.7500 C   0  0  0  0  0  0  0  0  0  0  0  0
  -23.4400  -30.6020   21.6150 C   0  0  0  0  0  3  0  0  0  0  0  0
  -24.7220  -29.0760   20.0250 C   0  0  0  0  0  0  0  0  0  0  0  0
  -25.9530  -30.8940   21.2080 C   0  0  0  0  0  2  0  0  0  0  0  0
  -25.9460  -29.5380   20.5240 C   0  0  0  0  0  0  0  0  0  0  0  0
  -27.1150  -28.7440   20.3860 C   0  0  0  0  0  3  0  0  0  0  0  0
  -25.8120  -27.0500   19.2340 C   0  0  0  0  0  3  0  0  0  0  0  0
  -24.6520  -27.8320   19.3820 C   0  0  0  0  0  3  0  0  0  0  0  0
  -23.5110  -29.9620   20.2050 C   0  0  0  0  0  2  0  0  0  0  0  0
  -24.7610  -31.1570   22.0550 N   0  0  0  0  0  0  0  0  0  0  0  0
  -23.7980  -32.2090   23.8210 O   0  0  0  0  0  0  0  0  0  0  0  0
  -22.8530  -29.5670   22.6040 C   0  0  0  0  0  0  0  0  0  0  0  0
  -21.5290  -29.3490   22.5330 N   0  0  0  0  0  0  0  0  0  0  0  0
  -23.5850  -28.9630   23.3920 O   0  0  0  0  0  0  0  0  0  0  0  0
  -20.9940  -29.8940   21.8720 H   0  0  0  0  0  0  0  0  0  0  0  0
  -18.2280  -27.9930   23.1070 C   0  0  0  0  0  0  0  0  0  0  0  0
  -20.7710  -28.3890   23.3380 C   0  0  0  0  0  3  0  0  0  0  0  0
  -20.9390  -26.9490   22.8000 C   0  0  0  0  0  2  0  0  0  0  0  0
  -19.8440  -26.5440   21.8080 C   0  0  0  0  0  2  0  0  0  0  0  0
  -18.4650  -26.6370   22.4660 C   0  0  0  0  0  2  0  0  0  0  0  0
  -19.3100  -28.8230   23.5030 C   0  0  0  0  0  0  0  0  0  0  0  0
  -19.0350  -30.0890   24.0620 C   0  0  0  0  0  3  0  0  0  0  0  0
  -17.7080  -30.5290   24.2290 C   0  0  0  0  0  3  0  0  0  0  0  0
  -16.6400  -29.6980   23.8510 C   0  0  0  0  0  3  0  0  0  0  0  0
  -16.9000  -28.4320   23.2970 C   0  0  0  0  0  3  0  0  0  0  0  0
  -26.1700  -32.5180   23.6960 C   0  0  0  0  0  3  0  0  0  0  0  0
  -25.9080  -33.8920   24.1460 N   0  0  0  0  0  0  0  0  0  0  0  0
  -26.1710  -34.9920   23.4300 C   0  0  0  0  0  0  0  0  0  0  0  0
  -26.7350  -34.9570   22.3320 O   0  0  0  0  0  0  0  0  0  0  0  0
  -25.3980  -33.9920   25.0110 H   0  0  0  0  0  0  0  0  0  0  0  0
  -24.4430  -36.8190   23.3580 C   0  0  0  0  0  1  0  0  0  0  0  0
  -25.7440  -36.3460   24.0270 C   0  0  0  0  0  3  0  0  0  0  0  0
  -27.9490  -37.1610   24.7350 C   0  0  0  0  0  1  0  0  0  0  0  0
  -26.7750  -37.3980   23.9000 N   0  0  0  0  0  0  0  0  0  0  0  0
  -26.3920  -38.3070   24.1430 H   0  0  0  0  0  0  0  0  0  0  0  0
  -26.8170  -31.6670   24.8570 C   0  0  1  0  0  0  0  0  0  0  0  0
  -25.8370  -31.3340   26.0040 C   0  0  0  0  0  1  0  0  0  0  0  0
  -27.3780  -30.3330   24.3100 C   0  0  0  0  0  1  0  0  0  0  0  0
  -28.0100  -32.4350   25.4720 C   0  0  0  0  0  1  0  0  0  0  0  0
  1 51  1  0
  1  6  1  0
  2  3  1  0
  4  2  2  0
  5  8  1  0
  5  3  2  0
  6  7  2  0
  6  4  1  0
  7  5  1  0
  9 18  1  0
  9  7  1  0
 10 18  1  0
 11 16  1  0
 12 13  1  0
 12 11  1  0
 14 13  1  0
 14 23  1  0
 14 15  1  0
 16 10  1  0
 16 15  1  0
 17 10  2  0
 18 19  1  0
 20 21  2  0
 21 40  1  0
 22 21  1  0
 22 25  1  0
 23 24  1  0
 23 20  1  0
 24 22  2  0
 25 26  1  0
 26 27  2  0
 28 31  1  0
 28 27  1  0
 29 28  2  0
 30 29  1  0
 30 25  2  0
 31 32  1  0
 32 33  1  0
 33 34  2  0
 35 34  1  0
 35 39  1  0
 36 35  2  0
 37 32  2  0
 37 36  1  0
 38 37  1  0
 40 41  1  0
 41 44  1  0
 41 43  1  0
 42 40  2  0
 45 20  1  0
 45 46  1  0
 47 45  1  0
 48  1  1  0
 48 49  1  0
 50 48  1  0
 52 55  1  0
 52 51  1  0
 53 52  1  0
 54 52  1  0
 56 57  1  0
 56 55  1  0
 57 59  1  0
 58 69  2  0
 59 64  1  0
 60 68  1  0
 60 70  1  0
 61 67  1  0
 61 63  1  0
 62 68  1  0
 63 62  1  0
 64 63  2  0
 65 66  1  0
 65 59  2  0
 66 61  2  0
 67 60  1  0
 68 58  1  0
 70 72  2  0
 71 70  1  0
 73 71  1  0
 74 83  2  0
 74 79  1  0
 75 71  1  0
 75 79  1  0
 76 75  1  0
 77 78  1  0
 77 76  1  0
 78 74  1  0
 79 80  2  0
 80 81  1  0
 82 81  2  0
 83 82  1  0
 84 58  1  0
 84 85  1  0
 84 94  1  0
 85 88  1  0
 86 90  1  0
 86 85  1  0
 87 86  2  0
 90 89  1  0
 92 90  1  0
 92 93  1  0
 92 91  1  0
 94 97  1  1
 94 95  1  0
 96 94  1  0
M  ISO  4  10 100  18 100  56 101  57 101
M  END
>  <TORSDO>  (48) 
F 23

>  <SCORE>  (48) 
-10.160

>  <name>  (48) 
47

>  <ligand_id>  (48) 
47

>  <original_smiles>  (48) 
[H]c1c([H])c([H])c2c(c1[H])C([H])([H])C([H])([H])C([H])([H])C2([H])N([H])C(=O)C1([H])N(C(=O)C([H])(N([H])C(=O)C([H])(N([H])C([H])([H])[H])C([H])([H])[H])C(C([H])([H])[H])(C([H])([H])[H])C([H])([H])[H])C([H])([H])c2c([H])c(OC([H])([H])C([H])([H])[N+]([H])([H])C([H])([H])C([H])(c3c([H])c([H])c([H])c(C([H])([H])[H])c3C([H])([H])N([H])C(=O)N3C([H])([H])C([H])([H])C([H])([H])C([H])(n4nc(-c5c([H])c([H])c(Oc6c([H])c([H])c(F)c([H])c6F)c([H])c5[H])c(C(=O)N([H])[H])c4N([H])[H])C3([H])[H])N([H])[H])c([H])c([H])c2C1([H])[H]

>  <smiles>  (48) 
[H]c1c([H])c([H])c2c(c1[H])C([H])([H])C([H])([H])C([H])([H])C2([H])N([H])C(=O)C1([H])N(C(=O)C([H])(N([H])C(=O)C([H])(N([H])C([H])([H])[H])C([H])([H])[H])C(C([H])([H])[H])(C([H])([H])[H])C([H])([H])[H])C([H])([H])c2c([H])c(OC([H])([H])C([H])([H])[N+]([H])([H])C([H])([H])C([H])(c3c([H])c([H])c([H])c(C([H])([H])[H])c3C([H])([H])N([H])C(=O)N3C([H])([H])C([H])([H])C([H])([H])C([H])(n4nc(-c5c([H])c([H])c(Oc6c([H])c([H])c(F)c([H])c6F)c([H])c5[H])c(C(=O)N([H])[H])c4N([H])[H])C3([H])[H])N([H])[H])c([H])c([H])c2C1([H])[H]

$$$$
48:0:0
     RDKit          3D

 98109  0  0  1  0  0  0  0  0999 V2000
  -27.9070  -21.3510   22.0760 C   0  0  0  0  0  2  0  0  0  0  0  0
  -29.7290  -21.4820   20.4560 C   0  0  0  0  0  2  0  0  0  0  0  0
  -28.5370  -22.7270   22.1820 C   0  0  0  0  0  3  0  0  0  0  0  0
  -29.6630  -22.7810   21.2000 C   0  0  0  0  0  3  0  0  0  0  0  0
  -28.3690  -20.7950   20.7090 C   0  0  0  0  0  3  0  0  0  0  0  0
  -28.4920  -23.7170   21.0330 C   0  0  0  0  0  3  0  0  0  0  0  0
  -28.7540  -25.1930   21.1700 C   0  0  0  0  0  2  0  0  0  0  0  0
  -28.8450  -25.7000   19.8120 N   0  0  0  0  0  0  0  0  0  0  0  0
  -27.9770  -25.4910   19.3300 H   0  0  0  0  0  0  0  0  0  0  0  0
  -28.8820  -27.1300   19.9130 O   0  0  0  0  0  0  0  0  0  0  0  0
  -24.6860  -31.8100   23.1910 C   0  0  0  0  0  0  0  0  0  0  0  0
  -27.6280  -27.6970   19.9560 C   0  0  0  0  0  0  0  0  0  0  0  0
  -23.5770  -30.3990   21.4860 C   0  0  0  0  0  3  0  0  0  0  0  0
  -25.1300  -29.0090   20.0240 C   0  0  0  0  0  0  0  0  0  0  0  0
  -26.0720  -30.9230   21.3270 C   0  0  0  0  0  2  0  0  0  0  0  0
  -26.2430  -29.5850   20.6460 C   0  0  0  0  0  0  0  0  0  0  0  0
  -27.4880  -28.9280   20.6260 C   0  0  0  0  0  3  0  0  0  0  0  0
  -26.4990  -27.1280   19.3180 C   0  0  0  0  0  3  0  0  0  0  0  0
  -25.2480  -27.7710   19.3660 C   0  0  0  0  0  3  0  0  0  0  0  0
  -23.8360  -29.7850   20.0850 C   0  0  0  0  0  2  0  0  0  0  0  0
  -24.7950  -31.0580   22.0600 N   0  0  0  0  0  0  0  0  0  0  0  0
  -23.5880  -31.9960   23.7320 O   0  0  0  0  0  0  0  0  0  0  0  0
  -22.9870  -29.3040   22.4010 C   0  0  0  0  0  0  0  0  0  0  0  0
  -21.6790  -29.0410   22.2490 N   0  0  0  0  0  0  0  0  0  0  0  0
  -23.7020  -28.6960   23.2040 O   0  0  0  0  0  0  0  0  0  0  0  0
  -21.1600  -29.5870   21.5760 H   0  0  0  0  0  0  0  0  0  0  0  0
  -18.3840  -27.6240   22.6610 C   0  0  0  0  0  0  0  0  0  0  0  0
  -20.9180  -28.0260   22.9770 C   0  0  0  0  0  3  0  0  0  0  0  0
  -21.1150  -26.6280   22.3480 C   0  0  0  0  0  2  0  0  0  0  0  0
  -20.0450  -26.2760   21.3100 C   0  0  0  0  0  2  0  0  0  0  0  0
  -18.6510  -26.3140   21.9400 C   0  0  0  0  0  2  0  0  0  0  0  0
  -19.4490  -28.4360   23.1340 C   0  0  0  0  0  0  0  0  0  0  0  0
  -19.1480  -29.6630   23.7650 C   0  0  0  0  0  3  0  0  0  0  0  0
  -17.8140  -30.0790   23.9310 C   0  0  0  0  0  3  0  0  0  0  0  0
  -16.7630  -29.2640   23.4750 C   0  0  0  0  0  3  0  0  0  0  0  0
  -17.0480  -28.0390   22.8460 C   0  0  0  0  0  3  0  0  0  0  0  0
  -25.9310  -32.4920   23.8410 C   0  0  0  0  0  3  0  0  0  0  0  0
  -25.5570  -33.8750   24.1660 N   0  0  0  0  0  0  0  0  0  0  0  0
  -25.8610  -34.9410   23.4130 C   0  0  0  0  0  0  0  0  0  0  0  0
  -26.5600  -34.8680   22.3980 O   0  0  0  0  0  0  0  0  0  0  0  0
  -24.9350  -34.0030   24.9510 H   0  0  0  0  0  0  0  0  0  0  0  0
  -24.0600  -36.6510   23.0210 C   0  0  0  0  0  1  0  0  0  0  0  0
  -25.3020  -36.3060   23.8580 C   0  0  0  0  0  3  0  0  0  0  0  0
  -27.3760  -37.2870   24.7330 C   0  0  0  0  0  1  0  0  0  0  0  0
  -26.2880  -37.4040   23.7660 N   0  0  0  0  0  0  0  0  0  0  0  0
  -25.8360  -38.3050   23.9030 H   0  0  0  0  0  0  0  0  0  0  0  0
  -26.4530  -31.7380   25.1260 C   0  0  1  0  0  0  0  0  0  0  0  0
  -25.3460  -31.4480   26.1660 C   0  0  0  0  0  1  0  0  0  0  0  0
  -27.1060  -30.3910   24.7390 C   0  0  0  0  0  1  0  0  0  0  0  0
  -27.5490  -32.5810   25.8190 C   0  0  0  0  0  1  0  0  0  0  0  0
  -28.4450  -19.2610   20.6060 C   0  0  0  0  0  2  0  0  0  0  0  0
  -28.5120  -19.1320   18.1340 C   0  0  0  0  0  1  0  0  0  0  0  0
  -29.2380  -18.8660   19.4070 N   0  0  2  0  0  4  0  0  0  0  0  0
  -30.0230  -19.5010   19.4130 H   0  0  0  0  0  0  0  0  0  0  0  0
  -31.9400  -18.8030   18.2590 C   0  0  0  0  0  2  0  0  0  0  0  0
  -32.0390  -17.5610   20.6160 C   0  0  0  0  0  2  0  0  0  0  0  0
  -32.3520  -17.6550   19.1360 C   0  0  0  0  0  3  0  0  0  0  0  0
  -31.0340  -17.5940   18.3930 C   0  0  0  0  0  3  0  0  0  0  0  0
  -30.5860  -17.0400   20.7090 C   0  0  0  0  0  3  0  0  0  0  0  0
  -29.8860  -17.5210   19.3950 C   0  0  0  0  0  3  0  0  0  0  0  0
  -31.1030  -14.6010   20.1580 C   0  0  0  0  0  0  0  0  0  0  0  0
  -30.6790  -12.5090   18.9560 C   0  0  0  0  0  2  0  0  0  0  0  0
  -29.7270  -12.8220   17.7840 C   0  0  0  0  0  2  0  0  0  0  0  0
  -28.2550  -12.7350   18.2360 C   0  0  0  0  0  2  0  0  0  0  0  0
  -27.9810  -13.5280   19.5430 C   0  0  0  0  0  3  0  0  0  0  0  0
  -29.0490  -13.2110   20.6150 C   0  0  0  0  0  2  0  0  0  0  0  0
  -30.3790  -13.4620   20.0310 N   0  0  0  0  0  0  0  0  0  0  0  0
  -32.1830  -14.7750   19.5980 O   0  0  0  0  0  0  0  0  0  0  0  0
  -30.4650  -15.5770   20.8140 N   0  0  0  0  0  0  0  0  0  0  0  0
  -29.6270  -15.2590   21.2810 H   0  0  0  0  0  0  0  0  0  0  0  0
  -25.6040  -14.1960   20.2810 C   0  0  0  0  0  0  0  0  0  0  0  0
  -24.5250  -13.4480   20.6710 C   0  0  0  0  0  0  0  0  0  0  0  0
  -24.9540  -12.0850   20.6330 C   0  0  0  0  0  0  0  0  0  0  0  0
  -26.6270  -13.2910   20.0380 N   0  0  0  0  0  0  0  0  0  0  0  0
  -26.2380  -12.0180   20.3030 N   0  0  0  0  0  0  0  0  0  0  0  0
  -24.2030  -10.8410   20.8370 C   0  0  0  0  0  0  0  0  0  0  0  0
  -24.5980   -9.8920   21.8070 C   0  0  0  0  0  3  0  0  0  0  0  0
  -23.8500   -8.7110   21.9980 C   0  0  0  0  0  3  0  0  0  0  0  0
  -22.6940   -8.4700   21.2180 C   0  0  0  0  0  0  0  0  0  0  0  0
  -22.3180   -9.4060   20.2380 C   0  0  0  0  0  3  0  0  0  0  0  0
  -23.0660  -10.5790   20.0460 C   0  0  0  0  0  3  0  0  0  0  0  0
  -21.9210   -7.3370   21.3150 O   0  0  0  0  0  0  0  0  0  0  0  0
  -21.7860   -6.6580   22.4980 C   0  0  0  0  0  0  0  0  0  0  0  0
  -21.2690   -7.2770   23.6580 C   0  0  0  0  0  3  0  0  0  0  0  0
  -21.0840   -6.5220   24.8340 C   0  0  0  0  0  3  0  0  0  0  0  0
  -21.4010   -5.1510   24.8500 C   0  0  0  0  0  0  0  0  0  0  0  0
  -21.9090   -4.5320   23.6950 C   0  0  0  0  0  3  0  0  0  0  0  0
  -22.0980   -5.2840   22.5220 C   0  0  0  0  0  0  0  0  0  0  0  0
  -22.5680   -4.6780   21.4040 F   0  0  0  0  0  0  0  0  0  0  0  0
  -21.2150   -4.4240   25.9770 F   0  0  0  0  0  0  0  0  0  0  0  0
  -23.1440  -13.9560   20.9690 C   0  0  0  0  0  0  0  0  0  0  0  0
  -22.4190  -13.2840   21.8570 N   0  0  0  0  0  0  0  0  0  0  0  0
  -22.7160  -14.9850   20.4490 O   0  0  0  0  0  0  0  0  0  0  0  0
  -22.7770  -12.4510   22.3020 H   0  0  0  0  0  0  0  0  0  0  0  0
  -21.4930  -13.6100   22.0980 H   0  0  0  0  0  0  0  0  0  0  0  0
  -25.7960  -15.5620   20.0940 N   0  0  0  0  0  0  0  0  0  0  0  0
  -25.0360  -16.2260   20.1960 H   0  0  0  0  0  0  0  0  0  0  0  0
  -26.6350  -15.9730   19.7110 H   0  0  0  0  0  0  0  0  0  0  0  0
  2  5  1  0
  3  1  1  0
  4  2  1  0
  4  3  1  0
  5 51  1  0
  5  1  1  0
  6  7  1  0
  6  4  1  0
  6  3  1  0
  8 10  1  0
  8  7  1  0
  9  8  1  0
 10 12  1  0
 11 22  2  0
 12 17  1  0
 13 21  1  0
 13 23  1  0
 14 20  1  0
 14 16  1  0
 15 21  1  0
 16 15  1  0
 17 16  2  0
 18 19  1  0
 18 12  2  0
 19 14  2  0
 20 13  1  0
 21 11  1  0
 23 25  2  0
 24 23  1  0
 26 24  1  0
 27 36  2  0
 27 32  1  0
 28 24  1  0
 28 32  1  0
 29 28  1  0
 30 31  1  0
 30 29  1  0
 31 27  1  0
 32 33  2  0
 33 34  1  0
 35 34  2  0
 36 35  1  0
 37 11  1  0
 37 38  1  0
 37 47  1  0
 38 41  1  0
 39 43  1  0
 39 38  1  0
 40 39  2  0
 43 42  1  0
 45 43  1  0
 45 46  1  0
 45 44  1  0
 47 50  1  1
 47 48  1  0
 49 47  1  0
 52 53  1  0
 53 54  1  6
 53 51  1  0
 56 59  1  0
 57 55  1  0
 57 56  1  0
 58 55  1  0
 58 57  1  0
 58 60  1  0
 59 69  1  0
 60 53  1  0
 60 59  1  0
 61 69  1  0
 62 67  1  0
 63 64  1  0
 63 62  1  0
 65 64  1  0
 65 74  1  0
 65 66  1  0
 67 61  1  0
 67 66  1  0
 68 61  2  0
 69 70  1  0
 71 72  2  0
 72 91  1  0
 73 72  1  0
 73 76  1  0
 74 71  1  0
 74 75  1  0
 75 73  2  0
 76 77  1  0
 77 78  2  0
 79 82  1  0
 79 78  1  0
 80 79  2  0
 81 80  1  0
 81 76  2  0
 82 83  1  0
 83 88  2  0
 83 84  1  0
 84 85  2  0
 85 86  1  0
 86 90  1  0
 87 86  2  0
 88 87  1  0
 89 88  1  0
 91 92  1  0
 92 95  1  0
 92 94  1  0
 93 91  2  0
 96 97  1  0
 96 71  1  0
 98 96  1  0
M  ISO  4   8 101  10 101  61 100  69 100
M  END
>  <TORSDO>  (49) 
F 21

>  <SCORE>  (49) 
-12.250

>  <name>  (49) 
48

>  <ligand_id>  (49) 
48

>  <original_smiles>  (49) 
[H]c1c([H])c([H])c2c(c1[H])C([H])([H])C([H])([H])C([H])([H])C2([H])N([H])C(=O)C1([H])N(C(=O)C([H])(N([H])C(=O)C([H])(N([H])C([H])([H])[H])C([H])([H])[H])C(C([H])([H])[H])(C([H])([H])[H])C([H])([H])[H])C([H])([H])c2c([H])c(ON([H])C([H])([H])C3([H])C4([H])C([H])([H])C([H])(C([H])([H])[N+]([H])(C([H])([H])[H])C5([H])C([H])(N([H])C(=O)N6C([H])([H])C([H])([H])C([H])([H])C([H])(n7nc(-c8c([H])c([H])c(Oc9c([H])c([H])c(F)c([H])c9F)c([H])c8[H])c(C(=O)N([H])[H])c7N([H])[H])C6([H])[H])C([H])([H])C6([H])C([H])([H])C65[H])C([H])([H])C34[H])c([H])c([H])c2C1([H])[H]

>  <smiles>  (49) 
[H]c1c([H])c([H])c2c(c1[H])C([H])([H])C([H])([H])C([H])([H])C2([H])N([H])C(=O)C1([H])N(C(=O)C([H])(N([H])C(=O)C([H])(N([H])C([H])([H])[H])C([H])([H])[H])C(C([H])([H])[H])(C([H])([H])[H])C([H])([H])[H])C([H])([H])c2c([H])c(ON([H])C([H])([H])C3([H])C4([H])C([H])([H])C([H])(C([H])([H])[N+]([H])(C([H])([H])[H])C5([H])C([H])(N([H])C(=O)N6C([H])([H])C([H])([H])C([H])([H])C([H])(n7nc(-c8c([H])c([H])c(Oc9c([H])c([H])c(F)c([H])c9F)c([H])c8[H])c(C(=O)N([H])[H])c7N([H])[H])C6([H])[H])C([H])([H])C6([H])C([H])([H])C65[H])C([H])([H])C34[H])c([H])c([H])c2C1([H])[H]

$$$$
49:0:0
     RDKit          3D

 95105  0  0  1  0  0  0  0  0999 V2000
  -27.6530  -17.8650   19.9240 C   0  0  0  0  0  2  0  0  0  0  0  0
  -28.8230  -18.2520   20.8770 C   0  0  1  0  0  0  0  0  0  0  0  0
  -28.5390  -18.7710   19.0400 C   0  0  2  0  0  0  0  0  0  0  0  0
  -28.4000  -19.7040   20.2900 C   0  0  0  0  0  3  0  0  0  0  0  0
  -30.0320  -17.4070   20.3120 C   0  0  0  0  0  3  0  0  0  0  0  0
  -29.8720  -17.9830   18.8790 C   0  0  0  0  0  3  0  0  0  0  0  0
  -30.5790  -14.7950   20.0760 C   0  0  0  0  0  0  0  0  0  0  0  0
  -30.3420  -12.5390   19.0230 C   0  0  0  0  0  2  0  0  0  0  0  0
  -29.3370  -12.6320   17.8520 C   0  0  0  0  0  2  0  0  0  0  0  0
  -27.8910  -12.4500   18.3530 C   0  0  0  0  0  2  0  0  0  0  0  0
  -27.5800  -13.3110   19.6050 C   0  0  0  0  0  3  0  0  0  0  0  0
  -28.6950  -13.1930   20.6690 C   0  0  0  0  0  2  0  0  0  0  0  0
  -29.9630  -13.5630   20.0230 N   0  0  0  0  0  0  0  0  0  0  0  0
  -31.7230  -14.9390   19.6410 O   0  0  0  0  0  0  0  0  0  0  0  0
  -29.8070  -15.8880   20.4260 N   0  0  0  0  0  0  0  0  0  0  0  0
  -28.8960  -15.6330   20.7760 H   0  0  0  0  0  0  0  0  0  0  0  0
  -25.2320  -13.8890   20.4660 C   0  0  0  0  0  0  0  0  0  0  0  0
  -24.1840  -13.1070   20.8720 C   0  0  0  0  0  0  0  0  0  0  0  0
  -24.6420  -11.7580   20.7830 C   0  0  0  0  0  0  0  0  0  0  0  0
  -26.2600  -13.0140   20.1550 N   0  0  0  0  0  0  0  0  0  0  0  0
  -25.9150  -11.7260   20.4070 N   0  0  0  0  0  0  0  0  0  0  0  0
  -23.9220  -10.4930   20.9750 C   0  0  0  0  0  0  0  0  0  0  0  0
  -24.3710   -9.5190   21.8950 C   0  0  0  0  0  3  0  0  0  0  0  0
  -23.6510   -8.3200   22.0770 C   0  0  0  0  0  3  0  0  0  0  0  0
  -22.4660   -8.0840   21.3390 C   0  0  0  0  0  0  0  0  0  0  0  0
  -22.0350   -9.0470   20.4100 C   0  0  0  0  0  3  0  0  0  0  0  0
  -22.7570  -10.2380   20.2250 C   0  0  0  0  0  3  0  0  0  0  0  0
  -21.7150   -6.9390   21.4330 O   0  0  0  0  0  0  0  0  0  0  0  0
  -21.6420   -6.2180   22.5980 C   0  0  0  0  0  0  0  0  0  0  0  0
  -21.1430   -6.7820   23.7920 C   0  0  0  0  0  3  0  0  0  0  0  0
  -21.0210   -5.9860   24.9490 C   0  0  0  0  0  3  0  0  0  0  0  0
  -21.3870   -4.6280   24.9110 C   0  0  0  0  0  0  0  0  0  0  0  0
  -21.8790   -4.0630   23.7210 C   0  0  0  0  0  3  0  0  0  0  0  0
  -22.0030   -4.8560   22.5670 C   0  0  0  0  0  0  0  0  0  0  0  0
  -22.4580   -4.3020   21.4180 F   0  0  0  0  0  0  0  0  0  0  0  0
  -21.2630   -3.8610   26.0190 F   0  0  0  0  0  0  0  0  0  0  0  0
  -22.8050  -13.5810   21.2280 C   0  0  0  0  0  0  0  0  0  0  0  0
  -22.1240  -12.8710   22.1200 N   0  0  0  0  0  0  0  0  0  0  0  0
  -22.3420  -14.6160   20.7510 O   0  0  0  0  0  0  0  0  0  0  0  0
  -22.5130  -12.0330   22.5270 H   0  0  0  0  0  0  0  0  0  0  0  0
  -21.2010  -13.1700   22.4010 H   0  0  0  0  0  0  0  0  0  0  0  0
  -25.3830  -15.2620   20.3120 N   0  0  0  0  0  0  0  0  0  0  0  0
  -24.6130  -15.9030   20.4700 H   0  0  0  0  0  0  0  0  0  0  0  0
  -26.1900  -15.7070   19.9020 H   0  0  0  0  0  0  0  0  0  0  0  0
  -30.9690  -18.8820   18.4910 N   0  0  0  0  0  4  0  0  0  0  0  0
  -31.0990  -19.6110   19.1660 H   0  0  0  0  0  0  0  0  0  0  0  0
  -30.7750  -19.3010   17.5990 H   0  0  0  0  0  0  0  0  0  0  0  0
  -31.8240  -18.3620   18.4090 H   0  0  0  0  0  0  0  0  0  0  0  0
  -28.5680  -22.2240   19.9260 C   0  0  0  0  0  0  0  0  0  0  0  0
  -29.1630  -21.0300   20.3410 N   0  0  0  0  0  0  0  0  0  0  0  0
  -27.5520  -22.1540   19.2290 O   0  0  0  0  0  0  0  0  0  0  0  0
  -29.9740  -21.1010   20.9450 H   0  0  0  0  0  0  0  0  0  0  0  0
  -29.0590  -23.7090   20.2930 C   0  0  0  0  0  3  0  0  0  0  0  0
  -28.0410  -24.9420   19.9800 C   0  0  0  0  0  3  0  0  0  0  0  0
  -28.3030  -26.4040   20.2580 O   0  0  0  0  0  0  0  0  0  0  0  0
  -24.6460  -31.8890   23.3280 C   0  0  0  0  0  0  0  0  0  0  0  0
  -27.2140  -27.3150   20.2010 C   0  0  0  0  0  0  0  0  0  0  0  0
  -23.4320  -30.5250   21.6680 C   0  0  0  0  0  3  0  0  0  0  0  0
  -24.8710  -28.9870   20.2110 C   0  0  0  0  0  0  0  0  0  0  0  0
  -25.9780  -30.8140   21.4920 C   0  0  0  0  0  2  0  0  0  0  0  0
  -26.0470  -29.4430   20.8200 C   0  0  0  0  0  0  0  0  0  0  0  0
  -27.2210  -28.6200   20.8040 C   0  0  0  0  0  3  0  0  0  0  0  0
  -26.0130  -26.9360   19.5550 C   0  0  0  0  0  3  0  0  0  0  0  0
  -24.8600  -27.7420   19.5670 C   0  0  0  0  0  3  0  0  0  0  0  0
  -23.6410  -29.8720   20.2770 C   0  0  0  0  0  2  0  0  0  0  0  0
  -24.7040  -31.0940   22.2180 N   0  0  0  0  0  0  0  0  0  0  0  0
  -23.5630  -32.1700   23.8650 O   0  0  0  0  0  0  0  0  0  0  0  0
  -22.7590  -29.4990   22.6120 C   0  0  0  0  0  0  0  0  0  0  0  0
  -21.4330  -29.3240   22.4740 N   0  0  0  0  0  0  0  0  0  0  0  0
  -23.4300  -28.8660   23.4300 O   0  0  0  0  0  0  0  0  0  0  0  0
  -20.9520  -29.8880   21.7870 H   0  0  0  0  0  0  0  0  0  0  0  0
  -18.0510  -28.1210   22.9360 C   0  0  0  0  0  0  0  0  0  0  0  0
  -20.6070  -28.3800   23.2290 C   0  0  0  0  0  3  0  0  0  0  0  0
  -20.7150  -26.9540   22.6400 C   0  0  0  0  0  2  0  0  0  0  0  0
  -19.6210  -26.6400   21.6130 C   0  0  0  0  0  2  0  0  0  0  0  0
  -18.2340  -26.7780   22.2480 C   0  0  0  0  0  2  0  0  0  0  0  0
  -19.1660  -28.8790   23.3820 C   0  0  0  0  0  0  0  0  0  0  0  0
  -18.9410  -30.1350   23.9850 C   0  0  0  0  0  3  0  0  0  0  0  0
  -17.6350  -30.6340   24.1470 C   0  0  0  0  0  3  0  0  0  0  0  0
  -16.5350  -29.8720   23.7170 C   0  0  0  0  0  3  0  0  0  0  0  0
  -16.7440  -28.6170   23.1190 C   0  0  0  0  0  3  0  0  0  0  0  0
  -25.9310  -32.5040   23.9590 C   0  0  0  0  0  3  0  0  0  0  0  0
  -26.4170  -31.7350   25.2490 C   0  0  1  0  0  0  0  0  0  0  0  0
  -25.3060  -31.5250   26.3040 C   0  0  0  0  0  1  0  0  0  0  0  0
  -26.9810  -30.3430   24.8770 C   0  0  0  0  0  1  0  0  0  0  0  0
  -27.5750  -32.5130   25.9180 C   0  0  0  0  0  1  0  0  0  0  0  0
  -25.6430  -33.9100   24.2780 N   0  0  0  0  0  0  0  0  0  0  0  0
  -25.9650  -34.9500   23.4960 C   0  0  0  0  0  0  0  0  0  0  0  0
  -26.6050  -34.8250   22.4490 O   0  0  0  0  0  0  0  0  0  0  0  0
  -25.0740  -34.0810   25.0930 H   0  0  0  0  0  0  0  0  0  0  0  0
  -24.2330  -36.7470   23.1800 C   0  0  0  0  0  1  0  0  0  0  0  0
  -25.5030  -36.3490   23.9470 C   0  0  0  0  0  3  0  0  0  0  0  0
  -27.6690  -37.2440   24.6830 C   0  0  0  0  0  1  0  0  0  0  0  0
  -26.5350  -37.3940   23.7730 N   0  0  0  0  0  0  0  0  0  0  0  0
  -26.1390  -38.3200   23.9100 H   0  0  0  0  0  0  0  0  0  0  0  0
  2  1  1  1
  3  1  1  6
  3  4  1  0
  3  2  1  0
  4 50  1  0
  4  2  1  0
  5 15  1  0
  5  2  1  0
  6 45  1  0
  6  3  1  0
  6  5  1  0
  7 15  1  0
  8 13  1  0
  9 10  1  0
  9  8  1  0
 11 10  1  0
 11 20  1  0
 11 12  1  0
 13  7  1  0
 13 12  1  0
 14  7  2  0
 15 16  1  0
 17 18  2  0
 18 37  1  0
 19 18  1  0
 19 22  1  0
 20 21  1  0
 20 17  1  0
 21 19  2  0
 22 23  1  0
 23 24  2  0
 25 28  1  0
 25 24  1  0
 26 25  2  0
 27 26  1  0
 27 22  2  0
 28 29  1  0
 29 30  1  0
 30 31  2  0
 32 31  1  0
 32 36  1  0
 33 32  2  0
 34 29  2  0
 34 33  1  0
 35 34  1  0
 37 38  1  0
 38 41  1  0
 38 40  1  0
 39 37  2  0
 42 17  1  0
 42 43  1  0
 44 42  1  0
 45 46  1  0
 47 45  1  0
 48 45  1  0
 49 53  1  0
 49 50  1  0
 50 52  1  0
 51 49  2  0
 54 55  1  0
 54 53  2  0
 56 67  2  0
 57 55  1  0
 57 62  1  0
 58 66  1  0
 58 68  1  0
 59 65  1  0
 59 61  1  0
 60 66  1  0
 61 60  1  0
 62 61  2  0
 63 64  1  0
 63 57  2  0
 64 59  2  0
 65 58  1  0
 66 56  1  0
 68 70  2  0
 69 68  1  0
 71 69  1  0
 72 81  2  0
 72 77  1  0
 73 69  1  0
 73 77  1  0
 74 73  1  0
 75 76  1  0
 75 74  1  0
 76 72  1  0
 77 78  2  0
 78 79  1  0
 80 79  2  0
 81 80  1  0
 82 56  1  0
 82 87  1  0
 82 83  1  0
 83 86  1  1
 83 84  1  0
 85 83  1  0
 87 90  1  0
 88 92  1  0
 88 87  1  0
 89 88  2  0
 92 91  1  0
 94 95  1  0
 94 92  1  0
 94 93  1  0
M  ISO  4   7 100  15 100  54 101  55 101
M  END
>  <TORSDO>  (50) 
F 20

>  <SCORE>  (50) 
-14.133

>  <name>  (50) 
49

>  <ligand_id>  (50) 
49

>  <original_smiles>  (50) 
[H]c1c([H])c([H])c2c(c1[H])C([H])([H])C([H])([H])C([H])([H])C2([H])N([H])C(=O)C1([H])N(C(=O)C([H])(N([H])C(=O)C([H])(N([H])C([H])([H])[H])C([H])([H])[H])C(C([H])([H])[H])(C([H])([H])[H])C([H])([H])[H])C([H])([H])c2c([H])c(OC([H])([H])C([H])([H])C(=O)N([H])C3([H])C4([H])C([H])([H])C3([H])C([H])([N+]([H])([H])[H])C4([H])N([H])C(=O)N3C([H])([H])C([H])([H])C([H])([H])C([H])(n4nc(-c5c([H])c([H])c(Oc6c([H])c([H])c(F)c([H])c6F)c([H])c5[H])c(C(=O)N([H])[H])c4N([H])[H])C3([H])[H])c([H])c([H])c2C1([H])[H]

>  <smiles>  (50) 
[H]c1c([H])c([H])c2c(c1[H])C([H])([H])C([H])([H])C([H])([H])C2([H])N([H])C(=O)C1([H])N(C(=O)C([H])(N([H])C(=O)C([H])(N([H])C([H])([H])[H])C([H])([H])[H])C(C([H])([H])[H])(C([H])([H])[H])C([H])([H])[H])C([H])([H])c2c([H])c(OC([H])([H])C([H])([H])C(=O)N([H])C3([H])C4([H])C([H])([H])C3([H])C([H])([N+]([H])([H])[H])C4([H])N([H])C(=O)N3C([H])([H])C([H])([H])C([H])([H])C([H])(n4nc(-c5c([H])c([H])c(Oc6c([H])c([H])c(F)c([H])c6F)c([H])c5[H])c(C(=O)N([H])[H])c4N([H])[H])C3([H])[H])c([H])c([H])c2C1([H])[H]

$$$$
50:0:0
     RDKit          3D

 94104  0  0  1  0  0  0  0  0999 V2000
  -31.3920  -21.8110   17.9710 C   0  0  0  0  0  2  0  0  0  0  0  0
  -30.9340  -20.5480   18.6740 C   0  0  0  0  0  2  0  0  0  0  0  0
  -30.7260  -22.9690   18.7040 C   0  0  0  0  0  2  0  0  0  0  0  0
  -29.7030  -20.9130   19.5260 C   0  0  0  0  0  3  0  0  0  0  0  0
  -29.8490  -22.4560   19.7910 N   0  0  2  0  0  4  0  0  0  0  0  0
  -30.4320  -22.4780   20.6180 H   0  0  0  0  0  0  0  0  0  0  0  0
  -30.9070  -14.7710   19.8700 C   0  0  0  0  0  0  0  0  0  0  0  0
  -30.5560  -12.5250   18.7970 C   0  0  0  0  0  2  0  0  0  0  0  0
  -29.5170  -12.6230   17.6590 C   0  0  0  0  0  2  0  0  0  0  0  0
  -28.0900  -12.4470   18.2090 C   0  0  0  0  0  2  0  0  0  0  0  0
  -27.8360  -13.2980   19.4830 C   0  0  0  0  0  3  0  0  0  0  0  0
  -28.9880  -13.1580   20.4980 C   0  0  0  0  0  2  0  0  0  0  0  0
  -30.2210  -13.5650   19.8100 N   0  0  0  0  0  0  0  0  0  0  0  0
  -32.0230  -14.8130   19.3420 O   0  0  0  0  0  0  0  0  0  0  0  0
  -29.6220  -19.8460   20.7270 C   0  0  0  0  0  0  0  0  0  0  0  0
  -31.5040  -17.6430   22.1880 C   0  0  0  0  0  2  0  0  0  0  0  0
  -32.0540  -17.6120   20.7480 C   0  0  0  0  0  2  0  0  0  0  0  0
  -29.5660  -16.2070   21.4950 C   0  0  0  0  0  2  0  0  0  0  0  0
  -29.9800  -17.6410   21.9270 C   0  0  0  0  0  3  0  0  0  0  0  0
  -30.7370  -17.4270   19.9510 C   0  0  0  0  0  3  0  0  0  0  0  0
  -29.9140  -18.4530   20.7130 N   0  0  0  0  0  0  0  0  0  0  0  0
  -30.2750  -15.9810   20.2320 N   0  0  0  0  0  0  0  0  0  0  0  0
  -29.2320  -20.3400   21.7890 O   0  0  0  0  0  0  0  0  0  0  0  0
  -25.5480  -13.8900   20.4760 C   0  0  0  0  0  0  0  0  0  0  0  0
  -24.5030  -13.1180   20.9010 C   0  0  0  0  0  0  0  0  0  0  0  0
  -24.9250  -11.7620   20.7490 C   0  0  0  0  0  0  0  0  0  0  0  0
  -26.5400  -13.0060   20.0860 N   0  0  0  0  0  0  0  0  0  0  0  0
  -26.1780  -11.7170   20.3100 N   0  0  0  0  0  0  0  0  0  0  0  0
  -24.1880  -10.5070   20.9380 C   0  0  0  0  0  0  0  0  0  0  0  0
  -24.6190   -9.5280   21.8610 C   0  0  0  0  0  3  0  0  0  0  0  0
  -23.8820   -8.3360   22.0390 C   0  0  0  0  0  3  0  0  0  0  0  0
  -22.7000   -8.1160   21.2930 C   0  0  0  0  0  0  0  0  0  0  0  0
  -22.2870   -9.0830   20.3580 C   0  0  0  0  0  3  0  0  0  0  0  0
  -23.0250  -10.2650   20.1790 C   0  0  0  0  0  3  0  0  0  0  0  0
  -21.9330   -6.9790   21.3810 O   0  0  0  0  0  0  0  0  0  0  0  0
  -21.8100   -6.2830   22.5570 C   0  0  0  0  0  0  0  0  0  0  0  0
  -21.2760   -6.8780   23.7220 C   0  0  0  0  0  3  0  0  0  0  0  0
  -21.0980   -6.1070   24.8870 C   0  0  0  0  0  3  0  0  0  0  0  0
  -21.4480   -4.7430   24.8910 C   0  0  0  0  0  0  0  0  0  0  0  0
  -21.9760   -4.1480   23.7310 C   0  0  0  0  0  3  0  0  0  0  0  0
  -22.1520   -4.9160   22.5670 C   0  0  0  0  0  0  0  0  0  0  0  0
  -22.6400   -4.3330   21.4460 F   0  0  0  0  0  0  0  0  0  0  0  0
  -21.2710   -4.0000   26.0090 F   0  0  0  0  0  0  0  0  0  0  0  0
  -23.1490  -13.6080   21.3300 C   0  0  0  0  0  0  0  0  0  0  0  0
  -22.4880  -12.8810   22.2250 N   0  0  0  0  0  0  0  0  0  0  0  0
  -22.6910  -14.6690   20.9110 O   0  0  0  0  0  0  0  0  0  0  0  0
  -22.8720  -12.0220   22.5910 H   0  0  0  0  0  0  0  0  0  0  0  0
  -21.5840  -13.1920   22.5520 H   0  0  0  0  0  0  0  0  0  0  0  0
  -25.7320  -15.2670   20.3660 N   0  0  0  0  0  0  0  0  0  0  0  0
  -25.0060  -15.9280   20.6140 H   0  0  0  0  0  0  0  0  0  0  0  0
  -26.5670  -15.7090   20.0020 H   0  0  0  0  0  0  0  0  0  0  0  0
  -28.6960  -23.4720   20.1210 C   0  0  0  0  0  2  0  0  0  0  0  0
  -28.6740  -25.0110   19.4910 C   0  0  0  0  0  2  0  0  0  0  0  0
  -28.4260  -26.3310   20.1930 O   0  0  0  0  0  0  0  0  0  0  0  0
  -24.6500  -31.7990   23.0640 C   0  0  0  0  0  0  0  0  0  0  0  0
  -27.3060  -27.1900   20.0480 C   0  0  0  0  0  0  0  0  0  0  0  0
  -23.4670  -30.3930   21.4140 C   0  0  0  0  0  3  0  0  0  0  0  0
  -24.9380  -28.8340   19.9970 C   0  0  0  0  0  0  0  0  0  0  0  0
  -26.0090  -30.7040   21.2580 C   0  0  0  0  0  2  0  0  0  0  0  0
  -26.0990  -29.3200   20.6110 C   0  0  0  0  0  0  0  0  0  0  0  0
  -27.2770  -28.5080   20.6280 C   0  0  0  0  0  3  0  0  0  0  0  0
  -26.1250  -26.7720   19.3990 C   0  0  0  0  0  3  0  0  0  0  0  0
  -24.9580  -27.5710   19.3800 C   0  0  0  0  0  3  0  0  0  0  0  0
  -23.6970  -29.7100   20.0370 C   0  0  0  0  0  2  0  0  0  0  0  0
  -24.7280  -30.9860   21.9670 N   0  0  0  0  0  0  0  0  0  0  0  0
  -23.5610  -32.0750   23.5890 O   0  0  0  0  0  0  0  0  0  0  0  0
  -22.7950  -29.3820   22.3730 C   0  0  0  0  0  0  0  0  0  0  0  0
  -21.4640  -29.2290   22.2600 N   0  0  0  0  0  0  0  0  0  0  0  0
  -23.4720  -28.7370   23.1780 O   0  0  0  0  0  0  0  0  0  0  0  0
  -20.9770  -29.8010   21.5840 H   0  0  0  0  0  0  0  0  0  0  0  0
  -18.0700  -28.1040   22.8140 C   0  0  0  0  0  0  0  0  0  0  0  0
  -20.6390  -28.2960   23.0290 C   0  0  0  0  0  3  0  0  0  0  0  0
  -20.6920  -26.8760   22.4210 C   0  0  0  0  0  2  0  0  0  0  0  0
  -19.5610  -26.6030   21.4250 C   0  0  0  0  0  2  0  0  0  0  0  0
  -18.1970  -26.7670   22.1030 C   0  0  0  0  0  2  0  0  0  0  0  0
  -19.2160  -28.8290   23.2350 C   0  0  0  0  0  0  0  0  0  0  0  0
  -19.0430  -30.0820   23.8620 C   0  0  0  0  0  3  0  0  0  0  0  0
  -17.7550  -30.6110   24.0680 C   0  0  0  0  0  3  0  0  0  0  0  0
  -16.6230  -29.8820   23.6630 C   0  0  0  0  0  3  0  0  0  0  0  0
  -16.7820  -28.6300   23.0430 C   0  0  0  0  0  3  0  0  0  0  0  0
  -25.9250  -32.4370   23.6990 C   0  0  0  0  0  3  0  0  0  0  0  0
  -25.5890  -33.8180   24.0830 N   0  0  0  0  0  0  0  0  0  0  0  0
  -25.8880  -34.9060   23.3620 C   0  0  0  0  0  0  0  0  0  0  0  0
  -26.5480  -34.8550   22.3190 O   0  0  0  0  0  0  0  0  0  0  0  0
  -25.0010  -33.9300   24.8960 H   0  0  0  0  0  0  0  0  0  0  0  0
  -24.1190  -36.6740   23.0990 C   0  0  0  0  0  1  0  0  0  0  0  0
  -25.3800  -36.2660   23.8770 C   0  0  0  0  0  3  0  0  0  0  0  0
  -27.5010  -37.1710   24.7190 C   0  0  0  0  0  1  0  0  0  0  0  0
  -26.3880  -37.3450   23.7900 N   0  0  0  0  0  0  0  0  0  0  0  0
  -25.9640  -38.2510   23.9690 H   0  0  0  0  0  0  0  0  0  0  0  0
  -26.4680  -31.6360   24.9460 C   0  0  1  0  0  0  0  0  0  0  0  0
  -25.3880  -31.3380   26.0120 C   0  0  0  0  0  1  0  0  0  0  0  0
  -27.0800  -30.2850   24.5070 C   0  0  0  0  0  1  0  0  0  0  0  0
  -27.6050  -32.4340   25.6290 C   0  0  0  0  0  1  0  0  0  0  0  0
  1  2  1  0
  1  3  1  0
  2  4  1  0
  3  5  1  0
  4  5  1  0
  4 15  1  0
  5 52  1  0
  5  6  1  1
  7 22  1  0
  8 13  1  0
  9 10  1  0
  9  8  1  0
 11 10  1  0
 11 27  1  0
 11 12  1  0
 13  7  1  0
 13 12  1  0
 14  7  2  0
 15 23  2  0
 17 16  1  0
 19 18  1  0
 19 16  1  0
 20 22  1  0
 20 21  1  0
 20 17  1  0
 21 15  1  0
 21 19  1  0
 22 18  1  0
 24 25  2  0
 25 44  1  0
 26 25  1  0
 26 29  1  0
 27 28  1  0
 27 24  1  0
 28 26  2  0
 29 30  1  0
 30 31  2  0
 32 35  1  0
 32 31  1  0
 33 32  2  0
 34 33  1  0
 34 29  2  0
 35 36  1  0
 36 41  2  0
 36 37  1  0
 37 38  2  0
 38 39  1  0
 39 43  1  0
 40 39  2  0
 41 40  1  0
 42 41  1  0
 44 45  1  0
 45 48  1  0
 45 47  1  0
 46 44  2  0
 49 24  1  0
 49 50  1  0
 51 49  1  0
 53 52  1  0
 53 54  1  0
 55 66  2  0
 56 54  1  0
 56 61  1  0
 57 65  1  0
 57 67  1  0
 58 64  1  0
 58 60  1  0
 59 65  1  0
 60 61  2  0
 60 59  1  0
 62 56  2  0
 63 62  1  0
 63 58  2  0
 64 57  1  0
 65 55  1  0
 67 69  2  0
 68 67  1  0
 70 68  1  0
 71 80  2  0
 71 76  1  0
 72 68  1  0
 72 76  1  0
 73 72  1  0
 74 75  1  0
 74 73  1  0
 75 71  1  0
 76 77  2  0
 77 78  1  0
 79 78  2  0
 80 79  1  0
 81 55  1  0
 81 82  1  0
 81 91  1  0
 82 85  1  0
 83 87  1  0
 83 82  1  0
 84 83  2  0
 87 86  1  0
 89 87  1  0
 89 90  1  0
 89 88  1  0
 91 94  1  1
 91 92  1  0
 93 91  1  0
M  ISO  4   7 100  22 100  53 101  54 101
M  END
>  <TORSDO>  (51) 
F 18

>  <SCORE>  (51) 
-13.509

>  <name>  (51) 
50

>  <ligand_id>  (51) 
50

>  <original_smiles>  (51) 
[H]c1c([H])c([H])c2c(c1[H])C([H])([H])C([H])([H])C([H])([H])C2([H])N([H])C(=O)C1([H])N(C(=O)C([H])(N([H])C(=O)C([H])(N([H])C([H])([H])[H])C([H])([H])[H])C(C([H])([H])[H])(C([H])([H])[H])C([H])([H])[H])C([H])([H])c2c([H])c(OC([H])([H])C([H])([H])[N+]3([H])C([H])([H])C([H])([H])C([H])([H])C3([H])C(=O)N3C4([H])N(C(=O)N5C([H])([H])C([H])([H])C([H])([H])C([H])(n6nc(-c7c([H])c([H])c(Oc8c([H])c([H])c(F)c([H])c8F)c([H])c7[H])c(C(=O)N([H])[H])c6N([H])[H])C5([H])[H])C([H])([H])C3([H])C([H])([H])C4([H])[H])c([H])c([H])c2C1([H])[H]

>  <smiles>  (51) 
[H]c1c([H])c([H])c2c(c1[H])C([H])([H])C([H])([H])C([H])([H])C2([H])N([H])C(=O)C1([H])N(C(=O)C([H])(N([H])C(=O)C([H])(N([H])C([H])([H])[H])C([H])([H])[H])C(C([H])([H])[H])(C([H])([H])[H])C([H])([H])[H])C([H])([H])c2c([H])c(OC([H])([H])C([H])([H])[N+]3([H])C([H])([H])C([H])([H])C([H])([H])C3([H])C(=O)N3C4([H])N(C(=O)N5C([H])([H])C([H])([H])C([H])([H])C([H])(n6nc(-c7c([H])c([H])c(Oc8c([H])c([H])c(F)c([H])c8F)c([H])c7[H])c(C(=O)N([H])[H])c6N([H])[H])C5([H])[H])C([H])([H])C3([H])C([H])([H])C4([H])[H])c([H])c([H])c2C1([H])[H]

$$$$
51:0:0
     RDKit          3D

 93102  0  0  1  0  0  0  0  0999 V2000
  -27.0650  -20.2160   20.1090 C   0  0  0  0  0  2  0  0  0  0  0  0
  -26.0710  -22.4860   19.6870 C   0  0  0  0  0  2  0  0  0  0  0  0
  -27.7840  -22.1030   21.2740 C   0  0  0  0  0  2  0  0  0  0  0  0
  -28.3790  -20.7510   19.4690 C   0  0  0  0  0  3  0  0  0  0  0  0
  -26.4960  -21.4780   20.7670 C   0  0  0  0  0  3  0  0  0  0  0  0
  -27.4250  -23.0640   19.1900 C   0  0  0  0  0  3  0  0  0  0  0  0
  -28.4130  -22.1950   19.9430 N   0  0  1  0  0  4  0  0  0  0  0  0
  -29.3590  -22.5360   19.9460 H   0  0  0  0  0  0  0  0  0  0  0  0
  -29.6600  -19.9210   19.8970 C   0  0  0  0  0  0  0  0  0  0  0  0
  -30.6610  -20.4710   20.3530 O   0  0  0  0  0  0  0  0  0  0  0  0
  -29.6300  -18.3550   19.7230 C   0  0  0  0  0  2  0  0  0  0  0  0
  -30.8630  -17.5000   20.2230 C   0  0  0  0  0  2  0  0  0  0  0  0
  -31.2780  -14.9890   19.8390 C   0  0  0  0  0  0  0  0  0  0  0  0
  -31.0040  -12.7030   18.9610 C   0  0  0  0  0  2  0  0  0  0  0  0
  -30.0160  -12.7090   17.7720 C   0  0  0  0  0  2  0  0  0  0  0  0
  -28.5480  -12.6480   18.2480 C   0  0  0  0  0  2  0  0  0  0  0  0
  -28.2390  -13.6300   19.4030 C   0  0  0  0  0  3  0  0  0  0  0  0
  -29.3250  -13.5160   20.4980 C   0  0  0  0  0  2  0  0  0  0  0  0
  -30.6300  -13.7950   19.8720 N   0  0  0  0  0  0  0  0  0  0  0  0
  -32.3720  -15.1310   19.2750 O   0  0  0  0  0  0  0  0  0  0  0  0
  -30.5760  -16.0390   20.3270 N   0  0  0  0  0  0  0  0  0  0  0  0
  -29.7340  -15.7840   20.8200 H   0  0  0  0  0  0  0  0  0  0  0  0
  -25.9240  -14.3580   20.2520 C   0  0  0  0  0  0  0  0  0  0  0  0
  -24.8350  -13.6410   20.6660 C   0  0  0  0  0  0  0  0  0  0  0  0
  -25.1930  -12.2610   20.5580 C   0  0  0  0  0  0  0  0  0  0  0  0
  -26.8960  -13.4140   19.9400 N   0  0  0  0  0  0  0  0  0  0  0  0
  -26.4610  -12.1490   20.1760 N   0  0  0  0  0  0  0  0  0  0  0  0
  -24.3920  -11.0420   20.7520 C   0  0  0  0  0  0  0  0  0  0  0  0
  -24.7670  -10.0510   21.6880 C   0  0  0  0  0  3  0  0  0  0  0  0
  -23.9680   -8.9020   21.8690 C   0  0  0  0  0  3  0  0  0  0  0  0
  -22.7840   -8.7320   21.1150 C   0  0  0  0  0  0  0  0  0  0  0  0
  -22.4260   -9.7130   20.1740 C   0  0  0  0  0  3  0  0  0  0  0  0
  -23.2240  -10.8530   19.9880 C   0  0  0  0  0  3  0  0  0  0  0  0
  -21.9590   -7.6370   21.2100 O   0  0  0  0  0  0  0  0  0  0  0  0
  -21.8120   -6.9460   22.3870 C   0  0  0  0  0  0  0  0  0  0  0  0
  -21.3390   -7.5670   23.5650 C   0  0  0  0  0  3  0  0  0  0  0  0
  -21.1390   -6.8040   24.7330 C   0  0  0  0  0  3  0  0  0  0  0  0
  -21.3970   -5.4210   24.7230 C   0  0  0  0  0  0  0  0  0  0  0  0
  -21.8640   -4.7990   23.5530 C   0  0  0  0  0  3  0  0  0  0  0  0
  -22.0670   -5.5590   22.3870 C   0  0  0  0  0  0  0  0  0  0  0  0
  -22.4980   -4.9490   21.2560 F   0  0  0  0  0  0  0  0  0  0  0  0
  -21.1970   -4.6880   25.8430 F   0  0  0  0  0  0  0  0  0  0  0  0
  -23.4890  -14.1980   21.0340 C   0  0  0  0  0  0  0  0  0  0  0  0
  -22.7670  -13.5290   21.9290 N   0  0  0  0  0  0  0  0  0  0  0  0
  -23.0890  -15.2630   20.5660 O   0  0  0  0  0  0  0  0  0  0  0  0
  -23.0950  -12.6590   22.3230 H   0  0  0  0  0  0  0  0  0  0  0  0
  -21.8700  -13.8920   22.2270 H   0  0  0  0  0  0  0  0  0  0  0  0
  -26.1800  -15.7160   20.0840 N   0  0  0  0  0  0  0  0  0  0  0  0
  -25.4580  -16.4250   20.1440 H   0  0  0  0  0  0  0  0  0  0  0  0
  -26.9990  -16.0150   19.5730 H   0  0  0  0  0  0  0  0  0  0  0  0
  -27.4650  -24.6430   19.4300 C   0  0  0  0  0  3  0  0  0  0  0  0
  -28.2760  -25.5410   18.4100 C   0  0  0  0  0  3  0  0  0  0  0  0
  -28.1210  -26.9940   18.3190 O   0  0  0  0  0  0  0  0  0  0  0  0
  -24.5850  -31.3250   22.6960 C   0  0  0  0  0  0  0  0  0  0  0  0
  -26.9300  -27.6770   18.4980 C   0  0  0  0  0  0  0  0  0  0  0  0
  -23.2140  -30.2120   20.9510 C   0  0  0  0  0  3  0  0  0  0  0  0
  -24.5200  -29.0730   19.0640 C   0  0  0  0  0  0  0  0  0  0  0  0
  -25.6880  -30.7160   20.5460 C   0  0  0  0  0  2  0  0  0  0  0  0
  -25.7230  -29.4950   19.6420 C   0  0  0  0  0  0  0  0  0  0  0  0
  -26.9230  -28.8000   19.3710 C   0  0  0  0  0  3  0  0  0  0  0  0
  -25.7260  -27.3420   17.8510 C   0  0  0  0  0  3  0  0  0  0  0  0
  -24.5180  -28.0030   18.1570 C   0  0  0  0  0  3  0  0  0  0  0  0
  -23.2570  -29.8190   19.4480 C   0  0  0  0  0  2  0  0  0  0  0  0
  -24.5140  -30.7600   21.4550 N   0  0  0  0  0  0  0  0  0  0  0  0
  -23.5730  -31.4280   23.4050 O   0  0  0  0  0  0  0  0  0  0  0  0
  -22.7330  -28.9840   21.7630 C   0  0  0  0  0  0  0  0  0  0  0  0
  -21.4220  -28.7090   21.6940 N   0  0  0  0  0  0  0  0  0  0  0  0
  -23.5260  -28.3010   22.4110 O   0  0  0  0  0  0  0  0  0  0  0  0
  -20.8480  -29.2920   21.1000 H   0  0  0  0  0  0  0  0  0  0  0  0
  -18.2140  -27.0990   22.2140 C   0  0  0  0  0  0  0  0  0  0  0  0
  -20.7510  -27.5870   22.3530 C   0  0  0  0  0  3  0  0  0  0  0  0
  -20.9290  -26.2860   21.5400 C   0  0  0  0  0  2  0  0  0  0  0  0
  -19.7780  -26.0260   20.5660 C   0  0  0  0  0  2  0  0  0  0  0  0
  -18.4630  -25.8870   21.3350 C   0  0  0  0  0  2  0  0  0  0  0  0
  -19.2840  -27.9040   22.6860 C   0  0  0  0  0  0  0  0  0  0  0  0
  -18.9930  -29.0410   23.4640 C   0  0  0  0  0  3  0  0  0  0  0  0
  -17.6690  -29.3890   23.7760 C   0  0  0  0  0  3  0  0  0  0  0  0
  -16.6150  -28.5800   23.3280 C   0  0  0  0  0  3  0  0  0  0  0  0
  -16.8870  -27.4420   22.5500 C   0  0  0  0  0  3  0  0  0  0  0  0
  -25.9210  -31.8940   23.2670 C   0  0  0  0  0  3  0  0  0  0  0  0
  -25.6080  -33.1700   23.9240 N   0  0  0  0  0  0  0  0  0  0  0  0
  -25.7960  -34.3770   23.3710 C   0  0  0  0  0  0  0  0  0  0  0  0
  -26.3200  -34.5290   22.2670 O   0  0  0  0  0  0  0  0  0  0  0  0
  -25.1180  -33.1180   24.8030 H   0  0  0  0  0  0  0  0  0  0  0  0
  -23.9610  -36.0780   23.6310 C   0  0  0  0  0  1  0  0  0  0  0  0
  -25.3230  -35.6090   24.1690 C   0  0  0  0  0  3  0  0  0  0  0  0
  -27.5130  -36.4510   24.8790 C   0  0  0  0  0  1  0  0  0  0  0  0
  -26.2840  -36.7310   24.1420 N   0  0  0  0  0  0  0  0  0  0  0  0
  -25.8660  -37.5710   24.5280 H   0  0  0  0  0  0  0  0  0  0  0  0
  -26.6380  -30.9150   24.2770 C   0  0  1  0  0  0  0  0  0  0  0  0
  -25.7120  -30.3950   25.3980 C   0  0  0  0  0  1  0  0  0  0  0  0
  -27.2030  -29.6840   23.5350 C   0  0  0  0  0  1  0  0  0  0  0  0
  -27.8450  -31.6210   24.9420 C   0  0  0  0  0  1  0  0  0  0  0  0
  1  5  1  0
  4  9  1  0
  4  7  1  0
  4  1  1  0
  5  2  1  0
  5  3  1  0
  6 51  1  0
  6  2  1  0
  6  7  1  0
  7  8  1  1
  7  3  1  0
  9 10  2  0
 11  9  1  0
 11 12  1  0
 12 21  1  0
 13 19  1  0
 13 21  1  0
 14 19  1  0
 15 16  1  0
 15 14  1  0
 17 16  1  0
 17 26  1  0
 17 18  1  0
 19 18  1  0
 20 13  2  0
 21 22  1  0
 23 24  2  0
 24 43  1  0
 25 24  1  0
 25 28  1  0
 26 27  1  0
 26 23  1  0
 27 25  2  0
 28 29  1  0
 29 30  2  0
 31 34  1  0
 31 30  1  0
 32 31  2  0
 33 32  1  0
 33 28  2  0
 34 35  1  0
 35 36  1  0
 36 37  2  0
 38 37  1  0
 38 42  1  0
 39 38  2  0
 40 35  2  0
 40 39  1  0
 41 40  1  0
 43 44  1  0
 44 47  1  0
 44 46  1  0
 45 43  2  0
 48 49  1  0
 48 23  1  0
 50 48  1  0
 52 51  2  0
 53 52  1  0
 53 55  1  0
 54 65  2  0
 55 60  1  0
 56 64  1  0
 56 66  1  0
 57 63  1  0
 57 59  1  0
 58 64  1  0
 59 58  1  0
 60 59  2  0
 61 62  1  0
 61 55  2  0
 62 57  2  0
 63 56  1  0
 64 54  1  0
 66 68  2  0
 67 66  1  0
 69 67  1  0
 70 79  2  0
 70 75  1  0
 71 67  1  0
 71 75  1  0
 72 71  1  0
 73 74  1  0
 73 72  1  0
 74 70  1  0
 75 76  2  0
 76 77  1  0
 78 77  2  0
 79 78  1  0
 80 54  1  0
 80 81  1  0
 80 90  1  0
 81 84  1  0
 82 81  1  0
 82 86  1  0
 83 82  2  0
 86 85  1  0
 88 86  1  0
 88 89  1  0
 88 87  1  0
 90 93  1  1
 90 91  1  0
 92 90  1  0
M  ISO  4  13 100  21 100  52 101  53 101
M  END
>  <TORSDO>  (52) 
F 21

>  <SCORE>  (52) 
-8.421

>  <name>  (52) 
51

>  <ligand_id>  (52) 
51

>  <original_smiles>  (52) 
[H]c1c([H])c([H])c2c(c1[H])C([H])([H])C([H])([H])C([H])([H])C2([H])N([H])C(=O)C1([H])N(C(=O)C([H])(N([H])C(=O)C([H])(N([H])C([H])([H])[H])C([H])([H])[H])C(C([H])([H])[H])(C([H])([H])[H])C([H])([H])[H])C([H])([H])c2c([H])c(OC([H])([H])C([H])([H])C3([H])C([H])([H])C4([H])C([H])([H])C([H])(C(=O)C([H])([H])C([H])([H])N([H])C(=O)N5C([H])([H])C([H])([H])C([H])([H])C([H])(n6nc(-c7c([H])c([H])c(Oc8c([H])c([H])c(F)c([H])c8F)c([H])c7[H])c(C(=O)N([H])[H])c6N([H])[H])C5([H])[H])[N+]3([H])C4([H])[H])c([H])c([H])c2C1([H])[H]

>  <smiles>  (52) 
[H]c1c([H])c([H])c2c(c1[H])C([H])([H])C([H])([H])C([H])([H])C2([H])N([H])C(=O)C1([H])N(C(=O)C([H])(N([H])C(=O)C([H])(N([H])C([H])([H])[H])C([H])([H])[H])C(C([H])([H])[H])(C([H])([H])[H])C([H])([H])[H])C([H])([H])c2c([H])c(OC([H])([H])C([H])([H])C3([H])C([H])([H])C4([H])C([H])([H])C([H])(C(=O)C([H])([H])C([H])([H])N([H])C(=O)N5C([H])([H])C([H])([H])C([H])([H])C([H])(n6nc(-c7c([H])c([H])c(Oc8c([H])c([H])c(F)c([H])c8F)c([H])c7[H])c(C(=O)N([H])[H])c6N([H])[H])C5([H])[H])[N+]3([H])C4([H])[H])c([H])c([H])c2C1([H])[H]

$$$$
52:0:0
     RDKit          3D

 99109  0  0  1  0  0  0  0  0999 V2000
  -30.9470  -20.6260   18.7660 C   0  0  0  0  0  3  0  0  0  0  0  0
  -31.2070  -18.2110   19.1720 C   0  0  0  0  0  3  0  0  0  0  0  0
  -30.1650  -20.7260   19.9330 C   0  0  0  0  0  0  0  0  0  0  0  0
  -29.9090  -19.5710   20.6990 C   0  0  0  0  0  0  0  0  0  0  0  0
  -31.4660  -19.3640   18.3850 C   0  0  0  0  0  0  0  0  0  0  0  0
  -30.4440  -18.2840   20.3610 C   0  0  0  0  0  0  0  0  0  0  0  0
  -28.5860  -22.8140   19.6210 C   0  0  0  0  0  0  0  0  0  0  0  0
  -29.0520  -19.9350   21.8870 C   0  0  0  0  0  3  0  0  0  0  0  0
  -28.9140  -21.4850   21.8340 C   0  0  0  0  0  3  0  0  0  0  0  0
  -30.3800  -23.3670   20.6180 C   0  0  0  0  0  2  0  0  0  0  0  0
  -29.2910  -24.1940   19.8630 C   0  0  0  0  0  3  0  0  0  0  0  0
  -29.5850  -22.0220   20.5430 C   0  0  1  0  0  0  0  0  0  0  0  0
  -27.6280  -22.4700   18.9260 O   0  0  0  0  0  0  0  0  0  0  0  0
  -30.3910  -17.0480   21.3040 C   0  0  0  0  0  2  0  0  0  0  0  0
  -30.7540  -14.6560   20.4050 C   0  0  0  0  0  0  0  0  0  0  0  0
  -30.5120  -12.4530   19.2880 C   0  0  0  0  0  2  0  0  0  0  0  0
  -29.5760  -12.6080   18.0690 C   0  0  0  0  0  2  0  0  0  0  0  0
  -28.1000  -12.4490   18.4890 C   0  0  0  0  0  2  0  0  0  0  0  0
  -27.7390  -13.3060   19.7330 C   0  0  0  0  0  3  0  0  0  0  0  0
  -28.7890  -13.1340   20.8530 C   0  0  0  0  0  2  0  0  0  0  0  0
  -30.1040  -13.4590   20.2800 N   0  0  0  0  0  0  0  0  0  0  0  0
  -31.9260  -14.8050   20.0520 O   0  0  0  0  0  0  0  0  0  0  0  0
  -29.9880  -15.7070   20.7930 N   0  0  0  0  0  0  0  0  0  0  0  0
  -29.0190  -15.4750   20.9480 H   0  0  0  0  0  0  0  0  0  0  0  0
  -25.3320  -13.9080   20.4110 C   0  0  0  0  0  0  0  0  0  0  0  0
  -24.2650  -13.1370   20.7800 C   0  0  0  0  0  0  0  0  0  0  0  0
  -24.7350  -11.7870   20.7800 C   0  0  0  0  0  0  0  0  0  0  0  0
  -26.3850  -13.0300   20.2070 N   0  0  0  0  0  0  0  0  0  0  0  0
  -26.0290  -11.7490   20.4890 N   0  0  0  0  0  0  0  0  0  0  0  0
  -24.0110  -10.5240   20.9860 C   0  0  0  0  0  0  0  0  0  0  0  0
  -24.4430   -9.5710   21.9340 C   0  0  0  0  0  3  0  0  0  0  0  0
  -23.7200   -8.3740   22.1260 C   0  0  0  0  0  3  0  0  0  0  0  0
  -22.5520   -8.1220   21.3680 C   0  0  0  0  0  0  0  0  0  0  0  0
  -22.1400   -9.0620   20.4080 C   0  0  0  0  0  3  0  0  0  0  0  0
  -22.8640  -10.2510   20.2150 C   0  0  0  0  0  3  0  0  0  0  0  0
  -21.8010   -6.9760   21.4680 O   0  0  0  0  0  0  0  0  0  0  0  0
  -21.7580   -6.2420   22.6260 C   0  0  0  0  0  0  0  0  0  0  0  0
  -21.3330   -6.8060   23.8500 C   0  0  0  0  0  3  0  0  0  0  0  0
  -21.2360   -6.0000   25.0010 C   0  0  0  0  0  3  0  0  0  0  0  0
  -21.5530   -4.6290   24.9320 C   0  0  0  0  0  0  0  0  0  0  0  0
  -21.9720   -4.0650   23.7140 C   0  0  0  0  0  3  0  0  0  0  0  0
  -22.0700   -4.8690   22.5640 C   0  0  0  0  0  0  0  0  0  0  0  0
  -22.4530   -4.3150   21.3880 F   0  0  0  0  0  0  0  0  0  0  0  0
  -21.4540   -3.8540   26.0350 F   0  0  0  0  0  0  0  0  0  0  0  0
  -22.8610  -13.6090   21.0270 C   0  0  0  0  0  0  0  0  0  0  0  0
  -22.1280  -12.9240   21.8960 N   0  0  0  0  0  0  0  0  0  0  0  0
  -22.4230  -14.6230   20.4830 O   0  0  0  0  0  0  0  0  0  0  0  0
  -22.4930  -12.1000   22.3520 H   0  0  0  0  0  0  0  0  0  0  0  0
  -21.1840  -13.2190   22.1040 H   0  0  0  0  0  0  0  0  0  0  0  0
  -25.4880  -15.2770   20.2100 N   0  0  0  0  0  0  0  0  0  0  0  0
  -24.7090  -15.9210   20.2980 H   0  0  0  0  0  0  0  0  0  0  0  0
  -26.3300  -15.7230   19.8710 H   0  0  0  0  0  0  0  0  0  0  0  0
  -32.3670  -19.2580   17.1610 C   0  0  0  0  0  2  0  0  0  0  0  0
  -31.5950  -18.9790   15.9450 N   0  0  0  0  0  4  0  0  0  0  0  0
  -31.0810  -18.1240   16.0510 H   0  0  0  0  0  0  0  0  0  0  0  0
  -32.2190  -18.8840   15.1660 H   0  0  0  0  0  0  0  0  0  0  0  0
  -30.9560  -19.7270   15.7550 H   0  0  0  0  0  0  0  0  0  0  0  0
  -28.3960  -25.2760   20.5690 C   0  0  0  0  0  2  0  0  0  0  0  0
  -28.4910  -26.6540   20.0700 O   0  0  0  0  0  0  0  0  0  0  0  0
  -24.7010  -31.9090   23.2000 C   0  0  0  0  0  0  0  0  0  0  0  0
  -27.3340  -27.4320   20.0920 C   0  0  0  0  0  0  0  0  0  0  0  0
  -23.4900  -30.5040   21.5690 C   0  0  0  0  0  3  0  0  0  0  0  0
  -24.9380  -28.9740   20.1270 C   0  0  0  0  0  0  0  0  0  0  0  0
  -26.0170  -30.8660   21.3460 C   0  0  0  0  0  2  0  0  0  0  0  0
  -26.1050  -29.4910   20.7000 C   0  0  0  0  0  0  0  0  0  0  0  0
  -27.3100  -28.7340   20.6670 C   0  0  0  0  0  3  0  0  0  0  0  0
  -26.1410  -26.9480   19.5080 C   0  0  0  0  0  3  0  0  0  0  0  0
  -24.9520  -27.7030   19.5280 C   0  0  0  0  0  3  0  0  0  0  0  0
  -23.6920  -29.8310   20.1880 C   0  0  0  0  0  2  0  0  0  0  0  0
  -24.7550  -31.1070   22.0970 N   0  0  0  0  0  0  0  0  0  0  0  0
  -23.6220  -32.1730   23.7500 O   0  0  0  0  0  0  0  0  0  0  0  0
  -22.8470  -29.4790   22.5340 C   0  0  0  0  0  0  0  0  0  0  0  0
  -21.5210  -29.2900   22.4190 N   0  0  0  0  0  0  0  0  0  0  0  0
  -23.5390  -28.8560   23.3430 O   0  0  0  0  0  0  0  0  0  0  0  0
  -21.0260  -29.8390   21.7300 H   0  0  0  0  0  0  0  0  0  0  0  0
  -18.1590  -28.0700   22.9440 C   0  0  0  0  0  0  0  0  0  0  0  0
  -20.7160  -28.3450   23.1930 C   0  0  0  0  0  3  0  0  0  0  0  0
  -20.8250  -26.9170   22.6110 C   0  0  0  0  0  2  0  0  0  0  0  0
  -19.7170  -26.5900   21.6060 C   0  0  0  0  0  2  0  0  0  0  0  0
  -18.3380  -26.7240   22.2610 C   0  0  0  0  0  2  0  0  0  0  0  0
  -19.2760  -28.8380   23.3650 C   0  0  0  0  0  0  0  0  0  0  0  0
  -19.0540  -30.0980   23.9640 C   0  0  0  0  0  3  0  0  0  0  0  0
  -17.7490  -30.5890   24.1440 C   0  0  0  0  0  3  0  0  0  0  0  0
  -16.6450  -29.8160   23.7440 C   0  0  0  0  0  3  0  0  0  0  0  0
  -16.8530  -28.5570   23.1480 C   0  0  0  0  0  3  0  0  0  0  0  0
  -25.9860  -32.5520   23.8090 C   0  0  0  0  0  3  0  0  0  0  0  0
  -26.5310  -31.7780   25.0730 C   0  0  1  0  0  0  0  0  0  0  0  0
  -25.4540  -31.5180   26.1540 C   0  0  0  0  0  1  0  0  0  0  0  0
  -27.1290  -30.4140   24.6610 C   0  0  0  0  0  1  0  0  0  0  0  0
  -27.6810  -32.5840   25.7240 C   0  0  0  0  0  1  0  0  0  0  0  0
  -25.6650  -33.9420   24.1560 N   0  0  0  0  0  0  0  0  0  0  0  0
  -25.9720  -35.0050   23.4030 C   0  0  0  0  0  0  0  0  0  0  0  0
  -26.6240  -34.9170   22.3590 O   0  0  0  0  0  0  0  0  0  0  0  0
  -25.0970  -34.0860   24.9780 H   0  0  0  0  0  0  0  0  0  0  0  0
  -24.2190  -36.7800   23.0930 C   0  0  0  0  0  1  0  0  0  0  0  0
  -25.4740  -36.3820   23.8840 C   0  0  0  0  0  3  0  0  0  0  0  0
  -27.6130  -37.2750   24.6940 C   0  0  0  0  0  1  0  0  0  0  0  0
  -26.4900  -37.4500   23.7760 N   0  0  0  0  0  0  0  0  0  0  0  0
  -26.0760  -38.3610   23.9530 H   0  0  0  0  0  0  0  0  0  0  0  0
  1  3  1  0
  2  6  2  0
  3 12  1  0
  3  4  2  0
  4  8  1  0
  5  1  2  0
  5  2  1  0
  6  4  1  0
  6 14  1  0
  7 11  1  0
  7 12  1  0
  9  8  2  0
 11 58  1  0
 11 10  1  0
 12 10  1  1
 12  9  1  0
 13  7  2  0
 15 23  1  0
 16 21  1  0
 17 18  1  0
 17 16  1  0
 19 18  1  0
 19 28  1  0
 19 20  1  0
 21 15  1  0
 21 20  1  0
 22 15  2  0
 23 24  1  0
 23 14  1  0
 25 26  2  0
 26 27  1  0
 26 45  1  0
 27 30  1  0
 28 25  1  0
 28 29  1  0
 29 27  2  0
 30 31  1  0
 31 32  2  0
 33 36  1  0
 33 32  1  0
 34 33  2  0
 35 34  1  0
 35 30  2  0
 36 37  1  0
 37 38  1  0
 38 39  2  0
 40 39  1  0
 40 44  1  0
 41 40  2  0
 42 37  2  0
 42 41  1  0
 43 42  1  0
 45 46  1  0
 46 49  1  0
 46 48  1  0
 47 45  2  0
 50 51  1  0
 50 25  1  0
 52 50  1  0
 53  5  1  0
 54 55  1  0
 54 53  1  0
 56 54  1  0
 57 54  1  0
 59 61  1  0
 59 58  1  0
 60 71  2  0
 61 66  1  0
 62 70  1  0
 62 72  1  0
 63 69  1  0
 63 65  1  0
 64 70  1  0
 65 64  1  0
 66 65  2  0
 67 68  1  0
 67 61  2  0
 68 63  2  0
 69 62  1  0
 70 60  1  0
 72 74  2  0
 73 72  1  0
 75 73  1  0
 76 85  2  0
 76 81  1  0
 77 73  1  0
 77 81  1  0
 78 77  1  0
 79 80  1  0
 79 78  1  0
 80 76  1  0
 81 82  2  0
 82 83  1  0
 84 83  2  0
 85 84  1  0
 86 60  1  0
 86 91  1  0
 86 87  1  0
 87 90  1  1
 87 88  1  0
 89 87  1  0
 91 94  1  0
 92 96  1  0
 92 91  1  0
 93 92  2  0
 96 95  1  0
 98 96  1  0
 98 99  1  0
 98 97  1  0
M  ISO  4  15 100  23 100  58 101  59 101
M  END
>  <TORSDO>  (53) 
F 20

>  <SCORE>  (53) 
-13.318

>  <name>  (53) 
52

>  <ligand_id>  (53) 
52

>  <original_smiles>  (53) 
[H]c1c([H])c([H])c2c(c1[H])C([H])([H])C([H])([H])C([H])([H])C2([H])N([H])C(=O)C1([H])N(C(=O)C([H])(N([H])C(=O)C([H])(N([H])C([H])([H])[H])C([H])([H])[H])C(C([H])([H])[H])(C([H])([H])[H])C([H])([H])[H])C([H])([H])c2c([H])c(OC([H])([H])C3([H])C(=O)C4(c5c([H])c(C([H])([H])[N+]([H])([H])[H])c([H])c(C([H])([H])N([H])C(=O)N6C([H])([H])C([H])([H])C([H])([H])C([H])(n7nc(-c8c([H])c([H])c(Oc9c([H])c([H])c(F)c([H])c9F)c([H])c8[H])c(C(=O)N([H])[H])c7N([H])[H])C6([H])[H])c5C([H])([H])C4([H])[H])C3([H])[H])c([H])c([H])c2C1([H])[H]

>  <smiles>  (53) 
[H]c1c([H])c([H])c2c(c1[H])C([H])([H])C([H])([H])C([H])([H])C2([H])N([H])C(=O)C1([H])N(C(=O)C([H])(N([H])C(=O)C([H])(N([H])C([H])([H])[H])C([H])([H])[H])C(C([H])([H])[H])(C([H])([H])[H])C([H])([H])[H])C([H])([H])c2c([H])c(OC([H])([H])C3([H])C(=O)C4(c5c([H])c(C([H])([H])[N+]([H])([H])[H])c([H])c(C([H])([H])N([H])C(=O)N6C([H])([H])C([H])([H])C([H])([H])C([H])(n7nc(-c8c([H])c([H])c(Oc9c([H])c([H])c(F)c([H])c9F)c([H])c8[H])c(C(=O)N([H])[H])c7N([H])[H])C6([H])[H])c5C([H])([H])C4([H])[H])C3([H])[H])c([H])c([H])c2C1([H])[H]

$$$$
53:0:0
     RDKit          3D

 99109  0  0  1  0  0  0  0  0999 V2000
  -28.4600  -22.7650   20.2350 C   0  0  0  0  0  0  0  0  0  0  0  0
  -27.5730  -23.3640   19.6160 O   0  0  0  0  0  0  0  0  0  0  0  0
  -30.1530  -23.1540   22.1890 C   0  0  0  0  0  2  0  0  0  0  0  0
  -30.5200  -24.6040   21.8840 C   0  0  0  0  0  2  0  0  0  0  0  0
  -28.6860  -23.0670   21.7390 C   0  0  0  0  0  3  0  0  0  0  0  0
  -29.2280  -25.3720   22.1970 C   0  0  0  0  0  3  0  0  0  0  0  0
  -28.1130  -24.4070   22.0120 N   0  0  0  0  0  4  0  0  0  0  0  0
  -27.5090  -24.3870   22.8160 H   0  0  0  0  0  0  0  0  0  0  0  0
  -27.5730  -24.6370   21.1880 H   0  0  0  0  0  0  0  0  0  0  0  0
  -29.0590  -26.7170   21.4350 C   0  0  0  0  0  2  0  0  0  0  0  0
  -28.2600  -26.6540   20.2340 O   0  0  0  0  0  0  0  0  0  0  0  0
  -24.5180  -31.9240   23.2260 C   0  0  0  0  0  0  0  0  0  0  0  0
  -27.1390  -27.4670   20.1830 C   0  0  0  0  0  0  0  0  0  0  0  0
  -23.2960  -30.5260   21.5890 C   0  0  0  0  0  3  0  0  0  0  0  0
  -24.7420  -28.9790   20.1530 C   0  0  0  0  0  0  0  0  0  0  0  0
  -25.8190  -30.8770   21.3810 C   0  0  0  0  0  2  0  0  0  0  0  0
  -25.8970  -29.5090   20.7390 C   0  0  0  0  0  0  0  0  0  0  0  0
  -27.1000  -28.7710   20.7330 C   0  0  0  0  0  3  0  0  0  0  0  0
  -25.9740  -26.9610   19.5660 C   0  0  0  0  0  3  0  0  0  0  0  0
  -24.7750  -27.7070   19.5530 C   0  0  0  0  0  3  0  0  0  0  0  0
  -23.4950  -29.8370   20.2110 C   0  0  0  0  0  2  0  0  0  0  0  0
  -24.5610  -31.1190   22.1260 N   0  0  0  0  0  0  0  0  0  0  0  0
  -23.4430  -32.2060   23.7740 O   0  0  0  0  0  0  0  0  0  0  0  0
  -22.6400  -29.5120   22.5550 C   0  0  0  0  0  0  0  0  0  0  0  0
  -21.3130  -29.3490   22.4370 N   0  0  0  0  0  0  0  0  0  0  0  0
  -23.3230  -28.8780   23.3650 O   0  0  0  0  0  0  0  0  0  0  0  0
  -20.8280  -29.9090   21.7520 H   0  0  0  0  0  0  0  0  0  0  0  0
  -17.9260  -28.2010   22.9520 C   0  0  0  0  0  0  0  0  0  0  0  0
  -20.4880  -28.4220   23.2110 C   0  0  0  0  0  3  0  0  0  0  0  0
  -20.5670  -26.9920   22.6290 C   0  0  0  0  0  2  0  0  0  0  0  0
  -19.4550  -26.6870   21.6210 C   0  0  0  0  0  2  0  0  0  0  0  0
  -18.0780  -26.8490   22.2730 C   0  0  0  0  0  2  0  0  0  0  0  0
  -19.0580  -28.9450   23.3790 C   0  0  0  0  0  0  0  0  0  0  0  0
  -18.8630  -30.2100   23.9740 C   0  0  0  0  0  3  0  0  0  0  0  0
  -17.5680  -30.7320   24.1470 C   0  0  0  0  0  3  0  0  0  0  0  0
  -16.4490  -29.9840   23.7410 C   0  0  0  0  0  3  0  0  0  0  0  0
  -16.6290  -28.7200   23.1480 C   0  0  0  0  0  3  0  0  0  0  0  0
  -25.8150  -32.5390   23.8390 C   0  0  0  0  0  3  0  0  0  0  0  0
  -26.3340  -31.7640   25.1140 C   0  0  1  0  0  0  0  0  0  0  0  0
  -25.2430  -31.5390   26.1880 C   0  0  0  0  0  1  0  0  0  0  0  0
  -26.9000  -30.3780   24.7200 C   0  0  0  0  0  1  0  0  0  0  0  0
  -27.4940  -32.5490   25.7710 C   0  0  0  0  0  1  0  0  0  0  0  0
  -25.5240  -33.9390   24.1690 N   0  0  0  0  0  0  0  0  0  0  0  0
  -25.8750  -34.9880   23.4120 C   0  0  0  0  0  0  0  0  0  0  0  0
  -26.5530  -34.8780   22.3870 O   0  0  0  0  0  0  0  0  0  0  0  0
  -24.9150  -34.1000   24.9600 H   0  0  0  0  0  0  0  0  0  0  0  0
  -24.1800  -36.8070   23.0350 C   0  0  0  0  0  1  0  0  0  0  0  0
  -25.4020  -36.3820   23.8650 C   0  0  0  0  0  3  0  0  0  0  0  0
  -27.5390  -37.2270   24.7300 C   0  0  0  0  0  1  0  0  0  0  0  0
  -26.4520  -37.4190   23.7730 N   0  0  0  0  0  0  0  0  0  0  0  0
  -26.0560  -38.3420   23.9260 H   0  0  0  0  0  0  0  0  0  0  0  0
  -30.8170  -19.8520   18.0800 C   0  0  0  0  0  3  0  0  0  0  0  0
  -31.0150  -21.2210   17.8470 C   0  0  0  0  0  3  0  0  0  0  0  0
  -29.1740  -20.3740   19.7840 C   0  0  0  0  0  3  0  0  0  0  0  0
  -29.3430  -21.7690   19.5410 C   0  0  0  0  0  0  0  0  0  0  0  0
  -29.8970  -19.3950   19.0520 C   0  0  0  0  0  0  0  0  0  0  0  0
  -30.2750  -22.1900   18.5470 C   0  0  0  0  0  0  0  0  0  0  0  0
  -30.5210  -23.6510   18.1730 C   0  0  0  0  0  1  0  0  0  0  0  0
  -30.6290  -16.9470   18.5790 C   0  0  0  0  0  2  0  0  0  0  0  0
  -29.6290  -17.8980   19.2030 C   0  0  0  0  0  3  0  0  0  0  0  0
  -30.4120  -16.8930   20.0730 C   0  0  0  0  0  3  0  0  0  0  0  0
  -30.6740  -14.4860   20.4580 C   0  0  0  0  0  0  0  0  0  0  0  0
  -30.3630  -12.3190   19.3590 C   0  0  0  0  0  2  0  0  0  0  0  0
  -29.4350  -12.5400   18.1480 C   0  0  0  0  0  2  0  0  0  0  0  0
  -27.9590  -12.4110   18.5690 C   0  0  0  0  0  2  0  0  0  0  0  0
  -27.6150  -13.2440   19.8350 C   0  0  0  0  0  3  0  0  0  0  0  0
  -28.6690  -13.0380   20.9490 C   0  0  0  0  0  2  0  0  0  0  0  0
  -29.9910  -13.3150   20.3740 N   0  0  0  0  0  0  0  0  0  0  0  0
  -31.8680  -14.5820   20.1730 O   0  0  0  0  0  0  0  0  0  0  0  0
  -29.9170  -15.6010   20.5050 N   0  0  0  0  0  0  0  0  0  0  0  0
  -28.9260  -15.4930   20.6650 H   0  0  0  0  0  0  0  0  0  0  0  0
  -25.2100  -13.8470   20.5170 C   0  0  0  0  0  0  0  0  0  0  0  0
  -24.1420  -13.0750   20.8800 C   0  0  0  0  0  0  0  0  0  0  0  0
  -24.6060  -11.7230   20.8650 C   0  0  0  0  0  0  0  0  0  0  0  0
  -26.2610  -12.9670   20.3050 N   0  0  0  0  0  0  0  0  0  0  0  0
  -25.9000  -11.6850   20.5740 N   0  0  0  0  0  0  0  0  0  0  0  0
  -23.8810  -10.4610   21.0550 C   0  0  0  0  0  0  0  0  0  0  0  0
  -24.3120   -9.4950   21.9890 C   0  0  0  0  0  3  0  0  0  0  0  0
  -23.5860   -8.2960   22.1640 C   0  0  0  0  0  3  0  0  0  0  0  0
  -22.4160   -8.0570   21.4050 C   0  0  0  0  0  0  0  0  0  0  0  0
  -22.0070   -9.0130   20.4580 C   0  0  0  0  0  3  0  0  0  0  0  0
  -22.7320  -10.2010   20.2800 C   0  0  0  0  0  3  0  0  0  0  0  0
  -21.6600   -6.9130   21.4900 O   0  0  0  0  0  0  0  0  0  0  0  0
  -21.6130   -6.1680   22.6410 C   0  0  0  0  0  0  0  0  0  0  0  0
  -21.1890   -6.7200   23.8700 C   0  0  0  0  0  3  0  0  0  0  0  0
  -21.0890   -5.9010   25.0120 C   0  0  0  0  0  3  0  0  0  0  0  0
  -21.4030   -4.5310   24.9270 C   0  0  0  0  0  0  0  0  0  0  0  0
  -21.8200   -3.9790   23.7040 C   0  0  0  0  0  3  0  0  0  0  0  0
  -21.9220   -4.7950   22.5630 C   0  0  0  0  0  0  0  0  0  0  0  0
  -22.3050   -4.2540   21.3820 F   0  0  0  0  0  0  0  0  0  0  0  0
  -21.2980   -3.7420   26.0220 F   0  0  0  0  0  0  0  0  0  0  0  0
  -22.7400  -13.5500   21.1310 C   0  0  0  0  0  0  0  0  0  0  0  0
  -22.0030  -12.8560   21.9900 N   0  0  0  0  0  0  0  0  0  0  0  0
  -22.3080  -14.5720   20.5990 O   0  0  0  0  0  0  0  0  0  0  0  0
  -22.3650  -12.0280   22.4400 H   0  0  0  0  0  0  0  0  0  0  0  0
  -21.0630  -13.1590   22.2040 H   0  0  0  0  0  0  0  0  0  0  0  0
  -25.3670  -15.2180   20.3350 N   0  0  0  0  0  0  0  0  0  0  0  0
  -24.5860  -15.8580   20.4330 H   0  0  0  0  0  0  0  0  0  0  0  0
  -26.2070  -15.6710   20.0010 H   0  0  0  0  0  0  0  0  0  0  0  0
  2  1  2  0
  4  3  1  0
  4  6  1  0
  5  1  1  0
  5  7  1  0
  5  3  1  0
  6 10  1  0
  7  6  1  0
  7  8  1  0
  9  7  1  0
 11 10  1  0
 12 23  2  0
 13 11  1  0
 13 18  1  0
 14 22  1  0
 14 24  1  0
 15 21  1  0
 15 17  1  0
 16 22  1  0
 17 16  1  0
 18 17  2  0
 19 13  2  0
 20 19  1  0
 20 15  2  0
 21 14  1  0
 22 12  1  0
 24 26  2  0
 25 24  1  0
 27 25  1  0
 28 37  2  0
 28 33  1  0
 29 25  1  0
 29 33  1  0
 30 29  1  0
 31 32  1  0
 31 30  1  0
 32 28  1  0
 33 34  2  0
 34 35  1  0
 36 35  2  0
 37 36  1  0
 38 12  1  0
 38 43  1  0
 38 39  1  0
 39 42  1  1
 39 40  1  0
 41 39  1  0
 43 46  1  0
 44 48  1  0
 44 43  1  0
 45 44  2  0
 48 47  1  0
 50 48  1  0
 50 51  1  0
 50 49  1  0
 52 56  1  0
 53 52  2  0
 53 57  1  0
 55 54  1  0
 55  1  1  0
 56 54  2  0
 57 55  2  0
 58 57  1  0
 59 60  1  0
 59 61  1  0
 60 56  1  0
 60 61  1  0
 61 70  1  0
 62 70  1  0
 63 68  1  0
 64 65  1  0
 64 63  1  0
 66 65  1  0
 66 75  1  0
 66 67  1  0
 68 62  1  0
 68 67  1  0
 69 62  2  0
 70 71  1  0
 72 73  2  0
 73 92  1  0
 74 73  1  0
 74 77  1  0
 75 72  1  0
 75 76  1  0
 76 74  2  0
 77 78  1  0
 78 79  2  0
 80 83  1  0
 80 79  1  0
 81 80  2  0
 82 81  1  0
 82 77  2  0
 83 84  1  0
 84 85  1  0
 85 86  2  0
 87 86  1  0
 87 91  1  0
 88 87  2  0
 89 84  2  0
 89 88  1  0
 90 89  1  0
 92 93  1  0
 93 96  1  0
 93 95  1  0
 94 92  2  0
 97 98  1  0
 97 72  1  0
 99 97  1  0
M  ISO  4  10 101  11 101  62 100  70 100
M  END
>  <TORSDO>  (54) 
F 20

>  <SCORE>  (54) 
-14.079

>  <name>  (54) 
53

>  <ligand_id>  (54) 
53

>  <original_smiles>  (54) 
[H]c1c([H])c([H])c2c(c1[H])C([H])([H])C([H])([H])C([H])([H])C2([H])N([H])C(=O)C1([H])N(C(=O)C([H])(N([H])C(=O)C([H])(N([H])C([H])([H])[H])C([H])([H])[H])C(C([H])([H])[H])(C([H])([H])[H])C([H])([H])[H])C([H])([H])c2c([H])c(OC([H])([H])C3([H])C([H])([H])C([H])([H])C([H])(C(=O)c4c([H])c(C5([H])C([H])([H])C5([H])N([H])C(=O)N5C([H])([H])C([H])([H])C([H])([H])C([H])(n6nc(-c7c([H])c([H])c(Oc8c([H])c([H])c(F)c([H])c8F)c([H])c7[H])c(C(=O)N([H])[H])c6N([H])[H])C5([H])[H])c([H])c([H])c4C([H])([H])[H])[N+]3([H])[H])c([H])c([H])c2C1([H])[H]

>  <smiles>  (54) 
[H]c1c([H])c([H])c2c(c1[H])C([H])([H])C([H])([H])C([H])([H])C2([H])N([H])C(=O)C1([H])N(C(=O)C([H])(N([H])C(=O)C([H])(N([H])C([H])([H])[H])C([H])([H])[H])C(C([H])([H])[H])(C([H])([H])[H])C([H])([H])[H])C([H])([H])c2c([H])c(OC([H])([H])C3([H])C([H])([H])C([H])([H])C([H])(C(=O)c4c([H])c(C5([H])C([H])([H])C5([H])N([H])C(=O)N5C([H])([H])C([H])([H])C([H])([H])C([H])(n6nc(-c7c([H])c([H])c(Oc8c([H])c([H])c(F)c([H])c8F)c([H])c7[H])c(C(=O)N([H])[H])c6N([H])[H])C5([H])[H])c([H])c([H])c4C([H])([H])[H])[N+]3([H])[H])c([H])c([H])c2C1([H])[H]

$$$$
54:0:0
     RDKit          3D

 92101  0  0  1  0  0  0  0  0999 V2000
  -27.6880  -20.7720   20.2050 C   0  0  0  0  0  2  0  0  0  0  0  0
  -30.7820  -14.4700   19.6400 C   0  0  0  0  0  0  0  0  0  0  0  0
  -30.2990  -12.3710   18.4580 C   0  0  0  0  0  2  0  0  0  0  0  0
  -29.2020  -12.6370   17.4050 C   0  0  0  0  0  2  0  0  0  0  0  0
  -27.7940  -12.5090   18.0220 C   0  0  0  0  0  2  0  0  0  0  0  0
  -27.6470  -13.2870   19.3580 C   0  0  0  0  0  3  0  0  0  0  0  0
  -28.8400  -13.0000   20.2940 C   0  0  0  0  0  2  0  0  0  0  0  0
  -30.0760  -13.3120   19.5640 N   0  0  0  0  0  0  0  0  0  0  0  0
  -31.8890  -14.6010   19.1070 O   0  0  0  0  0  0  0  0  0  0  0  0
  -30.0380  -16.6160   18.7530 C   0  0  0  0  0  2  0  0  0  0  0  0
  -29.3160  -19.2220   19.0220 C   0  0  0  0  0  2  0  0  0  0  0  0
  -28.7970  -18.8390   21.3380 C   0  0  0  0  0  2  0  0  0  0  0  0
  -29.1990  -17.7350   19.3490 C   0  0  0  0  0  3  0  0  0  0  0  0
  -29.6410  -17.6950   20.7720 C   0  0  0  0  0  3  0  0  0  0  0  0
  -29.5370  -16.1920   21.0830 C   0  0  0  0  0  3  0  0  0  0  0  0
  -30.3130  -15.7780   22.3500 C   0  0  0  0  0  1  0  0  0  0  0  0
  -30.0180  -15.5770   19.8100 N   0  0  0  0  0  0  0  0  0  0  0  0
  -28.9020  -19.9080   20.2890 N   0  0  2  0  0  4  0  0  0  0  0  0
  -29.6710  -20.5090   20.5540 H   0  0  0  0  0  0  0  0  0  0  0  0
  -25.3980  -13.8890   20.4600 C   0  0  0  0  0  0  0  0  0  0  0  0
  -24.3620  -13.1150   20.9020 C   0  0  0  0  0  0  0  0  0  0  0  0
  -24.7590  -11.7570   20.6800 C   0  0  0  0  0  0  0  0  0  0  0  0
  -26.3670  -13.0070   20.0030 N   0  0  0  0  0  0  0  0  0  0  0  0
  -25.9920  -11.7150   20.1890 N   0  0  0  0  0  0  0  0  0  0  0  0
  -24.0160  -10.5030   20.8530 C   0  0  0  0  0  0  0  0  0  0  0  0
  -24.4950   -9.4680   21.6860 C   0  0  0  0  0  3  0  0  0  0  0  0
  -23.7550   -8.2780   21.8540 C   0  0  0  0  0  3  0  0  0  0  0  0
  -22.5180   -8.1150   21.1890 C   0  0  0  0  0  0  0  0  0  0  0  0
  -22.0520   -9.1370   20.3420 C   0  0  0  0  0  3  0  0  0  0  0  0
  -22.7940  -10.3180   20.1750 C   0  0  0  0  0  3  0  0  0  0  0  0
  -21.7410   -6.9850   21.2720 O   0  0  0  0  0  0  0  0  0  0  0  0
  -21.7250   -6.2040   22.4000 C   0  0  0  0  0  0  0  0  0  0  0  0
  -21.3720   -6.7260   23.6620 C   0  0  0  0  0  3  0  0  0  0  0  0
  -21.3030   -5.8730   24.7830 C   0  0  0  0  0  3  0  0  0  0  0  0
  -21.5770   -4.5000   24.6410 C   0  0  0  0  0  0  0  0  0  0  0  0
  -21.9220   -3.9770   23.3810 C   0  0  0  0  0  3  0  0  0  0  0  0
  -21.9940   -4.8280   22.2640 C   0  0  0  0  0  0  0  0  0  0  0  0
  -22.3090   -4.3160   21.0500 F   0  0  0  0  0  0  0  0  0  0  0  0
  -21.5010   -3.6770   25.7130 F   0  0  0  0  0  0  0  0  0  0  0  0
  -23.0340  -13.5990   21.4090 C   0  0  0  0  0  0  0  0  0  0  0  0
  -22.4160  -12.8580   22.3200 N   0  0  0  0  0  0  0  0  0  0  0  0
  -22.5590  -14.6720   21.0340 O   0  0  0  0  0  0  0  0  0  0  0  0
  -22.8200  -11.9950   22.6510 H   0  0  0  0  0  0  0  0  0  0  0  0
  -21.5330  -13.1620   22.7020 H   0  0  0  0  0  0  0  0  0  0  0  0
  -25.5930  -15.2640   20.3870 N   0  0  0  0  0  0  0  0  0  0  0  0
  -24.8740  -15.9240   20.6660 H   0  0  0  0  0  0  0  0  0  0  0  0
  -26.3970  -15.6990   19.9570 H   0  0  0  0  0  0  0  0  0  0  0  0
  -27.7490  -21.9580   19.1930 C   0  0  0  0  0  2  0  0  0  0  0  0
  -28.3700  -23.3110   19.6560 C   0  0  0  0  0  2  0  0  0  0  0  0
  -28.0950  -24.4270   18.6100 C   0  0  0  0  0  2  0  0  0  0  0  0
  -28.6880  -25.8620   18.8100 C   0  0  0  0  0  2  0  0  0  0  0  0
  -28.3690  -26.6890   19.9520 O   0  0  0  0  0  0  0  0  0  0  0  0
  -24.5960  -31.8690   23.1440 C   0  0  0  0  0  0  0  0  0  0  0  0
  -27.2180  -27.4590   19.9450 C   0  0  0  0  0  0  0  0  0  0  0  0
  -23.3910  -30.4980   21.4800 C   0  0  0  0  0  3  0  0  0  0  0  0
  -24.8350  -28.9960   20.0180 C   0  0  0  0  0  0  0  0  0  0  0  0
  -25.9240  -30.8470   21.2930 C   0  0  0  0  0  2  0  0  0  0  0  0
  -25.9990  -29.4880   20.6210 C   0  0  0  0  0  0  0  0  0  0  0  0
  -27.1880  -28.7170   20.6000 C   0  0  0  0  0  3  0  0  0  0  0  0
  -26.0280  -26.9920   19.3510 C   0  0  0  0  0  3  0  0  0  0  0  0
  -24.8440  -27.7420   19.3910 C   0  0  0  0  0  3  0  0  0  0  0  0
  -23.5980  -29.8600   20.0850 C   0  0  0  0  0  2  0  0  0  0  0  0
  -24.6570  -31.0880   22.0280 N   0  0  0  0  0  0  0  0  0  0  0  0
  -23.5140  -32.1200   23.6930 O   0  0  0  0  0  0  0  0  0  0  0  0
  -22.7500  -29.4490   22.4200 C   0  0  0  0  0  0  0  0  0  0  0  0
  -21.4320  -29.2310   22.2690 N   0  0  0  0  0  0  0  0  0  0  0  0
  -23.4350  -28.8350   23.2420 O   0  0  0  0  0  0  0  0  0  0  0  0
  -20.9420  -29.7700   21.5680 H   0  0  0  0  0  0  0  0  0  0  0  0
  -18.0930  -27.9130   22.6920 C   0  0  0  0  0  0  0  0  0  0  0  0
  -20.6320  -28.2680   23.0250 C   0  0  0  0  0  3  0  0  0  0  0  0
  -20.8000  -26.8380   22.4620 C   0  0  0  0  0  2  0  0  0  0  0  0
  -19.7350  -26.4720   21.4240 C   0  0  0  0  0  2  0  0  0  0  0  0
  -18.3320  -26.5660   22.0290 C   0  0  0  0  0  2  0  0  0  0  0  0
  -19.1720  -28.7190   23.1440 C   0  0  0  0  0  0  0  0  0  0  0  0
  -18.8910  -29.9750   23.7230 C   0  0  0  0  0  3  0  0  0  0  0  0
  -17.5650  -30.4290   23.8530 C   0  0  0  0  0  3  0  0  0  0  0  0
  -16.5030  -29.6210   23.4170 C   0  0  0  0  0  3  0  0  0  0  0  0
  -16.7670  -28.3660   22.8420 C   0  0  0  0  0  3  0  0  0  0  0  0
  -25.8760  -32.4980   23.7680 C   0  0  0  0  0  3  0  0  0  0  0  0
  -26.4060  -31.7100   25.0300 C   0  0  1  0  0  0  0  0  0  0  0  0
  -25.3290  -31.4380   26.1050 C   0  0  0  0  0  1  0  0  0  0  0  0
  -27.0040  -30.3470   24.6130 C   0  0  0  0  0  1  0  0  0  0  0  0
  -27.5500  -32.5100   25.6980 C   0  0  0  0  0  1  0  0  0  0  0  0
  -25.5600  -33.8890   24.1230 N   0  0  0  0  0  0  0  0  0  0  0  0
  -25.8790  -34.9570   23.3780 C   0  0  0  0  0  0  0  0  0  0  0  0
  -26.5470  -34.8740   22.3430 O   0  0  0  0  0  0  0  0  0  0  0  0
  -24.9720  -34.0280   24.9320 H   0  0  0  0  0  0  0  0  0  0  0  0
  -24.1390  -36.7410   23.0410 C   0  0  0  0  0  1  0  0  0  0  0  0
  -25.3780  -36.3330   23.8550 C   0  0  0  0  0  3  0  0  0  0  0  0
  -27.5040  -37.2170   24.7090 C   0  0  0  0  0  1  0  0  0  0  0  0
  -26.4050  -37.3960   23.7640 N   0  0  0  0  0  0  0  0  0  0  0  0
  -25.9920  -38.3120   23.9260 H   0  0  0  0  0  0  0  0  0  0  0  0
  1 18  1  0
  2 17  1  0
  3  8  1  0
  4  5  1  0
  4  3  1  0
  6  5  1  0
  6 23  1  0
  6  7  1  0
  8  2  1  0
  8  7  1  0
  9  2  2  0
 10 17  1  0
 11 13  1  0
 11 18  1  0
 13 10  1  0
 13 14  1  0
 14 15  1  0
 14 12  1  0
 15 16  1  0
 17 15  1  0
 18 19  1  1
 18 12  1  0
 20 21  2  0
 21 40  1  0
 22 25  1  0
 22 21  1  0
 23 24  1  0
 23 20  1  0
 24 22  2  0
 25 26  1  0
 26 27  2  0
 28 31  1  0
 28 27  1  0
 29 28  2  0
 30 29  1  0
 30 25  2  0
 31 32  1  0
 32 33  1  0
 33 34  2  0
 35 34  1  0
 35 39  1  0
 36 35  2  0
 37 32  2  0
 37 36  1  0
 38 37  1  0
 40 41  1  0
 41 43  1  0
 41 44  1  0
 42 40  2  0
 45 20  1  0
 45 46  1  0
 47 45  1  0
 48 49  1  0
 48  1  1  0
 50 51  1  0
 50 49  1  0
 51 52  1  0
 53 64  2  0
 54 52  1  0
 54 59  1  0
 55 63  1  0
 55 65  1  0
 56 62  1  0
 56 58  1  0
 57 63  1  0
 58 57  1  0
 59 58  2  0
 60 61  1  0
 60 54  2  0
 61 56  2  0
 62 55  1  0
 63 53  1  0
 65 67  2  0
 66 65  1  0
 68 66  1  0
 69 78  2  0
 69 74  1  0
 70 66  1  0
 70 74  1  0
 71 70  1  0
 72 73  1  0
 72 71  1  0
 73 69  1  0
 74 75  2  0
 75 76  1  0
 77 76  2  0
 78 77  1  0
 79 53  1  0
 79 84  1  0
 79 80  1  0
 80 83  1  1
 80 81  1  0
 82 80  1  0
 84 87  1  0
 85 89  1  0
 85 84  1  0
 86 85  2  0
 89 88  1  0
 91 89  1  0
 91 92  1  0
 91 90  1  0
M  ISO  4   2 100  17 100  51 101  52 101
M  END
>  <TORSDO>  (55) 
F 20

>  <SCORE>  (55) 
-11.453

>  <name>  (55) 
54

>  <ligand_id>  (55) 
54

>  <original_smiles>  (55) 
[H]c1c([H])c([H])c2c(c1[H])C([H])([H])C([H])([H])C([H])([H])C2([H])N([H])C(=O)C1([H])N(C(=O)C([H])(N([H])C(=O)C([H])(N([H])C([H])([H])[H])C([H])([H])[H])C(C([H])([H])[H])(C([H])([H])[H])C([H])([H])[H])C([H])([H])c2c([H])c(OC([H])([H])C([H])([H])C([H])([H])C([H])([H])C([H])([H])[N+]3([H])C([H])([H])C4([H])C([H])([H])N(C(=O)N5C([H])([H])C([H])([H])C([H])([H])C([H])(n6nc(-c7c([H])c([H])c(Oc8c([H])c([H])c(F)c([H])c8F)c([H])c7[H])c(C(=O)N([H])[H])c6N([H])[H])C5([H])[H])C([H])(C([H])([H])[H])C4([H])C3([H])[H])c([H])c([H])c2C1([H])[H]

>  <smiles>  (55) 
[H]c1c([H])c([H])c2c(c1[H])C([H])([H])C([H])([H])C([H])([H])C2([H])N([H])C(=O)C1([H])N(C(=O)C([H])(N([H])C(=O)C([H])(N([H])C([H])([H])[H])C([H])([H])[H])C(C([H])([H])[H])(C([H])([H])[H])C([H])([H])[H])C([H])([H])c2c([H])c(OC([H])([H])C([H])([H])C([H])([H])C([H])([H])C([H])([H])[N+]3([H])C([H])([H])C4([H])C([H])([H])N(C(=O)N5C([H])([H])C([H])([H])C([H])([H])C([H])(n6nc(-c7c([H])c([H])c(Oc8c([H])c([H])c(F)c([H])c8F)c([H])c7[H])c(C(=O)N([H])[H])c6N([H])[H])C5([H])[H])C([H])(C([H])([H])[H])C4([H])C3([H])[H])c([H])c([H])c2C1([H])[H]

$$$$
55:0:0
     RDKit          3D

 95106  0  0  1  0  0  0  0  0999 V2000
  -28.8260  -20.3620   18.0660 C   0  0  0  0  0  2  0  0  0  0  0  0
  -28.8930  -21.9230   18.1330 C   0  0  0  0  0  2  0  0  0  0  0  0
  -29.5580  -21.0380   20.2410 C   0  0  0  0  0  2  0  0  0  0  0  0
  -29.8290  -19.8640   19.1500 C   0  0  0  0  0  3  0  0  0  0  0  0
  -29.2220  -22.3680   19.5260 N   0  0  2  0  0  4  0  0  0  0  0  0
  -30.1090  -22.8420   19.4200 H   0  0  0  0  0  0  0  0  0  0  0  0
  -30.5930  -14.9120   19.8740 C   0  0  0  0  0  0  0  0  0  0  0  0
  -30.3990  -12.5960   18.9160 C   0  0  0  0  0  2  0  0  0  0  0  0
  -29.3640  -12.5600   17.7670 C   0  0  0  0  0  2  0  0  0  0  0  0
  -27.9490  -12.3160   18.3220 C   0  0  0  0  0  2  0  0  0  0  0  0
  -27.6160  -13.2470   19.5130 C   0  0  0  0  0  3  0  0  0  0  0  0
  -28.7550  -13.2500   20.5600 C   0  0  0  0  0  2  0  0  0  0  0  0
  -29.9790  -13.6660   19.8570 N   0  0  0  0  0  0  0  0  0  0  0  0
  -31.8010  -14.9730   19.6310 O   0  0  0  0  0  0  0  0  0  0  0  0
  -27.8590  -17.1750   19.0840 C   0  0  0  0  0  2  0  0  0  0  0  0
  -30.0970  -18.2240   19.4580 C   0  0  0  0  0  3  0  0  0  0  0  0
  -29.3360  -17.0320   18.7660 C   0  0  2  0  0  0  0  0  0  0  0  0
  -29.5350  -17.3630   20.6330 C   0  0  2  0  0  0  0  0  0  0  0  0
  -28.0170  -17.4690   20.5950 C   0  0  0  0  0  3  0  0  0  0  0  0
  -29.7770  -16.0820   19.8460 N   0  0  0  0  0  0  0  0  0  0  0  0
  -25.2570  -13.8250   20.3550 C   0  0  0  0  0  0  0  0  0  0  0  0
  -24.2190  -13.0550   20.8000 C   0  0  0  0  0  0  0  0  0  0  0  0
  -24.6800  -11.7080   20.7420 C   0  0  0  0  0  0  0  0  0  0  0  0
  -26.3000  -12.9560   20.0830 N   0  0  0  0  0  0  0  0  0  0  0  0
  -25.9590  -11.6750   20.3710 N   0  0  0  0  0  0  0  0  0  0  0  0
  -23.9530  -10.4490   20.9500 C   0  0  0  0  0  0  0  0  0  0  0  0
  -24.4110   -9.4770   21.8640 C   0  0  0  0  0  3  0  0  0  0  0  0
  -23.6870   -8.2810   22.0530 C   0  0  0  0  0  3  0  0  0  0  0  0
  -22.4890   -8.0560   21.3370 C   0  0  0  0  0  0  0  0  0  0  0  0
  -22.0480   -9.0170   20.4090 C   0  0  0  0  0  3  0  0  0  0  0  0
  -22.7730  -10.2060   20.2170 C   0  0  0  0  0  3  0  0  0  0  0  0
  -21.7320   -6.9160   21.4450 O   0  0  0  0  0  0  0  0  0  0  0  0
  -21.6960   -6.1900   22.6080 C   0  0  0  0  0  0  0  0  0  0  0  0
  -21.2810   -6.7590   23.8330 C   0  0  0  0  0  3  0  0  0  0  0  0
  -21.2110   -5.9610   24.9940 C   0  0  0  0  0  3  0  0  0  0  0  0
  -21.5290   -4.5920   24.9230 C   0  0  0  0  0  0  0  0  0  0  0  0
  -21.9300   -4.0200   23.7030 C   0  0  0  0  0  3  0  0  0  0  0  0
  -22.0160   -4.8190   22.5490 C   0  0  0  0  0  0  0  0  0  0  0  0
  -22.3870   -4.2600   21.3710 F   0  0  0  0  0  0  0  0  0  0  0  0
  -21.4390   -3.8200   26.0310 F   0  0  0  0  0  0  0  0  0  0  0  0
  -22.8410  -13.5440   21.1360 C   0  0  0  0  0  0  0  0  0  0  0  0
  -22.1500  -12.8680   22.0490 N   0  0  0  0  0  0  0  0  0  0  0  0
  -22.3940  -14.5710   20.6280 O   0  0  0  0  0  0  0  0  0  0  0  0
  -22.5180  -12.0280   22.4670 H   0  0  0  0  0  0  0  0  0  0  0  0
  -21.2390  -13.2040   22.3320 H   0  0  0  0  0  0  0  0  0  0  0  0
  -25.3580  -15.1810   20.1020 N   0  0  0  0  0  0  0  0  0  0  0  0
  -24.4060  -15.5390   20.1600 H   0  0  0  0  0  0  0  0  0  0  0  0
  -25.6610  -15.2650   19.1330 H   0  0  0  0  0  0  0  0  0  0  0  0
  -27.3910  -16.5160   21.5230 N   0  0  0  0  0  4  0  0  0  0  0  0
  -26.5240  -16.1410   21.1330 H   0  0  0  0  0  0  0  0  0  0  0  0
  -27.1900  -16.9560   22.4030 H   0  0  0  0  0  0  0  0  0  0  0  0
  -28.0140  -15.7530   21.6990 H   0  0  0  0  0  0  0  0  0  0  0  0
  -28.2180  -23.4360   20.1030 C   0  0  0  0  0  2  0  0  0  0  0  0
  -28.6270  -24.9260   20.7020 C   0  0  0  0  0  2  0  0  0  0  0  0
  -28.5640  -26.3260   20.0980 O   0  0  0  0  0  0  0  0  0  0  0  0
  -24.6270  -31.7400   23.1430 C   0  0  0  0  0  0  0  0  0  0  0  0
  -27.4240  -27.1790   20.1540 C   0  0  0  0  0  0  0  0  0  0  0  0
  -23.5140  -30.3340   21.4480 C   0  0  0  0  0  3  0  0  0  0  0  0
  -25.0430  -28.8040   20.0700 C   0  0  0  0  0  0  0  0  0  0  0  0
  -26.0550  -30.6800   21.3620 C   0  0  0  0  0  2  0  0  0  0  0  0
  -26.1860  -29.2960   20.7140 C   0  0  0  0  0  0  0  0  0  0  0  0
  -27.3820  -28.5010   20.7350 C   0  0  0  0  0  3  0  0  0  0  0  0
  -26.2500  -26.7490   19.5100 C   0  0  0  0  0  3  0  0  0  0  0  0
  -25.0800  -27.5390   19.4640 C   0  0  0  0  0  3  0  0  0  0  0  0
  -23.7890  -29.6650   20.0750 C   0  0  0  0  0  2  0  0  0  0  0  0
  -24.7480  -30.9390   22.0410 N   0  0  0  0  0  0  0  0  0  0  0  0
  -23.5190  -31.9960   23.6380 O   0  0  0  0  0  0  0  0  0  0  0  0
  -22.8330  -29.3040   22.3790 C   0  0  0  0  0  0  0  0  0  0  0  0
  -21.5050  -29.1460   22.2400 N   0  0  0  0  0  0  0  0  0  0  0  0
  -23.4960  -28.6540   23.1910 O   0  0  0  0  0  0  0  0  0  0  0  0
  -21.0270  -29.7350   21.5730 H   0  0  0  0  0  0  0  0  0  0  0  0
  -18.1090  -27.9630   22.7250 C   0  0  0  0  0  0  0  0  0  0  0  0
  -20.6780  -28.1800   22.9690 C   0  0  0  0  0  3  0  0  0  0  0  0
  -20.7540  -26.7770   22.3220 C   0  0  0  0  0  2  0  0  0  0  0  0
  -19.6290  -26.5140   21.3220 C   0  0  0  0  0  2  0  0  0  0  0  0
  -18.2660  -26.6380   22.0050 C   0  0  0  0  0  2  0  0  0  0  0  0
  -19.2420  -28.6970   23.1650 C   0  0  0  0  0  0  0  0  0  0  0  0
  -19.0450  -29.9410   23.8000 C   0  0  0  0  0  3  0  0  0  0  0  0
  -17.7450  -30.4520   23.9910 C   0  0  0  0  0  3  0  0  0  0  0  0
  -16.6300  -29.7190   23.5580 C   0  0  0  0  0  3  0  0  0  0  0  0
  -16.8100  -28.4760   22.9280 C   0  0  0  0  0  3  0  0  0  0  0  0
  -25.8710  -32.3920   23.8170 C   0  0  0  0  0  3  0  0  0  0  0  0
  -26.3590  -31.6180   25.1030 C   0  0  1  0  0  0  0  0  0  0  0  0
  -25.2350  -31.3500   26.1310 C   0  0  0  0  0  1  0  0  0  0  0  0
  -26.9800  -30.2530   24.7220 C   0  0  0  0  0  1  0  0  0  0  0  0
  -27.4710  -32.4290   25.8120 C   0  0  0  0  0  1  0  0  0  0  0  0
  -25.5210  -33.7810   24.1510 N   0  0  0  0  0  0  0  0  0  0  0  0
  -25.8420  -34.8480   23.4080 C   0  0  0  0  0  0  0  0  0  0  0  0
  -26.5330  -34.7710   22.3890 O   0  0  0  0  0  0  0  0  0  0  0  0
  -24.9020  -33.9140   24.9370 H   0  0  0  0  0  0  0  0  0  0  0  0
  -24.0720  -36.6020   23.0560 C   0  0  0  0  0  1  0  0  0  0  0  0
  -25.3170  -36.2200   23.8710 C   0  0  0  0  0  3  0  0  0  0  0  0
  -27.4180  -37.1580   24.7280 C   0  0  0  0  0  1  0  0  0  0  0  0
  -26.3220  -37.3000   23.7740 N   0  0  0  0  0  0  0  0  0  0  0  0
  -25.8910  -38.2080   23.9210 H   0  0  0  0  0  0  0  0  0  0  0  0
  1  2  1  0
  2  5  1  0
  4  1  1  0
  4  3  1  0
  5 53  1  0
  5  3  1  0
  5  6  1  6
  8 13  1  0
  9 10  1  0
  9  8  1  0
 11 10  1  0
 11 24  1  0
 11 12  1  0
 13  7  1  0
 13 12  1  0
 14  7  2  0
 15 19  1  0
 16  4  1  0
 18 16  1  6
 17 15  1  1
 17 16  1  0
 17 20  1  0
 17 18  1  0
 18 20  1  0
 19 18  1  0
 19 49  1  0
 20  7  1  0
 21 22  2  0
 22 41  1  0
 23 22  1  0
 23 26  1  0
 24 21  1  0
 24 25  1  0
 25 23  2  0
 26 27  1  0
 27 28  2  0
 29 32  1  0
 29 28  1  0
 30 29  2  0
 31 30  1  0
 31 26  2  0
 32 33  1  0
 33 34  1  0
 34 35  2  0
 36 35  1  0
 36 40  1  0
 37 36  2  0
 38 33  2  0
 38 37  1  0
 39 38  1  0
 41 42  1  0
 42 45  1  0
 42 44  1  0
 43 41  2  0
 46 47  1  0
 46 21  1  0
 48 46  1  0
 49 52  1  0
 49 51  1  0
 50 49  1  0
 53 54  1  0
 55 57  1  0
 55 54  1  0
 56 67  2  0
 57 62  1  0
 58 66  1  0
 58 68  1  0
 59 65  1  0
 59 61  1  0
 60 66  1  0
 61 62  2  0
 61 60  1  0
 63 57  2  0
 64 63  1  0
 64 59  2  0
 65 58  1  0
 66 56  1  0
 68 70  2  0
 69 68  1  0
 71 69  1  0
 72 81  2  0
 72 77  1  0
 73 69  1  0
 73 77  1  0
 74 73  1  0
 75 76  1  0
 75 74  1  0
 76 72  1  0
 77 78  2  0
 78 79  1  0
 80 79  2  0
 81 80  1  0
 82 56  1  0
 82 87  1  0
 82 83  1  0
 83 86  1  1
 83 84  1  0
 85 83  1  0
 87 90  1  0
 88 92  1  0
 88 87  1  0
 89 88  2  0
 92 91  1  0
 94 92  1  0
 94 95  1  0
 94 93  1  0
M  ISO  4   7 100  20 100  54 101  55 101
M  END
>  <TORSDO>  (56) 
F 19

>  <SCORE>  (56) 
-12.706

>  <name>  (56) 
55

>  <ligand_id>  (56) 
55

>  <original_smiles>  (56) 
[H]c1c([H])c([H])c2c(c1[H])C([H])([H])C([H])([H])C([H])([H])C2([H])N([H])C(=O)C1([H])N(C(=O)C([H])(N([H])C(=O)C([H])(N([H])C([H])([H])[H])C([H])([H])[H])C(C([H])([H])[H])(C([H])([H])[H])C([H])([H])[H])C([H])([H])c2c([H])c(OC([H])([H])C([H])([H])[N+]3([H])C([H])([H])C([H])([H])C([H])(C4([H])C5([H])N(C(=O)N6C([H])([H])C([H])([H])C([H])([H])C([H])(n7nc(-c8c([H])c([H])c(Oc9c([H])c([H])c(F)c([H])c9F)c([H])c8[H])c(C(=O)N([H])[H])c7N([H])[H])C6([H])[H])C4([H])C([H])([N+]([H])([H])[H])C5([H])[H])C3([H])[H])c([H])c([H])c2C1([H])[H]

>  <smiles>  (56) 
[H]c1c([H])c([H])c2c(c1[H])C([H])([H])C([H])([H])C([H])([H])C2([H])N([H])C(=O)C1([H])N(C(=O)C([H])(N([H])C(=O)C([H])(N([H])C([H])([H])[H])C([H])([H])[H])C(C([H])([H])[H])(C([H])([H])[H])C([H])([H])[H])C([H])([H])c2c([H])c(OC([H])([H])C([H])([H])[N+]3([H])C([H])([H])C([H])([H])C([H])(C4([H])C5([H])N(C(=O)N6C([H])([H])C([H])([H])C([H])([H])C([H])(n7nc(-c8c([H])c([H])c(Oc9c([H])c([H])c(F)c([H])c9F)c([H])c8[H])c(C(=O)N([H])[H])c7N([H])[H])C6([H])[H])C4([H])C([H])([N+]([H])([H])[H])C5([H])[H])C3([H])[H])c([H])c([H])c2C1([H])[H]

$$$$
56:0:0
     RDKit          3D

 97107  0  0  1  0  0  0  0  0999 V2000
  -30.5460  -21.1930   20.9960 C   0  0  0  0  0  2  0  0  0  0  0  0
  -32.3340  -19.5590   21.8600 C   0  0  0  0  0  2  0  0  0  0  0  0
  -30.5630  -20.3440   23.4400 C   0  0  0  0  0  2  0  0  0  0  0  0
  -32.1250  -18.4900   22.9280 C   0  0  0  0  0  3  0  0  0  0  0  0
  -31.4010  -20.7430   22.1990 C   0  0  0  0  0  3  0  0  0  0  0  0
  -31.0310  -18.9540   23.8600 C   0  0  0  0  0  3  0  0  0  0  0  0
  -31.3010  -17.2180   22.6790 C   0  0  0  0  0  3  0  0  0  0  0  0
  -30.1840  -17.8600   23.3770 N   0  0  0  0  0  4  0  0  0  0  0  0
  -29.4580  -18.1750   22.7540 H   0  0  0  0  0  0  0  0  0  0  0  0
  -29.8060  -17.2950   24.1210 H   0  0  0  0  0  0  0  0  0  0  0  0
  -30.9640  -16.7900   21.2430 C   0  0  0  0  0  2  0  0  0  0  0  0
  -31.1080  -14.4600   20.3780 C   0  0  0  0  0  0  0  0  0  0  0  0
  -30.7360  -12.3400   19.1810 C   0  0  0  0  0  2  0  0  0  0  0  0
  -29.8100  -12.5740   17.9710 C   0  0  0  0  0  2  0  0  0  0  0  0
  -28.3300  -12.4790   18.3900 C   0  0  0  0  0  2  0  0  0  0  0  0
  -28.0080  -13.3320   19.6450 C   0  0  0  0  0  3  0  0  0  0  0  0
  -29.0410  -13.0690   20.7630 C   0  0  0  0  0  2  0  0  0  0  0  0
  -30.3870  -13.3220   20.2180 N   0  0  0  0  0  0  0  0  0  0  0  0
  -32.1810  -14.6670   19.8040 O   0  0  0  0  0  0  0  0  0  0  0  0
  -30.5300  -15.3950   21.1460 N   0  0  0  0  0  0  0  0  0  0  0  0
  -29.6510  -15.1370   21.5680 H   0  0  0  0  0  0  0  0  0  0  0  0
  -25.6130  -14.0130   20.3030 C   0  0  0  0  0  0  0  0  0  0  0  0
  -24.5230  -13.2730   20.6770 C   0  0  0  0  0  0  0  0  0  0  0  0
  -24.9540  -11.9100   20.6820 C   0  0  0  0  0  0  0  0  0  0  0  0
  -26.6410  -13.1040   20.1070 N   0  0  0  0  0  0  0  0  0  0  0  0
  -26.2470  -11.8350   20.3910 N   0  0  0  0  0  0  0  0  0  0  0  0
  -24.2000  -10.6690   20.8930 C   0  0  0  0  0  0  0  0  0  0  0  0
  -24.5920   -9.7220   21.8640 C   0  0  0  0  0  3  0  0  0  0  0  0
  -23.8400   -8.5440   22.0600 C   0  0  0  0  0  3  0  0  0  0  0  0
  -22.6810   -8.3050   21.2830 C   0  0  0  0  0  0  0  0  0  0  0  0
  -22.3070   -9.2400   20.3030 C   0  0  0  0  0  3  0  0  0  0  0  0
  -23.0610  -10.4100   20.1050 C   0  0  0  0  0  3  0  0  0  0  0  0
  -21.9030   -7.1770   21.3860 O   0  0  0  0  0  0  0  0  0  0  0  0
  -21.7880   -6.4870   22.5670 C   0  0  0  0  0  0  0  0  0  0  0  0
  -21.3190   -7.1030   23.7470 C   0  0  0  0  0  3  0  0  0  0  0  0
  -21.1490   -6.3410   24.9190 C   0  0  0  0  0  3  0  0  0  0  0  0
  -21.4390   -4.9630   24.9120 C   0  0  0  0  0  0  0  0  0  0  0  0
  -21.9010   -4.3460   23.7360 C   0  0  0  0  0  3  0  0  0  0  0  0
  -22.0720   -5.1060   22.5660 C   0  0  0  0  0  0  0  0  0  0  0  0
  -22.4970   -4.5030   21.4290 F   0  0  0  0  0  0  0  0  0  0  0  0
  -21.2700   -4.2270   26.0360 F   0  0  0  0  0  0  0  0  0  0  0  0
  -23.1330  -13.7850   20.9240 C   0  0  0  0  0  0  0  0  0  0  0  0
  -22.3870  -13.1340   21.8100 N   0  0  0  0  0  0  0  0  0  0  0  0
  -22.7180  -14.8010   20.3660 O   0  0  0  0  0  0  0  0  0  0  0  0
  -22.7360  -12.3130   22.2820 H   0  0  0  0  0  0  0  0  0  0  0  0
  -21.4550  -13.4620   22.0180 H   0  0  0  0  0  0  0  0  0  0  0  0
  -25.8100  -15.3750   20.0950 N   0  0  0  0  0  0  0  0  0  0  0  0
  -25.0540  -16.0470   20.1710 H   0  0  0  0  0  0  0  0  0  0  0  0
  -26.6690  -15.7830   19.7470 H   0  0  0  0  0  0  0  0  0  0  0  0
  -29.3130  -23.2230   20.2990 C   0  0  0  0  0  0  0  0  0  0  0  0
  -30.0730  -22.5580   21.1740 N   0  0  0  0  0  0  0  0  0  0  0  0
  -28.7160  -22.6650   19.3750 O   0  0  0  0  0  0  0  0  0  0  0  0
  -30.5150  -23.1050   21.9030 H   0  0  0  0  0  0  0  0  0  0  0  0
  -30.0250  -25.4390   19.3350 C   0  0  0  0  0  2  0  0  0  0  0  0
  -29.3590  -24.7000   20.4790 C   0  0  0  0  0  3  0  0  0  0  0  0
  -28.5500  -25.6170   19.5820 C   0  0  0  0  0  3  0  0  0  0  0  0
  -28.3770  -26.9110   20.1450 O   0  0  0  0  0  0  0  0  0  0  0  0
  -24.5550  -32.0010   23.2310 C   0  0  0  0  0  0  0  0  0  0  0  0
  -27.1540  -27.5390   20.1560 C   0  0  0  0  0  0  0  0  0  0  0  0
  -23.3210  -30.5870   21.6150 C   0  0  0  0  0  3  0  0  0  0  0  0
  -24.7490  -29.0240   20.1960 C   0  0  0  0  0  0  0  0  0  0  0  0
  -25.8420  -30.9380   21.3830 C   0  0  0  0  0  2  0  0  0  0  0  0
  -25.9120  -29.5600   20.7610 C   0  0  0  0  0  0  0  0  0  0  0  0
  -27.1110  -28.8220   20.7410 C   0  0  0  0  0  3  0  0  0  0  0  0
  -25.9670  -26.9980   19.6060 C   0  0  0  0  0  3  0  0  0  0  0  0
  -24.7700  -27.7400   19.6230 C   0  0  0  0  0  3  0  0  0  0  0  0
  -23.5100  -29.8860   20.2430 C   0  0  0  0  0  2  0  0  0  0  0  0
  -24.5920  -31.1910   22.1350 N   0  0  0  0  0  0  0  0  0  0  0  0
  -23.4830  -32.2850   23.7800 O   0  0  0  0  0  0  0  0  0  0  0  0
  -22.6790  -29.5810   22.5960 C   0  0  0  0  0  0  0  0  0  0  0  0
  -21.3530  -29.3960   22.4750 N   0  0  0  0  0  0  0  0  0  0  0  0
  -23.3670  -28.9680   23.4160 O   0  0  0  0  0  0  0  0  0  0  0  0
  -20.8620  -29.9430   21.7820 H   0  0  0  0  0  0  0  0  0  0  0  0
  -17.9820  -28.2100   22.9930 C   0  0  0  0  0  0  0  0  0  0  0  0
  -20.5390  -28.4710   23.2610 C   0  0  0  0  0  3  0  0  0  0  0  0
  -20.6420  -27.0320   22.7050 C   0  0  0  0  0  2  0  0  0  0  0  0
  -19.5390  -26.6930   21.6970 C   0  0  0  0  0  2  0  0  0  0  0  0
  -18.1580  -26.8490   22.3390 C   0  0  0  0  0  2  0  0  0  0  0  0
  -19.1010  -28.9780   23.4110 C   0  0  0  0  0  0  0  0  0  0  0  0
  -18.8840  -30.2520   23.9790 C   0  0  0  0  0  3  0  0  0  0  0  0
  -17.5790  -30.7580   24.1360 C   0  0  0  0  0  3  0  0  0  0  0  0
  -16.4740  -29.9860   23.7350 C   0  0  0  0  0  3  0  0  0  0  0  0
  -16.6770  -28.7140   23.1700 C   0  0  0  0  0  3  0  0  0  0  0  0
  -25.8540  -32.6270   23.8290 C   0  0  0  0  0  3  0  0  0  0  0  0
  -26.4100  -31.8380   25.0770 C   0  0  1  0  0  0  0  0  0  0  0  0
  -25.3440  -31.5650   26.1630 C   0  0  0  0  0  1  0  0  0  0  0  0
  -27.0000  -30.4750   24.6420 C   0  0  0  0  0  1  0  0  0  0  0  0
  -27.5660  -32.6320   25.7300 C   0  0  0  0  0  1  0  0  0  0  0  0
  -25.5490  -34.0180   24.1880 N   0  0  0  0  0  0  0  0  0  0  0  0
  -25.8520  -35.0820   23.4300 C   0  0  0  0  0  0  0  0  0  0  0  0
  -26.4910  -34.9950   22.3780 O   0  0  0  0  0  0  0  0  0  0  0  0
  -24.9770  -34.1600   25.0070 H   0  0  0  0  0  0  0  0  0  0  0  0
  -24.0980  -36.8620   23.1520 C   0  0  0  0  0  1  0  0  0  0  0  0
  -25.3670  -36.4610   23.9180 C   0  0  0  0  0  3  0  0  0  0  0  0
  -27.5190  -37.3530   24.6920 C   0  0  0  0  0  1  0  0  0  0  0  0
  -26.3870  -37.5230   23.7850 N   0  0  0  0  0  0  0  0  0  0  0  0
  -25.9780  -38.4380   23.9560 H   0  0  0  0  0  0  0  0  0  0  0  0
  1 51  1  0
  2  5  1  0
  4  2  1  0
  4  6  1  0
  5  1  1  0
  5  3  1  0
  6  3  1  0
  7 11  1  0
  7  4  1  0
  7  8  1  0
  8  6  1  0
  8 10  1  0
  9  8  1  0
 12 20  1  0
 13 18  1  0
 14 15  1  0
 14 13  1  0
 16 15  1  0
 16 25  1  0
 16 17  1  0
 18 12  1  0
 18 17  1  0
 19 12  2  0
 20 11  1  0
 20 21  1  0
 22 23  2  0
 23 24  1  0
 23 42  1  0
 24 27  1  0
 25 22  1  0
 25 26  1  0
 26 24  2  0
 27 28  1  0
 28 29  2  0
 30 33  1  0
 30 29  1  0
 31 30  2  0
 32 31  1  0
 32 27  2  0
 33 34  1  0
 34 35  1  0
 35 36  2  0
 37 36  1  0
 37 41  1  0
 38 37  2  0
 39 34  2  0
 39 38  1  0
 40 39  1  0
 42 43  1  0
 43 46  1  0
 43 45  1  0
 44 42  2  0
 47 48  1  0
 47 22  1  0
 49 47  1  0
 50 51  1  0
 51 53  1  0
 52 50  2  0
 54 56  1  0
 54 55  1  0
 55 50  1  0
 56 57  1  0
 56 55  1  0
 57 59  1  0
 58 69  2  0
 59 64  1  0
 60 68  1  0
 60 70  1  0
 61 67  1  0
 61 63  1  0
 62 68  1  0
 63 62  1  0
 64 63  2  0
 65 66  1  0
 65 59  2  0
 66 61  2  0
 67 60  1  0
 68 58  1  0
 70 72  2  0
 71 70  1  0
 73 71  1  0
 74 83  2  0
 74 79  1  0
 75 71  1  0
 75 79  1  0
 76 75  1  0
 77 78  1  0
 77 76  1  0
 78 74  1  0
 79 80  2  0
 80 81  1  0
 82 81  2  0
 83 82  1  0
 84 58  1  0
 84 89  1  0
 84 85  1  0
 85 88  1  1
 85 86  1  0
 87 85  1  0
 89 92  1  0
 90 94  1  0
 90 89  1  0
 91 90  2  0
 94 93  1  0
 96 94  1  0
 96 97  1  0
 96 95  1  0
M  ISO  4  12 100  20 100  56 101  57 101
M  END
>  <TORSDO>  (57) 
F 20

>  <SCORE>  (57) 
-11.747

>  <name>  (57) 
56

>  <ligand_id>  (57) 
56

>  <original_smiles>  (57) 
[H]c1c([H])c([H])c2c(c1[H])C([H])([H])C([H])([H])C([H])([H])C2([H])N([H])C(=O)C1([H])N(C(=O)C([H])(N([H])C(=O)C([H])(N([H])C([H])([H])[H])C([H])([H])[H])C(C([H])([H])[H])(C([H])([H])[H])C([H])([H])[H])C([H])([H])c2c([H])c(OC3([H])C([H])([H])C3([H])C(=O)N([H])C([H])([H])C3([H])C([H])([H])C4([H])C([H])(C([H])([H])N([H])C(=O)N5C([H])([H])C([H])([H])C([H])([H])C([H])(n6nc(-c7c([H])c([H])c(Oc8c([H])c([H])c(F)c([H])c8F)c([H])c7[H])c(C(=O)N([H])[H])c6N([H])[H])C5([H])[H])[N+]([H])([H])C4([H])C3([H])[H])c([H])c([H])c2C1([H])[H]

>  <smiles>  (57) 
[H]c1c([H])c([H])c2c(c1[H])C([H])([H])C([H])([H])C([H])([H])C2([H])N([H])C(=O)C1([H])N(C(=O)C([H])(N([H])C(=O)C([H])(N([H])C([H])([H])[H])C([H])([H])[H])C(C([H])([H])[H])(C([H])([H])[H])C([H])([H])[H])C([H])([H])c2c([H])c(OC3([H])C([H])([H])C3([H])C(=O)N([H])C([H])([H])C3([H])C([H])([H])C4([H])C([H])(C([H])([H])N([H])C(=O)N5C([H])([H])C([H])([H])C([H])([H])C([H])(n6nc(-c7c([H])c([H])c(Oc8c([H])c([H])c(F)c([H])c8F)c([H])c7[H])c(C(=O)N([H])[H])c6N([H])[H])C5([H])[H])[N+]([H])([H])C4([H])C3([H])[H])c([H])c([H])c2C1([H])[H]

$$$$
57:0:0
     RDKit          3D

 96105  0  0  1  0  0  0  0  0999 V2000
  -29.4390  -17.6480   20.4950 C   0  0  0  0  0  0  0  0  0  0  0  0
  -29.0460  -19.0610   20.8530 C   0  0  0  0  0  2  0  0  0  0  0  0
  -31.4300  -19.7610   20.4530 C   0  0  0  0  0  2  0  0  0  0  0  0
  -31.7890  -18.3040   20.0910 C   0  0  0  0  0  2  0  0  0  0  0  0
  -29.9740  -19.8880   19.9460 C   0  0  0  0  0  3  0  0  0  0  0  0
  -29.9880  -19.0570   18.6480 C   0  0  0  0  0  3  0  0  0  0  0  0
  -30.5130  -17.7640   19.3970 C   0  0  2  0  0  0  0  0  0  0  0  0
  -28.9790  -16.5990   21.0350 N   0  0  0  0  0  0  0  0  0  0  0  0
  -28.2940  -16.8180   21.7510 H   0  0  0  0  0  0  0  0  0  0  0  0
  -30.8740  -20.8940   17.0470 C   0  0  0  0  0  0  0  0  0  0  0  0
  -30.8440  -19.6540   17.5980 N   0  0  0  0  0  0  0  0  0  0  0  0
  -31.7460  -21.1340   16.2130 O   0  0  0  0  0  0  0  0  0  0  0  0
  -31.5600  -19.0330   17.2470 H   0  0  0  0  0  0  0  0  0  0  0  0
  -29.8590  -22.0300   17.3990 C   0  0  0  0  0  2  0  0  0  0  0  0
  -30.4270  -23.5200   17.3050 C   0  0  0  0  0  2  0  0  0  0  0  0
  -29.7890  -24.8850   16.8090 C   0  0  0  0  0  2  0  0  0  0  0  0
  -29.6510  -25.9070   17.8410 O   0  0  0  0  0  0  0  0  0  0  0  0
  -25.7110  -29.0390   22.9250 C   0  0  0  0  0  0  0  0  0  0  0  0
  -28.4400  -26.5340   18.1330 C   0  0  0  0  0  0  0  0  0  0  0  0
  -24.5170  -28.4560   20.8430 C   0  0  0  0  0  3  0  0  0  0  0  0
  -25.9870  -27.7930   18.8670 C   0  0  0  0  0  0  0  0  0  0  0  0
  -27.0250  -28.9810   20.8000 C   0  0  0  0  0  2  0  0  0  0  0  0
  -27.1460  -28.0420   19.6100 C   0  0  0  0  0  0  0  0  0  0  0  0
  -28.3680  -27.4210   19.2450 C   0  0  0  0  0  3  0  0  0  0  0  0
  -27.2480  -26.3160   17.3990 C   0  0  0  0  0  3  0  0  0  0  0  0
  -26.0360  -26.9300   17.7620 C   0  0  0  0  0  3  0  0  0  0  0  0
  -24.7150  -28.4830   19.3050 C   0  0  0  0  0  2  0  0  0  0  0  0
  -25.7710  -28.8140   21.5810 N   0  0  0  0  0  0  0  0  0  0  0  0
  -24.6360  -28.9840   23.5380 O   0  0  0  0  0  0  0  0  0  0  0  0
  -23.9400  -27.0790   21.2480 C   0  0  0  0  0  0  0  0  0  0  0  0
  -22.6270  -26.8900   21.0310 N   0  0  0  0  0  0  0  0  0  0  0  0
  -24.6710  -26.2030   21.7170 O   0  0  0  0  0  0  0  0  0  0  0  0
  -22.0930  -27.6610   20.6580 H   0  0  0  0  0  0  0  0  0  0  0  0
  -19.3520  -25.3730   20.8550 C   0  0  0  0  0  0  0  0  0  0  0  0
  -21.8810  -25.6600   21.3010 C   0  0  0  0  0  3  0  0  0  0  0  0
  -22.0930  -24.6210   20.1760 C   0  0  0  0  0  2  0  0  0  0  0  0
  -21.0230  -24.6880   19.0820 C   0  0  0  0  0  2  0  0  0  0  0  0
  -19.6320  -24.4550   19.6780 C   0  0  0  0  0  2  0  0  0  0  0  0
  -20.4090  -25.9510   21.6080 C   0  0  0  0  0  0  0  0  0  0  0  0
  -20.0950  -26.8260   22.6710 C   0  0  0  0  0  3  0  0  0  0  0  0
  -18.7560  -27.1220   22.9880 C   0  0  0  0  0  3  0  0  0  0  0  0
  -17.7130  -26.5360   22.2500 C   0  0  0  0  0  3  0  0  0  0  0  0
  -18.0120  -25.6620   21.1890 C   0  0  0  0  0  3  0  0  0  0  0  0
  -26.9850  -29.3970   23.7520 C   0  0  0  0  0  3  0  0  0  0  0  0
  -26.6950  -30.6230   24.5080 N   0  0  0  0  0  0  0  0  0  0  0  0
  -27.1270  -31.8440   24.1690 C   0  0  0  0  0  0  0  0  0  0  0  0
  -27.8830  -32.0470   23.2140 O   0  0  0  0  0  0  0  0  0  0  0  0
  -26.0430  -30.5380   25.2730 H   0  0  0  0  0  0  0  0  0  0  0  0
  -25.5420  -33.7940   24.2780 C   0  0  0  0  0  1  0  0  0  0  0  0
  -26.6450  -33.0290   25.0280 C   0  0  0  0  0  3  0  0  0  0  0  0
  -28.6770  -33.3920   26.3580 C   0  0  0  0  0  1  0  0  0  0  0  0
  -27.7270  -33.9630   25.4050 N   0  0  0  0  0  0  0  0  0  0  0  0
  -27.3450  -34.8100   25.8150 H   0  0  0  0  0  0  0  0  0  0  0  0
  -27.4400  -28.2420   24.7250 C   0  0  1  0  0  0  0  0  0  0  0  0
  -26.3090  -27.7170   25.6400 C   0  0  0  0  0  1  0  0  0  0  0  0
  -27.9960  -27.0420   23.9220 C   0  0  0  0  0  1  0  0  0  0  0  0
  -28.5920  -28.7390   25.6310 C   0  0  0  0  0  1  0  0  0  0  0  0
  -30.7880  -16.4290   18.5930 C   0  0  0  0  0  2  0  0  0  0  0  0
  -31.4850  -14.0420   19.2280 C   0  0  0  0  0  0  0  0  0  0  0  0
  -31.1650  -11.6090   18.9230 C   0  0  0  0  0  2  0  0  0  0  0  0
  -30.1380  -11.4000   17.7880 C   0  0  0  0  0  2  0  0  0  0  0  0
  -28.6970  -11.4380   18.3370 C   0  0  0  0  0  2  0  0  0  0  0  0
  -28.4410  -12.6580   19.2620 C   0  0  0  0  0  3  0  0  0  0  0  0
  -29.5710  -12.8030   20.3080 C   0  0  0  0  0  2  0  0  0  0  0  0
  -30.8520  -12.8880   19.5840 N   0  0  0  0  0  0  0  0  0  0  0  0
  -32.5630  -14.0480   18.6260 O   0  0  0  0  0  0  0  0  0  0  0  0
  -30.7660  -15.1740   19.3970 N   0  0  0  0  0  0  0  0  0  0  0  0
  -29.9320  -15.0830   19.9670 H   0  0  0  0  0  0  0  0  0  0  0  0
  -26.2780  -13.6180   20.2720 C   0  0  0  0  0  0  0  0  0  0  0  0
  -25.1380  -13.0190   20.7330 C   0  0  0  0  0  0  0  0  0  0  0  0
  -25.3490  -11.6130   20.5940 C   0  0  0  0  0  0  0  0  0  0  0  0
  -27.1250  -12.5890   19.8910 N   0  0  0  0  0  0  0  0  0  0  0  0
  -26.5710  -11.3730   20.1360 N   0  0  0  0  0  0  0  0  0  0  0  0
  -24.4380  -10.4850   20.8180 C   0  0  0  0  0  0  0  0  0  0  0  0
  -24.7370   -9.4670   21.7500 C   0  0  0  0  0  3  0  0  0  0  0  0
  -23.8350   -8.4030   21.9610 C   0  0  0  0  0  3  0  0  0  0  0  0
  -22.6190   -8.3500   21.2390 C   0  0  0  0  0  0  0  0  0  0  0  0
  -22.3370   -9.3530   20.2950 C   0  0  0  0  0  3  0  0  0  0  0  0
  -23.2380  -10.4090   20.0830 C   0  0  0  0  0  3  0  0  0  0  0  0
  -21.6940   -7.3410   21.3580 O   0  0  0  0  0  0  0  0  0  0  0  0
  -21.5040   -6.6760   22.5420 C   0  0  0  0  0  0  0  0  0  0  0  0
  -21.0650   -7.3400   23.7070 C   0  0  0  0  0  3  0  0  0  0  0  0
  -20.8150   -6.6060   24.8850 C   0  0  0  0  0  3  0  0  0  0  0  0
  -20.9950   -5.2100   24.8960 C   0  0  0  0  0  0  0  0  0  0  0  0
  -21.4280   -4.5460   23.7350 C   0  0  0  0  0  3  0  0  0  0  0  0
  -21.6790   -5.2770   22.5610 C   0  0  0  0  0  0  0  0  0  0  0  0
  -22.0750   -4.6310   21.4390 F   0  0  0  0  0  0  0  0  0  0  0  0
  -20.7490   -4.5040   26.0240 F   0  0  0  0  0  0  0  0  0  0  0  0
  -23.8890  -13.7100   21.2000 C   0  0  0  0  0  0  0  0  0  0  0  0
  -23.1730  -13.1060   22.1420 N   0  0  0  0  0  0  0  0  0  0  0  0
  -23.5720  -14.8180   20.7690 O   0  0  0  0  0  0  0  0  0  0  0  0
  -23.4480  -12.2080   22.5080 H   0  0  0  0  0  0  0  0  0  0  0  0
  -22.3360  -13.5460   22.4970 H   0  0  0  0  0  0  0  0  0  0  0  0
  -26.6570  -14.9490   20.1350 N   0  0  0  0  0  0  0  0  0  0  0  0
  -26.0430  -15.6660   20.5040 H   0  0  0  0  0  0  0  0  0  0  0  0
  -27.6380  -15.1840   20.2700 H   0  0  0  0  0  0  0  0  0  0  0  0
  1  2  1  0
  1  8  2  0
  4  3  1  0
  5  3  1  0
  5  2  1  0
  6 11  1  0
  6  7  1  0
  6  5  1  0
  7 58  1  6
  7  4  1  0
  7  1  1  0
  8  9  1  0
 10 14  1  0
 10 11  1  0
 12 10  2  0
 13 11  1  0
 15 14  1  0
 16 15  1  0
 16 17  1  0
 17 19  1  0
 18 29  2  0
 19 24  1  0
 20 30  1  0
 20 28  1  0
 21 27  1  0
 21 23  1  0
 22 28  1  0
 23 22  1  0
 24 23  2  0
 25 26  1  0
 25 19  2  0
 26 21  2  0
 27 20  1  0
 28 18  1  0
 30 32  2  0
 31 30  1  0
 33 31  1  0
 34 43  2  0
 34 39  1  0
 35 31  1  0
 35 39  1  0
 36 35  1  0
 37 38  1  0
 37 36  1  0
 38 34  1  0
 39 40  2  0
 40 41  1  0
 42 41  2  0
 43 42  1  0
 44 18  1  0
 44 45  1  0
 44 54  1  0
 45 48  1  0
 46 45  1  0
 46 50  1  0
 47 46  2  0
 50 49  1  0
 50 52  1  0
 52 53  1  0
 52 51  1  0
 54 57  1  1
 54 55  1  0
 56 54  1  0
 58 67  1  0
 59 67  1  0
 59 65  1  0
 60 65  1  0
 61 62  1  0
 61 60  1  0
 63 62  1  0
 63 72  1  0
 63 64  1  0
 65 64  1  0
 66 59  2  0
 67 68  1  0
 69 70  2  0
 70 89  1  0
 71 70  1  0
 71 74  1  0
 72 73  1  0
 72 69  1  0
 73 71  2  0
 74 75  1  0
 75 76  2  0
 77 80  1  0
 77 76  1  0
 78 77  2  0
 79 78  1  0
 79 74  2  0
 80 81  1  0
 81 86  2  0
 81 82  1  0
 82 83  2  0
 83 84  1  0
 84 88  1  0
 85 84  2  0
 86 85  1  0
 87 86  1  0
 89 90  1  0
 90 93  1  0
 90 92  1  0
 91 89  2  0
 94 96  1  0
 94 69  1  0
 94 95  1  0
M  ISO  4  16 101  17 101  59 100  67 100
M  END
>  <TORSDO>  (58) 
F 21

>  <SCORE>  (58) 
-9.372

>  <name>  (58) 
57

>  <ligand_id>  (58) 
57

>  <original_smiles>  (58) 
[H]N=C1C([H])([H])C2([H])C([H])([H])C([H])([H])C1(C([H])([H])N([H])C(=O)N1C([H])([H])C([H])([H])C([H])([H])C([H])(n3nc(-c4c([H])c([H])c(Oc5c([H])c([H])c(F)c([H])c5F)c([H])c4[H])c(C(=O)N([H])[H])c3N([H])[H])C1([H])[H])C2([H])N([H])C(=O)C([H])([H])C([H])([H])C([H])([H])Oc1c([H])c([H])c2c(c1[H])C([H])([H])N(C(=O)C([H])(N([H])C(=O)C([H])(N([H])C([H])([H])[H])C([H])([H])[H])C(C([H])([H])[H])(C([H])([H])[H])C([H])([H])[H])C([H])(C(=O)N([H])C1([H])c3c([H])c([H])c([H])c([H])c3C([H])([H])C([H])([H])C1([H])[H])C2([H])[H]

>  <smiles>  (58) 
[H]N=C1C([H])([H])C2([H])C([H])([H])C([H])([H])C1(C([H])([H])N([H])C(=O)N1C([H])([H])C([H])([H])C([H])([H])C([H])(n3nc(-c4c([H])c([H])c(Oc5c([H])c([H])c(F)c([H])c5F)c([H])c4[H])c(C(=O)N([H])[H])c3N([H])[H])C1([H])[H])C2([H])N([H])C(=O)C([H])([H])C([H])([H])C([H])([H])Oc1c([H])c([H])c2c(c1[H])C([H])([H])N(C(=O)C([H])(N([H])C(=O)C([H])(N([H])C([H])([H])[H])C([H])([H])[H])C(C([H])([H])[H])(C([H])([H])[H])C([H])([H])[H])C([H])(C(=O)N([H])C1([H])c3c([H])c([H])c([H])c([H])c3C([H])([H])C([H])([H])C1([H])[H])C2([H])[H]

$$$$
58:0:0
     RDKit          3D

 93102  0  0  1  0  0  0  0  0999 V2000
  -31.0480  -21.0280   21.8930 C   0  0  0  0  0  0  0  0  0  0  0  0
  -31.7230  -20.6830   20.5700 C   0  0  0  0  0  2  0  0  0  0  0  0
  -29.3650  -19.1490   21.7530 C   0  0  0  0  0  2  0  0  0  0  0  0
  -29.5490  -20.7160   21.7240 C   0  0  0  0  0  3  0  0  0  0  0  0
  -30.2840  -18.6320   20.6070 C   0  0  0  0  0  3  0  0  0  0  0  0
  -30.4990  -20.0510   19.8600 C   0  0  0  0  0  3  0  0  0  0  0  0
  -29.3990  -21.0110   20.2880 N   0  0  2  0  0  4  0  0  0  0  0  0
  -31.6390  -21.4390   22.8950 O   0  0  0  0  0  0  0  0  0  0  0  0
  -28.5170  -20.6110   20.0080 H   0  0  0  0  0  0  0  0  0  0  0  0
  -29.9790  -17.2760   19.7930 C   0  0  0  0  0  2  0  0  0  0  0  0
  -30.7240  -14.7820   20.1370 C   0  0  0  0  0  0  0  0  0  0  0  0
  -30.4630  -12.5320   19.1010 C   0  0  0  0  0  2  0  0  0  0  0  0
  -29.4960  -12.6720   17.9030 C   0  0  0  0  0  2  0  0  0  0  0  0
  -28.0330  -12.5200   18.3630 C   0  0  0  0  0  2  0  0  0  0  0  0
  -27.7110  -13.3700   19.6190 C   0  0  0  0  0  3  0  0  0  0  0  0
  -28.7990  -13.2220   20.7090 C   0  0  0  0  0  2  0  0  0  0  0  0
  -30.0920  -13.5590   20.1000 N   0  0  0  0  0  0  0  0  0  0  0  0
  -31.8690  -14.9060   19.6950 O   0  0  0  0  0  0  0  0  0  0  0  0
  -29.9650  -15.8950   20.4470 N   0  0  0  0  0  0  0  0  0  0  0  0
  -29.0930  -15.6640   20.9000 H   0  0  0  0  0  0  0  0  0  0  0  0
  -25.3410  -13.9750   20.3990 C   0  0  0  0  0  0  0  0  0  0  0  0
  -24.2800  -13.2060   20.7930 C   0  0  0  0  0  0  0  0  0  0  0  0
  -24.7330  -11.8510   20.7470 C   0  0  0  0  0  0  0  0  0  0  0  0
  -26.3750  -13.0890   20.1370 N   0  0  0  0  0  0  0  0  0  0  0  0
  -26.0170  -11.8070   20.4060 N   0  0  0  0  0  0  0  0  0  0  0  0
  -24.0040  -10.5930   20.9520 C   0  0  0  0  0  0  0  0  0  0  0  0
  -24.4520   -9.6210   21.8730 C   0  0  0  0  0  3  0  0  0  0  0  0
  -23.7230   -8.4270   22.0660 C   0  0  0  0  0  3  0  0  0  0  0  0
  -22.5310   -8.1990   21.3390 C   0  0  0  0  0  0  0  0  0  0  0  0
  -22.1010   -9.1610   20.4070 C   0  0  0  0  0  3  0  0  0  0  0  0
  -22.8310  -10.3460   20.2120 C   0  0  0  0  0  3  0  0  0  0  0  0
  -21.7710   -7.0590   21.4420 O   0  0  0  0  0  0  0  0  0  0  0  0
  -21.7420   -6.3140   22.5940 C   0  0  0  0  0  0  0  0  0  0  0  0
  -21.3570   -6.8730   23.8320 C   0  0  0  0  0  3  0  0  0  0  0  0
  -21.2760   -6.0560   24.9770 C   0  0  0  0  0  3  0  0  0  0  0  0
  -21.5680   -4.6820   24.8850 C   0  0  0  0  0  0  0  0  0  0  0  0
  -21.9450   -4.1230   23.6520 C   0  0  0  0  0  3  0  0  0  0  0  0
  -22.0290   -4.9370   22.5090 C   0  0  0  0  0  0  0  0  0  0  0  0
  -22.3730   -4.3900   21.3170 F   0  0  0  0  0  0  0  0  0  0  0  0
  -21.4820   -3.8950   25.9830 F   0  0  0  0  0  0  0  0  0  0  0  0
  -22.8930  -13.6910   21.0990 C   0  0  0  0  0  0  0  0  0  0  0  0
  -22.1840  -13.0010   21.9850 N   0  0  0  0  0  0  0  0  0  0  0  0
  -22.4480  -14.7180   20.5880 O   0  0  0  0  0  0  0  0  0  0  0  0
  -22.5580  -12.1710   22.4230 H   0  0  0  0  0  0  0  0  0  0  0  0
  -21.2540  -13.3080   22.2320 H   0  0  0  0  0  0  0  0  0  0  0  0
  -25.5080  -15.3440   20.2180 N   0  0  0  0  0  0  0  0  0  0  0  0
  -24.7440  -16.0000   20.3420 H   0  0  0  0  0  0  0  0  0  0  0  0
  -26.3420  -15.7790   19.8460 H   0  0  0  0  0  0  0  0  0  0  0  0
  -29.3870  -22.4630   19.7170 C   0  0  0  0  0  2  0  0  0  0  0  0
  -30.2810  -24.3710   21.2840 C   0  0  0  0  0  1  0  0  0  0  0  0
  -29.0400  -23.8230   20.5540 C   0  0  0  0  0  3  0  0  0  0  0  0
  -28.4160  -25.0470   19.6930 C   0  0  0  0  0  2  0  0  0  0  0  0
  -28.4080  -26.4700   20.1860 O   0  0  0  0  0  0  0  0  0  0  0  0
  -24.6470  -31.8790   23.1920 C   0  0  0  0  0  0  0  0  0  0  0  0
  -27.2810  -27.3230   20.1030 C   0  0  0  0  0  0  0  0  0  0  0  0
  -23.4530  -30.4830   21.5460 C   0  0  0  0  0  3  0  0  0  0  0  0
  -24.9100  -28.9540   20.1030 C   0  0  0  0  0  0  0  0  0  0  0  0
  -25.9920  -30.8080   21.3690 C   0  0  0  0  0  2  0  0  0  0  0  0
  -26.0770  -29.4320   20.7120 C   0  0  0  0  0  0  0  0  0  0  0  0
  -27.2600  -28.6260   20.7070 C   0  0  0  0  0  3  0  0  0  0  0  0
  -26.0920  -26.9220   19.4510 C   0  0  0  0  0  3  0  0  0  0  0  0
  -24.9240  -27.7080   19.4620 C   0  0  0  0  0  3  0  0  0  0  0  0
  -23.6700  -29.8220   20.1610 C   0  0  0  0  0  2  0  0  0  0  0  0
  -24.7170  -31.0740   22.0920 N   0  0  0  0  0  0  0  0  0  0  0  0
  -23.5610  -32.1480   23.7280 O   0  0  0  0  0  0  0  0  0  0  0  0
  -22.7970  -29.4560   22.5010 C   0  0  0  0  0  0  0  0  0  0  0  0
  -21.4690  -29.2810   22.3860 N   0  0  0  0  0  0  0  0  0  0  0  0
  -23.4800  -28.8200   23.3070 O   0  0  0  0  0  0  0  0  0  0  0  0
  -20.9750  -29.8450   21.7090 H   0  0  0  0  0  0  0  0  0  0  0  0
  -18.0930  -28.0900   22.9150 C   0  0  0  0  0  0  0  0  0  0  0  0
  -20.6560  -28.3360   23.1540 C   0  0  0  0  0  3  0  0  0  0  0  0
  -20.7440  -26.9140   22.5570 C   0  0  0  0  0  2  0  0  0  0  0  0
  -19.6270  -26.6100   21.5540 C   0  0  0  0  0  2  0  0  0  0  0  0
  -18.2540  -26.7510   22.2180 C   0  0  0  0  0  2  0  0  0  0  0  0
  -19.2200  -28.8430   23.3400 C   0  0  0  0  0  0  0  0  0  0  0  0
  -19.0140  -30.0980   23.9530 C   0  0  0  0  0  3  0  0  0  0  0  0
  -17.7140  -30.6010   24.1440 C   0  0  0  0  0  3  0  0  0  0  0  0
  -16.6010  -29.8460   23.7340 C   0  0  0  0  0  3  0  0  0  0  0  0
  -16.7910  -28.5930   23.1250 C   0  0  0  0  0  3  0  0  0  0  0  0
  -25.9240  -32.5190   23.8170 C   0  0  0  0  0  3  0  0  0  0  0  0
  -26.4470  -31.7430   25.0880 C   0  0  1  0  0  0  0  0  0  0  0  0
  -25.3560  -31.4920   26.1560 C   0  0  0  0  0  1  0  0  0  0  0  0
  -27.0400  -30.3740   24.6890 C   0  0  0  0  0  1  0  0  0  0  0  0
  -27.5930  -32.5420   25.7530 C   0  0  0  0  0  1  0  0  0  0  0  0
  -25.6030  -33.9130   24.1590 N   0  0  0  0  0  0  0  0  0  0  0  0
  -25.9240  -34.9760   23.4090 C   0  0  0  0  0  0  0  0  0  0  0  0
  -26.5920  -34.8860   22.3750 O   0  0  0  0  0  0  0  0  0  0  0  0
  -25.0090  -34.0560   24.9620 H   0  0  0  0  0  0  0  0  0  0  0  0
  -24.1800  -36.7570   23.0760 C   0  0  0  0  0  1  0  0  0  0  0  0
  -25.4270  -36.3560   23.8800 C   0  0  0  0  0  3  0  0  0  0  0  0
  -27.5570  -37.2510   24.7120 C   0  0  0  0  0  1  0  0  0  0  0  0
  -26.4500  -37.4190   23.7730 N   0  0  0  0  0  0  0  0  0  0  0  0
  -26.0380  -38.3350   23.9300 H   0  0  0  0  0  0  0  0  0  0  0  0
  1  8  2  0
  2  1  1  0
  4  3  1  0
  4  1  1  0
  5 10  1  0
  5  3  1  0
  6  7  1  0
  6  2  1  0
  6  5  1  0
  7  4  1  0
  7  9  1  6
 10 19  1  0
 11 19  1  0
 12 17  1  0
 13 14  1  0
 13 12  1  0
 15 14  1  0
 15 24  1  0
 15 16  1  0
 17 11  1  0
 17 16  1  0
 18 11  2  0
 19 20  1  0
 21 22  2  0
 22 41  1  0
 23 22  1  0
 23 26  1  0
 24 21  1  0
 24 25  1  0
 25 23  2  0
 26 27  1  0
 27 28  2  0
 29 32  1  0
 29 28  1  0
 30 29  2  0
 31 30  1  0
 31 26  2  0
 32 33  1  0
 33 34  1  0
 34 35  2  0
 36 35  1  0
 36 40  1  0
 37 36  2  0
 38 33  2  0
 38 37  1  0
 39 38  1  0
 41 42  1  0
 42 45  1  0
 42 44  1  0
 43 41  2  0
 46 47  1  0
 46 21  1  0
 48 46  1  0
 49  7  1  0
 49 51  1  0
 51 50  1  0
 52 53  1  0
 52 51  1  0
 54 65  2  0
 55 53  1  0
 55 60  1  0
 56 64  1  0
 56 66  1  0
 57 63  1  0
 57 59  1  0
 58 64  1  0
 59 58  1  0
 60 59  2  0
 61 62  1  0
 61 55  2  0
 62 57  2  0
 63 56  1  0
 64 54  1  0
 66 68  2  0
 67 66  1  0
 69 67  1  0
 70 79  2  0
 70 75  1  0
 71 67  1  0
 71 75  1  0
 72 71  1  0
 73 74  1  0
 73 72  1  0
 74 70  1  0
 75 76  2  0
 76 77  1  0
 78 77  2  0
 79 78  1  0
 80 54  1  0
 80 85  1  0
 80 81  1  0
 81 84  1  1
 81 82  1  0
 83 81  1  0
 85 88  1  0
 86 90  1  0
 86 85  1  0
 87 86  2  0
 90 89  1  0
 92 90  1  0
 92 93  1  0
 92 91  1  0
M  ISO  4  11 100  19 100  52 101  53 101
M  END
>  <TORSDO>  (59) 
F 20

>  <SCORE>  (59) 
-13.132

>  <name>  (59) 
58

>  <ligand_id>  (59) 
58

>  <original_smiles>  (59) 
[H]c1c([H])c([H])c2c(c1[H])C([H])([H])C([H])([H])C([H])([H])C2([H])N([H])C(=O)C1([H])N(C(=O)C([H])(N([H])C(=O)C([H])(N([H])C([H])([H])[H])C([H])([H])[H])C(C([H])([H])[H])(C([H])([H])[H])C([H])([H])[H])C([H])([H])c2c([H])c(OC([H])([H])C([H])(C([H])([H])[H])C([H])([H])[N+]3([H])C4([H])C(=O)C([H])([H])C3([H])C([H])(C([H])([H])N([H])C(=O)N3C([H])([H])C([H])([H])C([H])([H])C([H])(n5nc(-c6c([H])c([H])c(Oc7c([H])c([H])c(F)c([H])c7F)c([H])c6[H])c(C(=O)N([H])[H])c5N([H])[H])C3([H])[H])C4([H])[H])c([H])c([H])c2C1([H])[H]

>  <smiles>  (59) 
[H]c1c([H])c([H])c2c(c1[H])C([H])([H])C([H])([H])C([H])([H])C2([H])N([H])C(=O)C1([H])N(C(=O)C([H])(N([H])C(=O)C([H])(N([H])C([H])([H])[H])C([H])([H])[H])C(C([H])([H])[H])(C([H])([H])[H])C([H])([H])[H])C([H])([H])c2c([H])c(OC([H])([H])C([H])(C([H])([H])[H])C([H])([H])[N+]3([H])C4([H])C(=O)C([H])([H])C3([H])C([H])(C([H])([H])N([H])C(=O)N3C([H])([H])C([H])([H])C([H])([H])C([H])(n5nc(-c6c([H])c([H])c(Oc7c([H])c([H])c(F)c([H])c7F)c([H])c6[H])c(C(=O)N([H])[H])c5N([H])[H])C3([H])[H])C4([H])[H])c([H])c([H])c2C1([H])[H]

$$$$
59:0:0
     RDKit          3D

 96104  0  0  1  0  0  0  0  0999 V2000
  -28.8730  -21.8860   19.9060 C   0  0  0  0  0  3  0  0  0  0  0  0
  -29.4880  -20.5840   20.5560 C   0  0  0  0  0  0  0  0  0  0  0  0
  -27.8690  -19.0600   19.3850 C   0  0  0  0  0  2  0  0  0  0  0  0
  -28.3050  -17.5910   19.4410 C   0  0  0  0  0  3  0  0  0  0  0  0
  -29.5630  -18.0280   20.2150 C   0  0  0  0  0  3  0  0  0  0  0  0
  -28.4660  -16.8030   18.1440 C   0  0  0  0  0  1  0  0  0  0  0  0
  -28.8540  -19.3150   20.4280 N   0  0  0  0  0  0  0  0  0  0  0  0
  -30.5560  -20.6570   21.1680 O   0  0  0  0  0  0  0  0  0  0  0  0
  -30.0090  -17.2090   21.4730 C   0  0  0  0  0  2  0  0  0  0  0  0
  -30.6560  -14.7320   21.0890 C   0  0  0  0  0  0  0  0  0  0  0  0
  -30.6220  -12.4690   20.0770 C   0  0  0  0  0  2  0  0  0  0  0  0
  -29.7930  -12.5160   18.7740 C   0  0  0  0  0  2  0  0  0  0  0  0
  -28.2840  -12.3420   19.0600 C   0  0  0  0  0  2  0  0  0  0  0  0
  -27.7850  -13.2390   20.2250 C   0  0  0  0  0  3  0  0  0  0  0  0
  -28.7330  -13.1400   21.4420 C   0  0  0  0  0  2  0  0  0  0  0  0
  -30.0850  -13.4980   20.9840 N   0  0  0  0  0  0  0  0  0  0  0  0
  -31.8340  -14.9460   20.7880 O   0  0  0  0  0  0  0  0  0  0  0  0
  -29.7980  -15.7390   21.3790 N   0  0  0  0  0  0  0  0  0  0  0  0
  -28.8550  -15.4370   21.5720 H   0  0  0  0  0  0  0  0  0  0  0  0
  -25.3180  -13.7920   20.6940 C   0  0  0  0  0  0  0  0  0  0  0  0
  -24.2410  -12.9980   20.9830 C   0  0  0  0  0  0  0  0  0  0  0  0
  -24.7380  -11.6580   21.0250 C   0  0  0  0  0  0  0  0  0  0  0  0
  -26.4030  -12.9350   20.5850 N   0  0  0  0  0  0  0  0  0  0  0  0
  -26.0530  -11.6490   20.8440 N   0  0  0  0  0  0  0  0  0  0  0  0
  -24.0300  -10.3820   21.1690 C   0  0  0  0  0  0  0  0  0  0  0  0
  -24.4050   -9.4360   22.1470 C   0  0  0  0  0  3  0  0  0  0  0  0
  -23.6950   -8.2220   22.2780 C   0  0  0  0  0  3  0  0  0  0  0  0
  -22.5950   -7.9490   21.4300 C   0  0  0  0  0  0  0  0  0  0  0  0
  -22.2430   -8.8840   20.4430 C   0  0  0  0  0  3  0  0  0  0  0  0
  -22.9540  -10.0870   20.3080 C   0  0  0  0  0  3  0  0  0  0  0  0
  -21.8590   -6.7890   21.4740 O   0  0  0  0  0  0  0  0  0  0  0  0
  -21.7380   -6.0550   22.6250 C   0  0  0  0  0  0  0  0  0  0  0  0
  -21.1960   -6.6070   23.8070 C   0  0  0  0  0  3  0  0  0  0  0  0
  -21.0240   -5.7960   24.9470 C   0  0  0  0  0  3  0  0  0  0  0  0
  -21.3820   -4.4350   24.9080 C   0  0  0  0  0  0  0  0  0  0  0  0
  -21.9170   -3.8840   23.7310 C   0  0  0  0  0  3  0  0  0  0  0  0
  -22.0930   -4.6920   22.5930 C   0  0  0  0  0  0  0  0  0  0  0  0
  -22.5850   -4.1490   21.4540 F   0  0  0  0  0  0  0  0  0  0  0  0
  -21.2110   -3.6560   26.0020 F   0  0  0  0  0  0  0  0  0  0  0  0
  -22.8130  -13.4420   21.1100 C   0  0  0  0  0  0  0  0  0  0  0  0
  -22.0240  -12.7420   21.9180 N   0  0  0  0  0  0  0  0  0  0  0  0
  -22.3990  -14.4430   20.5240 O   0  0  0  0  0  0  0  0  0  0  0  0
  -22.3640  -11.9300   22.4120 H   0  0  0  0  0  0  0  0  0  0  0  0
  -21.0610  -13.0190   22.0430 H   0  0  0  0  0  0  0  0  0  0  0  0
  -25.4650  -15.1610   20.4910 N   0  0  0  0  0  0  0  0  0  0  0  0
  -24.6670  -15.7890   20.4730 H   0  0  0  0  0  0  0  0  0  0  0  0
  -26.3190  -15.6000   20.1720 H   0  0  0  0  0  0  0  0  0  0  0  0
  -29.1340  -23.1040   20.7310 N   0  0  0  0  0  4  0  0  0  0  0  0
  -29.1960  -22.7660   21.6770 H   0  0  0  0  0  0  0  0  0  0  0  0
  -30.0660  -23.3820   20.4520 H   0  0  0  0  0  0  0  0  0  0  0  0
  -28.1900  -24.2850   20.6890 C   0  0  0  0  0  2  0  0  0  0  0  0
  -28.5440  -25.4320   19.6790 C   0  0  0  0  0  2  0  0  0  0  0  0
  -28.3940  -26.7890   20.1790 O   0  0  0  0  0  0  0  0  0  0  0  0
  -24.5610  -31.9510   23.2650 C   0  0  0  0  0  0  0  0  0  0  0  0
  -27.1970  -27.4950   20.1460 C   0  0  0  0  0  0  0  0  0  0  0  0
  -23.3450  -30.5480   21.6310 C   0  0  0  0  0  3  0  0  0  0  0  0
  -24.7920  -29.0210   20.1780 C   0  0  0  0  0  0  0  0  0  0  0  0
  -25.8690  -30.9110   21.4130 C   0  0  0  0  0  2  0  0  0  0  0  0
  -25.9530  -29.5420   20.7590 C   0  0  0  0  0  0  0  0  0  0  0  0
  -27.1530  -28.7880   20.7350 C   0  0  0  0  0  3  0  0  0  0  0  0
  -26.0120  -26.9970   19.5590 C   0  0  0  0  0  3  0  0  0  0  0  0
  -24.8210  -27.7520   19.5700 C   0  0  0  0  0  3  0  0  0  0  0  0
  -23.5420  -29.8730   20.2460 C   0  0  0  0  0  2  0  0  0  0  0  0
  -24.6110  -31.1510   22.1610 N   0  0  0  0  0  0  0  0  0  0  0  0
  -23.4820  -32.2180   23.8150 O   0  0  0  0  0  0  0  0  0  0  0  0
  -22.7060  -29.5240   22.5950 C   0  0  0  0  0  0  0  0  0  0  0  0
  -21.3840  -29.3300   22.4710 N   0  0  0  0  0  0  0  0  0  0  0  0
  -23.3970  -28.9050   23.4080 O   0  0  0  0  0  0  0  0  0  0  0  0
  -20.8860  -29.8790   21.7850 H   0  0  0  0  0  0  0  0  0  0  0  0
  -18.0260  -28.0840   22.9590 C   0  0  0  0  0  0  0  0  0  0  0  0
  -20.5790  -28.3820   23.2410 C   0  0  0  0  0  3  0  0  0  0  0  0
  -20.7060  -26.9490   22.6710 C   0  0  0  0  0  2  0  0  0  0  0  0
  -19.6140  -26.6070   21.6540 C   0  0  0  0  0  2  0  0  0  0  0  0
  -18.2270  -26.7350   22.2900 C   0  0  0  0  0  2  0  0  0  0  0  0
  -19.1320  -28.8650   23.3920 C   0  0  0  0  0  0  0  0  0  0  0  0
  -18.8920  -30.1280   23.9750 C   0  0  0  0  0  3  0  0  0  0  0  0
  -17.5790  -30.6120   24.1300 C   0  0  0  0  0  3  0  0  0  0  0  0
  -16.4890  -29.8300   23.7130 C   0  0  0  0  0  3  0  0  0  0  0  0
  -16.7140  -28.5670   23.1360 C   0  0  0  0  0  3  0  0  0  0  0  0
  -25.8500  -32.5860   23.8740 C   0  0  0  0  0  3  0  0  0  0  0  0
  -25.5460  -33.9870   24.1930 N   0  0  0  0  0  0  0  0  0  0  0  0
  -25.8930  -35.0330   23.4300 C   0  0  0  0  0  0  0  0  0  0  0  0
  -26.5710  -34.9180   22.4040 O   0  0  0  0  0  0  0  0  0  0  0  0
  -24.9420  -34.1520   24.9850 H   0  0  0  0  0  0  0  0  0  0  0  0
  -24.1860  -36.8350   23.0420 C   0  0  0  0  0  1  0  0  0  0  0  0
  -25.4120  -36.4280   23.8740 C   0  0  0  0  0  3  0  0  0  0  0  0
  -27.5390  -37.2970   24.7340 C   0  0  0  0  0  1  0  0  0  0  0  0
  -26.4540  -37.4730   23.7710 N   0  0  0  0  0  0  0  0  0  0  0  0
  -26.0540  -38.3970   23.9110 H   0  0  0  0  0  0  0  0  0  0  0  0
  -26.3730  -31.8250   25.1530 C   0  0  1  0  0  0  0  0  0  0  0  0
  -25.2820  -31.5930   26.2250 C   0  0  0  0  0  1  0  0  0  0  0  0
  -26.9490  -30.4430   24.7650 C   0  0  0  0  0  1  0  0  0  0  0  0
  -27.5300  -32.6220   25.8000 C   0  0  0  0  0  1  0  0  0  0  0  0
  -29.4430  -22.1740   18.4930 C   0  0  0  0  0  2  0  0  0  0  0  0
  -30.7530  -22.7340   18.5610 O   0  0  0  0  0  0  0  0  0  0  0  0
  -31.1110  -22.7470   17.6750 H   0  0  0  0  0  0  0  0  0  0  0  0
  1 94  1  0
  1  2  1  0
  1 48  1  0
  2  8  2  0
  3  4  1  0
  3  7  1  0
  4  6  1  0
  4  5  1  0
  5  7  1  0
  5  9  1  0
  7  2  1  0
 10 18  1  0
 11 16  1  0
 12 13  1  0
 12 11  1  0
 14 13  1  0
 14 23  1  0
 14 15  1  0
 16 10  1  0
 16 15  1  0
 17 10  2  0
 18  9  1  0
 18 19  1  0
 20 21  2  0
 21 22  1  0
 21 40  1  0
 22 25  1  0
 23 20  1  0
 23 24  1  0
 24 22  2  0
 25 26  1  0
 26 27  2  0
 28 31  1  0
 28 27  1  0
 29 28  2  0
 30 29  1  0
 30 25  2  0
 31 32  1  0
 32 33  1  0
 33 34  2  0
 35 34  1  0
 35 39  1  0
 36 35  2  0
 37 32  2  0
 37 36  1  0
 38 37  1  0
 40 41  1  0
 41 44  1  0
 41 43  1  0
 42 40  2  0
 45 20  1  0
 46 45  1  0
 47 45  1  0
 48 49  1  0
 50 48  1  0
 51 48  1  0
 52 53  1  0
 52 51  1  0
 54 65  2  0
 55 53  1  0
 55 60  1  0
 56 64  1  0
 56 66  1  0
 57 63  1  0
 57 59  1  0
 58 64  1  0
 59 58  1  0
 60 59  2  0
 61 62  1  0
 61 55  2  0
 62 57  2  0
 63 56  1  0
 64 54  1  0
 66 68  2  0
 67 66  1  0
 69 67  1  0
 70 79  2  0
 70 75  1  0
 71 67  1  0
 71 75  1  0
 72 71  1  0
 73 74  1  0
 73 72  1  0
 74 70  1  0
 75 76  2  0
 76 77  1  0
 78 77  2  0
 79 78  1  0
 80 54  1  0
 80 81  1  0
 80 90  1  0
 81 84  1  0
 82 86  1  0
 82 81  1  0
 83 82  2  0
 86 85  1  0
 88 86  1  0
 88 89  1  0
 88 87  1  0
 90 93  1  1
 90 91  1  0
 92 90  1  0
 94 95  1  0
 96 95  1  0
M  ISO  4  10 100  18 100  52 101  53 101
M  END
>  <TORSDO>  (60) 
F 23

>  <SCORE>  (60) 
-12.505

>  <name>  (60) 
59

>  <ligand_id>  (60) 
59

>  <original_smiles>  (60) 
[H]OC([H])([H])C([H])(C(=O)N1C([H])([H])C([H])(C([H])([H])[H])C1([H])C([H])([H])N([H])C(=O)N1C([H])([H])C([H])([H])C([H])([H])C([H])(n2nc(-c3c([H])c([H])c(Oc4c([H])c([H])c(F)c([H])c4F)c([H])c3[H])c(C(=O)N([H])[H])c2N([H])[H])C1([H])[H])[N+]([H])([H])C([H])([H])C([H])([H])Oc1c([H])c([H])c2c(c1[H])C([H])([H])N(C(=O)C([H])(N([H])C(=O)C([H])(N([H])C([H])([H])[H])C([H])([H])[H])C(C([H])([H])[H])(C([H])([H])[H])C([H])([H])[H])C([H])(C(=O)N([H])C1([H])c3c([H])c([H])c([H])c([H])c3C([H])([H])C([H])([H])C1([H])[H])C2([H])[H]

>  <smiles>  (60) 
[H]OC([H])([H])C([H])(C(=O)N1C([H])([H])C([H])(C([H])([H])[H])C1([H])C([H])([H])N([H])C(=O)N1C([H])([H])C([H])([H])C([H])([H])C([H])(n2nc(-c3c([H])c([H])c(Oc4c([H])c([H])c(F)c([H])c4F)c([H])c3[H])c(C(=O)N([H])[H])c2N([H])[H])C1([H])[H])[N+]([H])([H])C([H])([H])C([H])([H])Oc1c([H])c([H])c2c(c1[H])C([H])([H])N(C(=O)C([H])(N([H])C(=O)C([H])(N([H])C([H])([H])[H])C([H])([H])[H])C(C([H])([H])[H])(C([H])([H])[H])C([H])([H])[H])C([H])(C(=O)N([H])C1([H])c3c([H])c([H])c([H])c([H])c3C([H])([H])C([H])([H])C1([H])[H])C2([H])[H]

$$$$
60:0:0
     RDKit          3D

 95104  0  0  1  0  0  0  0  0999 V2000
  -26.7150  -21.4270   19.9220 C   0  0  0  0  0  2  0  0  0  0  0  0
  -27.3760  -20.5610   18.8190 C   0  0  0  0  0  2  0  0  0  0  0  0
  -28.3040  -16.8930   18.2050 C   0  0  0  0  0  2  0  0  0  0  0  0
  -27.9780  -18.3590   17.9070 C   0  0  0  0  0  2  0  0  0  0  0  0
  -28.0340  -18.7070   20.4220 C   0  0  0  0  0  2  0  0  0  0  0  0
  -29.4040  -16.8370   19.2340 C   0  0  0  0  0  3  0  0  0  0  0  0
  -29.2840  -17.8260   20.3710 C   0  0  0  0  0  3  0  0  0  0  0  0
  -29.2330  -16.3360   20.6580 C   0  0  0  0  0  3  0  0  0  0  0  0
  -27.4510  -19.0950   19.0960 N   0  0  1  0  0  4  0  0  0  0  0  0
  -26.4910  -18.7890   19.1670 H   0  0  0  0  0  0  0  0  0  0  0  0
  -30.9960  -14.6430   20.6740 C   0  0  0  0  0  0  0  0  0  0  0  0
  -30.7200  -12.4890   19.5130 C   0  0  0  0  0  2  0  0  0  0  0  0
  -29.8110  -12.6510   18.2790 C   0  0  0  0  0  2  0  0  0  0  0  0
  -28.3340  -12.4800   18.6740 C   0  0  0  0  0  2  0  0  0  0  0  0
  -27.9420  -13.3700   19.8790 C   0  0  0  0  0  3  0  0  0  0  0  0
  -28.9540  -13.2000   21.0340 C   0  0  0  0  0  2  0  0  0  0  0  0
  -30.2960  -13.4900   20.5050 N   0  0  0  0  0  0  0  0  0  0  0  0
  -32.1530  -14.7990   20.2830 O   0  0  0  0  0  0  0  0  0  0  0  0
  -30.3610  -15.6780   21.2500 N   0  0  0  0  0  0  0  0  0  0  0  0
  -31.0110  -16.3220   21.6740 H   0  0  0  0  0  0  0  0  0  0  0  0
  -25.5290  -14.0400   20.4910 C   0  0  0  0  0  0  0  0  0  0  0  0
  -24.4360  -13.2890   20.8300 C   0  0  0  0  0  0  0  0  0  0  0  0
  -24.8830  -11.9360   20.8440 C   0  0  0  0  0  0  0  0  0  0  0  0
  -26.5700  -13.1360   20.3140 N   0  0  0  0  0  0  0  0  0  0  0  0
  -26.1830  -11.8690   20.5870 N   0  0  0  0  0  0  0  0  0  0  0  0
  -24.1380  -10.6890   21.0300 C   0  0  0  0  0  0  0  0  0  0  0  0
  -24.5270   -9.7400   22.0000 C   0  0  0  0  0  3  0  0  0  0  0  0
  -23.7900   -8.5500   22.1720 C   0  0  0  0  0  3  0  0  0  0  0  0
  -22.6490   -8.3030   21.3710 C   0  0  0  0  0  0  0  0  0  0  0  0
  -22.2790   -9.2410   20.3920 C   0  0  0  0  0  3  0  0  0  0  0  0
  -23.0180  -10.4210   20.2190 C   0  0  0  0  0  3  0  0  0  0  0  0
  -21.8850   -7.1630   21.4520 O   0  0  0  0  0  0  0  0  0  0  0  0
  -21.7570   -6.4650   22.6230 C   0  0  0  0  0  0  0  0  0  0  0  0
  -21.2250   -7.0570   23.7890 C   0  0  0  0  0  3  0  0  0  0  0  0
  -21.0450   -6.2810   24.9520 C   0  0  0  0  0  3  0  0  0  0  0  0
  -21.3910   -4.9170   24.9490 C   0  0  0  0  0  0  0  0  0  0  0  0
  -21.9170   -4.3250   23.7890 C   0  0  0  0  0  3  0  0  0  0  0  0
  -22.0970   -5.0970   22.6280 C   0  0  0  0  0  0  0  0  0  0  0  0
  -22.5860   -4.5180   21.5050 F   0  0  0  0  0  0  0  0  0  0  0  0
  -21.2090   -4.1710   26.0640 F   0  0  0  0  0  0  0  0  0  0  0  0
  -23.0350  -13.7940   21.0280 C   0  0  0  0  0  0  0  0  0  0  0  0
  -22.2670  -13.1330   21.8900 N   0  0  0  0  0  0  0  0  0  0  0  0
  -22.6280  -14.8020   20.4550 O   0  0  0  0  0  0  0  0  0  0  0  0
  -22.6080  -12.3190   22.3780 H   0  0  0  0  0  0  0  0  0  0  0  0
  -21.3270  -13.4530   22.0690 H   0  0  0  0  0  0  0  0  0  0  0  0
  -25.7110  -15.4000   20.2970 N   0  0  0  0  0  0  0  0  0  0  0  0
  -24.9380  -16.0550   20.3270 H   0  0  0  0  0  0  0  0  0  0  0  0
  -26.5580  -15.7770   19.9000 H   0  0  0  0  0  0  0  0  0  0  0  0
  -26.1650  -22.7840   19.4210 C   0  0  0  0  0  2  0  0  0  0  0  0
  -27.1820  -23.7680   18.9680 N   0  0  0  0  0  4  0  0  0  0  0  0
  -27.7680  -23.3800   18.2480 H   0  0  0  0  0  0  0  0  0  0  0  0
  -26.6480  -24.4970   18.5240 H   0  0  0  0  0  0  0  0  0  0  0  0
  -28.0310  -24.4220   20.0030 C   0  0  0  0  0  2  0  0  0  0  0  0
  -28.7330  -25.6920   19.4470 C   0  0  0  0  0  2  0  0  0  0  0  0
  -28.5690  -26.8830   20.2340 O   0  0  0  0  0  0  0  0  0  0  0  0
  -24.6350  -31.9510   23.3150 C   0  0  0  0  0  0  0  0  0  0  0  0
  -27.3720  -27.5740   20.2000 C   0  0  0  0  0  0  0  0  0  0  0  0
  -23.4610  -30.5500   21.6440 C   0  0  0  0  0  3  0  0  0  0  0  0
  -24.9510  -29.0500   20.2220 C   0  0  0  0  0  0  0  0  0  0  0  0
  -25.9820  -30.9480   21.4740 C   0  0  0  0  0  2  0  0  0  0  0  0
  -26.0970  -29.5840   20.8230 C   0  0  0  0  0  0  0  0  0  0  0  0
  -27.3050  -28.8480   20.8190 C   0  0  0  0  0  3  0  0  0  0  0  0
  -26.2000  -27.0630   19.5950 C   0  0  0  0  0  3  0  0  0  0  0  0
  -24.9950  -27.7850   19.6210 C   0  0  0  0  0  3  0  0  0  0  0  0
  -23.6890  -29.8790   20.2660 C   0  0  0  0  0  2  0  0  0  0  0  0
  -24.7090  -31.1660   22.2030 N   0  0  0  0  0  0  0  0  0  0  0  0
  -23.5490  -32.2020   23.8550 O   0  0  0  0  0  0  0  0  0  0  0  0
  -22.8240  -29.5080   22.5940 C   0  0  0  0  0  0  0  0  0  0  0  0
  -21.5030  -29.2990   22.4620 N   0  0  0  0  0  0  0  0  0  0  0  0
  -23.5170  -28.8920   23.4070 O   0  0  0  0  0  0  0  0  0  0  0  0
  -21.0010  -29.8540   21.7830 H   0  0  0  0  0  0  0  0  0  0  0  0
  -18.1570  -28.0290   22.9410 C   0  0  0  0  0  0  0  0  0  0  0  0
  -20.7090  -28.3320   23.2170 C   0  0  0  0  0  3  0  0  0  0  0  0
  -20.8380  -26.9130   22.6170 C   0  0  0  0  0  2  0  0  0  0  0  0
  -19.7380  -26.5840   21.6020 C   0  0  0  0  0  2  0  0  0  0  0  0
  -18.3620  -26.6860   22.2580 C   0  0  0  0  0  2  0  0  0  0  0  0
  -19.2600  -28.8060   23.3800 C   0  0  0  0  0  0  0  0  0  0  0  0
  -19.0180  -30.0640   23.9740 C   0  0  0  0  0  3  0  0  0  0  0  0
  -17.7060  -30.5450   24.1360 C   0  0  0  0  0  3  0  0  0  0  0  0
  -16.6170  -29.7620   23.7170 C   0  0  0  0  0  3  0  0  0  0  0  0
  -16.8430  -28.5060   23.1270 C   0  0  0  0  0  3  0  0  0  0  0  0
  -25.9120  -32.5960   23.9430 C   0  0  0  0  0  3  0  0  0  0  0  0
  -25.5910  -33.9970   24.2530 N   0  0  0  0  0  0  0  0  0  0  0  0
  -25.9150  -35.0410   23.4790 C   0  0  0  0  0  0  0  0  0  0  0  0
  -26.5900  -34.9280   22.4510 O   0  0  0  0  0  0  0  0  0  0  0  0
  -24.9890  -34.1590   25.0470 H   0  0  0  0  0  0  0  0  0  0  0  0
  -24.1730  -36.8100   23.0960 C   0  0  0  0  0  1  0  0  0  0  0  0
  -25.4130  -36.4270   23.9180 C   0  0  0  0  0  3  0  0  0  0  0  0
  -27.5310  -37.3450   24.7530 C   0  0  0  0  0  1  0  0  0  0  0  0
  -26.4360  -37.4890   23.7980 N   0  0  0  0  0  0  0  0  0  0  0  0
  -26.0150  -38.4070   23.9310 H   0  0  0  0  0  0  0  0  0  0  0  0
  -26.4250  -31.8420   25.2280 C   0  0  1  0  0  0  0  0  0  0  0  0
  -25.3240  -31.5880   26.2810 C   0  0  0  0  0  1  0  0  0  0  0  0
  -27.0380  -30.4730   24.8550 C   0  0  0  0  0  1  0  0  0  0  0  0
  -27.5470  -32.6620   25.9070 C   0  0  0  0  0  1  0  0  0  0  0  0
  2  9  1  0
  2  1  1  0
  4  3  1  0
  4  9  1  0
  6  3  1  0
  6  7  1  0
  6  8  1  0
  7  5  1  0
  7  8  1  0
  8 19  1  0
  9 10  1  1
  9  5  1  0
 11 19  1  0
 12 17  1  0
 13 14  1  0
 13 12  1  0
 15 14  1  0
 15 24  1  0
 15 16  1  0
 17 11  1  0
 17 16  1  0
 18 11  2  0
 19 20  1  0
 21 22  2  0
 22 23  1  0
 22 41  1  0
 23 26  1  0
 24 21  1  0
 24 25  1  0
 25 23  2  0
 26 27  1  0
 27 28  2  0
 29 32  1  0
 29 28  1  0
 30 29  2  0
 31 30  1  0
 31 26  2  0
 32 33  1  0
 33 38  2  0
 33 34  1  0
 34 35  2  0
 36 35  1  0
 36 40  1  0
 37 36  2  0
 38 37  1  0
 39 38  1  0
 41 42  1  0
 42 45  1  0
 42 44  1  0
 43 41  2  0
 46 47  1  0
 46 21  1  0
 48 46  1  0
 49  1  1  0
 50 49  1  0
 50 53  1  0
 51 50  1  0
 52 50  1  0
 54 53  1  0
 54 55  1  0
 56 67  2  0
 57 55  1  0
 57 62  1  0
 58 66  1  0
 58 68  1  0
 59 65  1  0
 59 61  1  0
 60 66  1  0
 61 60  1  0
 62 61  2  0
 63 64  1  0
 63 57  2  0
 64 59  2  0
 65 58  1  0
 66 56  1  0
 68 70  2  0
 69 68  1  0
 71 69  1  0
 72 81  2  0
 72 77  1  0
 73 69  1  0
 73 77  1  0
 74 73  1  0
 75 76  1  0
 75 74  1  0
 76 72  1  0
 77 78  2  0
 78 79  1  0
 80 79  2  0
 81 80  1  0
 82 56  1  0
 82 83  1  0
 82 92  1  0
 83 86  1  0
 84 88  1  0
 84 83  1  0
 85 84  2  0
 88 87  1  0
 90 88  1  0
 90 91  1  0
 90 89  1  0
 92 95  1  1
 92 93  1  0
 94 92  1  0
M  ISO  4  11 100  19 100  54 101  55 101
M  END
>  <TORSDO>  (61) 
F 22

>  <SCORE>  (61) 
-12.369

>  <name>  (61) 
60

>  <ligand_id>  (61) 
60

>  <original_smiles>  (61) 
[H]c1c([H])c([H])c2c(c1[H])C([H])([H])C([H])([H])C([H])([H])C2([H])N([H])C(=O)C1([H])N(C(=O)C([H])(N([H])C(=O)C([H])(N([H])C([H])([H])[H])C([H])([H])[H])C(C([H])([H])[H])(C([H])([H])[H])C([H])([H])[H])C([H])([H])c2c([H])c(OC([H])([H])C([H])([H])[N+]([H])([H])C([H])([H])C([H])([H])C([H])([H])[N+]3([H])C([H])([H])C([H])([H])C4([H])C([H])(N([H])C(=O)N5C([H])([H])C([H])([H])C([H])([H])C([H])(n6nc(-c7c([H])c([H])c(Oc8c([H])c([H])c(F)c([H])c8F)c([H])c7[H])c(C(=O)N([H])[H])c6N([H])[H])C5([H])[H])C4([H])C3([H])[H])c([H])c([H])c2C1([H])[H]

>  <smiles>  (61) 
[H]c1c([H])c([H])c2c(c1[H])C([H])([H])C([H])([H])C([H])([H])C2([H])N([H])C(=O)C1([H])N(C(=O)C([H])(N([H])C(=O)C([H])(N([H])C([H])([H])[H])C([H])([H])[H])C(C([H])([H])[H])(C([H])([H])[H])C([H])([H])[H])C([H])([H])c2c([H])c(OC([H])([H])C([H])([H])[N+]([H])([H])C([H])([H])C([H])([H])C([H])([H])[N+]3([H])C([H])([H])C([H])([H])C4([H])C([H])(N([H])C(=O)N5C([H])([H])C([H])([H])C([H])([H])C([H])(n6nc(-c7c([H])c([H])c(Oc8c([H])c([H])c(F)c([H])c8F)c([H])c7[H])c(C(=O)N([H])[H])c6N([H])[H])C5([H])[H])C4([H])C3([H])[H])c([H])c([H])c2C1([H])[H]

$$$$
61:0:0
     RDKit          3D

102110  0  0  1  0  0  0  0  0999 V2000
  -28.0300  -19.5640   20.7900 C   0  0  0  0  0  2  0  0  0  0  0  0
  -30.3960  -19.5280   20.1570 C   0  0  0  0  0  2  0  0  0  0  0  0
  -29.4270  -19.9980   21.2650 C   0  0  0  0  0  3  0  0  0  0  0  0
  -28.2630  -18.8320   19.4530 C   0  0  0  0  0  3  0  0  0  0  0  0
  -29.7470  -18.2800   19.5320 C   0  0  0  0  0  3  0  0  0  0  0  0
  -27.8470  -19.7870   18.2510 C   0  0  0  0  0  2  0  0  0  0  0  0
  -28.2180  -21.3360   18.1040 C   0  0  0  0  0  2  0  0  0  0  0  0
  -27.3240  -22.4010   18.6870 N   0  0  0  0  0  4  0  0  0  0  0  0
  -27.3010  -22.2770   19.6770 H   0  0  0  0  0  0  0  0  0  0  0  0
  -26.3640  -22.2600   18.3840 H   0  0  0  0  0  0  0  0  0  0  0  0
  -27.7440  -23.8270   18.3680 C   0  0  0  0  0  3  0  0  0  0  0  0
  -27.4680  -24.9230   19.4670 C   0  0  0  0  0  3  0  0  0  0  0  0
  -27.7300  -26.3370   19.1320 O   0  0  0  0  0  0  0  0  0  0  0  0
  -24.5770  -31.5630   22.9870 C   0  0  0  0  0  0  0  0  0  0  0  0
  -26.6700  -27.2270   19.2930 C   0  0  0  0  0  0  0  0  0  0  0  0
  -23.1590  -30.3560   21.3580 C   0  0  0  0  0  3  0  0  0  0  0  0
  -24.3960  -28.9010   19.6740 C   0  0  0  0  0  0  0  0  0  0  0  0
  -25.6820  -30.6070   20.9600 C   0  0  0  0  0  2  0  0  0  0  0  0
  -25.6360  -29.2870   20.1980 C   0  0  0  0  0  0  0  0  0  0  0  0
  -26.7790  -28.4590   20.0070 C   0  0  0  0  0  3  0  0  0  0  0  0
  -25.4200  -26.9180   18.7110 C   0  0  0  0  0  3  0  0  0  0  0  0
  -24.2810  -27.7170   18.9280 C   0  0  0  0  0  3  0  0  0  0  0  0
  -23.2170  -29.8180   19.9130 C   0  0  0  0  0  2  0  0  0  0  0  0
  -24.4950  -30.8610   21.8230 N   0  0  0  0  0  0  0  0  0  0  0  0
  -23.5600  -31.8270   23.6470 O   0  0  0  0  0  0  0  0  0  0  0  0
  -22.5510  -29.2730   22.2810 C   0  0  0  0  0  0  0  0  0  0  0  0
  -21.2220  -29.1000   22.2010 N   0  0  0  0  0  0  0  0  0  0  0  0
  -23.2770  -28.5990   23.0240 O   0  0  0  0  0  0  0  0  0  0  0  0
  -20.6960  -29.6970   21.5740 H   0  0  0  0  0  0  0  0  0  0  0  0
  -17.8780  -27.8180   22.6980 C   0  0  0  0  0  0  0  0  0  0  0  0
  -20.4340  -28.1110   22.9490 C   0  0  0  0  0  3  0  0  0  0  0  0
  -20.5560  -26.7020   22.3140 C   0  0  0  0  0  2  0  0  0  0  0  0
  -19.4480  -26.4070   21.2990 C   0  0  0  0  0  2  0  0  0  0  0  0
  -18.0650  -26.5030   21.9680 C   0  0  0  0  0  2  0  0  0  0  0  0
  -18.9900  -28.5770   23.1380 C   0  0  0  0  0  0  0  0  0  0  0  0
  -18.7610  -29.8130   23.7760 C   0  0  0  0  0  3  0  0  0  0  0  0
  -17.4510  -30.2870   23.9780 C   0  0  0  0  0  3  0  0  0  0  0  0
  -16.3540  -29.5250   23.5460 C   0  0  0  0  0  3  0  0  0  0  0  0
  -16.5680  -28.2930   22.9080 C   0  0  0  0  0  3  0  0  0  0  0  0
  -25.9420  -32.0920   23.5330 C   0  0  0  0  0  3  0  0  0  0  0  0
  -26.5440  -31.1770   24.6710 C   0  0  1  0  0  0  0  0  0  0  0  0
  -25.5490  -30.8800   25.8210 C   0  0  0  0  0  1  0  0  0  0  0  0
  -27.0200  -29.8220   24.0970 C   0  0  0  0  0  1  0  0  0  0  0  0
  -27.7850  -31.8580   25.2960 C   0  0  0  0  0  1  0  0  0  0  0  0
  -25.7230  -33.4580   24.0330 N   0  0  0  0  0  0  0  0  0  0  0  0
  -26.0420  -34.5670   23.3600 C   0  0  0  0  0  0  0  0  0  0  0  0
  -26.6220  -34.5510   22.2720 O   0  0  0  0  0  0  0  0  0  0  0  0
  -25.2130  -33.5420   24.9010 H   0  0  0  0  0  0  0  0  0  0  0  0
  -24.3710  -36.4470   23.3400 C   0  0  0  0  0  1  0  0  0  0  0  0
  -25.6600  -35.9170   23.9930 C   0  0  0  0  0  3  0  0  0  0  0  0
  -27.8930  -36.6390   24.7200 C   0  0  0  0  0  1  0  0  0  0  0  0
  -26.7240  -36.9390   23.8980 N   0  0  0  0  0  0  0  0  0  0  0  0
  -26.3720  -37.8540   24.1690 H   0  0  0  0  0  0  0  0  0  0  0  0
  -29.5830  -21.4920   21.6320 C   0  0  0  0  0  2  0  0  0  0  0  0
  -29.4350  -21.7510   23.0830 N   0  0  0  0  0  4  0  0  0  0  0  0
  -30.1480  -21.2770   23.6120 H   0  0  0  0  0  0  0  0  0  0  0  0
  -28.5410  -21.4740   23.4420 H   0  0  0  0  0  0  0  0  0  0  0  0
  -29.5360  -22.7370   23.2740 H   0  0  0  0  0  0  0  0  0  0  0  0
  -30.0140  -16.9670   20.4300 C   0  0  0  0  0  3  0  0  0  0  0  0
  -30.9120  -14.6290   19.6870 C   0  0  0  0  0  0  0  0  0  0  0  0
  -30.7340  -12.2610   18.9640 C   0  0  0  0  0  2  0  0  0  0  0  0
  -29.7530  -12.2250   17.7720 C   0  0  0  0  0  2  0  0  0  0  0  0
  -28.2860  -12.1450   18.2560 C   0  0  0  0  0  2  0  0  0  0  0  0
  -27.9640  -13.1720   19.3760 C   0  0  0  0  0  3  0  0  0  0  0  0
  -29.0560  -13.1310   20.4690 C   0  0  0  0  0  2  0  0  0  0  0  0
  -30.3380  -13.4000   19.7980 N   0  0  0  0  0  0  0  0  0  0  0  0
  -32.1020  -14.7960   19.4030 O   0  0  0  0  0  0  0  0  0  0  0  0
  -30.0060  -15.6530   19.7430 N   0  0  0  0  0  0  0  0  0  0  0  0
  -29.0680  -15.2830   19.6950 H   0  0  0  0  0  0  0  0  0  0  0  0
  -25.6660  -13.9340   20.2530 C   0  0  0  0  0  0  0  0  0  0  0  0
  -24.5790  -13.2330   20.6720 C   0  0  0  0  0  0  0  0  0  0  0  0
  -24.9460  -11.8500   20.6030 C   0  0  0  0  0  0  0  0  0  0  0  0
  -26.6300  -12.9850   19.9390 N   0  0  0  0  0  0  0  0  0  0  0  0
  -26.2060  -11.7290   20.2130 N   0  0  0  0  0  0  0  0  0  0  0  0
  -24.1500  -10.6380   20.8210 C   0  0  0  0  0  0  0  0  0  0  0  0
  -24.5450   -9.6530   21.7530 C   0  0  0  0  0  3  0  0  0  0  0  0
  -23.7560   -8.5010   21.9550 C   0  0  0  0  0  3  0  0  0  0  0  0
  -22.5580   -8.3250   21.2260 C   0  0  0  0  0  0  0  0  0  0  0  0
  -22.1790   -9.2970   20.2860 C   0  0  0  0  0  3  0  0  0  0  0  0
  -22.9660  -10.4420   20.0790 C   0  0  0  0  0  3  0  0  0  0  0  0
  -21.7420   -7.2280   21.3410 O   0  0  0  0  0  0  0  0  0  0  0  0
  -21.6460   -6.5200   22.5120 C   0  0  0  0  0  0  0  0  0  0  0  0
  -21.2460   -7.1290   23.7210 C   0  0  0  0  0  3  0  0  0  0  0  0
  -21.0980   -6.3500   24.8880 C   0  0  0  0  0  3  0  0  0  0  0  0
  -21.3340   -4.9650   24.8430 C   0  0  0  0  0  0  0  0  0  0  0  0
  -21.7260   -4.3540   23.6390 C   0  0  0  0  0  3  0  0  0  0  0  0
  -21.8800   -5.1300   22.4770 C   0  0  0  0  0  0  0  0  0  0  0  0
  -22.2390   -4.5320   21.3150 F   0  0  0  0  0  0  0  0  0  0  0  0
  -21.1820   -4.2180   25.9620 F   0  0  0  0  0  0  0  0  0  0  0  0
  -23.2320  -13.7940   21.0310 C   0  0  0  0  0  0  0  0  0  0  0  0
  -22.5090  -13.1500   21.9350 N   0  0  0  0  0  0  0  0  0  0  0  0
  -22.8280  -14.8480   20.5350 O   0  0  0  0  0  0  0  0  0  0  0  0
  -22.8450  -12.3000   22.3720 H   0  0  0  0  0  0  0  0  0  0  0  0
  -21.6020  -13.5120   22.2060 H   0  0  0  0  0  0  0  0  0  0  0  0
  -25.9100  -15.2960   20.0860 N   0  0  0  0  0  0  0  0  0  0  0  0
  -25.1570  -15.9600   20.2240 H   0  0  0  0  0  0  0  0  0  0  0  0
  -26.7150  -15.7010   19.6360 H   0  0  0  0  0  0  0  0  0  0  0  0
  -31.2380  -16.9990   21.4070 C   0  0  0  0  0  2  0  0  0  0  0  0
  -30.9510  -17.6800   22.6870 N   0  0  0  0  0  4  0  0  0  0  0  0
  -30.6680  -18.6300   22.5520 H   0  0  0  0  0  0  0  0  0  0  0  0
  -31.7750  -17.6730   23.2670 H   0  0  0  0  0  0  0  0  0  0  0  0
  -30.2360  -17.1820   23.1870 H   0  0  0  0  0  0  0  0  0  0  0  0
  1  3  1  0
  2  3  1  0
  3 54  1  0
  4  6  1  0
  4  5  1  0
  4  1  1  0
  5  2  1  0
  5 59  1  0
  7  6  1  0
  7  8  1  0
  8  9  1  0
 10  8  1  0
 11  8  1  0
 11 12  2  0
 13 15  1  0
 13 12  1  0
 14 25  2  0
 15 20  1  0
 16 24  1  0
 16 26  1  0
 17 23  1  0
 17 19  1  0
 18 24  1  0
 19 18  1  0
 20 19  2  0
 21 22  1  0
 21 15  2  0
 22 17  2  0
 23 16  1  0
 24 14  1  0
 26 28  2  0
 27 26  1  0
 29 27  1  0
 30 39  2  0
 30 35  1  0
 31 27  1  0
 31 35  1  0
 32 31  1  0
 33 34  1  0
 33 32  1  0
 34 30  1  0
 35 36  2  0
 36 37  1  0
 38 37  2  0
 39 38  1  0
 40 14  1  0
 40 45  1  0
 40 41  1  0
 41 44  1  1
 41 42  1  0
 43 41  1  0
 45 48  1  0
 46 50  1  0
 46 45  1  0
 47 46  2  0
 50 49  1  0
 52 50  1  0
 52 53  1  0
 52 51  1  0
 54 55  1  0
 55 58  1  0
 55 57  1  0
 55 56  1  0
 59 98  1  0
 60 68  1  0
 60 66  1  0
 61 66  1  0
 62 63  1  0
 62 61  1  0
 64 63  1  0
 64 73  1  0
 64 65  1  0
 66 65  1  0
 67 60  2  0
 68 59  1  0
 69 68  1  0
 70 71  2  0
 71 90  1  0
 72 71  1  0
 72 75  1  0
 73 74  1  0
 73 70  1  0
 74 72  2  0
 75 76  1  0
 76 77  2  0
 78 81  1  0
 78 77  1  0
 79 78  2  0
 80 79  1  0
 80 75  2  0
 81 82  1  0
 82 83  1  0
 83 84  2  0
 85 84  1  0
 85 89  1  0
 86 85  2  0
 87 82  2  0
 87 86  1  0
 88 87  1  0
 90 91  1  0
 91 94  1  0
 91 93  1  0
 92 90  2  0
 95 96  1  0
 95 70  1  0
 97 95  1  0
 98 99  1  0
 99102  1  0
 99101  1  0
100 99  1  0
M  ISO  4  12 101  13 101  60 100  68 100
M  END
>  <TORSDO>  (62) 
F 26

>  <SCORE>  (62) 
-11.595

>  <name>  (62) 
61

>  <ligand_id>  (62) 
61

>  <original_smiles>  (62) 
[H]c1c([H])c([H])c2c(c1[H])C([H])([H])C([H])([H])C([H])([H])C2([H])N([H])C(=O)C1([H])N(C(=O)C([H])(N([H])C(=O)C([H])(N([H])C([H])([H])[H])C([H])([H])[H])C(C([H])([H])[H])(C([H])([H])[H])C([H])([H])[H])C([H])([H])c2c([H])c(OC([H])([H])C([H])([H])[N+]([H])([H])C([H])([H])C([H])([H])C3([H])C([H])([H])C([H])(C([H])([H])[N+]([H])([H])[H])C([H])([H])C3([H])C([H])(N([H])C(=O)N3C([H])([H])C([H])([H])C([H])([H])C([H])(n4nc(-c5c([H])c([H])c(Oc6c([H])c([H])c(F)c([H])c6F)c([H])c5[H])c(C(=O)N([H])[H])c4N([H])[H])C3([H])[H])C([H])([H])[N+]([H])([H])[H])c([H])c([H])c2C1([H])[H]

>  <smiles>  (62) 
[H]c1c([H])c([H])c2c(c1[H])C([H])([H])C([H])([H])C([H])([H])C2([H])N([H])C(=O)C1([H])N(C(=O)C([H])(N([H])C(=O)C([H])(N([H])C([H])([H])[H])C([H])([H])[H])C(C([H])([H])[H])(C([H])([H])[H])C([H])([H])[H])C([H])([H])c2c([H])c(OC([H])([H])C([H])([H])[N+]([H])([H])C([H])([H])C([H])([H])C3([H])C([H])([H])C([H])(C([H])([H])[N+]([H])([H])[H])C([H])([H])C3([H])C([H])(N([H])C(=O)N3C([H])([H])C([H])([H])C([H])([H])C([H])(n4nc(-c5c([H])c([H])c(Oc6c([H])c([H])c(F)c([H])c6F)c([H])c5[H])c(C(=O)N([H])[H])c4N([H])[H])C3([H])[H])C([H])([H])[N+]([H])([H])[H])c([H])c([H])c2C1([H])[H]

$$$$
62:0:0
     RDKit          3D

 96105  0  0  1  0  0  0  0  0999 V2000
  -30.8540  -18.4450   19.8670 C   0  0  0  0  0  2  0  0  0  0  0  0
  -28.9740  -18.1800   21.3640 C   0  0  0  0  0  2  0  0  0  0  0  0
  -29.8120  -19.4900   19.4770 C   0  0  0  0  0  3  0  0  0  0  0  0
  -28.6440  -19.3110   20.3900 C   0  0  0  0  0  3  0  0  0  0  0  0
  -29.3550  -20.6670   20.3470 C   0  0  0  0  0  3  0  0  0  0  0  0
  -30.5050  -17.9400   21.2930 C   0  0  2  0  0  0  0  0  0  0  0  0
  -31.1800  -18.8050   22.2870 N   0  0  0  0  0  4  0  0  0  0  0  0
  -30.9520  -19.7710   22.1460 H   0  0  0  0  0  0  0  0  0  0  0  0
  -32.1790  -18.7110   22.2230 H   0  0  0  0  0  0  0  0  0  0  0  0
  -30.9110  -18.5570   23.2240 H   0  0  0  0  0  0  0  0  0  0  0  0
  -28.6300  -21.8920   19.7550 C   0  0  0  0  0  2  0  0  0  0  0  0
  -29.2010  -23.1900   20.2090 N   0  0  0  0  0  4  0  0  0  0  0  0
  -30.0440  -23.3840   19.6940 H   0  0  0  0  0  0  0  0  0  0  0  0
  -29.4710  -23.0670   21.1720 H   0  0  0  0  0  0  0  0  0  0  0  0
  -28.2970  -24.3830   20.1830 C   0  0  0  0  0  2  0  0  0  0  0  0
  -28.7750  -25.5080   19.2260 C   0  0  0  0  0  2  0  0  0  0  0  0
  -28.5980  -26.8290   19.7720 O   0  0  0  0  0  0  0  0  0  0  0  0
  -24.5300  -31.6580   23.0290 C   0  0  0  0  0  0  0  0  0  0  0  0
  -27.3690  -27.4580   19.7770 C   0  0  0  0  0  0  0  0  0  0  0  0
  -23.3910  -30.2920   21.3080 C   0  0  0  0  0  3  0  0  0  0  0  0
  -24.9130  -28.8740   19.8280 C   0  0  0  0  0  0  0  0  0  0  0  0
  -25.9030  -30.7520   21.1540 C   0  0  0  0  0  2  0  0  0  0  0  0
  -26.0440  -29.4150   20.4540 C   0  0  0  0  0  0  0  0  0  0  0  0
  -27.2690  -28.7120   20.4240 C   0  0  0  0  0  3  0  0  0  0  0  0
  -26.2150  -26.9280   19.1540 C   0  0  0  0  0  3  0  0  0  0  0  0
  -24.9970  -27.6310   19.1770 C   0  0  0  0  0  3  0  0  0  0  0  0
  -23.6360  -29.6830   19.9010 C   0  0  0  0  0  2  0  0  0  0  0  0
  -24.6260  -30.9150   21.8890 N   0  0  0  0  0  0  0  0  0  0  0  0
  -23.4340  -31.8610   23.5690 O   0  0  0  0  0  0  0  0  0  0  0  0
  -22.7710  -29.2040   22.2160 C   0  0  0  0  0  0  0  0  0  0  0  0
  -21.4480  -29.0050   22.0920 N   0  0  0  0  0  0  0  0  0  0  0  0
  -23.4770  -28.5450   22.9840 O   0  0  0  0  0  0  0  0  0  0  0  0
  -20.9390  -29.5950   21.4510 H   0  0  0  0  0  0  0  0  0  0  0  0
  -18.0940  -27.7680   22.6050 C   0  0  0  0  0  0  0  0  0  0  0  0
  -20.6590  -28.0070   22.8120 C   0  0  0  0  0  3  0  0  0  0  0  0
  -20.7410  -26.6260   22.1190 C   0  0  0  0  0  2  0  0  0  0  0  0
  -19.6050  -26.3840   21.1200 C   0  0  0  0  0  2  0  0  0  0  0  0
  -18.2460  -26.4770   21.8180 C   0  0  0  0  0  2  0  0  0  0  0  0
  -19.2270  -28.4930   23.0580 C   0  0  0  0  0  0  0  0  0  0  0  0
  -19.0290  -29.7070   23.7500 C   0  0  0  0  0  3  0  0  0  0  0  0
  -17.7300  -30.1930   23.9980 C   0  0  0  0  0  3  0  0  0  0  0  0
  -16.6130  -29.4610   23.5610 C   0  0  0  0  0  3  0  0  0  0  0  0
  -16.7950  -28.2510   22.8700 C   0  0  0  0  0  3  0  0  0  0  0  0
  -25.7850  -32.3050   23.6930 C   0  0  0  0  0  3  0  0  0  0  0  0
  -25.4460  -33.6970   24.0250 N   0  0  0  0  0  0  0  0  0  0  0  0
  -25.7820  -34.7590   23.2810 C   0  0  0  0  0  0  0  0  0  0  0  0
  -26.4790  -34.6730   22.2670 O   0  0  0  0  0  0  0  0  0  0  0  0
  -24.8360  -33.8390   24.8160 H   0  0  0  0  0  0  0  0  0  0  0  0
  -24.0250  -36.5170   22.9010 C   0  0  0  0  0  1  0  0  0  0  0  0
  -25.2580  -36.1350   23.7340 C   0  0  0  0  0  3  0  0  0  0  0  0
  -27.3480  -37.0670   24.6260 C   0  0  0  0  0  1  0  0  0  0  0  0
  -26.2740  -37.2060   23.6470 N   0  0  0  0  0  0  0  0  0  0  0  0
  -25.8440  -38.1200   23.7740 H   0  0  0  0  0  0  0  0  0  0  0  0
  -26.2810  -31.5300   24.9760 C   0  0  1  0  0  0  0  0  0  0  0  0
  -25.1650  -31.2620   26.0120 C   0  0  0  0  0  1  0  0  0  0  0  0
  -26.9020  -30.1700   24.5820 C   0  0  0  0  0  1  0  0  0  0  0  0
  -27.3970  -32.3400   25.6780 C   0  0  0  0  0  1  0  0  0  0  0  0
  -30.9630  -16.4740   21.5980 C   0  0  0  0  0  2  0  0  0  0  0  0
  -30.7070  -14.4760   20.0940 C   0  0  0  0  0  0  0  0  0  0  0  0
  -30.2940  -12.3510   18.8870 C   0  0  0  0  0  2  0  0  0  0  0  0
  -29.2730  -12.5470   17.7490 C   0  0  0  0  0  2  0  0  0  0  0  0
  -27.8320  -12.4090   18.2780 C   0  0  0  0  0  2  0  0  0  0  0  0
  -27.5840  -13.2540   19.5570 C   0  0  0  0  0  3  0  0  0  0  0  0
  -28.7040  -13.0210   20.5920 C   0  0  0  0  0  2  0  0  0  0  0  0
  -29.9930  -13.3260   19.9470 N   0  0  0  0  0  0  0  0  0  0  0  0
  -31.7450  -14.7020   19.4660 O   0  0  0  0  0  0  0  0  0  0  0  0
  -30.2150  -15.3630   20.9800 N   0  0  0  0  0  0  0  0  0  0  0  0
  -29.3410  -15.1080   21.4160 H   0  0  0  0  0  0  0  0  0  0  0  0
  -25.2610  -13.8900   20.4630 C   0  0  0  0  0  0  0  0  0  0  0  0
  -24.2040  -13.1310   20.8850 C   0  0  0  0  0  0  0  0  0  0  0  0
  -24.6260  -11.7700   20.7740 C   0  0  0  0  0  0  0  0  0  0  0  0
  -26.2630  -12.9930   20.1240 N   0  0  0  0  0  0  0  0  0  0  0  0
  -25.8870  -11.7110   20.3670 N   0  0  0  0  0  0  0  0  0  0  0  0
  -23.8840  -10.5190   20.9780 C   0  0  0  0  0  0  0  0  0  0  0  0
  -24.3230   -9.5420   21.8980 C   0  0  0  0  0  3  0  0  0  0  0  0
  -23.5810   -8.3550   22.0880 C   0  0  0  0  0  3  0  0  0  0  0  0
  -22.3890   -8.1380   21.3580 C   0  0  0  0  0  0  0  0  0  0  0  0
  -21.9720   -9.1030   20.4250 C   0  0  0  0  0  3  0  0  0  0  0  0
  -22.7130  -10.2790   20.2330 C   0  0  0  0  0  3  0  0  0  0  0  0
  -21.6210   -7.0020   21.4570 O   0  0  0  0  0  0  0  0  0  0  0  0
  -21.5430   -6.2870   22.6240 C   0  0  0  0  0  0  0  0  0  0  0  0
  -21.0440   -6.8560   23.8160 C   0  0  0  0  0  3  0  0  0  0  0  0
  -20.9160   -6.0660   24.9750 C   0  0  0  0  0  3  0  0  0  0  0  0
  -21.2740   -4.7040   24.9420 C   0  0  0  0  0  0  0  0  0  0  0  0
  -21.7640   -4.1320   23.7550 C   0  0  0  0  0  3  0  0  0  0  0  0
  -21.8950   -4.9220   22.5980 C   0  0  0  0  0  0  0  0  0  0  0  0
  -22.3480   -4.3620   21.4500 F   0  0  0  0  0  0  0  0  0  0  0  0
  -21.1420   -3.9410   26.0520 F   0  0  0  0  0  0  0  0  0  0  0  0
  -22.8430  -13.6300   21.2760 C   0  0  0  0  0  0  0  0  0  0  0  0
  -22.1620  -12.9200   22.1690 N   0  0  0  0  0  0  0  0  0  0  0  0
  -22.3950  -14.6830   20.8250 O   0  0  0  0  0  0  0  0  0  0  0  0
  -22.5390  -12.0670   22.5570 H   0  0  0  0  0  0  0  0  0  0  0  0
  -21.2490  -13.2340   22.4670 H   0  0  0  0  0  0  0  0  0  0  0  0
  -25.4480  -15.2600   20.3170 N   0  0  0  0  0  0  0  0  0  0  0  0
  -24.7070  -15.9280   20.5030 H   0  0  0  0  0  0  0  0  0  0  0  0
  -26.2800  -15.6880   19.9310 H   0  0  0  0  0  0  0  0  0  0  0  0
  1  6  1  0
  3  1  1  0
  3  5  1  0
  3  4  1  0
  4  2  1  0
  5 11  1  0
  5  4  1  0
  6  2  1  0
  6 58  1  6
  6  7  1  0
  7 10  1  0
  8  7  1  0
  9  7  1  0
 11 12  1  0
 12 14  1  0
 13 12  1  0
 15 12  1  0
 16 17  1  0
 16 15  1  0
 17 19  1  0
 18 29  2  0
 19 24  1  0
 20 28  1  0
 20 30  1  0
 21 27  1  0
 21 23  1  0
 22 28  1  0
 23 22  1  0
 24 23  2  0
 25 26  1  0
 25 19  2  0
 26 21  2  0
 27 20  1  0
 28 18  1  0
 30 32  2  0
 31 30  1  0
 33 31  1  0
 34 43  2  0
 34 39  1  0
 35 31  1  0
 35 39  1  0
 36 35  1  0
 37 38  1  0
 37 36  1  0
 38 34  1  0
 39 40  2  0
 40 41  1  0
 42 41  2  0
 43 42  1  0
 44 18  1  0
 44 45  1  0
 44 54  1  0
 45 48  1  0
 46 50  1  0
 46 45  1  0
 47 46  2  0
 50 49  1  0
 52 50  1  0
 52 53  1  0
 52 51  1  0
 54 57  1  1
 54 55  1  0
 56 54  1  0
 59 67  1  0
 60 65  1  0
 61 62  1  0
 61 60  1  0
 63 62  1  0
 63 72  1  0
 63 64  1  0
 65 59  1  0
 65 64  1  0
 66 59  2  0
 67 68  1  0
 67 58  1  0
 69 70  2  0
 70 89  1  0
 71 70  1  0
 71 74  1  0
 72 73  1  0
 72 69  1  0
 73 71  2  0
 74 75  1  0
 75 76  2  0
 77 80  1  0
 77 76  1  0
 78 77  2  0
 79 78  1  0
 79 74  2  0
 80 81  1  0
 81 82  1  0
 82 83  2  0
 84 83  1  0
 84 88  1  0
 85 84  2  0
 86 81  2  0
 86 85  1  0
 87 86  1  0
 89 90  1  0
 90 93  1  0
 90 92  1  0
 91 89  2  0
 94 69  1  0
 94 95  1  0
 96 94  1  0
M  ISO  4  16 101  17 101  59 100  67 100
M  END
>  <TORSDO>  (63) 
F 22

>  <SCORE>  (63) 
-12.442

>  <name>  (63) 
62

>  <ligand_id>  (63) 
62

>  <original_smiles>  (63) 
[H]c1c([H])c([H])c2c(c1[H])C([H])([H])C([H])([H])C([H])([H])C2([H])N([H])C(=O)C1([H])N(C(=O)C([H])(N([H])C(=O)C([H])(N([H])C([H])([H])[H])C([H])([H])[H])C(C([H])([H])[H])(C([H])([H])[H])C([H])([H])[H])C([H])([H])c2c([H])c(OC([H])([H])C([H])([H])[N+]([H])([H])C([H])([H])C3([H])C4([H])C([H])([H])C(C([H])([H])N([H])C(=O)N5C([H])([H])C([H])([H])C([H])([H])C([H])(n6nc(-c7c([H])c([H])c(Oc8c([H])c([H])c(F)c([H])c8F)c([H])c7[H])c(C(=O)N([H])[H])c6N([H])[H])C5([H])[H])([N+]([H])([H])[H])C([H])([H])C43[H])c([H])c([H])c2C1([H])[H]

>  <smiles>  (63) 
[H]c1c([H])c([H])c2c(c1[H])C([H])([H])C([H])([H])C([H])([H])C2([H])N([H])C(=O)C1([H])N(C(=O)C([H])(N([H])C(=O)C([H])(N([H])C([H])([H])[H])C([H])([H])[H])C(C([H])([H])[H])(C([H])([H])[H])C([H])([H])[H])C([H])([H])c2c([H])c(OC([H])([H])C([H])([H])[N+]([H])([H])C([H])([H])C3([H])C4([H])C([H])([H])C(C([H])([H])N([H])C(=O)N5C([H])([H])C([H])([H])C([H])([H])C([H])(n6nc(-c7c([H])c([H])c(Oc8c([H])c([H])c(F)c([H])c8F)c([H])c7[H])c(C(=O)N([H])[H])c6N([H])[H])C5([H])[H])([N+]([H])([H])[H])C([H])([H])C43[H])c([H])c([H])c2C1([H])[H]

$$$$
63:0:0
     RDKit          3D

 93102  0  0  1  0  0  0  0  0999 V2000
  -27.7710  -20.3580   19.9930 C   0  0  0  0  0  3  0  0  0  0  0  0
  -27.4850  -21.7980   19.9680 C   0  0  0  0  0  3  0  0  0  0  0  0
  -29.9100  -20.7660   20.7300 C   0  0  0  0  0  3  0  0  0  0  0  0
  -29.0040  -19.6830   20.3490 C   0  0  0  0  0  0  0  0  0  0  0  0
  -28.3610  -22.8880   20.3320 C   0  0  0  0  0  0  0  0  0  0  0  0
  -29.6090  -22.2390   20.7580 C   0  0  0  0  0  0  0  0  0  0  0  0
  -30.6770  -23.1430   21.3400 C   0  0  0  0  0  1  0  0  0  0  0  0
  -30.6300  -15.3750   20.8110 C   0  0  0  0  0  0  0  0  0  0  0  0
  -30.6520  -12.9280   19.9930 C   0  0  0  0  0  2  0  0  0  0  0  0
  -29.8370  -12.6350   18.7150 C   0  0  0  0  0  2  0  0  0  0  0  0
  -28.3630  -12.3600   19.0640 C   0  0  0  0  0  2  0  0  0  0  0  0
  -27.8010  -13.3690   20.0990 C   0  0  0  0  0  3  0  0  0  0  0  0
  -28.7620  -13.6200   21.2770 C   0  0  0  0  0  2  0  0  0  0  0  0
  -30.0180  -14.1050   20.6800 N   0  0  0  0  0  0  0  0  0  0  0  0
  -31.8650  -15.2950   20.8810 O   0  0  0  0  0  0  0  0  0  0  0  0
  -29.8310  -16.4120   18.8070 C   0  0  0  0  0  2  0  0  0  0  0  0
  -29.1050  -17.9510   20.1830 C   0  0  0  0  0  3  0  0  0  0  0  0
  -29.4940  -17.8700   18.6970 C   0  0  0  0  0  3  0  0  0  0  0  0
  -30.1300  -16.6360   20.2270 N   0  0  0  0  0  0  0  0  0  0  0  0
  -25.3770  -13.9140   20.6650 C   0  0  0  0  0  0  0  0  0  0  0  0
  -24.2980  -13.1290   20.9570 C   0  0  0  0  0  0  0  0  0  0  0  0
  -24.7840  -11.7850   20.9910 C   0  0  0  0  0  0  0  0  0  0  0  0
  -26.4460  -13.0470   20.5230 N   0  0  0  0  0  0  0  0  0  0  0  0
  -26.0970  -11.7630   20.7880 N   0  0  0  0  0  0  0  0  0  0  0  0
  -24.0630  -10.5160   21.1430 C   0  0  0  0  0  0  0  0  0  0  0  0
  -24.4350   -9.5690   22.1230 C   0  0  0  0  0  3  0  0  0  0  0  0
  -23.7130   -8.3650   22.2640 C   0  0  0  0  0  3  0  0  0  0  0  0
  -22.6050   -8.1000   21.4260 C   0  0  0  0  0  0  0  0  0  0  0  0
  -22.2520   -9.0350   20.4370 C   0  0  0  0  0  3  0  0  0  0  0  0
  -22.9750  -10.2320   20.2940 C   0  0  0  0  0  3  0  0  0  0  0  0
  -21.8610   -6.9450   21.4720 O   0  0  0  0  0  0  0  0  0  0  0  0
  -21.7260   -6.2230   22.6310 C   0  0  0  0  0  0  0  0  0  0  0  0
  -21.1620   -6.7850   23.7980 C   0  0  0  0  0  3  0  0  0  0  0  0
  -20.9800   -5.9870   24.9440 C   0  0  0  0  0  3  0  0  0  0  0  0
  -21.3500   -4.6280   24.9260 C   0  0  0  0  0  0  0  0  0  0  0  0
  -21.9040   -4.0660   23.7620 C   0  0  0  0  0  3  0  0  0  0  0  0
  -22.0890   -4.8620   22.6180 C   0  0  0  0  0  0  0  0  0  0  0  0
  -22.6060   -4.3100   21.4930 F   0  0  0  0  0  0  0  0  0  0  0  0
  -21.1670   -3.8600   26.0240 F   0  0  0  0  0  0  0  0  0  0  0  0
  -22.8770  -13.5920   21.0990 C   0  0  0  0  0  0  0  0  0  0  0  0
  -22.0910  -12.9130   21.9270 N   0  0  0  0  0  0  0  0  0  0  0  0
  -22.4690  -14.5930   20.5100 O   0  0  0  0  0  0  0  0  0  0  0  0
  -22.4310  -12.1050   22.4270 H   0  0  0  0  0  0  0  0  0  0  0  0
  -21.1370  -13.2110   22.0670 H   0  0  0  0  0  0  0  0  0  0  0  0
  -25.5360  -15.2830   20.4740 N   0  0  0  0  0  0  0  0  0  0  0  0
  -24.7560  -15.9290   20.5220 H   0  0  0  0  0  0  0  0  0  0  0  0
  -26.4150  -15.7330   20.2610 H   0  0  0  0  0  0  0  0  0  0  0  0
  -28.4920  -18.2290   17.6650 N   0  0  0  0  0  4  0  0  0  0  0  0
  -27.6230  -17.7420   17.7930 H   0  0  0  0  0  0  0  0  0  0  0  0
  -28.8390  -18.0000   16.7510 H   0  0  0  0  0  0  0  0  0  0  0  0
  -28.3090  -19.2160   17.6770 H   0  0  0  0  0  0  0  0  0  0  0  0
  -27.7170  -24.4900   20.5050 C   0  0  0  0  0  2  0  0  0  0  0  0
  -28.1020  -26.0060   20.0930 O   0  0  0  0  0  0  0  0  0  0  0  0
  -24.5890  -31.9100   23.1730 C   0  0  0  0  0  0  0  0  0  0  0  0
  -27.1020  -27.0970   20.0930 C   0  0  0  0  0  0  0  0  0  0  0  0
  -23.3680  -30.5150   21.5560 C   0  0  0  0  0  3  0  0  0  0  0  0
  -24.7960  -28.9360   20.0970 C   0  0  0  0  0  0  0  0  0  0  0  0
  -25.9290  -30.7490   21.3610 C   0  0  0  0  0  2  0  0  0  0  0  0
  -25.9920  -29.3500   20.6970 C   0  0  0  0  0  0  0  0  0  0  0  0
  -27.1450  -28.4500   20.6720 C   0  0  0  0  0  3  0  0  0  0  0  0
  -25.8820  -26.8340   19.4320 C   0  0  0  0  0  3  0  0  0  0  0  0
  -24.7630  -27.6980   19.4410 C   0  0  0  0  0  3  0  0  0  0  0  0
  -23.5690  -29.8400   20.1730 C   0  0  0  0  0  2  0  0  0  0  0  0
  -24.6490  -31.0830   22.0810 N   0  0  0  0  0  0  0  0  0  0  0  0
  -23.5100  -32.1940   23.7180 O   0  0  0  0  0  0  0  0  0  0  0  0
  -22.7010  -29.5070   22.5300 C   0  0  0  0  0  0  0  0  0  0  0  0
  -21.3740  -29.3180   22.4150 N   0  0  0  0  0  0  0  0  0  0  0  0
  -23.3850  -28.8970   23.3560 O   0  0  0  0  0  0  0  0  0  0  0  0
  -20.8750  -29.8580   21.7210 H   0  0  0  0  0  0  0  0  0  0  0  0
  -18.0130  -28.0680   22.9560 C   0  0  0  0  0  0  0  0  0  0  0  0
  -20.5720  -28.3740   23.1990 C   0  0  0  0  0  3  0  0  0  0  0  0
  -20.6910  -26.9400   22.6320 C   0  0  0  0  0  2  0  0  0  0  0  0
  -19.5860  -26.5950   21.6280 C   0  0  0  0  0  2  0  0  0  0  0  0
  -18.2070  -26.7190   22.2820 C   0  0  0  0  0  2  0  0  0  0  0  0
  -19.1240  -28.8510   23.3720 C   0  0  0  0  0  0  0  0  0  0  0  0
  -18.8870  -30.1110   23.9650 C   0  0  0  0  0  3  0  0  0  0  0  0
  -17.5750  -30.5880   24.1440 C   0  0  0  0  0  3  0  0  0  0  0  0
  -16.4800  -29.8010   23.7440 C   0  0  0  0  0  3  0  0  0  0  0  0
  -16.7010  -28.5430   23.1570 C   0  0  0  0  0  3  0  0  0  0  0  0
  -25.8710  -32.5530   23.7790 C   0  0  0  0  0  3  0  0  0  0  0  0
  -26.4080  -31.7860   25.0510 C   0  0  1  0  0  0  0  0  0  0  0  0
  -25.3320  -31.5470   26.1360 C   0  0  0  0  0  1  0  0  0  0  0  0
  -26.9910  -30.4070   24.6630 C   0  0  0  0  0  1  0  0  0  0  0  0
  -27.5660  -32.5840   25.6950 C   0  0  0  0  0  1  0  0  0  0  0  0
  -25.5550  -33.9510   24.1240 N   0  0  0  0  0  0  0  0  0  0  0  0
  -25.8830  -35.0170   23.3820 C   0  0  0  0  0  0  0  0  0  0  0  0
  -26.5470  -34.9290   22.3460 O   0  0  0  0  0  0  0  0  0  0  0  0
  -24.9600  -34.0920   24.9260 H   0  0  0  0  0  0  0  0  0  0  0  0
  -24.1660  -36.8280   23.0540 C   0  0  0  0  0  1  0  0  0  0  0  0
  -25.3990  -36.4000   23.8650 C   0  0  0  0  0  3  0  0  0  0  0  0
  -27.5290  -37.2610   24.7320 C   0  0  0  0  0  1  0  0  0  0  0  0
  -26.4370  -37.4510   23.7820 N   0  0  0  0  0  0  0  0  0  0  0  0
  -26.0310  -38.3690   23.9460 H   0  0  0  0  0  0  0  0  0  0  0  0
  1  4  1  0
  2  1  2  0
  2  5  1  0
  3  6  1  0
  4  3  2  0
  5 52  1  0
  5  6  2  0
  6  7  1  0
  8 15  2  0
  9 14  1  0
 10 11  1  0
 10  9  1  0
 12 11  1  0
 12 23  1  0
 12 13  1  0
 14  8  1  0
 14 13  1  0
 16 19  1  0
 17 19  1  0
 17  4  1  0
 18 48  1  0
 18 16  1  0
 18 17  1  0
 19  8  1  0
 20 21  2  0
 21 22  1  0
 21 40  1  0
 22 25  1  0
 23 20  1  0
 23 24  1  0
 24 22  2  0
 25 26  1  0
 26 27  2  0
 28 31  1  0
 28 27  1  0
 29 28  2  0
 30 29  1  0
 30 25  2  0
 31 32  1  0
 32 33  1  0
 33 34  2  0
 35 34  1  0
 35 39  1  0
 36 35  2  0
 37 32  2  0
 37 36  1  0
 38 37  1  0
 40 41  1  0
 41 44  1  0
 41 43  1  0
 42 40  2  0
 45 46  1  0
 45 20  1  0
 47 45  1  0
 48 51  1  0
 48 49  1  0
 50 48  1  0
 53 55  1  0
 53 52  1  0
 54 65  2  0
 55 60  1  0
 56 64  1  0
 56 66  1  0
 57 63  1  0
 57 59  1  0
 58 64  1  0
 59 58  1  0
 60 59  2  0
 61 62  1  0
 61 55  2  0
 62 57  2  0
 63 56  1  0
 64 54  1  0
 66 68  2  0
 67 66  1  0
 69 67  1  0
 70 79  2  0
 70 75  1  0
 71 67  1  0
 71 75  1  0
 72 71  1  0
 73 74  1  0
 73 72  1  0
 74 70  1  0
 75 76  2  0
 76 77  1  0
 78 77  2  0
 79 78  1  0
 80 54  1  0
 80 85  1  0
 80 81  1  0
 81 84  1  1
 81 82  1  0
 83 81  1  0
 85 88  1  0
 86 90  1  0
 86 85  1  0
 87 86  2  0
 90 89  1  0
 92 90  1  0
 92 93  1  0
 92 91  1  0
M  ISO  4   8 100  19 100  52 101  53 101
M  END
>  <TORSDO>  (64) 
F 18

>  <SCORE>  (64) 
-15.788

>  <name>  (64) 
63

>  <ligand_id>  (64) 
63

>  <original_smiles>  (64) 
[H]c1c([H])c([H])c2c(c1[H])C([H])([H])C([H])([H])C([H])([H])C2([H])N([H])C(=O)C1([H])N(C(=O)C([H])(N([H])C(=O)C([H])(N([H])C([H])([H])[H])C([H])([H])[H])C(C([H])([H])[H])(C([H])([H])[H])C([H])([H])[H])C([H])([H])c2c([H])c(OC([H])([H])c3c([H])c([H])c(C4([H])N(C(=O)N5C([H])([H])C([H])([H])C([H])([H])C([H])(n6nc(-c7c([H])c([H])c(Oc8c([H])c([H])c(F)c([H])c8F)c([H])c7[H])c(C(=O)N([H])[H])c6N([H])[H])C5([H])[H])C([H])([H])C4([H])[N+]([H])([H])[H])c([H])c3C([H])([H])[H])c([H])c([H])c2C1([H])[H]

>  <smiles>  (64) 
[H]c1c([H])c([H])c2c(c1[H])C([H])([H])C([H])([H])C([H])([H])C2([H])N([H])C(=O)C1([H])N(C(=O)C([H])(N([H])C(=O)C([H])(N([H])C([H])([H])[H])C([H])([H])[H])C(C([H])([H])[H])(C([H])([H])[H])C([H])([H])[H])C([H])([H])c2c([H])c(OC([H])([H])c3c([H])c([H])c(C4([H])N(C(=O)N5C([H])([H])C([H])([H])C([H])([H])C([H])(n6nc(-c7c([H])c([H])c(Oc8c([H])c([H])c(F)c([H])c8F)c([H])c7[H])c(C(=O)N([H])[H])c6N([H])[H])C5([H])[H])C([H])([H])C4([H])[N+]([H])([H])[H])c([H])c3C([H])([H])[H])c([H])c([H])c2C1([H])[H]

$$$$
64:0:0
     RDKit          3D

 96105  0  0  1  0  0  0  0  0999 V2000
  -31.6540  -20.0300   21.9050 C   0  0  0  0  0  2  0  0  0  0  0  0
  -29.8170  -20.0080   20.3960 C   0  0  0  0  0  2  0  0  0  0  0  0
  -31.0390  -21.4440   21.8260 C   0  0  0  0  0  3  0  0  0  0  0  0
  -30.3370  -21.4390   20.4700 C   0  0  0  0  0  3  0  0  0  0  0  0
  -32.0390  -22.5950   22.0130 C   0  0  0  0  0  1  0  0  0  0  0  0
  -30.9080  -19.1740   20.9440 N   0  0  2  0  0  4  0  0  0  0  0  0
  -31.5370  -19.0130   20.1700 H   0  0  0  0  0  0  0  0  0  0  0  0
  -30.3870  -14.2540   19.8760 C   0  0  0  0  0  0  0  0  0  0  0  0
  -29.8560  -12.2820   18.4860 C   0  0  0  0  0  2  0  0  0  0  0  0
  -28.7570  -12.5900   17.4520 C   0  0  0  0  0  2  0  0  0  0  0  0
  -27.3580  -12.3790   18.0620 C   0  0  0  0  0  2  0  0  0  0  0  0
  -27.1990  -13.0980   19.4240 C   0  0  0  0  0  3  0  0  0  0  0  0
  -28.3900  -12.7670   20.3570 C   0  0  0  0  0  2  0  0  0  0  0  0
  -29.6370  -13.1370   19.6640 N   0  0  0  0  0  0  0  0  0  0  0  0
  -31.3330  -14.5630   19.1440 O   0  0  0  0  0  0  0  0  0  0  0  0
  -31.6940  -16.8510   21.4610 C   0  0  0  0  0  2  0  0  0  0  0  0
  -29.3110  -17.2200   20.6950 C   0  0  0  0  0  2  0  0  0  0  0  0
  -31.2780  -15.4150   21.8580 C   0  0  0  0  0  2  0  0  0  0  0  0
  -28.9930  -15.8030   21.1950 C   0  0  0  0  0  2  0  0  0  0  0  0
  -30.5010  -17.8380   21.4720 C   0  0  0  0  0  3  0  0  0  0  0  0
  -30.1630  -14.9300   21.0320 N   0  0  0  0  0  0  0  0  0  0  0  0
  -24.8870  -13.6350   20.4260 C   0  0  0  0  0  0  0  0  0  0  0  0
  -23.8920  -12.8270   20.9050 C   0  0  0  0  0  0  0  0  0  0  0  0
  -24.3810  -11.4900   20.7910 C   0  0  0  0  0  0  0  0  0  0  0  0
  -25.9190  -12.7870   20.0540 N   0  0  0  0  0  0  0  0  0  0  0  0
  -25.6250  -11.4910   20.3300 N   0  0  0  0  0  0  0  0  0  0  0  0
  -23.7200  -10.2040   21.0410 C   0  0  0  0  0  0  0  0  0  0  0  0
  -24.2240   -9.2860   21.9880 C   0  0  0  0  0  3  0  0  0  0  0  0
  -23.5610   -8.0620   22.2220 C   0  0  0  0  0  3  0  0  0  0  0  0
  -22.3790   -7.7480   21.5090 C   0  0  0  0  0  0  0  0  0  0  0  0
  -21.8940   -8.6560   20.5510 C   0  0  0  0  0  3  0  0  0  0  0  0
  -22.5590   -9.8700   20.3160 C   0  0  0  0  0  3  0  0  0  0  0  0
  -21.6820   -6.5730   21.6520 O   0  0  0  0  0  0  0  0  0  0  0  0
  -21.6390   -5.9030   22.8480 C   0  0  0  0  0  0  0  0  0  0  0  0
  -21.1220   -6.5010   24.0180 C   0  0  0  0  0  3  0  0  0  0  0  0
  -21.0320   -5.7530   25.2100 C   0  0  0  0  0  3  0  0  0  0  0  0
  -21.4490   -4.4080   25.2310 C   0  0  0  0  0  0  0  0  0  0  0  0
  -21.9600   -3.8100   24.0650 C   0  0  0  0  0  3  0  0  0  0  0  0
  -22.0520   -4.5560   22.8760 C   0  0  0  0  0  0  0  0  0  0  0  0
  -22.5240   -3.9690   21.7500 F   0  0  0  0  0  0  0  0  0  0  0  0
  -21.3550   -3.6870   26.3720 F   0  0  0  0  0  0  0  0  0  0  0  0
  -22.5250  -13.2580   21.3530 C   0  0  0  0  0  0  0  0  0  0  0  0
  -21.9230  -12.5220   22.2810 N   0  0  0  0  0  0  0  0  0  0  0  0
  -22.0010  -14.2810   20.9150 O   0  0  0  0  0  0  0  0  0  0  0  0
  -22.3610  -11.6920   22.6550 H   0  0  0  0  0  0  0  0  0  0  0  0
  -21.0120  -12.7910   22.6240 H   0  0  0  0  0  0  0  0  0  0  0  0
  -24.9930  -15.0130   20.2560 N   0  0  0  0  0  0  0  0  0  0  0  0
  -24.2260  -15.6430   20.4650 H   0  0  0  0  0  0  0  0  0  0  0  0
  -25.7790  -15.4790   19.8200 H   0  0  0  0  0  0  0  0  0  0  0  0
  -29.0720  -23.2940   19.3770 C   0  0  0  0  0  0  0  0  0  0  0  0
  -29.2440  -22.4020   20.3600 N   0  0  0  0  0  0  0  0  0  0  0  0
  -29.8840  -23.4580   18.4650 O   0  0  0  0  0  0  0  0  0  0  0  0
  -28.5180  -22.3500   21.0640 H   0  0  0  0  0  0  0  0  0  0  0  0
  -27.7670  -24.0870   19.4090 C   0  0  0  0  0  2  0  0  0  0  0  0
  -27.7600  -25.1730   20.5010 C   0  0  0  0  0  2  0  0  0  0  0  0
  -27.8940  -26.4780   19.9470 O   0  0  0  0  0  0  0  0  0  0  0  0
  -24.4970  -31.7560   23.2320 C   0  0  0  0  0  0  0  0  0  0  0  0
  -26.7570  -27.2440   19.9940 C   0  0  0  0  0  0  0  0  0  0  0  0
  -23.1450  -30.4600   21.6140 C   0  0  0  0  0  3  0  0  0  0  0  0
  -24.4490  -28.8570   20.1180 C   0  0  0  0  0  0  0  0  0  0  0  0
  -25.6760  -30.6770   21.3230 C   0  0  0  0  0  2  0  0  0  0  0  0
  -25.6550  -29.3150   20.6640 C   0  0  0  0  0  0  0  0  0  0  0  0
  -26.8130  -28.5160   20.5930 C   0  0  0  0  0  3  0  0  0  0  0  0
  -25.5360  -26.7850   19.4530 C   0  0  0  0  0  3  0  0  0  0  0  0
  -24.3810  -27.5910   19.5110 C   0  0  0  0  0  3  0  0  0  0  0  0
  -23.2600  -29.7860   20.2200 C   0  0  0  0  0  2  0  0  0  0  0  0
  -24.4600  -30.9750   22.1150 N   0  0  0  0  0  0  0  0  0  0  0  0
  -23.4570  -32.0860   23.8160 O   0  0  0  0  0  0  0  0  0  0  0  0
  -22.4660  -29.4670   22.5830 C   0  0  0  0  0  0  0  0  0  0  0  0
  -21.1370  -29.3300   22.4610 N   0  0  0  0  0  0  0  0  0  0  0  0
  -23.1320  -28.8210   23.3970 O   0  0  0  0  0  0  0  0  0  0  0  0
  -20.6630  -29.9000   21.7740 H   0  0  0  0  0  0  0  0  0  0  0  0
  -17.7300  -28.2310   22.9440 C   0  0  0  0  0  0  0  0  0  0  0  0
  -20.2900  -28.4270   23.2390 C   0  0  0  0  0  3  0  0  0  0  0  0
  -20.3620  -26.9830   22.6850 C   0  0  0  0  0  2  0  0  0  0  0  0
  -19.2610  -26.6740   21.6660 C   0  0  0  0  0  2  0  0  0  0  0  0
  -17.8780  -26.8660   22.2920 C   0  0  0  0  0  2  0  0  0  0  0  0
  -18.8640  -28.9710   23.3730 C   0  0  0  0  0  0  0  0  0  0  0  0
  -18.6730  -30.2500   23.9390 C   0  0  0  0  0  3  0  0  0  0  0  0
  -17.3810  -30.7880   24.0820 C   0  0  0  0  0  3  0  0  0  0  0  0
  -16.2610  -30.0450   23.6700 C   0  0  0  0  0  3  0  0  0  0  0  0
  -16.4370  -28.7690   23.1070 C   0  0  0  0  0  3  0  0  0  0  0  0
  -25.8440  -32.2910   23.8140 C   0  0  0  0  0  3  0  0  0  0  0  0
  -26.3520  -31.4700   25.0630 C   0  0  1  0  0  0  0  0  0  0  0  0
  -25.2800  -31.2790   26.1600 C   0  0  0  0  0  1  0  0  0  0  0  0
  -26.8390  -30.0690   24.6290 C   0  0  0  0  0  1  0  0  0  0  0  0
  -27.5670  -32.1840   25.7000 C   0  0  0  0  0  1  0  0  0  0  0  0
  -25.6420  -33.7030   24.1660 N   0  0  0  0  0  0  0  0  0  0  0  0
  -26.0400  -34.7370   23.4120 C   0  0  0  0  0  0  0  0  0  0  0  0
  -26.6860  -34.5970   22.3700 O   0  0  0  0  0  0  0  0  0  0  0  0
  -25.0730  -33.8910   24.9780 H   0  0  0  0  0  0  0  0  0  0  0  0
  -24.4590  -36.6640   23.0780 C   0  0  0  0  0  1  0  0  0  0  0  0
  -25.6590  -36.1510   23.8890 C   0  0  0  0  0  3  0  0  0  0  0  0
  -27.8460  -36.8580   24.7540 C   0  0  0  0  0  1  0  0  0  0  0  0
  -26.7720  -37.1220   23.8010 N   0  0  0  0  0  0  0  0  0  0  0  0
  -26.4360  -38.0690   23.9550 H   0  0  0  0  0  0  0  0  0  0  0  0
  2  4  1  0
  2  6  1  0
  3  1  1  0
  3  5  1  0
  4 51  1  0
  4  3  1  0
  6  7  1  6
  6 20  1  0
  6  1  1  0
  8 21  1  0
  9 14  1  0
 10 11  1  0
 10  9  1  0
 12 11  1  0
 12 25  1  0
 12 13  1  0
 14  8  1  0
 14 13  1  0
 15  8  2  0
 16 20  1  0
 16 18  1  0
 17 19  1  0
 20 17  1  0
 21 19  1  0
 21 18  1  0
 22 23  2  0
 23 42  1  0
 24 23  1  0
 24 27  1  0
 25 26  1  0
 25 22  1  0
 26 24  2  0
 27 28  1  0
 28 29  2  0
 30 33  1  0
 30 29  1  0
 31 30  2  0
 32 31  1  0
 32 27  2  0
 33 34  1  0
 34 39  2  0
 34 35  1  0
 35 36  2  0
 36 37  1  0
 37 41  1  0
 38 37  2  0
 39 38  1  0
 40 39  1  0
 42 43  1  0
 43 46  1  0
 43 45  1  0
 44 42  2  0
 47 22  1  0
 47 48  1  0
 49 47  1  0
 50 54  1  0
 50 51  1  0
 51 53  1  0
 52 50  2  0
 54 55  1  0
 56 58  1  0
 56 55  1  0
 57 68  2  0
 58 63  1  0
 59 67  1  0
 59 69  1  0
 60 66  1  0
 60 62  1  0
 61 67  1  0
 62 61  1  0
 63 62  2  0
 64 65  1  0
 64 58  2  0
 65 60  2  0
 66 59  1  0
 67 57  1  0
 69 71  2  0
 70 69  1  0
 72 70  1  0
 73 82  2  0
 73 78  1  0
 74 70  1  0
 74 78  1  0
 75 74  1  0
 76 77  1  0
 76 75  1  0
 77 73  1  0
 78 79  2  0
 79 80  1  0
 81 80  2  0
 82 81  1  0
 83 57  1  0
 83 88  1  0
 83 84  1  0
 84 87  1  1
 84 85  1  0
 86 84  1  0
 88 91  1  0
 89 93  1  0
 89 88  1  0
 90 89  2  0
 93 92  1  0
 95 93  1  0
 95 96  1  0
 95 94  1  0
M  ISO  4   8 100  21 100  55 101  56 101
M  END
>  <TORSDO>  (65) 
F 19

>  <SCORE>  (65) 
-11.848

>  <name>  (65) 
64

>  <ligand_id>  (65) 
64

>  <original_smiles>  (65) 
[H]c1c([H])c([H])c2c(c1[H])C([H])([H])C([H])([H])C([H])([H])C2([H])N([H])C(=O)C1([H])N(C(=O)C([H])(N([H])C(=O)C([H])(N([H])C([H])([H])[H])C([H])([H])[H])C(C([H])([H])[H])(C([H])([H])[H])C([H])([H])[H])C([H])([H])c2c([H])c(OC([H])([H])C([H])([H])C(=O)N([H])C3([H])C([H])(C([H])([H])[H])C([H])([H])[N+]([H])(C4([H])C([H])([H])C([H])([H])N(C(=O)N5C([H])([H])C([H])([H])C([H])([H])C([H])(n6nc(-c7c([H])c([H])c(Oc8c([H])c([H])c(F)c([H])c8F)c([H])c7[H])c(C(=O)N([H])[H])c6N([H])[H])C5([H])[H])C([H])([H])C4([H])[H])C3([H])[H])c([H])c([H])c2C1([H])[H]

>  <smiles>  (65) 
[H]c1c([H])c([H])c2c(c1[H])C([H])([H])C([H])([H])C([H])([H])C2([H])N([H])C(=O)C1([H])N(C(=O)C([H])(N([H])C(=O)C([H])(N([H])C([H])([H])[H])C([H])([H])[H])C(C([H])([H])[H])(C([H])([H])[H])C([H])([H])[H])C([H])([H])c2c([H])c(OC([H])([H])C([H])([H])C(=O)N([H])C3([H])C([H])(C([H])([H])[H])C([H])([H])[N+]([H])(C4([H])C([H])([H])C([H])([H])N(C(=O)N5C([H])([H])C([H])([H])C([H])([H])C([H])(n6nc(-c7c([H])c([H])c(Oc8c([H])c([H])c(F)c([H])c8F)c([H])c7[H])c(C(=O)N([H])[H])c6N([H])[H])C5([H])[H])C([H])([H])C4([H])[H])C3([H])[H])c([H])c([H])c2C1([H])[H]

$$$$
65:0:0
     RDKit          3D

 92101  0  0  1  0  0  0  0  0999 V2000
  -30.1270  -21.7780   21.5770 C   0  0  0  0  0  1  0  0  0  0  0  0
  -29.3310  -21.9060   20.2670 C   0  0  0  0  0  3  0  0  0  0  0  0
  -27.8450  -17.8590   18.2880 C   0  0  0  0  0  2  0  0  0  0  0  0
  -27.8710  -20.4940   18.7150 C   0  0  0  0  0  2  0  0  0  0  0  0
  -27.1850  -19.1540   18.6850 C   0  0  0  0  0  3  0  0  0  0  0  0
  -27.7990  -18.3100   19.7380 C   0  0  0  0  0  3  0  0  0  0  0  0
  -29.0090  -18.9790   20.3510 C   0  0  0  0  0  3  0  0  0  0  0  0
  -29.0230  -20.4440   19.6640 N   0  0  2  0  0  4  0  0  0  0  0  0
  -29.8100  -20.3340   19.0420 H   0  0  0  0  0  0  0  0  0  0  0  0
  -30.1870  -17.7720   20.2120 C   0  0  0  0  0  2  0  0  0  0  0  0
  -30.6500  -15.0390   20.2740 C   0  0  0  0  0  0  0  0  0  0  0  0
  -30.5140  -12.6910   19.3280 C   0  0  0  0  0  2  0  0  0  0  0  0
  -29.5840  -12.6510   18.0940 C   0  0  0  0  0  2  0  0  0  0  0  0
  -28.1220  -12.4370   18.5240 C   0  0  0  0  0  2  0  0  0  0  0  0
  -27.7120  -13.3620   19.7000 C   0  0  0  0  0  3  0  0  0  0  0  0
  -28.7650  -13.3770   20.8300 C   0  0  0  0  0  2  0  0  0  0  0  0
  -30.0430  -13.7840   20.2290 N   0  0  0  0  0  0  0  0  0  0  0  0
  -31.8410  -15.0980   19.9550 O   0  0  0  0  0  0  0  0  0  0  0  0
  -29.8920  -16.2270   20.4670 N   0  0  0  0  0  0  0  0  0  0  0  0
  -28.9360  -16.0390   20.7290 H   0  0  0  0  0  0  0  0  0  0  0  0
  -25.3230  -13.9360   20.4190 C   0  0  0  0  0  0  0  0  0  0  0  0
  -24.2600  -13.1590   20.7930 C   0  0  0  0  0  0  0  0  0  0  0  0
  -24.7330  -11.8110   20.7750 C   0  0  0  0  0  0  0  0  0  0  0  0
  -26.3730  -13.0630   20.1930 N   0  0  0  0  0  0  0  0  0  0  0  0
  -26.0250  -11.7790   20.4720 N   0  0  0  0  0  0  0  0  0  0  0  0
  -24.0100  -10.5460   20.9720 C   0  0  0  0  0  0  0  0  0  0  0  0
  -24.4360   -9.5890   21.9180 C   0  0  0  0  0  3  0  0  0  0  0  0
  -23.7110   -8.3910   22.1030 C   0  0  0  0  0  3  0  0  0  0  0  0
  -22.5470   -8.1420   21.3400 C   0  0  0  0  0  0  0  0  0  0  0  0
  -22.1390   -9.0870   20.3830 C   0  0  0  0  0  3  0  0  0  0  0  0
  -22.8640  -10.2750   20.1960 C   0  0  0  0  0  3  0  0  0  0  0  0
  -21.7950   -6.9960   21.4340 O   0  0  0  0  0  0  0  0  0  0  0  0
  -21.7320   -6.2670   22.5950 C   0  0  0  0  0  0  0  0  0  0  0  0
  -21.2820   -6.8340   23.8070 C   0  0  0  0  0  3  0  0  0  0  0  0
  -21.1710   -6.0320   24.9610 C   0  0  0  0  0  3  0  0  0  0  0  0
  -21.4990   -4.6650   24.9020 C   0  0  0  0  0  0  0  0  0  0  0  0
  -21.9440   -4.0970   23.6960 C   0  0  0  0  0  3  0  0  0  0  0  0
  -22.0580   -4.8970   22.5440 C   0  0  0  0  0  0  0  0  0  0  0  0
  -22.4660   -4.3410   21.3770 F   0  0  0  0  0  0  0  0  0  0  0  0
  -21.3850   -3.8920   26.0080 F   0  0  0  0  0  0  0  0  0  0  0  0
  -22.8600  -13.6310   21.0500 C   0  0  0  0  0  0  0  0  0  0  0  0
  -22.1280  -12.9410   21.9170 N   0  0  0  0  0  0  0  0  0  0  0  0
  -22.4220  -14.6500   20.5150 O   0  0  0  0  0  0  0  0  0  0  0  0
  -22.4920  -12.1160   22.3720 H   0  0  0  0  0  0  0  0  0  0  0  0
  -21.1870  -13.2410   22.1310 H   0  0  0  0  0  0  0  0  0  0  0  0
  -25.4790  -15.3060   20.2260 N   0  0  0  0  0  0  0  0  0  0  0  0
  -24.6990  -15.9460   20.3080 H   0  0  0  0  0  0  0  0  0  0  0  0
  -26.3060  -15.7350   19.8360 H   0  0  0  0  0  0  0  0  0  0  0  0
  -27.6040  -23.4150   21.6600 C   0  0  0  0  0  1  0  0  0  0  0  0
  -28.2890  -23.2890   20.2880 C   0  0  0  0  0  3  0  0  0  0  0  0
  -28.6360  -24.8580   19.7360 C   0  0  0  0  0  2  0  0  0  0  0  0
  -28.4150  -26.2800   20.3400 O   0  0  0  0  0  0  0  0  0  0  0  0
  -24.6620  -31.8930   23.2080 C   0  0  0  0  0  0  0  0  0  0  0  0
  -27.3160  -27.2020   20.2000 C   0  0  0  0  0  0  0  0  0  0  0  0
  -23.4810  -30.4750   21.5660 C   0  0  0  0  0  3  0  0  0  0  0  0
  -24.9530  -28.9040   20.1460 C   0  0  0  0  0  0  0  0  0  0  0  0
  -26.0270  -30.7720   21.4060 C   0  0  0  0  0  2  0  0  0  0  0  0
  -26.1190  -29.3760   20.7590 C   0  0  0  0  0  0  0  0  0  0  0  0
  -27.2930  -28.5390   20.7690 C   0  0  0  0  0  3  0  0  0  0  0  0
  -26.1250  -26.8210   19.5460 C   0  0  0  0  0  3  0  0  0  0  0  0
  -24.9690  -27.6420   19.5240 C   0  0  0  0  0  3  0  0  0  0  0  0
  -23.7120  -29.7840   20.1920 C   0  0  0  0  0  2  0  0  0  0  0  0
  -24.7430  -31.0690   22.1170 N   0  0  0  0  0  0  0  0  0  0  0  0
  -23.5720  -32.1670   23.7340 O   0  0  0  0  0  0  0  0  0  0  0  0
  -22.8090  -29.4710   22.5380 C   0  0  0  0  0  0  0  0  0  0  0  0
  -21.4830  -29.2920   22.4140 N   0  0  0  0  0  0  0  0  0  0  0  0
  -23.4870  -28.8520   23.3640 O   0  0  0  0  0  0  0  0  0  0  0  0
  -20.9960  -29.8310   21.7110 H   0  0  0  0  0  0  0  0  0  0  0  0
  -18.1080  -28.0810   22.9360 C   0  0  0  0  0  0  0  0  0  0  0  0
  -20.6690  -28.3450   23.1820 C   0  0  0  0  0  3  0  0  0  0  0  0
  -20.7680  -26.9190   22.5910 C   0  0  0  0  0  2  0  0  0  0  0  0
  -19.6560  -26.6030   21.5880 C   0  0  0  0  0  2  0  0  0  0  0  0
  -18.2810  -26.7390   22.2490 C   0  0  0  0  0  2  0  0  0  0  0  0
  -19.2280  -28.8430   23.3610 C   0  0  0  0  0  0  0  0  0  0  0  0
  -19.0080  -30.0980   23.9700 C   0  0  0  0  0  3  0  0  0  0  0  0
  -17.7020  -30.5940   24.1500 C   0  0  0  0  0  3  0  0  0  0  0  0
  -16.5980  -29.8310   23.7350 C   0  0  0  0  0  3  0  0  0  0  0  0
  -16.8020  -28.5760   23.1370 C   0  0  0  0  0  3  0  0  0  0  0  0
  -25.9320  -32.5440   23.8360 C   0  0  0  0  0  3  0  0  0  0  0  0
  -26.4430  -31.7880   25.1240 C   0  0  1  0  0  0  0  0  0  0  0  0
  -25.3400  -31.5540   26.1850 C   0  0  0  0  0  1  0  0  0  0  0  0
  -27.0360  -30.4090   24.7570 C   0  0  0  0  0  1  0  0  0  0  0  0
  -27.5850  -32.5950   25.7870 C   0  0  0  0  0  1  0  0  0  0  0  0
  -25.6060  -33.9420   24.1590 N   0  0  0  0  0  0  0  0  0  0  0  0
  -25.9320  -34.9970   23.3990 C   0  0  0  0  0  0  0  0  0  0  0  0
  -26.6000  -34.8970   22.3680 O   0  0  0  0  0  0  0  0  0  0  0  0
  -25.0110  -34.0930   24.9600 H   0  0  0  0  0  0  0  0  0  0  0  0
  -24.1880  -36.7770   23.0480 C   0  0  0  0  0  1  0  0  0  0  0  0
  -25.4370  -36.3850   23.8540 C   0  0  0  0  0  3  0  0  0  0  0  0
  -27.5690  -37.2930   24.6720 C   0  0  0  0  0  1  0  0  0  0  0  0
  -26.4630  -37.4440   23.7280 N   0  0  0  0  0  0  0  0  0  0  0  0
  -26.0520  -38.3630   23.8690 H   0  0  0  0  0  0  0  0  0  0  0  0
  2 50  1  0
  2  1  1  0
  4  8  1  0
  5  3  1  0
  5  4  1  0
  5  6  1  0
  6  3  1  0
  6  7  1  0
  7 10  1  0
  8  2  1  0
  8  7  1  0
  8  9  1  6
 10 19  1  0
 11 19  1  0
 12 17  1  0
 13 14  1  0
 13 12  1  0
 15 14  1  0
 15 24  1  0
 15 16  1  0
 17 11  1  0
 17 16  1  0
 18 11  2  0
 19 20  1  0
 21 22  2  0
 22 41  1  0
 23 22  1  0
 23 26  1  0
 24 21  1  0
 24 25  1  0
 25 23  2  0
 26 27  1  0
 27 28  2  0
 29 32  1  0
 29 28  1  0
 30 29  2  0
 31 30  1  0
 31 26  2  0
 32 33  1  0
 33 34  1  0
 34 35  2  0
 36 35  1  0
 36 40  1  0
 37 36  2  0
 38 33  2  0
 38 37  1  0
 39 38  1  0
 41 42  1  0
 42 45  1  0
 42 44  1  0
 43 41  2  0
 46 47  1  0
 46 21  1  0
 48 46  1  0
 50 49  1  0
 51 50  1  0
 51 52  1  0
 53 64  2  0
 54 52  1  0
 54 59  1  0
 55 63  1  0
 55 65  1  0
 56 62  1  0
 56 58  1  0
 57 63  1  0
 58 59  2  0
 58 57  1  0
 60 54  2  0
 61 60  1  0
 61 56  2  0
 62 55  1  0
 63 53  1  0
 65 67  2  0
 66 65  1  0
 68 66  1  0
 69 78  2  0
 69 74  1  0
 70 66  1  0
 70 74  1  0
 71 70  1  0
 72 73  1  0
 72 71  1  0
 73 69  1  0
 74 75  2  0
 75 76  1  0
 77 76  2  0
 78 77  1  0
 79 53  1  0
 79 84  1  0
 79 80  1  0
 80 83  1  1
 80 81  1  0
 82 80  1  0
 84 87  1  0
 85 89  1  0
 85 84  1  0
 86 85  2  0
 89 88  1  0
 91 89  1  0
 91 92  1  0
 91 90  1  0
M  ISO  4  11 100  19 100  51 101  52 101
M  END
>  <TORSDO>  (66) 
F 20

>  <SCORE>  (66) 
-15.096

>  <name>  (66) 
65

>  <ligand_id>  (66) 
65

>  <original_smiles>  (66) 
[H]c1c([H])c([H])c2c(c1[H])C([H])([H])C([H])([H])C([H])([H])C2([H])N([H])C(=O)C1([H])N(C(=O)C([H])(N([H])C(=O)C([H])(N([H])C([H])([H])[H])C([H])([H])[H])C(C([H])([H])[H])(C([H])([H])[H])C([H])([H])[H])C([H])([H])c2c([H])c(OC([H])([H])C([H])(C([H])([H])[H])C([H])(C([H])([H])[H])[N+]3([H])C([H])([H])C4([H])C([H])([H])C4([H])C3([H])C([H])([H])N([H])C(=O)N3C([H])([H])C([H])([H])C([H])([H])C([H])(n4nc(-c5c([H])c([H])c(Oc6c([H])c([H])c(F)c([H])c6F)c([H])c5[H])c(C(=O)N([H])[H])c4N([H])[H])C3([H])[H])c([H])c([H])c2C1([H])[H]

>  <smiles>  (66) 
[H]c1c([H])c([H])c2c(c1[H])C([H])([H])C([H])([H])C([H])([H])C2([H])N([H])C(=O)C1([H])N(C(=O)C([H])(N([H])C(=O)C([H])(N([H])C([H])([H])[H])C([H])([H])[H])C(C([H])([H])[H])(C([H])([H])[H])C([H])([H])[H])C([H])([H])c2c([H])c(OC([H])([H])C([H])(C([H])([H])[H])C([H])(C([H])([H])[H])[N+]3([H])C([H])([H])C4([H])C([H])([H])C4([H])C3([H])C([H])([H])N([H])C(=O)N3C([H])([H])C([H])([H])C([H])([H])C([H])(n4nc(-c5c([H])c([H])c(Oc6c([H])c([H])c(F)c([H])c6F)c([H])c5[H])c(C(=O)N([H])[H])c4N([H])[H])C3([H])[H])c([H])c([H])c2C1([H])[H]

$$$$
66:0:0
     RDKit          3D

 92101  0  0  1  0  0  0  0  0999 V2000
  -29.1020  -20.3480   17.3480 C   0  0  0  0  0  2  0  0  0  0  0  0
  -30.8640  -21.4640   17.1840 C   0  0  0  0  0  2  0  0  0  0  0  0
  -30.7630  -20.1640   19.4670 C   0  0  0  0  0  2  0  0  0  0  0  0
  -28.8020  -22.8930   18.2250 C   0  0  0  0  0  2  0  0  0  0  0  0
  -30.5140  -20.1770   17.9490 C   0  0  0  0  0  3  0  0  0  0  0  0
  -29.3770  -21.8530   17.2270 C   0  0  0  0  0  3  0  0  0  0  0  0
  -29.5260  -19.7880   20.3020 C   0  0  0  0  0  3  0  0  0  0  0  0
  -28.8290  -22.7220   19.7870 C   0  0  0  0  0  3  0  0  0  0  0  0
  -28.5170  -21.1180   20.1680 N   0  0  0  0  0  4  0  0  0  0  0  0
  -27.9710  -21.1140   21.0190 H   0  0  0  0  0  0  0  0  0  0  0  0
  -27.8610  -20.8410   19.4540 H   0  0  0  0  0  0  0  0  0  0  0  0
  -29.1410  -18.0530   19.9830 C   0  0  0  0  0  2  0  0  0  0  0  0
  -30.3860  -15.2890   20.2950 C   0  0  0  0  0  0  0  0  0  0  0  0
  -30.4120  -12.8040   19.5340 C   0  0  0  0  0  2  0  0  0  0  0  0
  -29.5150  -12.6010   18.2850 C   0  0  0  0  0  2  0  0  0  0  0  0
  -28.0600  -12.3350   18.7070 C   0  0  0  0  0  2  0  0  0  0  0  0
  -27.5950  -13.2990   19.8260 C   0  0  0  0  0  3  0  0  0  0  0  0
  -28.6310  -13.4730   20.9610 C   0  0  0  0  0  2  0  0  0  0  0  0
  -29.8750  -13.9590   20.3460 N   0  0  0  0  0  0  0  0  0  0  0  0
  -31.5670  -15.3340   19.9310 O   0  0  0  0  0  0  0  0  0  0  0  0
  -29.5720  -16.5100   20.5180 N   0  0  0  0  0  0  0  0  0  0  0  0
  -28.7780  -16.1800   21.0470 H   0  0  0  0  0  0  0  0  0  0  0  0
  -25.2150  -13.8450   20.5560 C   0  0  0  0  0  0  0  0  0  0  0  0
  -24.1530  -13.0600   20.9170 C   0  0  0  0  0  0  0  0  0  0  0  0
  -24.6270  -11.7140   20.8940 C   0  0  0  0  0  0  0  0  0  0  0  0
  -26.2640  -12.9720   20.3250 N   0  0  0  0  0  0  0  0  0  0  0  0
  -25.9220  -11.6850   20.5920 N   0  0  0  0  0  0  0  0  0  0  0  0
  -23.9050  -10.4470   21.0810 C   0  0  0  0  0  0  0  0  0  0  0  0
  -24.3460   -9.4740   22.0020 C   0  0  0  0  0  3  0  0  0  0  0  0
  -23.6220   -8.2760   22.1780 C   0  0  0  0  0  3  0  0  0  0  0  0
  -22.4400   -8.0440   21.4340 C   0  0  0  0  0  0  0  0  0  0  0  0
  -22.0190   -9.0080   20.5010 C   0  0  0  0  0  3  0  0  0  0  0  0
  -22.7440  -10.1980   20.3230 C   0  0  0  0  0  3  0  0  0  0  0  0
  -21.6840   -6.9020   21.5210 O   0  0  0  0  0  0  0  0  0  0  0  0
  -21.6590   -6.1370   22.6600 C   0  0  0  0  0  0  0  0  0  0  0  0
  -21.2790   -6.6730   23.9100 C   0  0  0  0  0  3  0  0  0  0  0  0
  -21.2030   -5.8370   25.0430 C   0  0  0  0  0  3  0  0  0  0  0  0
  -21.4950   -4.4650   24.9240 C   0  0  0  0  0  0  0  0  0  0  0  0
  -21.8660   -3.9270   23.6800 C   0  0  0  0  0  3  0  0  0  0  0  0
  -21.9460   -4.7610   22.5510 C   0  0  0  0  0  0  0  0  0  0  0  0
  -22.2840   -4.2330   21.3500 F   0  0  0  0  0  0  0  0  0  0  0  0
  -21.4150   -3.6600   26.0100 F   0  0  0  0  0  0  0  0  0  0  0  0
  -22.7500  -13.5340   21.1710 C   0  0  0  0  0  0  0  0  0  0  0  0
  -22.0230  -12.8350   22.0360 N   0  0  0  0  0  0  0  0  0  0  0  0
  -22.3110  -14.5520   20.6420 O   0  0  0  0  0  0  0  0  0  0  0  0
  -22.3910  -12.0070   22.4790 H   0  0  0  0  0  0  0  0  0  0  0  0
  -21.0820  -13.1280   22.2530 H   0  0  0  0  0  0  0  0  0  0  0  0
  -25.3660  -15.2150   20.3770 N   0  0  0  0  0  0  0  0  0  0  0  0
  -24.5850  -15.8580   20.4690 H   0  0  0  0  0  0  0  0  0  0  0  0
  -26.2050  -15.6680   20.0360 H   0  0  0  0  0  0  0  0  0  0  0  0
  -27.9140  -24.1950   20.2870 C   0  0  0  0  0  2  0  0  0  0  0  0
  -28.1550  -25.8300   20.1670 O   0  0  0  0  0  0  0  0  0  0  0  0
  -24.6260  -31.8410   23.1600 C   0  0  0  0  0  0  0  0  0  0  0  0
  -27.1400  -26.9240   20.1610 C   0  0  0  0  0  0  0  0  0  0  0  0
  -23.4220  -30.4390   21.5370 C   0  0  0  0  0  3  0  0  0  0  0  0
  -24.8560  -28.8200   20.1230 C   0  0  0  0  0  0  0  0  0  0  0  0
  -25.9890  -30.6330   21.3800 C   0  0  0  0  0  2  0  0  0  0  0  0
  -26.0490  -29.2180   20.7350 C   0  0  0  0  0  0  0  0  0  0  0  0
  -27.1870  -28.2890   20.7320 C   0  0  0  0  0  3  0  0  0  0  0  0
  -25.9150  -26.6790   19.5010 C   0  0  0  0  0  3  0  0  0  0  0  0
  -24.8120  -27.5700   19.4880 C   0  0  0  0  0  3  0  0  0  0  0  0
  -23.6420  -29.7480   20.1650 C   0  0  0  0  0  2  0  0  0  0  0  0
  -24.7010  -30.9970   22.0800 N   0  0  0  0  0  0  0  0  0  0  0  0
  -23.5390  -32.1400   23.6810 O   0  0  0  0  0  0  0  0  0  0  0  0
  -22.7310  -29.4480   22.5120 C   0  0  0  0  0  0  0  0  0  0  0  0
  -21.3980  -29.2950   22.4010 N   0  0  0  0  0  0  0  0  0  0  0  0
  -23.4000  -28.8200   23.3340 O   0  0  0  0  0  0  0  0  0  0  0  0
  -20.9090  -29.8550   21.7160 H   0  0  0  0  0  0  0  0  0  0  0  0
  -18.0160  -28.1080   22.9490 C   0  0  0  0  0  0  0  0  0  0  0  0
  -20.5780  -28.3640   23.1850 C   0  0  0  0  0  3  0  0  0  0  0  0
  -20.6690  -26.9280   22.6190 C   0  0  0  0  0  2  0  0  0  0  0  0
  -19.5570  -26.6060   21.6150 C   0  0  0  0  0  2  0  0  0  0  0  0
  -18.1800  -26.7580   22.2730 C   0  0  0  0  0  2  0  0  0  0  0  0
  -19.1420  -28.8700   23.3630 C   0  0  0  0  0  0  0  0  0  0  0  0
  -18.9310  -30.1330   23.9570 C   0  0  0  0  0  3  0  0  0  0  0  0
  -17.6280  -30.6350   24.1400 C   0  0  0  0  0  3  0  0  0  0  0  0
  -16.5180  -29.8730   23.7370 C   0  0  0  0  0  3  0  0  0  0  0  0
  -16.7130  -28.6110   23.1490 C   0  0  0  0  0  3  0  0  0  0  0  0
  -25.9000  -32.4890   23.7830 C   0  0  0  0  0  3  0  0  0  0  0  0
  -25.5740  -33.8840   24.1320 N   0  0  0  0  0  0  0  0  0  0  0  0
  -25.8900  -34.9550   23.3930 C   0  0  0  0  0  0  0  0  0  0  0  0
  -26.5470  -34.8750   22.3530 O   0  0  0  0  0  0  0  0  0  0  0  0
  -24.9850  -34.0180   24.9400 H   0  0  0  0  0  0  0  0  0  0  0  0
  -24.1430  -36.7500   23.1000 C   0  0  0  0  0  1  0  0  0  0  0  0
  -25.3980  -36.3330   23.8830 C   0  0  0  0  0  3  0  0  0  0  0  0
  -27.5390  -37.2260   24.6940 C   0  0  0  0  0  1  0  0  0  0  0  0
  -26.4210  -37.3970   23.7710 N   0  0  0  0  0  0  0  0  0  0  0  0
  -26.0080  -38.3110   23.9420 H   0  0  0  0  0  0  0  0  0  0  0  0
  -26.4250  -31.7190   25.0580 C   0  0  1  0  0  0  0  0  0  0  0  0
  -25.3370  -31.4820   26.1340 C   0  0  0  0  0  1  0  0  0  0  0  0
  -27.0090  -30.3420   24.6720 C   0  0  0  0  0  1  0  0  0  0  0  0
  -27.5740  -32.5190   25.7150 C   0  0  0  0  0  1  0  0  0  0  0  0
  1  5  1  0
  3  7  1  0
  4  8  1  0
  5  2  1  0
  5  3  1  0
  6  2  1  0
  6  1  1  0
  6  4  1  0
  7 12  1  0
  8  9  1  0
  8 51  1  0
  9  7  1  0
  9 10  1  0
 11  9  1  0
 12 21  1  0
 13 19  1  0
 13 21  1  0
 14 19  1  0
 15 16  1  0
 15 14  1  0
 17 16  1  0
 17 26  1  0
 17 18  1  0
 19 18  1  0
 20 13  2  0
 21 22  1  0
 23 24  2  0
 24 43  1  0
 25 24  1  0
 25 28  1  0
 26 23  1  0
 26 27  1  0
 27 25  2  0
 28 29  1  0
 29 30  2  0
 31 34  1  0
 31 30  1  0
 32 31  2  0
 33 32  1  0
 33 28  2  0
 34 35  1  0
 35 36  1  0
 36 37  2  0
 38 37  1  0
 38 42  1  0
 39 38  2  0
 40 35  2  0
 40 39  1  0
 41 40  1  0
 43 44  1  0
 44 47  1  0
 44 46  1  0
 45 43  2  0
 48 49  1  0
 48 23  1  0
 50 48  1  0
 52 51  1  0
 53 64  2  0
 54 52  1  0
 54 59  1  0
 55 63  1  0
 55 65  1  0
 56 62  1  0
 56 58  1  0
 57 63  1  0
 58 57  1  0
 59 58  2  0
 60 54  2  0
 61 60  1  0
 61 56  2  0
 62 55  1  0
 63 53  1  0
 65 67  2  0
 66 65  1  0
 68 66  1  0
 69 78  2  0
 69 74  1  0
 70 66  1  0
 70 74  1  0
 71 70  1  0
 72 73  1  0
 72 71  1  0
 73 69  1  0
 74 75  2  0
 75 76  1  0
 77 76  2  0
 78 77  1  0
 79 53  1  0
 79 80  1  0
 79 89  1  0
 80 83  1  0
 81 85  1  0
 81 80  1  0
 82 81  2  0
 85 84  1  0
 87 85  1  0
 87 88  1  0
 87 86  1  0
 89 92  1  1
 89 90  1  0
 91 89  1  0
M  ISO  4  13 100  21 100  51 101  52 101
M  END
>  <TORSDO>  (67) 
F 18

>  <SCORE>  (67) 
-16.701

>  <name>  (67) 
66

>  <ligand_id>  (67) 
66

>  <original_smiles>  (67) 
[H]c1c([H])c([H])c2c(c1[H])C([H])([H])C([H])([H])C([H])([H])C2([H])N([H])C(=O)C1([H])N(C(=O)C([H])(N([H])C(=O)C([H])(N([H])C([H])([H])[H])C([H])([H])[H])C(C([H])([H])[H])(C([H])([H])[H])C([H])([H])[H])C([H])([H])c2c([H])c(OC([H])([H])C3([H])C([H])([H])C4([H])C([H])([H])C([H])(C4([H])[H])C([H])([H])C([H])(C([H])([H])N([H])C(=O)N4C([H])([H])C([H])([H])C([H])([H])C([H])(n5nc(-c6c([H])c([H])c(Oc7c([H])c([H])c(F)c([H])c7F)c([H])c6[H])c(C(=O)N([H])[H])c5N([H])[H])C4([H])[H])[N+]3([H])[H])c([H])c([H])c2C1([H])[H]

>  <smiles>  (67) 
[H]c1c([H])c([H])c2c(c1[H])C([H])([H])C([H])([H])C([H])([H])C2([H])N([H])C(=O)C1([H])N(C(=O)C([H])(N([H])C(=O)C([H])(N([H])C([H])([H])[H])C([H])([H])[H])C(C([H])([H])[H])(C([H])([H])[H])C([H])([H])[H])C([H])([H])c2c([H])c(OC([H])([H])C3([H])C([H])([H])C4([H])C([H])([H])C([H])(C4([H])[H])C([H])([H])C([H])(C([H])([H])N([H])C(=O)N4C([H])([H])C([H])([H])C([H])([H])C([H])(n5nc(-c6c([H])c([H])c(Oc7c([H])c([H])c(F)c([H])c7F)c([H])c6[H])c(C(=O)N([H])[H])c5N([H])[H])C4([H])[H])[N+]3([H])[H])c([H])c([H])c2C1([H])[H]

$$$$
67:0:0
     RDKit          3D

 89 98  0  0  1  0  0  0  0  0999 V2000
  -29.7430  -17.6110   20.4360 C   0  0  0  0  0  0  0  0  0  0  0  0
  -31.1190  -19.8550   20.8470 C   0  0  0  0  0  0  0  0  0  0  0  0
  -31.1100  -18.3510   20.3510 C   0  0  0  0  0  2  0  0  0  0  0  0
  -28.5830  -18.7810   20.5380 C   0  0  0  0  0  2  0  0  0  0  0  0
  -30.0830  -22.4360   20.6410 C   0  0  0  0  0  2  0  0  0  0  0  0
  -27.9270  -21.6650   20.3520 C   0  0  0  0  0  2  0  0  0  0  0  0
  -30.2250  -20.9100   20.1140 C   0  0  0  0  0  3  0  0  0  0  0  0
  -28.8120  -20.3400   19.9650 C   0  0  0  0  0  3  0  0  0  0  0  0
  -28.7150  -23.0810   20.1390 C   0  0  0  0  0  3  0  0  0  0  0  0
  -29.5180  -16.2530   20.4770 N   0  0  0  0  0  0  0  0  0  0  0  0
  -31.8460  -20.1990   21.7840 O   0  0  0  0  0  0  0  0  0  0  0  0
  -30.4260  -15.0750   20.3170 C   0  0  0  0  0  0  0  0  0  0  0  0
  -30.3690  -12.6880   19.4080 C   0  0  0  0  0  2  0  0  0  0  0  0
  -29.4430  -12.6320   18.1670 C   0  0  0  0  0  2  0  0  0  0  0  0
  -27.9750  -12.4150   18.5830 C   0  0  0  0  0  2  0  0  0  0  0  0
  -27.5570  -13.3380   19.7550 C   0  0  0  0  0  3  0  0  0  0  0  0
  -28.6020  -13.3520   20.8860 C   0  0  0  0  0  2  0  0  0  0  0  0
  -29.8810  -13.7820   20.3030 N   0  0  0  0  0  0  0  0  0  0  0  0
  -31.6280  -15.1360   20.0470 O   0  0  0  0  0  0  0  0  0  0  0  0
  -25.1740  -13.9190   20.4790 C   0  0  0  0  0  0  0  0  0  0  0  0
  -24.1060  -13.1460   20.8460 C   0  0  0  0  0  0  0  0  0  0  0  0
  -24.5700  -11.7950   20.8280 C   0  0  0  0  0  0  0  0  0  0  0  0
  -26.2170  -13.0380   20.2490 N   0  0  0  0  0  0  0  0  0  0  0  0
  -25.8630  -11.7550   20.5260 N   0  0  0  0  0  0  0  0  0  0  0  0
  -23.8410  -10.5350   21.0240 C   0  0  0  0  0  0  0  0  0  0  0  0
  -24.2650   -9.5700   21.9640 C   0  0  0  0  0  3  0  0  0  0  0  0
  -23.5340   -8.3770   22.1460 C   0  0  0  0  0  3  0  0  0  0  0  0
  -22.3630   -8.1390   21.3880 C   0  0  0  0  0  0  0  0  0  0  0  0
  -21.9570   -9.0910   20.4370 C   0  0  0  0  0  3  0  0  0  0  0  0
  -22.6880  -10.2770   20.2530 C   0  0  0  0  0  3  0  0  0  0  0  0
  -21.6050   -6.9960   21.4780 O   0  0  0  0  0  0  0  0  0  0  0  0
  -21.5490   -6.2590   22.6340 C   0  0  0  0  0  0  0  0  0  0  0  0
  -21.1200   -6.8210   23.8560 C   0  0  0  0  0  3  0  0  0  0  0  0
  -21.0110   -6.0100   25.0030 C   0  0  0  0  0  3  0  0  0  0  0  0
  -21.3220   -4.6390   24.9300 C   0  0  0  0  0  0  0  0  0  0  0  0
  -21.7430   -4.0770   23.7120 C   0  0  0  0  0  3  0  0  0  0  0  0
  -21.8540   -4.8850   22.5670 C   0  0  0  0  0  0  0  0  0  0  0  0
  -22.2400   -4.3330   21.3910 F   0  0  0  0  0  0  0  0  0  0  0  0
  -21.2100   -3.8580   26.0300 F   0  0  0  0  0  0  0  0  0  0  0  0
  -22.7070  -13.6270   21.1040 C   0  0  0  0  0  0  0  0  0  0  0  0
  -21.9750  -12.9420   21.9750 N   0  0  0  0  0  0  0  0  0  0  0  0
  -22.2740  -14.6450   20.5670 O   0  0  0  0  0  0  0  0  0  0  0  0
  -22.3390  -12.1190   22.4310 H   0  0  0  0  0  0  0  0  0  0  0  0
  -21.0360  -13.2470   22.1890 H   0  0  0  0  0  0  0  0  0  0  0  0
  -25.3450  -15.2870   20.3000 N   0  0  0  0  0  0  0  0  0  0  0  0
  -24.5940  -15.9580   20.4220 H   0  0  0  0  0  0  0  0  0  0  0  0
  -26.2250  -15.7160   20.0330 H   0  0  0  0  0  0  0  0  0  0  0  0
  -28.0670  -24.5930   20.6830 C   0  0  0  0  0  2  0  0  0  0  0  0
  -28.3250  -26.1210   20.3350 O   0  0  0  0  0  0  0  0  0  0  0  0
  -24.6490  -31.9010   23.2570 C   0  0  0  0  0  0  0  0  0  0  0  0
  -27.2710  -27.1270   20.3030 C   0  0  0  0  0  0  0  0  0  0  0  0
  -23.4720  -30.4820   21.6230 C   0  0  0  0  0  3  0  0  0  0  0  0
  -24.9400  -28.8940   20.2280 C   0  0  0  0  0  0  0  0  0  0  0  0
  -26.0290  -30.7480   21.4790 C   0  0  0  0  0  2  0  0  0  0  0  0
  -26.1160  -29.3440   20.8420 C   0  0  0  0  0  0  0  0  0  0  0  0
  -27.2830  -28.4800   20.8560 C   0  0  0  0  0  3  0  0  0  0  0  0
  -26.0690  -26.7950   19.6420 C   0  0  0  0  0  3  0  0  0  0  0  0
  -24.9330  -27.6340   19.6090 C   0  0  0  0  0  3  0  0  0  0  0  0
  -23.7100  -29.7910   20.2540 C   0  0  0  0  0  2  0  0  0  0  0  0
  -24.7370  -31.0680   22.1740 N   0  0  0  0  0  0  0  0  0  0  0  0
  -23.5570  -32.1850   23.7730 O   0  0  0  0  0  0  0  0  0  0  0  0
  -22.7880  -29.4840   22.5910 C   0  0  0  0  0  0  0  0  0  0  0  0
  -21.4600  -29.3060   22.4570 N   0  0  0  0  0  0  0  0  0  0  0  0
  -23.4550  -28.8690   23.4270 O   0  0  0  0  0  0  0  0  0  0  0  0
  -20.9780  -29.8520   21.7570 H   0  0  0  0  0  0  0  0  0  0  0  0
  -18.0820  -28.0880   22.9480 C   0  0  0  0  0  0  0  0  0  0  0  0
  -20.6390  -28.3710   23.2300 C   0  0  0  0  0  3  0  0  0  0  0  0
  -20.7530  -26.9340   22.6710 C   0  0  0  0  0  2  0  0  0  0  0  0
  -19.6600  -26.5940   21.6520 C   0  0  0  0  0  2  0  0  0  0  0  0
  -18.2730  -26.7350   22.2840 C   0  0  0  0  0  2  0  0  0  0  0  0
  -19.1930  -28.8640   23.3780 C   0  0  0  0  0  0  0  0  0  0  0  0
  -18.9590  -30.1280   23.9600 C   0  0  0  0  0  3  0  0  0  0  0  0
  -17.6490  -30.6180   24.1170 C   0  0  0  0  0  3  0  0  0  0  0  0
  -16.5540  -29.8420   23.7010 C   0  0  0  0  0  3  0  0  0  0  0  0
  -16.7710  -28.5790   23.1230 C   0  0  0  0  0  3  0  0  0  0  0  0
  -25.9170  -32.5520   23.8900 C   0  0  0  0  0  3  0  0  0  0  0  0
  -25.5890  -33.9500   24.2130 N   0  0  0  0  0  0  0  0  0  0  0  0
  -25.9050  -35.0060   23.4520 C   0  0  0  0  0  0  0  0  0  0  0  0
  -26.5670  -34.9070   22.4160 O   0  0  0  0  0  0  0  0  0  0  0  0
  -24.9980  -34.0990   25.0180 H   0  0  0  0  0  0  0  0  0  0  0  0
  -24.1480  -36.7800   23.1220 C   0  0  0  0  0  1  0  0  0  0  0  0
  -25.4100  -36.3930   23.9110 C   0  0  0  0  0  3  0  0  0  0  0  0
  -27.5470  -37.3120   24.6960 C   0  0  0  0  0  1  0  0  0  0  0  0
  -26.4260  -37.4580   23.7720 N   0  0  0  0  0  0  0  0  0  0  0  0
  -26.0110  -38.3750   23.9190 H   0  0  0  0  0  0  0  0  0  0  0  0
  -26.4230  -31.7950   25.1800 C   0  0  1  0  0  0  0  0  0  0  0  0
  -25.3210  -31.5640   26.2400 C   0  0  0  0  0  1  0  0  0  0  0  0
  -27.0170  -30.4170   24.8140 C   0  0  0  0  0  1  0  0  0  0  0  0
  -27.5630  -32.6030   25.8450 C   0  0  0  0  0  1  0  0  0  0  0  0
  1 10  2  0
  1  4  1  0
  2 11  2  0
  3  1  1  0
  3  2  1  0
  7  5  1  0
  7  2  1  0
  8  7  1  0
  8  6  1  0
  8  4  1  0
  9  6  1  0
  9  5  1  0
  9 48  1  0
 12 10  1  0
 13 18  1  0
 14 15  1  0
 14 13  1  0
 16 15  1  0
 16 23  1  0
 16 17  1  0
 18 12  1  0
 18 17  1  0
 19 12  2  0
 20 21  2  0
 21 40  1  0
 22 21  1  0
 22 25  1  0
 23 20  1  0
 23 24  1  0
 24 22  2  0
 25 26  1  0
 26 27  2  0
 28 31  1  0
 28 27  1  0
 29 28  2  0
 30 29  1  0
 30 25  2  0
 31 32  1  0
 32 33  1  0
 33 34  2  0
 35 34  1  0
 35 39  1  0
 36 35  2  0
 37 32  2  0
 37 36  1  0
 38 37  1  0
 40 41  1  0
 41 44  1  0
 41 43  1  0
 42 40  2  0
 45 46  1  0
 45 20  1  0
 47 45  1  0
 49 48  1  0
 50 61  2  0
 51 49  1  0
 51 56  1  0
 52 60  1  0
 52 62  1  0
 53 59  1  0
 53 55  1  0
 54 60  1  0
 55 56  2  0
 55 54  1  0
 57 51  2  0
 58 57  1  0
 58 53  2  0
 59 52  1  0
 60 50  1  0
 62 64  2  0
 63 62  1  0
 65 63  1  0
 66 75  2  0
 66 71  1  0
 67 63  1  0
 67 71  1  0
 68 67  1  0
 69 70  1  0
 69 68  1  0
 70 66  1  0
 71 72  2  0
 72 73  1  0
 74 73  2  0
 75 74  1  0
 76 50  1  0
 76 77  1  0
 76 86  1  0
 77 80  1  0
 78 82  1  0
 78 77  1  0
 79 78  2  0
 82 81  1  0
 84 82  1  0
 84 85  1  0
 84 83  1  0
 86 89  1  1
 86 87  1  0
 88 86  1  0
M  ISO  4  10 100  12 100  48 101  49 101
M  END
>  <TORSDO>  (68) 
F 17

>  <SCORE>  (68) 
-15.825

>  <name>  (68) 
67

>  <ligand_id>  (68) 
67

>  <original_smiles>  (68) 
[H]c1c([H])c([H])c2c(c1[H])C([H])([H])C([H])([H])C([H])([H])C2([H])N([H])C(=O)C1([H])N(C(=O)C([H])(N([H])C(=O)C([H])(N([H])C([H])([H])[H])C([H])([H])[H])C(C([H])([H])[H])(C([H])([H])[H])C([H])([H])[H])C([H])([H])c2c([H])c(OC([H])([H])C3([H])C([H])([H])C4([H])C(=O)C([H])([H])C(=NC(=O)N5C([H])([H])C([H])([H])C([H])([H])C([H])(n6nc(-c7c([H])c([H])c(Oc8c([H])c([H])c(F)c([H])c8F)c([H])c7[H])c(C(=O)N([H])[H])c6N([H])[H])C5([H])[H])C([H])([H])C4([H])C3([H])[H])c([H])c([H])c2C1([H])[H]

>  <smiles>  (68) 
[H]c1c([H])c([H])c2c(c1[H])C([H])([H])C([H])([H])C([H])([H])C2([H])N([H])C(=O)C1([H])N(C(=O)C([H])(N([H])C(=O)C([H])(N([H])C([H])([H])[H])C([H])([H])[H])C(C([H])([H])[H])(C([H])([H])[H])C([H])([H])[H])C([H])([H])c2c([H])c(OC([H])([H])C3([H])C([H])([H])C4([H])C(=O)C([H])([H])C(=NC(=O)N5C([H])([H])C([H])([H])C([H])([H])C([H])(n6nc(-c7c([H])c([H])c(Oc8c([H])c([H])c(F)c([H])c8F)c([H])c7[H])c(C(=O)N([H])[H])c6N([H])[H])C5([H])[H])C([H])([H])C4([H])C3([H])[H])c([H])c([H])c2C1([H])[H]

$$$$
68:0:0
     RDKit          3D

 99108  0  0  1  0  0  0  0  0999 V2000
  -26.3550  -21.2090   21.3290 C   0  0  0  0  0  2  0  0  0  0  0  0
  -27.8340  -21.1550   21.0310 C   0  0  0  0  0  3  0  0  0  0  0  0
  -26.9810  -22.2290   20.3960 C   0  0  0  0  0  3  0  0  0  0  0  0
  -29.6990  -19.5310   20.5470 C   0  0  0  0  0  3  0  0  0  0  0  0
  -27.9280  -19.7760   18.8940 C   0  0  0  0  0  3  0  0  0  0  0  0
  -29.7950  -18.2710   18.4600 C   0  0  0  0  0  3  0  0  0  0  0  0
  -28.4810  -20.1260   20.1460 C   0  0  0  0  0  0  0  0  0  0  0  0
  -30.3520  -18.5980   19.7150 C   0  0  0  0  0  0  0  0  0  0  0  0
  -28.5890  -18.8640   18.0490 C   0  0  0  0  0  0  0  0  0  0  0  0
  -28.0470  -18.5400   16.8070 N   0  0  0  0  0  0  0  0  0  0  0  0
  -27.0760  -18.7710   16.6240 H   0  0  0  0  0  0  0  0  0  0  0  0
  -28.3420  -17.6820   16.3490 H   0  0  0  0  0  0  0  0  0  0  0  0
  -32.7110  -18.1240   19.0480 C   0  0  0  0  0  1  0  0  0  0  0  0
  -31.6480  -17.9400   20.1590 C   0  0  0  0  0  3  0  0  0  0  0  0
  -32.1090  -15.4560   20.5090 C   0  0  0  0  0  0  0  0  0  0  0  0
  -31.8060  -13.1900   19.6350 C   0  0  0  0  0  2  0  0  0  0  0  0
  -30.9790  -13.3080   18.3380 C   0  0  0  0  0  2  0  0  0  0  0  0
  -29.4670  -13.2780   18.6470 C   0  0  0  0  0  2  0  0  0  0  0  0
  -29.0610  -14.2450   19.7960 C   0  0  0  0  0  3  0  0  0  0  0  0
  -30.0230  -14.1250   21.0020 C   0  0  0  0  0  2  0  0  0  0  0  0
  -31.4010  -14.2960   20.5070 N   0  0  0  0  0  0  0  0  0  0  0  0
  -33.3140  -15.5180   20.2630 O   0  0  0  0  0  0  0  0  0  0  0  0
  -31.3400  -16.5510   20.5220 N   0  0  0  0  0  0  0  0  0  0  0  0
  -30.3650  -16.3710   20.7040 H   0  0  0  0  0  0  0  0  0  0  0  0
  -26.6660  -14.9970   20.3620 C   0  0  0  0  0  0  0  0  0  0  0  0
  -25.5270  -14.2950   20.6510 C   0  0  0  0  0  0  0  0  0  0  0  0
  -25.8990  -12.9180   20.6320 C   0  0  0  0  0  0  0  0  0  0  0  0
  -27.6650  -14.0540   20.1870 N   0  0  0  0  0  0  0  0  0  0  0  0
  -27.2020  -12.7960   20.4070 N   0  0  0  0  0  0  0  0  0  0  0  0
  -25.0800  -11.7080   20.7600 C   0  0  0  0  0  0  0  0  0  0  0  0
  -25.3740  -10.7210   21.7280 C   0  0  0  0  0  3  0  0  0  0  0  0
  -24.5620   -9.5710   21.8430 C   0  0  0  0  0  3  0  0  0  0  0  0
  -23.4450   -9.4020   20.9880 C   0  0  0  0  0  0  0  0  0  0  0  0
  -23.1730  -10.3770   20.0140 C   0  0  0  0  0  3  0  0  0  0  0  0
  -23.9820  -11.5190   19.8970 C   0  0  0  0  0  3  0  0  0  0  0  0
  -22.6180   -8.3060   21.0110 O   0  0  0  0  0  0  0  0  0  0  0  0
  -22.3140   -7.6590   22.1820 C   0  0  0  0  0  0  0  0  0  0  0  0
  -21.6950   -8.3260   23.2620 C   0  0  0  0  0  3  0  0  0  0  0  0
  -21.3360   -7.6070   24.4200 C   0  0  0  0  0  3  0  0  0  0  0  0
  -21.5820   -6.2240   24.4980 C   0  0  0  0  0  0  0  0  0  0  0  0
  -22.1920   -5.5570   23.4210 C   0  0  0  0  0  3  0  0  0  0  0  0
  -22.5570   -6.2720   22.2670 C   0  0  0  0  0  0  0  0  0  0  0  0
  -23.1240   -5.6200   21.2230 F   0  0  0  0  0  0  0  0  0  0  0  0
  -21.2290   -5.5330   25.6070 F   0  0  0  0  0  0  0  0  0  0  0  0
  -24.1500  -14.8650   20.8390 C   0  0  0  0  0  0  0  0  0  0  0  0
  -23.3280  -14.2280   21.6660 N   0  0  0  0  0  0  0  0  0  0  0  0
  -23.8100  -15.9110   20.2890 O   0  0  0  0  0  0  0  0  0  0  0  0
  -23.6090  -13.3780   22.1320 H   0  0  0  0  0  0  0  0  0  0  0  0
  -22.4040  -14.5970   21.8360 H   0  0  0  0  0  0  0  0  0  0  0  0
  -26.9230  -16.3520   20.2150 N   0  0  0  0  0  0  0  0  0  0  0  0
  -26.1750  -17.0360   20.2410 H   0  0  0  0  0  0  0  0  0  0  0  0
  -27.7830  -16.7480   19.8550 H   0  0  0  0  0  0  0  0  0  0  0  0
  -27.2170  -23.6140   20.8720 C   0  0  0  0  0  0  0  0  0  0  0  0
  -28.0610  -24.2970   20.0960 N   0  0  0  0  0  0  0  0  0  0  0  0
  -26.6860  -24.0960   21.8750 O   0  0  0  0  0  0  0  0  0  0  0  0
  -28.4830  -23.8060   19.3180 H   0  0  0  0  0  0  0  0  0  0  0  0
  -28.3650  -25.7120   20.2350 C   0  0  0  0  0  2  0  0  0  0  0  0
  -28.7340  -26.3220   18.8710 C   0  0  0  0  0  2  0  0  0  0  0  0
  -28.5380  -27.7310   18.8940 O   0  0  0  0  0  0  0  0  0  0  0  0
  -24.4670  -31.6550   23.1660 C   0  0  0  0  0  0  0  0  0  0  0  0
  -27.2710  -28.2250   19.1090 C   0  0  0  0  0  0  0  0  0  0  0  0
  -23.2630  -30.4420   21.3760 C   0  0  0  0  0  3  0  0  0  0  0  0
  -24.7330  -29.3690   19.5910 C   0  0  0  0  0  0  0  0  0  0  0  0
  -25.7070  -31.1320   21.0730 C   0  0  0  0  0  2  0  0  0  0  0  0
  -25.8740  -29.9240   20.1790 C   0  0  0  0  0  0  0  0  0  0  0  0
  -27.1440  -29.3610   19.9350 C   0  0  0  0  0  3  0  0  0  0  0  0
  -26.1040  -27.6640   18.5320 C   0  0  0  0  0  3  0  0  0  0  0  0
  -24.8390  -28.2330   18.7700 C   0  0  0  0  0  3  0  0  0  0  0  0
  -23.4150  -30.0500   19.8830 C   0  0  0  0  0  2  0  0  0  0  0  0
  -24.5010  -31.0810   21.9310 N   0  0  0  0  0  0  0  0  0  0  0  0
  -23.4190  -31.6980   23.8240 O   0  0  0  0  0  0  0  0  0  0  0  0
  -22.8120  -29.1940   22.1680 C   0  0  0  0  0  0  0  0  0  0  0  0
  -21.5350  -28.8150   22.0030 N   0  0  0  0  0  0  0  0  0  0  0  0
  -23.6050  -28.5800   22.8860 O   0  0  0  0  0  0  0  0  0  0  0  0
  -20.9470  -29.3750   21.4030 H   0  0  0  0  0  0  0  0  0  0  0  0
  -18.4650  -26.9170   22.1450 C   0  0  0  0  0  0  0  0  0  0  0  0
  -20.9000  -27.6480   22.6140 C   0  0  0  0  0  3  0  0  0  0  0  0
  -21.3220  -26.3450   21.8970 C   0  0  0  0  0  2  0  0  0  0  0  0
  -20.3550  -25.9290   20.7850 C   0  0  0  0  0  2  0  0  0  0  0  0
  -18.9460  -25.7180   21.3470 C   0  0  0  0  0  2  0  0  0  0  0  0
  -19.3810  -27.8340   22.7270 C   0  0  0  0  0  0  0  0  0  0  0  0
  -18.8810  -28.9520   23.4300 C   0  0  0  0  0  3  0  0  0  0  0  0
  -17.4960  -29.1600   23.5580 C   0  0  0  0  0  3  0  0  0  0  0  0
  -16.5930  -28.2430   22.9950 C   0  0  0  0  0  3  0  0  0  0  0  0
  -17.0780  -27.1240   22.2930 C   0  0  0  0  0  3  0  0  0  0  0  0
  -25.7350  -32.3090   23.8010 C   0  0  0  0  0  3  0  0  0  0  0  0
  -25.3710  -33.6700   24.2120 N   0  0  0  0  0  0  0  0  0  0  0  0
  -25.6830  -34.7790   23.5280 C   0  0  0  0  0  0  0  0  0  0  0  0
  -26.3770  -34.7640   22.5080 O   0  0  0  0  0  0  0  0  0  0  0  0
  -24.7600  -33.7540   25.0110 H   0  0  0  0  0  0  0  0  0  0  0  0
  -23.9160  -36.5410   23.2270 C   0  0  0  0  0  1  0  0  0  0  0  0
  -25.1380  -36.1170   24.0600 C   0  0  0  0  0  3  0  0  0  0  0  0
  -27.2110  -36.9980   25.0340 C   0  0  0  0  0  1  0  0  0  0  0  0
  -26.1420  -37.2040   24.0600 N   0  0  0  0  0  0  0  0  0  0  0  0
  -25.7020  -38.0990   24.2580 H   0  0  0  0  0  0  0  0  0  0  0  0
  -26.3100  -31.4900   25.0220 C   0  0  1  0  0  0  0  0  0  0  0  0
  -25.2450  -31.1240   26.0820 C   0  0  0  0  0  1  0  0  0  0  0  0
  -26.9670  -30.1760   24.5370 C   0  0  0  0  0  1  0  0  0  0  0  0
  -27.4220  -32.3060   25.7230 C   0  0  0  0  0  1  0  0  0  0  0  0
  2  7  1  0
  2  1  1  0
  3 53  1  0
  3  2  1  0
  3  1  1  0
  5  7  2  0
  6  8  1  0
  7  4  1  0
  8 14  1  0
  8  4  2  0
  9  6  2  0
  9  5  1  0
 10  9  1  0
 11 10  1  0
 12 10  1  0
 14 13  1  0
 14 23  1  0
 15 23  1  0
 16 21  1  0
 17 18  1  0
 17 16  1  0
 19 18  1  0
 19 28  1  0
 19 20  1  0
 21 15  1  0
 21 20  1  0
 22 15  2  0
 23 24  1  0
 25 26  2  0
 26 45  1  0
 27 26  1  0
 27 30  1  0
 28 25  1  0
 28 29  1  0
 29 27  2  0
 30 31  1  0
 31 32  2  0
 33 36  1  0
 33 32  1  0
 34 33  2  0
 35 34  1  0
 35 30  2  0
 36 37  1  0
 37 42  2  0
 37 38  1  0
 38 39  2  0
 39 40  1  0
 40 44  1  0
 41 40  2  0
 42 41  1  0
 43 42  1  0
 45 46  1  0
 46 49  1  0
 46 48  1  0
 47 45  2  0
 50 51  1  0
 50 25  1  0
 52 50  1  0
 53 55  2  0
 54 57  1  0
 54 53  1  0
 56 54  1  0
 58 59  1  0
 58 57  1  0
 59 61  1  0
 60 71  2  0
 61 66  1  0
 62 70  1  0
 62 72  1  0
 63 69  1  0
 63 65  1  0
 64 70  1  0
 65 64  1  0
 66 65  2  0
 67 68  1  0
 67 61  2  0
 68 63  2  0
 69 62  1  0
 70 60  1  0
 72 74  2  0
 73 72  1  0
 75 73  1  0
 76 85  2  0
 76 81  1  0
 77 73  1  0
 77 81  1  0
 78 77  1  0
 79 80  1  0
 79 78  1  0
 80 76  1  0
 81 82  2  0
 82 83  1  0
 84 83  2  0
 85 84  1  0
 86 60  1  0
 86 87  1  0
 86 96  1  0
 87 90  1  0
 88 92  1  0
 88 87  1  0
 89 88  2  0
 92 91  1  0
 92 94  1  0
 94 95  1  0
 94 93  1  0
 96 99  1  1
 96 97  1  0
 98 96  1  0
M  ISO  4  15 100  23 100  58 101  59 101
M  END
>  <TORSDO>  (69) 
F 22

>  <SCORE>  (69) 
-6.016

>  <name>  (69) 
68

>  <ligand_id>  (69) 
68

>  <original_smiles>  (69) 
[H]c1c([H])c([H])c2c(c1[H])C([H])([H])C([H])([H])C([H])([H])C2([H])N([H])C(=O)C1([H])N(C(=O)C([H])(N([H])C(=O)C([H])(N([H])C([H])([H])[H])C([H])([H])[H])C(C([H])([H])[H])(C([H])([H])[H])C([H])([H])[H])C([H])([H])c2c([H])c(OC([H])([H])C([H])([H])N([H])C(=O)C3([H])C([H])([H])C3([H])c3c([H])c(N([H])[H])c([H])c(C([H])(N([H])C(=O)N4C([H])([H])C([H])([H])C([H])([H])C([H])(n5nc(-c6c([H])c([H])c(Oc7c([H])c([H])c(F)c([H])c7F)c([H])c6[H])c(C(=O)N([H])[H])c5N([H])[H])C4([H])[H])C([H])([H])[H])c3[H])c([H])c([H])c2C1([H])[H]

>  <smiles>  (69) 
[H]c1c([H])c([H])c2c(c1[H])C([H])([H])C([H])([H])C([H])([H])C2([H])N([H])C(=O)C1([H])N(C(=O)C([H])(N([H])C(=O)C([H])(N([H])C([H])([H])[H])C([H])([H])[H])C(C([H])([H])[H])(C([H])([H])[H])C([H])([H])[H])C([H])([H])c2c([H])c(OC([H])([H])C([H])([H])N([H])C(=O)C3([H])C([H])([H])C3([H])c3c([H])c(N([H])[H])c([H])c(C([H])(N([H])C(=O)N4C([H])([H])C([H])([H])C([H])([H])C([H])(n5nc(-c6c([H])c([H])c(Oc7c([H])c([H])c(F)c([H])c7F)c([H])c6[H])c(C(=O)N([H])[H])c5N([H])[H])C4([H])[H])C([H])([H])[H])c3[H])c([H])c([H])c2C1([H])[H]

$$$$
69:0:0
     RDKit          3D

100109  0  0  1  0  0  0  0  0999 V2000
  -29.8670  -20.0650   23.2260 C   0  0  0  0  0  3  0  0  0  0  0  0
  -29.6230  -21.3470   22.6620 C   0  0  0  0  0  3  0  0  0  0  0  0
  -30.7050  -19.0920   22.5930 C   0  0  0  0  0  3  0  0  0  0  0  0
  -30.2890  -21.5810   21.4580 C   0  0  0  0  0  0  0  0  0  0  0  0
  -31.1300  -20.6130   20.8230 C   0  0  0  0  0  0  0  0  0  0  0  0
  -31.3610  -19.3260   21.3500 C   0  0  0  0  0  0  0  0  0  0  0  0
  -31.4080  -21.5350   19.6510 C   0  0  0  0  0  2  0  0  0  0  0  0
  -30.4400  -22.6150   20.3640 C   0  0  0  0  0  3  0  0  0  0  0  0
  -31.1000  -23.8560   20.8460 N   0  0  0  0  0  4  0  0  0  0  0  0
  -32.0930  -23.6920   20.8770 H   0  0  0  0  0  0  0  0  0  0  0  0
  -30.8150  -24.0080   21.8000 H   0  0  0  0  0  0  0  0  0  0  0  0
  -30.8380  -25.1060   20.0790 C   0  0  0  0  0  2  0  0  0  0  0  0
  -29.3890  -25.6310   20.2090 C   0  0  0  0  0  2  0  0  0  0  0  0
  -29.3110  -27.0300   19.8800 O   0  0  0  0  0  0  0  0  0  0  0  0
  -24.5840  -31.2670   23.1130 C   0  0  0  0  0  0  0  0  0  0  0  0
  -28.0410  -27.5670   19.8610 C   0  0  0  0  0  0  0  0  0  0  0  0
  -23.6920  -29.8410   21.2980 C   0  0  0  0  0  3  0  0  0  0  0  0
  -25.4370  -28.6730   19.8480 C   0  0  0  0  0  0  0  0  0  0  0  0
  -26.1340  -30.6050   21.2740 C   0  0  0  0  0  2  0  0  0  0  0  0
  -26.4690  -29.3240   20.5360 C   0  0  0  0  0  0  0  0  0  0  0  0
  -27.7760  -28.7840   20.5310 C   0  0  0  0  0  3  0  0  0  0  0  0
  -26.9890  -26.9290   19.1660 C   0  0  0  0  0  3  0  0  0  0  0  0
  -25.6910  -27.4750   19.1600 C   0  0  0  0  0  3  0  0  0  0  0  0
  -24.0690  -29.3190   19.8860 C   0  0  0  0  0  2  0  0  0  0  0  0
  -24.8170  -30.5830   21.9560 N   0  0  0  0  0  0  0  0  0  0  0  0
  -23.4490  -31.3200   23.6090 O   0  0  0  0  0  0  0  0  0  0  0  0
  -23.1680  -28.6540   22.1370 C   0  0  0  0  0  0  0  0  0  0  0  0
  -21.8980  -28.2760   21.9160 N   0  0  0  0  0  0  0  0  0  0  0  0
  -23.9030  -28.0760   22.9420 O   0  0  0  0  0  0  0  0  0  0  0  0
  -21.3580  -28.8090   21.2490 H   0  0  0  0  0  0  0  0  0  0  0  0
  -18.7600  -26.4900   22.0660 C   0  0  0  0  0  0  0  0  0  0  0  0
  -21.2070  -27.1600   22.5600 C   0  0  0  0  0  3  0  0  0  0  0  0
  -21.5980  -25.8120   21.9110 C   0  0  0  0  0  2  0  0  0  0  0  0
  -20.6440  -25.3800   20.7930 C   0  0  0  0  0  2  0  0  0  0  0  0
  -19.2160  -25.2410   21.3280 C   0  0  0  0  0  2  0  0  0  0  0  0
  -19.6950  -27.3980   22.6280 C   0  0  0  0  0  0  0  0  0  0  0  0
  -19.2180  -28.5620   23.2720 C   0  0  0  0  0  3  0  0  0  0  0  0
  -17.8370  -28.8220   23.3590 C   0  0  0  0  0  3  0  0  0  0  0  0
  -16.9160  -27.9120   22.8130 C   0  0  0  0  0  3  0  0  0  0  0  0
  -17.3770  -26.7470   22.1730 C   0  0  0  0  0  3  0  0  0  0  0  0
  -25.7240  -32.0330   23.8560 C   0  0  0  0  0  3  0  0  0  0  0  0
  -25.2420  -33.3950   24.1180 N   0  0  0  0  0  0  0  0  0  0  0  0
  -25.5380  -34.4650   23.3660 C   0  0  0  0  0  0  0  0  0  0  0  0
  -26.3150  -34.4140   22.4070 O   0  0  0  0  0  0  0  0  0  0  0  0
  -24.5590  -33.4990   24.8540 H   0  0  0  0  0  0  0  0  0  0  0  0
  -23.6630  -36.0470   22.8120 C   0  0  0  0  0  1  0  0  0  0  0  0
  -24.8680  -35.8010   23.7350 C   0  0  0  0  0  3  0  0  0  0  0  0
  -26.8150  -36.9360   24.7110 C   0  0  0  0  0  1  0  0  0  0  0  0
  -25.7880  -36.9590   23.6710 N   0  0  0  0  0  0  0  0  0  0  0  0
  -25.2760  -37.8340   23.7520 H   0  0  0  0  0  0  0  0  0  0  0  0
  -26.1750  -31.3320   25.1960 C   0  0  1  0  0  0  0  0  0  0  0  0
  -25.0030  -30.9700   26.1370 C   0  0  0  0  0  1  0  0  0  0  0  0
  -26.9590  -30.0320   24.8970 C   0  0  0  0  0  1  0  0  0  0  0  0
  -27.1470  -32.2570   25.9680 C   0  0  0  0  0  1  0  0  0  0  0  0
  -32.1780  -18.2050   20.6890 C   0  0  0  0  0  3  0  0  0  0  0  0
  -33.2790  -18.7010   19.7230 C   0  0  0  0  0  2  0  0  0  0  0  0
  -34.4180  -19.4890   20.4000 C   0  0  0  0  0  2  0  0  0  0  0  0
  -35.5260  -19.7700   19.4680 N   0  0  0  0  0  4  0  0  0  0  0  0
  -35.9130  -18.9150   19.1070 H   0  0  0  0  0  0  0  0  0  0  0  0
  -36.2610  -20.2620   19.9450 H   0  0  0  0  0  0  0  0  0  0  0  0
  -35.2250  -20.3350   18.6940 H   0  0  0  0  0  0  0  0  0  0  0  0
  -31.2520  -17.1700   19.9930 C   0  0  0  0  0  2  0  0  0  0  0  0
  -31.8900  -14.8130   20.4930 C   0  0  0  0  0  0  0  0  0  0  0  0
  -31.6170  -12.5170   19.6610 C   0  0  0  0  0  2  0  0  0  0  0  0
  -30.7200  -12.5850   18.4060 C   0  0  0  0  0  2  0  0  0  0  0  0
  -29.2300  -12.5220   18.7960 C   0  0  0  0  0  2  0  0  0  0  0  0
  -28.8640  -13.5200   19.9260 C   0  0  0  0  0  3  0  0  0  0  0  0
  -29.8760  -13.4270   21.0940 C   0  0  0  0  0  2  0  0  0  0  0  0
  -31.2280  -13.6280   20.5440 N   0  0  0  0  0  0  0  0  0  0  0  0
  -33.0370  -14.9330   20.0540 O   0  0  0  0  0  0  0  0  0  0  0  0
  -31.1150  -15.8890   20.7000 N   0  0  0  0  0  0  0  0  0  0  0  0
  -30.2050  -15.6940   21.0920 H   0  0  0  0  0  0  0  0  0  0  0  0
  -26.5260  -14.2800   20.6940 C   0  0  0  0  0  0  0  0  0  0  0  0
  -25.3900  -13.5770   20.9970 C   0  0  0  0  0  0  0  0  0  0  0  0
  -25.7260  -12.1980   20.8410 C   0  0  0  0  0  0  0  0  0  0  0  0
  -27.4880  -13.3320   20.3810 N   0  0  0  0  0  0  0  0  0  0  0  0
  -27.0090  -12.0700   20.5250 N   0  0  0  0  0  0  0  0  0  0  0  0
  -24.8880  -10.9950   20.9180 C   0  0  0  0  0  0  0  0  0  0  0  0
  -25.2210   -9.9150   21.7650 C   0  0  0  0  0  3  0  0  0  0  0  0
  -24.3890   -8.7770   21.8340 C   0  0  0  0  0  3  0  0  0  0  0  0
  -23.2100   -8.7120   21.0560 C   0  0  0  0  0  0  0  0  0  0  0  0
  -22.8950   -9.7790   20.1960 C   0  0  0  0  0  3  0  0  0  0  0  0
  -23.7270  -10.9100   20.1240 C   0  0  0  0  0  3  0  0  0  0  0  0
  -22.3560   -7.6360   21.0380 O   0  0  0  0  0  0  0  0  0  0  0  0
  -22.0120   -6.9730   22.1890 C   0  0  0  0  0  0  0  0  0  0  0  0
  -21.3760   -7.6280   23.2650 C   0  0  0  0  0  3  0  0  0  0  0  0
  -20.9780   -6.8960   24.4010 C   0  0  0  0  0  3  0  0  0  0  0  0
  -21.2050   -5.5070   24.4590 C   0  0  0  0  0  0  0  0  0  0  0  0
  -21.8320   -4.8520   23.3850 C   0  0  0  0  0  3  0  0  0  0  0  0
  -22.2320   -5.5820   22.2520 C   0  0  0  0  0  0  0  0  0  0  0  0
  -22.8170   -4.9420   21.2110 F   0  0  0  0  0  0  0  0  0  0  0  0
  -20.8150   -4.8000   25.5450 F   0  0  0  0  0  0  0  0  0  0  0  0
  -24.0410  -14.1540   21.3170 C   0  0  0  0  0  0  0  0  0  0  0  0
  -23.2830  -13.4900   22.1830 N   0  0  0  0  0  0  0  0  0  0  0  0
  -23.6720  -15.2250   20.8370 O   0  0  0  0  0  0  0  0  0  0  0  0
  -23.5940  -12.6200   22.5910 H   0  0  0  0  0  0  0  0  0  0  0  0
  -22.3790  -13.8580   22.4430 H   0  0  0  0  0  0  0  0  0  0  0  0
  -26.8150  -15.6410   20.6400 N   0  0  0  0  0  0  0  0  0  0  0  0
  -26.1100  -16.3510   20.8120 H   0  0  0  0  0  0  0  0  0  0  0  0
  -27.7010  -16.0290   20.3410 H   0  0  0  0  0  0  0  0  0  0  0  0
  2  1  1  0
  3  1  2  0
  4  2  2  0
  5  6  2  0
  5  4  1  0
  6  3  1  0
  7  8  1  0
  7  5  1  0
  8  9  1  0
  8  4  1  0
  9 10  1  0
  9 11  1  0
 12 13  1  0
 12  9  1  0
 14 13  1  0
 15 26  2  0
 16 14  1  0
 16 21  1  0
 17 25  1  0
 17 27  1  0
 18 24  1  0
 18 20  1  0
 19 25  1  0
 20 19  1  0
 21 20  2  0
 22 16  2  0
 23 22  1  0
 23 18  2  0
 24 17  1  0
 25 15  1  0
 27 29  2  0
 28 27  1  0
 30 28  1  0
 31 40  2  0
 31 36  1  0
 32 28  1  0
 32 36  1  0
 33 32  1  0
 34 35  1  0
 34 33  1  0
 35 31  1  0
 36 37  2  0
 37 38  1  0
 39 38  2  0
 40 39  1  0
 41 15  1  0
 41 42  1  0
 41 51  1  0
 42 45  1  0
 43 47  1  0
 43 42  1  0
 44 43  2  0
 47 46  1  0
 49 47  1  0
 49 50  1  0
 49 48  1  0
 51 54  1  1
 51 52  1  0
 53 51  1  0
 55 56  1  0
 55  6  1  0
 56 57  1  0
 58 60  1  0
 58 57  1  0
 59 58  1  0
 61 58  1  0
 62 55  1  0
 62 71  1  0
 63 69  1  0
 63 71  1  0
 64 69  1  0
 65 66  1  0
 65 64  1  0
 67 66  1  0
 67 76  1  0
 67 68  1  0
 69 68  1  0
 70 63  2  0
 71 72  1  0
 73 74  2  0
 74 93  1  0
 75 78  1  0
 75 74  1  0
 76 77  1  0
 76 73  1  0
 77 75  2  0
 78 79  1  0
 79 80  2  0
 81 80  1  0
 82 81  2  0
 83 82  1  0
 83 78  2  0
 84 81  1  0
 84 85  1  0
 85 90  2  0
 85 86  1  0
 86 87  2  0
 87 88  1  0
 88 92  1  0
 89 88  2  0
 90 89  1  0
 91 90  1  0
 93 94  1  0
 94 97  1  0
 94 96  1  0
 95 93  2  0
 98 73  1  0
 98 99  1  0
100 98  1  0
M  ISO  4  13 101  14 101  63 100  71 100
M  END
>  <TORSDO>  (70) 
F 24

>  <SCORE>  (70) 
-8.620

>  <name>  (70) 
69

>  <ligand_id>  (70) 
69

>  <original_smiles>  (70) 
[H]c1c([H])c([H])c2c(c1[H])C([H])([H])C([H])([H])C([H])([H])C2([H])N([H])C(=O)C1([H])N(C(=O)C([H])(N([H])C(=O)C([H])(N([H])C([H])([H])[H])C([H])([H])[H])C(C([H])([H])[H])(C([H])([H])[H])C([H])([H])[H])C([H])([H])c2c([H])c(OC([H])([H])C([H])([H])[N+]([H])([H])C3([H])c4c([H])c([H])c([H])c(C([H])(C([H])([H])N([H])C(=O)N5C([H])([H])C([H])([H])C([H])([H])C([H])(n6nc(-c7c([H])c([H])c(Oc8c([H])c([H])c(F)c([H])c8F)c([H])c7[H])c(C(=O)N([H])[H])c6N([H])[H])C5([H])[H])C([H])([H])C([H])([H])[N+]([H])([H])[H])c4C3([H])[H])c([H])c([H])c2C1([H])[H]

>  <smiles>  (70) 
[H]c1c([H])c([H])c2c(c1[H])C([H])([H])C([H])([H])C([H])([H])C2([H])N([H])C(=O)C1([H])N(C(=O)C([H])(N([H])C(=O)C([H])(N([H])C([H])([H])[H])C([H])([H])[H])C(C([H])([H])[H])(C([H])([H])[H])C([H])([H])[H])C([H])([H])c2c([H])c(OC([H])([H])C([H])([H])[N+]([H])([H])C3([H])c4c([H])c([H])c([H])c(C([H])(C([H])([H])N([H])C(=O)N5C([H])([H])C([H])([H])C([H])([H])C([H])(n6nc(-c7c([H])c([H])c(Oc8c([H])c([H])c(F)c([H])c8F)c([H])c7[H])c(C(=O)N([H])[H])c6N([H])[H])C5([H])[H])C([H])([H])C([H])([H])[N+]([H])([H])[H])c4C3([H])[H])c([H])c([H])c2C1([H])[H]

$$$$
70:0:0
     RDKit          3D

 91100  0  0  1  0  0  0  0  0999 V2000
  -28.6790  -23.8210   19.6900 C   0  0  0  0  0  0  0  0  0  0  0  0
  -28.6630  -21.5420   21.1420 C   0  0  0  0  0  2  0  0  0  0  0  0
  -29.2980  -21.4370   18.9620 C   0  0  0  0  0  2  0  0  0  0  0  0
  -28.5220  -20.0070   20.7560 C   0  0  0  0  0  3  0  0  0  0  0  0
  -28.8670  -19.9890   19.3210 C   0  0  0  0  0  3  0  0  0  0  0  0
  -29.5640  -18.9130   20.2240 C   0  0  0  0  0  3  0  0  0  0  0  0
  -28.8600  -22.4440   19.9650 N   0  0  0  0  0  0  0  0  0  0  0  0
  -28.8820  -24.2040   18.5310 O   0  0  0  0  0  0  0  0  0  0  0  0
  -29.1740  -24.9770   21.9250 C   0  0  0  0  0  1  0  0  0  0  0  0
  -28.2380  -25.0020   20.7020 C   0  0  0  0  0  3  0  0  0  0  0  0
  -28.3290  -26.4390   20.1860 O   0  0  0  0  0  0  0  0  0  0  0  0
  -24.5930  -31.9360   23.2280 C   0  0  0  0  0  0  0  0  0  0  0  0
  -27.2150  -27.3180   20.1980 C   0  0  0  0  0  0  0  0  0  0  0  0
  -23.3940  -30.5300   21.5920 C   0  0  0  0  0  3  0  0  0  0  0  0
  -24.8510  -28.9670   20.1680 C   0  0  0  0  0  0  0  0  0  0  0  0
  -25.9370  -30.8420   21.4050 C   0  0  0  0  0  2  0  0  0  0  0  0
  -26.0210  -29.4550   20.7640 C   0  0  0  0  0  0  0  0  0  0  0  0
  -27.2070  -28.6470   20.7580 C   0  0  0  0  0  3  0  0  0  0  0  0
  -26.0170  -26.8980   19.5810 C   0  0  0  0  0  3  0  0  0  0  0  0
  -24.8540  -27.6980   19.5630 C   0  0  0  0  0  3  0  0  0  0  0  0
  -23.6090  -29.8400   20.2170 C   0  0  0  0  0  2  0  0  0  0  0  0
  -24.6620  -31.1250   22.1310 N   0  0  0  0  0  0  0  0  0  0  0  0
  -23.5060  -32.2130   23.7620 O   0  0  0  0  0  0  0  0  0  0  0  0
  -22.7330  -29.5190   22.5570 C   0  0  0  0  0  0  0  0  0  0  0  0
  -21.4070  -29.3330   22.4320 N   0  0  0  0  0  0  0  0  0  0  0  0
  -23.4140  -28.8980   23.3750 O   0  0  0  0  0  0  0  0  0  0  0  0
  -20.9140  -29.9120   21.7680 H   0  0  0  0  0  0  0  0  0  0  0  0
  -18.0460  -28.0570   22.9050 C   0  0  0  0  0  0  0  0  0  0  0  0
  -20.5980  -28.3720   23.1850 C   0  0  0  0  0  3  0  0  0  0  0  0
  -20.7370  -26.9460   22.6020 C   0  0  0  0  0  2  0  0  0  0  0  0
  -19.6360  -26.5710   21.6040 C   0  0  0  0  0  2  0  0  0  0  0  0
  -18.2500  -26.7050   22.2380 C   0  0  0  0  0  2  0  0  0  0  0  0
  -19.1460  -28.8490   23.3320 C   0  0  0  0  0  0  0  0  0  0  0  0
  -18.8960  -30.1120   23.9100 C   0  0  0  0  0  3  0  0  0  0  0  0
  -17.5790  -30.5900   24.0560 C   0  0  0  0  0  3  0  0  0  0  0  0
  -16.4950  -29.7980   23.6380 C   0  0  0  0  0  3  0  0  0  0  0  0
  -16.7290  -28.5280   23.0800 C   0  0  0  0  0  3  0  0  0  0  0  0
  -25.8690  -32.5810   23.8530 C   0  0  0  0  0  3  0  0  0  0  0  0
  -25.5520  -33.9800   24.1730 N   0  0  0  0  0  0  0  0  0  0  0  0
  -25.8950  -35.0320   23.4150 C   0  0  0  0  0  0  0  0  0  0  0  0
  -26.5740  -34.9220   22.3900 O   0  0  0  0  0  0  0  0  0  0  0  0
  -24.9410  -34.1350   24.9620 H   0  0  0  0  0  0  0  0  0  0  0  0
  -24.1870  -36.8390   23.0190 C   0  0  0  0  0  1  0  0  0  0  0  0
  -25.4040  -36.4230   23.8630 C   0  0  0  0  0  3  0  0  0  0  0  0
  -27.5180  -37.2980   24.7510 C   0  0  0  0  0  1  0  0  0  0  0  0
  -26.4470  -37.4710   23.7740 N   0  0  0  0  0  0  0  0  0  0  0  0
  -26.0450  -38.3950   23.9050 H   0  0  0  0  0  0  0  0  0  0  0  0
  -26.3780  -31.8250   25.1420 C   0  0  1  0  0  0  0  0  0  0  0  0
  -25.2780  -31.5970   26.2070 C   0  0  0  0  0  1  0  0  0  0  0  0
  -26.9690  -30.4480   24.7660 C   0  0  0  0  0  1  0  0  0  0  0  0
  -27.5210  -32.6340   25.8010 C   0  0  0  0  0  1  0  0  0  0  0  0
  -29.4350  -17.0700   18.3370 C   0  0  0  0  0  1  0  0  0  0  0  0
  -29.2860  -17.3330   19.8560 C   0  0  0  0  0  0  0  0  0  0  0  0
  -30.5690  -14.9640   20.3540 C   0  0  0  0  0  0  0  0  0  0  0  0
  -30.5060  -12.6400   19.4170 C   0  0  0  0  0  2  0  0  0  0  0  0
  -29.5800  -12.6750   18.1750 C   0  0  0  0  0  2  0  0  0  0  0  0
  -28.1070  -12.4750   18.5860 C   0  0  0  0  0  2  0  0  0  0  0  0
  -27.7040  -13.3510   19.8010 C   0  0  0  0  0  3  0  0  0  0  0  0
  -28.7490  -13.2830   20.9350 C   0  0  0  0  0  2  0  0  0  0  0  0
  -30.0410  -13.6850   20.3670 N   0  0  0  0  0  0  0  0  0  0  0  0
  -31.7200  -15.1270   19.9380 O   0  0  0  0  0  0  0  0  0  0  0  0
  -29.7110  -16.0430   20.6240 N   0  0  0  0  0  4  0  0  0  0  0  0
  -28.9630  -15.7400   21.2310 H   0  0  0  0  0  0  0  0  0  0  0  0
  -25.3020  -13.9040   20.5010 C   0  0  0  0  0  0  0  0  0  0  0  0
  -24.2470  -13.1150   20.8690 C   0  0  0  0  0  0  0  0  0  0  0  0
  -24.7300  -11.7710   20.8430 C   0  0  0  0  0  0  0  0  0  0  0  0
  -26.3630  -13.0420   20.2770 N   0  0  0  0  0  0  0  0  0  0  0  0
  -26.0230  -11.7540   20.5450 N   0  0  0  0  0  0  0  0  0  0  0  0
  -24.0200  -10.5000   21.0290 C   0  0  0  0  0  0  0  0  0  0  0  0
  -24.4440   -9.5460   21.9810 C   0  0  0  0  0  3  0  0  0  0  0  0
  -23.7290   -8.3410   22.1570 C   0  0  0  0  0  3  0  0  0  0  0  0
  -22.5760   -8.0810   21.3780 C   0  0  0  0  0  0  0  0  0  0  0  0
  -22.1710   -9.0250   20.4170 C   0  0  0  0  0  3  0  0  0  0  0  0
  -22.8880  -10.2190   20.2400 C   0  0  0  0  0  3  0  0  0  0  0  0
  -21.8370   -6.9250   21.4600 O   0  0  0  0  0  0  0  0  0  0  0  0
  -21.7580   -6.2020   22.6230 C   0  0  0  0  0  0  0  0  0  0  0  0
  -21.2500   -6.7620   23.8160 C   0  0  0  0  0  3  0  0  0  0  0  0
  -21.1210   -5.9630   24.9690 C   0  0  0  0  0  3  0  0  0  0  0  0
  -21.4910   -4.6060   24.9310 C   0  0  0  0  0  0  0  0  0  0  0  0
  -21.9920   -4.0440   23.7440 C   0  0  0  0  0  3  0  0  0  0  0  0
  -22.1220   -4.8400   22.5910 C   0  0  0  0  0  0  0  0  0  0  0  0
  -22.5850   -4.2900   21.4430 F   0  0  0  0  0  0  0  0  0  0  0  0
  -21.3590   -3.8370   26.0370 F   0  0  0  0  0  0  0  0  0  0  0  0
  -22.8420  -13.5760   21.1260 C   0  0  0  0  0  0  0  0  0  0  0  0
  -22.1120  -12.8680   21.9820 N   0  0  0  0  0  0  0  0  0  0  0  0
  -22.3970  -14.5970   20.6050 O   0  0  0  0  0  0  0  0  0  0  0  0
  -22.4910  -12.0430   22.4260 H   0  0  0  0  0  0  0  0  0  0  0  0
  -21.1700  -13.1550   22.2000 H   0  0  0  0  0  0  0  0  0  0  0  0
  -25.4400  -15.2760   20.3150 N   0  0  0  0  0  0  0  0  0  0  0  0
  -24.6390  -15.8960   20.3830 H   0  0  0  0  0  0  0  0  0  0  0  0
  -26.2560  -15.7240   19.9170 H   0  0  0  0  0  0  0  0  0  0  0  0
  1  7  1  0
  1 10  1  0
  3  7  1  0
  4  2  1  0
  5  3  1  0
  5  6  1  0
  5  4  1  0
  6 53  1  0
  6  4  1  0
  7  2  1  0
  8  1  2  0
 10  9  1  0
 11 13  1  0
 11 10  1  0
 12 23  2  0
 13 18  1  0
 14 22  1  0
 14 24  1  0
 15 21  1  0
 15 17  1  0
 16 22  1  0
 17 16  1  0
 18 17  2  0
 19 13  2  0
 20 19  1  0
 20 15  2  0
 21 14  1  0
 22 12  1  0
 24 26  2  0
 25 24  1  0
 27 25  1  0
 28 37  2  0
 28 33  1  0
 29 25  1  0
 29 33  1  0
 30 29  1  0
 31 32  1  0
 31 30  1  0
 32 28  1  0
 33 34  2  0
 34 35  1  0
 36 35  2  0
 37 36  1  0
 38 12  1  0
 38 39  1  0
 38 48  1  0
 39 42  1  0
 40 44  1  0
 40 39  1  0
 41 40  2  0
 44 43  1  0
 46 44  1  0
 46 47  1  0
 46 45  1  0
 48 51  1  1
 48 49  1  0
 50 48  1  0
 52 53  1  0
 53 62  2  3
 54 60  1  0
 54 62  1  0
 55 60  1  0
 56 57  1  0
 56 55  1  0
 58 57  1  0
 58 67  1  0
 58 59  1  0
 60 59  1  0
 61 54  2  0
 62 63  1  0
 64 65  2  0
 65 84  1  0
 66 65  1  0
 66 69  1  0
 67 64  1  0
 67 68  1  0
 68 66  2  0
 69 70  1  0
 70 71  2  0
 72 75  1  0
 72 71  1  0
 73 72  2  0
 74 73  1  0
 74 69  2  0
 75 76  1  0
 76 77  1  0
 77 78  2  0
 79 78  1  0
 79 83  1  0
 80 79  2  0
 81 76  2  0
 81 80  1  0
 82 81  1  0
 84 85  1  0
 85 88  1  0
 85 87  1  0
 86 84  2  0
 89 90  1  0
 89 64  1  0
 91 89  1  0
M  ISO  4  10 101  11 101  54 100  62 100
M  END
>  <TORSDO>  (71) 
F 18

>  <SCORE>  (71) 
-14.482

>  <name>  (71) 
70

>  <ligand_id>  (71) 
70

>  <original_smiles>  (71) 
[H]c1c([H])c([H])c2c(c1[H])C([H])([H])C([H])([H])C([H])([H])C2([H])N([H])C(=O)C1([H])N(C(=O)C([H])(N([H])C(=O)C([H])(N([H])C([H])([H])[H])C([H])([H])[H])C(C([H])([H])[H])(C([H])([H])[H])C([H])([H])[H])C([H])([H])c2c([H])c(OC([H])(C(=O)N3C([H])([H])C4([H])C([H])(C3([H])[H])C4([H])C([H])(N([H])C(=O)N3C([H])([H])C([H])([H])C([H])([H])C([H])(n4nc(-c5c([H])c([H])c(Oc6c([H])c([H])c(F)c([H])c6F)c([H])c5[H])c(C(=O)N([H])[H])c4N([H])[H])C3([H])[H])C([H])([H])[H])C([H])([H])[H])c([H])c([H])c2C1([H])[H]

>  <smiles>  (71) 
[H]c1c([H])c([H])c2c(c1[H])C([H])([H])C([H])([H])C([H])([H])C2([H])N([H])C(=O)C1([H])N(C(=O)C([H])(N([H])C(=O)C([H])(N([H])C([H])([H])[H])C([H])([H])[H])C(C([H])([H])[H])(C([H])([H])[H])C([H])([H])[H])C([H])([H])c2c([H])c(OC([H])(C(=O)N3C([H])([H])C4([H])C([H])(C3([H])[H])C4([H])C([H])(N([H])C(=O)N3C([H])([H])C([H])([H])C([H])([H])C([H])(n4nc(-c5c([H])c([H])c(Oc6c([H])c([H])c(F)c([H])c6F)c([H])c5[H])c(C(=O)N([H])[H])c4N([H])[H])C3([H])[H])C([H])([H])[H])C([H])([H])[H])c([H])c([H])c2C1([H])[H]

$$$$
71:0:0
     RDKit          3D

 94102  0  0  1  0  0  0  0  0999 V2000
  -30.9330  -22.1960   21.6340 C   0  0  0  0  0  2  0  0  0  0  0  0
  -30.1930  -19.9960   20.7590 C   0  0  0  0  0  0  0  0  0  0  0  0
  -31.0260  -20.7480   21.4860 N   0  0  0  0  0  0  0  0  0  0  0  0
  -29.1460  -20.4410   20.2810 O   0  0  0  0  0  0  0  0  0  0  0  0
  -31.8500  -20.2980   21.8670 H   0  0  0  0  0  0  0  0  0  0  0  0
  -29.6940  -17.6320   19.8820 C   0  0  0  0  0  2  0  0  0  0  0  0
  -30.6570  -18.5980   20.5440 C   0  0  0  0  0  3  0  0  0  0  0  0
  -30.0080  -17.4960   21.3550 C   0  0  0  0  0  3  0  0  0  0  0  0
  -30.8650  -16.3550   21.8800 C   0  0  0  0  0  2  0  0  0  0  0  0
  -30.7920  -14.3420   20.4120 C   0  0  0  0  0  0  0  0  0  0  0  0
  -30.3790  -12.3210   19.0600 C   0  0  0  0  0  2  0  0  0  0  0  0
  -29.4080  -12.5980   17.8970 C   0  0  0  0  0  2  0  0  0  0  0  0
  -27.9490  -12.4420   18.3620 C   0  0  0  0  0  2  0  0  0  0  0  0
  -27.6560  -13.2530   19.6500 C   0  0  0  0  0  3  0  0  0  0  0  0
  -28.7180  -12.9550   20.7290 C   0  0  0  0  0  2  0  0  0  0  0  0
  -30.0570  -13.2300   20.1680 N   0  0  0  0  0  0  0  0  0  0  0  0
  -31.7610  -14.6880   19.7270 O   0  0  0  0  0  0  0  0  0  0  0  0
  -30.4010  -15.0300   21.4910 N   0  0  0  0  0  0  0  0  0  0  0  0
  -29.6430  -14.6290   22.0240 H   0  0  0  0  0  0  0  0  0  0  0  0
  -25.2760  -13.8890   20.4040 C   0  0  0  0  0  0  0  0  0  0  0  0
  -24.2060  -13.1290   20.7980 C   0  0  0  0  0  0  0  0  0  0  0  0
  -24.6540  -11.7720   20.7570 C   0  0  0  0  0  0  0  0  0  0  0  0
  -26.3060  -12.9980   20.1500 N   0  0  0  0  0  0  0  0  0  0  0  0
  -25.9360  -11.7200   20.4200 N   0  0  0  0  0  0  0  0  0  0  0  0
  -23.9200  -10.5160   20.9640 C   0  0  0  0  0  0  0  0  0  0  0  0
  -24.3640   -9.5510   21.8950 C   0  0  0  0  0  3  0  0  0  0  0  0
  -23.6360   -8.3570   22.0890 C   0  0  0  0  0  3  0  0  0  0  0  0
  -22.4510   -8.1210   21.3530 C   0  0  0  0  0  0  0  0  0  0  0  0
  -22.0270   -9.0740   20.4120 C   0  0  0  0  0  3  0  0  0  0  0  0
  -22.7530  -10.2610   20.2160 C   0  0  0  0  0  3  0  0  0  0  0  0
  -21.6950   -6.9790   21.4570 O   0  0  0  0  0  0  0  0  0  0  0  0
  -21.6550   -6.2430   22.6130 C   0  0  0  0  0  0  0  0  0  0  0  0
  -21.2570   -6.8100   23.8440 C   0  0  0  0  0  3  0  0  0  0  0  0
  -21.1640   -6.0020   24.9940 C   0  0  0  0  0  3  0  0  0  0  0  0
  -21.4580   -4.6270   24.9140 C   0  0  0  0  0  0  0  0  0  0  0  0
  -21.8480   -4.0600   23.6890 C   0  0  0  0  0  3  0  0  0  0  0  0
  -21.9450   -4.8650   22.5410 C   0  0  0  0  0  0  0  0  0  0  0  0
  -22.3020   -4.3100   21.3590 F   0  0  0  0  0  0  0  0  0  0  0  0
  -21.3610   -3.8490   26.0180 F   0  0  0  0  0  0  0  0  0  0  0  0
  -22.8180  -13.6180   21.1020 C   0  0  0  0  0  0  0  0  0  0  0  0
  -22.1040  -12.9270   21.9840 N   0  0  0  0  0  0  0  0  0  0  0  0
  -22.3760  -14.6470   20.5940 O   0  0  0  0  0  0  0  0  0  0  0  0
  -22.4730  -12.0950   22.4210 H   0  0  0  0  0  0  0  0  0  0  0  0
  -21.1730  -13.2340   22.2280 H   0  0  0  0  0  0  0  0  0  0  0  0
  -25.4600  -15.2570   20.2200 N   0  0  0  0  0  0  0  0  0  0  0  0
  -24.7150  -15.9360   20.3340 H   0  0  0  0  0  0  0  0  0  0  0  0
  -26.3260  -15.6680   19.8980 H   0  0  0  0  0  0  0  0  0  0  0  0
  -29.7090  -22.6570   22.4520 C   0  0  0  0  0  2  0  0  0  0  0  0
  -29.6040  -24.1310   22.5030 N   0  0  0  0  0  4  0  0  0  0  0  0
  -30.5040  -24.5120   22.7570 H   0  0  0  0  0  0  0  0  0  0  0  0
  -28.9660  -24.3550   23.2530 H   0  0  0  0  0  0  0  0  0  0  0  0
  -29.1100  -24.7580   21.2500 C   0  0  0  0  0  2  0  0  0  0  0  0
  -28.9190  -26.2800   21.3680 C   0  0  0  0  0  2  0  0  0  0  0  0
  -28.4200  -26.7400   20.1150 O   0  0  0  0  0  0  0  0  0  0  0  0
  -24.5840  -31.8820   23.2360 C   0  0  0  0  0  0  0  0  0  0  0  0
  -27.2590  -27.4700   20.1710 C   0  0  0  0  0  0  0  0  0  0  0  0
  -23.3890  -30.4750   21.5880 C   0  0  0  0  0  3  0  0  0  0  0  0
  -24.8550  -28.9380   20.1750 C   0  0  0  0  0  0  0  0  0  0  0  0
  -25.9110  -30.8460   21.4010 C   0  0  0  0  0  2  0  0  0  0  0  0
  -26.0030  -29.4740   20.7730 C   0  0  0  0  0  0  0  0  0  0  0  0
  -27.2090  -28.7430   20.7770 C   0  0  0  0  0  3  0  0  0  0  0  0
  -26.1010  -26.9400   19.5690 C   0  0  0  0  0  3  0  0  0  0  0  0
  -24.8950  -27.6670   19.5750 C   0  0  0  0  0  3  0  0  0  0  0  0
  -23.6070  -29.7890   20.2120 C   0  0  0  0  0  2  0  0  0  0  0  0
  -24.6470  -31.0810   22.1350 N   0  0  0  0  0  0  0  0  0  0  0  0
  -23.5000  -32.1540   23.7700 O   0  0  0  0  0  0  0  0  0  0  0  0
  -22.7350  -29.4540   22.5470 C   0  0  0  0  0  0  0  0  0  0  0  0
  -21.4110  -29.2710   22.4120 N   0  0  0  0  0  0  0  0  0  0  0  0
  -23.4150  -28.8290   23.3630 O   0  0  0  0  0  0  0  0  0  0  0  0
  -20.9250  -29.8290   21.7230 H   0  0  0  0  0  0  0  0  0  0  0  0
  -18.0310  -28.0880   22.8970 C   0  0  0  0  0  0  0  0  0  0  0  0
  -20.5900  -28.3340   23.1770 C   0  0  0  0  0  3  0  0  0  0  0  0
  -20.6890  -26.9050   22.5960 C   0  0  0  0  0  2  0  0  0  0  0  0
  -19.5890  -26.5890   21.5780 C   0  0  0  0  0  2  0  0  0  0  0  0
  -18.2060  -26.7390   22.2180 C   0  0  0  0  0  2  0  0  0  0  0  0
  -19.1520  -28.8450   23.3320 C   0  0  0  0  0  0  0  0  0  0  0  0
  -18.9350  -30.1090   23.9220 C   0  0  0  0  0  3  0  0  0  0  0  0
  -17.6320  -30.6140   24.0830 C   0  0  0  0  0  3  0  0  0  0  0  0
  -16.5270  -29.8540   23.6630 C   0  0  0  0  0  3  0  0  0  0  0  0
  -16.7270  -28.5920   23.0760 C   0  0  0  0  0  3  0  0  0  0  0  0
  -25.8670  -32.5130   23.8630 C   0  0  0  0  0  3  0  0  0  0  0  0
  -25.5600  -33.9110   24.1890 N   0  0  0  0  0  0  0  0  0  0  0  0
  -25.8990  -34.9610   23.4300 C   0  0  0  0  0  0  0  0  0  0  0  0
  -26.5740  -34.8560   22.4020 O   0  0  0  0  0  0  0  0  0  0  0  0
  -24.9660  -34.0710   24.9910 H   0  0  0  0  0  0  0  0  0  0  0  0
  -24.1740  -36.7520   23.0540 C   0  0  0  0  0  1  0  0  0  0  0  0
  -25.4070  -36.3510   23.8780 C   0  0  0  0  0  3  0  0  0  0  0  0
  -27.5360  -37.2330   24.7250 C   0  0  0  0  0  1  0  0  0  0  0  0
  -26.4420  -37.4030   23.7730 N   0  0  0  0  0  0  0  0  0  0  0  0
  -26.0360  -38.3230   23.9170 H   0  0  0  0  0  0  0  0  0  0  0  0
  -26.3800  -31.7400   25.1400 C   0  0  1  0  0  0  0  0  0  0  0  0
  -25.2850  -31.5000   26.2030 C   0  0  0  0  0  1  0  0  0  0  0  0
  -26.9650  -30.3650   24.7450 C   0  0  0  0  0  1  0  0  0  0  0  0
  -27.5280  -32.5350   25.8070 C   0  0  0  0  0  1  0  0  0  0  0  0
  1 48  1  0
  2  3  1  0
  3  1  1  0
  3  5  1  0
  4  2  2  0
  6  7  1  0
  6  8  1  0
  7  2  1  0
  7  8  1  0
  8  9  1  0
 10 18  1  0
 11 16  1  0
 12 13  1  0
 12 11  1  0
 14 13  1  0
 14 23  1  0
 14 15  1  0
 16 10  1  0
 16 15  1  0
 17 10  2  0
 18  9  1  0
 18 19  1  0
 20 21  2  0
 21 40  1  0
 22 21  1  0
 22 25  1  0
 23 20  1  0
 23 24  1  0
 24 22  2  0
 25 26  1  0
 26 27  2  0
 28 31  1  0
 28 27  1  0
 29 28  2  0
 30 29  1  0
 30 25  2  0
 31 32  1  0
 32 33  1  0
 33 34  2  0
 35 34  1  0
 35 39  1  0
 36 35  2  0
 37 32  2  0
 37 36  1  0
 38 37  1  0
 40 41  1  0
 41 44  1  0
 41 43  1  0
 42 40  2  0
 45 46  1  0
 45 20  1  0
 47 45  1  0
 48 49  1  0
 49 50  1  0
 49 51  1  0
 52 53  1  0
 52 49  1  0
 54 56  1  0
 54 53  1  0
 55 66  2  0
 56 61  1  0
 57 65  1  0
 57 67  1  0
 58 64  1  0
 58 60  1  0
 59 65  1  0
 60 61  2  0
 60 59  1  0
 62 63  1  0
 62 56  2  0
 63 58  2  0
 64 57  1  0
 65 55  1  0
 67 69  2  0
 68 67  1  0
 70 68  1  0
 71 80  2  0
 71 76  1  0
 72 68  1  0
 72 76  1  0
 73 72  1  0
 74 75  1  0
 74 73  1  0
 75 71  1  0
 76 77  2  0
 77 78  1  0
 79 78  2  0
 80 79  1  0
 81 55  1  0
 81 82  1  0
 81 91  1  0
 82 85  1  0
 83 87  1  0
 83 82  1  0
 84 83  2  0
 87 86  1  0
 89 87  1  0
 89 90  1  0
 89 88  1  0
 91 94  1  1
 91 92  1  0
 93 91  1  0
M  ISO  4  10 100  18 100  53 101  54 101
M  END
>  <TORSDO>  (72) 
F 23

>  <SCORE>  (72) 
-13.170

>  <name>  (72) 
71

>  <ligand_id>  (72) 
71

>  <original_smiles>  (72) 
[H]c1c([H])c([H])c2c(c1[H])C([H])([H])C([H])([H])C([H])([H])C2([H])N([H])C(=O)C1([H])N(C(=O)C([H])(N([H])C(=O)C([H])(N([H])C([H])([H])[H])C([H])([H])[H])C(C([H])([H])[H])(C([H])([H])[H])C([H])([H])[H])C([H])([H])c2c([H])c(OC([H])([H])C([H])([H])[N+]([H])([H])C([H])([H])C([H])([H])N([H])C(=O)C3([H])C([H])([H])C3([H])C([H])([H])N([H])C(=O)N3C([H])([H])C([H])([H])C([H])([H])C([H])(n4nc(-c5c([H])c([H])c(Oc6c([H])c([H])c(F)c([H])c6F)c([H])c5[H])c(C(=O)N([H])[H])c4N([H])[H])C3([H])[H])c([H])c([H])c2C1([H])[H]

>  <smiles>  (72) 
[H]c1c([H])c([H])c2c(c1[H])C([H])([H])C([H])([H])C([H])([H])C2([H])N([H])C(=O)C1([H])N(C(=O)C([H])(N([H])C(=O)C([H])(N([H])C([H])([H])[H])C([H])([H])[H])C(C([H])([H])[H])(C([H])([H])[H])C([H])([H])[H])C([H])([H])c2c([H])c(OC([H])([H])C([H])([H])[N+]([H])([H])C([H])([H])C([H])([H])N([H])C(=O)C3([H])C([H])([H])C3([H])C([H])([H])N([H])C(=O)N3C([H])([H])C([H])([H])C([H])([H])C([H])(n4nc(-c5c([H])c([H])c(Oc6c([H])c([H])c(F)c([H])c6F)c([H])c5[H])c(C(=O)N([H])[H])c4N([H])[H])C3([H])[H])c([H])c([H])c2C1([H])[H]

$$$$
72:0:0
     RDKit          3D

 90 99  0  0  1  0  0  0  0  0999 V2000
  -28.4620  -20.3890   20.9300 C   0  0  0  0  0  3  0  0  0  0  0  0
  -28.0630  -21.8160   20.9330 C   0  0  0  0  0  3  0  0  0  0  0  0
  -30.0190  -20.8510   19.2990 C   0  0  0  0  0  3  0  0  0  0  0  0
  -29.4890  -19.7610   20.1090 C   0  0  0  0  0  0  0  0  0  0  0  0
  -28.5970  -22.8970   20.1140 C   0  0  0  0  0  0  0  0  0  0  0  0
  -29.6060  -22.2760   19.2750 C   0  0  0  0  0  0  0  0  0  0  0  0
  -30.2030  -23.0650   18.3500 F   0  0  0  0  0  0  0  0  0  0  0  0
  -30.6280  -15.2660   19.8930 C   0  0  0  0  0  0  0  0  0  0  0  0
  -30.5340  -12.8690   18.9360 C   0  0  0  0  0  2  0  0  0  0  0  0
  -29.5150  -12.7070   17.7810 C   0  0  0  0  0  2  0  0  0  0  0  0
  -28.1160  -12.4010   18.3400 C   0  0  0  0  0  2  0  0  0  0  0  0
  -27.7450  -13.3470   19.5100 C   0  0  0  0  0  3  0  0  0  0  0  0
  -28.8750  -13.4540   20.5540 C   0  0  0  0  0  2  0  0  0  0  0  0
  -30.0580  -13.9700   19.8470 N   0  0  0  0  0  0  0  0  0  0  0  0
  -31.7900  -15.3120   19.4670 O   0  0  0  0  0  0  0  0  0  0  0  0
  -29.5970  -16.7000   21.6430 C   0  0  0  0  0  2  0  0  0  0  0  0
  -30.1370  -18.1440   20.1600 C   0  0  0  0  0  3  0  0  0  0  0  0
  -30.6140  -17.8460   21.6060 C   0  0  0  0  0  3  0  0  0  0  0  0
  -30.6320  -18.8760   22.7330 C   0  0  0  0  0  1  0  0  0  0  0  0
  -29.8890  -16.5000   20.2190 N   0  0  0  0  0  0  0  0  0  0  0  0
  -25.4560  -13.8660   20.5100 C   0  0  0  0  0  0  0  0  0  0  0  0
  -24.4290  -13.0660   20.9290 C   0  0  0  0  0  0  0  0  0  0  0  0
  -24.8860  -11.7210   20.7730 C   0  0  0  0  0  0  0  0  0  0  0  0
  -26.4670  -13.0060   20.1170 N   0  0  0  0  0  0  0  0  0  0  0  0
  -26.1420  -11.7080   20.3420 N   0  0  0  0  0  0  0  0  0  0  0  0
  -24.1750  -10.4470   20.9500 C   0  0  0  0  0  0  0  0  0  0  0  0
  -24.6140   -9.4800   21.8810 C   0  0  0  0  0  3  0  0  0  0  0  0
  -23.9000   -8.2740   22.0510 C   0  0  0  0  0  3  0  0  0  0  0  0
  -22.7360   -8.0250   21.2850 C   0  0  0  0  0  0  0  0  0  0  0  0
  -22.3170   -8.9810   20.3430 C   0  0  0  0  0  3  0  0  0  0  0  0
  -23.0310  -10.1780   20.1730 C   0  0  0  0  0  3  0  0  0  0  0  0
  -21.9950   -6.8710   21.3620 O   0  0  0  0  0  0  0  0  0  0  0  0
  -21.8350   -6.1950   22.5460 C   0  0  0  0  0  0  0  0  0  0  0  0
  -21.2630   -6.8100   23.6830 C   0  0  0  0  0  3  0  0  0  0  0  0
  -21.0540   -6.0600   24.8570 C   0  0  0  0  0  3  0  0  0  0  0  0
  -21.4030   -4.6960   24.8950 C   0  0  0  0  0  0  0  0  0  0  0  0
  -21.9680   -4.0830   23.7630 C   0  0  0  0  0  3  0  0  0  0  0  0
  -22.1800   -4.8300   22.5920 C   0  0  0  0  0  0  0  0  0  0  0  0
  -22.7030   -4.2280   21.4960 F   0  0  0  0  0  0  0  0  0  0  0  0
  -21.1950   -3.9740   26.0200 F   0  0  0  0  0  0  0  0  0  0  0  0
  -23.0650  -13.5230   21.3520 C   0  0  0  0  0  0  0  0  0  0  0  0
  -22.4200  -12.7830   22.2480 N   0  0  0  0  0  0  0  0  0  0  0  0
  -22.5810  -14.5700   20.9240 O   0  0  0  0  0  0  0  0  0  0  0  0
  -22.8260  -11.9360   22.6170 H   0  0  0  0  0  0  0  0  0  0  0  0
  -21.5080  -13.0710   22.5710 H   0  0  0  0  0  0  0  0  0  0  0  0
  -25.6070  -15.2450   20.4030 N   0  0  0  0  0  0  0  0  0  0  0  0
  -24.8550  -15.8870   20.6280 H   0  0  0  0  0  0  0  0  0  0  0  0
  -26.4200  -15.7060   20.0170 H   0  0  0  0  0  0  0  0  0  0  0  0
  -27.8540  -24.4440   19.9250 C   0  0  0  0  0  2  0  0  0  0  0  0
  -28.2100  -25.9760   20.2970 O   0  0  0  0  0  0  0  0  0  0  0  0
  -24.6850  -31.8930   23.2560 C   0  0  0  0  0  0  0  0  0  0  0  0
  -27.2230  -27.0740   20.2070 C   0  0  0  0  0  0  0  0  0  0  0  0
  -23.4870  -30.5170   21.6010 C   0  0  0  0  0  3  0  0  0  0  0  0
  -24.9340  -28.9350   20.1650 C   0  0  0  0  0  0  0  0  0  0  0  0
  -26.0520  -30.7310   21.4640 C   0  0  0  0  0  2  0  0  0  0  0  0
  -26.1180  -29.3330   20.7980 C   0  0  0  0  0  0  0  0  0  0  0  0
  -27.2590  -28.4220   20.8000 C   0  0  0  0  0  3  0  0  0  0  0  0
  -26.0140  -26.8240   19.5170 C   0  0  0  0  0  3  0  0  0  0  0  0
  -24.9030  -27.6990   19.5040 C   0  0  0  0  0  3  0  0  0  0  0  0
  -23.7180  -29.8560   20.2170 C   0  0  0  0  0  2  0  0  0  0  0  0
  -24.7630  -31.0710   22.1610 N   0  0  0  0  0  0  0  0  0  0  0  0
  -23.5970  -32.1830   23.7790 O   0  0  0  0  0  0  0  0  0  0  0  0
  -22.7910  -29.5100   22.5530 C   0  0  0  0  0  0  0  0  0  0  0  0
  -21.4620  -29.3370   22.4100 N   0  0  0  0  0  0  0  0  0  0  0  0
  -23.4490  -28.8860   23.3880 O   0  0  0  0  0  0  0  0  0  0  0  0
  -20.9840  -29.8970   21.7170 H   0  0  0  0  0  0  0  0  0  0  0  0
  -18.0790  -28.1160   22.8670 C   0  0  0  0  0  0  0  0  0  0  0  0
  -20.6330  -28.3970   23.1720 C   0  0  0  0  0  3  0  0  0  0  0  0
  -20.7520  -26.9620   22.6040 C   0  0  0  0  0  2  0  0  0  0  0  0
  -19.6700  -26.6310   21.5720 C   0  0  0  0  0  2  0  0  0  0  0  0
  -18.2750  -26.7680   22.1910 C   0  0  0  0  0  2  0  0  0  0  0  0
  -19.1860  -28.8860   23.3120 C   0  0  0  0  0  0  0  0  0  0  0  0
  -18.9480  -30.1460   23.9030 C   0  0  0  0  0  3  0  0  0  0  0  0
  -17.6360  -30.6350   24.0540 C   0  0  0  0  0  3  0  0  0  0  0  0
  -16.5440  -29.8620   23.6240 C   0  0  0  0  0  3  0  0  0  0  0  0
  -16.7660  -28.6040   23.0360 C   0  0  0  0  0  3  0  0  0  0  0  0
  -25.9610  -32.5210   23.8940 C   0  0  0  0  0  3  0  0  0  0  0  0
  -25.6570  -33.9230   24.2260 N   0  0  0  0  0  0  0  0  0  0  0  0
  -25.9720  -34.9770   23.4630 C   0  0  0  0  0  0  0  0  0  0  0  0
  -26.6170  -34.8720   22.4180 O   0  0  0  0  0  0  0  0  0  0  0  0
  -25.0870  -34.0780   25.0450 H   0  0  0  0  0  0  0  0  0  0  0  0
  -24.2320  -36.7720   23.1690 C   0  0  0  0  0  1  0  0  0  0  0  0
  -25.5020  -36.3690   23.9340 C   0  0  0  0  0  3  0  0  0  0  0  0
  -27.6620  -37.2620   24.6880 C   0  0  0  0  0  1  0  0  0  0  0  0
  -26.5280  -37.4240   23.7830 N   0  0  0  0  0  0  0  0  0  0  0  0
  -26.1250  -38.3420   23.9450 H   0  0  0  0  0  0  0  0  0  0  0  0
  -26.4510  -31.7520   25.1840 C   0  0  1  0  0  0  0  0  0  0  0  0
  -25.3370  -31.5290   26.2340 C   0  0  0  0  0  1  0  0  0  0  0  0
  -27.0300  -30.3670   24.8140 C   0  0  0  0  0  1  0  0  0  0  0  0
  -27.5980  -32.5410   25.8570 C   0  0  0  0  0  1  0  0  0  0  0  0
  1  2  1  0
  3  4  1  0
  4  1  2  0
  5  2  2  0
  6  3  2  0
  6  5  1  0
  7  6  1  0
  8 20  1  0
  9 14  1  0
 10 11  1  0
 10  9  1  0
 12 11  1  0
 12 24  1  0
 12 13  1  0
 14  8  1  0
 14 13  1  0
 15  8  2  0
 17  4  1  0
 17 20  1  0
 17 18  1  0
 18 16  1  0
 18 19  1  0
 20 16  1  0
 21 22  2  0
 22 41  1  0
 23 22  1  0
 23 26  1  0
 24 25  1  0
 24 21  1  0
 25 23  2  0
 26 27  1  0
 27 28  2  0
 29 32  1  0
 29 28  1  0
 30 29  2  0
 31 30  1  0
 31 26  2  0
 32 33  1  0
 33 38  2  0
 33 34  1  0
 34 35  2  0
 35 36  1  0
 36 40  1  0
 37 36  2  0
 38 37  1  0
 39 38  1  0
 41 42  1  0
 42 45  1  0
 42 44  1  0
 43 41  2  0
 46 21  1  0
 46 47  1  0
 48 46  1  0
 49  5  1  0
 49 50  1  0
 51 62  2  0
 52 50  1  0
 52 57  1  0
 53 61  1  0
 53 63  1  0
 54 60  1  0
 54 56  1  0
 55 61  1  0
 56 57  2  0
 56 55  1  0
 58 52  2  0
 59 58  1  0
 59 54  2  0
 60 53  1  0
 61 51  1  0
 63 65  2  0
 64 63  1  0
 66 64  1  0
 67 76  2  0
 67 72  1  0
 68 64  1  0
 68 72  1  0
 69 68  1  0
 70 71  1  0
 70 69  1  0
 71 67  1  0
 72 73  2  0
 73 74  1  0
 75 74  2  0
 76 75  1  0
 77 51  1  0
 77 78  1  0
 77 87  1  0
 78 81  1  0
 79 83  1  0
 79 78  1  0
 80 79  2  0
 83 82  1  0
 85 83  1  0
 85 86  1  0
 85 84  1  0
 87 90  1  1
 87 88  1  0
 89 87  1  0
M  ISO  4   8 100  20 100  49 101  50 101
M  END
>  <TORSDO>  (73) 
F 17

>  <SCORE>  (73) 
-15.373

>  <name>  (73) 
72

>  <ligand_id>  (73) 
72

>  <original_smiles>  (73) 
[H]c1c([H])c([H])c2c(c1[H])C([H])([H])C([H])([H])C([H])([H])C2([H])N([H])C(=O)C1([H])N(C(=O)C([H])(N([H])C(=O)C([H])(N([H])C([H])([H])[H])C([H])([H])[H])C(C([H])([H])[H])(C([H])([H])[H])C([H])([H])[H])C([H])([H])c2c([H])c(OC([H])([H])c3c([H])c([H])c(C4([H])N(C(=O)N5C([H])([H])C([H])([H])C([H])([H])C([H])(n6nc(-c7c([H])c([H])c(Oc8c([H])c([H])c(F)c([H])c8F)c([H])c7[H])c(C(=O)N([H])[H])c6N([H])[H])C5([H])[H])C([H])([H])C4([H])C([H])([H])[H])c([H])c3F)c([H])c([H])c2C1([H])[H]

>  <smiles>  (73) 
[H]c1c([H])c([H])c2c(c1[H])C([H])([H])C([H])([H])C([H])([H])C2([H])N([H])C(=O)C1([H])N(C(=O)C([H])(N([H])C(=O)C([H])(N([H])C([H])([H])[H])C([H])([H])[H])C(C([H])([H])[H])(C([H])([H])[H])C([H])([H])[H])C([H])([H])c2c([H])c(OC([H])([H])c3c([H])c([H])c(C4([H])N(C(=O)N5C([H])([H])C([H])([H])C([H])([H])C([H])(n6nc(-c7c([H])c([H])c(Oc8c([H])c([H])c(F)c([H])c8F)c([H])c7[H])c(C(=O)N([H])[H])c6N([H])[H])C5([H])[H])C([H])([H])C4([H])C([H])([H])[H])c([H])c3F)c([H])c([H])c2C1([H])[H]

$$$$
73:0:0
     RDKit          3D

 96104  0  0  1  0  0  0  0  0999 V2000
  -29.7610  -21.6460   20.7610 C   0  0  0  0  0  3  0  0  0  0  0  0
  -28.7320  -22.7350   20.7730 N   0  0  0  0  0  4  0  0  0  0  0  0
  -28.0980  -22.5180   20.0200 H   0  0  0  0  0  0  0  0  0  0  0  0
  -28.2020  -22.6500   21.6280 H   0  0  0  0  0  0  0  0  0  0  0  0
  -29.1560  -24.1640   20.6040 C   0  0  0  0  0  2  0  0  0  0  0  0
  -27.9660  -25.0730   20.2130 C   0  0  0  0  0  2  0  0  0  0  0  0
  -28.2300  -26.4970   20.2110 O   0  0  0  0  0  0  0  0  0  0  0  0
  -24.5900  -31.8340   23.2280 C   0  0  0  0  0  0  0  0  0  0  0  0
  -27.1040  -27.3060   20.1490 C   0  0  0  0  0  0  0  0  0  0  0  0
  -23.3470  -30.4660   21.5900 C   0  0  0  0  0  3  0  0  0  0  0  0
  -24.7570  -28.9000   20.1580 C   0  0  0  0  0  0  0  0  0  0  0  0
  -25.8860  -30.7550   21.3900 C   0  0  0  0  0  2  0  0  0  0  0  0
  -25.9340  -29.3860   20.7400 C   0  0  0  0  0  0  0  0  0  0  0  0
  -27.1140  -28.6020   20.7260 C   0  0  0  0  0  3  0  0  0  0  0  0
  -25.9070  -26.8540   19.5410 C   0  0  0  0  0  3  0  0  0  0  0  0
  -24.7400  -27.6350   19.5530 C   0  0  0  0  0  3  0  0  0  0  0  0
  -23.5350  -29.7870   20.2090 C   0  0  0  0  0  2  0  0  0  0  0  0
  -24.6260  -31.0330   22.1270 N   0  0  0  0  0  0  0  0  0  0  0  0
  -23.5170  -32.1330   23.7690 O   0  0  0  0  0  0  0  0  0  0  0  0
  -22.6710  -29.4580   22.5490 C   0  0  0  0  0  0  0  0  0  0  0  0
  -21.3490  -29.2740   22.3890 N   0  0  0  0  0  0  0  0  0  0  0  0
  -23.3330  -28.8460   23.3910 O   0  0  0  0  0  0  0  0  0  0  0  0
  -20.8790  -29.8200   21.6820 H   0  0  0  0  0  0  0  0  0  0  0  0
  -17.9650  -28.0780   22.8130 C   0  0  0  0  0  0  0  0  0  0  0  0
  -20.5110  -28.3500   23.1550 C   0  0  0  0  0  3  0  0  0  0  0  0
  -20.6340  -26.9080   22.6120 C   0  0  0  0  0  2  0  0  0  0  0  0
  -19.5640  -26.5600   21.5730 C   0  0  0  0  0  2  0  0  0  0  0  0
  -18.1620  -26.7160   22.1700 C   0  0  0  0  0  2  0  0  0  0  0  0
  -19.0670  -28.8520   23.2600 C   0  0  0  0  0  0  0  0  0  0  0  0
  -18.8290  -30.1280   23.8170 C   0  0  0  0  0  3  0  0  0  0  0  0
  -17.5180  -30.6290   23.9320 C   0  0  0  0  0  3  0  0  0  0  0  0
  -16.4290  -29.8530   23.5010 C   0  0  0  0  0  3  0  0  0  0  0  0
  -16.6530  -28.5790   22.9480 C   0  0  0  0  0  3  0  0  0  0  0  0
  -25.8910  -32.4320   23.8480 C   0  0  0  0  0  3  0  0  0  0  0  0
  -25.6170  -33.8360   24.1820 N   0  0  0  0  0  0  0  0  0  0  0  0
  -25.9620  -34.8820   23.4170 C   0  0  0  0  0  0  0  0  0  0  0  0
  -26.6170  -34.7630   22.3790 O   0  0  0  0  0  0  0  0  0  0  0  0
  -25.0360  -34.0040   24.9910 H   0  0  0  0  0  0  0  0  0  0  0  0
  -24.2710  -36.7110   23.0760 C   0  0  0  0  0  1  0  0  0  0  0  0
  -25.5080  -36.2790   23.8800 C   0  0  0  0  0  3  0  0  0  0  0  0
  -27.6590  -37.1230   24.7130 C   0  0  0  0  0  1  0  0  0  0  0  0
  -26.5640  -37.3080   23.7630 N   0  0  0  0  0  0  0  0  0  0  0  0
  -26.1780  -38.2390   23.9000 H   0  0  0  0  0  0  0  0  0  0  0  0
  -26.3950  -31.6440   25.1190 C   0  0  1  0  0  0  0  0  0  0  0  0
  -25.2970  -31.4170   26.1850 C   0  0  0  0  0  1  0  0  0  0  0  0
  -26.9540  -30.2590   24.7180 C   0  0  0  0  0  1  0  0  0  0  0  0
  -27.5600  -32.4140   25.7830 C   0  0  0  0  0  1  0  0  0  0  0  0
  -30.5640  -22.5340   23.0750 C   0  0  0  0  0  1  0  0  0  0  0  0
  -30.9620  -21.8620   21.7430 C   0  0  0  0  0  3  0  0  0  0  0  0
  -32.7840  -21.8510   19.8870 C   0  0  0  0  0  1  0  0  0  0  0  0
  -32.2300  -22.5290   21.1490 C   0  0  0  0  0  2  0  0  0  0  0  0
  -29.0940  -20.2390   21.0030 C   0  0  0  0  0  2  0  0  0  0  0  0
  -28.4360  -17.8390   19.4070 C   0  0  0  0  0  2  0  0  0  0  0  0
  -29.3760  -18.9520   18.9320 C   0  0  0  0  0  2  0  0  0  0  0  0
  -29.2780  -17.7690   20.6920 C   0  0  0  0  0  3  0  0  0  0  0  0
  -29.7910  -19.1220   20.3300 N   0  0  0  0  0  0  0  0  0  0  0  0
  -30.5720  -14.3050   20.0690 C   0  0  0  0  0  0  0  0  0  0  0  0
  -30.1680  -12.1720   18.9030 C   0  0  0  0  0  2  0  0  0  0  0  0
  -29.1480  -12.4050   17.7710 C   0  0  0  0  0  2  0  0  0  0  0  0
  -27.7100  -12.2450   18.2990 C   0  0  0  0  0  2  0  0  0  0  0  0
  -27.4530  -13.0510   19.6010 C   0  0  0  0  0  3  0  0  0  0  0  0
  -28.5890  -12.8300   20.6280 C   0  0  0  0  0  2  0  0  0  0  0  0
  -29.8650  -13.1450   19.9660 N   0  0  0  0  0  0  0  0  0  0  0  0
  -31.6900  -14.4190   19.5640 O   0  0  0  0  0  0  0  0  0  0  0  0
  -30.3410  -16.6370   20.6620 C   0  0  0  0  0  0  0  0  0  0  0  0
  -29.8870  -15.3660   20.5520 N   0  0  0  0  0  0  0  0  0  0  0  0
  -31.5370  -16.9460   20.7290 O   0  0  0  0  0  0  0  0  0  0  0  0
  -28.9080  -15.2180   20.7300 H   0  0  0  0  0  0  0  0  0  0  0  0
  -25.0980  -13.6130   20.4660 C   0  0  0  0  0  0  0  0  0  0  0  0
  -24.0690  -12.8210   20.9000 C   0  0  0  0  0  0  0  0  0  0  0  0
  -24.5490  -11.4770   20.8310 C   0  0  0  0  0  0  0  0  0  0  0  0
  -26.1410  -12.7510   20.1660 N   0  0  0  0  0  0  0  0  0  0  0  0
  -25.8170  -11.4620   20.4430 N   0  0  0  0  0  0  0  0  0  0  0  0
  -23.8570  -10.2010   21.0590 C   0  0  0  0  0  0  0  0  0  0  0  0
  -24.3030   -9.2840   22.0350 C   0  0  0  0  0  3  0  0  0  0  0  0
  -23.6090   -8.0740   22.2490 C   0  0  0  0  0  3  0  0  0  0  0  0
  -22.4560   -7.7710   21.4850 C   0  0  0  0  0  0  0  0  0  0  0  0
  -22.0310   -8.6770   20.4970 C   0  0  0  0  0  3  0  0  0  0  0  0
  -22.7260   -9.8810   20.2830 C   0  0  0  0  0  3  0  0  0  0  0  0
  -21.7340   -6.6070   21.6040 O   0  0  0  0  0  0  0  0  0  0  0  0
  -21.6390   -5.9400   22.7980 C   0  0  0  0  0  0  0  0  0  0  0  0
  -21.0420   -6.5260   23.9350 C   0  0  0  0  0  3  0  0  0  0  0  0
  -20.9020   -5.7780   25.1220 C   0  0  0  0  0  3  0  0  0  0  0  0
  -21.3510   -4.4450   25.1720 C   0  0  0  0  0  0  0  0  0  0  0  0
  -21.9420   -3.8580   24.0390 C   0  0  0  0  0  3  0  0  0  0  0  0
  -22.0830   -4.6040   22.8550 C   0  0  0  0  0  0  0  0  0  0  0  0
  -22.6330   -4.0260   21.7600 F   0  0  0  0  0  0  0  0  0  0  0  0
  -21.2120   -3.7240   26.3090 F   0  0  0  0  0  0  0  0  0  0  0  0
  -22.6840  -13.2730   21.2630 C   0  0  0  0  0  0  0  0  0  0  0  0
  -22.0230  -12.5550   22.1650 N   0  0  0  0  0  0  0  0  0  0  0  0
  -22.1980  -14.2950   20.7820 O   0  0  0  0  0  0  0  0  0  0  0  0
  -22.4340  -11.7310   22.5760 H   0  0  0  0  0  0  0  0  0  0  0  0
  -21.0940  -12.8350   22.4470 H   0  0  0  0  0  0  0  0  0  0  0  0
  -25.2210  -14.9880   20.2830 N   0  0  0  0  0  0  0  0  0  0  0  0
  -24.4310  -15.6110   20.4130 H   0  0  0  0  0  0  0  0  0  0  0  0
  -26.0160  -15.4420   19.8530 H   0  0  0  0  0  0  0  0  0  0  0  0
  1  2  1  0
  1 52  1  0
  1 49  1  0
  2  4  1  0
  3  2  1  0
  5  2  1  0
  6  5  1  0
  7  6  1  0
  8 19  2  0
  9  7  1  0
  9 14  1  0
 10 18  1  0
 10 20  1  0
 11 17  1  0
 11 13  1  0
 12 18  1  0
 13 12  1  0
 14 13  2  0
 15 16  1  0
 15  9  2  0
 16 11  2  0
 17 10  1  0
 18  8  1  0
 20 22  2  0
 21 20  1  0
 23 21  1  0
 24 33  2  0
 24 29  1  0
 25 21  1  0
 25 29  1  0
 26 25  1  0
 27 28  1  0
 27 26  1  0
 28 24  1  0
 29 30  2  0
 30 31  1  0
 32 31  2  0
 33 32  1  0
 34  8  1  0
 34 35  1  0
 34 44  1  0
 35 38  1  0
 36 40  1  0
 36 35  1  0
 37 36  2  0
 40 39  1  0
 42 40  1  0
 42 43  1  0
 42 41  1  0
 44 47  1  1
 44 45  1  0
 46 44  1  0
 49 48  1  0
 50 51  1  0
 51 49  1  0
 53 55  1  0
 54 53  1  0
 54 56  1  0
 55 65  1  0
 56 55  1  0
 56 52  1  0
 57 66  1  0
 58 63  1  0
 59 60  1  0
 59 58  1  0
 61 60  1  0
 61 72  1  0
 61 62  1  0
 63 57  1  0
 63 62  1  0
 64 57  2  0
 65 67  2  0
 66 65  1  0
 66 68  1  0
 69 70  2  0
 70 89  1  0
 71 70  1  0
 71 74  1  0
 72 73  1  0
 72 69  1  0
 73 71  2  0
 74 75  1  0
 75 76  2  0
 77 80  1  0
 77 76  1  0
 78 77  2  0
 79 78  1  0
 79 74  2  0
 80 81  1  0
 81 86  2  0
 81 82  1  0
 82 83  2  0
 83 84  1  0
 84 88  1  0
 85 84  2  0
 86 85  1  0
 87 86  1  0
 89 90  1  0
 90 93  1  0
 90 92  1  0
 91 89  2  0
 94 95  1  0
 94 69  1  0
 96 94  1  0
M  ISO  4   6 101   7 101  57 100  66 100
M  END
>  <TORSDO>  (74) 
F 23

>  <SCORE>  (74) 
-12.370

>  <name>  (74) 
73

>  <ligand_id>  (74) 
73

>  <original_smiles>  (74) 
[H]c1c([H])c([H])c2c(c1[H])C([H])([H])C([H])([H])C([H])([H])C2([H])N([H])C(=O)C1([H])N(C(=O)C([H])(N([H])C(=O)C([H])(N([H])C([H])([H])[H])C([H])([H])[H])C(C([H])([H])[H])(C([H])([H])[H])C([H])([H])[H])C([H])([H])c2c([H])c(OC([H])([H])C([H])([H])[N+]([H])([H])C([H])(C([H])([H])N3C([H])([H])C([H])([H])C3([H])C(=O)N([H])C(=O)N3C([H])([H])C([H])([H])C([H])([H])C([H])(n4nc(-c5c([H])c([H])c(Oc6c([H])c([H])c(F)c([H])c6F)c([H])c5[H])c(C(=O)N([H])[H])c4N([H])[H])C3([H])[H])C([H])(C([H])([H])[H])C([H])([H])C([H])([H])[H])c([H])c([H])c2C1([H])[H]

>  <smiles>  (74) 
[H]c1c([H])c([H])c2c(c1[H])C([H])([H])C([H])([H])C([H])([H])C2([H])N([H])C(=O)C1([H])N(C(=O)C([H])(N([H])C(=O)C([H])(N([H])C([H])([H])[H])C([H])([H])[H])C(C([H])([H])[H])(C([H])([H])[H])C([H])([H])[H])C([H])([H])c2c([H])c(OC([H])([H])C([H])([H])[N+]([H])([H])C([H])(C([H])([H])N3C([H])([H])C([H])([H])C3([H])C(=O)N([H])C(=O)N3C([H])([H])C([H])([H])C([H])([H])C([H])(n4nc(-c5c([H])c([H])c(Oc6c([H])c([H])c(F)c([H])c6F)c([H])c5[H])c(C(=O)N([H])[H])c4N([H])[H])C3([H])[H])C([H])(C([H])([H])[H])C([H])([H])C([H])([H])[H])c([H])c([H])c2C1([H])[H]

$$$$
74:0:0
     RDKit          3D

 94103  0  0  1  0  0  0  0  0999 V2000
  -30.2580  -24.4530   19.5520 C   0  0  0  0  0  3  0  0  0  0  0  0
  -31.0790  -23.4400   19.0270 C   0  0  0  0  0  3  0  0  0  0  0  0
  -28.5730  -22.7760   20.0610 C   0  0  0  0  0  3  0  0  0  0  0  0
  -29.3880  -21.7330   19.5370 C   0  0  0  0  0  0  0  0  0  0  0  0
  -28.9890  -24.1340   20.0610 C   0  0  0  0  0  0  0  0  0  0  0  0
  -30.6620  -22.0920   19.0020 C   0  0  0  0  0  0  0  0  0  0  0  0
  -31.6160  -21.0890   18.3700 C   0  0  0  0  0  1  0  0  0  0  0  0
  -28.8350  -20.3140   19.4850 C   0  0  0  0  0  0  0  0  0  0  0  0
  -29.6880  -19.2950   19.6950 N   0  0  0  0  0  0  0  0  0  0  0  0
  -27.6340  -20.1290   19.2780 O   0  0  0  0  0  0  0  0  0  0  0  0
  -30.6470  -19.5550   19.8770 H   0  0  0  0  0  0  0  0  0  0  0  0
  -29.3840  -17.8590   19.5810 C   0  0  0  0  0  2  0  0  0  0  0  0
  -30.7820  -14.4840   20.0670 C   0  0  0  0  0  0  0  0  0  0  0  0
  -30.4100  -12.3070   18.9590 C   0  0  0  0  0  2  0  0  0  0  0  0
  -29.4120  -12.4850   17.7950 C   0  0  0  0  0  2  0  0  0  0  0  0
  -27.9590  -12.3720   18.2970 C   0  0  0  0  0  2  0  0  0  0  0  0
  -27.6930  -13.2400   19.5540 C   0  0  0  0  0  3  0  0  0  0  0  0
  -28.7890  -13.0120   20.6140 C   0  0  0  0  0  2  0  0  0  0  0  0
  -30.0820  -13.3160   19.9810 N   0  0  0  0  0  0  0  0  0  0  0  0
  -31.8940  -14.6140   19.5460 O   0  0  0  0  0  0  0  0  0  0  0  0
  -30.5880  -17.1050   21.8020 C   0  0  0  0  0  2  0  0  0  0  0  0
  -29.7360  -15.8460   21.8850 C   0  0  0  0  0  2  0  0  0  0  0  0
  -30.4660  -17.0080   20.2840 C   0  0  0  0  0  3  0  0  0  0  0  0
  -30.0850  -15.5790   20.4860 N   0  0  0  0  0  0  0  0  0  0  0  0
  -25.3590  -13.9170   20.3900 C   0  0  0  0  0  0  0  0  0  0  0  0
  -24.2830  -13.1770   20.7970 C   0  0  0  0  0  0  0  0  0  0  0  0
  -24.6970  -11.8100   20.7310 C   0  0  0  0  0  0  0  0  0  0  0  0
  -26.3580  -13.0050   20.0950 N   0  0  0  0  0  0  0  0  0  0  0  0
  -25.9670  -11.7310   20.3560 N   0  0  0  0  0  0  0  0  0  0  0  0
  -23.9390  -10.5700   20.9380 C   0  0  0  0  0  0  0  0  0  0  0  0
  -24.3660   -9.5900   21.8610 C   0  0  0  0  0  3  0  0  0  0  0  0
  -23.6130   -8.4110   22.0550 C   0  0  0  0  0  3  0  0  0  0  0  0
  -22.4180   -8.2070   21.3250 C   0  0  0  0  0  0  0  0  0  0  0  0
  -22.0100   -9.1740   20.3890 C   0  0  0  0  0  3  0  0  0  0  0  0
  -22.7640  -10.3440   20.1950 C   0  0  0  0  0  3  0  0  0  0  0  0
  -21.6320   -7.0850   21.4320 O   0  0  0  0  0  0  0  0  0  0  0  0
  -21.5610   -6.3640   22.5960 C   0  0  0  0  0  0  0  0  0  0  0  0
  -21.1620   -6.9530   23.8160 C   0  0  0  0  0  3  0  0  0  0  0  0
  -21.0360   -6.1580   24.9730 C   0  0  0  0  0  3  0  0  0  0  0  0
  -21.3010   -4.7760   24.9110 C   0  0  0  0  0  0  0  0  0  0  0  0
  -21.6960   -4.1880   23.6970 C   0  0  0  0  0  3  0  0  0  0  0  0
  -21.8230   -4.9800   22.5420 C   0  0  0  0  0  0  0  0  0  0  0  0
  -22.1820   -4.4050   21.3700 F   0  0  0  0  0  0  0  0  0  0  0  0
  -21.1740   -4.0100   26.0200 F   0  0  0  0  0  0  0  0  0  0  0  0
  -22.9180  -13.6970   21.1470 C   0  0  0  0  0  0  0  0  0  0  0  0
  -22.2100  -13.0150   22.0390 N   0  0  0  0  0  0  0  0  0  0  0  0
  -22.4880  -14.7420   20.6590 O   0  0  0  0  0  0  0  0  0  0  0  0
  -22.5750  -12.1720   22.4570 H   0  0  0  0  0  0  0  0  0  0  0  0
  -21.2920  -13.3410   22.3090 H   0  0  0  0  0  0  0  0  0  0  0  0
  -25.5730  -15.2830   20.2240 N   0  0  0  0  0  0  0  0  0  0  0  0
  -24.8560  -15.9790   20.3970 H   0  0  0  0  0  0  0  0  0  0  0  0
  -26.4360  -15.6750   19.8680 H   0  0  0  0  0  0  0  0  0  0  0  0
  -28.0940  -25.2360   20.6370 C   0  0  0  0  0  2  0  0  0  0  0  0
  -28.3430  -26.5720   20.1310 O   0  0  0  0  0  0  0  0  0  0  0  0
  -24.5960  -31.8270   23.1920 C   0  0  0  0  0  0  0  0  0  0  0  0
  -27.2230  -27.3790   20.0980 C   0  0  0  0  0  0  0  0  0  0  0  0
  -23.3950  -30.4460   21.5320 C   0  0  0  0  0  3  0  0  0  0  0  0
  -24.8510  -28.9230   20.0950 C   0  0  0  0  0  0  0  0  0  0  0  0
  -25.9250  -30.7890   21.3560 C   0  0  0  0  0  2  0  0  0  0  0  0
  -26.0110  -29.4230   20.7020 C   0  0  0  0  0  0  0  0  0  0  0  0
  -27.2040  -28.6580   20.7060 C   0  0  0  0  0  3  0  0  0  0  0  0
  -26.0560  -26.9140   19.4550 C   0  0  0  0  0  3  0  0  0  0  0  0
  -24.8740  -27.6700   19.4620 C   0  0  0  0  0  3  0  0  0  0  0  0
  -23.6110  -29.7840   20.1450 C   0  0  0  0  0  2  0  0  0  0  0  0
  -24.6560  -31.0350   22.0850 N   0  0  0  0  0  0  0  0  0  0  0  0
  -23.5130  -32.0990   23.7260 O   0  0  0  0  0  0  0  0  0  0  0  0
  -22.7350  -29.4150   22.4770 C   0  0  0  0  0  0  0  0  0  0  0  0
  -21.4080  -29.2490   22.3500 N   0  0  0  0  0  0  0  0  0  0  0  0
  -23.4150  -28.7680   23.2790 O   0  0  0  0  0  0  0  0  0  0  0  0
  -20.9200  -29.8230   21.6760 H   0  0  0  0  0  0  0  0  0  0  0  0
  -18.0240  -28.0840   22.8380 C   0  0  0  0  0  0  0  0  0  0  0  0
  -20.5830  -28.3080   23.1100 C   0  0  0  0  0  3  0  0  0  0  0  0
  -20.6710  -26.8840   22.5130 C   0  0  0  0  0  2  0  0  0  0  0  0
  -19.5650  -26.5880   21.4970 C   0  0  0  0  0  2  0  0  0  0  0  0
  -18.1850  -26.7410   22.1440 C   0  0  0  0  0  2  0  0  0  0  0  0
  -19.1510  -28.8270   23.2770 C   0  0  0  0  0  0  0  0  0  0  0  0
  -18.9490  -30.0850   23.8830 C   0  0  0  0  0  3  0  0  0  0  0  0
  -17.6510  -30.6010   24.0540 C   0  0  0  0  0  3  0  0  0  0  0  0
  -16.5370  -29.8540   23.6340 C   0  0  0  0  0  3  0  0  0  0  0  0
  -16.7240  -28.5970   23.0300 C   0  0  0  0  0  3  0  0  0  0  0  0
  -25.8810  -32.4490   23.8220 C   0  0  0  0  0  3  0  0  0  0  0  0
  -26.3970  -31.6590   25.0880 C   0  0  1  0  0  0  0  0  0  0  0  0
  -25.3030  -31.4090   26.1520 C   0  0  0  0  0  1  0  0  0  0  0  0
  -26.9770  -30.2860   24.6750 C   0  0  0  0  0  1  0  0  0  0  0  0
  -27.5470  -32.4440   25.7610 C   0  0  0  0  0  1  0  0  0  0  0  0
  -25.5730  -33.8440   24.1670 N   0  0  0  0  0  0  0  0  0  0  0  0
  -25.9100  -34.9030   23.4200 C   0  0  0  0  0  0  0  0  0  0  0  0
  -26.5860  -34.8110   22.3910 O   0  0  0  0  0  0  0  0  0  0  0  0
  -24.9760  -33.9910   24.9670 H   0  0  0  0  0  0  0  0  0  0  0  0
  -24.1840  -36.6990   23.0780 C   0  0  0  0  0  1  0  0  0  0  0  0
  -25.4210  -36.2850   23.8910 C   0  0  0  0  0  3  0  0  0  0  0  0
  -27.5540  -37.1590   24.7400 C   0  0  0  0  0  1  0  0  0  0  0  0
  -26.4550  -37.3410   23.7950 N   0  0  0  0  0  0  0  0  0  0  0  0
  -26.0470  -38.2590   23.9540 H   0  0  0  0  0  0  0  0  0  0  0  0
  1  5  1  0
  2  1  2  0
  3  5  2  0
  4  3  1  0
  5 53  1  0
  6  2  1  0
  6  4  2  0
  7  6  1  0
  8  4  1  0
  8  9  1  0
  9 11  1  0
 10  8  2  0
 12  9  1  0
 13 24  1  0
 14 19  1  0
 15 16  1  0
 15 14  1  0
 17 16  1  0
 17 28  1  0
 17 18  1  0
 19 13  1  0
 19 18  1  0
 20 13  2  0
 21 22  1  0
 23 12  1  0
 23 24  1  0
 23 21  1  0
 24 22  1  0
 25 26  2  0
 26 45  1  0
 27 26  1  0
 27 30  1  0
 28 29  1  0
 28 25  1  0
 29 27  2  0
 30 31  1  0
 31 32  2  0
 33 36  1  0
 33 32  1  0
 34 33  2  0
 35 34  1  0
 35 30  2  0
 36 37  1  0
 37 38  1  0
 38 39  2  0
 40 39  1  0
 40 44  1  0
 41 40  2  0
 42 37  2  0
 42 41  1  0
 43 42  1  0
 45 46  1  0
 46 49  1  0
 46 48  1  0
 47 45  2  0
 50 25  1  0
 50 51  1  0
 52 50  1  0
 54 53  1  0
 55 66  2  0
 56 54  1  0
 56 61  1  0
 57 65  1  0
 57 67  1  0
 58 64  1  0
 58 60  1  0
 59 65  1  0
 60 61  2  0
 60 59  1  0
 62 63  1  0
 62 56  2  0
 63 58  2  0
 64 57  1  0
 65 55  1  0
 67 69  2  0
 68 67  1  0
 70 68  1  0
 71 80  2  0
 71 76  1  0
 72 68  1  0
 72 76  1  0
 73 72  1  0
 74 75  1  0
 74 73  1  0
 75 71  1  0
 76 77  2  0
 77 78  1  0
 79 78  2  0
 80 79  1  0
 81 55  1  0
 81 86  1  0
 81 82  1  0
 82 85  1  1
 82 83  1  0
 84 82  1  0
 86 89  1  0
 87 91  1  0
 87 86  1  0
 88 87  2  0
 91 90  1  0
 93 91  1  0
 93 94  1  0
 93 92  1  0
M  ISO  4  13 100  24 100  53 101  54 101
M  END
>  <TORSDO>  (75) 
F 19

>  <SCORE>  (75) 
-13.952

>  <name>  (75) 
74

>  <ligand_id>  (75) 
74

>  <original_smiles>  (75) 
[H]c1c([H])c([H])c2c(c1[H])C([H])([H])C([H])([H])C([H])([H])C2([H])N([H])C(=O)C1([H])N(C(=O)C([H])(N([H])C(=O)C([H])(N([H])C([H])([H])[H])C([H])([H])[H])C(C([H])([H])[H])(C([H])([H])[H])C([H])([H])[H])C([H])([H])c2c([H])c(OC([H])([H])c3c([H])c([H])c(C([H])([H])[H])c(C(=O)N([H])C([H])([H])C4([H])N(C(=O)N5C([H])([H])C([H])([H])C([H])([H])C([H])(n6nc(-c7c([H])c([H])c(Oc8c([H])c([H])c(F)c([H])c8F)c([H])c7[H])c(C(=O)N([H])[H])c6N([H])[H])C5([H])[H])C([H])([H])C4([H])[H])c3[H])c([H])c([H])c2C1([H])[H]

>  <smiles>  (75) 
[H]c1c([H])c([H])c2c(c1[H])C([H])([H])C([H])([H])C([H])([H])C2([H])N([H])C(=O)C1([H])N(C(=O)C([H])(N([H])C(=O)C([H])(N([H])C([H])([H])[H])C([H])([H])[H])C(C([H])([H])[H])(C([H])([H])[H])C([H])([H])[H])C([H])([H])c2c([H])c(OC([H])([H])c3c([H])c([H])c(C([H])([H])[H])c(C(=O)N([H])C([H])([H])C4([H])N(C(=O)N5C([H])([H])C([H])([H])C([H])([H])C([H])(n6nc(-c7c([H])c([H])c(Oc8c([H])c([H])c(F)c([H])c8F)c([H])c7[H])c(C(=O)N([H])[H])c6N([H])[H])C5([H])[H])C([H])([H])C4([H])[H])c3[H])c([H])c([H])c2C1([H])[H]

$$$$
75:0:0
     RDKit          3D

 94103  0  0  1  0  0  0  0  0999 V2000
  -31.0260  -21.2320   21.3650 C   0  0  0  0  0  2  0  0  0  0  0  0
  -29.6820  -21.7960   20.8120 C   0  0  0  0  0  2  0  0  0  0  0  0
  -29.3220  -23.1090   21.4180 N   0  0  0  0  0  4  0  0  0  0  0  0
  -30.1830  -23.5380   21.7200 H   0  0  0  0  0  0  0  0  0  0  0  0
  -28.7670  -22.9450   22.2440 H   0  0  0  0  0  0  0  0  0  0  0  0
  -28.6190  -24.0700   20.5180 C   0  0  0  0  0  2  0  0  0  0  0  0
  -28.5470  -25.5030   21.1070 C   0  0  0  0  0  2  0  0  0  0  0  0
  -28.4410  -26.5140   20.0910 O   0  0  0  0  0  0  0  0  0  0  0  0
  -24.7150  -31.6820   23.2800 C   0  0  0  0  0  0  0  0  0  0  0  0
  -27.2910  -27.2670   20.1280 C   0  0  0  0  0  0  0  0  0  0  0  0
  -23.4880  -30.3380   21.6030 C   0  0  0  0  0  3  0  0  0  0  0  0
  -24.9220  -28.8010   20.1550 C   0  0  0  0  0  0  0  0  0  0  0  0
  -26.0180  -30.6600   21.4170 C   0  0  0  0  0  2  0  0  0  0  0  0
  -26.0850  -29.2980   20.7590 C   0  0  0  0  0  0  0  0  0  0  0  0
  -27.2750  -28.5390   20.7420 C   0  0  0  0  0  3  0  0  0  0  0  0
  -26.1180  -26.7790   19.5170 C   0  0  0  0  0  3  0  0  0  0  0  0
  -24.9320  -27.5400   19.5300 C   0  0  0  0  0  3  0  0  0  0  0  0
  -23.6910  -29.6790   20.2120 C   0  0  0  0  0  2  0  0  0  0  0  0
  -24.7600  -30.9080   22.1590 N   0  0  0  0  0  0  0  0  0  0  0  0
  -23.6380  -31.9600   23.8260 O   0  0  0  0  0  0  0  0  0  0  0  0
  -22.8180  -29.3100   22.5420 C   0  0  0  0  0  0  0  0  0  0  0  0
  -21.5000  -29.1160   22.3750 N   0  0  0  0  0  0  0  0  0  0  0  0
  -23.4840  -28.6870   23.3750 O   0  0  0  0  0  0  0  0  0  0  0  0
  -21.0240  -29.6700   21.6770 H   0  0  0  0  0  0  0  0  0  0  0  0
  -18.1320  -27.8620   22.7360 C   0  0  0  0  0  0  0  0  0  0  0  0
  -20.6690  -28.1670   23.1180 C   0  0  0  0  0  3  0  0  0  0  0  0
  -20.8240  -26.7340   22.5580 C   0  0  0  0  0  2  0  0  0  0  0  0
  -19.7730  -26.3850   21.5000 C   0  0  0  0  0  2  0  0  0  0  0  0
  -18.3620  -26.5110   22.0790 C   0  0  0  0  0  2  0  0  0  0  0  0
  -19.2160  -28.6470   23.2090 C   0  0  0  0  0  0  0  0  0  0  0  0
  -18.9490  -29.9110   23.7770 C   0  0  0  0  0  3  0  0  0  0  0  0
  -17.6300  -30.3900   23.8810 C   0  0  0  0  0  3  0  0  0  0  0  0
  -16.5600  -29.6020   23.4240 C   0  0  0  0  0  3  0  0  0  0  0  0
  -16.8100  -28.3410   22.8560 C   0  0  0  0  0  3  0  0  0  0  0  0
  -26.0100  -32.2770   23.9170 C   0  0  0  0  0  3  0  0  0  0  0  0
  -26.5110  -31.4730   25.1800 C   0  0  1  0  0  0  0  0  0  0  0  0
  -25.4090  -31.2260   26.2350 C   0  0  0  0  0  1  0  0  0  0  0  0
  -27.0780  -30.0970   24.7570 C   0  0  0  0  0  1  0  0  0  0  0  0
  -27.6660  -32.2400   25.8660 C   0  0  0  0  0  1  0  0  0  0  0  0
  -25.7290  -33.6750   24.2690 N   0  0  0  0  0  0  0  0  0  0  0  0
  -26.1030  -34.7340   23.5390 C   0  0  0  0  0  0  0  0  0  0  0  0
  -26.7960  -34.6350   22.5220 O   0  0  0  0  0  0  0  0  0  0  0  0
  -25.1210  -33.8280   25.0600 H   0  0  0  0  0  0  0  0  0  0  0  0
  -24.4310  -36.5770   23.1790 C   0  0  0  0  0  1  0  0  0  0  0  0
  -25.6390  -36.1240   24.0140 C   0  0  0  0  0  3  0  0  0  0  0  0
  -27.7670  -36.9400   24.9260 C   0  0  0  0  0  1  0  0  0  0  0  0
  -26.7000  -37.1530   23.9520 N   0  0  0  0  0  0  0  0  0  0  0  0
  -26.3110  -38.0790   24.1050 H   0  0  0  0  0  0  0  0  0  0  0  0
  -31.0080  -19.9350   22.0670 N   0  0  0  0  0  0  0  0  0  0  0  0
  -31.8900  -14.5960   19.9540 C   0  0  0  0  0  0  0  0  0  0  0  0
  -31.4320  -12.4500   18.8490 C   0  0  0  0  0  2  0  0  0  0  0  0
  -30.4650  -12.7140   17.6750 C   0  0  0  0  0  2  0  0  0  0  0  0
  -29.0000  -12.6750   18.1540 C   0  0  0  0  0  2  0  0  0  0  0  0
  -28.7560  -13.5260   19.4280 C   0  0  0  0  0  3  0  0  0  0  0  0
  -29.8360  -13.2550   20.5000 C   0  0  0  0  0  2  0  0  0  0  0  0
  -31.1500  -13.4600   19.8760 N   0  0  0  0  0  0  0  0  0  0  0  0
  -33.0660  -14.6610   19.5810 O   0  0  0  0  0  0  0  0  0  0  0  0
  -31.6340  -17.8220   18.9510 C   0  0  0  0  0  2  0  0  0  0  0  0
  -30.3970  -17.3810   21.8790 C   0  0  0  0  0  2  0  0  0  0  0  0
  -30.8720  -16.4960   18.8910 C   0  0  0  0  0  2  0  0  0  0  0  0
  -31.8360  -18.0500   20.4200 C   0  0  0  0  0  3  0  0  0  0  0  0
  -31.5740  -16.7280   21.1380 C   0  0  0  0  0  3  0  0  0  0  0  0
  -30.7230  -18.7460   21.2320 C   0  0  0  0  0  3  0  0  0  0  0  0
  -31.1680  -15.7330   20.1230 N   0  0  0  0  0  0  0  0  0  0  0  0
  -26.4340  -14.2850   20.2300 C   0  0  0  0  0  0  0  0  0  0  0  0
  -25.3290  -13.5800   20.6260 C   0  0  0  0  0  0  0  0  0  0  0  0
  -25.6990  -12.2020   20.5680 C   0  0  0  0  0  0  0  0  0  0  0  0
  -27.4080  -13.3380   19.9550 N   0  0  0  0  0  0  0  0  0  0  0  0
  -26.9720  -12.0800   20.2160 N   0  0  0  0  0  0  0  0  0  0  0  0
  -24.8980  -10.9880   20.7710 C   0  0  0  0  0  0  0  0  0  0  0  0
  -25.1940  -10.0750   21.8070 C   0  0  0  0  0  3  0  0  0  0  0  0
  -24.3990   -8.9230   21.9940 C   0  0  0  0  0  3  0  0  0  0  0  0
  -23.2950   -8.6780   21.1430 C   0  0  0  0  0  0  0  0  0  0  0  0
  -23.0210   -9.5780   20.0980 C   0  0  0  0  0  3  0  0  0  0  0  0
  -23.8150  -10.7200   19.9110 C   0  0  0  0  0  3  0  0  0  0  0  0
  -22.4820   -7.5720   21.2320 O   0  0  0  0  0  0  0  0  0  0  0  0
  -22.1420   -7.0280   22.4440 C   0  0  0  0  0  0  0  0  0  0  0  0
  -21.4680   -7.7740   23.4350 C   0  0  0  0  0  3  0  0  0  0  0  0
  -21.0730   -7.1530   24.6380 C   0  0  0  0  0  3  0  0  0  0  0  0
  -21.3460   -5.7890   24.8480 C   0  0  0  0  0  0  0  0  0  0  0  0
  -22.0130   -5.0430   23.8610 C   0  0  0  0  0  3  0  0  0  0  0  0
  -22.4080   -5.6600   22.6620 C   0  0  0  0  0  0  0  0  0  0  0  0
  -23.0310   -4.9310   21.7040 F   0  0  0  0  0  0  0  0  0  0  0  0
  -20.9620   -5.1900   26.0000 F   0  0  0  0  0  0  0  0  0  0  0  0
  -23.9760  -14.1450   20.9500 C   0  0  0  0  0  0  0  0  0  0  0  0
  -23.2470  -13.5060   21.8590 N   0  0  0  0  0  0  0  0  0  0  0  0
  -23.5770  -15.1870   20.4310 O   0  0  0  0  0  0  0  0  0  0  0  0
  -23.5850  -12.6640   22.2990 H   0  0  0  0  0  0  0  0  0  0  0  0
  -22.3390  -13.8660   22.1170 H   0  0  0  0  0  0  0  0  0  0  0  0
  -26.6850  -15.6430   20.0600 N   0  0  0  0  0  0  0  0  0  0  0  0
  -25.9750  -16.3490   20.2170 H   0  0  0  0  0  0  0  0  0  0  0  0
  -27.5680  -16.0260   19.7480 H   0  0  0  0  0  0  0  0  0  0  0  0
  -31.3090  -20.1580   24.4780 C   0  0  0  0  0  1  0  0  0  0  0  0
  -30.3000  -19.9340   23.3480 C   0  0  0  0  0  2  0  0  0  0  0  0
  1 49  1  0
  2  1  1  0
  2  3  1  0
  3  4  1  0
  3  5  1  0
  6  7  1  0
  6  3  1  0
  8 10  1  0
  8  7  1  0
  9 20  2  0
 10 15  1  0
 11 19  1  0
 11 21  1  0
 12 18  1  0
 12 14  1  0
 13 19  1  0
 14 13  1  0
 15 14  2  0
 16 17  1  0
 16 10  2  0
 17 12  2  0
 18 11  1  0
 19  9  1  0
 21 23  2  0
 22 21  1  0
 24 22  1  0
 25 34  2  0
 25 30  1  0
 26 22  1  0
 26 30  1  0
 27 26  1  0
 28 29  1  0
 28 27  1  0
 29 25  1  0
 30 31  2  0
 31 32  1  0
 33 32  2  0
 34 33  1  0
 35  9  1  0
 35 40  1  0
 35 36  1  0
 36 39  1  1
 36 37  1  0
 38 36  1  0
 40 43  1  0
 41 45  1  0
 41 40  1  0
 42 41  2  0
 45 44  1  0
 47 45  1  0
 47 48  1  0
 47 46  1  0
 49 94  1  0
 50 64  1  0
 51 56  1  0
 52 53  1  0
 52 51  1  0
 54 53  1  0
 54 68  1  0
 54 55  1  0
 56 50  1  0
 56 55  1  0
 57 50  2  0
 60 58  1  0
 60 64  1  0
 61 58  1  0
 61 62  1  0
 61 63  1  0
 62 59  1  0
 63 59  1  0
 63 49  1  0
 64 62  1  0
 65 66  2  0
 66 85  1  0
 67 66  1  0
 67 70  1  0
 68 69  1  0
 68 65  1  0
 69 67  2  0
 70 71  1  0
 71 72  2  0
 73 76  1  0
 73 72  1  0
 74 73  2  0
 75 74  1  0
 75 70  2  0
 76 77  1  0
 77 82  2  0
 77 78  1  0
 78 79  2  0
 79 80  1  0
 80 84  1  0
 81 80  2  0
 82 81  1  0
 83 82  1  0
 85 86  1  0
 86 89  1  0
 86 88  1  0
 87 85  2  0
 90 91  1  0
 90 65  1  0
 92 90  1  0
 94 93  1  0
M  ISO  4   7 101   8 101  50 100  64 100
M  END
>  <TORSDO>  (76) 
F 22

>  <SCORE>  (76) 
-10.859

>  <name>  (76) 
75

>  <ligand_id>  (76) 
75

>  <original_smiles>  (76) 
[H]c1c([H])c([H])c2c(c1[H])C([H])([H])C([H])([H])C([H])([H])C2([H])N([H])C(=O)C1([H])N(C(=O)C([H])(N([H])C(=O)C([H])(N([H])C([H])([H])[H])C([H])([H])[H])C(C([H])([H])[H])(C([H])([H])[H])C([H])([H])[H])C([H])([H])c2c([H])c(OC([H])([H])C([H])([H])[N+]([H])([H])C([H])([H])C([H])([H])N(C([H])([H])C([H])([H])[H])C3([H])C([H])([H])C4([H])N(C(=O)N5C([H])([H])C([H])([H])C([H])([H])C([H])(n6nc(-c7c([H])c([H])c(Oc8c([H])c([H])c(F)c([H])c8F)c([H])c7[H])c(C(=O)N([H])[H])c6N([H])[H])C5([H])[H])C([H])([H])C([H])([H])C43[H])c([H])c([H])c2C1([H])[H]

>  <smiles>  (76) 
[H]c1c([H])c([H])c2c(c1[H])C([H])([H])C([H])([H])C([H])([H])C2([H])N([H])C(=O)C1([H])N(C(=O)C([H])(N([H])C(=O)C([H])(N([H])C([H])([H])[H])C([H])([H])[H])C(C([H])([H])[H])(C([H])([H])[H])C([H])([H])[H])C([H])([H])c2c([H])c(OC([H])([H])C([H])([H])[N+]([H])([H])C([H])([H])C([H])([H])N(C([H])([H])C([H])([H])[H])C3([H])C([H])([H])C4([H])N(C(=O)N5C([H])([H])C([H])([H])C([H])([H])C([H])(n6nc(-c7c([H])c([H])c(Oc8c([H])c([H])c(F)c([H])c8F)c([H])c7[H])c(C(=O)N([H])[H])c6N([H])[H])C5([H])[H])C([H])([H])C([H])([H])C43[H])c([H])c([H])c2C1([H])[H]

$$$$
76:0:0
     RDKit          3D

 93101  0  0  1  0  0  0  0  0999 V2000
  -29.7920  -21.3200   20.9180 C   0  0  0  0  0  2  0  0  0  0  0  0
  -30.2630  -19.9830   18.7930 C   0  0  0  0  0  3  0  0  0  0  0  0
  -30.4910  -18.8210   18.0440 C   0  0  0  0  0  3  0  0  0  0  0  0
  -30.0070  -19.9250   20.1750 C   0  0  0  0  0  0  0  0  0  0  0  0
  -30.4920  -17.5400   18.6310 C   0  0  0  0  0  0  0  0  0  0  0  0
  -30.0500  -18.5980   20.7930 C   0  0  0  0  0  0  0  0  0  0  0  0
  -30.3160  -17.3750   20.0370 C   0  0  0  0  0  0  0  0  0  0  0  0
  -30.6180  -16.3670   17.6770 C   0  0  0  0  0  1  0  0  0  0  0  0
  -29.8230  -18.4910   22.2930 C   0  0  0  0  0  1  0  0  0  0  0  0
  -31.0180  -14.8750   20.3270 C   0  0  0  0  0  0  0  0  0  0  0  0
  -30.7760  -12.6140   19.3020 C   0  0  0  0  0  2  0  0  0  0  0  0
  -29.8360  -12.7050   18.0780 C   0  0  0  0  0  2  0  0  0  0  0  0
  -28.3580  -12.6000   18.5030 C   0  0  0  0  0  2  0  0  0  0  0  0
  -28.0110  -13.4710   19.7410 C   0  0  0  0  0  3  0  0  0  0  0  0
  -29.0690  -13.3300   20.8570 C   0  0  0  0  0  2  0  0  0  0  0  0
  -30.3750  -13.6600   20.2720 N   0  0  0  0  0  0  0  0  0  0  0  0
  -32.1990  -14.9650   19.9780 O   0  0  0  0  0  0  0  0  0  0  0  0
  -30.2650  -16.0040   20.6130 N   0  0  0  0  0  0  0  0  0  0  0  0
  -29.4110  -15.7970   21.1080 H   0  0  0  0  0  0  0  0  0  0  0  0
  -25.6300  -14.0910   20.4770 C   0  0  0  0  0  0  0  0  0  0  0  0
  -24.5530  -13.3300   20.8410 C   0  0  0  0  0  0  0  0  0  0  0  0
  -24.9970  -11.9720   20.7970 C   0  0  0  0  0  0  0  0  0  0  0  0
  -26.6620  -13.2000   20.2310 N   0  0  0  0  0  0  0  0  0  0  0  0
  -26.2880  -11.9200   20.4870 N   0  0  0  0  0  0  0  0  0  0  0  0
  -24.2540  -10.7180   20.9740 C   0  0  0  0  0  0  0  0  0  0  0  0
  -24.6430   -9.7570   21.9340 C   0  0  0  0  0  3  0  0  0  0  0  0
  -23.9000   -8.5690   22.0990 C   0  0  0  0  0  3  0  0  0  0  0  0
  -22.7540   -8.3310   21.3030 C   0  0  0  0  0  0  0  0  0  0  0  0
  -22.3840   -9.2800   20.3330 C   0  0  0  0  0  3  0  0  0  0  0  0
  -23.1280  -10.4610   20.1670 C   0  0  0  0  0  3  0  0  0  0  0  0
  -21.9860   -7.1940   21.3750 O   0  0  0  0  0  0  0  0  0  0  0  0
  -21.8280   -6.5060   22.5520 C   0  0  0  0  0  0  0  0  0  0  0  0
  -21.2390   -7.1000   23.6890 C   0  0  0  0  0  3  0  0  0  0  0  0
  -21.0330   -6.3360   24.8550 C   0  0  0  0  0  3  0  0  0  0  0  0
  -21.4060   -4.9790   24.8840 C   0  0  0  0  0  0  0  0  0  0  0  0
  -21.9870   -4.3840   23.7500 C   0  0  0  0  0  3  0  0  0  0  0  0
  -22.1940   -5.1460   22.5860 C   0  0  0  0  0  0  0  0  0  0  0  0
  -22.7360   -4.5620   21.4900 F   0  0  0  0  0  0  0  0  0  0  0  0
  -21.2000   -4.2420   26.0010 F   0  0  0  0  0  0  0  0  0  0  0  0
  -23.1640  -13.8230   21.1190 C   0  0  0  0  0  0  0  0  0  0  0  0
  -22.4320  -13.1380   21.9900 N   0  0  0  0  0  0  0  0  0  0  0  0
  -22.7350  -14.8520   20.5970 O   0  0  0  0  0  0  0  0  0  0  0  0
  -22.7920  -12.3050   22.4330 H   0  0  0  0  0  0  0  0  0  0  0  0
  -21.5000  -13.4490   22.2190 H   0  0  0  0  0  0  0  0  0  0  0  0
  -25.8130  -15.4620   20.3130 N   0  0  0  0  0  0  0  0  0  0  0  0
  -25.0540  -16.1230   20.4280 H   0  0  0  0  0  0  0  0  0  0  0  0
  -26.6640  -15.8920   19.9730 H   0  0  0  0  0  0  0  0  0  0  0  0
  -29.0940  -22.4700   20.1810 N   0  0  0  0  0  4  0  0  0  0  0  0
  -28.1100  -22.2460   20.1790 H   0  0  0  0  0  0  0  0  0  0  0  0
  -29.3980  -22.4320   19.2220 H   0  0  0  0  0  0  0  0  0  0  0  0
  -29.2710  -23.9250   20.6590 C   0  0  0  0  0  3  0  0  0  0  0  0
  -28.2950  -25.0410   20.0270 C   0  0  0  0  0  3  0  0  0  0  0  0
  -28.4740  -26.5100   20.2810 O   0  0  0  0  0  0  0  0  0  0  0  0
  -24.6330  -31.8850   23.2400 C   0  0  0  0  0  0  0  0  0  0  0  0
  -27.3560  -27.3690   20.1880 C   0  0  0  0  0  0  0  0  0  0  0  0
  -23.4720  -30.4730   21.5820 C   0  0  0  0  0  3  0  0  0  0  0  0
  -24.9650  -28.9630   20.1550 C   0  0  0  0  0  0  0  0  0  0  0  0
  -26.0090  -30.8350   21.4270 C   0  0  0  0  0  2  0  0  0  0  0  0
  -26.1200  -29.4610   20.7710 C   0  0  0  0  0  0  0  0  0  0  0  0
  -27.3160  -28.6760   20.7790 C   0  0  0  0  0  3  0  0  0  0  0  0
  -26.1780  -26.9450   19.5280 C   0  0  0  0  0  3  0  0  0  0  0  0
  -24.9980  -27.7120   19.5220 C   0  0  0  0  0  3  0  0  0  0  0  0
  -23.7120  -29.8130   20.2000 C   0  0  0  0  0  2  0  0  0  0  0  0
  -24.7220  -31.0830   22.1390 N   0  0  0  0  0  0  0  0  0  0  0  0
  -23.5400  -32.1400   23.7660 O   0  0  0  0  0  0  0  0  0  0  0  0
  -22.8200  -29.4380   22.5300 C   0  0  0  0  0  0  0  0  0  0  0  0
  -21.5000  -29.2320   22.3860 N   0  0  0  0  0  0  0  0  0  0  0  0
  -23.5020  -28.8240   23.3550 O   0  0  0  0  0  0  0  0  0  0  0  0
  -21.0080  -29.7800   21.6950 H   0  0  0  0  0  0  0  0  0  0  0  0
  -18.1410  -27.9660   22.8470 C   0  0  0  0  0  0  0  0  0  0  0  0
  -20.6910  -28.2740   23.1430 C   0  0  0  0  0  3  0  0  0  0  0  0
  -20.8270  -26.8480   22.5610 C   0  0  0  0  0  2  0  0  0  0  0  0
  -19.7420  -26.5100   21.5340 C   0  0  0  0  0  2  0  0  0  0  0  0
  -18.3500  -26.6240   22.1650 C   0  0  0  0  0  2  0  0  0  0  0  0
  -19.2400  -28.7470   23.2920 C   0  0  0  0  0  0  0  0  0  0  0  0
  -18.9910  -30.0020   23.8880 C   0  0  0  0  0  3  0  0  0  0  0  0
  -17.6750  -30.4760   24.0460 C   0  0  0  0  0  3  0  0  0  0  0  0
  -16.5900  -29.6920   23.6170 C   0  0  0  0  0  3  0  0  0  0  0  0
  -16.8240  -28.4380   23.0230 C   0  0  0  0  0  3  0  0  0  0  0  0
  -25.8980  -32.5390   23.8780 C   0  0  0  0  0  3  0  0  0  0  0  0
  -26.4000  -31.7870   25.1720 C   0  0  1  0  0  0  0  0  0  0  0  0
  -25.2890  -31.5440   26.2210 C   0  0  0  0  0  1  0  0  0  0  0  0
  -27.0100  -30.4140   24.8050 C   0  0  0  0  0  1  0  0  0  0  0  0
  -27.5250  -32.6050   25.8480 C   0  0  0  0  0  1  0  0  0  0  0  0
  -25.5660  -33.9370   24.1890 N   0  0  0  0  0  0  0  0  0  0  0  0
  -25.9050  -34.9880   23.4310 C   0  0  0  0  0  0  0  0  0  0  0  0
  -26.5990  -34.8840   22.4170 O   0  0  0  0  0  0  0  0  0  0  0  0
  -24.9520  -34.0900   24.9760 H   0  0  0  0  0  0  0  0  0  0  0  0
  -24.1820  -36.7730   23.0090 C   0  0  0  0  0  1  0  0  0  0  0  0
  -25.3940  -36.3750   23.8680 C   0  0  0  0  0  3  0  0  0  0  0  0
  -27.4840  -37.2790   24.7850 C   0  0  0  0  0  1  0  0  0  0  0  0
  -26.4240  -37.4330   23.7920 N   0  0  0  0  0  0  0  0  0  0  0  0
  -26.0070  -38.3520   23.9130 H   0  0  0  0  0  0  0  0  0  0  0  0
  2  4  1  0
  3  5  1  0
  3  2  2  0
  4  6  2  0
  4  1  1  0
  5  7  2  0
  6  9  1  0
  7 18  1  0
  7  6  1  0
  8  5  1  0
 10 18  1  0
 11 16  1  0
 12 13  1  0
 12 11  1  0
 14 13  1  0
 14 23  1  0
 14 15  1  0
 16 10  1  0
 16 15  1  0
 17 10  2  0
 18 19  1  0
 20 21  2  0
 21 40  1  0
 22 21  1  0
 22 25  1  0
 23 20  1  0
 23 24  1  0
 24 22  2  0
 25 26  1  0
 26 27  2  0
 28 31  1  0
 28 27  1  0
 29 28  2  0
 30 29  1  0
 30 25  2  0
 31 32  1  0
 32 37  2  0
 32 33  1  0
 33 34  2  0
 34 35  1  0
 35 39  1  0
 36 35  2  0
 37 36  1  0
 38 37  1  0
 40 41  1  0
 41 44  1  0
 41 43  1  0
 42 40  2  0
 45 46  1  0
 45 20  1  0
 47 45  1  0
 48 51  1  0
 48  1  1  0
 49 48  1  0
 50 48  1  0
 52 53  1  0
 52 51  2  0
 54 65  2  0
 55 53  1  0
 55 60  1  0
 56 64  1  0
 56 66  1  0
 57 63  1  0
 57 59  1  0
 58 64  1  0
 59 60  2  0
 59 58  1  0
 61 55  2  0
 62 61  1  0
 62 57  2  0
 63 56  1  0
 64 54  1  0
 66 68  2  0
 67 66  1  0
 69 67  1  0
 70 79  2  0
 70 75  1  0
 71 67  1  0
 71 75  1  0
 72 71  1  0
 73 74  1  0
 73 72  1  0
 74 70  1  0
 75 76  2  0
 76 77  1  0
 78 77  2  0
 79 78  1  0
 80 54  1  0
 80 85  1  0
 80 81  1  0
 81 84  1  1
 81 82  1  0
 83 81  1  0
 85 88  1  0
 86 90  1  0
 86 85  1  0
 87 86  2  0
 90 89  1  0
 92 90  1  0
 92 93  1  0
 92 91  1  0
M  ISO  4  10 100  18 100  52 101  53 101
M  END
>  <TORSDO>  (77) 
F 20

>  <SCORE>  (77) 
-12.183

>  <name>  (77) 
76

>  <ligand_id>  (77) 
76

>  <original_smiles>  (77) 
[H]c1c([H])c([H])c2c(c1[H])C([H])([H])C([H])([H])C([H])([H])C2([H])N([H])C(=O)C1([H])N(C(=O)C([H])(N([H])C(=O)C([H])(N([H])C([H])([H])[H])C([H])([H])[H])C(C([H])([H])[H])(C([H])([H])[H])C([H])([H])[H])C([H])([H])c2c([H])c(OC([H])([H])C([H])([H])[N+]([H])([H])C([H])([H])c3c([H])c([H])c(C([H])([H])[H])c(N([H])C(=O)N4C([H])([H])C([H])([H])C([H])([H])C([H])(n5nc(-c6c([H])c([H])c(Oc7c([H])c([H])c(F)c([H])c7F)c([H])c6[H])c(C(=O)N([H])[H])c5N([H])[H])C4([H])[H])c3C([H])([H])[H])c([H])c([H])c2C1([H])[H]

>  <smiles>  (77) 
[H]c1c([H])c([H])c2c(c1[H])C([H])([H])C([H])([H])C([H])([H])C2([H])N([H])C(=O)C1([H])N(C(=O)C([H])(N([H])C(=O)C([H])(N([H])C([H])([H])[H])C([H])([H])[H])C(C([H])([H])[H])(C([H])([H])[H])C([H])([H])[H])C([H])([H])c2c([H])c(OC([H])([H])C([H])([H])[N+]([H])([H])C([H])([H])c3c([H])c([H])c(C([H])([H])[H])c(N([H])C(=O)N4C([H])([H])C([H])([H])C([H])([H])C([H])(n5nc(-c6c([H])c([H])c(Oc7c([H])c([H])c(F)c([H])c7F)c([H])c6[H])c(C(=O)N([H])[H])c5N([H])[H])C4([H])[H])c3C([H])([H])[H])c([H])c([H])c2C1([H])[H]

$$$$
77:0:0
     RDKit          3D

 95104  0  0  1  0  0  0  0  0999 V2000
  -29.6820  -21.1090   22.2330 C   0  0  0  0  0  2  0  0  0  0  0  0
  -30.1440  -22.4820   21.7150 C   0  0  0  0  0  0  0  0  0  0  0  0
  -29.2240  -23.2970   21.1800 N   0  0  0  0  0  0  0  0  0  0  0  0
  -31.3220  -22.8220   21.8260 O   0  0  0  0  0  0  0  0  0  0  0  0
  -28.2690  -22.9690   21.1200 H   0  0  0  0  0  0  0  0  0  0  0  0
  -29.4780  -24.6810   20.7740 C   0  0  0  0  0  2  0  0  0  0  0  0
  -28.2110  -25.3280   20.1910 C   0  0  0  0  0  2  0  0  0  0  0  0
  -28.3390  -26.7510   20.1380 O   0  0  0  0  0  0  0  0  0  0  0  0
  -24.5550  -31.9040   23.2310 C   0  0  0  0  0  0  0  0  0  0  0  0
  -27.1610  -27.4690   20.1250 C   0  0  0  0  0  0  0  0  0  0  0  0
  -23.3280  -30.5070   21.5990 C   0  0  0  0  0  3  0  0  0  0  0  0
  -24.7630  -28.9690   20.1610 C   0  0  0  0  0  0  0  0  0  0  0  0
  -25.8510  -30.8650   21.3750 C   0  0  0  0  0  2  0  0  0  0  0  0
  -25.9280  -29.4950   20.7340 C   0  0  0  0  0  0  0  0  0  0  0  0
  -27.1300  -28.7540   20.7090 C   0  0  0  0  0  3  0  0  0  0  0  0
  -25.9770  -26.9550   19.5440 C   0  0  0  0  0  3  0  0  0  0  0  0
  -24.7820  -27.6980   19.5640 C   0  0  0  0  0  3  0  0  0  0  0  0
  -23.5220  -29.8280   20.2170 C   0  0  0  0  0  2  0  0  0  0  0  0
  -24.5970  -31.1060   22.1270 N   0  0  0  0  0  0  0  0  0  0  0  0
  -23.4810  -32.1790   23.7830 O   0  0  0  0  0  0  0  0  0  0  0  0
  -22.6850  -29.4870   22.5650 C   0  0  0  0  0  0  0  0  0  0  0  0
  -21.3600  -29.3070   22.4480 N   0  0  0  0  0  0  0  0  0  0  0  0
  -23.3750  -28.8590   23.3730 O   0  0  0  0  0  0  0  0  0  0  0  0
  -20.8650  -29.8680   21.7690 H   0  0  0  0  0  0  0  0  0  0  0  0
  -17.9890  -28.1160   22.9640 C   0  0  0  0  0  0  0  0  0  0  0  0
  -20.5480  -28.3710   23.2240 C   0  0  0  0  0  3  0  0  0  0  0  0
  -20.6460  -26.9390   22.6500 C   0  0  0  0  0  2  0  0  0  0  0  0
  -19.5390  -26.6160   21.6410 C   0  0  0  0  0  2  0  0  0  0  0  0
  -18.1600  -26.7640   22.2910 C   0  0  0  0  0  2  0  0  0  0  0  0
  -19.1110  -28.8770   23.3880 C   0  0  0  0  0  0  0  0  0  0  0  0
  -18.8970  -30.1440   23.9750 C   0  0  0  0  0  3  0  0  0  0  0  0
  -17.5950  -30.6490   24.1450 C   0  0  0  0  0  3  0  0  0  0  0  0
  -16.4870  -29.8850   23.7390 C   0  0  0  0  0  3  0  0  0  0  0  0
  -16.6850  -28.6210   23.1550 C   0  0  0  0  0  3  0  0  0  0  0  0
  -25.8500  -32.5310   23.8380 C   0  0  0  0  0  3  0  0  0  0  0  0
  -25.5490  -33.9270   24.1800 N   0  0  0  0  0  0  0  0  0  0  0  0
  -25.8770  -34.9820   23.4220 C   0  0  0  0  0  0  0  0  0  0  0  0
  -26.5380  -34.8820   22.3850 O   0  0  0  0  0  0  0  0  0  0  0  0
  -24.9640  -34.0790   24.9890 H   0  0  0  0  0  0  0  0  0  0  0  0
  -24.1510  -36.7780   23.0860 C   0  0  0  0  0  1  0  0  0  0  0  0
  -25.3950  -36.3680   23.8890 C   0  0  0  0  0  3  0  0  0  0  0  0
  -27.5370  -37.2390   24.7130 C   0  0  0  0  0  1  0  0  0  0  0  0
  -26.4280  -37.4190   23.7780 N   0  0  0  0  0  0  0  0  0  0  0  0
  -26.0270  -38.3390   23.9380 H   0  0  0  0  0  0  0  0  0  0  0  0
  -26.3860  -31.7500   25.1000 C   0  0  1  0  0  0  0  0  0  0  0  0
  -25.3090  -31.5050   26.1830 C   0  0  0  0  0  1  0  0  0  0  0  0
  -26.9630  -30.3770   24.6860 C   0  0  0  0  0  1  0  0  0  0  0  0
  -27.5490  -32.5370   25.7520 C   0  0  0  0  0  1  0  0  0  0  0  0
  -30.6760  -19.9510   21.9260 C   0  0  0  0  0  2  0  0  0  0  0  0
  -30.5870  -19.4990   18.9250 C   0  0  0  0  0  2  0  0  0  0  0  0
  -31.7650  -18.6460   19.4500 C   0  0  0  0  0  2  0  0  0  0  0  0
  -28.9280  -17.6800   19.5050 C   0  0  0  0  0  2  0  0  0  0  0  0
  -30.1580  -16.8170   19.8560 C   0  0  0  0  0  3  0  0  0  0  0  0
  -29.4310  -19.0920   19.8710 C   0  0  0  0  0  3  0  0  0  0  0  0
  -31.0760  -17.8410   20.5780 C   0  0  0  0  0  3  0  0  0  0  0  0
  -30.1090  -18.8080   21.1430 N   0  0  1  0  0  4  0  0  0  0  0  0
  -29.4720  -18.3050   21.7430 H   0  0  0  0  0  0  0  0  0  0  0  0
  -30.6650  -14.4880   20.4320 C   0  0  0  0  0  0  0  0  0  0  0  0
  -30.3630  -12.3160   19.3530 C   0  0  0  0  0  2  0  0  0  0  0  0
  -29.4320  -12.5240   18.1390 C   0  0  0  0  0  2  0  0  0  0  0  0
  -27.9560  -12.3910   18.5620 C   0  0  0  0  0  2  0  0  0  0  0  0
  -27.6090  -13.2430   19.8130 C   0  0  0  0  0  3  0  0  0  0  0  0
  -28.6600  -13.0480   20.9320 C   0  0  0  0  0  2  0  0  0  0  0  0
  -29.9910  -13.3130   20.3650 N   0  0  0  0  0  0  0  0  0  0  0  0
  -31.8330  -14.6280   20.0620 O   0  0  0  0  0  0  0  0  0  0  0  0
  -29.8810  -15.5690   20.5870 N   0  0  0  0  0  0  0  0  0  0  0  0
  -28.9340  -15.3880   20.8810 H   0  0  0  0  0  0  0  0  0  0  0  0
  -25.2060  -13.8500   20.5070 C   0  0  0  0  0  0  0  0  0  0  0  0
  -24.1390  -13.0770   20.8770 C   0  0  0  0  0  0  0  0  0  0  0  0
  -24.6050  -11.7270   20.8590 C   0  0  0  0  0  0  0  0  0  0  0  0
  -26.2540  -12.9700   20.2870 N   0  0  0  0  0  0  0  0  0  0  0  0
  -25.8960  -11.6890   20.5590 N   0  0  0  0  0  0  0  0  0  0  0  0
  -23.8820  -10.4630   21.0530 C   0  0  0  0  0  0  0  0  0  0  0  0
  -24.3260   -9.4940   21.9810 C   0  0  0  0  0  3  0  0  0  0  0  0
  -23.6060   -8.2940   22.1630 C   0  0  0  0  0  3  0  0  0  0  0  0
  -22.4280   -8.0540   21.4160 C   0  0  0  0  0  0  0  0  0  0  0  0
  -22.0030   -9.0110   20.4790 C   0  0  0  0  0  3  0  0  0  0  0  0
  -22.7240  -10.2030   20.2950 C   0  0  0  0  0  3  0  0  0  0  0  0
  -21.6780   -6.9070   21.5090 O   0  0  0  0  0  0  0  0  0  0  0  0
  -21.6540   -6.1530   22.6540 C   0  0  0  0  0  0  0  0  0  0  0  0
  -21.2620   -6.6960   23.8970 C   0  0  0  0  0  3  0  0  0  0  0  0
  -21.1850   -5.8690   25.0340 C   0  0  0  0  0  3  0  0  0  0  0  0
  -21.4900   -4.4980   24.9310 C   0  0  0  0  0  0  0  0  0  0  0  0
  -21.8740   -3.9540   23.6930 C   0  0  0  0  0  3  0  0  0  0  0  0
  -21.9530   -4.7780   22.5570 C   0  0  0  0  0  0  0  0  0  0  0  0
  -22.3040   -4.2450   21.3630 F   0  0  0  0  0  0  0  0  0  0  0  0
  -21.4080   -3.7010   26.0220 F   0  0  0  0  0  0  0  0  0  0  0  0
  -22.7390  -13.5510   21.1380 C   0  0  0  0  0  0  0  0  0  0  0  0
  -22.0070  -12.8570   22.0060 N   0  0  0  0  0  0  0  0  0  0  0  0
  -22.2990  -14.5710   20.6090 O   0  0  0  0  0  0  0  0  0  0  0  0
  -22.3730  -12.0330   22.4560 H   0  0  0  0  0  0  0  0  0  0  0  0
  -21.0670  -13.1580   22.2230 H   0  0  0  0  0  0  0  0  0  0  0  0
  -25.3660  -15.2200   20.3140 N   0  0  0  0  0  0  0  0  0  0  0  0
  -24.5860  -15.8620   20.3930 H   0  0  0  0  0  0  0  0  0  0  0  0
  -26.1950  -15.6470   19.9240 H   0  0  0  0  0  0  0  0  0  0  0  0
  2  4  2  0
  2  1  1  0
  3  2  1  0
  5  3  1  0
  6  3  1  0
  7  6  1  0
  8  7  1  0
  9 20  2  0
 10  8  1  0
 10 15  1  0
 11 19  1  0
 11 21  1  0
 12 18  1  0
 12 14  1  0
 13 19  1  0
 14 13  1  0
 15 14  2  0
 16 17  1  0
 16 10  2  0
 17 12  2  0
 18 11  1  0
 19  9  1  0
 21 23  2  0
 22 21  1  0
 24 22  1  0
 25 34  2  0
 25 30  1  0
 26 22  1  0
 26 30  1  0
 27 26  1  0
 28 29  1  0
 28 27  1  0
 29 25  1  0
 30 31  2  0
 31 32  1  0
 33 32  2  0
 34 33  1  0
 35  9  1  0
 35 36  1  0
 35 45  1  0
 36 39  1  0
 37 41  1  0
 37 36  1  0
 38 37  2  0
 41 40  1  0
 43 41  1  0
 43 44  1  0
 43 42  1  0
 45 48  1  1
 45 46  1  0
 47 45  1  0
 49  1  1  0
 50 51  1  0
 52 53  1  0
 52 54  1  0
 53 55  1  0
 53 66  1  0
 54 50  1  0
 54 56  1  0
 55 51  1  0
 55 56  1  0
 56 57  1  1
 56 49  1  0
 58 66  1  0
 59 64  1  0
 60 61  1  0
 60 59  1  0
 62 61  1  0
 62 71  1  0
 62 63  1  0
 64 58  1  0
 64 63  1  0
 65 58  2  0
 66 67  1  0
 68 69  2  0
 69 88  1  0
 70 69  1  0
 70 73  1  0
 71 68  1  0
 71 72  1  0
 72 70  2  0
 73 74  1  0
 74 75  2  0
 76 79  1  0
 76 75  1  0
 77 76  2  0
 78 77  1  0
 78 73  2  0
 79 80  1  0
 80 81  1  0
 81 82  2  0
 83 82  1  0
 83 87  1  0
 84 83  2  0
 85 80  2  0
 85 84  1  0
 86 85  1  0
 88 89  1  0
 89 92  1  0
 89 91  1  0
 90 88  2  0
 93 94  1  0
 93 68  1  0
 95 93  1  0
M  ISO  4   7 101   8 101  58 100  66 100
M  END
>  <TORSDO>  (78) 
F 21

>  <SCORE>  (78) 
-13.614

>  <name>  (78) 
77

>  <ligand_id>  (78) 
77

>  <original_smiles>  (78) 
[H]c1c([H])c([H])c2c(c1[H])C([H])([H])C([H])([H])C([H])([H])C2([H])N([H])C(=O)C1([H])N(C(=O)C([H])(N([H])C(=O)C([H])(N([H])C([H])([H])[H])C([H])([H])[H])C(C([H])([H])[H])(C([H])([H])[H])C([H])([H])[H])C([H])([H])c2c([H])c(OC([H])([H])C([H])([H])N([H])C(=O)C([H])([H])C([H])([H])[N+]3([H])C4([H])C([H])([H])C([H])([H])C3([H])C([H])(N([H])C(=O)N3C([H])([H])C([H])([H])C([H])([H])C([H])(n5nc(-c6c([H])c([H])c(Oc7c([H])c([H])c(F)c([H])c7F)c([H])c6[H])c(C(=O)N([H])[H])c5N([H])[H])C3([H])[H])C4([H])[H])c([H])c([H])c2C1([H])[H]

>  <smiles>  (78) 
[H]c1c([H])c([H])c2c(c1[H])C([H])([H])C([H])([H])C([H])([H])C2([H])N([H])C(=O)C1([H])N(C(=O)C([H])(N([H])C(=O)C([H])(N([H])C([H])([H])[H])C([H])([H])[H])C(C([H])([H])[H])(C([H])([H])[H])C([H])([H])[H])C([H])([H])c2c([H])c(OC([H])([H])C([H])([H])N([H])C(=O)C([H])([H])C([H])([H])[N+]3([H])C4([H])C([H])([H])C([H])([H])C3([H])C([H])(N([H])C(=O)N3C([H])([H])C([H])([H])C([H])([H])C([H])(n5nc(-c6c([H])c([H])c(Oc7c([H])c([H])c(F)c([H])c7F)c([H])c6[H])c(C(=O)N([H])[H])c5N([H])[H])C3([H])[H])C4([H])[H])c([H])c([H])c2C1([H])[H]

$$$$
78:0:0
     RDKit          3D

 95103  0  0  1  0  0  0  0  0999 V2000
  -28.6470  -21.8190   20.3440 C   0  0  0  0  0  3  0  0  0  0  0  0
  -27.1980  -21.7020   20.5800 N   0  0  0  0  0  4  0  0  0  0  0  0
  -26.7190  -22.5020   20.2080 H   0  0  0  0  0  0  0  0  0  0  0  0
  -26.9930  -21.6270   21.5620 H   0  0  0  0  0  0  0  0  0  0  0  0
  -26.8330  -20.8880   20.1140 H   0  0  0  0  0  0  0  0  0  0  0  0
  -29.4170  -20.5030   20.8110 C   0  0  0  0  0  2  0  0  0  0  0  0
  -28.8600  -17.9210   20.9580 C   0  0  0  0  0  3  0  0  0  0  0  0
  -28.5900  -19.2400   21.1490 C   0  0  0  0  0  3  0  0  0  0  0  0
  -30.9590  -14.7650   20.2860 C   0  0  0  0  0  0  0  0  0  0  0  0
  -30.7960  -12.4640   19.4520 C   0  0  0  0  0  2  0  0  0  0  0  0
  -29.8930  -12.4940   18.2010 C   0  0  0  0  0  2  0  0  0  0  0  0
  -28.4030  -12.3990   18.5870 C   0  0  0  0  0  2  0  0  0  0  0  0
  -28.0020  -13.3390   19.7550 C   0  0  0  0  0  3  0  0  0  0  0  0
  -29.0260  -13.2890   20.9080 C   0  0  0  0  0  2  0  0  0  0  0  0
  -30.3530  -13.5480   20.3390 N   0  0  0  0  0  0  0  0  0  0  0  0
  -32.1810  -14.8910   20.1550 O   0  0  0  0  0  0  0  0  0  0  0  0
  -29.4460  -17.3420   18.9010 C   0  0  0  0  0  2  0  0  0  0  0  0
  -30.3140  -16.2060   18.5080 C   0  0  0  0  0  2  0  0  0  0  0  0
  -30.0860  -17.2390   20.3120 C   0  0  0  0  0  3  0  0  0  0  0  0
  -30.1200  -15.7770   19.8950 N   0  0  0  0  0  0  0  0  0  0  0  0
  -25.6070  -13.9660   20.4410 C   0  0  0  0  0  0  0  0  0  0  0  0
  -24.5270  -13.2000   20.7910 C   0  0  0  0  0  0  0  0  0  0  0  0
  -24.9800  -11.8460   20.7740 C   0  0  0  0  0  0  0  0  0  0  0  0
  -26.6450  -13.0750   20.2240 N   0  0  0  0  0  0  0  0  0  0  0  0
  -26.2730  -11.7970   20.4870 N   0  0  0  0  0  0  0  0  0  0  0  0
  -24.2410  -10.5880   20.9530 C   0  0  0  0  0  0  0  0  0  0  0  0
  -24.6030   -9.6560   21.9510 C   0  0  0  0  0  3  0  0  0  0  0  0
  -23.8630   -8.4660   22.1200 C   0  0  0  0  0  3  0  0  0  0  0  0
  -22.7510   -8.1970   21.2870 C   0  0  0  0  0  0  0  0  0  0  0  0
  -22.4090   -9.1180   20.2800 C   0  0  0  0  0  3  0  0  0  0  0  0
  -23.1500  -10.3000   20.1100 C   0  0  0  0  0  3  0  0  0  0  0  0
  -21.9940   -7.0510   21.3570 O   0  0  0  0  0  0  0  0  0  0  0  0
  -21.7920   -6.3970   22.5460 C   0  0  0  0  0  0  0  0  0  0  0  0
  -21.1790   -7.0280   23.6500 C   0  0  0  0  0  3  0  0  0  0  0  0
  -20.9230   -6.2990   24.8270 C   0  0  0  0  0  3  0  0  0  0  0  0
  -21.2730   -4.9360   24.9020 C   0  0  0  0  0  0  0  0  0  0  0  0
  -21.8840   -4.3050   23.8020 C   0  0  0  0  0  3  0  0  0  0  0  0
  -22.1390   -5.0330   22.6270 C   0  0  0  0  0  0  0  0  0  0  0  0
  -22.7040   -4.4150   21.5630 F   0  0  0  0  0  0  0  0  0  0  0  0
  -21.0250   -4.2310   26.0290 F   0  0  0  0  0  0  0  0  0  0  0  0
  -23.1280  -13.6880   21.0340 C   0  0  0  0  0  0  0  0  0  0  0  0
  -22.3820  -13.0000   21.8910 N   0  0  0  0  0  0  0  0  0  0  0  0
  -22.7040  -14.7100   20.4970 O   0  0  0  0  0  0  0  0  0  0  0  0
  -22.7360  -12.1680   22.3430 H   0  0  0  0  0  0  0  0  0  0  0  0
  -21.4430  -13.3090   22.1000 H   0  0  0  0  0  0  0  0  0  0  0  0
  -25.7880  -15.3350   20.2690 N   0  0  0  0  0  0  0  0  0  0  0  0
  -25.0480  -16.0120   20.4100 H   0  0  0  0  0  0  0  0  0  0  0  0
  -26.6560  -15.7540   19.9550 H   0  0  0  0  0  0  0  0  0  0  0  0
  -29.2560  -23.1180   21.0190 C   0  0  0  0  0  2  0  0  0  0  0  0
  -27.1560  -24.5670   21.6160 C   0  0  0  0  0  1  0  0  0  0  0  0
  -28.6050  -24.5830   21.0770 C   0  0  1  0  0  0  0  0  0  0  0  0
  -29.4680  -25.0530   23.5590 C   0  0  0  0  0  1  0  0  0  0  0  0
  -29.4950  -25.4180   22.0600 C   0  0  0  0  0  2  0  0  0  0  0  0
  -28.6290  -25.3670   19.7050 C   0  0  0  0  0  2  0  0  0  0  0  0
  -28.5380  -26.8240   19.7830 O   0  0  0  0  0  0  0  0  0  0  0  0
  -24.6240  -31.8080   23.0990 C   0  0  0  0  0  0  0  0  0  0  0  0
  -27.3290  -27.5080   19.8210 C   0  0  0  0  0  0  0  0  0  0  0  0
  -23.4290  -30.4420   21.4220 C   0  0  0  0  0  3  0  0  0  0  0  0
  -24.8960  -28.9810   19.9260 C   0  0  0  0  0  0  0  0  0  0  0  0
  -25.9470  -30.8580   21.2020 C   0  0  0  0  0  2  0  0  0  0  0  0
  -26.0540  -29.5090   20.5110 C   0  0  0  0  0  0  0  0  0  0  0  0
  -27.2680  -28.7810   20.4470 C   0  0  0  0  0  3  0  0  0  0  0  0
  -26.1470  -26.9990   19.2380 C   0  0  0  0  0  3  0  0  0  0  0  0
  -24.9390  -27.7260   19.2940 C   0  0  0  0  0  3  0  0  0  0  0  0
  -23.6360  -29.8150   20.0190 C   0  0  0  0  0  2  0  0  0  0  0  0
  -24.6870  -31.0520   21.9650 N   0  0  0  0  0  0  0  0  0  0  0  0
  -23.5450  -32.0310   23.6660 O   0  0  0  0  0  0  0  0  0  0  0  0
  -22.8170  -29.3710   22.3540 C   0  0  0  0  0  0  0  0  0  0  0  0
  -21.4980  -29.1560   22.2420 N   0  0  0  0  0  0  0  0  0  0  0  0
  -23.5320  -28.7360   23.1350 O   0  0  0  0  0  0  0  0  0  0  0  0
  -20.9830  -29.7230   21.5820 H   0  0  0  0  0  0  0  0  0  0  0  0
  -18.1680  -27.8460   22.7390 C   0  0  0  0  0  0  0  0  0  0  0  0
  -20.7210  -28.1660   22.9890 C   0  0  0  0  0  3  0  0  0  0  0  0
  -20.8600  -26.7630   22.3560 C   0  0  0  0  0  2  0  0  0  0  0  0
  -19.7520  -26.4440   21.3480 C   0  0  0  0  0  2  0  0  0  0  0  0
  -18.3750  -26.5270   22.0120 C   0  0  0  0  0  2  0  0  0  0  0  0
  -19.2700  -28.6220   23.1850 C   0  0  0  0  0  0  0  0  0  0  0  0
  -19.0230  -29.8560   23.8260 C   0  0  0  0  0  3  0  0  0  0  0  0
  -17.7050  -30.3110   24.0280 C   0  0  0  0  0  3  0  0  0  0  0  0
  -16.6170  -29.5310   23.6010 C   0  0  0  0  0  3  0  0  0  0  0  0
  -16.8510  -28.3010   22.9590 C   0  0  0  0  0  3  0  0  0  0  0  0
  -25.9040  -32.4520   23.7200 C   0  0  0  0  0  3  0  0  0  0  0  0
  -26.4510  -31.6580   24.9690 C   0  0  1  0  0  0  0  0  0  0  0  0
  -25.3770  -31.3700   26.0440 C   0  0  0  0  0  1  0  0  0  0  0  0
  -27.0600  -30.3060   24.5320 C   0  0  0  0  0  1  0  0  0  0  0  0
  -27.5870  -32.4600   25.6450 C   0  0  0  0  0  1  0  0  0  0  0  0
  -25.5670  -33.8330   24.0940 N   0  0  0  0  0  0  0  0  0  0  0  0
  -25.8660  -34.9140   23.3640 C   0  0  0  0  0  0  0  0  0  0  0  0
  -26.5260  -34.8540   22.3230 O   0  0  0  0  0  0  0  0  0  0  0  0
  -24.9810  -33.9480   24.9080 H   0  0  0  0  0  0  0  0  0  0  0  0
  -24.1010  -36.6850   23.0690 C   0  0  0  0  0  1  0  0  0  0  0  0
  -25.3520  -36.2770   23.8640 C   0  0  0  0  0  3  0  0  0  0  0  0
  -27.4640  -37.1880   24.7240 C   0  0  0  0  0  1  0  0  0  0  0  0
  -26.3620  -37.3540   23.7810 N   0  0  0  0  0  0  0  0  0  0  0  0
  -25.9350  -38.2620   23.9470 H   0  0  0  0  0  0  0  0  0  0  0  0
  1  2  1  0
  1  6  1  0
  1 49  1  0
  2  4  1  0
  3  2  1  0
  5  2  1  0
  6  8  1  0
  7  8  2  0
  9 15  1  0
 10 15  1  0
 11 12  1  0
 11 10  1  0
 13 12  1  0
 13 24  1  0
 13 14  1  0
 15 14  1  0
 16  9  2  0
 17 19  1  0
 18 17  1  0
 18 20  1  0
 19  7  1  0
 20  9  1  0
 20 19  1  0
 21 22  2  0
 22 41  1  0
 23 22  1  0
 23 26  1  0
 24 21  1  0
 24 25  1  0
 25 23  2  0
 26 27  1  0
 27 28  2  0
 29 32  1  0
 29 28  1  0
 30 29  2  0
 31 30  1  0
 31 26  2  0
 32 33  1  0
 33 38  2  0
 33 34  1  0
 34 35  2  0
 35 36  1  0
 36 40  1  0
 37 36  2  0
 38 37  1  0
 39 38  1  0
 41 42  1  0
 42 45  1  0
 42 44  1  0
 43 41  2  0
 46 47  1  0
 46 21  1  0
 48 46  1  0
 49 51  1  0
 51 50  1  1
 51 53  1  0
 53 52  1  0
 54 55  1  0
 54 51  1  0
 55 57  1  0
 56 67  2  0
 57 62  1  0
 58 66  1  0
 58 68  1  0
 59 65  1  0
 59 61  1  0
 60 66  1  0
 61 60  1  0
 62 61  2  0
 63 64  1  0
 63 57  2  0
 64 59  2  0
 65 58  1  0
 66 56  1  0
 68 70  2  0
 69 68  1  0
 71 69  1  0
 72 81  2  0
 72 77  1  0
 73 69  1  0
 73 77  1  0
 74 73  1  0
 75 76  1  0
 75 74  1  0
 76 72  1  0
 77 78  2  0
 78 79  1  0
 80 79  2  0
 81 80  1  0
 82 56  1  0
 82 87  1  0
 82 83  1  0
 83 86  1  1
 83 84  1  0
 85 83  1  0
 87 90  1  0
 88 92  1  0
 88 87  1  0
 89 88  2  0
 92 91  1  0
 94 92  1  0
 94 95  1  0
 94 93  1  0
M  ISO  4   9 100  20 100  54 101  55 101
M  END
>  <TORSDO>  (79) 
F 23

>  <SCORE>  (79) 
-11.764

>  <name>  (79) 
78

>  <ligand_id>  (79) 
78

>  <original_smiles>  (79) 
[H]C(=C([H])C1([H])N(C(=O)N2C([H])([H])C([H])([H])C([H])([H])C([H])(n3nc(-c4c([H])c([H])c(Oc5c([H])c([H])c(F)c([H])c5F)c([H])c4[H])c(C(=O)N([H])[H])c3N([H])[H])C2([H])[H])C([H])([H])C1([H])[H])C([H])([H])C([H])(C([H])([H])C(C([H])([H])[H])(C([H])([H])Oc1c([H])c([H])c2c(c1[H])C([H])([H])N(C(=O)C([H])(N([H])C(=O)C([H])(N([H])C([H])([H])[H])C([H])([H])[H])C(C([H])([H])[H])(C([H])([H])[H])C([H])([H])[H])C([H])(C(=O)N([H])C1([H])c3c([H])c([H])c([H])c([H])c3C([H])([H])C([H])([H])C1([H])[H])C2([H])[H])C([H])([H])C([H])([H])[H])[N+]([H])([H])[H]

>  <smiles>  (79) 
[H]C(=C([H])C1([H])N(C(=O)N2C([H])([H])C([H])([H])C([H])([H])C([H])(n3nc(-c4c([H])c([H])c(Oc5c([H])c([H])c(F)c([H])c5F)c([H])c4[H])c(C(=O)N([H])[H])c3N([H])[H])C2([H])[H])C([H])([H])C1([H])[H])C([H])([H])C([H])(C([H])([H])C(C([H])([H])[H])(C([H])([H])Oc1c([H])c([H])c2c(c1[H])C([H])([H])N(C(=O)C([H])(N([H])C(=O)C([H])(N([H])C([H])([H])[H])C([H])([H])[H])C(C([H])([H])[H])(C([H])([H])[H])C([H])([H])[H])C([H])(C(=O)N([H])C1([H])c3c([H])c([H])c([H])c([H])c3C([H])([H])C([H])([H])C1([H])[H])C2([H])[H])C([H])([H])C([H])([H])[H])[N+]([H])([H])[H]

$$$$
79:0:0
     RDKit          3D

 92101  0  0  1  0  0  0  0  0999 V2000
  -26.6340  -21.1490   19.7950 C   0  0  0  0  0  2  0  0  0  0  0  0
  -27.9030  -19.4320   18.4510 C   0  0  0  0  0  0  0  0  0  0  0  0
  -28.0060  -19.2520   20.7610 C   0  0  0  0  0  2  0  0  0  0  0  0
  -28.5760  -18.1260   18.7160 C   0  0  0  0  0  3  0  0  0  0  0  0
  -28.6960  -18.0320   20.2120 C   0  0  0  0  0  3  0  0  0  0  0  0
  -29.9480  -18.1080   19.3600 C   0  0  0  0  0  3  0  0  0  0  0  0
  -27.5680  -20.0300   19.6100 N   0  0  0  0  0  0  0  0  0  0  0  0
  -27.6490  -19.8620   17.3250 O   0  0  0  0  0  0  0  0  0  0  0  0
  -30.9010  -16.9280   19.2000 C   0  0  0  0  0  2  0  0  0  0  0  0
  -31.1240  -14.4560   19.2740 C   0  0  0  0  0  0  0  0  0  0  0  0
  -30.7990  -12.0960   18.6750 C   0  0  0  0  0  2  0  0  0  0  0  0
  -29.7710  -12.0150   17.5290 C   0  0  0  0  0  2  0  0  0  0  0  0
  -28.3380  -11.9570   18.0920 C   0  0  0  0  0  2  0  0  0  0  0  0
  -28.0610  -13.0590   19.1490 C   0  0  0  0  0  3  0  0  0  0  0  0
  -29.1970  -13.1150   20.1950 C   0  0  0  0  0  2  0  0  0  0  0  0
  -30.4690  -13.2850   19.4770 N   0  0  0  0  0  0  0  0  0  0  0  0
  -32.2300  -14.5230   18.7340 O   0  0  0  0  0  0  0  0  0  0  0  0
  -30.4190  -15.5740   19.5200 N   0  0  0  0  0  0  0  0  0  0  0  0
  -29.5020  -15.4650   19.9260 H   0  0  0  0  0  0  0  0  0  0  0  0
  -25.8030  -13.8170   20.1240 C   0  0  0  0  0  0  0  0  0  0  0  0
  -24.7350  -13.1180   20.6110 C   0  0  0  0  0  0  0  0  0  0  0  0
  -25.0960  -11.7370   20.5300 C   0  0  0  0  0  0  0  0  0  0  0  0
  -26.7550  -12.8720   19.7810 N   0  0  0  0  0  0  0  0  0  0  0  0
  -26.3380  -11.6140   20.0790 N   0  0  0  0  0  0  0  0  0  0  0  0
  -24.3120  -10.5280   20.8010 C   0  0  0  0  0  0  0  0  0  0  0  0
  -24.6920   -9.6130   21.8070 C   0  0  0  0  0  3  0  0  0  0  0  0
  -23.9130   -8.4630   22.0590 C   0  0  0  0  0  3  0  0  0  0  0  0
  -22.7390   -8.2200   21.3050 C   0  0  0  0  0  0  0  0  0  0  0  0
  -22.3810   -9.1210   20.2870 C   0  0  0  0  0  3  0  0  0  0  0  0
  -23.1600  -10.2630   20.0330 C   0  0  0  0  0  3  0  0  0  0  0  0
  -21.9340   -7.1180   21.4630 O   0  0  0  0  0  0  0  0  0  0  0  0
  -21.7370   -6.5390   22.6910 C   0  0  0  0  0  0  0  0  0  0  0  0
  -21.1700   -7.2520   23.7690 C   0  0  0  0  0  3  0  0  0  0  0  0
  -20.9150   -6.5960   24.9910 C   0  0  0  0  0  3  0  0  0  0  0  0
  -21.2220   -5.2310   25.1360 C   0  0  0  0  0  0  0  0  0  0  0  0
  -21.7860   -4.5190   24.0620 C   0  0  0  0  0  3  0  0  0  0  0  0
  -22.0390   -5.1710   22.8430 C   0  0  0  0  0  0  0  0  0  0  0  0
  -22.5590   -4.4720   21.8040 F   0  0  0  0  0  0  0  0  0  0  0  0
  -20.9730   -4.6000   26.3080 F   0  0  0  0  0  0  0  0  0  0  0  0
  -23.4130  -13.6860   21.0410 C   0  0  0  0  0  0  0  0  0  0  0  0
  -22.7560  -13.0440   21.9990 N   0  0  0  0  0  0  0  0  0  0  0  0
  -22.9770  -14.7310   20.5580 O   0  0  0  0  0  0  0  0  0  0  0  0
  -23.1240  -12.1970   22.4070 H   0  0  0  0  0  0  0  0  0  0  0  0
  -21.8740  -13.4050   22.3340 H   0  0  0  0  0  0  0  0  0  0  0  0
  -26.0370  -15.1740   19.9240 N   0  0  0  0  0  0  0  0  0  0  0  0
  -25.3200  -15.8720   20.0850 H   0  0  0  0  0  0  0  0  0  0  0  0
  -26.8530  -15.5440   19.4560 H   0  0  0  0  0  0  0  0  0  0  0  0
  -27.1970  -22.5690   19.5390 C   0  0  0  0  0  2  0  0  0  0  0  0
  -28.3190  -23.0240   20.4930 C   0  0  0  0  0  2  0  0  0  0  0  0
  -28.3700  -24.5500   20.7570 C   0  0  0  0  0  2  0  0  0  0  0  0
  -28.8250  -25.4460   19.5850 C   0  0  0  0  0  2  0  0  0  0  0  0
  -28.7450  -26.8410   19.9290 O   0  0  0  0  0  0  0  0  0  0  0  0
  -24.5790  -31.6300   23.1630 C   0  0  0  0  0  0  0  0  0  0  0  0
  -27.5190  -27.4830   19.9230 C   0  0  0  0  0  0  0  0  0  0  0  0
  -23.4960  -30.2770   21.4000 C   0  0  0  0  0  3  0  0  0  0  0  0
  -25.0560  -28.8840   19.9490 C   0  0  0  0  0  0  0  0  0  0  0  0
  -26.0100  -30.7480   21.3190 C   0  0  0  0  0  2  0  0  0  0  0  0
  -26.1720  -29.4210   20.6010 C   0  0  0  0  0  0  0  0  0  0  0  0
  -27.4060  -28.7330   20.5750 C   0  0  0  0  0  3  0  0  0  0  0  0
  -26.3750  -26.9510   19.2810 C   0  0  0  0  0  3  0  0  0  0  0  0
  -25.1510  -27.6470   19.2890 C   0  0  0  0  0  3  0  0  0  0  0  0
  -23.7810  -29.6950   19.9930 C   0  0  0  0  0  2  0  0  0  0  0  0
  -24.7110  -30.8990   22.0190 N   0  0  0  0  0  0  0  0  0  0  0  0
  -23.4670  -31.8240   23.6750 O   0  0  0  0  0  0  0  0  0  0  0  0
  -22.8560  -29.1760   22.2750 C   0  0  0  0  0  0  0  0  0  0  0  0
  -21.5420  -28.9660   22.0990 N   0  0  0  0  0  0  0  0  0  0  0  0
  -23.5400  -28.5210   23.0670 O   0  0  0  0  0  0  0  0  0  0  0  0
  -21.0570  -29.5450   21.4260 H   0  0  0  0  0  0  0  0  0  0  0  0
  -18.1900  -27.6460   22.4650 C   0  0  0  0  0  0  0  0  0  0  0  0
  -20.7380  -27.9580   22.7920 C   0  0  0  0  0  3  0  0  0  0  0  0
  -20.8830  -26.5710   22.1270 C   0  0  0  0  0  2  0  0  0  0  0  0
  -19.8110  -26.3000   21.0690 C   0  0  0  0  0  2  0  0  0  0  0  0
  -18.4190  -26.3480   21.7030 C   0  0  0  0  0  2  0  0  0  0  0  0
  -19.2820  -28.4100   22.9610 C   0  0  0  0  0  0  0  0  0  0  0  0
  -19.0190  -29.6220   23.6330 C   0  0  0  0  0  3  0  0  0  0  0  0
  -17.7000  -30.0730   23.8190 C   0  0  0  0  0  3  0  0  0  0  0  0
  -16.6230  -29.3070   23.3390 C   0  0  0  0  0  3  0  0  0  0  0  0
  -16.8690  -28.0960   22.6650 C   0  0  0  0  0  3  0  0  0  0  0  0
  -25.8120  -32.2780   23.8650 C   0  0  0  0  0  3  0  0  0  0  0  0
  -25.4480  -33.6610   24.2070 N   0  0  0  0  0  0  0  0  0  0  0  0
  -25.7820  -34.7360   23.4800 C   0  0  0  0  0  0  0  0  0  0  0  0
  -26.5020  -34.6710   22.4800 O   0  0  0  0  0  0  0  0  0  0  0  0
  -24.8070  -33.7820   24.9770 H   0  0  0  0  0  0  0  0  0  0  0  0
  -24.0100  -36.4780   23.0860 C   0  0  0  0  0  1  0  0  0  0  0  0
  -25.2320  -36.1000   23.9380 C   0  0  0  0  0  3  0  0  0  0  0  0
  -27.3000  -37.0460   24.8660 C   0  0  0  0  0  1  0  0  0  0  0  0
  -26.2340  -37.1870   23.8770 N   0  0  0  0  0  0  0  0  0  0  0  0
  -25.7940  -38.0920   24.0150 H   0  0  0  0  0  0  0  0  0  0  0  0
  -26.2800  -31.4920   25.1530 C   0  0  1  0  0  0  0  0  0  0  0  0
  -25.1380  -31.2020   26.1540 C   0  0  0  0  0  1  0  0  0  0  0  0
  -26.9200  -30.1390   24.7650 C   0  0  0  0  0  1  0  0  0  0  0  0
  -27.3690  -32.3030   25.8940 C   0  0  0  0  0  1  0  0  0  0  0  0
  2  7  1  0
  4  2  1  0
  4  6  1  0
  4  5  1  0
  5  3  1  0
  6  9  1  0
  6  5  1  0
  7  1  1  0
  7  3  1  0
  8  2  2  0
  9 18  1  0
 10 16  1  0
 10 18  1  0
 11 16  1  0
 12 13  1  0
 12 11  1  0
 14 13  1  0
 14 23  1  0
 14 15  1  0
 16 15  1  0
 17 10  2  0
 18 19  1  0
 20 21  2  0
 21 40  1  0
 22 21  1  0
 22 25  1  0
 23 24  1  0
 23 20  1  0
 24 22  2  0
 25 26  1  0
 26 27  2  0
 28 31  1  0
 28 27  1  0
 29 28  2  0
 30 29  1  0
 30 25  2  0
 31 32  1  0
 32 37  2  0
 32 33  1  0
 33 34  2  0
 34 35  1  0
 35 39  1  0
 36 35  2  0
 37 36  1  0
 38 37  1  0
 40 41  1  0
 41 44  1  0
 41 43  1  0
 42 40  2  0
 45 46  1  0
 45 20  1  0
 47 45  1  0
 48  1  1  0
 48 49  1  0
 49 50  1  0
 51 52  1  0
 51 50  1  0
 53 64  2  0
 54 52  1  0
 54 59  1  0
 55 63  1  0
 55 65  1  0
 56 62  1  0
 56 58  1  0
 57 63  1  0
 58 57  1  0
 59 58  2  0
 60 61  1  0
 60 54  2  0
 61 56  2  0
 62 55  1  0
 63 53  1  0
 65 67  2  0
 66 65  1  0
 68 66  1  0
 69 78  2  0
 69 74  1  0
 70 66  1  0
 70 74  1  0
 71 70  1  0
 72 73  1  0
 72 71  1  0
 73 69  1  0
 74 75  2  0
 75 76  1  0
 77 76  2  0
 78 77  1  0
 79 53  1  0
 79 80  1  0
 79 89  1  0
 80 83  1  0
 81 85  1  0
 81 80  1  0
 82 81  2  0
 85 84  1  0
 87 85  1  0
 87 88  1  0
 87 86  1  0
 89 92  1  1
 89 90  1  0
 91 89  1  0
M  ISO  4  10 100  18 100  51 101  52 101
M  END
>  <TORSDO>  (80) 
F 22

>  <SCORE>  (80) 
-11.103

>  <name>  (80) 
79

>  <ligand_id>  (80) 
79

>  <original_smiles>  (80) 
[H]c1c([H])c([H])c2c(c1[H])C([H])([H])C([H])([H])C([H])([H])C2([H])N([H])C(=O)C1([H])N(C(=O)C([H])(N([H])C(=O)C([H])(N([H])C([H])([H])[H])C([H])([H])[H])C(C([H])([H])[H])(C([H])([H])[H])C([H])([H])[H])C([H])([H])c2c([H])c(OC([H])([H])C([H])([H])C([H])([H])C([H])([H])C([H])([H])N3C(=O)C4([H])C([H])(C([H])([H])N([H])C(=O)N5C([H])([H])C([H])([H])C([H])([H])C([H])(n6nc(-c7c([H])c([H])c(Oc8c([H])c([H])c(F)c([H])c8F)c([H])c7[H])c(C(=O)N([H])[H])c6N([H])[H])C5([H])[H])C4([H])C3([H])[H])c([H])c([H])c2C1([H])[H]

>  <smiles>  (80) 
[H]c1c([H])c([H])c2c(c1[H])C([H])([H])C([H])([H])C([H])([H])C2([H])N([H])C(=O)C1([H])N(C(=O)C([H])(N([H])C(=O)C([H])(N([H])C([H])([H])[H])C([H])([H])[H])C(C([H])([H])[H])(C([H])([H])[H])C([H])([H])[H])C([H])([H])c2c([H])c(OC([H])([H])C([H])([H])C([H])([H])C([H])([H])C([H])([H])N3C(=O)C4([H])C([H])(C([H])([H])N([H])C(=O)N5C([H])([H])C([H])([H])C([H])([H])C([H])(n6nc(-c7c([H])c([H])c(Oc8c([H])c([H])c(F)c([H])c8F)c([H])c7[H])c(C(=O)N([H])[H])c6N([H])[H])C5([H])[H])C4([H])C3([H])[H])c([H])c([H])c2C1([H])[H]

$$$$
80:0:0
     RDKit          3D

 95106  0  0  1  0  0  0  0  0999 V2000
  -32.2120  -23.5760   19.4890 C   0  0  0  0  0  2  0  0  0  0  0  0
  -31.4750  -24.8950   19.3550 C   0  0  0  0  0  2  0  0  0  0  0  0
  -30.8420  -22.9230   19.2810 C   0  0  0  0  0  3  0  0  0  0  0  0
  -30.2410  -24.1920   19.7360 N   0  0  2  0  0  4  0  0  0  0  0  0
  -30.1410  -24.1800   20.7410 H   0  0  0  0  0  0  0  0  0  0  0  0
  -30.6050  -21.6950   20.1880 C   0  0  0  0  0  0  0  0  0  0  0  0
  -30.0070  -20.6420   19.6100 N   0  0  0  0  0  0  0  0  0  0  0  0
  -31.0750  -21.6400   21.3280 O   0  0  0  0  0  0  0  0  0  0  0  0
  -29.4950  -20.8640   18.7670 H   0  0  0  0  0  0  0  0  0  0  0  0
  -30.6400  -14.5370   20.6240 C   0  0  0  0  0  0  0  0  0  0  0  0
  -30.3900  -12.3220   19.5980 C   0  0  0  0  0  2  0  0  0  0  0  0
  -29.5030  -12.4550   18.3430 C   0  0  0  0  0  2  0  0  0  0  0  0
  -28.0080  -12.3570   18.7120 C   0  0  0  0  0  2  0  0  0  0  0  0
  -27.6120  -13.2430   19.9260 C   0  0  0  0  0  3  0  0  0  0  0  0
  -28.6240  -13.1030   21.0840 C   0  0  0  0  0  2  0  0  0  0  0  0
  -29.9660  -13.3600   20.5450 N   0  0  0  0  0  0  0  0  0  0  0  0
  -31.8540  -14.6290   20.4240 O   0  0  0  0  0  0  0  0  0  0  0  0
  -30.0790  -18.5980   18.3460 C   0  0  0  0  0  2  0  0  0  0  0  0
  -29.6010  -16.1240   19.1820 C   0  0  0  0  0  2  0  0  0  0  0  0
  -30.1940  -16.8830   21.3250 C   0  0  0  0  0  2  0  0  0  0  0  0
  -30.3460  -17.4110   19.2090 C   0  0  1  0  0  0  0  0  0  0  0  0
  -29.9080  -18.1730   20.4840 C   0  0  0  0  0  3  0  0  0  0  0  0
  -30.5960  -19.2990   19.5960 C   0  0  1  0  0  0  0  0  0  0  0  0
  -29.8640  -15.6490   20.5450 N   0  0  0  0  0  0  0  0  0  0  0  0
  -25.1890  -13.8650   20.5220 C   0  0  0  0  0  0  0  0  0  0  0  0
  -24.1050  -13.0980   20.8570 C   0  0  0  0  0  0  0  0  0  0  0  0
  -24.5700  -11.7470   20.8810 C   0  0  0  0  0  0  0  0  0  0  0  0
  -26.2440  -12.9790   20.3600 N   0  0  0  0  0  0  0  0  0  0  0  0
  -25.8730  -11.7040   20.6370 N   0  0  0  0  0  0  0  0  0  0  0  0
  -23.8400  -10.4870   21.0650 C   0  0  0  0  0  0  0  0  0  0  0  0
  -24.2470   -9.5320   22.0210 C   0  0  0  0  0  3  0  0  0  0  0  0
  -23.5180   -8.3350   22.1920 C   0  0  0  0  0  3  0  0  0  0  0  0
  -22.3680   -8.0870   21.4050 C   0  0  0  0  0  0  0  0  0  0  0  0
  -21.9810   -9.0320   20.4380 C   0  0  0  0  0  3  0  0  0  0  0  0
  -22.7110  -10.2200   20.2650 C   0  0  0  0  0  3  0  0  0  0  0  0
  -21.6120   -6.9420   21.4840 O   0  0  0  0  0  0  0  0  0  0  0  0
  -21.5460   -6.2030   22.6370 C   0  0  0  0  0  0  0  0  0  0  0  0
  -21.1160   -6.7640   23.8600 C   0  0  0  0  0  3  0  0  0  0  0  0
  -20.9970   -5.9510   25.0050 C   0  0  0  0  0  3  0  0  0  0  0  0
  -21.2960   -4.5780   24.9280 C   0  0  0  0  0  0  0  0  0  0  0  0
  -21.7190   -4.0160   23.7100 C   0  0  0  0  0  3  0  0  0  0  0  0
  -21.8410   -4.8260   22.5680 C   0  0  0  0  0  0  0  0  0  0  0  0
  -22.2280   -4.2760   21.3920 F   0  0  0  0  0  0  0  0  0  0  0  0
  -21.1740   -3.7940   26.0250 F   0  0  0  0  0  0  0  0  0  0  0  0
  -22.6960  -13.5770   21.0510 C   0  0  0  0  0  0  0  0  0  0  0  0
  -21.9300  -12.8980   21.8980 N   0  0  0  0  0  0  0  0  0  0  0  0
  -22.2810  -14.5890   20.4880 O   0  0  0  0  0  0  0  0  0  0  0  0
  -22.2770  -12.0800   22.3770 H   0  0  0  0  0  0  0  0  0  0  0  0
  -20.9820  -13.2010   22.0700 H   0  0  0  0  0  0  0  0  0  0  0  0
  -25.3620  -15.2320   20.3220 N   0  0  0  0  0  0  0  0  0  0  0  0
  -24.5940  -15.8910   20.3920 H   0  0  0  0  0  0  0  0  0  0  0  0
  -26.2380  -15.6690   20.0660 H   0  0  0  0  0  0  0  0  0  0  0  0
  -28.9930  -24.6240   19.0330 C   0  0  0  0  0  2  0  0  0  0  0  0
  -28.8050  -26.1560   18.8870 C   0  0  0  0  0  2  0  0  0  0  0  0
  -28.4400  -26.7960   20.1140 O   0  0  0  0  0  0  0  0  0  0  0  0
  -24.6090  -31.9090   23.2440 C   0  0  0  0  0  0  0  0  0  0  0  0
  -27.2490  -27.4900   20.1290 C   0  0  0  0  0  0  0  0  0  0  0  0
  -23.3920  -30.5000   21.6140 C   0  0  0  0  0  3  0  0  0  0  0  0
  -24.8390  -28.9660   20.1790 C   0  0  0  0  0  0  0  0  0  0  0  0
  -25.9130  -30.8710   21.3920 C   0  0  0  0  0  2  0  0  0  0  0  0
  -25.9970  -29.4980   20.7580 C   0  0  0  0  0  0  0  0  0  0  0  0
  -27.2010  -28.7620   20.7430 C   0  0  0  0  0  3  0  0  0  0  0  0
  -26.0650  -26.9560   19.5710 C   0  0  0  0  0  3  0  0  0  0  0  0
  -24.8650  -27.6910   19.5890 C   0  0  0  0  0  3  0  0  0  0  0  0
  -23.5920  -29.8200   20.2330 C   0  0  0  0  0  2  0  0  0  0  0  0
  -24.6570  -31.1090   22.1410 N   0  0  0  0  0  0  0  0  0  0  0  0
  -23.5320  -32.1770   23.7940 O   0  0  0  0  0  0  0  0  0  0  0  0
  -22.7560  -29.4770   22.5800 C   0  0  0  0  0  0  0  0  0  0  0  0
  -21.4320  -29.2880   22.4620 N   0  0  0  0  0  0  0  0  0  0  0  0
  -23.4490  -28.8570   23.3910 O   0  0  0  0  0  0  0  0  0  0  0  0
  -20.9340  -29.8400   21.7780 H   0  0  0  0  0  0  0  0  0  0  0  0
  -18.0690  -28.0680   22.9720 C   0  0  0  0  0  0  0  0  0  0  0  0
  -20.6250  -28.3480   23.2390 C   0  0  0  0  0  3  0  0  0  0  0  0
  -20.7380  -26.9150   22.6700 C   0  0  0  0  0  2  0  0  0  0  0  0
  -19.6370  -26.5780   21.6580 C   0  0  0  0  0  2  0  0  0  0  0  0
  -18.2560  -26.7160   22.3040 C   0  0  0  0  0  2  0  0  0  0  0  0
  -19.1830  -28.8410   23.3960 C   0  0  0  0  0  0  0  0  0  0  0  0
  -18.9550  -30.1070   23.9790 C   0  0  0  0  0  3  0  0  0  0  0  0
  -17.6470  -30.6000   24.1420 C   0  0  0  0  0  3  0  0  0  0  0  0
  -16.5480  -29.8250   23.7340 C   0  0  0  0  0  3  0  0  0  0  0  0
  -16.7600  -28.5610   23.1550 C   0  0  0  0  0  3  0  0  0  0  0  0
  -25.9000  -32.5430   23.8500 C   0  0  0  0  0  3  0  0  0  0  0  0
  -26.4380  -31.7690   25.1160 C   0  0  1  0  0  0  0  0  0  0  0  0
  -25.3620  -31.5220   26.1980 C   0  0  0  0  0  1  0  0  0  0  0  0
  -27.0210  -30.3960   24.7070 C   0  0  0  0  0  1  0  0  0  0  0  0
  -27.5960  -32.5660   25.7650 C   0  0  0  0  0  1  0  0  0  0  0  0
  -25.5890  -33.9390   24.1880 N   0  0  0  0  0  0  0  0  0  0  0  0
  -25.9120  -34.9940   23.4270 C   0  0  0  0  0  0  0  0  0  0  0  0
  -26.5730  -34.8950   22.3900 O   0  0  0  0  0  0  0  0  0  0  0  0
  -25.0010  -34.0900   24.9940 H   0  0  0  0  0  0  0  0  0  0  0  0
  -24.1730  -36.7780   23.0890 C   0  0  0  0  0  1  0  0  0  0  0  0
  -25.4220  -36.3790   23.8910 C   0  0  0  0  0  3  0  0  0  0  0  0
  -27.5600  -37.2690   24.7050 C   0  0  0  0  0  1  0  0  0  0  0  0
  -26.4490  -37.4360   23.7720 N   0  0  0  0  0  0  0  0  0  0  0  0
  -26.0410  -38.3540   23.9270 H   0  0  0  0  0  0  0  0  0  0  0  0
  2  1  1  0
  2  4  1  0
  3  1  1  0
  3  4  1  0
  3  6  1  0
  4  5  1  1
  6  8  2  0
  7  6  1  0
  9  7  1  0
 11 16  1  0
 12 13  1  0
 12 11  1  0
 14 13  1  0
 14 28  1  0
 14 15  1  0
 16 10  1  0
 16 15  1  0
 17 10  2  0
 18 23  1  0
 21 19  1  1
 19 24  1  0
 21 18  1  0
 21 23  1  0
 21 22  1  0
 22 20  1  0
 23  7  1  6
 23 22  1  0
 24 10  1  0
 24 20  1  0
 25 26  2  0
 26 27  1  0
 26 45  1  0
 27 30  1  0
 28 25  1  0
 28 29  1  0
 29 27  2  0
 30 31  1  0
 31 32  2  0
 33 36  1  0
 33 32  1  0
 34 33  2  0
 35 34  1  0
 35 30  2  0
 36 37  1  0
 37 38  1  0
 38 39  2  0
 40 39  1  0
 40 44  1  0
 41 40  2  0
 42 37  2  0
 42 41  1  0
 43 42  1  0
 45 46  1  0
 46 49  1  0
 46 48  1  0
 47 45  2  0
 50 51  1  0
 50 25  1  0
 52 50  1  0
 53  4  1  0
 54 53  1  0
 54 55  1  0
 55 57  1  0
 56 67  2  0
 57 62  1  0
 58 66  1  0
 58 68  1  0
 59 65  1  0
 59 61  1  0
 60 66  1  0
 61 60  1  0
 62 61  2  0
 63 64  1  0
 63 57  2  0
 64 59  2  0
 65 58  1  0
 66 56  1  0
 68 70  2  0
 69 68  1  0
 71 69  1  0
 72 81  2  0
 72 77  1  0
 73 69  1  0
 73 77  1  0
 74 73  1  0
 75 76  1  0
 75 74  1  0
 76 72  1  0
 77 78  2  0
 78 79  1  0
 80 79  2  0
 81 80  1  0
 82 56  1  0
 82 87  1  0
 82 83  1  0
 83 86  1  1
 83 84  1  0
 85 83  1  0
 87 90  1  0
 88 92  1  0
 88 87  1  0
 89 88  2  0
 92 91  1  0
 94 92  1  0
 94 95  1  0
 94 93  1  0
M  ISO  4  10 100  24 100  54 101  55 101
M  END
>  <TORSDO>  (81) 
F 19

>  <SCORE>  (81) 
-14.216

>  <name>  (81) 
80

>  <ligand_id>  (81) 
80

>  <original_smiles>  (81) 
[H]c1c([H])c([H])c2c(c1[H])C([H])([H])C([H])([H])C([H])([H])C2([H])N([H])C(=O)C1([H])N(C(=O)C([H])(N([H])C(=O)C([H])(N([H])C([H])([H])[H])C([H])([H])[H])C(C([H])([H])[H])(C([H])([H])[H])C([H])([H])[H])C([H])([H])c2c([H])c(OC([H])([H])C([H])([H])[N+]3([H])C([H])([H])C([H])([H])C3([H])C(=O)N([H])C3([H])C([H])([H])C4([H])C([H])([H])N(C(=O)N5C([H])([H])C([H])([H])C([H])([H])C([H])(n6nc(-c7c([H])c([H])c(Oc8c([H])c([H])c(F)c([H])c8F)c([H])c7[H])c(C(=O)N([H])[H])c6N([H])[H])C5([H])[H])C([H])([H])C34[H])c([H])c([H])c2C1([H])[H]

>  <smiles>  (81) 
[H]c1c([H])c([H])c2c(c1[H])C([H])([H])C([H])([H])C([H])([H])C2([H])N([H])C(=O)C1([H])N(C(=O)C([H])(N([H])C(=O)C([H])(N([H])C([H])([H])[H])C([H])([H])[H])C(C([H])([H])[H])(C([H])([H])[H])C([H])([H])[H])C([H])([H])c2c([H])c(OC([H])([H])C([H])([H])[N+]3([H])C([H])([H])C([H])([H])C3([H])C(=O)N([H])C3([H])C([H])([H])C4([H])C([H])([H])N(C(=O)N5C([H])([H])C([H])([H])C([H])([H])C([H])(n6nc(-c7c([H])c([H])c(Oc8c([H])c([H])c(F)c([H])c8F)c([H])c7[H])c(C(=O)N([H])[H])c6N([H])[H])C5([H])[H])C([H])([H])C34[H])c([H])c([H])c2C1([H])[H]

$$$$
81:0:0
     RDKit          3D

 98106  0  0  1  0  0  0  0  0999 V2000
  -30.2270  -20.1700   20.4380 C   0  0  0  0  0  2  0  0  0  0  0  0
  -31.0540  -20.3270   22.7100 C   0  0  0  0  0  2  0  0  0  0  0  0
  -31.0990  -19.3710   23.8990 C   0  0  0  0  0  3  0  0  0  0  0  0
  -31.1260  -17.9620   23.2940 C   0  0  0  0  0  3  0  0  0  0  0  0
  -30.6440  -18.1290   21.8330 C   0  0  0  0  0  3  0  0  0  0  0  0
  -32.2640  -19.6610   24.8570 C   0  0  0  0  0  1  0  0  0  0  0  0
  -31.0280  -19.5150   21.4910 N   0  0  0  0  0  0  0  0  0  0  0  0
  -30.2700  -17.0600   24.0870 N   0  0  0  0  0  4  0  0  0  0  0  0
  -29.3080  -17.3550   24.0530 H   0  0  0  0  0  0  0  0  0  0  0  0
  -30.5670  -17.0700   25.0470 H   0  0  0  0  0  0  0  0  0  0  0  0
  -30.3360  -16.1130   23.7640 H   0  0  0  0  0  0  0  0  0  0  0  0
  -31.3060  -17.1230   20.8370 C   0  0  0  0  0  2  0  0  0  0  0  0
  -31.4840  -14.6750   20.4240 C   0  0  0  0  0  0  0  0  0  0  0  0
  -31.2200  -12.4480   19.3940 C   0  0  0  0  0  2  0  0  0  0  0  0
  -30.3600  -12.5700   18.1200 C   0  0  0  0  0  2  0  0  0  0  0  0
  -28.8610  -12.4680   18.4620 C   0  0  0  0  0  2  0  0  0  0  0  0
  -28.4530  -13.4010   19.6350 C   0  0  0  0  0  3  0  0  0  0  0  0
  -29.4320  -13.2580   20.8220 C   0  0  0  0  0  2  0  0  0  0  0  0
  -30.7930  -13.5070   20.3220 N   0  0  0  0  0  0  0  0  0  0  0  0
  -32.6370  -14.8060   20.0090 O   0  0  0  0  0  0  0  0  0  0  0  0
  -30.7860  -15.7390   20.8680 N   0  0  0  0  0  0  0  0  0  0  0  0
  -29.8050  -15.5840   21.0380 H   0  0  0  0  0  0  0  0  0  0  0  0
  -26.0320  -14.0990   20.1570 C   0  0  0  0  0  0  0  0  0  0  0  0
  -24.9260  -13.3690   20.5020 C   0  0  0  0  0  0  0  0  0  0  0  0
  -25.3570  -12.0090   20.5740 C   0  0  0  0  0  0  0  0  0  0  0  0
  -27.0680  -13.1830   20.0410 N   0  0  0  0  0  0  0  0  0  0  0  0
  -26.6640  -11.9270   20.3510 N   0  0  0  0  0  0  0  0  0  0  0  0
  -24.5950  -10.7740   20.7880 C   0  0  0  0  0  0  0  0  0  0  0  0
  -24.9140   -9.8800   21.8340 C   0  0  0  0  0  3  0  0  0  0  0  0
  -24.1520   -8.7080   22.0330 C   0  0  0  0  0  3  0  0  0  0  0  0
  -23.0570   -8.4230   21.1830 C   0  0  0  0  0  0  0  0  0  0  0  0
  -22.7580   -9.3030   20.1290 C   0  0  0  0  0  3  0  0  0  0  0  0
  -23.5210  -10.4660   19.9300 C   0  0  0  0  0  3  0  0  0  0  0  0
  -22.2790   -7.2930   21.2820 O   0  0  0  0  0  0  0  0  0  0  0  0
  -22.0490   -6.6790   22.4880 C   0  0  0  0  0  0  0  0  0  0  0  0
  -21.4750   -7.3700   23.5770 C   0  0  0  0  0  3  0  0  0  0  0  0
  -21.1920   -6.6850   24.7750 C   0  0  0  0  0  3  0  0  0  0  0  0
  -21.4740   -5.3090   24.8830 C   0  0  0  0  0  0  0  0  0  0  0  0
  -22.0410   -4.6180   23.7970 C   0  0  0  0  0  3  0  0  0  0  0  0
  -22.3260   -5.3030   22.6010 C   0  0  0  0  0  0  0  0  0  0  0  0
  -22.8530   -4.6270   21.5510 F   0  0  0  0  0  0  0  0  0  0  0  0
  -21.1940   -4.6480   26.0300 F   0  0  0  0  0  0  0  0  0  0  0  0
  -23.5240  -13.8880   20.6560 C   0  0  0  0  0  0  0  0  0  0  0  0
  -22.7320  -13.2630   21.5190 N   0  0  0  0  0  0  0  0  0  0  0  0
  -23.1390  -14.8820   20.0430 O   0  0  0  0  0  0  0  0  0  0  0  0
  -23.0560  -12.4600   22.0370 H   0  0  0  0  0  0  0  0  0  0  0  0
  -21.7880  -13.5930   21.6600 H   0  0  0  0  0  0  0  0  0  0  0  0
  -26.2410  -15.4540   19.9110 N   0  0  0  0  0  0  0  0  0  0  0  0
  -25.4800  -16.1230   19.9250 H   0  0  0  0  0  0  0  0  0  0  0  0
  -27.0890  -15.8370   19.5080 H   0  0  0  0  0  0  0  0  0  0  0  0
  -30.7750  -21.5820   20.0720 C   0  0  0  0  0  2  0  0  0  0  0  0
  -30.2390  -22.1920   18.7490 C   0  0  0  0  0  2  0  0  0  0  0  0
  -28.0500  -22.7620   17.7740 C   0  0  0  0  0  1  0  0  0  0  0  0
  -28.9920  -23.0050   18.9000 N   0  0  2  0  0  4  0  0  0  0  0  0
  -28.5210  -22.6400   19.7170 H   0  0  0  0  0  0  0  0  0  0  0  0
  -29.2520  -24.4660   19.1520 C   0  0  0  0  0  2  0  0  0  0  0  0
  -27.9530  -25.3090   19.2290 C   0  0  0  0  0  2  0  0  0  0  0  0
  -28.1150  -26.6670   19.6790 O   0  0  0  0  0  0  0  0  0  0  0  0
  -24.6640  -31.8820   23.1400 C   0  0  0  0  0  0  0  0  0  0  0  0
  -26.9650  -27.4430   19.7610 C   0  0  0  0  0  0  0  0  0  0  0  0
  -23.3190  -30.5760   21.5320 C   0  0  0  0  0  3  0  0  0  0  0  0
  -24.6320  -29.0460   19.9780 C   0  0  0  0  0  0  0  0  0  0  0  0
  -25.8460  -30.8490   21.2030 C   0  0  0  0  0  2  0  0  0  0  0  0
  -25.8430  -29.5000   20.5100 C   0  0  0  0  0  0  0  0  0  0  0  0
  -27.0120  -28.7050   20.4010 C   0  0  0  0  0  3  0  0  0  0  0  0
  -25.7220  -27.0100   19.2330 C   0  0  0  0  0  3  0  0  0  0  0  0
  -24.5670  -27.8000   19.3390 C   0  0  0  0  0  3  0  0  0  0  0  0
  -23.4240  -29.9420   20.1210 C   0  0  0  0  0  2  0  0  0  0  0  0
  -24.6310  -31.1130   22.0140 N   0  0  0  0  0  0  0  0  0  0  0  0
  -23.6230  -32.1730   23.7460 O   0  0  0  0  0  0  0  0  0  0  0  0
  -22.6880  -29.5430   22.4930 C   0  0  0  0  0  0  0  0  0  0  0  0
  -21.3610  -29.3620   22.3960 N   0  0  0  0  0  0  0  0  0  0  0  0
  -23.3910  -28.9090   23.2860 O   0  0  0  0  0  0  0  0  0  0  0  0
  -20.8540  -29.9220   21.7250 H   0  0  0  0  0  0  0  0  0  0  0  0
  -18.0100  -28.1140   22.9090 C   0  0  0  0  0  0  0  0  0  0  0  0
  -20.5620  -28.4200   23.1780 C   0  0  0  0  0  3  0  0  0  0  0  0
  -20.6900  -26.9850   22.6160 C   0  0  0  0  0  2  0  0  0  0  0  0
  -19.5920  -26.6300   21.6070 C   0  0  0  0  0  2  0  0  0  0  0  0
  -18.2080  -26.7600   22.2490 C   0  0  0  0  0  2  0  0  0  0  0  0
  -19.1140  -28.9000   23.3310 C   0  0  0  0  0  0  0  0  0  0  0  0
  -18.8730  -30.1670   23.9080 C   0  0  0  0  0  3  0  0  0  0  0  0
  -17.5590  -30.6480   24.0640 C   0  0  0  0  0  3  0  0  0  0  0  0
  -16.4680  -29.8590   23.6590 C   0  0  0  0  0  3  0  0  0  0  0  0
  -16.6950  -28.5930   23.0890 C   0  0  0  0  0  3  0  0  0  0  0  0
  -26.0020  -32.4500   23.7030 C   0  0  0  0  0  3  0  0  0  0  0  0
  -26.5930  -31.5980   24.8900 C   0  0  1  0  0  0  0  0  0  0  0  0
  -25.5730  -31.3120   26.0180 C   0  0  0  0  0  1  0  0  0  0  0  0
  -27.1200  -30.2370   24.3800 C   0  0  0  0  0  1  0  0  0  0  0  0
  -27.8030  -32.3360   25.5120 C   0  0  0  0  0  1  0  0  0  0  0  0
  -25.7490  -33.8340   24.1300 N   0  0  0  0  0  0  0  0  0  0  0  0
  -26.0620  -34.9210   23.4120 C   0  0  0  0  0  0  0  0  0  0  0  0
  -26.6680  -34.8640   22.3380 O   0  0  0  0  0  0  0  0  0  0  0  0
  -25.2090  -33.9540   24.9740 H   0  0  0  0  0  0  0  0  0  0  0  0
  -24.3580  -36.7640   23.2710 C   0  0  0  0  0  1  0  0  0  0  0  0
  -25.6360  -36.2880   23.9800 C   0  0  0  0  0  3  0  0  0  0  0  0
  -27.8390  -37.0740   24.7260 C   0  0  0  0  0  1  0  0  0  0  0  0
  -26.6860  -37.3240   23.8660 N   0  0  0  0  0  0  0  0  0  0  0  0
  -26.3120  -38.2410   24.0950 H   0  0  0  0  0  0  0  0  0  0  0  0
  1  7  1  0
  2  3  1  0
  3  6  1  0
  4  3  1  0
  4  8  1  0
  5 12  1  0
  5  4  1  0
  7  5  1  0
  7  2  1  0
  8 10  1  0
  9  8  1  0
 11  8  1  0
 12 21  1  0
 13 21  1  0
 14 19  1  0
 15 16  1  0
 15 14  1  0
 17 16  1  0
 17 26  1  0
 17 18  1  0
 19 13  1  0
 19 18  1  0
 20 13  2  0
 21 22  1  0
 23 24  2  0
 24 25  1  0
 24 43  1  0
 25 28  1  0
 26 23  1  0
 26 27  1  0
 27 25  2  0
 28 29  1  0
 29 30  2  0
 31 34  1  0
 31 30  1  0
 32 31  2  0
 33 32  1  0
 33 28  2  0
 34 35  1  0
 35 40  2  0
 35 36  1  0
 36 37  2  0
 37 38  1  0
 38 42  1  0
 39 38  2  0
 40 39  1  0
 41 40  1  0
 43 44  1  0
 44 47  1  0
 44 46  1  0
 45 43  2  0
 48 49  1  0
 48 23  1  0
 50 48  1  0
 51  1  1  0
 52 54  1  0
 52 51  1  0
 53 54  1  0
 54 56  1  0
 54 55  1  1
 56 57  1  0
 57 58  1  0
 58 60  1  0
 59 70  2  0
 60 65  1  0
 61 69  1  0
 61 71  1  0
 62 68  1  0
 62 64  1  0
 63 69  1  0
 64 63  1  0
 65 64  2  0
 66 67  1  0
 66 60  2  0
 67 62  2  0
 68 61  1  0
 69 59  1  0
 71 73  2  0
 72 71  1  0
 74 72  1  0
 75 84  2  0
 75 80  1  0
 76 72  1  0
 76 80  1  0
 77 76  1  0
 78 79  1  0
 78 77  1  0
 79 75  1  0
 80 81  2  0
 81 82  1  0
 83 82  2  0
 84 83  1  0
 85 59  1  0
 85 90  1  0
 85 86  1  0
 86 89  1  1
 86 87  1  0
 88 86  1  0
 90 93  1  0
 91 95  1  0
 91 90  1  0
 92 91  2  0
 95 94  1  0
 97 95  1  0
 97 98  1  0
 97 96  1  0
M  ISO  4  13 100  21 100  57 101  58 101
M  END
>  <TORSDO>  (82) 
F 24

>  <SCORE>  (82) 
-6.882

>  <name>  (82) 
81

>  <ligand_id>  (82) 
81

>  <original_smiles>  (82) 
[H]c1c([H])c([H])c2c(c1[H])C([H])([H])C([H])([H])C([H])([H])C2([H])N([H])C(=O)C1([H])N(C(=O)C([H])(N([H])C(=O)C([H])(N([H])C([H])([H])[H])C([H])([H])[H])C(C([H])([H])[H])(C([H])([H])[H])C([H])([H])[H])C([H])([H])c2c([H])c(OC([H])([H])C([H])([H])[N+]([H])(C([H])([H])[H])C([H])([H])C([H])([H])C([H])([H])N3C([H])([H])C([H])(C([H])([H])[H])C([H])([N+]([H])([H])[H])C3([H])C([H])([H])N([H])C(=O)N3C([H])([H])C([H])([H])C([H])([H])C([H])(n4nc(-c5c([H])c([H])c(Oc6c([H])c([H])c(F)c([H])c6F)c([H])c5[H])c(C(=O)N([H])[H])c4N([H])[H])C3([H])[H])c([H])c([H])c2C1([H])[H]

>  <smiles>  (82) 
[H]c1c([H])c([H])c2c(c1[H])C([H])([H])C([H])([H])C([H])([H])C2([H])N([H])C(=O)C1([H])N(C(=O)C([H])(N([H])C(=O)C([H])(N([H])C([H])([H])[H])C([H])([H])[H])C(C([H])([H])[H])(C([H])([H])[H])C([H])([H])[H])C([H])([H])c2c([H])c(OC([H])([H])C([H])([H])[N+]([H])(C([H])([H])[H])C([H])([H])C([H])([H])C([H])([H])N3C([H])([H])C([H])(C([H])([H])[H])C([H])([N+]([H])([H])[H])C3([H])C([H])([H])N([H])C(=O)N3C([H])([H])C([H])([H])C([H])([H])C([H])(n4nc(-c5c([H])c([H])c(Oc6c([H])c([H])c(F)c([H])c6F)c([H])c5[H])c(C(=O)N([H])[H])c4N([H])[H])C3([H])[H])c([H])c([H])c2C1([H])[H]

$$$$
82:0:0
     RDKit          3D

 94103  0  0  1  0  0  0  0  0999 V2000
  -30.9540  -19.4080   23.4020 C   0  0  0  0  0  3  0  0  0  0  0  0
  -30.9070  -18.2800   22.5520 C   0  0  0  0  0  3  0  0  0  0  0  0
  -30.9570  -20.7180   22.8760 C   0  0  0  0  0  3  0  0  0  0  0  0
  -30.9340  -19.7980   20.6400 C   0  0  0  0  0  3  0  0  0  0  0  0
  -30.8550  -18.4650   21.1580 C   0  0  0  0  0  0  0  0  0  0  0  0
  -30.9530  -20.9450   21.4820 C   0  0  0  0  0  0  0  0  0  0  0  0
  -30.6800  -14.7450   20.3680 C   0  0  0  0  0  0  0  0  0  0  0  0
  -30.3480  -12.5110   19.3310 C   0  0  0  0  0  2  0  0  0  0  0  0
  -29.4070  -12.6340   18.1190 C   0  0  0  0  0  2  0  0  0  0  0  0
  -27.9460  -12.4110   18.5580 C   0  0  0  0  0  2  0  0  0  0  0  0
  -27.5660  -13.2750   19.7830 C   0  0  0  0  0  3  0  0  0  0  0  0
  -28.6580  -13.2530   20.8930 C   0  0  0  0  0  2  0  0  0  0  0  0
  -29.9640  -13.5680   20.2900 N   0  0  0  0  0  0  0  0  0  0  0  0
  -31.8730  -14.7690   20.0600 O   0  0  0  0  0  0  0  0  0  0  0  0
  -28.7730  -16.1910   19.8260 C   0  0  0  0  0  2  0  0  0  0  0  0
  -30.5110  -17.3240   20.1710 C   0  0  0  0  0  3  0  0  0  0  0  0
  -29.0910  -17.6450   19.7210 C   0  0  0  0  0  3  0  0  0  0  0  0
  -28.8310  -18.3920   18.4210 C   0  0  0  0  0  1  0  0  0  0  0  0
  -30.0190  -15.9440   20.5570 N   0  0  0  0  0  0  0  0  0  0  0  0
  -25.1960  -13.9100   20.5250 C   0  0  0  0  0  0  0  0  0  0  0  0
  -24.1340  -13.1420   20.9130 C   0  0  0  0  0  0  0  0  0  0  0  0
  -24.5940  -11.7930   20.8810 C   0  0  0  0  0  0  0  0  0  0  0  0
  -26.2360  -13.0150   20.2910 N   0  0  0  0  0  0  0  0  0  0  0  0
  -25.8800  -11.7420   20.5680 N   0  0  0  0  0  0  0  0  0  0  0  0
  -23.8710  -10.5340   21.0700 C   0  0  0  0  0  0  0  0  0  0  0  0
  -24.3190   -9.5670   21.9920 C   0  0  0  0  0  3  0  0  0  0  0  0
  -23.5970   -8.3660   22.1670 C   0  0  0  0  0  3  0  0  0  0  0  0
  -22.4190   -8.1320   21.4200 C   0  0  0  0  0  0  0  0  0  0  0  0
  -21.9930   -9.0920   20.4880 C   0  0  0  0  0  3  0  0  0  0  0  0
  -22.7140  -10.2830   20.3090 C   0  0  0  0  0  3  0  0  0  0  0  0
  -21.6630   -6.9880   21.5140 O   0  0  0  0  0  0  0  0  0  0  0  0
  -21.6340   -6.2400   22.6630 C   0  0  0  0  0  0  0  0  0  0  0  0
  -21.2270   -6.7880   23.8990 C   0  0  0  0  0  3  0  0  0  0  0  0
  -21.1410   -5.9630   25.0380 C   0  0  0  0  0  3  0  0  0  0  0  0
  -21.4550   -4.5950   24.9440 C   0  0  0  0  0  0  0  0  0  0  0  0
  -21.8530   -4.0470   23.7110 C   0  0  0  0  0  3  0  0  0  0  0  0
  -21.9390   -4.8670   22.5740 C   0  0  0  0  0  0  0  0  0  0  0  0
  -22.3050   -4.3310   21.3830 F   0  0  0  0  0  0  0  0  0  0  0  0
  -21.3660   -3.8020   26.0370 F   0  0  0  0  0  0  0  0  0  0  0  0
  -22.7400  -13.6240   21.1890 C   0  0  0  0  0  0  0  0  0  0  0  0
  -22.0090  -12.9320   22.0580 N   0  0  0  0  0  0  0  0  0  0  0  0
  -22.3020  -14.6450   20.6660 O   0  0  0  0  0  0  0  0  0  0  0  0
  -22.3710  -12.1030   22.5060 H   0  0  0  0  0  0  0  0  0  0  0  0
  -21.0740  -13.2430   22.2790 H   0  0  0  0  0  0  0  0  0  0  0  0
  -25.3470  -15.2810   20.3340 N   0  0  0  0  0  0  0  0  0  0  0  0
  -24.5770  -15.9310   20.4490 H   0  0  0  0  0  0  0  0  0  0  0  0
  -26.1820  -15.7230   19.9720 H   0  0  0  0  0  0  0  0  0  0  0  0
  -31.0560  -22.3920   20.9230 C   0  0  0  0  0  2  0  0  0  0  0  0
  -29.7660  -23.0790   20.5830 N   0  0  0  0  0  4  0  0  0  0  0  0
  -29.0990  -22.8400   21.3000 H   0  0  0  0  0  0  0  0  0  0  0  0
  -29.4340  -22.6660   19.7230 H   0  0  0  0  0  0  0  0  0  0  0  0
  -29.8140  -24.5860   20.4190 C   0  0  0  0  0  2  0  0  0  0  0  0
  -28.4150  -25.2760   20.2070 C   0  0  0  0  0  2  0  0  0  0  0  0
  -28.4630  -26.7340   20.2230 O   0  0  0  0  0  0  0  0  0  0  0  0
  -24.6430  -31.9760   23.2620 C   0  0  0  0  0  0  0  0  0  0  0  0
  -27.2720  -27.4590   20.2140 C   0  0  0  0  0  0  0  0  0  0  0  0
  -23.4270  -30.5700   21.6340 C   0  0  0  0  0  3  0  0  0  0  0  0
  -24.8710  -28.9990   20.2210 C   0  0  0  0  0  0  0  0  0  0  0  0
  -25.9600  -30.8960   21.4310 C   0  0  0  0  0  2  0  0  0  0  0  0
  -26.0360  -29.5170   20.8000 C   0  0  0  0  0  0  0  0  0  0  0  0
  -27.2340  -28.7580   20.7840 C   0  0  0  0  0  3  0  0  0  0  0  0
  -26.0790  -26.9570   19.6410 C   0  0  0  0  0  3  0  0  0  0  0  0
  -24.8900  -27.7150   19.6430 C   0  0  0  0  0  3  0  0  0  0  0  0
  -23.6320  -29.8720   20.2610 C   0  0  0  0  0  2  0  0  0  0  0  0
  -24.6960  -31.1620   22.1670 N   0  0  0  0  0  0  0  0  0  0  0  0
  -23.5620  -32.2640   23.7960 O   0  0  0  0  0  0  0  0  0  0  0  0
  -22.7650  -29.5640   22.6040 C   0  0  0  0  0  0  0  0  0  0  0  0
  -21.4410  -29.3850   22.4680 N   0  0  0  0  0  0  0  0  0  0  0  0
  -23.4400  -28.9490   23.4330 O   0  0  0  0  0  0  0  0  0  0  0  0
  -20.9600  -29.9320   21.7660 H   0  0  0  0  0  0  0  0  0  0  0  0
  -18.0640  -28.1940   22.9550 C   0  0  0  0  0  0  0  0  0  0  0  0
  -20.6180  -28.4550   23.2400 C   0  0  0  0  0  3  0  0  0  0  0  0
  -20.7260  -27.0200   22.6750 C   0  0  0  0  0  2  0  0  0  0  0  0
  -19.6300  -26.6860   21.6590 C   0  0  0  0  0  2  0  0  0  0  0  0
  -18.2440  -26.8380   22.2920 C   0  0  0  0  0  2  0  0  0  0  0  0
  -19.1790  -28.9600   23.3840 C   0  0  0  0  0  0  0  0  0  0  0  0
  -18.9590  -30.2280   23.9650 C   0  0  0  0  0  3  0  0  0  0  0  0
  -17.6530  -30.7310   24.1190 C   0  0  0  0  0  3  0  0  0  0  0  0
  -16.5520  -29.9630   23.7060 C   0  0  0  0  0  3  0  0  0  0  0  0
  -16.7570  -28.6970   23.1300 C   0  0  0  0  0  3  0  0  0  0  0  0
  -25.9320  -32.5990   23.8830 C   0  0  0  0  0  3  0  0  0  0  0  0
  -26.4420  -31.8320   25.1650 C   0  0  1  0  0  0  0  0  0  0  0  0
  -25.3430  -31.6060   26.2300 C   0  0  0  0  0  1  0  0  0  0  0  0
  -27.0230  -30.4520   24.7800 C   0  0  0  0  0  1  0  0  0  0  0  0
  -27.5960  -32.6240   25.8240 C   0  0  0  0  0  1  0  0  0  0  0  0
  -25.6290  -34.0020   24.2090 N   0  0  0  0  0  0  0  0  0  0  0  0
  -25.9620  -35.0520   23.4470 C   0  0  0  0  0  0  0  0  0  0  0  0
  -26.6310  -34.9400   22.4150 O   0  0  0  0  0  0  0  0  0  0  0  0
  -25.0380  -34.1610   25.0120 H   0  0  0  0  0  0  0  0  0  0  0  0
  -24.2410  -36.8490   23.0870 C   0  0  0  0  0  1  0  0  0  0  0  0
  -25.4830  -36.4450   23.8990 C   0  0  0  0  0  3  0  0  0  0  0  0
  -27.6260  -37.3210   24.7190 C   0  0  0  0  0  1  0  0  0  0  0  0
  -26.5230  -37.4900   23.7760 N   0  0  0  0  0  0  0  0  0  0  0  0
  -26.1260  -38.4170   23.9080 H   0  0  0  0  0  0  0  0  0  0  0  0
  2  1  2  0
  3  1  1  0
  4  5  2  0
  4  6  1  0
  5  2  1  0
  6  3  2  0
  7 19  1  0
  8 13  1  0
  9 10  1  0
  9  8  1  0
 11 10  1  0
 11 23  1  0
 11 12  1  0
 13  7  1  0
 13 12  1  0
 14  7  2  0
 15 19  1  0
 16 19  1  0
 16  5  1  0
 17 18  1  0
 17 15  1  0
 17 16  1  0
 20 21  2  0
 21 40  1  0
 22 21  1  0
 22 25  1  0
 23 20  1  0
 23 24  1  0
 24 22  2  0
 25 26  1  0
 26 27  2  0
 28 31  1  0
 28 27  1  0
 29 28  2  0
 30 29  1  0
 30 25  2  0
 31 32  1  0
 32 33  1  0
 33 34  2  0
 35 34  1  0
 35 39  1  0
 36 35  2  0
 37 32  2  0
 37 36  1  0
 38 37  1  0
 40 41  1  0
 41 44  1  0
 41 43  1  0
 42 40  2  0
 45 46  1  0
 45 20  1  0
 47 45  1  0
 48  6  1  0
 49 48  1  0
 49 50  1  0
 51 49  1  0
 52 49  1  0
 53 54  1  0
 53 52  1  0
 55 66  2  0
 56 54  1  0
 56 61  1  0
 57 65  1  0
 57 67  1  0
 58 64  1  0
 58 60  1  0
 59 65  1  0
 60 59  1  0
 61 60  2  0
 62 63  1  0
 62 56  2  0
 63 58  2  0
 64 57  1  0
 65 55  1  0
 67 69  2  0
 68 67  1  0
 70 68  1  0
 71 80  2  0
 71 76  1  0
 72 68  1  0
 72 76  1  0
 73 72  1  0
 74 75  1  0
 74 73  1  0
 75 71  1  0
 76 77  2  0
 77 78  1  0
 79 78  2  0
 80 79  1  0
 81 55  1  0
 81 86  1  0
 81 82  1  0
 82 85  1  1
 82 83  1  0
 84 82  1  0
 86 89  1  0
 87 91  1  0
 87 86  1  0
 88 87  2  0
 91 90  1  0
 93 91  1  0
 93 94  1  0
 93 92  1  0
M  ISO  4   7 100  19 100  53 101  54 101
M  END
>  <TORSDO>  (83) 
F 20

>  <SCORE>  (83) 
-13.914

>  <name>  (83) 
82

>  <ligand_id>  (83) 
82

>  <original_smiles>  (83) 
[H]c1c([H])c([H])c2c(c1[H])C([H])([H])C([H])([H])C([H])([H])C2([H])N([H])C(=O)C1([H])N(C(=O)C([H])(N([H])C(=O)C([H])(N([H])C([H])([H])[H])C([H])([H])[H])C(C([H])([H])[H])(C([H])([H])[H])C([H])([H])[H])C([H])([H])c2c([H])c(OC([H])([H])C([H])([H])[N+]([H])([H])C([H])([H])c3c([H])c([H])c([H])c(C4([H])N(C(=O)N5C([H])([H])C([H])([H])C([H])([H])C([H])(n6nc(-c7c([H])c([H])c(Oc8c([H])c([H])c(F)c([H])c8F)c([H])c7[H])c(C(=O)N([H])[H])c6N([H])[H])C5([H])[H])C([H])([H])C4([H])C([H])([H])[H])c3[H])c([H])c([H])c2C1([H])[H]

>  <smiles>  (83) 
[H]c1c([H])c([H])c2c(c1[H])C([H])([H])C([H])([H])C([H])([H])C2([H])N([H])C(=O)C1([H])N(C(=O)C([H])(N([H])C(=O)C([H])(N([H])C([H])([H])[H])C([H])([H])[H])C(C([H])([H])[H])(C([H])([H])[H])C([H])([H])[H])C([H])([H])c2c([H])c(OC([H])([H])C([H])([H])[N+]([H])([H])C([H])([H])c3c([H])c([H])c([H])c(C4([H])N(C(=O)N5C([H])([H])C([H])([H])C([H])([H])C([H])(n6nc(-c7c([H])c([H])c(Oc8c([H])c([H])c(F)c([H])c8F)c([H])c7[H])c(C(=O)N([H])[H])c6N([H])[H])C5([H])[H])C([H])([H])C4([H])C([H])([H])[H])c3[H])c([H])c([H])c2C1([H])[H]

$$$$
83:0:0
     RDKit          3D

 94103  0  0  1  0  0  0  0  0999 V2000
  -26.7090  -18.6820   20.0170 C   0  0  0  0  0  2  0  0  0  0  0  0
  -28.7160  -19.7160   21.1760 C   0  0  0  0  0  2  0  0  0  0  0  0
  -27.1880  -19.2110   18.6240 C   0  0  0  0  0  2  0  0  0  0  0  0
  -28.0570  -18.3680   20.7370 C   0  0  0  0  0  3  0  0  0  0  0  0
  -28.7570  -20.4720   19.8350 C   0  0  0  0  0  3  0  0  0  0  0  0
  -28.8650  -17.9790   19.5040 C   0  0  0  0  0  3  0  0  0  0  0  0
  -28.6610  -19.3250   18.8480 N   0  0  1  0  0  4  0  0  0  0  0  0
  -29.1610  -19.4640   17.9810 H   0  0  0  0  0  0  0  0  0  0  0  0
  -29.7660  -21.6550   19.5890 C   0  0  0  0  0  2  0  0  0  0  0  0
  -29.2070  -24.1750   19.4620 C   0  0  0  0  0  0  0  0  0  0  0  0
  -29.2530  -22.9710   20.0960 N   0  0  0  0  0  0  0  0  0  0  0  0
  -29.7420  -24.3460   18.3660 O   0  0  0  0  0  0  0  0  0  0  0  0
  -28.8050  -22.9520   21.0050 H   0  0  0  0  0  0  0  0  0  0  0  0
  -28.4150  -25.3400   20.1460 C   0  0  0  0  0  2  0  0  0  0  0  0
  -28.5190  -26.6450   19.4830 O   0  0  0  0  0  0  0  0  0  0  0  0
  -24.6560  -31.5660   22.9700 C   0  0  0  0  0  0  0  0  0  0  0  0
  -27.3640  -27.4190   19.5310 C   0  0  0  0  0  0  0  0  0  0  0  0
  -23.4510  -30.2370   21.2670 C   0  0  0  0  0  3  0  0  0  0  0  0
  -24.9240  -28.8750   19.6810 C   0  0  0  0  0  0  0  0  0  0  0  0
  -25.9590  -30.7070   21.0250 C   0  0  0  0  0  2  0  0  0  0  0  0
  -26.0790  -29.3850   20.2850 C   0  0  0  0  0  0  0  0  0  0  0  0
  -27.3040  -28.6710   20.2010 C   0  0  0  0  0  3  0  0  0  0  0  0
  -26.1910  -26.9460   18.9040 C   0  0  0  0  0  3  0  0  0  0  0  0
  -24.9800  -27.6600   18.9780 C   0  0  0  0  0  3  0  0  0  0  0  0
  -23.6500  -29.6810   19.8290 C   0  0  0  0  0  2  0  0  0  0  0  0
  -24.7080  -30.8520   21.8110 N   0  0  0  0  0  0  0  0  0  0  0  0
  -23.5840  -31.7500   23.5630 O   0  0  0  0  0  0  0  0  0  0  0  0
  -22.8750  -29.1220   22.1720 C   0  0  0  0  0  0  0  0  0  0  0  0
  -21.5520  -28.9010   22.0880 N   0  0  0  0  0  0  0  0  0  0  0  0
  -23.6130  -28.4640   22.9090 O   0  0  0  0  0  0  0  0  0  0  0  0
  -21.0080  -29.4930   21.4740 H   0  0  0  0  0  0  0  0  0  0  0  0
  -18.2620  -27.4890   22.5940 C   0  0  0  0  0  0  0  0  0  0  0  0
  -20.8090  -27.8670   22.8080 C   0  0  0  0  0  3  0  0  0  0  0  0
  -20.9680  -26.4890   22.1180 C   0  0  0  0  0  2  0  0  0  0  0  0
  -19.8440  -26.1850   21.1230 C   0  0  0  0  0  2  0  0  0  0  0  0
  -18.4880  -26.1950   21.8340 C   0  0  0  0  0  2  0  0  0  0  0  0
  -19.3520  -28.2850   23.0340 C   0  0  0  0  0  0  0  0  0  0  0  0
  -19.0900  -29.5000   23.7010 C   0  0  0  0  0  3  0  0  0  0  0  0
  -17.7710  -29.9110   23.9540 C   0  0  0  0  0  3  0  0  0  0  0  0
  -16.6950  -29.1140   23.5300 C   0  0  0  0  0  3  0  0  0  0  0  0
  -16.9380  -27.9080   22.8510 C   0  0  0  0  0  3  0  0  0  0  0  0
  -25.9360  -32.2100   23.5890 C   0  0  0  0  0  3  0  0  0  0  0  0
  -26.5160  -31.3910   24.8080 C   0  0  1  0  0  0  0  0  0  0  0  0
  -25.4660  -31.0680   25.8940 C   0  0  0  0  0  1  0  0  0  0  0  0
  -27.1240  -30.0520   24.3300 C   0  0  0  0  0  1  0  0  0  0  0  0
  -27.6670  -32.1810   25.4750 C   0  0  0  0  0  1  0  0  0  0  0  0
  -25.5900  -33.5780   24.0030 N   0  0  0  0  0  0  0  0  0  0  0  0
  -25.8540  -34.6780   23.2860 C   0  0  0  0  0  0  0  0  0  0  0  0
  -26.4900  -34.6500   22.2290 O   0  0  0  0  0  0  0  0  0  0  0  0
  -25.0220  -33.6700   24.8310 H   0  0  0  0  0  0  0  0  0  0  0  0
  -24.0460  -36.4130   23.0910 C   0  0  0  0  0  1  0  0  0  0  0  0
  -25.3350  -36.0230   23.8300 C   0  0  0  0  0  3  0  0  0  0  0  0
  -27.4650  -36.9600   24.6160 C   0  0  0  0  0  1  0  0  0  0  0  0
  -26.3200  -37.1210   23.7240 N   0  0  0  0  0  0  0  0  0  0  0  0
  -25.8840  -38.0160   23.9280 H   0  0  0  0  0  0  0  0  0  0  0  0
  -30.2690  -17.2420   19.6560 C   0  0  0  0  0  2  0  0  0  0  0  0
  -30.8800  -14.6960   19.6900 C   0  0  0  0  0  0  0  0  0  0  0  0
  -30.6720  -12.3330   18.9260 C   0  0  0  0  0  2  0  0  0  0  0  0
  -29.6890  -12.2860   17.7380 C   0  0  0  0  0  2  0  0  0  0  0  0
  -28.2400  -12.1410   18.2390 C   0  0  0  0  0  2  0  0  0  0  0  0
  -27.8980  -13.1580   19.3640 C   0  0  0  0  0  3  0  0  0  0  0  0
  -28.9940  -13.1960   20.4520 C   0  0  0  0  0  2  0  0  0  0  0  0
  -30.2820  -13.4680   19.7920 N   0  0  0  0  0  0  0  0  0  0  0  0
  -31.9900  -14.8340   19.1680 O   0  0  0  0  0  0  0  0  0  0  0  0
  -30.1110  -15.7820   20.0210 N   0  0  0  0  0  0  0  0  0  0  0  0
  -29.2330  -15.5310   20.4500 H   0  0  0  0  0  0  0  0  0  0  0  0
  -25.5850  -13.8170   20.2730 C   0  0  0  0  0  0  0  0  0  0  0  0
  -24.5230  -13.0740   20.7110 C   0  0  0  0  0  0  0  0  0  0  0  0
  -24.9350  -11.7090   20.6140 C   0  0  0  0  0  0  0  0  0  0  0  0
  -26.5770  -12.9110   19.9390 N   0  0  0  0  0  0  0  0  0  0  0  0
  -26.1970  -11.6350   20.2080 N   0  0  0  0  0  0  0  0  0  0  0  0
  -24.1800  -10.4680   20.8350 C   0  0  0  0  0  0  0  0  0  0  0  0
  -24.5830   -9.5170   21.7990 C   0  0  0  0  0  3  0  0  0  0  0  0
  -23.8300   -8.3410   22.0030 C   0  0  0  0  0  3  0  0  0  0  0  0
  -22.6570   -8.1090   21.2440 C   0  0  0  0  0  0  0  0  0  0  0  0
  -22.2770   -9.0470   20.2670 C   0  0  0  0  0  3  0  0  0  0  0  0
  -23.0310  -10.2130   20.0610 C   0  0  0  0  0  3  0  0  0  0  0  0
  -21.8780   -6.9840   21.3530 O   0  0  0  0  0  0  0  0  0  0  0  0
  -21.7120   -6.3410   22.5520 C   0  0  0  0  0  0  0  0  0  0  0  0
  -21.1570   -6.9920   23.6760 C   0  0  0  0  0  3  0  0  0  0  0  0
  -20.9330   -6.2730   24.8680 C   0  0  0  0  0  3  0  0  0  0  0  0
  -21.2560   -4.9040   24.9380 C   0  0  0  0  0  0  0  0  0  0  0  0
  -21.8010   -4.2530   23.8160 C   0  0  0  0  0  3  0  0  0  0  0  0
  -22.0230   -4.9680   22.6270 C   0  0  0  0  0  0  0  0  0  0  0  0
  -22.5290   -4.3320   21.5430 F   0  0  0  0  0  0  0  0  0  0  0  0
  -21.0360   -4.2100   26.0780 F   0  0  0  0  0  0  0  0  0  0  0  0
  -23.1680  -13.5920   21.1030 C   0  0  0  0  0  0  0  0  0  0  0  0
  -22.4900  -12.9050   22.0160 N   0  0  0  0  0  0  0  0  0  0  0  0
  -22.7230  -14.6380   20.6340 O   0  0  0  0  0  0  0  0  0  0  0  0
  -22.8660  -12.0570   22.4130 H   0  0  0  0  0  0  0  0  0  0  0  0
  -21.5870  -13.2350   22.3260 H   0  0  0  0  0  0  0  0  0  0  0  0
  -25.7820  -15.1830   20.1040 N   0  0  0  0  0  0  0  0  0  0  0  0
  -25.0140  -15.8350   20.2050 H   0  0  0  0  0  0  0  0  0  0  0  0
  -26.5790  -15.5760   19.6260 H   0  0  0  0  0  0  0  0  0  0  0  0
  3  7  1  0
  3  1  1  0
  4  1  1  0
  4  2  1  0
  5  9  1  0
  5  2  1  0
  6 56  1  0
  6  4  1  0
  7  8  1  6
  7  6  1  0
  7  5  1  0
  9 11  1  0
 10 11  1  0
 10 14  1  0
 11 13  1  0
 12 10  2  0
 15 17  1  0
 15 14  1  0
 16 27  2  0
 17 22  1  0
 18 26  1  0
 18 28  1  0
 19 25  1  0
 19 21  1  0
 20 26  1  0
 21 20  1  0
 22 21  2  0
 23 24  1  0
 23 17  2  0
 24 19  2  0
 25 18  1  0
 26 16  1  0
 28 30  2  0
 29 28  1  0
 31 29  1  0
 32 41  2  0
 32 37  1  0
 33 29  1  0
 33 37  1  0
 34 33  1  0
 35 36  1  0
 35 34  1  0
 36 32  1  0
 37 38  2  0
 38 39  1  0
 40 39  2  0
 41 40  1  0
 42 16  1  0
 42 47  1  0
 42 43  1  0
 43 46  1  1
 43 44  1  0
 45 43  1  0
 47 50  1  0
 48 52  1  0
 48 47  1  0
 49 48  2  0
 52 51  1  0
 54 52  1  0
 54 55  1  0
 54 53  1  0
 56 65  1  0
 57 63  1  0
 57 65  1  0
 58 63  1  0
 59 60  1  0
 59 58  1  0
 61 60  1  0
 61 70  1  0
 61 62  1  0
 63 62  1  0
 64 57  2  0
 65 66  1  0
 67 68  2  0
 68 87  1  0
 69 68  1  0
 69 72  1  0
 70 71  1  0
 70 67  1  0
 71 69  2  0
 72 73  1  0
 73 74  2  0
 75 78  1  0
 75 74  1  0
 76 75  2  0
 77 76  1  0
 77 72  2  0
 78 79  1  0
 79 84  2  0
 79 80  1  0
 80 81  2  0
 81 82  1  0
 82 86  1  0
 83 82  2  0
 84 83  1  0
 85 84  1  0
 87 88  1  0
 88 91  1  0
 88 90  1  0
 89 87  2  0
 92 93  1  0
 92 67  1  0
 94 92  1  0
M  ISO  4  14 101  15 101  57 100  65 100
M  END
>  <TORSDO>  (84) 
F 20

>  <SCORE>  (84) 
-11.729

>  <name>  (84) 
83

>  <ligand_id>  (84) 
83

>  <original_smiles>  (84) 
[H]c1c([H])c([H])c2c(c1[H])C([H])([H])C([H])([H])C([H])([H])C2([H])N([H])C(=O)C1([H])N(C(=O)C([H])(N([H])C(=O)C([H])(N([H])C([H])([H])[H])C([H])([H])[H])C(C([H])([H])[H])(C([H])([H])[H])C([H])([H])[H])C([H])([H])c2c([H])c(OC([H])([H])C(=O)N([H])C([H])([H])C3([H])C([H])([H])C4([H])C([H])([H])C([H])([H])[N+]3([H])C4([H])C([H])([H])N([H])C(=O)N3C([H])([H])C([H])([H])C([H])([H])C([H])(n4nc(-c5c([H])c([H])c(Oc6c([H])c([H])c(F)c([H])c6F)c([H])c5[H])c(C(=O)N([H])[H])c4N([H])[H])C3([H])[H])c([H])c([H])c2C1([H])[H]

>  <smiles>  (84) 
[H]c1c([H])c([H])c2c(c1[H])C([H])([H])C([H])([H])C([H])([H])C2([H])N([H])C(=O)C1([H])N(C(=O)C([H])(N([H])C(=O)C([H])(N([H])C([H])([H])[H])C([H])([H])[H])C(C([H])([H])[H])(C([H])([H])[H])C([H])([H])[H])C([H])([H])c2c([H])c(OC([H])([H])C(=O)N([H])C([H])([H])C3([H])C([H])([H])C4([H])C([H])([H])C([H])([H])[N+]3([H])C4([H])C([H])([H])N([H])C(=O)N3C([H])([H])C([H])([H])C([H])([H])C([H])(n4nc(-c5c([H])c([H])c(Oc6c([H])c([H])c(F)c([H])c6F)c([H])c5[H])c(C(=O)N([H])[H])c4N([H])[H])C3([H])[H])c([H])c([H])c2C1([H])[H]

$$$$
84:0:0
     RDKit          3D

 97105  0  0  1  0  0  0  0  0999 V2000
  -29.4930  -23.0600   21.8050 C   0  0  0  0  0  2  0  0  0  0  0  0
  -29.5620  -25.6040   21.8340 C   0  0  0  0  0  0  0  0  0  0  0  0
  -30.0050  -25.6960   23.0960 N   0  0  0  0  0  4  0  0  0  0  0  0
  -29.3420  -24.4170   21.2400 N   0  0  0  0  0  0  0  0  0  0  0  0
  -30.1780  -26.6030   23.5040 H   0  0  0  0  0  0  0  0  0  0  0  0
  -30.1890  -24.8940   23.6760 H   0  0  0  0  0  0  0  0  0  0  0  0
  -28.9500  -24.4720   20.3100 H   0  0  0  0  0  0  0  0  0  0  0  0
  -29.3050  -26.8710   21.0580 C   0  0  0  0  0  2  0  0  0  0  0  0
  -28.2750  -26.6990   20.0730 O   0  0  0  0  0  0  0  0  0  0  0  0
  -24.4730  -31.8940   23.1960 C   0  0  0  0  0  0  0  0  0  0  0  0
  -27.1360  -27.4760   20.1330 C   0  0  0  0  0  0  0  0  0  0  0  0
  -23.2560  -30.4770   21.5670 C   0  0  0  0  0  3  0  0  0  0  0  0
  -24.7100  -28.9390   20.1430 C   0  0  0  0  0  0  0  0  0  0  0  0
  -25.7710  -30.8630   21.3390 C   0  0  0  0  0  2  0  0  0  0  0  0
  -25.8630  -29.4860   20.7170 C   0  0  0  0  0  0  0  0  0  0  0  0
  -27.0770  -28.7690   20.7070 C   0  0  0  0  0  3  0  0  0  0  0  0
  -25.9690  -26.9450   19.5460 C   0  0  0  0  0  3  0  0  0  0  0  0
  -24.7570  -27.6650   19.5530 C   0  0  0  0  0  3  0  0  0  0  0  0
  -23.4570  -29.7840   20.1910 C   0  0  0  0  0  2  0  0  0  0  0  0
  -24.5180  -31.0930   22.0940 N   0  0  0  0  0  0  0  0  0  0  0  0
  -23.3970  -32.1620   23.7470 O   0  0  0  0  0  0  0  0  0  0  0  0
  -22.6200  -29.4600   22.5400 C   0  0  0  0  0  0  0  0  0  0  0  0
  -21.2930  -29.2800   22.4330 N   0  0  0  0  0  0  0  0  0  0  0  0
  -23.3150  -28.8340   23.3440 O   0  0  0  0  0  0  0  0  0  0  0  0
  -20.7950  -29.8350   21.7520 H   0  0  0  0  0  0  0  0  0  0  0  0
  -17.9240  -28.0980   22.9760 C   0  0  0  0  0  0  0  0  0  0  0  0
  -20.4860  -28.3460   23.2150 C   0  0  0  0  0  3  0  0  0  0  0  0
  -20.5770  -26.9140   22.6380 C   0  0  0  0  0  2  0  0  0  0  0  0
  -19.4590  -26.5950   21.6380 C   0  0  0  0  0  2  0  0  0  0  0  0
  -18.0870  -26.7470   22.3000 C   0  0  0  0  0  2  0  0  0  0  0  0
  -19.0520  -28.8560   23.3910 C   0  0  0  0  0  0  0  0  0  0  0  0
  -18.8470  -30.1220   23.9820 C   0  0  0  0  0  3  0  0  0  0  0  0
  -17.5470  -30.6290   24.1620 C   0  0  0  0  0  3  0  0  0  0  0  0
  -16.4340  -29.8680   23.7650 C   0  0  0  0  0  3  0  0  0  0  0  0
  -16.6230  -28.6040   23.1770 C   0  0  0  0  0  3  0  0  0  0  0  0
  -25.7650  -32.5290   23.7990 C   0  0  0  0  0  3  0  0  0  0  0  0
  -25.4510  -33.9190   24.1520 N   0  0  0  0  0  0  0  0  0  0  0  0
  -25.7730  -34.9830   23.4070 C   0  0  0  0  0  0  0  0  0  0  0  0
  -26.4400  -34.8990   22.3710 O   0  0  0  0  0  0  0  0  0  0  0  0
  -24.8580  -34.0580   24.9580 H   0  0  0  0  0  0  0  0  0  0  0  0
  -24.0280  -36.7650   23.0840 C   0  0  0  0  0  1  0  0  0  0  0  0
  -25.2770  -36.3620   23.8840 C   0  0  0  0  0  3  0  0  0  0  0  0
  -27.4100  -37.2520   24.7130 C   0  0  0  0  0  1  0  0  0  0  0  0
  -26.3010  -37.4240   23.7780 N   0  0  0  0  0  0  0  0  0  0  0  0
  -25.8890  -38.3390   23.9400 H   0  0  0  0  0  0  0  0  0  0  0  0
  -26.3170  -31.7450   25.0530 C   0  0  1  0  0  0  0  0  0  0  0  0
  -25.2470  -31.4710   26.1350 C   0  0  0  0  0  1  0  0  0  0  0  0
  -26.9170  -30.3850   24.6230 C   0  0  0  0  0  1  0  0  0  0  0  0
  -27.4670  -32.5450   25.7080 C   0  0  0  0  0  1  0  0  0  0  0  0
  -29.7140  -22.0350   20.6750 C   0  0  0  0  0  2  0  0  0  0  0  0
  -30.5590  -18.5410   21.8910 C   0  0  0  0  0  2  0  0  0  0  0  0
  -30.7270  -19.2110   19.4670 C   0  0  0  0  0  2  0  0  0  0  0  0
  -30.4240  -20.0870   22.0090 C   0  0  0  0  0  2  0  0  0  0  0  0
  -29.3640  -19.8280   19.8150 C   0  0  0  0  0  2  0  0  0  0  0  0
  -31.1040  -18.1110   20.5000 C   0  0  0  0  0  3  0  0  0  0  0  0
  -29.4470  -20.6360   21.0410 N   0  0  0  0  0  0  0  0  0  0  0  0
  -30.6120  -16.7150   20.0210 C   0  0  0  0  0  3  0  0  0  0  0  0
  -31.3640  -14.5860   21.1570 C   0  0  0  0  0  0  0  0  0  0  0  0
  -31.1290  -12.3260   20.2370 C   0  0  0  0  0  2  0  0  0  0  0  0
  -30.3660  -12.4550   18.9000 C   0  0  0  0  0  2  0  0  0  0  0  0
  -28.8390  -12.4610   19.1210 C   0  0  0  0  0  2  0  0  0  0  0  0
  -28.3840  -13.3980   20.2730 C   0  0  0  0  0  3  0  0  0  0  0  0
  -29.2780  -13.2270   21.5270 C   0  0  0  0  0  2  0  0  0  0  0  0
  -30.6810  -13.4120   21.1200 N   0  0  0  0  0  0  0  0  0  0  0  0
  -32.5740  -14.6860   20.9450 O   0  0  0  0  0  0  0  0  0  0  0  0
  -30.5500  -15.6510   21.0470 N   0  0  0  0  0  0  0  0  0  0  0  0
  -29.6160  -15.4640   21.3830 H   0  0  0  0  0  0  0  0  0  0  0  0
  -25.9690  -14.1690   20.7070 C   0  0  0  0  0  0  0  0  0  0  0  0
  -24.8140  -13.4710   20.9340 C   0  0  0  0  0  0  0  0  0  0  0  0
  -25.1810  -12.0910   20.9280 C   0  0  0  0  0  0  0  0  0  0  0  0
  -26.9690  -13.2190   20.5830 N   0  0  0  0  0  0  0  0  0  0  0  0
  -26.4920  -11.9630   20.7720 N   0  0  0  0  0  0  0  0  0  0  0  0
  -24.3570  -10.8790   21.0030 C   0  0  0  0  0  0  0  0  0  0  0  0
  -24.6610   -9.8360   21.9030 C   0  0  0  0  0  3  0  0  0  0  0  0
  -23.8410   -8.6890   21.9710 C   0  0  0  0  0  3  0  0  0  0  0  0
  -22.7050   -8.5770   21.1350 C   0  0  0  0  0  0  0  0  0  0  0  0
  -22.4210   -9.6080   20.2230 C   0  0  0  0  0  3  0  0  0  0  0  0
  -23.2400  -10.7480   20.1540 C   0  0  0  0  0  3  0  0  0  0  0  0
  -21.8690   -7.4870   21.1110 O   0  0  0  0  0  0  0  0  0  0  0  0
  -21.7270   -6.6660   22.2010 C   0  0  0  0  0  0  0  0  0  0  0  0
  -21.2990   -7.1580   23.4530 C   0  0  0  0  0  3  0  0  0  0  0  0
  -21.1000   -6.2690   24.5270 C   0  0  0  0  0  3  0  0  0  0  0  0
  -21.3170   -4.8880   24.3500 C   0  0  0  0  0  0  0  0  0  0  0  0
  -21.7390   -4.3980   23.1020 C   0  0  0  0  0  3  0  0  0  0  0  0
  -21.9400   -5.2840   22.0300 C   0  0  0  0  0  0  0  0  0  0  0  0
  -22.3250   -4.8030   20.8240 F   0  0  0  0  0  0  0  0  0  0  0  0
  -21.1190   -4.0320   25.3800 F   0  0  0  0  0  0  0  0  0  0  0  0
  -23.4300  -14.0400   21.0490 C   0  0  0  0  0  0  0  0  0  0  0  0
  -22.5640  -13.3960   21.8240 N   0  0  0  0  0  0  0  0  0  0  0  0
  -23.1220  -15.0910   20.4900 O   0  0  0  0  0  0  0  0  0  0  0  0
  -22.8170  -12.5420   22.3000 H   0  0  0  0  0  0  0  0  0  0  0  0
  -21.6280  -13.7590   21.9370 H   0  0  0  0  0  0  0  0  0  0  0  0
  -26.2470  -15.5270   20.5730 N   0  0  0  0  0  0  0  0  0  0  0  0
  -25.5130  -16.2250   20.6010 H   0  0  0  0  0  0  0  0  0  0  0  0
  -27.1380  -15.8980   20.2710 H   0  0  0  0  0  0  0  0  0  0  0  0
  -30.2980  -15.9260   17.5760 C   0  0  0  0  0  1  0  0  0  0  0  0
  -31.2990  -16.2670   18.6890 C   0  0  0  0  0  2  0  0  0  0  0  0
  2  3  2  0
  3  5  1  0
  3  6  1  0
  4  1  1  0
  4  2  1  0
  7  4  1  0
  8  2  1  0
  9 11  1  0
  9  8  1  0
 10 21  2  0
 11 16  1  0
 12 20  1  0
 12 22  1  0
 13 19  1  0
 13 15  1  0
 14 20  1  0
 15 14  1  0
 16 15  2  0
 17 18  1  0
 17 11  2  0
 18 13  2  0
 19 12  1  0
 20 10  1  0
 22 24  2  0
 23 22  1  0
 25 23  1  0
 26 35  2  0
 26 31  1  0
 27 23  1  0
 27 31  1  0
 28 27  1  0
 29 30  1  0
 29 28  1  0
 30 26  1  0
 31 32  2  0
 32 33  1  0
 34 33  2  0
 35 34  1  0
 36 10  1  0
 36 37  1  0
 36 46  1  0
 37 40  1  0
 38 42  1  0
 38 37  1  0
 39 38  2  0
 42 41  1  0
 44 42  1  0
 44 45  1  0
 44 43  1  0
 46 49  1  1
 46 47  1  0
 48 46  1  0
 50 56  1  0
 50  1  1  0
 51 53  1  0
 52 54  1  0
 52 55  1  0
 54 56  1  0
 55 57  1  0
 55 51  1  0
 56 53  1  0
 57 97  1  0
 57 66  1  0
 59 64  1  0
 60 61  1  0
 60 59  1  0
 62 61  1  0
 62 71  1  0
 62 63  1  0
 64 58  1  0
 64 63  1  0
 65 58  2  0
 66 58  1  0
 66 67  1  0
 68 69  2  0
 69 88  1  0
 70 69  1  0
 70 73  1  0
 71 68  1  0
 71 72  1  0
 72 70  2  0
 73 74  1  0
 74 75  2  0
 76 75  1  0
 77 76  2  0
 78 77  1  0
 78 73  2  0
 79 76  1  0
 79 80  1  0
 80 81  1  0
 81 82  2  0
 83 82  1  0
 83 87  1  0
 84 83  2  0
 85 80  2  0
 85 84  1  0
 86 85  1  0
 88 89  1  0
 89 92  1  0
 89 91  1  0
 90 88  2  0
 93 94  1  0
 93 68  1  0
 95 93  1  0
 96 97  1  0
M  ISO  4   8 101   9 101  58 100  66 100
M  END
>  <TORSDO>  (85) 
F 22

>  <SCORE>  (85) 
-11.119

>  <name>  (85) 
84

>  <ligand_id>  (85) 
84

>  <original_smiles>  (85) 
[H]c1c([H])c([H])c2c(c1[H])C([H])([H])C([H])([H])C([H])([H])C2([H])N([H])C(=O)C1([H])N(C(=O)C([H])(N([H])C(=O)C([H])(N([H])C([H])([H])[H])C([H])([H])[H])C(C([H])([H])[H])(C([H])([H])[H])C([H])([H])[H])C([H])([H])c2c([H])c(OC([H])([H])C(N([H])[H])=[N+]([H])C([H])([H])C([H])([H])N3C([H])([H])C([H])([H])C([H])(C([H])(N([H])C(=O)N4C([H])([H])C([H])([H])C([H])([H])C([H])(n5nc(-c6c([H])c([H])c(Oc7c([H])c([H])c(F)c([H])c7F)c([H])c6[H])c(C(=O)N([H])[H])c5N([H])[H])C4([H])[H])C([H])([H])C([H])([H])[H])C([H])([H])C3([H])[H])c([H])c([H])c2C1([H])[H]

>  <smiles>  (85) 
[H]c1c([H])c([H])c2c(c1[H])C([H])([H])C([H])([H])C([H])([H])C2([H])N([H])C(=O)C1([H])N(C(=O)C([H])(N([H])C(=O)C([H])(N([H])C([H])([H])[H])C([H])([H])[H])C(C([H])([H])[H])(C([H])([H])[H])C([H])([H])[H])C([H])([H])c2c([H])c(OC([H])([H])C(N([H])[H])=[N+]([H])C([H])([H])C([H])([H])N3C([H])([H])C([H])([H])C([H])(C([H])(N([H])C(=O)N4C([H])([H])C([H])([H])C([H])([H])C([H])(n5nc(-c6c([H])c([H])c(Oc7c([H])c([H])c(F)c([H])c7F)c([H])c6[H])c(C(=O)N([H])[H])c5N([H])[H])C4([H])[H])C([H])([H])C([H])([H])[H])C([H])([H])C3([H])[H])c([H])c([H])c2C1([H])[H]

$$$$
85:0:0
     RDKit          3D

101106  0  0  1  0  0  0  0  0999 V2000
  -28.8740  -19.5640   20.6820 C   0  0  0  0  0  2  0  0  0  0  0  0
  -27.6310  -21.7710   21.1380 C   0  0  0  0  0  2  0  0  0  0  0  0
  -30.0690  -21.5410   21.8640 C   0  0  0  0  0  2  0  0  0  0  0  0
  -28.1500  -22.8430   20.1560 C   0  0  0  0  0  2  0  0  0  0  0  0
  -29.8970  -23.0650   21.9340 C   0  0  0  0  0  2  0  0  0  0  0  0
  -28.7350  -20.7950   21.6150 C   0  0  0  0  0  3  0  0  0  0  0  0
  -29.3550  -23.5770   20.6490 N   0  0  2  0  0  4  0  0  0  0  0  0
  -30.0810  -23.3770   19.9740 H   0  0  0  0  0  0  0  0  0  0  0  0
  -29.2060  -25.0510   20.6340 C   0  0  0  0  0  2  0  0  0  0  0  0
  -29.2760  -25.6260   19.2050 C   0  0  0  0  0  2  0  0  0  0  0  0
  -29.0640  -27.0320   19.2420 O   0  0  0  0  0  0  0  0  0  0  0  0
  -24.7130  -31.1960   22.9730 C   0  0  0  0  0  0  0  0  0  0  0  0
  -27.7800  -27.5130   19.3590 C   0  0  0  0  0  0  0  0  0  0  0  0
  -23.6300  -29.8320   21.2150 C   0  0  0  0  0  3  0  0  0  0  0  0
  -25.2080  -28.6520   19.6030 C   0  0  0  0  0  0  0  0  0  0  0  0
  -26.0750  -30.5440   20.9910 C   0  0  0  0  0  2  0  0  0  0  0  0
  -26.3080  -29.2690   20.2110 C   0  0  0  0  0  0  0  0  0  0  0  0
  -27.5930  -28.7070   20.0850 C   0  0  0  0  0  3  0  0  0  0  0  0
  -26.6590  -26.8920   18.7580 C   0  0  0  0  0  3  0  0  0  0  0  0
  -25.3770  -27.4610   18.8780 C   0  0  0  0  0  3  0  0  0  0  0  0
  -23.8680  -29.3290   19.7660 C   0  0  0  0  0  2  0  0  0  0  0  0
  -24.8260  -30.5340   21.7870 N   0  0  0  0  0  0  0  0  0  0  0  0
  -23.6290  -31.2650   23.5660 O   0  0  0  0  0  0  0  0  0  0  0  0
  -23.1490  -28.6400   22.0720 C   0  0  0  0  0  0  0  0  0  0  0  0
  -21.8860  -28.2350   21.8750 N   0  0  0  0  0  0  0  0  0  0  0  0
  -23.9130  -28.0850   22.8680 O   0  0  0  0  0  0  0  0  0  0  0  0
  -21.3220  -28.7530   21.2140 H   0  0  0  0  0  0  0  0  0  0  0  0
  -18.8140  -26.3390   22.0360 C   0  0  0  0  0  0  0  0  0  0  0  0
  -21.2280  -27.1110   22.5400 C   0  0  0  0  0  3  0  0  0  0  0  0
  -21.6770  -25.7620   21.9340 C   0  0  0  0  0  2  0  0  0  0  0  0
  -20.7570  -25.2630   20.8170 C   0  0  0  0  0  2  0  0  0  0  0  0
  -19.3270  -25.0880   21.3410 C   0  0  0  0  0  2  0  0  0  0  0  0
  -19.7070  -27.2970   22.5840 C   0  0  0  0  0  0  0  0  0  0  0  0
  -19.1810  -28.4600   23.1850 C   0  0  0  0  0  3  0  0  0  0  0  0
  -17.7920  -28.6730   23.2490 C   0  0  0  0  0  3  0  0  0  0  0  0
  -16.9100  -27.7120   22.7240 C   0  0  0  0  0  3  0  0  0  0  0  0
  -17.4210  -26.5480   22.1240 C   0  0  0  0  0  3  0  0  0  0  0  0
  -25.9340  -31.9180   23.6260 C   0  0  0  0  0  3  0  0  0  0  0  0
  -25.4990  -33.2680   24.0060 N   0  0  0  0  0  0  0  0  0  0  0  0
  -25.7630  -34.3770   23.3030 C   0  0  0  0  0  0  0  0  0  0  0  0
  -26.4690  -34.3750   22.2890 O   0  0  0  0  0  0  0  0  0  0  0  0
  -24.8690  -33.3360   24.7930 H   0  0  0  0  0  0  0  0  0  0  0  0
  -23.8980  -36.0300   22.9700 C   0  0  0  0  0  1  0  0  0  0  0  0
  -25.1460  -35.6980   23.8020 C   0  0  0  0  0  3  0  0  0  0  0  0
  -27.1720  -36.7230   24.7340 C   0  0  0  0  0  1  0  0  0  0  0  0
  -26.0880  -36.8380   23.7640 N   0  0  0  0  0  0  0  0  0  0  0  0
  -25.6000  -37.7140   23.9340 H   0  0  0  0  0  0  0  0  0  0  0  0
  -26.5200  -31.1440   24.8710 C   0  0  1  0  0  0  0  0  0  0  0  0
  -25.4550  -30.7740   25.9270 C   0  0  0  0  0  1  0  0  0  0  0  0
  -27.2160  -29.8380   24.4220 C   0  0  0  0  0  1  0  0  0  0  0  0
  -27.6020  -32.0060   25.5620 C   0  0  0  0  0  1  0  0  0  0  0  0
  -29.7770  -18.5130   21.2210 N   0  0  0  0  0  4  0  0  0  0  0  0
  -29.5090  -18.2850   22.1650 H   0  0  0  0  0  0  0  0  0  0  0  0
  -30.7130  -18.8850   21.2610 H   0  0  0  0  0  0  0  0  0  0  0  0
  -29.8030  -17.2440   20.4560 C   0  0  0  0  0  3  0  0  0  0  0  0
  -27.3120  -16.9260   21.4120 C   0  0  0  0  0  1  0  0  0  0  0  0
  -28.6110  -16.3500   20.8490 C   0  0  0  0  0  2  0  0  0  0  0  0
  -27.3290  -16.3580   20.0210 C   0  0  0  0  0 15  0  0  0  0  0  0
  -26.5970  -15.0770   19.9230 N   0  0  0  0  0  2  0  0  0  0  0  0
  -26.8440  -14.4380   20.6570 H   0  0  0  0  0  0  0  0  0  0  0  0
  -26.7770  -14.6310   19.0420 H   0  0  0  0  0  0  0  0  0  0  0  0
  -25.6060  -15.2360   19.9770 H   0  0  0  0  0  0  0  0  0  0  0  0
  -31.1660  -16.5170   20.6310 C   0  0  0  0  0  2  0  0  0  0  0  0
  -31.4640  -14.1570   19.7910 C   0  0  0  0  0  0  0  0  0  0  0  0
  -31.1090  -11.8680   18.9260 C   0  0  0  0  0  2  0  0  0  0  0  0
  -30.1520  -11.8700   17.7170 C   0  0  0  0  0  2  0  0  0  0  0  0
  -28.6770  -11.8520   18.1640 C   0  0  0  0  0  2  0  0  0  0  0  0
  -28.3750  -12.9190   19.2470 C   0  0  0  0  0  3  0  0  0  0  0  0
  -29.4140  -12.8230   20.3840 C   0  0  0  0  0  2  0  0  0  0  0  0
  -30.7630  -12.9960   19.8020 N   0  0  0  0  0  0  0  0  0  0  0  0
  -32.4540  -14.3610   19.0820 O   0  0  0  0  0  0  0  0  0  0  0  0
  -30.9680  -15.0710   20.6350 N   0  0  0  0  0  0  0  0  0  0  0  0
  -30.2400  -14.7180   21.2380 H   0  0  0  0  0  0  0  0  0  0  0  0
  -26.0370  -13.7670   19.9290 C   0  0  0  0  0  3  0  0  0  0  0  0
  -24.9230  -13.1110   20.3800 C   0  0  0  0  0  0  0  0  0  0  0  0
  -25.2810  -11.7300   20.4490 C   0  0  0  0  0  0  0  0  0  0  0  0
  -27.0080  -12.7930   19.7560 N   0  0  0  0  0  0  0  0  0  0  0  0
  -26.5580  -11.5690   20.1270 N   0  0  0  0  0  0  0  0  0  0  0  0
  -24.4700  -10.5460   20.7540 C   0  0  0  0  0  0  0  0  0  0  0  0
  -24.8210   -9.6550   21.7910 C   0  0  0  0  0  3  0  0  0  0  0  0
  -24.0120   -8.5340   22.0760 C   0  0  0  0  0  3  0  0  0  0  0  0
  -22.8390   -8.2950   21.3230 C   0  0  0  0  0  0  0  0  0  0  0  0
  -22.5050   -9.1730   20.2760 C   0  0  0  0  0  3  0  0  0  0  0  0
  -23.3140  -10.2860   19.9910 C   0  0  0  0  0  3  0  0  0  0  0  0
  -22.0080   -7.2160   21.5110 O   0  0  0  0  0  0  0  0  0  0  0  0
  -21.8560   -6.6310   22.7420 C   0  0  0  0  0  0  0  0  0  0  0  0
  -21.3940   -7.3590   23.8590 C   0  0  0  0  0  3  0  0  0  0  0  0
  -21.1840   -6.7040   25.0880 C   0  0  0  0  0  3  0  0  0  0  0  0
  -21.4270   -5.3220   25.2010 C   0  0  0  0  0  0  0  0  0  0  0  0
  -21.8820   -4.5940   24.0890 C   0  0  0  0  0  3  0  0  0  0  0  0
  -22.0930   -5.2450   22.8610 C   0  0  0  0  0  0  0  0  0  0  0  0
  -22.5120   -4.5360   21.7850 F   0  0  0  0  0  0  0  0  0  0  0  0
  -21.2180   -4.6900   26.3800 F   0  0  0  0  0  0  0  0  0  0  0  0
  -23.5720  -13.7140   20.6390 C   0  0  0  0  0  0  0  0  0  0  0  0
  -22.8230  -13.1590   21.5860 N   0  0  0  0  0  0  0  0  0  0  0  0
  -23.1950  -14.7170   20.0350 O   0  0  0  0  0  0  0  0  0  0  0  0
  -23.1370  -12.3470   22.0970 H   0  0  0  0  0  0  0  0  0  0  0  0
  -21.9140  -13.5470   21.7980 H   0  0  0  0  0  0  0  0  0  0  0  0
  -26.3020  -15.1020   19.6470 N   0  0  0  0  0  4  0  0  0  0  0  0
  -25.5310  -15.7570   19.5770 H   0  0  0  0  0 15  0  0  0  0  0  0
  -27.0950  -15.3720   19.0770 H   0  0  0  0  0  0  0  0  0  0  0  0
  1 52  1  0
  2  6  1  0
  3  5  1  0
  4  7  1  0
  4  2  1  0
  6  1  1  0
  6  3  1  0
  7  5  1  0
  7  8  1  6
  9  7  1  0
 10 11  1  0
 10  9  1  0
 11 13  1  0
 12 23  2  0
 13 18  1  0
 14 22  1  0
 14 24  1  0
 15 21  1  0
 15 17  1  0
 16 22  1  0
 17 16  1  0
 18 17  2  0
 19 20  1  0
 19 13  2  0
 20 15  2  0
 21 14  1  0
 22 12  1  0
 24 26  2  0
 25 24  1  0
 27 25  1  0
 28 37  2  0
 28 33  1  0
 29 25  1  0
 29 33  1  0
 30 29  1  0
 31 32  1  0
 31 30  1  0
 32 28  1  0
 33 34  2  0
 34 35  1  0
 36 35  2  0
 37 36  1  0
 38 12  1  0
 38 39  1  0
 38 48  1  0
 39 42  1  0
 40 44  1  0
 40 39  1  0
 41 40  2  0
 44 43  1  0
 46 44  1  0
 46 47  1  0
 46 45  1  0
 48 51  1  1
 48 49  1  0
 50 48  1  0
 52 54  1  0
 52 53  1  0
 55 63  1  0
 55 57  1  0
 55 52  1  0
 57 56  1  0
 59 60  1  0
 61 99  1  0
 63 72  1  0
 64 70  1  0
 64 72  1  0
 65 70  1  0
 66 67  1  0
 66 65  1  0
 68 67  1  0
 68 77  1  0
 68 69  1  0
 70 69  1  0
 71 64  2  0
 72 73  1  0
 74 75  2  0
 75 76  1  0
 75 94  1  0
 76 79  1  0
 77 74  1  0
 77 78  1  0
 78 76  2  0
 79 80  1  0
 80 81  2  0
 82 85  1  0
 82 81  1  0
 83 82  2  0
 84 83  1  0
 84 79  2  0
 85 86  1  0
 86 91  2  0
 86 87  1  0
 87 88  2  0
 88 89  1  0
 89 93  1  0
 90 89  2  0
 91 90  1  0
 92 91  1  0
 94 95  1  0
 95 98  1  0
 95 97  1  0
 96 94  2  0
 99 59  1  0
 99 62  1  0
101 99  1  0
M  ISO  4  10 101  11 101  64 100  72 100
M  END
>  <TORSDO>  (86) 
F 24

>  <SCORE>  (86) 
-8.019

>  <name>  (86) 
85

>  <ligand_id>  (86) 
85

>  <original_smiles>  (86) 
[H]c1c([H])c([H])c2c(c1[H])C([H])([H])C([H])([H])C([H])([H])C2([H])N([H])C(=O)C1([H])N(C(=O)C([H])(N([H])C(=O)C([H])(N([H])C([H])([H])[H])C([H])([H])[H])C(C([H])([H])[H])(C([H])([H])[H])C([H])([H])[H])C([H])([H])c2c([H])c(OC([H])([H])C([H])([H])[N+]3([H])C([H])([H])C([H])([H])C([H])(C([H])([H])[N+]([H])([H])C([H])(C([H])([H])N([H])C(=O)N4C([H])([H])C([H])([H])C([H])([H])C([H])(n5nc(-c6c([H])c([H])c(Oc7c([H])c([H])c(F)c([H])c7F)c([H])c6[H])c(C(=O)N([H])[H])c5N([H])[H])C4([H])[H])C4([H])C([H])([H])C4([H])[N+]([H])([H])[H])C([H])([H])C3([H])[H])c([H])c([H])c2C1([H])[H]

>  <smiles>  (86) 
[H]c1c([H])c([H])c2c(c1[H])C([H])([H])C([H])([H])C([H])([H])C2([H])N([H])C(=O)C1([H])N(C(=O)C([H])(N([H])C(=O)C([H])(N([H])C([H])([H])[H])C([H])([H])[H])C(C([H])([H])[H])(C([H])([H])[H])C([H])([H])[H])C([H])([H])c2c([H])c(OC([H])([H])C([H])([H])[N+]3([H])C([H])([H])C([H])([H])C([H])(C([H])([H])[N+]([H])([H])C([H])(C([H])([H])N([H])C(=O)N4C([H])([H])C([H])([H])C([H])([H])C([H])(n5nc(-c6c([H])c([H])c(Oc7c([H])c([H])c(F)c([H])c7F)c([H])c6[H])c(C(=O)N([H])[H])c5N([H])[H])C4([H])[H])C4([H])C([H])([H])C4([H])[N+]([H])([H])[H])C([H])([H])C3([H])[H])c([H])c([H])c2C1([H])[H]

$$$$
86:0:0
     RDKit          3D

100109  0  0  1  0  0  0  0  0999 V2000
  -29.9020  -21.8110   20.1970 C   0  0  0  0  0  0  0  0  0  0  0  0
  -29.4410  -22.9090   19.5490 N   0  0  0  0  0  0  0  0  0  0  0  0
  -30.5110  -21.8820   21.2660 O   0  0  0  0  0  0  0  0  0  0  0  0
  -28.9170  -22.7300   18.7010 H   0  0  0  0  0  0  0  0  0  0  0  0
  -29.6870  -20.4320   19.5200 C   0  0  0  0  0  2  0  0  0  0  0  0
  -28.1200  -18.3110   20.9770 C   0  0  0  0  0  2  0  0  0  0  0  0
  -28.4960  -17.6980   19.6100 C   0  0  0  0  0  2  0  0  0  0  0  0
  -30.2910  -17.5510   21.9360 C   0  0  0  0  0  2  0  0  0  0  0  0
  -30.6960  -16.8930   20.5920 C   0  0  0  0  0  3  0  0  0  0  0  0
  -29.4940  -18.8060   21.4870 C   0  0  0  0  0  3  0  0  0  0  0  0
  -30.0300  -17.8980   19.5920 C   0  0  0  0  0  3  0  0  0  0  0  0
  -30.2040  -19.2190   20.2590 N   0  0  1  0  0  4  0  0  0  0  0  0
  -31.1790  -19.3770   20.4690 H   0  0  0  0  0  0  0  0  0  0  0  0
  -30.8940  -14.4710   19.7950 C   0  0  0  0  0  0  0  0  0  0  0  0
  -30.4530  -12.3410   18.6120 C   0  0  0  0  0  2  0  0  0  0  0  0
  -29.4170  -12.5840   17.4940 C   0  0  0  0  0  2  0  0  0  0  0  0
  -27.9800  -12.4690   18.0400 C   0  0  0  0  0  2  0  0  0  0  0  0
  -27.7700  -13.2910   19.3410 C   0  0  0  0  0  3  0  0  0  0  0  0
  -28.9060  -13.0160   20.3550 C   0  0  0  0  0  2  0  0  0  0  0  0
  -30.1880  -13.3090   19.6910 N   0  0  0  0  0  0  0  0  0  0  0  0
  -31.9630  -14.6580   19.2080 O   0  0  0  0  0  0  0  0  0  0  0  0
  -30.2820  -15.4680   20.4720 N   0  0  0  0  0  0  0  0  0  0  0  0
  -29.4170  -15.2060   20.9230 H   0  0  0  0  0  0  0  0  0  0  0  0
  -25.4560  -13.9600   20.2530 C   0  0  0  0  0  0  0  0  0  0  0  0
  -24.3990  -13.2140   20.6970 C   0  0  0  0  0  0  0  0  0  0  0  0
  -24.8100  -11.8500   20.6060 C   0  0  0  0  0  0  0  0  0  0  0  0
  -26.4500  -13.0500   19.9220 N   0  0  0  0  0  0  0  0  0  0  0  0
  -26.0690  -11.7750   20.1900 N   0  0  0  0  0  0  0  0  0  0  0  0
  -24.0610  -10.6090   20.8370 C   0  0  0  0  0  0  0  0  0  0  0  0
  -24.5050   -9.6390   21.7620 C   0  0  0  0  0  3  0  0  0  0  0  0
  -23.7600   -8.4600   21.9780 C   0  0  0  0  0  3  0  0  0  0  0  0
  -22.5540   -8.2440   21.2680 C   0  0  0  0  0  0  0  0  0  0  0  0
  -22.1280   -9.2020   20.3310 C   0  0  0  0  0  3  0  0  0  0  0  0
  -22.8740  -10.3720   20.1150 C   0  0  0  0  0  3  0  0  0  0  0  0
  -21.7750   -7.1200   21.3950 O   0  0  0  0  0  0  0  0  0  0  0  0
  -21.7030   -6.4230   22.5750 C   0  0  0  0  0  0  0  0  0  0  0  0
  -21.2760   -7.0310   23.7750 C   0  0  0  0  0  3  0  0  0  0  0  0
  -21.1510   -6.2620   24.9490 C   0  0  0  0  0  3  0  0  0  0  0  0
  -21.4420   -4.8850   24.9220 C   0  0  0  0  0  0  0  0  0  0  0  0
  -21.8600   -4.2750   23.7260 C   0  0  0  0  0  3  0  0  0  0  0  0
  -21.9870   -5.0410   22.5550 C   0  0  0  0  0  0  0  0  0  0  0  0
  -22.3720   -4.4450   21.4020 F   0  0  0  0  0  0  0  0  0  0  0  0
  -21.3140   -4.1440   26.0470 F   0  0  0  0  0  0  0  0  0  0  0  0
  -23.0450  -13.7320   21.0920 C   0  0  0  0  0  0  0  0  0  0  0  0
  -22.3740  -13.0530   22.0150 N   0  0  0  0  0  0  0  0  0  0  0  0
  -22.5930  -14.7710   20.6120 O   0  0  0  0  0  0  0  0  0  0  0  0
  -22.7530  -12.2120   22.4250 H   0  0  0  0  0  0  0  0  0  0  0  0
  -21.4670  -13.3820   22.3170 H   0  0  0  0  0  0  0  0  0  0  0  0
  -25.6470  -15.3270   20.0800 N   0  0  0  0  0  0  0  0  0  0  0  0
  -24.8970  -15.9910   20.2380 H   0  0  0  0  0  0  0  0  0  0  0  0
  -26.4540  -15.7430   19.6340 H   0  0  0  0  0  0  0  0  0  0  0  0
  -29.6520  -24.3480   19.8710 C   0  0  0  0  0  3  0  0  0  0  0  0
  -30.6190  -24.9900   18.8440 C   0  0  0  0  0  2  0  0  0  0  0  0
  -32.0080  -24.3330   18.7060 C   0  0  0  0  0  2  0  0  0  0  0  0
  -32.8280  -24.9920   17.6720 N   0  0  0  0  0  4  0  0  0  0  0  0
  -32.3830  -24.9380   16.7720 H   0  0  0  0  0  0  0  0  0  0  0  0
  -33.7220  -24.5410   17.5950 H   0  0  0  0  0  0  0  0  0  0  0  0
  -32.9880  -25.9580   17.8940 H   0  0  0  0  0  0  0  0  0  0  0  0
  -28.3080  -25.1450   19.8400 C   0  0  0  0  0  2  0  0  0  0  0  0
  -28.4000  -26.5670   20.1420 O   0  0  0  0  0  0  0  0  0  0  0  0
  -24.4240  -31.7430   23.1330 C   0  0  0  0  0  0  0  0  0  0  0  0
  -27.2230  -27.3110   20.1080 C   0  0  0  0  0  0  0  0  0  0  0  0
  -23.2900  -30.3210   21.4630 C   0  0  0  0  0  3  0  0  0  0  0  0
  -24.8070  -28.8150   20.0730 C   0  0  0  0  0  0  0  0  0  0  0  0
  -25.8200  -30.7140   21.3320 C   0  0  0  0  0  2  0  0  0  0  0  0
  -25.9480  -29.3450   20.6880 C   0  0  0  0  0  0  0  0  0  0  0  0
  -27.1580  -28.6020   20.7010 C   0  0  0  0  0  3  0  0  0  0  0  0
  -26.0480  -26.8100   19.4950 C   0  0  0  0  0  3  0  0  0  0  0  0
  -24.8540  -27.5490   19.4760 C   0  0  0  0  0  3  0  0  0  0  0  0
  -23.5480  -29.6540   20.0890 C   0  0  0  0  0  2  0  0  0  0  0  0
  -24.5280  -30.9430   22.0330 N   0  0  0  0  0  0  0  0  0  0  0  0
  -23.3230  -31.9930   23.6440 O   0  0  0  0  0  0  0  0  0  0  0  0
  -22.6350  -29.2830   22.4040 C   0  0  0  0  0  0  0  0  0  0  0  0
  -21.3160  -29.0780   22.2480 N   0  0  0  0  0  0  0  0  0  0  0  0
  -23.3110  -28.6660   23.2300 O   0  0  0  0  0  0  0  0  0  0  0  0
  -20.8280  -29.6290   21.5550 H   0  0  0  0  0  0  0  0  0  0  0  0
  -17.9520  -27.8280   22.6810 C   0  0  0  0  0  0  0  0  0  0  0  0
  -20.5010  -28.1220   22.9990 C   0  0  0  0  0  3  0  0  0  0  0  0
  -20.6350  -26.6960   22.4130 C   0  0  0  0  0  2  0  0  0  0  0  0
  -19.5560  -26.3640   21.3780 C   0  0  0  0  0  2  0  0  0  0  0  0
  -18.1610  -26.4850   22.0000 C   0  0  0  0  0  2  0  0  0  0  0  0
  -19.0520  -28.6020   23.1360 C   0  0  0  0  0  0  0  0  0  0  0  0
  -18.8050  -29.8580   23.7310 C   0  0  0  0  0  3  0  0  0  0  0  0
  -17.4900  -30.3410   23.8770 C   0  0  0  0  0  3  0  0  0  0  0  0
  -16.4040  -29.5630   23.4390 C   0  0  0  0  0  3  0  0  0  0  0  0
  -16.6370  -28.3080   22.8480 C   0  0  0  0  0  3  0  0  0  0  0  0
  -25.6790  -32.4010   23.7840 C   0  0  0  0  0  3  0  0  0  0  0  0
  -26.1940  -31.6280   25.0600 C   0  0  1  0  0  0  0  0  0  0  0  0
  -25.0890  -31.3440   26.1040 C   0  0  0  0  0  1  0  0  0  0  0  0
  -26.8260  -30.2740   24.6620 C   0  0  0  0  0  1  0  0  0  0  0  0
  -27.3070  -32.4480   25.7550 C   0  0  0  0  0  1  0  0  0  0  0  0
  -25.3270  -33.7870   24.1250 N   0  0  0  0  0  0  0  0  0  0  0  0
  -25.6430  -34.8560   23.3830 C   0  0  0  0  0  0  0  0  0  0  0  0
  -26.3340  -34.7830   22.3630 O   0  0  0  0  0  0  0  0  0  0  0  0
  -24.7110  -33.9160   24.9140 H   0  0  0  0  0  0  0  0  0  0  0  0
  -23.8740  -36.6060   23.0140 C   0  0  0  0  0  1  0  0  0  0  0  0
  -25.1070  -36.2240   23.8460 C   0  0  0  0  0  3  0  0  0  0  0  0
  -27.1980  -37.1590   24.7330 C   0  0  0  0  0  1  0  0  0  0  0  0
  -26.1120  -37.3060   23.7680 N   0  0  0  0  0  0  0  0  0  0  0  0
  -25.6770  -38.2120   23.9160 H   0  0  0  0  0  0  0  0  0  0  0  0
  1  3  2  0
  2 52  1  0
  2  1  1  0
  4  2  1  0
  5  1  1  0
  5 12  1  0
  7  6  1  0
  9 22  1  0
  9  8  1  0
 10  6  1  0
 10  8  1  0
 11  7  1  0
 11 12  1  0
 11  9  1  0
 12 13  1  1
 12 10  1  0
 14 22  1  0
 15 20  1  0
 16 17  1  0
 16 15  1  0
 18 17  1  0
 18 27  1  0
 18 19  1  0
 20 14  1  0
 20 19  1  0
 21 14  2  0
 22 23  1  0
 24 25  2  0
 25 44  1  0
 26 25  1  0
 26 29  1  0
 27 28  1  0
 27 24  1  0
 28 26  2  0
 29 30  1  0
 30 31  2  0
 32 35  1  0
 32 31  1  0
 33 32  2  0
 34 33  1  0
 34 29  2  0
 35 36  1  0
 36 37  1  0
 37 38  2  0
 39 38  1  0
 39 43  1  0
 40 39  2  0
 41 36  2  0
 41 40  1  0
 42 41  1  0
 44 45  1  0
 45 48  1  0
 45 47  1  0
 46 44  2  0
 49 50  1  0
 49 24  1  0
 51 49  1  0
 52 53  1  0
 54 53  1  0
 55 58  1  0
 55 54  1  0
 56 55  1  0
 57 55  1  0
 59 52  1  0
 59 60  1  0
 61 72  2  0
 62 60  1  0
 62 67  1  0
 63 71  1  0
 63 73  1  0
 64 70  1  0
 64 66  1  0
 65 71  1  0
 66 67  2  0
 66 65  1  0
 68 62  2  0
 69 68  1  0
 69 64  2  0
 70 63  1  0
 71 61  1  0
 73 75  2  0
 74 73  1  0
 76 74  1  0
 77 86  2  0
 77 82  1  0
 78 74  1  0
 78 82  1  0
 79 78  1  0
 80 81  1  0
 80 79  1  0
 81 77  1  0
 82 83  2  0
 83 84  1  0
 85 84  2  0
 86 85  1  0
 87 61  1  0
 87 92  1  0
 87 88  1  0
 88 91  1  1
 88 89  1  0
 90 88  1  0
 92 95  1  0
 93 97  1  0
 93 92  1  0
 94 93  2  0
 97 96  1  0
 99 97  1  0
 99100  1  0
 99 98  1  0
M  ISO  4  14 100  22 100  59 101  60 101
M  END
>  <TORSDO>  (87) 
F 23

>  <SCORE>  (87) 
-11.566

>  <name>  (87) 
86

>  <ligand_id>  (87) 
86

>  <original_smiles>  (87) 
[H]c1c([H])c([H])c2c(c1[H])C([H])([H])C([H])([H])C([H])([H])C2([H])N([H])C(=O)C1([H])N(C(=O)C([H])(N([H])C(=O)C([H])(N([H])C([H])([H])[H])C([H])([H])[H])C(C([H])([H])[H])(C([H])([H])[H])C([H])([H])[H])C([H])([H])c2c([H])c(OC([H])([H])C([H])(N([H])C(=O)C([H])([H])[N+]3([H])C4([H])C([H])([H])C([H])([H])C3([H])C([H])(N([H])C(=O)N3C([H])([H])C([H])([H])C([H])([H])C([H])(n5nc(-c6c([H])c([H])c(Oc7c([H])c([H])c(F)c([H])c7F)c([H])c6[H])c(C(=O)N([H])[H])c5N([H])[H])C3([H])[H])C4([H])[H])C([H])([H])C([H])([H])[N+]([H])([H])[H])c([H])c([H])c2C1([H])[H]

>  <smiles>  (87) 
[H]c1c([H])c([H])c2c(c1[H])C([H])([H])C([H])([H])C([H])([H])C2([H])N([H])C(=O)C1([H])N(C(=O)C([H])(N([H])C(=O)C([H])(N([H])C([H])([H])[H])C([H])([H])[H])C(C([H])([H])[H])(C([H])([H])[H])C([H])([H])[H])C([H])([H])c2c([H])c(OC([H])([H])C([H])(N([H])C(=O)C([H])([H])[N+]3([H])C4([H])C([H])([H])C([H])([H])C3([H])C([H])(N([H])C(=O)N3C([H])([H])C([H])([H])C([H])([H])C([H])(n5nc(-c6c([H])c([H])c(Oc7c([H])c([H])c(F)c([H])c7F)c([H])c6[H])c(C(=O)N([H])[H])c5N([H])[H])C3([H])[H])C4([H])[H])C([H])([H])C([H])([H])[N+]([H])([H])[H])c([H])c([H])c2C1([H])[H]

$$$$
87:0:0
     RDKit          3D

 99110  0  0  1  0  0  0  0  0999 V2000
  -28.2470  -21.5880   21.5590 C   0  0  0  0  0  2  0  0  0  0  0  0
  -26.2350  -22.4220   20.2580 C   0  0  0  0  0  2  0  0  0  0  0  0
  -28.6830  -23.0800   21.4890 C   0  0  0  0  0  2  0  0  0  0  0  0
  -26.2050  -23.3720   21.4770 C   0  0  0  0  0  2  0  0  0  0  0  0
  -27.1990  -21.2240   20.4740 C   0  0  0  0  0  3  0  0  0  0  0  0
  -27.5310  -24.0140   21.7090 N   0  0  2  0  0  4  0  0  0  0  0  0
  -27.5490  -24.1950   22.7020 H   0  0  0  0  0  0  0  0  0  0  0  0
  -27.6080  -20.5840   19.1100 C   0  0  0  0  0  0  0  0  0  0  0  0
  -28.8290  -20.1610   18.7380 N   0  0  0  0  0  0  0  0  0  0  0  0
  -26.7120  -20.4680   18.2730 O   0  0  0  0  0  0  0  0  0  0  0  0
  -28.8770  -19.9060   17.7620 H   0  0  0  0  0  0  0  0  0  0  0  0
  -30.1000  -19.9880   19.4290 C   0  0  0  0  0  2  0  0  0  0  0  0
  -32.8010  -18.6130   19.0640 C   0  0  0  0  0  2  0  0  0  0  0  0
  -30.5820  -17.6420   18.4750 C   0  0  0  0  0  2  0  0  0  0  0  0
  -32.0750  -17.3350   18.6040 C   0  0  1  0  0  0  0  0  0  0  0  0
  -31.8490  -18.3090   20.2460 C   0  0  2  0  0  0  0  0  0  0  0  0
  -30.4220  -18.4960   19.7410 C   0  0  0  0  0  3  0  0  0  0  0  0
  -32.4430  -16.8870   20.0370 C   0  0  0  0  0  3  0  0  0  0  0  0
  -32.2020  -14.4700   20.2560 C   0  0  0  0  0  0  0  0  0  0  0  0
  -31.5110  -12.5280   18.9520 C   0  0  0  0  0  2  0  0  0  0  0  0
  -30.6920  -13.0450   17.7520 C   0  0  0  0  0  2  0  0  0  0  0  0
  -29.2020  -13.1780   18.1300 C   0  0  0  0  0  2  0  0  0  0  0  0
  -28.9830  -13.9230   19.4750 C   0  0  0  0  0  3  0  0  0  0  0  0
  -29.9340  -13.4050   20.5790 C   0  0  0  0  0  2  0  0  0  0  0  0
  -31.3020  -13.4770   20.0530 N   0  0  0  0  0  0  0  0  0  0  0  0
  -33.3930  -14.3490   19.9600 O   0  0  0  0  0  0  0  0  0  0  0  0
  -31.6850  -15.6980   20.4710 N   0  0  0  0  0  0  0  0  0  0  0  0
  -30.6970  -15.7760   20.6430 H   0  0  0  0  0  0  0  0  0  0  0  0
  -26.6800  -14.9200   20.0450 C   0  0  0  0  0  0  0  0  0  0  0  0
  -25.4870  -14.3370   20.3650 C   0  0  0  0  0  0  0  0  0  0  0  0
  -25.7350  -12.9290   20.4020 C   0  0  0  0  0  0  0  0  0  0  0  0
  -27.5860  -13.8810   19.8950 N   0  0  0  0  0  0  0  0  0  0  0  0
  -27.0170  -12.6800   20.1690 N   0  0  0  0  0  0  0  0  0  0  0  0
  -24.8150  -11.8020   20.5890 C   0  0  0  0  0  0  0  0  0  0  0  0
  -25.1210  -10.7400   21.4680 C   0  0  0  0  0  3  0  0  0  0  0  0
  -24.2140   -9.6750   21.6460 C   0  0  0  0  0  3  0  0  0  0  0  0
  -22.9820   -9.6660   20.9480 C   0  0  0  0  0  0  0  0  0  0  0  0
  -22.6940  -10.7140   20.0550 C   0  0  0  0  0  3  0  0  0  0  0  0
  -23.6020  -11.7700   19.8760 C   0  0  0  0  0  3  0  0  0  0  0  0
  -22.0490   -8.6630   21.0400 O   0  0  0  0  0  0  0  0  0  0  0  0
  -21.9320   -7.8880   22.1660 C   0  0  0  0  0  0  0  0  0  0  0  0
  -21.7520   -8.4560   23.4450 C   0  0  0  0  0  3  0  0  0  0  0  0
  -21.5700   -7.6220   24.5680 C   0  0  0  0  0  3  0  0  0  0  0  0
  -21.5560   -6.2230   24.4090 C   0  0  0  0  0  0  0  0  0  0  0  0
  -21.7260   -5.6560   23.1340 C   0  0  0  0  0  3  0  0  0  0  0  0
  -21.9120   -6.4860   22.0150 C   0  0  0  0  0  0  0  0  0  0  0  0
  -22.0570   -5.9350   20.7850 F   0  0  0  0  0  0  0  0  0  0  0  0
  -21.3730   -5.4220   25.4840 F   0  0  0  0  0  0  0  0  0  0  0  0
  -24.1680  -15.0320   20.5410 C   0  0  0  0  0  0  0  0  0  0  0  0
  -23.3030  -14.4940   21.3900 N   0  0  0  0  0  0  0  0  0  0  0  0
  -23.9180  -16.0900   19.9600 O   0  0  0  0  0  0  0  0  0  0  0  0
  -23.5160  -13.6380   21.8810 H   0  0  0  0  0  0  0  0  0  0  0  0
  -22.4130  -14.9410   21.5450 H   0  0  0  0  0  0  0  0  0  0  0  0
  -27.0630  -16.2450   19.8560 N   0  0  0  0  0  0  0  0  0  0  0  0
  -26.4000  -17.0080   19.9590 H   0  0  0  0  0  0  0  0  0  0  0  0
  -28.0150  -16.5540   19.7320 H   0  0  0  0  0  0  0  0  0  0  0  0
  -27.5860  -25.3830   21.0980 C   0  0  0  0  0  2  0  0  0  0  0  0
  -28.9110  -25.8530   20.4340 C   0  0  0  0  0  2  0  0  0  0  0  0
  -28.8790  -27.2160   19.9660 O   0  0  0  0  0  0  0  0  0  0  0  0
  -24.6600  -31.8020   23.3210 C   0  0  0  0  0  0  0  0  0  0  0  0
  -27.6630  -27.8610   19.9340 C   0  0  0  0  0  0  0  0  0  0  0  0
  -23.5850  -30.4860   21.5210 C   0  0  0  0  0  3  0  0  0  0  0  0
  -25.1730  -29.1920   19.9980 C   0  0  0  0  0  0  0  0  0  0  0  0
  -26.0820  -31.0330   21.4280 C   0  0  0  0  0  2  0  0  0  0  0  0
  -26.2750  -29.7410   20.6620 C   0  0  0  0  0  0  0  0  0  0  0  0
  -27.5240  -29.0870   20.6210 C   0  0  0  0  0  3  0  0  0  0  0  0
  -26.5470  -27.3260   19.2500 C   0  0  0  0  0  3  0  0  0  0  0  0
  -25.3040  -27.9850   19.2860 C   0  0  0  0  0  3  0  0  0  0  0  0
  -23.8680  -29.9520   20.0910 C   0  0  0  0  0  2  0  0  0  0  0  0
  -24.7910  -31.1160   22.1510 N   0  0  0  0  0  0  0  0  0  0  0  0
  -23.5520  -31.9550   23.8540 O   0  0  0  0  0  0  0  0  0  0  0  0
  -22.9820  -29.3420   22.3660 C   0  0  0  0  0  0  0  0  0  0  0  0
  -21.6730  -29.0930   22.1900 N   0  0  0  0  0  0  0  0  0  0  0  0
  -23.6870  -28.6860   23.1350 O   0  0  0  0  0  0  0  0  0  0  0  0
  -21.1610  -29.6850   21.5520 H   0  0  0  0  0  0  0  0  0  0  0  0
  -18.3460  -27.7510   22.5950 C   0  0  0  0  0  0  0  0  0  0  0  0
  -20.9030  -28.0360   22.8430 C   0  0  0  0  0  3  0  0  0  0  0  0
  -21.0220  -26.7040   22.0680 C   0  0  0  0  0  2  0  0  0  0  0  0
  -19.9010  -26.5000   21.0450 C   0  0  0  0  0  2  0  0  0  0  0  0
  -18.5350  -26.5160   21.7350 C   0  0  0  0  0  2  0  0  0  0  0  0
  -19.4580  -28.4750   23.1020 C   0  0  0  0  0  0  0  0  0  0  0  0
  -19.2280  -29.6390   23.8650 C   0  0  0  0  0  3  0  0  0  0  0  0
  -17.9180  -30.0800   24.1290 C   0  0  0  0  0  3  0  0  0  0  0  0
  -16.8200  -29.3510   23.6400 C   0  0  0  0  0  3  0  0  0  0  0  0
  -17.0340  -28.1870   22.8800 C   0  0  0  0  0  3  0  0  0  0  0  0
  -25.8890  -32.4490   24.0340 C   0  0  0  0  0  3  0  0  0  0  0  0
  -25.5370  -33.8380   24.3510 N   0  0  0  0  0  0  0  0  0  0  0  0
  -25.8900  -34.8970   23.6120 C   0  0  0  0  0  0  0  0  0  0  0  0
  -26.6150  -34.8100   22.6170 O   0  0  0  0  0  0  0  0  0  0  0  0
  -24.8970  -33.9810   25.1180 H   0  0  0  0  0  0  0  0  0  0  0  0
  -24.1340  -36.6460   23.1770 C   0  0  0  0  0  1  0  0  0  0  0  0
  -25.3480  -36.2740   24.0430 C   0  0  0  0  0  3  0  0  0  0  0  0
  -27.4310  -37.2000   24.9540 C   0  0  0  0  0  1  0  0  0  0  0  0
  -26.3580  -37.3510   23.9750 N   0  0  0  0  0  0  0  0  0  0  0  0
  -25.9250  -38.2600   24.1190 H   0  0  0  0  0  0  0  0  0  0  0  0
  -26.3360  -31.6740   25.3350 C   0  0  1  0  0  0  0  0  0  0  0  0
  -25.1680  -31.3480   26.2950 C   0  0  0  0  0  1  0  0  0  0  0  0
  -27.0310  -30.3420   24.9680 C   0  0  0  0  0  1  0  0  0  0  0  0
  -27.3760  -32.5150   26.1150 C   0  0  0  0  0  1  0  0  0  0  0  0
  2  5  1  0
  2  4  1  0
  3  1  1  0
  3  6  1  0
  4  6  1  0
  5  8  1  0
  5  1  1  0
  6  7  1  1
  9  8  1  0
  9 12  1  0
 10  8  2  0
 11  9  1  0
 14 17  1  0
 15 14  1  1
 15 13  1  0
 15 18  1  0
 15 16  1  0
 16 13  1  6
 17 12  1  0
 17 16  1  0
 18 16  1  0
 18 27  1  0
 19 27  1  0
 20 25  1  0
 21 22  1  0
 21 20  1  0
 23 22  1  0
 23 32  1  0
 23 24  1  0
 25 19  1  0
 25 24  1  0
 26 19  2  0
 27 28  1  0
 29 30  2  0
 30 31  1  0
 30 49  1  0
 31 34  1  0
 32 29  1  0
 32 33  1  0
 33 31  2  0
 34 35  1  0
 35 36  2  0
 37 40  1  0
 37 36  1  0
 38 37  2  0
 39 38  1  0
 39 34  2  0
 40 41  1  0
 41 42  1  0
 42 43  2  0
 44 43  1  0
 44 48  1  0
 45 44  2  0
 46 41  2  0
 46 45  1  0
 47 46  1  0
 49 50  1  0
 50 53  1  0
 50 52  1  0
 51 49  2  0
 54 55  1  0
 54 29  1  0
 56 54  1  0
 57  6  1  0
 58 57  1  0
 59 58  1  0
 60 71  2  0
 61 59  1  0
 61 66  1  0
 62 70  1  0
 62 72  1  0
 63 69  1  0
 63 65  1  0
 64 70  1  0
 65 64  1  0
 66 65  2  0
 67 68  1  0
 67 61  2  0
 68 63  2  0
 69 62  1  0
 70 60  1  0
 72 74  2  0
 73 72  1  0
 75 73  1  0
 76 85  2  0
 76 81  1  0
 77 73  1  0
 77 81  1  0
 78 77  1  0
 79 80  1  0
 79 78  1  0
 80 76  1  0
 81 82  2  0
 82 83  1  0
 84 83  2  0
 85 84  1  0
 86 60  1  0
 86 87  1  0
 86 96  1  0
 87 90  1  0
 88 92  1  0
 88 87  1  0
 89 88  2  0
 92 91  1  0
 94 92  1  0
 94 95  1  0
 94 93  1  0
 96 99  1  1
 96 97  1  0
 98 96  1  0
M  ISO  4  19 100  27 100  58 101  59 101
M  END
>  <TORSDO>  (88) 
F 21

>  <SCORE>  (88) 
-10.466

>  <name>  (88) 
87

>  <ligand_id>  (88) 
87

>  <original_smiles>  (88) 
[H]c1c([H])c([H])c2c(c1[H])C([H])([H])C([H])([H])C([H])([H])C2([H])N([H])C(=O)C1([H])N(C(=O)C([H])(N([H])C(=O)C([H])(N([H])C([H])([H])[H])C([H])([H])[H])C(C([H])([H])[H])(C([H])([H])[H])C([H])([H])[H])C([H])([H])c2c([H])c(OC([H])([H])C([H])([H])[N+]3([H])C([H])([H])C([H])([H])C([H])(C(=O)N([H])C([H])([H])C4([H])C([H])([H])C5([H])C([H])([H])C4([H])C5([H])N([H])C(=O)N4C([H])([H])C([H])([H])C([H])([H])C([H])(n5nc(-c6c([H])c([H])c(Oc7c([H])c([H])c(F)c([H])c7F)c([H])c6[H])c(C(=O)N([H])[H])c5N([H])[H])C4([H])[H])C([H])([H])C3([H])[H])c([H])c([H])c2C1([H])[H]

>  <smiles>  (88) 
[H]c1c([H])c([H])c2c(c1[H])C([H])([H])C([H])([H])C([H])([H])C2([H])N([H])C(=O)C1([H])N(C(=O)C([H])(N([H])C(=O)C([H])(N([H])C([H])([H])[H])C([H])([H])[H])C(C([H])([H])[H])(C([H])([H])[H])C([H])([H])[H])C([H])([H])c2c([H])c(OC([H])([H])C([H])([H])[N+]3([H])C([H])([H])C([H])([H])C([H])(C(=O)N([H])C([H])([H])C4([H])C([H])([H])C5([H])C([H])([H])C4([H])C5([H])N([H])C(=O)N4C([H])([H])C([H])([H])C([H])([H])C([H])(n5nc(-c6c([H])c([H])c(Oc7c([H])c([H])c(F)c([H])c7F)c([H])c6[H])c(C(=O)N([H])[H])c5N([H])[H])C4([H])[H])C([H])([H])C3([H])[H])c([H])c([H])c2C1([H])[H]

$$$$
88:0:0
     RDKit          3D

 94103  0  0  1  0  0  0  0  0999 V2000
  -28.0580  -17.3440   21.0210 C   0  0  0  0  0  0  0  0  0  0  0  0
  -27.5120  -18.0730   19.7720 C   0  0  0  0  0  2  0  0  0  0  0  0
  -29.4560  -17.7740   21.4910 C   0  0  0  0  0  2  0  0  0  0  0  0
  -29.4530  -17.4450   18.2180 C   0  0  0  0  0  2  0  0  0  0  0  0
  -30.5210  -17.0480   19.2670 C   0  0  0  0  0  3  0  0  0  0  0  0
  -28.6220  -18.6180   18.8230 C   0  0  0  0  0  3  0  0  0  0  0  0
  -30.3340  -18.2520   20.3100 C   0  0  0  0  0  3  0  0  0  0  0  0
  -27.4270  -16.4210   21.6090 N   0  0  0  0  0  0  0  0  0  0  0  0
  -29.5480  -19.3860   19.6730 N   0  0  1  0  0  4  0  0  0  0  0  0
  -26.5430  -16.1960   21.1610 H   0  0  0  0  0  0  0  0  0  0  0  0
  -28.9840  -19.7220   20.4370 H   0  0  0  0  0  0  0  0  0  0  0  0
  -31.1080  -14.4560   19.3930 C   0  0  0  0  0  0  0  0  0  0  0  0
  -30.7500  -12.1510   18.5090 C   0  0  0  0  0  2  0  0  0  0  0  0
  -29.6890  -12.2140   17.3880 C   0  0  0  0  0  2  0  0  0  0  0  0
  -28.2680  -12.0990   17.9750 C   0  0  0  0  0  2  0  0  0  0  0  0
  -28.0480  -13.0330   19.1950 C   0  0  0  0  0  3  0  0  0  0  0  0
  -29.2200  -12.9540   20.1990 C   0  0  0  0  0  2  0  0  0  0  0  0
  -30.4620  -13.2430   19.4660 N   0  0  0  0  0  0  0  0  0  0  0  0
  -32.2150  -14.5450   18.8570 O   0  0  0  0  0  0  0  0  0  0  0  0
  -30.3910  -15.5860   19.7280 N   0  0  0  0  0  0  0  0  0  0  0  0
  -29.5340  -15.3710   20.2170 H   0  0  0  0  0  0  0  0  0  0  0  0
  -25.7920  -13.7110   20.2190 C   0  0  0  0  0  0  0  0  0  0  0  0
  -24.7440  -12.9790   20.7030 C   0  0  0  0  0  0  0  0  0  0  0  0
  -25.1260  -11.6090   20.5700 C   0  0  0  0  0  0  0  0  0  0  0  0
  -26.7570  -12.7930   19.8350 N   0  0  0  0  0  0  0  0  0  0  0  0
  -26.3660  -11.5200   20.1030 N   0  0  0  0  0  0  0  0  0  0  0  0
  -24.3580  -10.3800   20.8040 C   0  0  0  0  0  0  0  0  0  0  0  0
  -24.7490   -9.4410   21.7850 C   0  0  0  0  0  3  0  0  0  0  0  0
  -23.9830   -8.2780   22.0060 C   0  0  0  0  0  3  0  0  0  0  0  0
  -22.8120   -8.0420   21.2470 C   0  0  0  0  0  0  0  0  0  0  0  0
  -22.4400   -8.9680   20.2560 C   0  0  0  0  0  3  0  0  0  0  0  0
  -23.2060  -10.1240   20.0330 C   0  0  0  0  0  3  0  0  0  0  0  0
  -22.0200   -6.9260   21.3760 O   0  0  0  0  0  0  0  0  0  0  0  0
  -21.7880   -6.3450   22.5960 C   0  0  0  0  0  0  0  0  0  0  0  0
  -21.1750   -7.0530   23.6540 C   0  0  0  0  0  3  0  0  0  0  0  0
  -20.8930   -6.3960   24.8680 C   0  0  0  0  0  3  0  0  0  0  0  0
  -21.2130   -5.0340   25.0250 C   0  0  0  0  0  0  0  0  0  0  0  0
  -21.8190   -4.3270   23.9710 C   0  0  0  0  0  3  0  0  0  0  0  0
  -22.1020   -4.9810   22.7600 C   0  0  0  0  0  0  0  0  0  0  0  0
  -22.6670   -4.2900   21.7390 F   0  0  0  0  0  0  0  0  0  0  0  0
  -20.9350   -4.4020   26.1880 F   0  0  0  0  0  0  0  0  0  0  0  0
  -23.4200  -13.5170   21.1620 C   0  0  0  0  0  0  0  0  0  0  0  0
  -22.7740  -12.8360   22.1020 N   0  0  0  0  0  0  0  0  0  0  0  0
  -22.9740  -14.5750   20.7220 O   0  0  0  0  0  0  0  0  0  0  0  0
  -23.1510  -11.9790   22.4790 H   0  0  0  0  0  0  0  0  0  0  0  0
  -21.8900  -13.1770   22.4500 H   0  0  0  0  0  0  0  0  0  0  0  0
  -25.9890  -15.0750   20.0410 N   0  0  0  0  0  0  0  0  0  0  0  0
  -25.2100  -15.7150   20.1420 H   0  0  0  0  0  0  0  0  0  0  0  0
  -26.7340  -15.4370   19.4630 H   0  0  0  0  0  0  0  0  0  0  0  0
  -30.1320  -20.7190   19.1820 C   0  0  0  0  0  2  0  0  0  0  0  0
  -29.0940  -21.9600   19.0490 C   0  0  0  0  0  2  0  0  0  0  0  0
  -29.5600  -23.5110   19.0780 C   0  0  0  0  0  3  0  0  0  0  0  0
  -28.4340  -24.6500   18.8830 C   0  0  0  0  0  3  0  0  0  0  0  0
  -28.6490  -26.1050   19.1830 O   0  0  0  0  0  0  0  0  0  0  0  0
  -24.7580  -30.9990   22.8650 C   0  0  0  0  0  0  0  0  0  0  0  0
  -27.5140  -26.9490   19.2380 C   0  0  0  0  0  0  0  0  0  0  0  0
  -23.5990  -29.7900   21.0530 C   0  0  0  0  0  3  0  0  0  0  0  0
  -25.0970  -28.4930   19.4360 C   0  0  0  0  0  0  0  0  0  0  0  0
  -26.1280  -30.2120   20.9150 C   0  0  0  0  0  2  0  0  0  0  0  0
  -26.2550  -28.9310   20.0930 C   0  0  0  0  0  0  0  0  0  0  0  0
  -27.4650  -28.1750   19.9830 C   0  0  0  0  0  3  0  0  0  0  0  0
  -26.3270  -26.5810   18.5610 C   0  0  0  0  0  3  0  0  0  0  0  0
  -25.1390  -27.3280   18.6600 C   0  0  0  0  0  3  0  0  0  0  0  0
  -23.8320  -29.3120   19.5970 C   0  0  0  0  0  2  0  0  0  0  0  0
  -24.8480  -30.3430   21.6710 N   0  0  0  0  0  0  0  0  0  0  0  0
  -23.6670  -31.1650   23.4300 O   0  0  0  0  0  0  0  0  0  0  0  0
  -22.9730  -28.6330   21.8690 C   0  0  0  0  0  0  0  0  0  0  0  0
  -21.6510  -28.4370   21.7300 N   0  0  0  0  0  0  0  0  0  0  0  0
  -23.6760  -27.9200   22.5900 O   0  0  0  0  0  0  0  0  0  0  0  0
  -21.1400  -29.0690   21.1290 H   0  0  0  0  0  0  0  0  0  0  0  0
  -18.3070  -27.1060   22.1130 C   0  0  0  0  0  0  0  0  0  0  0  0
  -20.8660  -27.3800   22.3700 C   0  0  0  0  0  3  0  0  0  0  0  0
  -20.9820  -26.0490   21.5920 C   0  0  0  0  0  2  0  0  0  0  0  0
  -19.8650  -25.8520   20.5620 C   0  0  0  0  0  2  0  0  0  0  0  0
  -18.4950  -25.8730   21.2450 C   0  0  0  0  0  2  0  0  0  0  0  0
  -19.4200  -27.8230   22.6280 C   0  0  0  0  0  0  0  0  0  0  0  0
  -19.1900  -28.9810   23.4020 C   0  0  0  0  0  3  0  0  0  0  0  0
  -17.8790  -29.4240   23.6620 C   0  0  0  0  0  3  0  0  0  0  0  0
  -16.7820  -28.7030   23.1600 C   0  0  0  0  0  3  0  0  0  0  0  0
  -16.9960  -27.5450   22.3930 C   0  0  0  0  0  3  0  0  0  0  0  0
  -26.0200  -31.5890   23.5680 C   0  0  0  0  0  3  0  0  0  0  0  0
  -26.5240  -30.7080   24.7770 C   0  0  1  0  0  0  0  0  0  0  0  0
  -25.4160  -30.3640   25.8010 C   0  0  0  0  0  1  0  0  0  0  0  0
  -27.1250  -29.3760   24.2700 C   0  0  0  0  0  1  0  0  0  0  0  0
  -27.6570  -31.4470   25.5260 C   0  0  0  0  0  1  0  0  0  0  0  0
  -25.6820  -32.9460   24.0220 N   0  0  0  0  0  0  0  0  0  0  0  0
  -25.9870  -34.0690   23.3580 C   0  0  0  0  0  0  0  0  0  0  0  0
  -26.6520  -34.0720   22.3190 O   0  0  0  0  0  0  0  0  0  0  0  0
  -25.0890  -33.0150   24.8350 H   0  0  0  0  0  0  0  0  0  0  0  0
  -24.2090  -35.8410   23.1860 C   0  0  0  0  0  1  0  0  0  0  0  0
  -25.4750  -35.4010   23.9400 C   0  0  0  0  0  3  0  0  0  0  0  0
  -27.5970  -36.2750   24.8130 C   0  0  0  0  0  1  0  0  0  0  0  0
  -26.4780  -36.4880   23.8990 N   0  0  0  0  0  0  0  0  0  0  0  0
  -26.0510  -37.3810   24.1230 H   0  0  0  0  0  0  0  0  0  0  0  0
  1  3  1  0
  1  8  2  0
  2  1  1  0
  4  5  1  0
  5 20  1  0
  5  7  1  0
  6  4  1  0
  6  9  1  0
  6  2  1  0
  7  3  1  0
  9  7  1  0
  9 11  1  1
 10  8  1  0
 12 18  1  0
 12 20  1  0
 13 18  1  0
 14 15  1  0
 14 13  1  0
 16 15  1  0
 16 25  1  0
 16 17  1  0
 18 17  1  0
 19 12  2  0
 20 21  1  0
 22 23  2  0
 23 42  1  0
 24 23  1  0
 24 27  1  0
 25 26  1  0
 25 22  1  0
 26 24  2  0
 27 28  1  0
 28 29  2  0
 30 33  1  0
 30 29  1  0
 31 30  2  0
 32 31  1  0
 32 27  2  0
 33 34  1  0
 34 39  2  0
 34 35  1  0
 35 36  2  0
 36 37  1  0
 37 41  1  0
 38 37  2  0
 39 38  1  0
 40 39  1  0
 42 43  1  0
 43 46  1  0
 43 45  1  0
 44 42  2  0
 47 48  1  0
 47 22  1  0
 49 47  1  0
 50  9  1  0
 51 52  1  0
 51 50  1  0
 53 52  2  0
 53 54  1  0
 54 56  1  0
 55 66  2  0
 56 61  1  0
 57 65  1  0
 57 67  1  0
 58 64  1  0
 58 60  1  0
 59 65  1  0
 60 59  1  0
 61 60  2  0
 62 63  1  0
 62 56  2  0
 63 58  2  0
 64 57  1  0
 65 55  1  0
 67 69  2  0
 68 67  1  0
 70 68  1  0
 71 80  2  0
 71 76  1  0
 72 68  1  0
 72 76  1  0
 73 72  1  0
 74 75  1  0
 74 73  1  0
 75 71  1  0
 76 77  2  0
 77 78  1  0
 79 78  2  0
 80 79  1  0
 81 55  1  0
 81 86  1  0
 81 82  1  0
 82 85  1  1
 82 83  1  0
 84 82  1  0
 86 89  1  0
 87 91  1  0
 87 86  1  0
 88 87  2  0
 91 90  1  0
 93 91  1  0
 93 94  1  0
 93 92  1  0
M  ISO  4  12 100  20 100  53 101  54 101
M  END
>  <TORSDO>  (89) 
F 20

>  <SCORE>  (89) 
-8.695

>  <name>  (89) 
88

>  <ligand_id>  (89) 
88

>  <original_smiles>  (89) 
[H]N=C1C([H])([H])C2([H])C([H])([H])C([H])(N([H])C(=O)N3C([H])([H])C([H])([H])C([H])([H])C([H])(n4nc(-c5c([H])c([H])c(Oc6c([H])c([H])c(F)c([H])c6F)c([H])c5[H])c(C(=O)N([H])[H])c4N([H])[H])C3([H])[H])C([H])(C1([H])[H])[N+]2([H])C([H])([H])C([H])([H])C([H])([H])C([H])([H])Oc1c([H])c([H])c2c(c1[H])C([H])([H])N(C(=O)C([H])(N([H])C(=O)C([H])(N([H])C([H])([H])[H])C([H])([H])[H])C(C([H])([H])[H])(C([H])([H])[H])C([H])([H])[H])C([H])(C(=O)N([H])C1([H])c3c([H])c([H])c([H])c([H])c3C([H])([H])C([H])([H])C1([H])[H])C2([H])[H]

>  <smiles>  (89) 
[H]N=C1C([H])([H])C2([H])C([H])([H])C([H])(N([H])C(=O)N3C([H])([H])C([H])([H])C([H])([H])C([H])(n4nc(-c5c([H])c([H])c(Oc6c([H])c([H])c(F)c([H])c6F)c([H])c5[H])c(C(=O)N([H])[H])c4N([H])[H])C3([H])[H])C([H])(C1([H])[H])[N+]2([H])C([H])([H])C([H])([H])C([H])([H])C([H])([H])Oc1c([H])c([H])c2c(c1[H])C([H])([H])N(C(=O)C([H])(N([H])C(=O)C([H])(N([H])C([H])([H])[H])C([H])([H])[H])C(C([H])([H])[H])(C([H])([H])[H])C([H])([H])[H])C([H])(C(=O)N([H])C1([H])c3c([H])c([H])c([H])c([H])c3C([H])([H])C([H])([H])C1([H])[H])C2([H])[H]

$$$$
89:0:0
     RDKit          3D

 95103  0  0  1  0  0  0  0  0999 V2000
  -28.6110  -23.3280   19.8760 C   0  0  0  0  0  0  0  0  0  0  0  0
  -29.0010  -21.9190   20.6670 C   0  0  0  0  0  2  0  0  0  0  0  0
  -28.8410  -22.0290   17.8640 C   0  0  0  0  0  2  0  0  0  0  0  0
  -28.5910  -20.6840   18.6210 C   0  0  0  0  0  2  0  0  0  0  0  0
  -28.5410  -23.2790   18.5980 N   0  0  0  0  0  0  0  0  0  0  0  0
  -29.4000  -20.6190   19.8560 N   0  0  2  0  0  4  0  0  0  0  0  0
  -30.3360  -20.8290   19.5410 H   0  0  0  0  0  0  0  0  0  0  0  0
  -28.1690  -24.7440   20.6660 C   0  0  0  0  0  2  0  0  0  0  0  0
  -28.3820  -26.2170   20.1830 O   0  0  0  0  0  0  0  0  0  0  0  0
  -24.7080  -31.8900   23.2070 C   0  0  0  0  0  0  0  0  0  0  0  0
  -27.3160  -27.1910   20.1820 C   0  0  0  0  0  0  0  0  0  0  0  0
  -23.5170  -30.4890   21.5640 C   0  0  0  0  0  3  0  0  0  0  0  0
  -24.9760  -28.9160   20.1450 C   0  0  0  0  0  0  0  0  0  0  0  0
  -26.0700  -30.7680   21.4020 C   0  0  0  0  0  2  0  0  0  0  0  0
  -26.1540  -29.3750   20.7530 C   0  0  0  0  0  0  0  0  0  0  0  0
  -27.3280  -28.5290   20.7470 C   0  0  0  0  0  3  0  0  0  0  0  0
  -26.1140  -26.8290   19.5410 C   0  0  0  0  0  3  0  0  0  0  0  0
  -24.9690  -27.6590   19.5200 C   0  0  0  0  0  3  0  0  0  0  0  0
  -23.7450  -29.8080   20.1870 C   0  0  0  0  0  2  0  0  0  0  0  0
  -24.7850  -31.0730   22.1120 N   0  0  0  0  0  0  0  0  0  0  0  0
  -23.6180  -32.1680   23.7330 O   0  0  0  0  0  0  0  0  0  0  0  0
  -22.8410  -29.4790   22.5240 C   0  0  0  0  0  0  0  0  0  0  0  0
  -21.5100  -29.3230   22.4130 N   0  0  0  0  0  0  0  0  0  0  0  0
  -23.5180  -28.8390   23.3340 O   0  0  0  0  0  0  0  0  0  0  0  0
  -21.0210  -29.8940   21.7380 H   0  0  0  0  0  0  0  0  0  0  0  0
  -18.1220  -28.1520   22.9510 C   0  0  0  0  0  0  0  0  0  0  0  0
  -20.6880  -28.3850   23.1830 C   0  0  0  0  0  3  0  0  0  0  0  0
  -20.7660  -26.9590   22.5890 C   0  0  0  0  0  2  0  0  0  0  0  0
  -19.6460  -26.6590   21.5880 C   0  0  0  0  0  2  0  0  0  0  0  0
  -18.2750  -26.8110   22.2530 C   0  0  0  0  0  2  0  0  0  0  0  0
  -19.2560  -28.8990   23.3720 C   0  0  0  0  0  0  0  0  0  0  0  0
  -19.0570  -30.1540   23.9860 C   0  0  0  0  0  3  0  0  0  0  0  0
  -17.7600  -30.6630   24.1840 C   0  0  0  0  0  3  0  0  0  0  0  0
  -16.6410  -29.9150   23.7760 C   0  0  0  0  0  3  0  0  0  0  0  0
  -16.8250  -28.6610   23.1650 C   0  0  0  0  0  3  0  0  0  0  0  0
  -25.9810  -32.5300   23.8390 C   0  0  0  0  0  3  0  0  0  0  0  0
  -25.6510  -33.9160   24.2110 N   0  0  0  0  0  0  0  0  0  0  0  0
  -25.9500  -34.9970   23.4770 C   0  0  0  0  0  0  0  0  0  0  0  0
  -26.6000  -34.9320   22.4300 O   0  0  0  0  0  0  0  0  0  0  0  0
  -25.0780  -34.0400   25.0330 H   0  0  0  0  0  0  0  0  0  0  0  0
  -24.1910  -36.7760   23.2030 C   0  0  0  0  0  1  0  0  0  0  0  0
  -25.4500  -36.3650   23.9830 C   0  0  0  0  0  3  0  0  0  0  0  0
  -27.5790  -37.2640   24.8150 C   0  0  0  0  0  1  0  0  0  0  0  0
  -26.4660  -37.4370   23.8850 N   0  0  0  0  0  0  0  0  0  0  0  0
  -26.0460  -38.3470   24.0580 H   0  0  0  0  0  0  0  0  0  0  0  0
  -26.5160  -31.7380   25.0960 C   0  0  1  0  0  0  0  0  0  0  0  0
  -25.4340  -31.4550   26.1630 C   0  0  0  0  0  1  0  0  0  0  0  0
  -27.1210  -30.3800   24.6740 C   0  0  0  0  0  1  0  0  0  0  0  0
  -27.6570  -32.5340   25.7730 C   0  0  0  0  0  1  0  0  0  0  0  0
  -29.4980  -19.1510   20.5110 C   0  0  0  0  0  3  0  0  0  0  0  0
  -30.3630  -19.3070   21.7940 C   0  0  0  0  0  2  0  0  0  0  0  0
  -30.6940  -18.0560   22.6400 C   0  0  0  0  0  2  0  0  0  0  0  0
  -32.0630  -17.5530   22.3960 N   0  0  0  0  0  4  0  0  0  0  0  0
  -32.1840  -17.2120   21.4600 H   0  0  0  0  0  0  0  0  0  0  0  0
  -32.2750  -16.8010   23.0270 H   0  0  0  0  0  0  0  0  0  0  0  0
  -32.7400  -18.2790   22.5580 H   0  0  0  0  0  0  0  0  0  0  0  0
  -29.9850  -17.7620   19.6350 C   0  0  0  0  0  2  0  0  0  0  0  0
  -30.5670  -15.0480   19.8470 C   0  0  0  0  0  0  0  0  0  0  0  0
  -30.3980  -12.6850   18.9420 C   0  0  0  0  0  2  0  0  0  0  0  0
  -29.3880  -12.6430   17.7720 C   0  0  0  0  0  2  0  0  0  0  0  0
  -27.9540  -12.4320   18.2930 C   0  0  0  0  0  2  0  0  0  0  0  0
  -27.6280  -13.3360   19.5120 C   0  0  0  0  0  3  0  0  0  0  0  0
  -28.7610  -13.3530   20.5600 C   0  0  0  0  0  2  0  0  0  0  0  0
  -29.9810  -13.7800   19.8660 N   0  0  0  0  0  0  0  0  0  0  0  0
  -31.7340  -15.1220   19.4510 O   0  0  0  0  0  0  0  0  0  0  0  0
  -29.8030  -16.2340   20.0670 N   0  0  0  0  0  0  0  0  0  0  0  0
  -28.8650  -16.0210   20.3760 H   0  0  0  0  0  0  0  0  0  0  0  0
  -25.3200  -13.8900   20.4680 C   0  0  0  0  0  0  0  0  0  0  0  0
  -24.2830  -13.1060   20.8920 C   0  0  0  0  0  0  0  0  0  0  0  0
  -24.7290  -11.7560   20.7570 C   0  0  0  0  0  0  0  0  0  0  0  0
  -26.3320  -13.0180   20.1010 N   0  0  0  0  0  0  0  0  0  0  0  0
  -25.9900  -11.7250   20.3390 N   0  0  0  0  0  0  0  0  0  0  0  0
  -24.0030  -10.4930   20.9460 C   0  0  0  0  0  0  0  0  0  0  0  0
  -24.4390   -9.5210   21.8730 C   0  0  0  0  0  3  0  0  0  0  0  0
  -23.7140   -8.3220   22.0520 C   0  0  0  0  0  3  0  0  0  0  0  0
  -22.5360   -8.0880   21.3040 C   0  0  0  0  0  0  0  0  0  0  0  0
  -22.1180   -9.0480   20.3650 C   0  0  0  0  0  3  0  0  0  0  0  0
  -22.8440  -10.2370   20.1840 C   0  0  0  0  0  3  0  0  0  0  0  0
  -21.7780   -6.9450   21.3960 O   0  0  0  0  0  0  0  0  0  0  0  0
  -21.6680   -6.2470   22.5720 C   0  0  0  0  0  0  0  0  0  0  0  0
  -21.1310   -6.8320   23.7390 C   0  0  0  0  0  3  0  0  0  0  0  0
  -20.9720   -6.0570   24.9060 C   0  0  0  0  0  3  0  0  0  0  0  0
  -21.3370   -4.6960   24.9040 C   0  0  0  0  0  0  0  0  0  0  0  0
  -21.8650   -4.1120   23.7410 C   0  0  0  0  0  3  0  0  0  0  0  0
  -22.0270   -4.8840   22.5770 C   0  0  0  0  0  0  0  0  0  0  0  0
  -22.5180   -4.3080   21.4530 F   0  0  0  0  0  0  0  0  0  0  0  0
  -21.1760   -3.9500   26.0220 F   0  0  0  0  0  0  0  0  0  0  0  0
  -22.9180  -13.5810   21.2950 C   0  0  0  0  0  0  0  0  0  0  0  0
  -22.2530  -12.8520   22.1850 N   0  0  0  0  0  0  0  0  0  0  0  0
  -22.4550  -14.6320   20.8560 O   0  0  0  0  0  0  0  0  0  0  0  0
  -22.6410  -12.0000   22.5600 H   0  0  0  0  0  0  0  0  0  0  0  0
  -21.3370  -13.1510   22.4930 H   0  0  0  0  0  0  0  0  0  0  0  0
  -25.4800  -15.2660   20.3380 N   0  0  0  0  0  0  0  0  0  0  0  0
  -24.7220  -15.9090   20.5230 H   0  0  0  0  0  0  0  0  0  0  0  0
  -26.2760  -15.7110   19.9010 H   0  0  0  0  0  0  0  0  0  0  0  0
  1  8  1  0
  1  2  1  0
  3  5  1  0
  3  4  1  0
  4  6  1  0
  5  1  2  0
  6 50  1  0
  6  2  1  0
  6  7  1  6
  9  8  1  0
 10 21  2  0
 11  9  1  0
 11 16  1  0
 12 20  1  0
 12 22  1  0
 13 19  1  0
 13 15  1  0
 14 20  1  0
 15 14  1  0
 16 15  2  0
 17 11  2  0
 18 17  1  0
 18 13  2  0
 19 12  1  0
 20 10  1  0
 22 24  2  0
 23 22  1  0
 25 23  1  0
 26 35  2  0
 26 31  1  0
 27 23  1  0
 27 31  1  0
 28 27  1  0
 29 30  1  0
 29 28  1  0
 30 26  1  0
 31 32  2  0
 32 33  1  0
 34 33  2  0
 35 34  1  0
 36 10  1  0
 36 37  1  0
 36 46  1  0
 37 40  1  0
 38 42  1  0
 38 37  1  0
 39 38  2  0
 42 41  1  0
 44 42  1  0
 44 45  1  0
 44 43  1  0
 46 49  1  1
 46 47  1  0
 48 46  1  0
 50 57  1  0
 50 51  1  0
 51 52  1  0
 53 56  1  0
 53 52  1  0
 53 55  1  0
 54 53  1  0
 57 66  1  0
 58 64  1  0
 58 66  1  0
 59 64  1  0
 60 61  1  0
 60 59  1  0
 62 61  1  0
 62 71  1  0
 62 63  1  0
 64 63  1  0
 65 58  2  0
 66 67  1  0
 68 69  2  0
 69 88  1  0
 70 69  1  0
 70 73  1  0
 71 72  1  0
 71 68  1  0
 72 70  2  0
 73 74  1  0
 74 75  2  0
 76 79  1  0
 76 75  1  0
 77 76  2  0
 78 77  1  0
 78 73  2  0
 79 80  1  0
 80 85  2  0
 80 81  1  0
 81 82  2  0
 83 82  1  0
 83 87  1  0
 84 83  2  0
 85 84  1  0
 86 85  1  0
 88 89  1  0
 89 92  1  0
 89 91  1  0
 90 88  2  0
 93 68  1  0
 93 94  1  0
 95 93  1  0
M  ISO  4   8 101   9 101  58 100  66 100
M  END
>  <TORSDO>  (90) 
F 22

>  <SCORE>  (90) 
-12.282

>  <name>  (90) 
89

>  <ligand_id>  (90) 
89

>  <original_smiles>  (90) 
[H]c1c([H])c([H])c2c(c1[H])C([H])([H])C([H])([H])C([H])([H])C2([H])N([H])C(=O)C1([H])N(C(=O)C([H])(N([H])C(=O)C([H])(N([H])C([H])([H])[H])C([H])([H])[H])C(C([H])([H])[H])(C([H])([H])[H])C([H])([H])[H])C([H])([H])c2c([H])c(OC([H])([H])C3=NC([H])([H])C([H])([H])[N+]([H])(C([H])(C([H])([H])N([H])C(=O)N4C([H])([H])C([H])([H])C([H])([H])C([H])(n5nc(-c6c([H])c([H])c(Oc7c([H])c([H])c(F)c([H])c7F)c([H])c6[H])c(C(=O)N([H])[H])c5N([H])[H])C4([H])[H])C([H])([H])C([H])([H])[N+]([H])([H])[H])C3([H])[H])c([H])c([H])c2C1([H])[H]

>  <smiles>  (90) 
[H]c1c([H])c([H])c2c(c1[H])C([H])([H])C([H])([H])C([H])([H])C2([H])N([H])C(=O)C1([H])N(C(=O)C([H])(N([H])C(=O)C([H])(N([H])C([H])([H])[H])C([H])([H])[H])C(C([H])([H])[H])(C([H])([H])[H])C([H])([H])[H])C([H])([H])c2c([H])c(OC([H])([H])C3=NC([H])([H])C([H])([H])[N+]([H])(C([H])(C([H])([H])N([H])C(=O)N4C([H])([H])C([H])([H])C([H])([H])C([H])(n5nc(-c6c([H])c([H])c(Oc7c([H])c([H])c(F)c([H])c7F)c([H])c6[H])c(C(=O)N([H])[H])c5N([H])[H])C4([H])[H])C([H])([H])C([H])([H])[N+]([H])([H])[H])C3([H])[H])c([H])c([H])c2C1([H])[H]

$$$$
90:0:0
     RDKit          3D

101109  0  0  1  0  0  0  0  0999 V2000
  -29.8320  -20.0540   20.0270 C   0  0  0  0  0  3  0  0  0  0  0  0
  -32.9480  -20.6220   22.0000 C   0  0  0  0  0  2  0  0  0  0  0  0
  -31.4520  -20.3270   21.9490 C   0  0  0  0  0  2  0  0  0  0  0  0
  -32.0240  -21.2320   19.8310 C   0  0  0  0  0  2  0  0  0  0  0  0
  -33.2390  -21.4640   20.7490 C   0  0  0  0  0  3  0  0  0  0  0  0
  -31.2120  -20.2170   20.5110 N   0  0  0  0  0  0  0  0  0  0  0  0
  -34.5120  -21.0880   20.1140 N   0  0  0  0  0  4  0  0  0  0  0  0
  -34.5060  -20.1260   19.8260 H   0  0  0  0  0  0  0  0  0  0  0  0
  -35.2660  -21.2230   20.7610 H   0  0  0  0  0  0  0  0  0  0  0  0
  -34.6850  -21.6660   19.3090 H   0  0  0  0  0  0  0  0  0  0  0  0
  -28.7670  -21.1250   20.6320 C   0  0  0  0  0  2  0  0  0  0  0  0
  -29.1610  -22.6030   20.7850 N   0  0  0  0  0  4  0  0  0  0  0  0
  -29.1080  -22.7730   21.7780 H   0  0  0  0  0  0  0  0  0  0  0  0
  -30.1340  -22.6920   20.5450 H   0  0  0  0  0  0  0  0  0  0  0  0
  -28.3890  -23.7570   20.1230 C   0  0  0  0  0  2  0  0  0  0  0  0
  -28.3760  -25.1710   20.9040 C   0  0  0  0  0  2  0  0  0  0  0  0
  -28.4010  -26.4900   20.2160 O   0  0  0  0  0  0  0  0  0  0  0  0
  -24.6080  -31.8760   23.2410 C   0  0  0  0  0  0  0  0  0  0  0  0
  -27.2670  -27.3100   20.2410 C   0  0  0  0  0  0  0  0  0  0  0  0
  -23.4270  -30.4610   21.5980 C   0  0  0  0  0  3  0  0  0  0  0  0
  -24.8930  -28.8970   20.2070 C   0  0  0  0  0  0  0  0  0  0  0  0
  -25.9650  -30.7960   21.4310 C   0  0  0  0  0  2  0  0  0  0  0  0
  -26.0590  -29.4100   20.7960 C   0  0  0  0  0  0  0  0  0  0  0  0
  -27.2520  -28.6290   20.7910 C   0  0  0  0  0  3  0  0  0  0  0  0
  -26.0830  -26.8370   19.6470 C   0  0  0  0  0  3  0  0  0  0  0  0
  -24.9060  -27.6160   19.6250 C   0  0  0  0  0  3  0  0  0  0  0  0
  -23.6510  -29.7690   20.2290 C   0  0  0  0  0  2  0  0  0  0  0  0
  -24.6850  -31.0620   22.1480 N   0  0  0  0  0  0  0  0  0  0  0  0
  -23.5160  -32.1560   23.7610 O   0  0  0  0  0  0  0  0  0  0  0  0
  -22.7580  -29.4530   22.5610 C   0  0  0  0  0  0  0  0  0  0  0  0
  -21.4320  -29.2790   22.4290 N   0  0  0  0  0  0  0  0  0  0  0  0
  -23.4300  -28.8270   23.3840 O   0  0  0  0  0  0  0  0  0  0  0  0
  -20.9490  -29.8360   21.7390 H   0  0  0  0  0  0  0  0  0  0  0  0
  -18.0460  -28.1030   22.9320 C   0  0  0  0  0  0  0  0  0  0  0  0
  -20.6060  -28.3460   23.1970 C   0  0  0  0  0  3  0  0  0  0  0  0
  -20.6970  -26.9160   22.6160 C   0  0  0  0  0  2  0  0  0  0  0  0
  -19.5920  -26.6010   21.6040 C   0  0  0  0  0  2  0  0  0  0  0  0
  -18.2110  -26.7540   22.2510 C   0  0  0  0  0  2  0  0  0  0  0  0
  -19.1690  -28.8570   23.3610 C   0  0  0  0  0  0  0  0  0  0  0  0
  -18.9610  -30.1180   23.9580 C   0  0  0  0  0  3  0  0  0  0  0  0
  -17.6590  -30.6250   24.1300 C   0  0  0  0  0  3  0  0  0  0  0  0
  -16.5490  -29.8690   23.7150 C   0  0  0  0  0  3  0  0  0  0  0  0
  -16.7440  -28.6100   23.1200 C   0  0  0  0  0  3  0  0  0  0  0  0
  -25.8800  -32.5170   23.8800 C   0  0  0  0  0  3  0  0  0  0  0  0
  -26.3850  -31.7540   25.1670 C   0  0  1  0  0  0  0  0  0  0  0  0
  -25.2820  -31.5200   26.2260 C   0  0  0  0  0  1  0  0  0  0  0  0
  -26.9770  -30.3740   24.7920 C   0  0  0  0  0  1  0  0  0  0  0  0
  -27.5240  -32.5590   25.8360 C   0  0  0  0  0  1  0  0  0  0  0  0
  -25.5630  -33.9180   24.1960 N   0  0  0  0  0  0  0  0  0  0  0  0
  -25.9040  -34.9650   23.4340 C   0  0  0  0  0  0  0  0  0  0  0  0
  -26.5850  -34.8560   22.4110 O   0  0  0  0  0  0  0  0  0  0  0  0
  -24.9520  -34.0820   24.9830 H   0  0  0  0  0  0  0  0  0  0  0  0
  -24.1760  -36.7570   23.0560 C   0  0  0  0  0  1  0  0  0  0  0  0
  -25.4100  -36.3550   23.8810 C   0  0  0  0  0  3  0  0  0  0  0  0
  -27.5350  -37.2470   24.7290 C   0  0  0  0  0  1  0  0  0  0  0  0
  -26.4430  -37.4080   23.7730 N   0  0  0  0  0  0  0  0  0  0  0  0
  -26.0320  -38.3290   23.9060 H   0  0  0  0  0  0  0  0  0  0  0  0
  -29.5070  -18.4490   19.8750 C   0  0  0  0  0  3  0  0  0  0  0  0
  -28.0810  -18.1950   19.6140 N   0  0  0  0  0  4  0  0  0  0  0  0
  -27.5310  -18.2810   20.4500 H   0  0  0  0  0  0  0  0  0  0  0  0
  -27.9750  -17.2740   19.2320 H   0  0  0  0  0  0  0  0  0  0  0  0
  -27.7290  -18.8360   18.9250 H   0  0  0  0  0  0  0  0  0  0  0  0
  -30.1520  -17.2940   20.8160 C   0  0  0  0  0  2  0  0  0  0  0  0
  -30.5470  -14.7120   20.3740 C   0  0  0  0  0  0  0  0  0  0  0  0
  -30.3340  -12.4590   19.3260 C   0  0  0  0  0  2  0  0  0  0  0  0
  -29.3840  -12.5680   18.1130 C   0  0  0  0  0  2  0  0  0  0  0  0
  -27.9100  -12.4160   18.5440 C   0  0  0  0  0  2  0  0  0  0  0  0
  -27.5590  -13.2610   19.7970 C   0  0  0  0  0  3  0  0  0  0  0  0
  -28.6320  -13.1290   20.9010 C   0  0  0  0  0  2  0  0  0  0  0  0
  -29.9200  -13.4890   20.2970 N   0  0  0  0  0  0  0  0  0  0  0  0
  -31.7260  -14.8330   20.0310 O   0  0  0  0  0  0  0  0  0  0  0  0
  -29.7650  -15.8200   20.6410 N   0  0  0  0  0  0  0  0  0  0  0  0
  -28.8180  -15.5840   20.9040 H   0  0  0  0  0  0  0  0  0  0  0  0
  -25.1730  -13.8540   20.5210 C   0  0  0  0  0  0  0  0  0  0  0  0
  -24.1080  -13.0810   20.8950 C   0  0  0  0  0  0  0  0  0  0  0  0
  -24.5720  -11.7310   20.8680 C   0  0  0  0  0  0  0  0  0  0  0  0
  -26.2150  -12.9750   20.2880 N   0  0  0  0  0  0  0  0  0  0  0  0
  -25.8620  -11.6910   20.5560 N   0  0  0  0  0  0  0  0  0  0  0  0
  -23.8440  -10.4690   21.0550 C   0  0  0  0  0  0  0  0  0  0  0  0
  -24.2740   -9.5020   21.9910 C   0  0  0  0  0  3  0  0  0  0  0  0
  -23.5450   -8.3080   22.1710 C   0  0  0  0  0  3  0  0  0  0  0  0
  -22.3740   -8.0700   21.4110 C   0  0  0  0  0  0  0  0  0  0  0  0
  -21.9620   -9.0260   20.4640 C   0  0  0  0  0  3  0  0  0  0  0  0
  -22.6930  -10.2130   20.2840 C   0  0  0  0  0  3  0  0  0  0  0  0
  -21.6160   -6.9270   21.5020 O   0  0  0  0  0  0  0  0  0  0  0  0
  -21.5630   -6.1890   22.6570 C   0  0  0  0  0  0  0  0  0  0  0  0
  -21.1240   -6.7440   23.8780 C   0  0  0  0  0  3  0  0  0  0  0  0
  -21.0200   -5.9320   25.0260 C   0  0  0  0  0  3  0  0  0  0  0  0
  -21.3410   -4.5630   24.9490 C   0  0  0  0  0  0  0  0  0  0  0  0
  -21.7730   -4.0060   23.7330 C   0  0  0  0  0  3  0  0  0  0  0  0
  -21.8800   -4.8160   22.5890 C   0  0  0  0  0  0  0  0  0  0  0  0
  -22.2750   -4.2720   21.4120 F   0  0  0  0  0  0  0  0  0  0  0  0
  -21.2350   -3.7780   26.0470 F   0  0  0  0  0  0  0  0  0  0  0  0
  -22.7110  -13.5620   21.1670 C   0  0  0  0  0  0  0  0  0  0  0  0
  -21.9810  -12.8620   22.0270 N   0  0  0  0  0  0  0  0  0  0  0  0
  -22.2750  -14.5880   20.6490 O   0  0  0  0  0  0  0  0  0  0  0  0
  -22.3460  -12.0270   22.4600 H   0  0  0  0  0  0  0  0  0  0  0  0
  -21.0420  -13.1620   22.2540 H   0  0  0  0  0  0  0  0  0  0  0  0
  -25.3290  -15.2230   20.3320 N   0  0  0  0  0  0  0  0  0  0  0  0
  -24.5350  -15.8520   20.3940 H   0  0  0  0  0  0  0  0  0  0  0  0
  -26.1200  -15.6160   19.8470 H   0  0  0  0  0  0  0  0  0  0  0  0
  1  6  1  0
  1 11  1  0
  3  2  1  0
  4  6  1  0
  4  5  1  0
  5  7  1  0
  5  2  1  0
  6  3  1  0
  7  9  1  0
  8  7  1  0
 10  7  1  0
 11 12  1  0
 12 13  1  0
 14 12  1  0
 15 12  1  0
 15 16  1  0
 17 19  1  0
 17 16  1  0
 18 29  2  0
 19 24  1  0
 20 28  1  0
 20 30  1  0
 21 27  1  0
 21 23  1  0
 22 28  1  0
 23 22  1  0
 24 23  2  0
 25 19  2  0
 26 25  1  0
 26 21  2  0
 27 20  1  0
 28 18  1  0
 30 32  2  0
 31 30  1  0
 33 31  1  0
 34 43  2  0
 34 39  1  0
 35 31  1  0
 35 39  1  0
 36 35  1  0
 37 38  1  0
 37 36  1  0
 38 34  1  0
 39 40  2  0
 40 41  1  0
 42 41  2  0
 43 42  1  0
 44 18  1  0
 44 49  1  0
 44 45  1  0
 45 48  1  1
 45 46  1  0
 47 45  1  0
 49 52  1  0
 50 54  1  0
 50 49  1  0
 51 50  2  0
 54 53  1  0
 56 54  1  0
 56 57  1  0
 56 55  1  0
 58  1  1  0
 58 63  1  0
 59 58  1  0
 59 60  1  0
 61 59  1  0
 62 59  1  0
 64 72  1  0
 65 70  1  0
 66 67  1  0
 66 65  1  0
 68 67  1  0
 68 77  1  0
 68 69  1  0
 70 64  1  0
 70 69  1  0
 71 64  2  0
 72 63  1  0
 72 73  1  0
 74 75  2  0
 75 94  1  0
 76 75  1  0
 76 79  1  0
 77 74  1  0
 77 78  1  0
 78 76  2  0
 79 80  1  0
 80 81  2  0
 82 85  1  0
 82 81  1  0
 83 82  2  0
 84 83  1  0
 84 79  2  0
 85 86  1  0
 86 87  1  0
 87 88  2  0
 89 88  1  0
 89 93  1  0
 90 89  2  0
 91 86  2  0
 91 90  1  0
 92 91  1  0
 94 95  1  0
 95 98  1  0
 95 97  1  0
 96 94  2  0
 99100  1  0
 99 74  1  0
101 99  1  0
M  ISO  4  16 101  17 101  64 100  72 100
M  END
>  <TORSDO>  (91) 
F 25

>  <SCORE>  (91) 
-12.753

>  <name>  (91) 
90

>  <ligand_id>  (91) 
90

>  <original_smiles>  (91) 
[H]c1c([H])c([H])c2c(c1[H])C([H])([H])C([H])([H])C([H])([H])C2([H])N([H])C(=O)C1([H])N(C(=O)C([H])(N([H])C(=O)C([H])(N([H])C([H])([H])[H])C([H])([H])[H])C(C([H])([H])[H])(C([H])([H])[H])C([H])([H])[H])C([H])([H])c2c([H])c(OC([H])([H])C([H])([H])[N+]([H])([H])C([H])([H])C([H])(N3C([H])([H])C([H])([H])C([H])([N+]([H])([H])[H])C3([H])[H])C([H])(C([H])([H])N([H])C(=O)N3C([H])([H])C([H])([H])C([H])([H])C([H])(n4nc(-c5c([H])c([H])c(Oc6c([H])c([H])c(F)c([H])c6F)c([H])c5[H])c(C(=O)N([H])[H])c4N([H])[H])C3([H])[H])[N+]([H])([H])[H])c([H])c([H])c2C1([H])[H]

>  <smiles>  (91) 
[H]c1c([H])c([H])c2c(c1[H])C([H])([H])C([H])([H])C([H])([H])C2([H])N([H])C(=O)C1([H])N(C(=O)C([H])(N([H])C(=O)C([H])(N([H])C([H])([H])[H])C([H])([H])[H])C(C([H])([H])[H])(C([H])([H])[H])C([H])([H])[H])C([H])([H])c2c([H])c(OC([H])([H])C([H])([H])[N+]([H])([H])C([H])([H])C([H])(N3C([H])([H])C([H])([H])C([H])([N+]([H])([H])[H])C3([H])[H])C([H])(C([H])([H])N([H])C(=O)N3C([H])([H])C([H])([H])C([H])([H])C([H])(n4nc(-c5c([H])c([H])c(Oc6c([H])c([H])c(F)c([H])c6F)c([H])c5[H])c(C(=O)N([H])[H])c4N([H])[H])C3([H])[H])[N+]([H])([H])[H])c([H])c([H])c2C1([H])[H]

$$$$
91:0:0
     RDKit          3D

 95103  0  0  1  0  0  0  0  0999 V2000
  -29.2450  -22.1560   21.2260 C   0  0  0  0  0  3  0  0  0  0  0  0
  -28.5110  -20.4210   19.2490 C   0  0  0  0  0  3  0  0  0  0  0  0
  -29.6780  -20.7260   21.2120 C   0  0  0  0  0  0  0  0  0  0  0  0
  -28.1040  -21.8440   19.2440 C   0  0  0  0  0  0  0  0  0  0  0  0
  -28.4400  -22.8620   20.2370 C   0  0  0  0  0  0  0  0  0  0  0  0
  -29.3390  -19.7120   20.2110 C   0  0  0  0  0  0  0  0  0  0  0  0
  -30.5870  -20.2860   22.3450 C   0  0  0  0  0  1  0  0  0  0  0  0
  -27.2360  -22.2680   18.0700 C   0  0  0  0  0  1  0  0  0  0  0  0
  -27.6750  -24.4230   20.3360 C   0  0  0  0  0  2  0  0  0  0  0  0
  -28.1040  -25.9880   20.3410 O   0  0  0  0  0  0  0  0  0  0  0  0
  -24.5920  -31.9820   23.2490 C   0  0  0  0  0  0  0  0  0  0  0  0
  -27.1080  -27.0880   20.2780 C   0  0  0  0  0  0  0  0  0  0  0  0
  -23.3810  -30.5690   21.6410 C   0  0  0  0  0  3  0  0  0  0  0  0
  -24.8140  -28.9540   20.2310 C   0  0  0  0  0  0  0  0  0  0  0  0
  -25.9470  -30.7790   21.4720 C   0  0  0  0  0  2  0  0  0  0  0  0
  -26.0080  -29.3660   20.8350 C   0  0  0  0  0  0  0  0  0  0  0  0
  -27.1540  -28.4530   20.8360 C   0  0  0  0  0  3  0  0  0  0  0  0
  -25.8830  -26.8260   19.6210 C   0  0  0  0  0  3  0  0  0  0  0  0
  -24.7740  -27.7020   19.6050 C   0  0  0  0  0  3  0  0  0  0  0  0
  -23.5980  -29.8720   20.2730 C   0  0  0  0  0  2  0  0  0  0  0  0
  -24.6620  -31.1350   22.1740 N   0  0  0  0  0  0  0  0  0  0  0  0
  -23.5080  -32.2820   23.7740 O   0  0  0  0  0  0  0  0  0  0  0  0
  -22.6930  -29.5840   22.6230 C   0  0  0  0  0  0  0  0  0  0  0  0
  -21.3680  -29.3940   22.4850 N   0  0  0  0  0  0  0  0  0  0  0  0
  -23.3590  -28.9910   23.4750 O   0  0  0  0  0  0  0  0  0  0  0  0
  -20.8850  -29.9240   21.7740 H   0  0  0  0  0  0  0  0  0  0  0  0
  -17.9990  -28.1410   22.9740 C   0  0  0  0  0  0  0  0  0  0  0  0
  -20.5490  -28.4680   23.2740 C   0  0  0  0  0  3  0  0  0  0  0  0
  -20.6880  -27.0180   22.7500 C   0  0  0  0  0  2  0  0  0  0  0  0
  -19.6100  -26.6400   21.7290 C   0  0  0  0  0  2  0  0  0  0  0  0
  -18.2150  -26.7750   22.3450 C   0  0  0  0  0  2  0  0  0  0  0  0
  -19.0950  -28.9420   23.3960 C   0  0  0  0  0  0  0  0  0  0  0  0
  -18.8360  -30.2150   23.9480 C   0  0  0  0  0  3  0  0  0  0  0  0
  -17.5170  -30.6890   24.0810 C   0  0  0  0  0  3  0  0  0  0  0  0
  -16.4380  -29.8870   23.6730 C   0  0  0  0  0  3  0  0  0  0  0  0
  -16.6790  -28.6140   23.1260 C   0  0  0  0  0  3  0  0  0  0  0  0
  -25.8700  -32.6280   23.8620 C   0  0  0  0  0  3  0  0  0  0  0  0
  -25.5560  -34.0290   24.1900 N   0  0  0  0  0  0  0  0  0  0  0  0
  -25.8660  -35.0840   23.4250 C   0  0  0  0  0  0  0  0  0  0  0  0
  -26.5090  -34.9800   22.3780 O   0  0  0  0  0  0  0  0  0  0  0  0
  -24.9810  -34.1840   25.0050 H   0  0  0  0  0  0  0  0  0  0  0  0
  -24.1250  -36.8770   23.1130 C   0  0  0  0  0  1  0  0  0  0  0  0
  -25.3870  -36.4750   23.8920 C   0  0  0  0  0  3  0  0  0  0  0  0
  -27.5350  -37.3770   24.6730 C   0  0  0  0  0  1  0  0  0  0  0  0
  -26.4140  -37.5310   23.7500 N   0  0  0  0  0  0  0  0  0  0  0  0
  -26.0070  -38.4510   23.8950 H   0  0  0  0  0  0  0  0  0  0  0  0
  -26.3890  -31.8720   25.1490 C   0  0  1  0  0  0  0  0  0  0  0  0
  -25.2940  -31.6310   26.2150 C   0  0  0  0  0  1  0  0  0  0  0  0
  -26.9890  -30.4970   24.7770 C   0  0  0  0  0  1  0  0  0  0  0  0
  -27.5290  -32.6840   25.8080 C   0  0  0  0  0  1  0  0  0  0  0  0
  -30.0850  -18.1580   19.9390 C   0  0  0  0  0  0  0  0  0  0  0  0
  -30.4090  -15.2980   20.2370 C   0  0  0  0  0  0  0  0  0  0  0  0
  -30.3450  -12.8810   19.3590 C   0  0  0  0  0  2  0  0  0  0  0  0
  -29.4070  -12.6890   18.1450 C   0  0  0  0  0  2  0  0  0  0  0  0
  -27.9650  -12.4180   18.6120 C   0  0  0  0  0  2  0  0  0  0  0  0
  -27.5290  -13.3780   19.7480 C   0  0  0  0  0  3  0  0  0  0  0  0
  -28.5970  -13.5280   20.8510 C   0  0  0  0  0  2  0  0  0  0  0  0
  -29.8150  -14.0160   20.1900 N   0  0  0  0  0  0  0  0  0  0  0  0
  -31.6330  -15.2790   20.0560 O   0  0  0  0  0  0  0  0  0  0  0  0
  -29.6860  -16.5820   20.2360 N   0  0  0  0  0  4  0  0  0  0  0  0
  -28.6940  -16.4570   20.3830 H   0  0  0  0  0  0  0  0  0  0  0  0
  -25.1740  -13.9150   20.5690 C   0  0  0  0  0  0  0  0  0  0  0  0
  -24.1220  -13.1270   20.9420 C   0  0  0  0  0  0  0  0  0  0  0  0
  -24.5920  -11.7790   20.8710 C   0  0  0  0  0  0  0  0  0  0  0  0
  -26.2140  -13.0490   20.2820 N   0  0  0  0  0  0  0  0  0  0  0  0
  -25.8780  -11.7560   20.5330 N   0  0  0  0  0  0  0  0  0  0  0  0
  -23.8740  -10.5110   21.0480 C   0  0  0  0  0  0  0  0  0  0  0  0
  -24.3030   -9.5390   21.9780 C   0  0  0  0  0  3  0  0  0  0  0  0
  -23.5810   -8.3370   22.1450 C   0  0  0  0  0  3  0  0  0  0  0  0
  -22.4150   -8.0980   21.3800 C   0  0  0  0  0  0  0  0  0  0  0  0
  -22.0030   -9.0580   20.4390 C   0  0  0  0  0  3  0  0  0  0  0  0
  -22.7260  -10.2510   20.2700 C   0  0  0  0  0  3  0  0  0  0  0  0
  -21.6650   -6.9480   21.4550 O   0  0  0  0  0  0  0  0  0  0  0  0
  -21.5880   -6.2140   22.6110 C   0  0  0  0  0  0  0  0  0  0  0  0
  -21.0630   -6.7560   23.8050 C   0  0  0  0  0  3  0  0  0  0  0  0
  -20.9360   -5.9460   24.9500 C   0  0  0  0  0  3  0  0  0  0  0  0
  -21.3240   -4.5940   24.9040 C   0  0  0  0  0  0  0  0  0  0  0  0
  -21.8430   -4.0500   23.7160 C   0  0  0  0  0  3  0  0  0  0  0  0
  -21.9700   -4.8580   22.5720 C   0  0  0  0  0  0  0  0  0  0  0  0
  -22.4500   -4.3240   21.4230 F   0  0  0  0  0  0  0  0  0  0  0  0
  -21.1960   -3.8130   26.0020 F   0  0  0  0  0  0  0  0  0  0  0  0
  -22.7290  -13.5930   21.2470 C   0  0  0  0  0  0  0  0  0  0  0  0
  -22.0190  -12.8790   22.1120 N   0  0  0  0  0  0  0  0  0  0  0  0
  -22.2800  -14.6270   20.7540 O   0  0  0  0  0  0  0  0  0  0  0  0
  -22.3950  -12.0430   22.5350 H   0  0  0  0  0  0  0  0  0  0  0  0
  -21.0850  -13.1740   22.3580 H   0  0  0  0  0  0  0  0  0  0  0  0
  -25.3280  -15.2900   20.4180 N   0  0  0  0  0  0  0  0  0  0  0  0
  -24.5590  -15.9370   20.5620 H   0  0  0  0  0  0  0  0  0  0  0  0
  -26.1570  -15.7400   20.0570 H   0  0  0  0  0  0  0  0  0  0  0  0
  -30.5580  -18.2970   18.4530 C   0  0  0  0  0  2  0  0  0  0  0  0
  -31.7430  -17.4930   17.8730 C   0  0  0  0  0  2  0  0  0  0  0  0
  -33.0140  -17.6800   18.5930 N   0  0  0  0  0  4  0  0  0  0  0  0
  -33.2020  -18.6420   18.8060 H   0  0  0  0  0  0  0  0  0  0  0  0
  -33.7730  -17.3200   18.0390 H   0  0  0  0  0  0  0  0  0  0  0  0
  -32.9770  -17.1230   19.4400 H   0  0  0  0  0  0  0  0  0  0  0  0
  2  6  1  0
  3  1  1  0
  3  7  1  0
  4  2  2  0
  4  5  1  0
  5  9  1  0
  5  1  2  0
  6  3  2  0
  8  4  1  0
  9 10  1  0
 11 22  2  0
 12 10  1  0
 12 17  1  0
 13 21  1  0
 13 23  1  0
 14 20  1  0
 14 16  1  0
 15 21  1  0
 16 17  2  0
 16 15  1  0
 18 12  2  0
 19 18  1  0
 19 14  2  0
 20 13  1  0
 21 11  1  0
 23 25  2  0
 24 23  1  0
 26 24  1  0
 27 36  2  0
 27 32  1  0
 28 24  1  0
 28 32  1  0
 29 28  1  0
 30 31  1  0
 30 29  1  0
 31 27  1  0
 32 33  2  0
 33 34  1  0
 35 34  2  0
 36 35  1  0
 37 11  1  0
 37 38  1  0
 37 47  1  0
 38 41  1  0
 39 43  1  0
 39 38  1  0
 40 39  2  0
 43 42  1  0
 45 43  1  0
 45 46  1  0
 45 44  1  0
 47 50  1  1
 47 48  1  0
 49 47  1  0
 51  6  1  0
 51 60  2  0
 53 58  1  0
 54 55  1  0
 54 53  1  0
 56 55  1  0
 56 65  1  0
 56 57  1  0
 58 52  1  0
 58 57  1  0
 59 52  2  0
 60 52  1  0
 60 61  1  0
 62 63  2  0
 63 82  1  0
 64 63  1  0
 64 67  1  0
 65 66  1  0
 65 62  1  0
 66 64  2  0
 67 68  1  0
 68 69  2  0
 70 73  1  0
 70 69  1  0
 71 70  2  0
 72 71  1  0
 72 67  2  0
 73 74  1  0
 74 75  1  0
 75 76  2  0
 77 76  1  0
 77 81  1  0
 78 77  2  0
 79 74  2  0
 79 78  1  0
 80 79  1  0
 82 83  1  0
 83 86  1  0
 83 85  1  0
 84 82  2  0
 87 88  1  0
 87 62  1  0
 89 87  1  0
 90 51  1  0
 91 90  1  0
 91 92  1  0
 92 93  1  0
 92 95  1  0
 94 92  1  0
M  ISO  4   9 101  10 101  52 100  60 100
M  END
>  <TORSDO>  (92) 
F 21

>  <SCORE>  (92) 
-14.730

>  <name>  (92) 
91

>  <ligand_id>  (92) 
91

>  <original_smiles>  (92) 
[H]c1c([H])c([H])c2c(c1[H])C([H])([H])C([H])([H])C([H])([H])C2([H])N([H])C(=O)C1([H])N(C(=O)C([H])(N([H])C(=O)C([H])(N([H])C([H])([H])[H])C([H])([H])[H])C(C([H])([H])[H])(C([H])([H])[H])C([H])([H])[H])C([H])([H])c2c([H])c(OC([H])([H])c3c([H])c(C([H])([H])[H])c(C([H])(N([H])C(=O)N4C([H])([H])C([H])([H])C([H])([H])C([H])(n5nc(-c6c([H])c([H])c(Oc7c([H])c([H])c(F)c([H])c7F)c([H])c6[H])c(C(=O)N([H])[H])c5N([H])[H])C4([H])[H])C([H])([H])C([H])([H])[N+]([H])([H])[H])c([H])c3C([H])([H])[H])c([H])c([H])c2C1([H])[H]

>  <smiles>  (92) 
[H]c1c([H])c([H])c2c(c1[H])C([H])([H])C([H])([H])C([H])([H])C2([H])N([H])C(=O)C1([H])N(C(=O)C([H])(N([H])C(=O)C([H])(N([H])C([H])([H])[H])C([H])([H])[H])C(C([H])([H])[H])(C([H])([H])[H])C([H])([H])[H])C([H])([H])c2c([H])c(OC([H])([H])c3c([H])c(C([H])([H])[H])c(C([H])(N([H])C(=O)N4C([H])([H])C([H])([H])C([H])([H])C([H])(n5nc(-c6c([H])c([H])c(Oc7c([H])c([H])c(F)c([H])c7F)c([H])c6[H])c(C(=O)N([H])[H])c5N([H])[H])C4([H])[H])C([H])([H])C([H])([H])[N+]([H])([H])[H])c([H])c3C([H])([H])[H])c([H])c([H])c2C1([H])[H]

$$$$
92:0:0
     RDKit          3D

 97106  0  0  1  0  0  0  0  0999 V2000
  -29.7980  -23.3870   22.6990 C   0  0  0  0  0  2  0  0  0  0  0  0
  -27.6810  -22.1180   22.2650 C   0  0  0  0  0  2  0  0  0  0  0  0
  -29.7880  -23.8760   21.2300 C   0  0  0  0  0  2  0  0  0  0  0  0
  -27.7340  -22.5900   20.8010 C   0  0  0  0  0  2  0  0  0  0  0  0
  -29.0810  -22.0290   22.9090 C   0  0  0  0  0  3  0  0  0  0  0  0
  -28.4100  -23.9090   20.6660 N   0  0  2  0  0  4  0  0  0  0  0  0
  -27.8850  -24.5670   21.2260 H   0  0  0  0  0  0  0  0  0  0  0  0
  -29.8870  -20.8090   22.4140 C   0  0  0  0  0  0  0  0  0  0  0  0
  -29.3890  -19.5950   22.6900 N   0  0  0  0  0  0  0  0  0  0  0  0
  -30.9450  -20.9640   21.8020 O   0  0  0  0  0  0  0  0  0  0  0  0
  -28.5320  -19.5550   23.2270 H   0  0  0  0  0  0  0  0  0  0  0  0
  -29.9560  -18.3110   22.2670 C   0  0  0  0  0  2  0  0  0  0  0  0
  -28.3970  -17.9680   20.1340 C   0  0  0  0  0  2  0  0  0  0  0  0
  -29.0520  -17.1230   19.0330 C   0  0  0  0  0  2  0  0  0  0  0  0
  -29.7910  -18.1090   20.7600 C   0  0  0  0  0  3  0  0  0  0  0  0
  -30.1930  -16.8130   20.0180 C   0  0  0  0  0  3  0  0  0  0  0  0
  -30.7120  -14.4590   20.5080 C   0  0  0  0  0  0  0  0  0  0  0  0
  -30.4160  -12.2780   19.4340 C   0  0  0  0  0  2  0  0  0  0  0  0
  -29.4930  -12.4780   18.2140 C   0  0  0  0  0  2  0  0  0  0  0  0
  -28.0130  -12.3540   18.6260 C   0  0  0  0  0  2  0  0  0  0  0  0
  -27.6590  -13.2050   19.8740 C   0  0  0  0  0  3  0  0  0  0  0  0
  -28.7050  -13.0120   21.0000 C   0  0  0  0  0  2  0  0  0  0  0  0
  -30.0380  -13.2820   20.4390 N   0  0  0  0  0  0  0  0  0  0  0  0
  -31.8770  -14.5890   20.1240 O   0  0  0  0  0  0  0  0  0  0  0  0
  -29.9420  -15.5400   20.7210 N   0  0  0  0  0  0  0  0  0  0  0  0
  -29.0040  -15.3610   21.0410 H   0  0  0  0  0  0  0  0  0  0  0  0
  -25.2580  -13.8160   20.5690 C   0  0  0  0  0  0  0  0  0  0  0  0
  -24.1830  -13.0430   20.9180 C   0  0  0  0  0  0  0  0  0  0  0  0
  -24.6370  -11.6900   20.8740 C   0  0  0  0  0  0  0  0  0  0  0  0
  -26.3010  -12.9320   20.3380 N   0  0  0  0  0  0  0  0  0  0  0  0
  -25.9300  -11.6490   20.5810 N   0  0  0  0  0  0  0  0  0  0  0  0
  -23.9040  -10.4280   21.0400 C   0  0  0  0  0  0  0  0  0  0  0  0
  -24.3580   -9.4200   21.9180 C   0  0  0  0  0  3  0  0  0  0  0  0
  -23.6250   -8.2240   22.0740 C   0  0  0  0  0  3  0  0  0  0  0  0
  -22.4240   -8.0280   21.3530 C   0  0  0  0  0  0  0  0  0  0  0  0
  -21.9880   -9.0250   20.4640 C   0  0  0  0  0  3  0  0  0  0  0  0
  -22.7210  -10.2130   20.3050 C   0  0  0  0  0  3  0  0  0  0  0  0
  -21.6620   -6.8860   21.4220 O   0  0  0  0  0  0  0  0  0  0  0  0
  -21.6840   -6.0720   22.5260 C   0  0  0  0  0  0  0  0  0  0  0  0
  -21.4010   -6.5630   23.8200 C   0  0  0  0  0  3  0  0  0  0  0  0
  -21.3660   -5.6780   24.9160 C   0  0  0  0  0  3  0  0  0  0  0  0
  -21.6050   -4.3040   24.7210 C   0  0  0  0  0  0  0  0  0  0  0  0
  -21.8820   -3.8130   23.4330 C   0  0  0  0  0  3  0  0  0  0  0  0
  -21.9190   -4.6950   22.3390 C   0  0  0  0  0  0  0  0  0  0  0  0
  -22.1650   -4.2140   21.0970 F   0  0  0  0  0  0  0  0  0  0  0  0
  -21.5630   -3.4530   25.7730 F   0  0  0  0  0  0  0  0  0  0  0  0
  -22.7850  -13.5240   21.1830 C   0  0  0  0  0  0  0  0  0  0  0  0
  -22.0480  -12.8250   22.0390 N   0  0  0  0  0  0  0  0  0  0  0  0
  -22.3550  -14.5550   20.6670 O   0  0  0  0  0  0  0  0  0  0  0  0
  -22.4060  -11.9890   22.4780 H   0  0  0  0  0  0  0  0  0  0  0  0
  -21.1120  -13.1310   22.2620 H   0  0  0  0  0  0  0  0  0  0  0  0
  -25.4310  -15.1880   20.4100 N   0  0  0  0  0  0  0  0  0  0  0  0
  -24.6670  -15.8430   20.5290 H   0  0  0  0  0  0  0  0  0  0  0  0
  -26.2790  -15.6280   20.0790 H   0  0  0  0  0  0  0  0  0  0  0  0
  -28.3320  -24.4040   19.2610 C   0  0  0  0  0  2  0  0  0  0  0  0
  -28.7760  -25.8700   19.0520 C   0  0  0  0  0  2  0  0  0  0  0  0
  -28.4300  -26.7530   20.1200 O   0  0  0  0  0  0  0  0  0  0  0  0
  -24.6120  -31.8690   23.2120 C   0  0  0  0  0  0  0  0  0  0  0  0
  -27.2430  -27.4530   20.0810 C   0  0  0  0  0  0  0  0  0  0  0  0
  -23.4000  -30.4920   21.5500 C   0  0  0  0  0  3  0  0  0  0  0  0
  -24.8480  -28.9590   20.1140 C   0  0  0  0  0  0  0  0  0  0  0  0
  -25.9270  -30.8340   21.3670 C   0  0  0  0  0  2  0  0  0  0  0  0
  -26.0020  -29.4690   20.7170 C   0  0  0  0  0  0  0  0  0  0  0  0
  -27.1950  -28.7150   20.7140 C   0  0  0  0  0  3  0  0  0  0  0  0
  -26.0690  -26.9540   19.4710 C   0  0  0  0  0  3  0  0  0  0  0  0
  -24.8730  -27.6970   19.4940 C   0  0  0  0  0  3  0  0  0  0  0  0
  -23.6080  -29.8210   20.1660 C   0  0  0  0  0  2  0  0  0  0  0  0
  -24.6640  -31.0800   22.1010 N   0  0  0  0  0  0  0  0  0  0  0  0
  -23.5320  -32.1440   23.7510 O   0  0  0  0  0  0  0  0  0  0  0  0
  -22.7400  -29.4660   22.4990 C   0  0  0  0  0  0  0  0  0  0  0  0
  -21.4130  -29.3030   22.3740 N   0  0  0  0  0  0  0  0  0  0  0  0
  -23.4180  -28.8200   23.3030 O   0  0  0  0  0  0  0  0  0  0  0  0
  -20.9280  -29.8770   21.6980 H   0  0  0  0  0  0  0  0  0  0  0  0
  -18.0260  -28.1380   22.8490 C   0  0  0  0  0  0  0  0  0  0  0  0
  -20.5850  -28.3660   23.1320 C   0  0  0  0  0  3  0  0  0  0  0  0
  -20.6750  -26.9400   22.5420 C   0  0  0  0  0  2  0  0  0  0  0  0
  -19.5740  -26.6390   21.5210 C   0  0  0  0  0  2  0  0  0  0  0  0
  -18.1910  -26.7930   22.1620 C   0  0  0  0  0  2  0  0  0  0  0  0
  -19.1510  -28.8840   23.2910 C   0  0  0  0  0  0  0  0  0  0  0  0
  -18.9440  -30.1440   23.8920 C   0  0  0  0  0  3  0  0  0  0  0  0
  -17.6450  -30.6590   24.0570 C   0  0  0  0  0  3  0  0  0  0  0  0
  -16.5340  -29.9090   23.6320 C   0  0  0  0  0  3  0  0  0  0  0  0
  -16.7260  -28.6510   23.0340 C   0  0  0  0  0  3  0  0  0  0  0  0
  -25.9020  -32.4820   23.8400 C   0  0  0  0  0  3  0  0  0  0  0  0
  -25.5880  -33.8620   24.2340 N   0  0  0  0  0  0  0  0  0  0  0  0
  -25.9030  -34.9480   23.5140 C   0  0  0  0  0  0  0  0  0  0  0  0
  -26.5590  -34.8920   22.4700 O   0  0  0  0  0  0  0  0  0  0  0  0
  -25.0030  -33.9780   25.0480 H   0  0  0  0  0  0  0  0  0  0  0  0
  -24.1490  -36.7320   23.2640 C   0  0  0  0  0  1  0  0  0  0  0  0
  -25.4110  -36.3120   24.0340 C   0  0  0  0  0  3  0  0  0  0  0  0
  -27.5590  -37.1810   24.8460 C   0  0  0  0  0  1  0  0  0  0  0  0
  -26.4300  -37.3800   23.9410 N   0  0  0  0  0  0  0  0  0  0  0  0
  -26.0200  -38.2880   24.1400 H   0  0  0  0  0  0  0  0  0  0  0  0
  -26.4460  -31.6600   25.0730 C   0  0  1  0  0  0  0  0  0  0  0  0
  -25.3730  -31.3710   26.1480 C   0  0  0  0  0  1  0  0  0  0  0  0
  -27.0280  -30.3040   24.6100 C   0  0  0  0  0  1  0  0  0  0  0  0
  -27.6050  -32.4320   25.7470 C   0  0  0  0  0  1  0  0  0  0  0  0
  1  5  1  0
  2  5  1  0
  3  1  1  0
  4  2  1  0
  5  8  1  0
  6  4  1  0
  6  7  1  1
  6  3  1  0
  8  9  1  0
  9 11  1  0
 10  8  2  0
 12  9  1  0
 13 15  1  0
 14 16  1  0
 14 13  1  0
 15 12  1  0
 16 25  1  0
 16 15  1  0
 17 25  1  0
 18 23  1  0
 19 20  1  0
 19 18  1  0
 21 20  1  0
 21 30  1  0
 21 22  1  0
 23 17  1  0
 23 22  1  0
 24 17  2  0
 25 26  1  0
 27 28  2  0
 28 47  1  0
 29 28  1  0
 29 32  1  0
 30 27  1  0
 30 31  1  0
 31 29  2  0
 32 33  1  0
 33 34  2  0
 35 38  1  0
 35 34  1  0
 36 35  2  0
 37 36  1  0
 37 32  2  0
 38 39  1  0
 39 40  1  0
 40 41  2  0
 42 41  1  0
 42 46  1  0
 43 42  2  0
 44 39  2  0
 44 43  1  0
 45 44  1  0
 47 48  1  0
 48 51  1  0
 48 50  1  0
 49 47  2  0
 52 53  1  0
 52 27  1  0
 54 52  1  0
 55  6  1  0
 56 55  1  0
 56 57  1  0
 58 69  2  0
 59 57  1  0
 59 64  1  0
 60 68  1  0
 60 70  1  0
 61 67  1  0
 61 63  1  0
 62 68  1  0
 63 62  1  0
 64 63  2  0
 65 66  1  0
 65 59  2  0
 66 61  2  0
 67 60  1  0
 68 58  1  0
 70 72  2  0
 71 70  1  0
 73 71  1  0
 74 83  2  0
 74 79  1  0
 75 71  1  0
 75 79  1  0
 76 75  1  0
 77 78  1  0
 77 76  1  0
 78 74  1  0
 79 80  2  0
 80 81  1  0
 82 81  2  0
 83 82  1  0
 84 58  1  0
 84 85  1  0
 84 94  1  0
 85 88  1  0
 86 90  1  0
 86 85  1  0
 87 86  2  0
 90 89  1  0
 92 90  1  0
 92 93  1  0
 92 91  1  0
 94 97  1  1
 94 95  1  0
 96 94  1  0
M  ISO  4  17 100  25 100  56 101  57 101
M  END
>  <TORSDO>  (93) 
F 21

>  <SCORE>  (93) 
-10.899

>  <name>  (93) 
92

>  <ligand_id>  (93) 
92

>  <original_smiles>  (93) 
[H]c1c([H])c([H])c2c(c1[H])C([H])([H])C([H])([H])C([H])([H])C2([H])N([H])C(=O)C1([H])N(C(=O)C([H])(N([H])C(=O)C([H])(N([H])C([H])([H])[H])C([H])([H])[H])C(C([H])([H])[H])(C([H])([H])[H])C([H])([H])[H])C([H])([H])c2c([H])c(OC([H])([H])C([H])([H])[N+]3([H])C([H])([H])C([H])([H])C([H])(C(=O)N([H])C([H])([H])C4([H])C([H])([H])C([H])([H])C4([H])N([H])C(=O)N4C([H])([H])C([H])([H])C([H])([H])C([H])(n5nc(-c6c([H])c([H])c(Oc7c([H])c([H])c(F)c([H])c7F)c([H])c6[H])c(C(=O)N([H])[H])c5N([H])[H])C4([H])[H])C([H])([H])C3([H])[H])c([H])c([H])c2C1([H])[H]

>  <smiles>  (93) 
[H]c1c([H])c([H])c2c(c1[H])C([H])([H])C([H])([H])C([H])([H])C2([H])N([H])C(=O)C1([H])N(C(=O)C([H])(N([H])C(=O)C([H])(N([H])C([H])([H])[H])C([H])([H])[H])C(C([H])([H])[H])(C([H])([H])[H])C([H])([H])[H])C([H])([H])c2c([H])c(OC([H])([H])C([H])([H])[N+]3([H])C([H])([H])C([H])([H])C([H])(C(=O)N([H])C([H])([H])C4([H])C([H])([H])C([H])([H])C4([H])N([H])C(=O)N4C([H])([H])C([H])([H])C([H])([H])C([H])(n5nc(-c6c([H])c([H])c(Oc7c([H])c([H])c(F)c([H])c7F)c([H])c6[H])c(C(=O)N([H])[H])c5N([H])[H])C4([H])[H])C([H])([H])C3([H])[H])c([H])c([H])c2C1([H])[H]

$$$$
93:0:0
     RDKit          3D

 96106  0  0  1  0  0  0  0  0999 V2000
  -28.3660  -21.2820   21.1640 C   0  0  0  0  0  0  0  0  0  0  0  0
  -29.0080  -20.1410   20.8040 N   0  0  0  0  0  0  0  0  0  0  0  0
  -27.1990  -21.5100   20.8190 O   0  0  0  0  0  0  0  0  0  0  0  0
  -29.9710  -19.9990   21.0780 H   0  0  0  0  0  0  0  0  0  0  0  0
  -28.2760  -18.4060   17.4950 C   0  0  0  0  0  2  0  0  0  0  0  0
  -30.2570  -18.6770   18.1110 C   0  0  0  0  0  2  0  0  0  0  0  0
  -29.1920  -17.5760   18.4080 C   0  0  2  0  0  0  0  0  0  0  0  0
  -28.9180  -19.4360   18.4230 C   0  0  1  0  0  0  0  0  0  0  0  0
  -28.7680  -17.6710   19.8770 C   0  0  0  0  0  3  0  0  0  0  0  0
  -28.4300  -19.1810   19.8410 C   0  0  0  0  0  3  0  0  0  0  0  0
  -29.7920  -17.0590   20.8650 C   0  0  0  0  0  2  0  0  0  0  0  0
  -30.7370  -14.6650   20.4030 C   0  0  0  0  0  0  0  0  0  0  0  0
  -30.5390  -12.5200   19.1980 C   0  0  0  0  0  2  0  0  0  0  0  0
  -29.5210  -12.6870   18.0400 C   0  0  0  0  0  2  0  0  0  0  0  0
  -28.0580  -12.5240   18.5030 C   0  0  0  0  0  2  0  0  0  0  0  0
  -27.7540  -13.3510   19.7630 C   0  0  0  0  0  3  0  0  0  0  0  0
  -28.8370  -13.1030   20.8420 C   0  0  0  0  0  2  0  0  0  0  0  0
  -30.1470  -13.4450   20.2600 N   0  0  0  0  0  0  0  0  0  0  0  0
  -31.9070  -14.9120   20.1260 O   0  0  0  0  0  0  0  0  0  0  0  0
  -29.8110  -15.5990   20.6760 N   0  0  0  0  0  0  0  0  0  0  0  0
  -28.8980  -15.1770   20.7230 H   0  0  0  0  0  0  0  0  0  0  0  0
  -25.3610  -13.9540   20.4960 C   0  0  0  0  0  0  0  0  0  0  0  0
  -24.2990  -13.1680   20.8630 C   0  0  0  0  0  0  0  0  0  0  0  0
  -24.7780  -11.8240   20.8350 C   0  0  0  0  0  0  0  0  0  0  0  0
  -26.4100  -13.0810   20.2640 N   0  0  0  0  0  0  0  0  0  0  0  0
  -26.0660  -11.7990   20.5370 N   0  0  0  0  0  0  0  0  0  0  0  0
  -24.0730  -10.5460   21.0210 C   0  0  0  0  0  0  0  0  0  0  0  0
  -24.5150   -9.5850   21.9570 C   0  0  0  0  0  3  0  0  0  0  0  0
  -23.8040   -8.3760   22.1260 C   0  0  0  0  0  3  0  0  0  0  0  0
  -22.6380   -8.1210   21.3620 C   0  0  0  0  0  0  0  0  0  0  0  0
  -22.2230   -9.0710   20.4110 C   0  0  0  0  0  3  0  0  0  0  0  0
  -22.9360  -10.2700   20.2400 C   0  0  0  0  0  3  0  0  0  0  0  0
  -21.8930   -6.9730   21.4510 O   0  0  0  0  0  0  0  0  0  0  0  0
  -21.8350   -6.2450   22.6110 C   0  0  0  0  0  0  0  0  0  0  0  0
  -21.3570   -6.7980   23.8200 C   0  0  0  0  0  3  0  0  0  0  0  0
  -21.2430   -5.9860   24.9670 C   0  0  0  0  0  3  0  0  0  0  0  0
  -21.6010   -4.6270   24.9080 C   0  0  0  0  0  0  0  0  0  0  0  0
  -22.0840   -4.0760   23.7060 C   0  0  0  0  0  3  0  0  0  0  0  0
  -22.1920   -4.8830   22.5600 C   0  0  0  0  0  0  0  0  0  0  0  0
  -22.6300   -4.3400   21.3990 F   0  0  0  0  0  0  0  0  0  0  0  0
  -21.4890   -3.8470   26.0090 F   0  0  0  0  0  0  0  0  0  0  0  0
  -22.8930  -13.6200   21.1280 C   0  0  0  0  0  0  0  0  0  0  0  0
  -22.1870  -12.9020   21.9970 N   0  0  0  0  0  0  0  0  0  0  0  0
  -22.4330  -14.6330   20.6050 O   0  0  0  0  0  0  0  0  0  0  0  0
  -22.5790  -12.0720   22.4140 H   0  0  0  0  0  0  0  0  0  0  0  0
  -21.2480  -13.1750   22.2500 H   0  0  0  0  0  0  0  0  0  0  0  0
  -25.5250  -15.3220   20.3140 N   0  0  0  0  0  0  0  0  0  0  0  0
  -24.7910  -16.0080   20.4500 H   0  0  0  0  0  0  0  0  0  0  0  0
  -26.3630  -15.7120   19.9050 H   0  0  0  0  0  0  0  0  0  0  0  0
  -29.0730  -22.2920   22.0940 C   0  0  0  0  0  2  0  0  0  0  0  0
  -28.4110  -24.6970   21.5610 C   0  0  0  0  0  0  0  0  0  0  0  0
  -29.2910  -23.6740   21.5940 N   0  0  0  0  0  0  0  0  0  0  0  0
  -27.1960  -24.5160   21.6470 O   0  0  0  0  0  0  0  0  0  0  0  0
  -30.2640  -23.9170   21.4670 H   0  0  0  0  0  0  0  0  0  0  0  0
  -28.9660  -26.1500   21.4950 C   0  0  0  0  0  2  0  0  0  0  0  0
  -28.6110  -26.8220   20.2730 O   0  0  0  0  0  0  0  0  0  0  0  0
  -24.6630  -31.9800   23.2960 C   0  0  0  0  0  0  0  0  0  0  0  0
  -27.4530  -27.5680   20.3020 C   0  0  0  0  0  0  0  0  0  0  0  0
  -23.5190  -30.5560   21.6280 C   0  0  0  0  0  3  0  0  0  0  0  0
  -25.0420  -29.0520   20.2410 C   0  0  0  0  0  0  0  0  0  0  0  0
  -26.0510  -30.9430   21.5130 C   0  0  0  0  0  2  0  0  0  0  0  0
  -26.1710  -29.5770   20.8800 C   0  0  0  0  0  0  0  0  0  0  0  0
  -27.3770  -28.8360   20.9300 C   0  0  0  0  0  3  0  0  0  0  0  0
  -26.3090  -27.0630   19.6490 C   0  0  0  0  0  3  0  0  0  0  0  0
  -25.1020  -27.7880   19.6360 C   0  0  0  0  0  3  0  0  0  0  0  0
  -23.7890  -29.9000   20.2490 C   0  0  0  0  0  2  0  0  0  0  0  0
  -24.7570  -31.1760   22.2040 N   0  0  0  0  0  0  0  0  0  0  0  0
  -23.5650  -32.2380   23.8140 O   0  0  0  0  0  0  0  0  0  0  0  0
  -22.8640  -29.5120   22.5590 C   0  0  0  0  0  0  0  0  0  0  0  0
  -21.5460  -29.3010   22.4090 N   0  0  0  0  0  0  0  0  0  0  0  0
  -23.5440  -28.8930   23.3870 O   0  0  0  0  0  0  0  0  0  0  0  0
  -21.0620  -29.8150   21.6840 H   0  0  0  0  0  0  0  0  0  0  0  0
  -18.1680  -28.1360   22.9220 C   0  0  0  0  0  0  0  0  0  0  0  0
  -20.7320  -28.3600   23.1810 C   0  0  0  0  0  3  0  0  0  0  0  0
  -20.8100  -26.9410   22.5720 C   0  0  0  0  0  2  0  0  0  0  0  0
  -19.7000  -26.6990   21.5340 C   0  0  0  0  0  2  0  0  0  0  0  0
  -18.3270  -26.8010   22.2210 C   0  0  0  0  0  2  0  0  0  0  0  0
  -19.2960  -28.8770   23.3620 C   0  0  0  0  0  0  0  0  0  0  0  0
  -19.0910  -30.1340   23.9800 C   0  0  0  0  0  3  0  0  0  0  0  0
  -17.7930  -30.6540   24.1440 C   0  0  0  0  0  3  0  0  0  0  0  0
  -16.6790  -29.9070   23.7200 C   0  0  0  0  0  3  0  0  0  0  0  0
  -16.8660  -28.6460   23.1240 C   0  0  0  0  0  3  0  0  0  0  0  0
  -25.9270  -32.6320   23.9420 C   0  0  0  0  0  3  0  0  0  0  0  0
  -25.5930  -34.0290   24.2410 N   0  0  0  0  0  0  0  0  0  0  0  0
  -25.9190  -35.0730   23.4650 C   0  0  0  0  0  0  0  0  0  0  0  0
  -26.6030  -34.9600   22.4450 O   0  0  0  0  0  0  0  0  0  0  0  0
  -24.9900  -34.1930   25.0330 H   0  0  0  0  0  0  0  0  0  0  0  0
  -24.1580  -36.8220   23.0540 C   0  0  0  0  0  1  0  0  0  0  0  0
  -25.3970  -36.4590   23.8870 C   0  0  0  0  0  3  0  0  0  0  0  0
  -27.4990  -37.4100   24.7240 C   0  0  0  0  0  1  0  0  0  0  0  0
  -26.4100  -37.5300   23.7620 N   0  0  0  0  0  0  0  0  0  0  0  0
  -25.9830  -38.4470   23.8750 H   0  0  0  0  0  0  0  0  0  0  0  0
  -26.4080  -31.8860   25.2470 C   0  0  1  0  0  0  0  0  0  0  0  0
  -25.2720  -31.6520   26.2710 C   0  0  0  0  0  1  0  0  0  0  0  0
  -27.0340  -30.5130   24.9010 C   0  0  0  0  0  1  0  0  0  0  0  0
  -27.5220  -32.7030   25.9430 C   0  0  0  0  0  1  0  0  0  0  0  0
  1 50  1  0
  2  4  1  0
  2  1  1  0
  3  1  2  0
  7  6  1  6
  8  6  1  6
  7  5  1  0
  7  8  1  0
  7  9  1  0
  8  5  1  0
  8 10  1  0
  9 11  1  0
 10  9  1  0
 10  2  1  0
 12 20  1  0
 13 18  1  0
 14 15  1  0
 14 13  1  0
 16 15  1  0
 16 25  1  0
 16 17  1  0
 18 12  1  0
 18 17  1  0
 19 12  2  0
 20 21  1  0
 20 11  1  0
 22 23  2  0
 23 42  1  0
 24 23  1  0
 24 27  1  0
 25 22  1  0
 25 26  1  0
 26 24  2  0
 27 28  1  0
 28 29  2  0
 30 33  1  0
 30 29  1  0
 31 30  2  0
 32 31  1  0
 32 27  2  0
 33 34  1  0
 34 35  1  0
 35 36  2  0
 37 36  1  0
 37 41  1  0
 38 37  2  0
 39 34  2  0
 39 38  1  0
 40 39  1  0
 42 43  1  0
 43 46  1  0
 43 45  1  0
 44 42  2  0
 47 48  1  0
 47 22  1  0
 49 47  1  0
 51 52  1  0
 51 53  2  0
 52 50  1  0
 54 52  1  0
 55 51  1  0
 56 58  1  0
 56 55  1  0
 57 68  2  0
 58 63  1  0
 59 67  1  0
 59 69  1  0
 60 66  1  0
 60 62  1  0
 61 67  1  0
 62 63  2  0
 62 61  1  0
 64 58  2  0
 65 64  1  0
 65 60  2  0
 66 59  1  0
 67 57  1  0
 69 71  2  0
 70 69  1  0
 72 70  1  0
 73 82  2  0
 73 78  1  0
 74 70  1  0
 74 78  1  0
 75 74  1  0
 76 77  1  0
 76 75  1  0
 77 73  1  0
 78 79  2  0
 79 80  1  0
 81 80  2  0
 82 81  1  0
 83 57  1  0
 83 84  1  0
 83 93  1  0
 84 87  1  0
 85 89  1  0
 85 84  1  0
 86 85  2  0
 89 88  1  0
 91 92  1  0
 91 89  1  0
 91 90  1  0
 93 96  1  1
 93 94  1  0
 95 93  1  0
M  ISO  4  12 100  20 100  55 101  56 101
M  END
>  <TORSDO>  (94) 
F 21

>  <SCORE>  (94) 
-13.882

>  <name>  (94) 
93

>  <ligand_id>  (94) 
93

>  <original_smiles>  (94) 
[H]c1c([H])c([H])c2c(c1[H])C([H])([H])C([H])([H])C([H])([H])C2([H])N([H])C(=O)C1([H])N(C(=O)C([H])(N([H])C(=O)C([H])(N([H])C([H])([H])[H])C([H])([H])[H])C(C([H])([H])[H])(C([H])([H])[H])C([H])([H])[H])C([H])([H])c2c([H])c(OC([H])([H])C(=O)N([H])C([H])([H])C(=O)N([H])C3([H])C4([H])C([H])([H])C([H])(C4([H])[H])C3([H])C([H])([H])N([H])C(=O)N3C([H])([H])C([H])([H])C([H])([H])C([H])(n4nc(-c5c([H])c([H])c(Oc6c([H])c([H])c(F)c([H])c6F)c([H])c5[H])c(C(=O)N([H])[H])c4N([H])[H])C3([H])[H])c([H])c([H])c2C1([H])[H]

>  <smiles>  (94) 
[H]c1c([H])c([H])c2c(c1[H])C([H])([H])C([H])([H])C([H])([H])C2([H])N([H])C(=O)C1([H])N(C(=O)C([H])(N([H])C(=O)C([H])(N([H])C([H])([H])[H])C([H])([H])[H])C(C([H])([H])[H])(C([H])([H])[H])C([H])([H])[H])C([H])([H])c2c([H])c(OC([H])([H])C(=O)N([H])C([H])([H])C(=O)N([H])C3([H])C4([H])C([H])([H])C([H])(C4([H])[H])C3([H])C([H])([H])N([H])C(=O)N3C([H])([H])C([H])([H])C([H])([H])C([H])(n4nc(-c5c([H])c([H])c(Oc6c([H])c([H])c(F)c([H])c6F)c([H])c5[H])c(C(=O)N([H])[H])c4N([H])[H])C3([H])[H])c([H])c([H])c2C1([H])[H]

$$$$
94:0:0
     RDKit          3D

100109  0  0  1  0  0  0  0  0999 V2000
  -32.0230  -20.7120   19.9980 C   0  0  0  0  0  2  0  0  0  0  0  0
  -31.4030  -21.4700   18.8330 C   0  0  0  0  0  2  0  0  0  0  0  0
  -31.8140  -21.9750   20.8290 C   0  0  0  0  0  3  0  0  0  0  0  0
  -30.9170  -22.4830   19.7770 N   0  0  2  0  0  4  0  0  0  0  0  0
  -31.1850  -23.4130   19.4850 H   0  0  0  0  0  0  0  0  0  0  0  0
  -32.9940  -22.9080   21.1170 C   0  0  0  0  0  2  0  0  0  0  0  0
  -35.4410  -22.4330   21.0050 C   0  0  0  0  0  0  0  0  0  0  0  0
  -34.1910  -22.1050   21.3450 N   0  0  0  0  0  0  0  0  0  0  0  0
  -35.7690  -23.5450   20.5860 O   0  0  0  0  0  0  0  0  0  0  0  0
  -34.0600  -21.1900   21.7520 H   0  0  0  0  0  0  0  0  0  0  0  0
  -37.1530  -21.2150   22.3990 C   0  0  0  0  0  3  0  0  0  0  0  0
  -38.0890  -20.1740   22.5730 C   0  0  0  0  0  3  0  0  0  0  0  0
  -36.7270  -20.4520   20.1230 C   0  0  0  0  0  3  0  0  0  0  0  0
  -36.4500  -21.3430   21.1840 C   0  0  0  0  0  0  0  0  0  0  0  0
  -38.3470  -19.2670   21.5250 C   0  0  0  0  0  0  0  0  0  0  0  0
  -37.6830  -19.4290   20.2860 C   0  0  0  0  0  0  0  0  0  0  0  0
  -39.3440  -18.1390   21.7340 C   0  0  0  0  0  1  0  0  0  0  0  0
  -39.1180  -18.3420   18.6480 C   0  0  0  0  0  0  0  0  0  0  0  0
  -40.6430  -16.5900   17.8080 C   0  0  0  0  0  2  0  0  0  0  0  0
  -40.7110  -16.5120   16.2730 C   0  0  0  0  0  2  0  0  0  0  0  0
  -39.5800  -15.6270   15.7200 C   0  0  0  0  0  2  0  0  0  0  0  0
  -38.1920  -16.0170   16.2910 C   0  0  0  0  0  3  0  0  0  0  0  0
  -38.2480  -16.1250   17.8290 C   0  0  0  0  0  2  0  0  0  0  0  0
  -39.3130  -17.0780   18.1970 N   0  0  0  0  0  0  0  0  0  0  0  0
  -39.9930  -19.2160   18.6310 O   0  0  0  0  0  0  0  0  0  0  0  0
  -37.9270  -18.5240   19.2320 N   0  0  0  0  0  0  0  0  0  0  0  0
  -37.3380  -17.7070   19.2040 H   0  0  0  0  0  0  0  0  0  0  0  0
  -35.8790  -15.3430   15.3760 C   0  0  0  0  0  0  0  0  0  0  0  0
  -35.3460  -14.1260   15.0460 C   0  0  0  0  0  0  0  0  0  0  0  0
  -36.3560  -13.1600   15.3420 C   0  0  0  0  0  0  0  0  0  0  0  0
  -37.1540  -15.0840   15.8560 N   0  0  0  0  0  0  0  0  0  0  0  0
  -37.4150  -13.7510   15.8790 N   0  0  0  0  0  0  0  0  0  0  0  0
  -36.3980  -11.7140   15.0930 C   0  0  0  0  0  0  0  0  0  0  0  0
  -36.6060  -10.7900   16.1400 C   0  0  0  0  0  3  0  0  0  0  0  0
  -36.6250   -9.4020   15.8790 C   0  0  0  0  0  3  0  0  0  0  0  0
  -36.4330   -8.9280   14.5600 C   0  0  0  0  0  0  0  0  0  0  0  0
  -36.2490   -9.8530   13.5170 C   0  0  0  0  0  3  0  0  0  0  0  0
  -36.2350  -11.2320   13.7790 C   0  0  0  0  0  3  0  0  0  0  0  0
  -36.4630   -7.6000   14.2070 O   0  0  0  0  0  0  0  0  0  0  0  0
  -36.0220   -6.6190   15.0590 C   0  0  0  0  0  0  0  0  0  0  0  0
  -34.7440   -6.6700   15.6570 C   0  0  0  0  0  3  0  0  0  0  0  0
  -34.3060   -5.6060   16.4710 C   0  0  0  0  0  3  0  0  0  0  0  0
  -35.1360   -4.4900   16.6800 C   0  0  0  0  0  0  0  0  0  0  0  0
  -36.4070   -4.4340   16.0810 C   0  0  0  0  0  3  0  0  0  0  0  0
  -36.8470   -5.4950   15.2700 C   0  0  0  0  0  0  0  0  0  0  0  0
  -38.0640   -5.4270   14.6770 F   0  0  0  0  0  0  0  0  0  0  0  0
  -34.7120   -3.4640   17.4550 F   0  0  0  0  0  0  0  0  0  0  0  0
  -34.0120  -13.8770   14.4020 C   0  0  0  0  0  0  0  0  0  0  0  0
  -33.4000  -12.7320   14.6820 N   0  0  0  0  0  0  0  0  0  0  0  0
  -33.4810  -14.7220   13.6830 O   0  0  0  0  0  0  0  0  0  0  0  0
  -33.8260  -12.0470   15.2900 H   0  0  0  0  0  0  0  0  0  0  0  0
  -32.4920  -12.5390   14.2850 H   0  0  0  0  0  0  0  0  0  0  0  0
  -35.3950  -16.6460   15.2940 N   0  0  0  0  0  0  0  0  0  0  0  0
  -34.4860  -16.8640   14.9020 H   0  0  0  0  0  0  0  0  0  0  0  0
  -35.9230  -17.4700   15.5560 H   0  0  0  0  0  0  0  0  0  0  0  0
  -29.4720  -22.4340   20.1260 C   0  0  0  0  0  2  0  0  0  0  0  0
  -28.0380  -20.5280   19.1940 C   0  0  0  0  0  1  0  0  0  0  0  0
  -28.5480  -21.9680   18.9660 C   0  0  0  0  0  3  0  0  0  0  0  0
  -27.3530  -22.9310   18.8050 C   0  0  0  0  0  2  0  0  0  0  0  0
  -26.5060  -22.4920   17.7410 O   0  0  0  0  0  0  0  0  0  0  0  0
  -20.9590  -25.4580   14.4230 C   0  0  0  0  0  0  0  0  0  0  0  0
  -25.1820  -22.8560   17.8170 C   0  0  0  0  0  0  0  0  0  0  0  0
  -20.6400  -24.9760   16.8290 C   0  0  0  0  0  3  0  0  0  0  0  0
  -22.4420  -23.5380   17.9140 C   0  0  0  0  0  0  0  0  0  0  0  0
  -22.2610  -23.5840   15.4210 C   0  0  0  0  0  2  0  0  0  0  0  0
  -23.0790  -23.3770   16.6780 C   0  0  0  0  0  0  0  0  0  0  0  0
  -24.4460  -23.0300   16.6250 C   0  0  0  0  0  3  0  0  0  0  0  0
  -24.5220  -23.0140   19.0580 C   0  0  0  0  0  3  0  0  0  0  0  0
  -23.1600  -23.3620   19.1100 C   0  0  0  0  0  3  0  0  0  0  0  0
  -20.9730  -23.8920   17.8870 C   0  0  0  0  0  2  0  0  0  0  0  0
  -21.3020  -24.7100   15.5090 N   0  0  0  0  0  0  0  0  0  0  0  0
  -20.0790  -26.3270   14.4960 O   0  0  0  0  0  0  0  0  0  0  0  0
  -20.9860  -26.3610   17.4180 C   0  0  0  0  0  0  0  0  0  0  0  0
  -20.4960  -26.6290   18.6390 N   0  0  0  0  0  0  0  0  0  0  0  0
  -21.6960  -27.1550   16.7960 O   0  0  0  0  0  0  0  0  0  0  0  0
  -19.9100  -25.9310   19.0770 H   0  0  0  0  0  0  0  0  0  0  0  0
  -20.6150  -27.9800   21.9870 C   0  0  0  0  0  0  0  0  0  0  0  0
  -20.7200  -27.8520   19.4080 C   0  0  0  0  0  3  0  0  0  0  0  0
  -22.2310  -28.1470   19.5550 C   0  0  0  0  0  2  0  0  0  0  0  0
  -22.8350  -27.5740   20.8400 C   0  0  0  0  0  2  0  0  0  0  0  0
  -22.1240  -28.1450   22.0710 C   0  0  0  0  0  2  0  0  0  0  0  0
  -19.9580  -27.8270   20.7370 C   0  0  0  0  0  0  0  0  0  0  0  0
  -18.5580  -27.6430   20.7160 C   0  0  0  0  0  3  0  0  0  0  0  0
  -17.8180  -27.6170   21.9130 C   0  0  0  0  0  3  0  0  0  0  0  0
  -18.4720  -27.7840   23.1470 C   0  0  0  0  0  3  0  0  0  0  0  0
  -19.8650  -27.9680   23.1810 C   0  0  0  0  0  3  0  0  0  0  0  0
  -21.6370  -25.2430   13.0330 C   0  0  0  0  0  3  0  0  0  0  0  0
  -20.5810  -25.2820   12.0130 N   0  0  0  0  0  0  0  0  0  0  0  0
  -20.0880  -24.2040   11.3890 C   0  0  0  0  0  0  0  0  0  0  0  0
  -20.5340  -23.0660   11.5630 O   0  0  0  0  0  0  0  0  0  0  0  0
  -20.1320  -26.1730   11.8570 H   0  0  0  0  0  0  0  0  0  0  0  0
  -17.6020  -23.9890   11.0890 C   0  0  0  0  0  1  0  0  0  0  0  0
  -18.9140  -24.4230   10.4170 C   0  0  0  0  0  3  0  0  0  0  0  0
  -20.1550  -24.2480    8.3060 C   0  0  0  0  0  1  0  0  0  0  0  0
  -19.0760  -23.7110    9.1310 N   0  0  0  0  0  0  0  0  0  0  0  0
  -18.2160  -23.7480    8.5900 H   0  0  0  0  0  0  0  0  0  0  0  0
  -22.7580  -26.3080   12.7150 C   0  0  1  0  0  0  0  0  0  0  0  0
  -22.2870  -27.7720   12.8760 C   0  0  0  0  0  1  0  0  0  0  0  0
  -23.9830  -26.0980   13.6350 C   0  0  0  0  0  1  0  0  0  0  0  0
  -23.2560  -26.1260   11.2620 C   0  0  0  0  0  1  0  0  0  0  0  0
  1  3  1  0
  2  4  1  0
  2  1  1  0
  3  6  1  0
  4 56  1  0
  4  3  1  0
  4  5  1  6
  6  8  1  0
  7 14  1  0
  7  8  1  0
  8 10  1  0
  9  7  2  0
 11 12  1  0
 13 16  2  0
 13 14  1  0
 14 11  2  0
 15 17  1  0
 15 12  2  0
 16 15  1  0
 18 26  1  0
 19 24  1  0
 20 19  1  0
 21 20  1  0
 22 21  1  0
 22 23  1  0
 23 24  1  0
 24 18  1  0
 25 18  2  0
 26 16  1  0
 27 26  1  0
 28 31  1  0
 29 30  1  0
 29 28  2  0
 30 32  2  0
 31 32  1  0
 31 22  1  0
 33 30  1  0
 33 34  1  0
 35 34  2  0
 36 35  1  0
 37 38  1  0
 37 36  2  0
 38 33  2  0
 39 36  1  0
 39 40  1  0
 40 45  2  0
 40 41  1  0
 41 42  2  0
 42 43  1  0
 43 47  1  0
 44 43  2  0
 45 44  1  0
 46 45  1  0
 48 49  1  0
 48 29  1  0
 49 51  1  0
 50 48  2  0
 52 49  1  0
 53 28  1  0
 53 55  1  0
 54 53  1  0
 58 57  1  0
 58 56  1  0
 59 58  1  0
 60 62  1  0
 60 59  1  0
 61 72  2  0
 61 71  1  0
 62 68  1  0
 63 73  1  0
 63 70  1  0
 64 69  1  0
 65 71  1  0
 65 66  1  0
 66 64  2  0
 67 66  1  0
 67 62  2  0
 68 69  2  0
 70 64  1  0
 71 63  1  0
 73 74  1  0
 74 76  1  0
 75 73  2  0
 77 81  1  0
 77 86  1  0
 78 74  1  0
 78 79  1  0
 78 82  1  0
 79 80  1  0
 80 81  1  0
 82 77  2  0
 83 82  1  0
 83 84  2  0
 84 85  1  0
 85 86  2  0
 87 61  1  0
 88 87  1  0
 89 90  2  0
 89 88  1  0
 91 88  1  0
 93 92  1  0
 93 89  1  0
 94 95  1  0
 95 93  1  0
 96 95  1  0
 97 98  1  6
 97 87  1  0
 97 99  1  0
100 97  1  0
M  ISO  4  18 100  26 100  59 101  60 101
M  END
>  <TORSDO>  (95) 
F 22

>  <SCORE>  (95) 
-4.178

>  <name>  (95) 
94

>  <ligand_id>  (95) 
94

>  <original_smiles>  (95) 
[H]c1c([H])c([H])c2c(c1[H])C([H])([H])C([H])([H])C([H])([H])C2([H])N([H])C(=O)C1([H])N(C(=O)C([H])(N([H])C(=O)C([H])(N([H])C([H])([H])[H])C([H])([H])[H])C(C([H])([H])[H])(C([H])([H])[H])C([H])([H])[H])C([H])([H])c2c([H])c(OC([H])([H])C([H])(C([H])([H])[H])C([H])([H])[N+]3([H])C([H])([H])C([H])([H])C3([H])C([H])([H])N([H])C(=O)c3c([H])c([H])c(C([H])([H])[H])c(N([H])C(=O)N4C([H])([H])C([H])([H])C([H])([H])C([H])(n5nc(-c6c([H])c([H])c(Oc7c([H])c([H])c(F)c([H])c7F)c([H])c6[H])c(C(=O)N([H])[H])c5N([H])[H])C4([H])[H])c3[H])c([H])c([H])c2C1([H])[H]

>  <smiles>  (95) 
[H]c1c([H])c([H])c2c(c1[H])C([H])([H])C([H])([H])C([H])([H])C2([H])N([H])C(=O)C1([H])N(C(=O)C([H])(N([H])C(=O)C([H])(N([H])C([H])([H])[H])C([H])([H])[H])C(C([H])([H])[H])(C([H])([H])[H])C([H])([H])[H])C([H])([H])c2c([H])c(OC([H])([H])C([H])(C([H])([H])[H])C([H])([H])[N+]3([H])C([H])([H])C([H])([H])C3([H])C([H])([H])N([H])C(=O)c3c([H])c([H])c(C([H])([H])[H])c(N([H])C(=O)N4C([H])([H])C([H])([H])C([H])([H])C([H])(n5nc(-c6c([H])c([H])c(Oc7c([H])c([H])c(F)c([H])c7F)c([H])c6[H])c(C(=O)N([H])[H])c5N([H])[H])C4([H])[H])c3[H])c([H])c([H])c2C1([H])[H]

$$$$
95:0:0
     RDKit          3D

 95 96  0  0  1  0  0  0  0  0999 V2000
  -26.5690  -21.8840   21.9140 C   0  0  0  0  0  2  0  0  0  0  0  0
  -25.9400  -23.0880   21.1470 C   0  0  0  0  0  1  0  0  0  0  0  0
  -27.6100  -21.6930   20.7700 C   0  0  0  0  0  1  0  0  0  0  0  0
  -25.1600  -24.8580   22.0470 C   0  0  0  0  0  2  0  0  0  0  0  0
  -23.7970  -25.6840   22.7260 N   0  0  0  0  0  2  0  0  0  0  0  0
  -26.0970  -25.6550   22.0460 O   0  0  0  0  0  1  0  0  0  0  0  0
  -23.1340  -24.9370   22.9070 H   0  0  0  0  0  0  0  0  0  0  0  0
  -22.7300  -27.5000   23.1270 C   0  0  0  0  0 15  0  0  0  0  0  0
  -21.7540  -28.9020   20.9330 C   0  0  0  0  0 15  0  0  0  0  0  0
  -23.0770  -28.4270   19.1850 O   0  0  0  0  0  1  0  0  0  0  0  0
  -24.5230  -31.4640   22.7990 C   0  0  0  0  0  0  0  0  0  0  0  0
  -24.6160  -28.1490   18.7420 C   0  0  0  0  0  3  0  0  0  0  0  0
  -23.7500  -29.7950   21.1830 C   0  0  0  0  0  3  0  0  0  0  0  0
  -24.2300  -30.5480   18.6890 C   0  0  0  0  0  3  0  0  0  0  0  0
  -25.7250  -31.0300   20.6360 C   0  0  0  0  0  2  0  0  0  0  0  0
  -25.4350  -30.2770   19.3460 C   0  0  0  0  0  3  0  0  0  0  0  0
  -25.7730  -28.9210   19.2170 C   0  0  0  0  0  2  0  0  0  0  0  0
  -24.5980  -28.4440   17.4110 C   0  0  0  0  0  2  0  0  0  0  0  0
  -24.0000  -29.7280   17.4920 C   0  0  0  0  0  2  0  0  0  0  0  0
  -23.1890  -30.7010   19.8430 C   0  0  0  0  0  2  0  0  0  0  0  0
  -24.7140  -30.7300   21.6660 N   0  0  0  0  0  0  0  0  0  0  0  0
  -23.4610  -31.5560   23.4460 O   0  0  0  0  0  0  0  0  0  0  0  0
  -23.9560  -27.9580   21.2950 C   0  0  0  0  0  0  0  0  0  0  0  0
  -22.9620  -26.7630   20.4440 N   0  0  0  0  0  2  0  0  0  0  0  0
  -24.5620  -27.7350   22.2970 O   0  0  0  0  0  0  0  0  0  0  0  0
  -23.4280  -25.8680   20.4540 H   0  0  0  0  0  0  0  0  0  0  0  0
  -18.1470  -26.9340   21.4640 C   0  0  0  0  0  0  0  0  0  0  0  0
  -20.9240  -26.4550   20.7070 C   0  0  0  0  0  2  0  0  0  0  0  0
  -20.4030  -26.1920   19.4170 C   0  0  0  0  0  2  0  0  0  0  0  0
  -18.9500  -26.5340   19.2300 C   0  0  0  0  0  2  0  0  0  0  0  0
  -18.0090  -26.0250   20.3080 C   0  0  0  0  0  2  0  0  0  0  0  0
  -19.5320  -27.2690   21.7640 C   0  0  0  0  0  0  0  0  0  0  0  0
  -19.3820  -28.2390   22.9010 C   0  0  0  0  0  3  0  0  0  0  0  0
  -18.1410  -28.7240   23.5280 C   0  0  0  0  0  3  0  0  0  0  0  0
  -16.8700  -28.2940   23.1110 C   0  0  0  0  0  3  0  0  0  0  0  0
  -16.9050  -27.3750   22.0620 C   0  0  0  0  0  3  0  0  0  0  0  0
  -25.8000  -32.0300   23.4060 C   0  0  0  0  0  3  0  0  0  0  0  0
  -25.4950  -33.3500   23.9500 N   0  0  0  0  0  0  0  0  0  0  0  0
  -25.7680  -34.4920   23.3060 C   0  0  0  0  0  0  0  0  0  0  0  0
  -26.3500  -34.5260   22.2200 O   0  0  0  0  0  0  0  0  0  0  0  0
  -24.9680  -33.3860   24.8120 H   0  0  0  0  0  0  0  0  0  0  0  0
  -24.0920  -36.3680   23.3020 C   0  0  0  0  0  1  0  0  0  0  0  0
  -25.3400  -35.7950   23.9920 C   0  0  0  0  0  3  0  0  0  0  0  0
  -27.5280  -36.4420   24.8940 C   0  0  0  0  0  1  0  0  0  0  0  0
  -26.4110  -36.8100   24.0270 N   0  0  0  0  0  0  0  0  0  0  0  0
  -26.0470  -37.7040   24.3440 H   0  0  0  0  0  0  0  0  0  0  0  0
  -26.3550  -31.0540   24.5130 C   0  0  1  0  0  0  0  0  0  0  0  0
  -25.2740  -30.5290   25.4920 C   0  0  0  0  0  1  0  0  0  0  0  0
  -27.0710  -29.8210   23.9030 C   0  0  0  0  0  1  0  0  0  0  0  0
  -27.4300  -31.8030   25.3230 C   0  0  0  0  0  1  0  0  0  0  0  0
  -28.4930  -20.3820   18.3980 C   0  0  0  0  0  2  0  0  0  0  0  0
  -27.3670  -19.4640   18.7950 C   0  0  0  0  0  3  0  0  0  0  0  0
  -28.4330  -19.8530   19.8240 C   0  0  0  0  0  2  0  0  0  0  0  0
  -30.8090  -17.0290   19.2330 C   0  0  0  0  0  0  0  0  0  0  0  0
  -31.6140  -14.3500   18.5530 C   0  0  0  0  0  2  0  0  0  0  0  0
  -30.8270  -13.4280   17.5250 C   0  0  0  0  0  2  0  0  0  0  0  0
  -29.4980  -12.9430   18.1070 C   0  0  0  0  0  2  0  0  0  0  0  0
  -28.9180  -14.0910   18.9470 C   0  0  0  0  0  3  0  0  0  0  0  0
  -29.8660  -14.6610   20.0090 C   0  0  0  0  0  2  0  0  0  0  0  0
  -30.7670  -15.5050   19.2550 N   0  0  0  0  0  0  0  0  0  0  0  0
  -31.9970  -17.1410   18.7760 O   0  0  0  0  0  0  0  0  0  0  0  0
  -29.5940  -18.2110   19.5660 N   0  0  0  0  0  2  0  0  0  0  0  0
  -28.9100  -17.5200   19.8510 H   0  0  0  0  0  0  0  0  0  0  0  0
  -26.8190  -14.7580   20.1040 C   0  0  0  0  0  0  0  0  0  0  0  0
  -25.7680  -14.0490   20.5960 C   0  0  0  0  0  0  0  0  0  0  0  0
  -26.0650  -12.6740   20.3330 C   0  0  0  0  0  0  0  0  0  0  0  0
  -27.6650  -13.8190   19.5670 N   0  0  0  0  0  0  0  0  0  0  0  0
  -27.2560  -12.5490   19.7640 N   0  0  0  0  0  0  0  0  0  0  0  0
  -25.2500  -11.4780   20.5190 C   0  0  0  0  0  0  0  0  0  0  0  0
  -25.6400  -10.4470   21.4020 C   0  0  0  0  0  3  0  0  0  0  0  0
  -24.8200   -9.3130   21.5740 C   0  0  0  0  0  3  0  0  0  0  0  0
  -23.5990   -9.2060   20.8680 C   0  0  0  0  0  0  0  0  0  0  0  0
  -23.2320  -10.2240   19.9710 C   0  0  0  0  0  3  0  0  0  0  0  0
  -24.0500  -11.3500   19.7940 C   0  0  0  0  0  3  0  0  0  0  0  0
  -22.7490   -8.1330   20.9560 O   0  0  0  0  0  0  0  0  0  0  0  0
  -22.4650   -7.5390   22.1570 C   0  0  0  0  0  0  0  0  0  0  0  0
  -21.9370   -8.2700   23.2430 C   0  0  0  0  0  3  0  0  0  0  0  0
  -21.5930   -7.6050   24.4370 C   0  0  0  0  0  3  0  0  0  0  0  0
  -21.7670   -6.2130   24.5440 C   0  0  0  0  0  0  0  0  0  0  0  0
  -22.2860   -5.4820   23.4610 C   0  0  0  0  0  3  0  0  0  0  0  0
  -22.6320   -6.1450   22.2700 C   0  0  0  0  0  0  0  0  0  0  0  0
  -23.1130   -5.4340   21.2200 F   0  0  0  0  0  0  0  0  0  0  0  0
  -21.4270   -5.5720   25.6870 F   0  0  0  0  0  0  0  0  0  0  0  0
  -24.5180  -14.6270   21.1700 C   0  0  0  0  0  0  0  0  0  0  0  0
  -23.8960  -13.9170   22.1020 N   0  0  0  0  0  0  0  0  0  0  0  0
  -24.1190  -15.7380   20.8250 O   0  0  0  0  0  0  0  0  0  0  0  0
  -24.2490  -13.0150   22.3900 H   0  0  0  0  0  0  0  0  0  0  0  0
  -23.0530  -14.2750   22.5290 H   0  0  0  0  0  0  0  0  0  0  0  0
  -27.1250  -16.1150   20.0390 N   0  0  0  0  0  0  0  0  0  0  0  0
  -26.3620  -16.7610   20.2040 H   0  0  0  0  0  0  0  0  0  0  0  0
  -27.6960  -16.4160   19.2620 H   0  0  0  0  0  0  0  0  0  0  0  0
  -26.0720  -20.1540   18.8590 N   0  0  0  0  0  4  0  0  0  0  0  0
  -25.9280  -20.7370   18.0530 H   0  0  0  0  0  0  0  0  0  0  0  0
  -26.0350  -20.7110   19.6930 H   0  0  0  0  0  0  0  0  0  0  0  0
  -25.3270  -19.4820   18.8820 H   0  0  0  0  0  0  0  0  0  0  0  0
  2  1  1  0
  3  1  1  0
  4  5  1  0
  5  7  1  0
  6  4  1  0
 11 22  2  0
 12 10  1  0
 12 17  1  0
 13 23  1  0
 13 21  1  0
 14 19  1  0
 14 16  1  0
 14 20  1  0
 15 21  1  0
 16 17  1  0
 16 15  1  0
 18 19  1  0
 18 12  1  0
 20 13  1  0
 21 11  1  0
 23 25  2  0
 24 26  1  0
 24 23  1  0
 27 32  2  0
 27 36  1  0
 28 32  1  0
 29 28  1  0
 30 29  1  0
 30 31  1  0
 31 27  1  0
 32 33  1  0
 33 34  2  0
 35 34  1  0
 36 35  2  0
 37 11  1  0
 37 38  1  0
 37 47  1  0
 38 41  1  0
 39 38  1  0
 39 43  1  0
 40 39  2  0
 43 42  1  0
 43 45  1  0
 45 46  1  0
 45 44  1  0
 47 50  1  1
 47 48  1  0
 49 47  1  0
 51 52  1  0
 51 53  1  0
 52 92  1  0
 52 53  1  0
 54 60  1  0
 54 62  1  0
 55 60  1  0
 56 57  1  0
 56 55  1  0
 58 57  1  0
 58 67  1  0
 58 59  1  0
 60 59  1  0
 61 54  2  0
 62 63  1  0
 64 65  2  0
 65 84  1  0
 66 69  1  0
 66 65  1  0
 67 68  1  0
 67 64  1  0
 68 66  2  0
 69 70  1  0
 70 71  2  0
 72 75  1  0
 72 71  1  0
 73 72  2  0
 74 73  1  0
 74 69  2  0
 75 76  1  0
 76 81  2  0
 76 77  1  0
 77 78  2  0
 78 79  1  0
 79 83  1  0
 80 79  2  0
 81 80  1  0
 82 81  1  0
 84 85  1  0
 85 87  1  0
 85 88  1  0
 86 84  2  0
 89 64  1  0
 89 90  1  0
 91 89  1  0
 92 95  1  0
 92 94  1  0
 93 92  1  0
M  ISO  4   9 101  10 101  54 100  62 100
M  END
>  <TORSDO>  (96) 
F 21

>  <SCORE>  (96) 
-7.130

>  <name>  (96) 
95

>  <ligand_id>  (96) 
95

>  <original_smiles>  (96) 
[H]c1c([H])c([H])c2c(c1[H])C([H])([H])C([H])([H])C([H])([H])C2([H])N([H])C(=O)C1([H])N(C(=O)C([H])(N([H])C(=O)C([H])(N([H])C([H])([H])[H])C([H])([H])[H])C(C([H])([H])[H])(C([H])([H])[H])C([H])([H])[H])C([H])([H])c2c([H])c(OC([H])([H])C([H])([H])N([H])C(=O)C3([H])C([H])([H])C3([H])C3(N([H])C(=O)N4C([H])([H])C([H])([H])C([H])([H])C([H])(n5nc(-c6c([H])c([H])c(Oc7c([H])c([H])c(F)c([H])c7F)c([H])c6[H])c(C(=O)N([H])[H])c5N([H])[H])C4([H])[H])C([H])([H])C3([H])[N+]([H])([H])[H])c([H])c([H])c2C1([H])[H]

>  <smiles>  (96) 
[H]c1c([H])c([H])c2c(c1[H])C([H])([H])C([H])([H])C([H])([H])C2([H])N([H])C(=O)C1([H])N(C(=O)C([H])(N([H])C(=O)C([H])(N([H])C([H])([H])[H])C([H])([H])[H])C(C([H])([H])[H])(C([H])([H])[H])C([H])([H])[H])C([H])([H])c2c([H])c(OC([H])([H])C([H])([H])N([H])C(=O)C3([H])C([H])([H])C3([H])C3(N([H])C(=O)N4C([H])([H])C([H])([H])C([H])([H])C([H])(n5nc(-c6c([H])c([H])c(Oc7c([H])c([H])c(F)c([H])c7F)c([H])c6[H])c(C(=O)N([H])[H])c5N([H])[H])C4([H])[H])C([H])([H])C3([H])[N+]([H])([H])[H])c([H])c([H])c2C1([H])[H]

$$$$
96:0:0
     RDKit          3D

 94103  0  0  1  0  0  0  0  0999 V2000
  -29.4250  -20.9150   18.7510 C   0  0  0  0  0  2  0  0  0  0  0  0
  -28.7790  -22.2830   18.5210 C   0  0  0  0  0  2  0  0  0  0  0  0
  -28.9660  -21.9630   20.8800 C   0  0  0  0  0  2  0  0  0  0  0  0
  -28.9860  -20.5660   20.1700 C   0  0  0  0  0  3  0  0  0  0  0  0
  -28.8850  -23.0110   19.8070 N   0  0  2  0  0  4  0  0  0  0  0  0
  -29.8020  -23.4380   19.7810 H   0  0  0  0  0  0  0  0  0  0  0  0
  -31.7590  -18.5450   21.9630 C   0  0  0  0  0  3  0  0  0  0  0  0
  -30.9710  -19.6070   21.4830 C   0  0  0  0  0  3  0  0  0  0  0  0
  -31.3790  -17.2130   21.7320 C   0  0  0  0  0  3  0  0  0  0  0  0
  -29.7690  -19.3650   20.7800 C   0  0  0  0  0  0  0  0  0  0  0  0
  -29.3730  -18.0000   20.5680 C   0  0  0  0  0  0  0  0  0  0  0  0
  -30.1950  -16.9160   21.0240 C   0  0  0  0  0  0  0  0  0  0  0  0
  -28.0850  -17.7010   19.8080 C   0  0  0  0  0  1  0  0  0  0  0  0
  -30.5590  -14.5300   20.3180 C   0  0  0  0  0  0  0  0  0  0  0  0
  -30.2660  -12.3930   19.1040 C   0  0  0  0  0  2  0  0  0  0  0  0
  -29.2840  -12.6100   17.9330 C   0  0  0  0  0  2  0  0  0  0  0  0
  -27.8230  -12.4450   18.4020 C   0  0  0  0  0  2  0  0  0  0  0  0
  -27.5160  -13.2400   19.6980 C   0  0  0  0  0  3  0  0  0  0  0  0
  -28.6050  -13.0010   20.7670 C   0  0  0  0  0  2  0  0  0  0  0  0
  -29.9030  -13.3460   20.1680 N   0  0  0  0  0  0  0  0  0  0  0  0
  -31.6880  -14.7200   19.8530 O   0  0  0  0  0  0  0  0  0  0  0  0
  -29.8200  -15.5400   20.8400 N   0  0  0  0  0  0  0  0  0  0  0  0
  -28.8600  -15.3070   21.0370 H   0  0  0  0  0  0  0  0  0  0  0  0
  -25.1270  -13.8060   20.4640 C   0  0  0  0  0  0  0  0  0  0  0  0
  -24.0810  -13.0160   20.8580 C   0  0  0  0  0  0  0  0  0  0  0  0
  -24.5630  -11.6720   20.8110 C   0  0  0  0  0  0  0  0  0  0  0  0
  -26.1800  -12.9420   20.2080 N   0  0  0  0  0  0  0  0  0  0  0  0
  -25.8450  -11.6540   20.4730 N   0  0  0  0  0  0  0  0  0  0  0  0
  -23.8600  -10.3980   21.0120 C   0  0  0  0  0  0  0  0  0  0  0  0
  -24.3220   -9.4410   21.9410 C   0  0  0  0  0  3  0  0  0  0  0  0
  -23.6200   -8.2310   22.1290 C   0  0  0  0  0  3  0  0  0  0  0  0
  -22.4420   -7.9710   21.3890 C   0  0  0  0  0  0  0  0  0  0  0  0
  -22.0000   -8.9180   20.4490 C   0  0  0  0  0  3  0  0  0  0  0  0
  -22.7030  -10.1200   20.2590 C   0  0  0  0  0  3  0  0  0  0  0  0
  -21.7100   -6.8130   21.4870 O   0  0  0  0  0  0  0  0  0  0  0  0
  -21.6890   -6.0700   22.6390 C   0  0  0  0  0  0  0  0  0  0  0  0
  -21.2570   -6.6120   23.8700 C   0  0  0  0  0  3  0  0  0  0  0  0
  -21.1860   -5.7930   25.0140 C   0  0  0  0  0  3  0  0  0  0  0  0
  -21.5370   -4.4320   24.9300 C   0  0  0  0  0  0  0  0  0  0  0  0
  -21.9630   -3.8900   23.7050 C   0  0  0  0  0  3  0  0  0  0  0  0
  -22.0350   -4.7050   22.5630 C   0  0  0  0  0  0  0  0  0  0  0  0
  -22.4250   -4.1710   21.3800 F   0  0  0  0  0  0  0  0  0  0  0  0
  -21.4620   -3.6430   26.0280 F   0  0  0  0  0  0  0  0  0  0  0  0
  -22.6840  -13.4720   21.1650 C   0  0  0  0  0  0  0  0  0  0  0  0
  -21.9850  -12.7580   22.0420 N   0  0  0  0  0  0  0  0  0  0  0  0
  -22.2190  -14.4940   20.6610 O   0  0  0  0  0  0  0  0  0  0  0  0
  -22.3750  -11.9300   22.4680 H   0  0  0  0  0  0  0  0  0  0  0  0
  -21.0490  -13.0450   22.2890 H   0  0  0  0  0  0  0  0  0  0  0  0
  -25.2590  -15.1790   20.2790 N   0  0  0  0  0  0  0  0  0  0  0  0
  -24.4660  -15.8030   20.3750 H   0  0  0  0  0  0  0  0  0  0  0  0
  -26.0600  -15.6200   19.8470 H   0  0  0  0  0  0  0  0  0  0  0  0
  -27.8940  -24.1370   19.9440 C   0  0  0  0  0  2  0  0  0  0  0  0
  -28.3740  -25.3740   20.7730 C   0  0  0  0  0  2  0  0  0  0  0  0
  -28.3310  -26.6710   20.1190 O   0  0  0  0  0  0  0  0  0  0  0  0
  -24.5500  -31.8930   23.2450 C   0  0  0  0  0  0  0  0  0  0  0  0
  -27.1610  -27.4080   20.1720 C   0  0  0  0  0  0  0  0  0  0  0  0
  -23.3370  -30.5050   21.5990 C   0  0  0  0  0  3  0  0  0  0  0  0
  -24.7810  -28.9550   20.1780 C   0  0  0  0  0  0  0  0  0  0  0  0
  -25.8680  -30.8430   21.4020 C   0  0  0  0  0  2  0  0  0  0  0  0
  -25.9450  -29.4680   20.7610 C   0  0  0  0  0  0  0  0  0  0  0  0
  -27.1400  -28.7060   20.7460 C   0  0  0  0  0  3  0  0  0  0  0  0
  -25.9760  -26.9140   19.5860 C   0  0  0  0  0  3  0  0  0  0  0  0
  -24.7930  -27.6790   19.5860 C   0  0  0  0  0  3  0  0  0  0  0  0
  -23.5430  -29.8240   20.2200 C   0  0  0  0  0  2  0  0  0  0  0  0
  -24.6040  -31.0960   22.1400 N   0  0  0  0  0  0  0  0  0  0  0  0
  -23.4700  -32.1690   23.7870 O   0  0  0  0  0  0  0  0  0  0  0  0
  -22.6770  -29.4860   22.5580 C   0  0  0  0  0  0  0  0  0  0  0  0
  -21.3510  -29.3140   22.4320 N   0  0  0  0  0  0  0  0  0  0  0  0
  -23.3570  -28.8490   23.3670 O   0  0  0  0  0  0  0  0  0  0  0  0
  -20.8630  -29.8730   21.7450 H   0  0  0  0  0  0  0  0  0  0  0  0
  -17.9660  -28.1520   22.9400 C   0  0  0  0  0  0  0  0  0  0  0  0
  -20.5280  -28.3790   23.2000 C   0  0  0  0  0  3  0  0  0  0  0  0
  -20.6120  -26.9520   22.6110 C   0  0  0  0  0  2  0  0  0  0  0  0
  -19.5010  -26.6510   21.6000 C   0  0  0  0  0  2  0  0  0  0  0  0
  -18.1240  -26.8070   22.2510 C   0  0  0  0  0  2  0  0  0  0  0  0
  -19.0950  -28.8970   23.3700 C   0  0  0  0  0  0  0  0  0  0  0  0
  -18.8940  -30.1570   23.9720 C   0  0  0  0  0  3  0  0  0  0  0  0
  -17.5960  -30.6740   24.1460 C   0  0  0  0  0  3  0  0  0  0  0  0
  -16.4810  -29.9240   23.7340 C   0  0  0  0  0  3  0  0  0  0  0  0
  -16.6670  -28.6650   23.1380 C   0  0  0  0  0  3  0  0  0  0  0  0
  -25.8370  -32.5160   23.8680 C   0  0  0  0  0  3  0  0  0  0  0  0
  -26.3440  -31.7450   25.1490 C   0  0  1  0  0  0  0  0  0  0  0  0
  -25.2440  -31.5170   26.2130 C   0  0  0  0  0  1  0  0  0  0  0  0
  -26.9160  -30.3630   24.7600 C   0  0  0  0  0  1  0  0  0  0  0  0
  -27.5020  -32.5300   25.8080 C   0  0  0  0  0  1  0  0  0  0  0  0
  -25.5410  -33.9190   24.1890 N   0  0  0  0  0  0  0  0  0  0  0  0
  -25.8890  -34.9640   23.4270 C   0  0  0  0  0  0  0  0  0  0  0  0
  -26.5650  -34.8490   22.4000 O   0  0  0  0  0  0  0  0  0  0  0  0
  -24.9440  -34.0850   24.9860 H   0  0  0  0  0  0  0  0  0  0  0  0
  -24.1870  -36.7750   23.0440 C   0  0  0  0  0  1  0  0  0  0  0  0
  -25.4120  -36.3590   23.8740 C   0  0  0  0  0  3  0  0  0  0  0  0
  -27.5440  -37.2210   24.7300 C   0  0  0  0  0  1  0  0  0  0  0  0
  -26.4580  -37.4010   23.7710 N   0  0  0  0  0  0  0  0  0  0  0  0
  -26.0590  -38.3240   23.9120 H   0  0  0  0  0  0  0  0  0  0  0  0
  1  4  1  0
  2  1  1  0
  2  5  1  0
  4 10  1  0
  4  3  1  0
  5 52  1  0
  5  3  1  0
  5  6  1  6
  8  7  2  0
  9  7  1  0
 10  8  1  0
 11 10  2  0
 11 12  1  0
 12  9  2  0
 13 11  1  0
 14 22  1  0
 15 20  1  0
 16 17  1  0
 16 15  1  0
 18 17  1  0
 18 27  1  0
 18 19  1  0
 20 14  1  0
 20 19  1  0
 21 14  2  0
 22 12  1  0
 22 23  1  0
 24 25  2  0
 25 44  1  0
 26 25  1  0
 26 29  1  0
 27 24  1  0
 27 28  1  0
 28 26  2  0
 29 30  1  0
 30 31  2  0
 32 35  1  0
 32 31  1  0
 33 32  2  0
 34 33  1  0
 34 29  2  0
 35 36  1  0
 36 37  1  0
 37 38  2  0
 39 38  1  0
 39 43  1  0
 40 39  2  0
 41 36  2  0
 41 40  1  0
 42 41  1  0
 44 45  1  0
 45 48  1  0
 45 47  1  0
 46 44  2  0
 49 50  1  0
 49 24  1  0
 51 49  1  0
 52 53  1  0
 54 56  1  0
 54 53  1  0
 55 66  2  0
 56 61  1  0
 57 65  1  0
 57 67  1  0
 58 64  1  0
 58 60  1  0
 59 65  1  0
 60 59  1  0
 61 60  2  0
 62 56  2  0
 63 62  1  0
 63 58  2  0
 64 57  1  0
 65 55  1  0
 67 69  2  0
 68 67  1  0
 70 68  1  0
 71 80  2  0
 71 76  1  0
 72 68  1  0
 72 76  1  0
 73 72  1  0
 74 75  1  0
 74 73  1  0
 75 71  1  0
 76 77  2  0
 77 78  1  0
 79 78  2  0
 80 79  1  0
 81 55  1  0
 81 86  1  0
 81 82  1  0
 82 85  1  1
 82 83  1  0
 84 82  1  0
 86 89  1  0
 87 91  1  0
 87 86  1  0
 88 87  2  0
 91 90  1  0
 93 91  1  0
 93 94  1  0
 93 92  1  0
M  ISO  4  14 100  22 100  53 101  54 101
M  END
>  <TORSDO>  (97) 
F 19

>  <SCORE>  (97) 
-14.465

>  <name>  (97) 
96

>  <ligand_id>  (97) 
96

>  <original_smiles>  (97) 
[H]c1c([H])c([H])c2c(c1[H])C([H])([H])C([H])([H])C([H])([H])C2([H])N([H])C(=O)C1([H])N(C(=O)C([H])(N([H])C(=O)C([H])(N([H])C([H])([H])[H])C([H])([H])[H])C(C([H])([H])[H])(C([H])([H])[H])C([H])([H])[H])C([H])([H])c2c([H])c(OC([H])([H])C([H])([H])[N+]3([H])C([H])([H])C([H])([H])C([H])(c4c([H])c([H])c([H])c(N([H])C(=O)N5C([H])([H])C([H])([H])C([H])([H])C([H])(n6nc(-c7c([H])c([H])c(Oc8c([H])c([H])c(F)c([H])c8F)c([H])c7[H])c(C(=O)N([H])[H])c6N([H])[H])C5([H])[H])c4C([H])([H])[H])C3([H])[H])c([H])c([H])c2C1([H])[H]

>  <smiles>  (97) 
[H]c1c([H])c([H])c2c(c1[H])C([H])([H])C([H])([H])C([H])([H])C2([H])N([H])C(=O)C1([H])N(C(=O)C([H])(N([H])C(=O)C([H])(N([H])C([H])([H])[H])C([H])([H])[H])C(C([H])([H])[H])(C([H])([H])[H])C([H])([H])[H])C([H])([H])c2c([H])c(OC([H])([H])C([H])([H])[N+]3([H])C([H])([H])C([H])([H])C([H])(c4c([H])c([H])c([H])c(N([H])C(=O)N5C([H])([H])C([H])([H])C([H])([H])C([H])(n6nc(-c7c([H])c([H])c(Oc8c([H])c([H])c(F)c([H])c8F)c([H])c7[H])c(C(=O)N([H])[H])c6N([H])[H])C5([H])[H])c4C([H])([H])[H])C3([H])[H])c([H])c([H])c2C1([H])[H]

$$$$
97:0:0
     RDKit          3D

 91100  0  0  1  0  0  0  0  0999 V2000
  -27.5310  -20.8180   19.9330 C   0  0  0  0  0  2  0  0  0  0  0  0
  -28.0900  -22.2900   17.9530 C   0  0  0  0  0  2  0  0  0  0  0  0
  -27.4410  -22.2860   19.3650 C   0  0  0  0  0  3  0  0  0  0  0  0
  -28.3830  -23.1650   20.2360 C   0  0  0  0  0  3  0  0  0  0  0  0
  -29.5340  -21.9750   20.0170 C   0  0  0  0  0  3  0  0  0  0  0  0
  -28.9800  -20.5080   19.9760 N   0  0  1  0  0  4  0  0  0  0  0  0
  -29.8910  -22.1910   18.2550 S   0  0  0  0  0  0  0  0  0  0  0  0
  -29.2120  -20.2710   19.0230 H   0  0  0  0  0  0  0  0  0  0  0  0
  -28.4400  -24.7980   19.6810 C   0  0  0  0  0  2  0  0  0  0  0  0
  -28.2950  -26.2110   20.3350 O   0  0  0  0  0  0  0  0  0  0  0  0
  -24.6230  -31.8980   23.2070 C   0  0  0  0  0  0  0  0  0  0  0  0
  -27.2210  -27.1700   20.1970 C   0  0  0  0  0  0  0  0  0  0  0  0
  -23.4270  -30.4890   21.5740 C   0  0  0  0  0  3  0  0  0  0  0  0
  -24.8800  -28.9090   20.1520 C   0  0  0  0  0  0  0  0  0  0  0  0
  -25.9780  -30.7620   21.4060 C   0  0  0  0  0  2  0  0  0  0  0  0
  -26.0560  -29.3650   20.7610 C   0  0  0  0  0  0  0  0  0  0  0  0
  -27.2200  -28.5090   20.7680 C   0  0  0  0  0  3  0  0  0  0  0  0
  -26.0170  -26.8140   19.5510 C   0  0  0  0  0  3  0  0  0  0  0  0
  -24.8740  -27.6480   19.5320 C   0  0  0  0  0  3  0  0  0  0  0  0
  -23.6480  -29.8030   20.1980 C   0  0  0  0  0  2  0  0  0  0  0  0
  -24.6950  -31.0740   22.1160 N   0  0  0  0  0  0  0  0  0  0  0  0
  -23.5360  -32.1810   23.7350 O   0  0  0  0  0  0  0  0  0  0  0  0
  -22.7520  -29.4870   22.5440 C   0  0  0  0  0  0  0  0  0  0  0  0
  -21.4230  -29.3160   22.4250 N   0  0  0  0  0  0  0  0  0  0  0  0
  -23.4270  -28.8640   23.3670 O   0  0  0  0  0  0  0  0  0  0  0  0
  -20.9340  -29.8720   21.7360 H   0  0  0  0  0  0  0  0  0  0  0  0
  -18.0420  -28.1280   22.9550 C   0  0  0  0  0  0  0  0  0  0  0  0
  -20.6030  -28.3820   23.2030 C   0  0  0  0  0  3  0  0  0  0  0  0
  -20.6950  -26.9500   22.6280 C   0  0  0  0  0  2  0  0  0  0  0  0
  -19.5850  -26.6300   21.6220 C   0  0  0  0  0  2  0  0  0  0  0  0
  -18.2090  -26.7790   22.2750 C   0  0  0  0  0  2  0  0  0  0  0  0
  -19.1660  -28.8880   23.3750 C   0  0  0  0  0  0  0  0  0  0  0  0
  -18.9520  -30.1490   23.9730 C   0  0  0  0  0  3  0  0  0  0  0  0
  -17.6500  -30.6510   24.1510 C   0  0  0  0  0  3  0  0  0  0  0  0
  -16.5410  -29.8890   23.7450 C   0  0  0  0  0  3  0  0  0  0  0  0
  -16.7370  -28.6280   23.1530 C   0  0  0  0  0  3  0  0  0  0  0  0
  -25.8990  -32.5420   23.8300 C   0  0  0  0  0  3  0  0  0  0  0  0
  -26.4160  -31.7790   25.1120 C   0  0  1  0  0  0  0  0  0  0  0  0
  -25.3210  -31.5410   26.1790 C   0  0  0  0  0  1  0  0  0  0  0  0
  -27.0060  -30.4030   24.7300 C   0  0  0  0  0  1  0  0  0  0  0  0
  -27.5610  -32.5820   25.7730 C   0  0  0  0  0  1  0  0  0  0  0  0
  -25.5810  -33.9410   24.1630 N   0  0  0  0  0  0  0  0  0  0  0  0
  -25.9050  -34.9990   23.4080 C   0  0  0  0  0  0  0  0  0  0  0  0
  -26.5700  -34.9030   22.3730 O   0  0  0  0  0  0  0  0  0  0  0  0
  -24.9920  -34.0900   24.9690 H   0  0  0  0  0  0  0  0  0  0  0  0
  -24.1730  -36.7940   23.0670 C   0  0  0  0  0  1  0  0  0  0  0  0
  -25.4150  -36.3860   23.8750 C   0  0  0  0  0  3  0  0  0  0  0  0
  -27.5460  -37.2740   24.7130 C   0  0  0  0  0  1  0  0  0  0  0  0
  -26.4460  -37.4420   23.7670 N   0  0  0  0  0  0  0  0  0  0  0  0
  -26.0370  -38.3600   23.9160 H   0  0  0  0  0  0  0  0  0  0  0  0
  -29.4550  -19.1760   20.7290 C   0  0  0  0  0  2  0  0  0  0  0  0
  -31.1460  -17.9790   19.1320 C   0  0  0  0  0  1  0  0  0  0  0  0
  -29.8380  -17.7330   19.9050 C   0  0  0  0  0  3  0  0  0  0  0  0
  -30.5860  -15.0400   20.3030 C   0  0  0  0  0  0  0  0  0  0  0  0
  -30.4550  -12.6740   19.3920 C   0  0  0  0  0  2  0  0  0  0  0  0
  -29.5310  -12.6400   18.1520 C   0  0  0  0  0  2  0  0  0  0  0  0
  -28.0670  -12.4280   18.5790 C   0  0  0  0  0  2  0  0  0  0  0  0
  -27.6590  -13.3520   19.7570 C   0  0  0  0  0  3  0  0  0  0  0  0
  -28.7110  -13.3710   20.8890 C   0  0  0  0  0  2  0  0  0  0  0  0
  -29.9890  -13.7770   20.2880 N   0  0  0  0  0  0  0  0  0  0  0  0
  -31.7720  -15.0850   19.9620 O   0  0  0  0  0  0  0  0  0  0  0  0
  -29.8170  -16.2360   20.4890 N   0  0  0  0  0  0  0  0  0  0  0  0
  -28.9170  -16.0120   20.8870 H   0  0  0  0  0  0  0  0  0  0  0  0
  -25.2800  -13.9280   20.4920 C   0  0  0  0  0  0  0  0  0  0  0  0
  -24.2140  -13.1530   20.8580 C   0  0  0  0  0  0  0  0  0  0  0  0
  -24.6770  -11.8020   20.8250 C   0  0  0  0  0  0  0  0  0  0  0  0
  -26.3210  -13.0490   20.2520 N   0  0  0  0  0  0  0  0  0  0  0  0
  -25.9690  -11.7640   20.5180 N   0  0  0  0  0  0  0  0  0  0  0  0
  -23.9470  -10.5400   21.0120 C   0  0  0  0  0  0  0  0  0  0  0  0
  -24.3680   -9.5740   21.9510 C   0  0  0  0  0  3  0  0  0  0  0  0
  -23.6360   -8.3780   22.1260 C   0  0  0  0  0  3  0  0  0  0  0  0
  -22.4690   -8.1420   21.3600 C   0  0  0  0  0  0  0  0  0  0  0  0
  -22.0680   -9.0980   20.4100 C   0  0  0  0  0  3  0  0  0  0  0  0
  -22.8010  -10.2830   20.2340 C   0  0  0  0  0  3  0  0  0  0  0  0
  -21.7110   -6.9990   21.4430 O   0  0  0  0  0  0  0  0  0  0  0  0
  -21.6410   -6.2650   22.5990 C   0  0  0  0  0  0  0  0  0  0  0  0
  -21.1790   -6.8240   23.8100 C   0  0  0  0  0  3  0  0  0  0  0  0
  -21.0580   -6.0160   24.9590 C   0  0  0  0  0  3  0  0  0  0  0  0
  -21.3870   -4.6480   24.8950 C   0  0  0  0  0  0  0  0  0  0  0  0
  -21.8400   -4.0880   23.6870 C   0  0  0  0  0  3  0  0  0  0  0  0
  -21.9640   -4.8940   22.5420 C   0  0  0  0  0  0  0  0  0  0  0  0
  -22.3810   -4.3440   21.3760 F   0  0  0  0  0  0  0  0  0  0  0  0
  -21.2630   -3.8690   25.9940 F   0  0  0  0  0  0  0  0  0  0  0  0
  -22.8170  -13.6330   21.1270 C   0  0  0  0  0  0  0  0  0  0  0  0
  -22.0840  -12.9340   21.9860 N   0  0  0  0  0  0  0  0  0  0  0  0
  -22.3860  -14.6630   20.6100 O   0  0  0  0  0  0  0  0  0  0  0  0
  -22.4480  -12.1010   22.4240 H   0  0  0  0  0  0  0  0  0  0  0  0
  -21.1460  -13.2370   22.2090 H   0  0  0  0  0  0  0  0  0  0  0  0
  -25.4440  -15.2990   20.3160 N   0  0  0  0  0  0  0  0  0  0  0  0
  -24.6690  -15.9460   20.4050 H   0  0  0  0  0  0  0  0  0  0  0  0
  -26.2830  -15.7340   19.9570 H   0  0  0  0  0  0  0  0  0  0  0  0
  1  6  1  0
  2  7  1  0
  3  2  1  0
  3  1  1  0
  3  4  1  0
  4  9  1  0
  5  7  1  0
  5  4  1  0
  6  5  1  0
  6 51  1  0
  6  8  1  6
  9 10  1  0
 11 22  2  0
 12 10  1  0
 12 17  1  0
 13 21  1  0
 13 23  1  0
 14 20  1  0
 14 16  1  0
 15 21  1  0
 16 17  2  0
 16 15  1  0
 18 12  2  0
 19 18  1  0
 19 14  2  0
 20 13  1  0
 21 11  1  0
 23 25  2  0
 24 23  1  0
 26 24  1  0
 27 36  2  0
 27 32  1  0
 28 24  1  0
 28 32  1  0
 29 28  1  0
 30 31  1  0
 30 29  1  0
 31 27  1  0
 32 33  2  0
 33 34  1  0
 35 34  2  0
 36 35  1  0
 37 11  1  0
 37 42  1  0
 37 38  1  0
 38 41  1  1
 38 39  1  0
 40 38  1  0
 42 45  1  0
 43 47  1  0
 43 42  1  0
 44 43  2  0
 47 46  1  0
 49 47  1  0
 49 50  1  0
 49 48  1  0
 53 52  1  0
 53 62  1  0
 53 51  1  0
 54 62  1  0
 55 60  1  0
 56 57  1  0
 56 55  1  0
 58 57  1  0
 58 67  1  0
 58 59  1  0
 60 54  1  0
 60 59  1  0
 61 54  2  0
 62 63  1  0
 64 65  2  0
 65 84  1  0
 66 65  1  0
 66 69  1  0
 67 64  1  0
 67 68  1  0
 68 66  2  0
 69 70  1  0
 70 71  2  0
 72 75  1  0
 72 71  1  0
 73 72  2  0
 74 73  1  0
 74 69  2  0
 75 76  1  0
 76 77  1  0
 77 78  2  0
 79 78  1  0
 79 83  1  0
 80 79  2  0
 81 76  2  0
 81 80  1  0
 82 81  1  0
 84 85  1  0
 85 88  1  0
 85 87  1  0
 86 84  2  0
 89 90  1  0
 89 64  1  0
 91 89  1  0
M  ISO  4   9 101  10 101  54 100  62 100
M  END
>  <TORSDO>  (98) 
F 19

>  <SCORE>  (98) 
-15.285

>  <name>  (98) 
97

>  <ligand_id>  (98) 
97

>  <original_smiles>  (98) 
[H]c1c([H])c([H])c2c(c1[H])C([H])([H])C([H])([H])C([H])([H])C2([H])N([H])C(=O)C1([H])N(C(=O)C([H])(N([H])C(=O)C([H])(N([H])C([H])([H])[H])C([H])([H])[H])C(C([H])([H])[H])(C([H])([H])[H])C([H])([H])[H])C([H])([H])c2c([H])c(OC([H])([H])C3([H])C4([H])C([H])([H])SC3([H])[N+]([H])(C([H])([H])C([H])(N([H])C(=O)N3C([H])([H])C([H])([H])C([H])([H])C([H])(n5nc(-c6c([H])c([H])c(Oc7c([H])c([H])c(F)c([H])c7F)c([H])c6[H])c(C(=O)N([H])[H])c5N([H])[H])C3([H])[H])C([H])([H])[H])C4([H])[H])c([H])c([H])c2C1([H])[H]

>  <smiles>  (98) 
[H]c1c([H])c([H])c2c(c1[H])C([H])([H])C([H])([H])C([H])([H])C2([H])N([H])C(=O)C1([H])N(C(=O)C([H])(N([H])C(=O)C([H])(N([H])C([H])([H])[H])C([H])([H])[H])C(C([H])([H])[H])(C([H])([H])[H])C([H])([H])[H])C([H])([H])c2c([H])c(OC([H])([H])C3([H])C4([H])C([H])([H])SC3([H])[N+]([H])(C([H])([H])C([H])(N([H])C(=O)N3C([H])([H])C([H])([H])C([H])([H])C([H])(n5nc(-c6c([H])c([H])c(Oc7c([H])c([H])c(F)c([H])c7F)c([H])c6[H])c(C(=O)N([H])[H])c5N([H])[H])C3([H])[H])C([H])([H])[H])C4([H])[H])c([H])c([H])c2C1([H])[H]

$$$$
98:0:0
     RDKit          3D

 98108  0  0  1  0  0  0  0  0999 V2000
  -33.2990  -20.1320   18.8130 C   0  0  0  0  0  2  0  0  0  0  0  0
  -32.4650  -21.0700   19.7270 C   0  0  0  0  0  2  0  0  0  0  0  0
  -32.5370  -17.6690   19.1800 C   0  0  0  0  0  2  0  0  0  0  0  0
  -31.3130  -17.7430   20.0840 C   0  0  0  0  0  3  0  0  0  0  0  0
  -30.8320  -19.1870   20.1890 C   0  0  0  0  0  3  0  0  0  0  0  0
  -29.5530  -18.6580   20.8230 C   0  0  0  0  0  3  0  0  0  0  0  0
  -29.8600  -17.2840   19.9370 C   0  0  0  0  0  3  0  0  0  0  0  0
  -33.4970  -18.8360   19.6350 C   0  0  0  0  0  3  0  0  0  0  0  0
  -31.9170  -20.1140   20.7980 C   0  0  0  0  0  3  0  0  0  0  0  0
  -33.1340  -19.2930   21.0140 N   0  0  0  0  0  4  0  0  0  0  0  0
  -33.8700  -19.8470   21.4220 H   0  0  0  0  0  0  0  0  0  0  0  0
  -32.9280  -18.5130   21.6180 H   0  0  0  0  0  0  0  0  0  0  0  0
  -30.5090  -14.7170   20.2730 C   0  0  0  0  0  0  0  0  0  0  0  0
  -30.3420  -12.4380   19.2880 C   0  0  0  0  0  2  0  0  0  0  0  0
  -29.4190  -12.5170   18.0540 C   0  0  0  0  0  2  0  0  0  0  0  0
  -27.9450  -12.3460   18.4690 C   0  0  0  0  0  2  0  0  0  0  0  0
  -27.5730  -13.2490   19.6740 C   0  0  0  0  0  3  0  0  0  0  0  0
  -28.6030  -13.1450   20.8130 C   0  0  0  0  0  2  0  0  0  0  0  0
  -29.9030  -13.4870   20.2390 N   0  0  0  0  0  0  0  0  0  0  0  0
  -31.6880  -14.7940   19.9290 O   0  0  0  0  0  0  0  0  0  0  0  0
  -29.7070  -15.8450   20.4720 N   0  0  0  0  0  0  0  0  0  0  0  0
  -28.7770  -15.6250   20.7860 H   0  0  0  0  0  0  0  0  0  0  0  0
  -25.1920  -13.8830   20.3720 C   0  0  0  0  0  0  0  0  0  0  0  0
  -24.1210  -13.1270   20.7560 C   0  0  0  0  0  0  0  0  0  0  0  0
  -24.5760  -11.7700   20.7580 C   0  0  0  0  0  0  0  0  0  0  0  0
  -26.2270  -12.9900   20.1540 N   0  0  0  0  0  0  0  0  0  0  0  0
  -25.8670  -11.7170   20.4490 N   0  0  0  0  0  0  0  0  0  0  0  0
  -23.8420  -10.5160   20.9660 C   0  0  0  0  0  0  0  0  0  0  0  0
  -24.2730   -9.5620   21.9120 C   0  0  0  0  0  3  0  0  0  0  0  0
  -23.5450   -8.3680   22.1060 C   0  0  0  0  0  3  0  0  0  0  0  0
  -22.3680   -8.1250   21.3570 C   0  0  0  0  0  0  0  0  0  0  0  0
  -21.9570   -9.0680   20.3980 C   0  0  0  0  0  3  0  0  0  0  0  0
  -22.6870  -10.2540   20.2030 C   0  0  0  0  0  3  0  0  0  0  0  0
  -21.6060   -6.9870   21.4610 O   0  0  0  0  0  0  0  0  0  0  0  0
  -21.5680   -6.2550   22.6210 C   0  0  0  0  0  0  0  0  0  0  0  0
  -21.1680   -6.8240   23.8500 C   0  0  0  0  0  3  0  0  0  0  0  0
  -21.0730   -6.0150   25.0020 C   0  0  0  0  0  3  0  0  0  0  0  0
  -21.3660   -4.6410   24.9240 C   0  0  0  0  0  0  0  0  0  0  0  0
  -21.7560   -4.0730   23.6980 C   0  0  0  0  0  3  0  0  0  0  0  0
  -21.8560   -4.8780   22.5520 C   0  0  0  0  0  0  0  0  0  0  0  0
  -22.2110   -4.3210   21.3700 F   0  0  0  0  0  0  0  0  0  0  0  0
  -21.2690   -3.8630   26.0290 F   0  0  0  0  0  0  0  0  0  0  0  0
  -22.7250  -13.6150   21.0180 C   0  0  0  0  0  0  0  0  0  0  0  0
  -21.9900  -12.9370   21.8900 N   0  0  0  0  0  0  0  0  0  0  0  0
  -22.2960  -14.6330   20.4750 O   0  0  0  0  0  0  0  0  0  0  0  0
  -22.3550  -12.1160   22.3480 H   0  0  0  0  0  0  0  0  0  0  0  0
  -21.0520  -13.2440   22.1060 H   0  0  0  0  0  0  0  0  0  0  0  0
  -25.3710  -15.2480   20.1660 N   0  0  0  0  0  0  0  0  0  0  0  0
  -24.6010  -15.9060   20.2410 H   0  0  0  0  0  0  0  0  0  0  0  0
  -26.2080  -15.6630   19.7740 H   0  0  0  0  0  0  0  0  0  0  0  0
  -28.2840  -19.6610   20.8050 C   0  0  0  0  0  2  0  0  0  0  0  0
  -28.5720  -22.3170   20.5420 C   0  0  0  0  0  0  0  0  0  0  0  0
  -28.1970  -21.0490   20.1440 N   0  0  0  0  0  0  0  0  0  0  0  0
  -29.5490  -22.4440   21.2810 O   0  0  0  0  0  0  0  0  0  0  0  0
  -27.4310  -21.0760   19.4760 H   0  0  0  0  0  0  0  0  0  0  0  0
  -27.7040  -23.6320   20.1850 C   0  0  0  0  0  2  0  0  0  0  0  0
  -28.3450  -24.9990   19.5740 C   0  0  0  0  0  2  0  0  0  0  0  0
  -28.2760  -26.3970   20.1470 O   0  0  0  0  0  0  0  0  0  0  0  0
  -24.5930  -31.8250   23.1840 C   0  0  0  0  0  0  0  0  0  0  0  0
  -27.1760  -27.2760   20.0490 C   0  0  0  0  0  0  0  0  0  0  0  0
  -23.3880  -30.4600   21.5250 C   0  0  0  0  0  3  0  0  0  0  0  0
  -24.8230  -28.9220   20.0720 C   0  0  0  0  0  0  0  0  0  0  0  0
  -25.9240  -30.7730   21.3260 C   0  0  0  0  0  2  0  0  0  0  0  0
  -25.9980  -29.3960   20.6620 C   0  0  0  0  0  0  0  0  0  0  0  0
  -27.1780  -28.5830   20.6370 C   0  0  0  0  0  3  0  0  0  0  0  0
  -25.9780  -26.8670   19.4270 C   0  0  0  0  0  3  0  0  0  0  0  0
  -24.8170  -27.6680   19.4440 C   0  0  0  0  0  3  0  0  0  0  0  0
  -23.5960  -29.8150   20.1300 C   0  0  0  0  0  2  0  0  0  0  0  0
  -24.6570  -31.0340   22.0710 N   0  0  0  0  0  0  0  0  0  0  0  0
  -23.5110  -32.0960   23.7270 O   0  0  0  0  0  0  0  0  0  0  0  0
  -22.7190  -29.4310   22.4710 C   0  0  0  0  0  0  0  0  0  0  0  0
  -21.3850  -29.2810   22.3640 N   0  0  0  0  0  0  0  0  0  0  0  0
  -23.3950  -28.7800   23.2700 O   0  0  0  0  0  0  0  0  0  0  0  0
  -20.8850  -29.8620   21.6990 H   0  0  0  0  0  0  0  0  0  0  0  0
  -18.0030  -28.1090   22.8910 C   0  0  0  0  0  0  0  0  0  0  0  0
  -20.5700  -28.3300   23.1240 C   0  0  0  0  0  3  0  0  0  0  0  0
  -20.6400  -26.9100   22.5150 C   0  0  0  0  0  2  0  0  0  0  0  0
  -19.5150  -26.6230   21.5140 C   0  0  0  0  0  2  0  0  0  0  0  0
  -18.1480  -26.7730   22.1920 C   0  0  0  0  0  2  0  0  0  0  0  0
  -19.1370  -28.8430   23.3240 C   0  0  0  0  0  0  0  0  0  0  0  0
  -18.9470  -30.0940   23.9510 C   0  0  0  0  0  3  0  0  0  0  0  0
  -17.6530  -30.6090   24.1440 C   0  0  0  0  0  3  0  0  0  0  0  0
  -16.5290  -29.8730   23.7280 C   0  0  0  0  0  3  0  0  0  0  0  0
  -16.7070  -28.6240   23.1110 C   0  0  0  0  0  3  0  0  0  0  0  0
  -25.8750  -32.4500   23.8150 C   0  0  0  0  0  3  0  0  0  0  0  0
  -26.3920  -31.6630   25.0820 C   0  0  1  0  0  0  0  0  0  0  0  0
  -25.3000  -31.4060   26.1470 C   0  0  0  0  0  1  0  0  0  0  0  0
  -26.9660  -30.2830   24.6790 C   0  0  0  0  0  1  0  0  0  0  0  0
  -27.5450  -32.4490   25.7480 C   0  0  0  0  0  1  0  0  0  0  0  0
  -25.5560  -33.8440   24.1600 N   0  0  0  0  0  0  0  0  0  0  0  0
  -25.8870  -34.9080   23.4180 C   0  0  0  0  0  0  0  0  0  0  0  0
  -26.5560  -34.8170   22.3870 O   0  0  0  0  0  0  0  0  0  0  0  0
  -24.9350  -33.9940   24.9390 H   0  0  0  0  0  0  0  0  0  0  0  0
  -24.1620  -36.7150   23.0980 C   0  0  0  0  0  1  0  0  0  0  0  0
  -25.4000  -36.2910   23.9000 C   0  0  0  0  0  3  0  0  0  0  0  0
  -27.5400  -37.1700   24.7240 C   0  0  0  0  0  1  0  0  0  0  0  0
  -26.4290  -37.3430   23.7950 N   0  0  0  0  0  0  0  0  0  0  0  0
  -26.0190  -38.2560   23.9600 H   0  0  0  0  0  0  0  0  0  0  0  0
  1  8  1  0
  1  2  1  0
  2  9  1  0
  3  8  1  0
  4  3  1  0
  4  5  1  0
  5  9  1  0
  5  6  1  0
  7  4  1  0
  7 21  1  0
  7  6  1  0
  8 10  1  0
  9 10  1  0
 10 11  1  0
 10 12  1  0
 13 21  1  0
 14 19  1  0
 15 16  1  0
 15 14  1  0
 16 17  1  0
 17 26  1  0
 17 18  1  0
 19 13  1  0
 19 18  1  0
 20 13  2  0
 21 22  1  0
 23 24  2  0
 24 25  1  0
 24 43  1  0
 25 28  1  0
 26 23  1  0
 26 27  1  0
 27 25  2  0
 28 29  1  0
 29 30  2  0
 31 34  1  0
 31 30  1  0
 32 31  2  0
 33 32  1  0
 33 28  2  0
 34 35  1  0
 35 36  1  0
 36 37  2  0
 38 37  1  0
 38 42  1  0
 39 38  2  0
 40 35  2  0
 40 39  1  0
 41 40  1  0
 43 44  1  0
 44 47  1  0
 44 46  1  0
 45 43  2  0
 48 49  1  0
 48 23  1  0
 50 48  1  0
 51  6  1  0
 52 54  2  0
 53 52  1  0
 53 51  1  0
 55 53  1  0
 56 52  1  0
 57 58  1  0
 57 56  1  0
 59 70  2  0
 59 85  1  0
 60 58  1  0
 60 65  1  0
 61 69  1  0
 61 71  1  0
 62 68  1  0
 62 64  1  0
 63 69  1  0
 64 63  1  0
 65 64  2  0
 66 67  1  0
 66 60  2  0
 67 62  2  0
 68 61  1  0
 69 59  1  0
 71 73  2  0
 72 71  1  0
 72 76  1  0
 74 72  1  0
 75 84  2  0
 75 80  1  0
 76 80  1  0
 77 76  1  0
 78 79  1  0
 78 77  1  0
 79 75  1  0
 80 81  2  0
 81 82  1  0
 83 82  2  0
 84 83  1  0
 85 90  1  0
 85 86  1  0
 86 89  1  1
 86 87  1  0
 88 86  1  0
 90 93  1  0
 91 95  1  0
 91 90  1  0
 92 91  2  0
 94 95  1  0
 97 95  1  0
 97 98  1  0
 97 96  1  0
M  ISO  4  13 100  21 100  57 101  58 101
M  END
>  <TORSDO>  (99) 
F 20

>  <SCORE>  (99) 
-13.841

>  <name>  (99) 
98

>  <ligand_id>  (99) 
98

>  <original_smiles>  (99) 
[H]c1c([H])c([H])c2c(c1[H])C([H])([H])C([H])([H])C([H])([H])C2([H])N([H])C(=O)C1([H])N(C(=O)C([H])(N([H])C(=O)C([H])(N([H])C([H])([H])[H])C([H])([H])[H])C(C([H])([H])[H])(C([H])([H])[H])C([H])([H])[H])C([H])([H])c2c([H])c(OC([H])([H])C([H])([H])C(=O)N([H])C([H])([H])C3([H])C([H])(N([H])C(=O)N4C([H])([H])C([H])([H])C([H])([H])C([H])(n5nc(-c6c([H])c([H])c(Oc7c([H])c([H])c(F)c([H])c7F)c([H])c6[H])c(C(=O)N([H])[H])c5N([H])[H])C4([H])[H])C4([H])C([H])([H])C5([H])C([H])([H])C([H])([H])C([H])(C34[H])[N+]5([H])[H])c([H])c([H])c2C1([H])[H]

>  <smiles>  (99) 
[H]c1c([H])c([H])c2c(c1[H])C([H])([H])C([H])([H])C([H])([H])C2([H])N([H])C(=O)C1([H])N(C(=O)C([H])(N([H])C(=O)C([H])(N([H])C([H])([H])[H])C([H])([H])[H])C(C([H])([H])[H])(C([H])([H])[H])C([H])([H])[H])C([H])([H])c2c([H])c(OC([H])([H])C([H])([H])C(=O)N([H])C([H])([H])C3([H])C([H])(N([H])C(=O)N4C([H])([H])C([H])([H])C([H])([H])C([H])(n5nc(-c6c([H])c([H])c(Oc7c([H])c([H])c(F)c([H])c7F)c([H])c6[H])c(C(=O)N([H])[H])c5N([H])[H])C4([H])[H])C4([H])C([H])([H])C5([H])C([H])([H])C([H])([H])C([H])(C34[H])[N+]5([H])[H])c([H])c([H])c2C1([H])[H]

$$$$
