0:0:0
     RDKit          3D

 93101  0  0  1  0  0  0  0  0999 V2000
  -28.7700  -18.8040   19.5350 C   0  0  0  0  0  2  0  0  0  0  0  0
  -28.6470  -20.3430   19.3020 C   0  0  0  0  0  2  0  0  0  0  0  0
  -29.9740  -18.6320   20.4480 C   0  0  0  0  0  3  0  0  0  0  0  0
  -29.7330  -19.9430   21.3170 C   0  0  0  0  0  3  0  0  0  0  0  0
  -29.3900  -21.0570   20.3630 N   0  0  0  0  0  0  0  0  0  0  0  0
  -30.2080  -17.2240   21.2110 C   0  0  0  0  0  2  0  0  0  0  0  0
  -30.7120  -14.7680   20.3640 C   0  0  0  0  0  0  0  0  0  0  0  0
  -30.5350  -12.5080   19.3040 C   0  0  0  0  0  2  0  0  0  0  0  0
  -29.5920  -12.5760   18.0820 C   0  0  0  0  0  2  0  0  0  0  0  0
  -28.1180  -12.4120   18.5040 C   0  0  0  0  0  2  0  0  0  0  0  0
  -27.7420  -13.2960   19.7230 C   0  0  0  0  0  3  0  0  0  0  0  0
  -28.7970  -13.1930   20.8440 C   0  0  0  0  0  2  0  0  0  0  0  0
  -30.0930  -13.5470   20.2540 N   0  0  0  0  0  0  0  0  0  0  0  0
  -31.9050  -14.8980   20.0820 O   0  0  0  0  0  0  0  0  0  0  0  0
  -29.9040  -15.8600   20.6170 N   0  0  0  0  0  0  0  0  0  0  0  0
  -28.9230  -15.6270   20.6360 H   0  0  0  0  0  0  0  0  0  0  0  0
  -25.3480  -13.8850   20.4340 C   0  0  0  0  0  0  0  0  0  0  0  0
  -24.2840  -13.1110   20.8100 C   0  0  0  0  0  0  0  0  0  0  0  0
  -24.7530  -11.7620   20.7920 C   0  0  0  0  0  0  0  0  0  0  0  0
  -26.3970  -13.0070   20.2110 N   0  0  0  0  0  0  0  0  0  0  0  0
  -26.0460  -11.7260   20.4910 N   0  0  0  0  0  0  0  0  0  0  0  0
  -24.0300  -10.4990   20.9860 C   0  0  0  0  0  0  0  0  0  0  0  0
  -24.4530   -9.5410   21.9340 C   0  0  0  0  0  3  0  0  0  0  0  0
  -23.7290   -8.3430   22.1160 C   0  0  0  0  0  3  0  0  0  0  0  0
  -22.5660   -8.0940   21.3490 C   0  0  0  0  0  0  0  0  0  0  0  0
  -22.1620   -9.0380   20.3890 C   0  0  0  0  0  3  0  0  0  0  0  0
  -22.8880  -10.2280   20.2060 C   0  0  0  0  0  3  0  0  0  0  0  0
  -21.8130   -6.9460   21.4390 O   0  0  0  0  0  0  0  0  0  0  0  0
  -21.7420   -6.2230   22.6010 C   0  0  0  0  0  0  0  0  0  0  0  0
  -21.2790   -6.7910   23.8080 C   0  0  0  0  0  3  0  0  0  0  0  0
  -21.1560   -5.9930   24.9620 C   0  0  0  0  0  3  0  0  0  0  0  0
  -21.4880   -4.6250   24.9100 C   0  0  0  0  0  0  0  0  0  0  0  0
  -21.9480   -4.0560   23.7080 C   0  0  0  0  0  3  0  0  0  0  0  0
  -22.0720   -4.8540   22.5570 C   0  0  0  0  0  0  0  0  0  0  0  0
  -22.4920   -4.2960   21.3960 F   0  0  0  0  0  0  0  0  0  0  0  0
  -21.3650   -3.8540   26.0140 F   0  0  0  0  0  0  0  0  0  0  0  0
  -22.8840  -13.5830   21.0660 C   0  0  0  0  0  0  0  0  0  0  0  0
  -22.1480  -12.8930   21.9300 N   0  0  0  0  0  0  0  0  0  0  0  0
  -22.4460  -14.6030   20.5320 O   0  0  0  0  0  0  0  0  0  0  0  0
  -22.5100  -12.0680   22.3840 H   0  0  0  0  0  0  0  0  0  0  0  0
  -21.2090  -13.1990   22.1430 H   0  0  0  0  0  0  0  0  0  0  0  0
  -25.5020  -15.2540   20.2400 N   0  0  0  0  0  0  0  0  0  0  0  0
  -24.7120  -15.8880   20.3020 H   0  0  0  0  0  0  0  0  0  0  0  0
  -26.3260  -15.6910   19.8480 H   0  0  0  0  0  0  0  0  0  0  0  0
  -30.9290  -20.2870   22.2400 C   0  0  0  0  0  2  0  0  0  0  0  0
  -30.5220  -21.0930   23.4050 N   0  0  0  0  0  4  0  0  0  0  0  0
  -30.2190  -22.0020   23.1100 H   0  0  0  0  0  0  0  0  0  0  0  0
  -31.2960  -21.2040   24.0370 H   0  0  0  0  0  0  0  0  0  0  0  0
  -29.7730  -20.6450   23.9030 H   0  0  0  0  0  0  0  0  0  0  0  0
  -28.7020  -22.3270   20.8420 C   0  0  0  0  0  2  0  0  0  0  0  0
  -28.9700  -23.7580   20.1350 C   0  0  0  0  0  3  0  0  0  0  0  0
  -28.1030  -25.0220   20.6440 C   0  0  0  0  0  3  0  0  0  0  0  0
  -28.3640  -26.4410   20.2250 O   0  0  0  0  0  0  0  0  0  0  0  0
  -24.6210  -31.8940   23.2320 C   0  0  0  0  0  0  0  0  0  0  0  0
  -27.2660  -27.3250   20.1920 C   0  0  0  0  0  0  0  0  0  0  0  0
  -23.4350  -30.4890   21.5840 C   0  0  0  0  0  3  0  0  0  0  0  0
  -24.9020  -28.9450   20.1670 C   0  0  0  0  0  0  0  0  0  0  0  0
  -25.9770  -30.8140   21.4180 C   0  0  0  0  0  2  0  0  0  0  0  0
  -26.0670  -29.4350   20.7730 C   0  0  0  0  0  0  0  0  0  0  0  0
  -27.2540  -28.6360   20.7760 C   0  0  0  0  0  3  0  0  0  0  0  0
  -26.0870  -26.9120   19.5370 C   0  0  0  0  0  3  0  0  0  0  0  0
  -24.9150  -27.6920   19.5380 C   0  0  0  0  0  3  0  0  0  0  0  0
  -23.6610  -29.8150   20.2070 C   0  0  0  0  0  2  0  0  0  0  0  0
  -24.6950  -31.0850   22.1340 N   0  0  0  0  0  0  0  0  0  0  0  0
  -23.5320  -32.1650   23.7590 O   0  0  0  0  0  0  0  0  0  0  0  0
  -22.7730  -29.4680   22.5420 C   0  0  0  0  0  0  0  0  0  0  0  0
  -21.4460  -29.2940   22.4190 N   0  0  0  0  0  0  0  0  0  0  0  0
  -23.4530  -28.8370   23.3530 O   0  0  0  0  0  0  0  0  0  0  0  0
  -20.9520  -29.8640   21.7470 H   0  0  0  0  0  0  0  0  0  0  0  0
  -18.0680  -28.0960   22.9230 C   0  0  0  0  0  0  0  0  0  0  0  0
  -20.6300  -28.3500   23.1850 C   0  0  0  0  0  3  0  0  0  0  0  0
  -20.7270  -26.9220   22.5950 C   0  0  0  0  0  2  0  0  0  0  0  0
  -19.6190  -26.6100   21.5840 C   0  0  0  0  0  2  0  0  0  0  0  0
  -18.2400  -26.7530   22.2350 C   0  0  0  0  0  2  0  0  0  0  0  0
  -19.1920  -28.8530   23.3550 C   0  0  0  0  0  0  0  0  0  0  0  0
  -18.9770  -30.1100   23.9590 C   0  0  0  0  0  3  0  0  0  0  0  0
  -17.6750  -30.6140   24.1330 C   0  0  0  0  0  3  0  0  0  0  0  0
  -16.5670  -29.8550   23.7160 C   0  0  0  0  0  3  0  0  0  0  0  0
  -16.7650  -28.5980   23.1180 C   0  0  0  0  0  3  0  0  0  0  0  0
  -25.8970  -32.5340   23.8600 C   0  0  0  0  0  3  0  0  0  0  0  0
  -25.5780  -33.9330   24.1840 N   0  0  0  0  0  0  0  0  0  0  0  0
  -25.9110  -34.9860   23.4250 C   0  0  0  0  0  0  0  0  0  0  0  0
  -26.5880  -34.8830   22.3980 O   0  0  0  0  0  0  0  0  0  0  0  0
  -24.9760  -34.0860   24.9800 H   0  0  0  0  0  0  0  0  0  0  0  0
  -24.1820  -36.7740   23.0500 C   0  0  0  0  0  1  0  0  0  0  0  0
  -25.4160  -36.3740   23.8740 C   0  0  0  0  0  3  0  0  0  0  0  0
  -27.5390  -37.2640   24.7290 C   0  0  0  0  0  1  0  0  0  0  0  0
  -26.4470  -37.4290   23.7730 N   0  0  0  0  0  0  0  0  0  0  0  0
  -26.0360  -38.3470   23.9150 H   0  0  0  0  0  0  0  0  0  0  0  0
  -26.4050  -31.7700   25.1440 C   0  0  1  0  0  0  0  0  0  0  0  0
  -25.3030  -31.5350   26.2030 C   0  0  0  0  0  1  0  0  0  0  0  0
  -26.9940  -30.3900   24.7660 C   0  0  0  0  0  1  0  0  0  0  0  0
  -27.5490  -32.5680   25.8110 C   0  0  0  0  0  1  0  0  0  0  0  0
  1  3  1  0
  2  1  1  0
  2  5  1  0
  3  6  1  0
  3  4  1  0
  4 45  1  0
  5 50  1  0
  5  4  1  0
  7 15  1  0
  8 13  1  0
  9 10  1  0
  9  8  1  0
 11 10  1  0
 11 20  1  0
 11 12  1  0
 13  7  1  0
 13 12  1  0
 14  7  2  0
 15 16  1  0
 15  6  1  0
 17 18  2  0
 18 37  1  0
 19 18  1  0
 19 22  1  0
 20 17  1  0
 20 21  1  0
 21 19  2  0
 22 23  1  0
 23 24  2  0
 25 28  1  0
 25 24  1  0
 26 25  2  0
 27 26  1  0
 27 22  2  0
 28 29  1  0
 29 30  1  0
 30 31  2  0
 32 31  1  0
 32 36  1  0
 33 32  2  0
 34 29  2  0
 34 33  1  0
 35 34  1  0
 37 38  1  0
 38 41  1  0
 38 40  1  0
 39 37  2  0
 42 43  1  0
 42 17  1  0
 44 42  1  0
 45 46  1  0
 46 49  1  0
 46 48  1  0
 47 46  1  0
 51 52  2  0
 51 50  1  0
 53 52  1  0
 54 65  2  0
 55 53  1  0
 55 60  1  0
 56 64  1  0
 56 66  1  0
 57 63  1  0
 57 59  1  0
 58 64  1  0
 59 60  2  0
 59 58  1  0
 61 62  1  0
 61 55  2  0
 62 57  2  0
 63 56  1  0
 64 54  1  0
 66 68  2  0
 67 66  1  0
 69 67  1  0
 70 79  2  0
 70 75  1  0
 71 67  1  0
 71 75  1  0
 72 71  1  0
 73 74  1  0
 73 72  1  0
 74 70  1  0
 75 76  2  0
 76 77  1  0
 78 77  2  0
 79 78  1  0
 80 54  1  0
 80 81  1  0
 80 90  1  0
 81 84  1  0
 82 86  1  0
 82 81  1  0
 83 82  2  0
 86 85  1  0
 88 86  1  0
 88 89  1  0
 88 87  1  0
 90 93  1  1
 90 91  1  0
 92 90  1  0
M  ISO  4   7 100  15 100  52 101  53 101
M  END
>  <TORSDO>  (1) 
F 22

>  <SCORE>  (1) 
-13.471

>  <name>  (1) 
0

>  <ligand_id>  (1) 
0

>  <original_smiles>  (1) 
[H]c1c([H])c([H])c2c(c1[H])C([H])([H])C([H])([H])C([H])([H])C2([H])N([H])C(=O)C1([H])N(C(=O)C([H])(N([H])C(=O)C([H])(N([H])C([H])([H])[H])C([H])([H])[H])C(C([H])([H])[H])(C([H])([H])[H])C([H])([H])[H])C([H])([H])c2c([H])c(OC([H])([H])C([H])([H])C([H])([H])N3C([H])([H])C([H])([H])C([H])(C([H])([H])N([H])C(=O)N4C([H])([H])C([H])([H])C([H])([H])C([H])(n5nc(-c6c([H])c([H])c(Oc7c([H])c([H])c(F)c([H])c7F)c([H])c6[H])c(C(=O)N([H])[H])c5N([H])[H])C4([H])[H])C3([H])C([H])([H])[N+]([H])([H])[H])c([H])c([H])c2C1([H])[H]

>  <smiles>  (1) 
[H]c1c([H])c([H])c2c(c1[H])C([H])([H])C([H])([H])C([H])([H])C2([H])N([H])C(=O)C1([H])N(C(=O)C([H])(N([H])C(=O)C([H])(N([H])C([H])([H])[H])C([H])([H])[H])C(C([H])([H])[H])(C([H])([H])[H])C([H])([H])[H])C([H])([H])c2c([H])c(OC([H])([H])C([H])([H])C([H])([H])N3C([H])([H])C([H])([H])C([H])(C([H])([H])N([H])C(=O)N4C([H])([H])C([H])([H])C([H])([H])C([H])(n5nc(-c6c([H])c([H])c(Oc7c([H])c([H])c(F)c([H])c7F)c([H])c6[H])c(C(=O)N([H])[H])c5N([H])[H])C4([H])[H])C3([H])C([H])([H])[N+]([H])([H])[H])c([H])c([H])c2C1([H])[H]

$$$$
1:0:0
     RDKit          3D

 97105  0  0  1  0  0  0  0  0999 V2000
  -29.7490  -21.0330   20.1540 C   0  0  0  0  0  0  0  0  0  0  0  0
  -28.9840  -21.6890   20.8660 O   0  0  0  0  0  0  0  0  0  0  0  0
  -29.8620  -18.4450   19.7910 C   0  0  0  0  0  2  0  0  0  0  0  0
  -30.3830  -19.7020   20.5190 C   0  0  0  0  0  3  0  0  0  0  0  0
  -29.9760  -17.6360   21.1040 C   0  0  0  0  0  3  0  0  0  0  0  0
  -29.9250  -19.0180   21.8230 C   0  0  0  0  0  3  0  0  0  0  0  0
  -30.8010  -19.2120   23.0040 N   0  0  0  0  0  4  0  0  0  0  0  0
  -31.7750  -19.1060   22.7860 H   0  0  0  0  0  0  0  0  0  0  0  0
  -30.5730  -18.5720   23.7440 H   0  0  0  0  0  0  0  0  0  0  0  0
  -30.6750  -20.1350   23.3840 H   0  0  0  0  0  0  0  0  0  0  0  0
  -31.1550  -16.6440   21.2410 C   0  0  0  0  0  2  0  0  0  0  0  0
  -31.3370  -14.3790   20.0760 C   0  0  0  0  0  0  0  0  0  0  0  0
  -30.9240  -12.2560   18.8690 C   0  0  0  0  0  2  0  0  0  0  0  0
  -29.9360  -12.4850   17.7020 C   0  0  0  0  0  2  0  0  0  0  0  0
  -28.4720  -12.4270   18.1860 C   0  0  0  0  0  2  0  0  0  0  0  0
  -28.2270  -13.2900   19.4540 C   0  0  0  0  0  3  0  0  0  0  0  0
  -29.2930  -12.9680   20.5210 C   0  0  0  0  0  2  0  0  0  0  0  0
  -30.6200  -13.2320   19.9250 N   0  0  0  0  0  0  0  0  0  0  0  0
  -32.4050  -14.5940   19.4930 O   0  0  0  0  0  0  0  0  0  0  0  0
  -30.7410  -15.2850   20.8710 N   0  0  0  0  0  0  0  0  0  0  0  0
  -29.8630  -14.9720   21.2590 H   0  0  0  0  0  0  0  0  0  0  0  0
  -25.8980  -14.0670   20.2390 C   0  0  0  0  0  0  0  0  0  0  0  0
  -24.7940  -13.3650   20.6470 C   0  0  0  0  0  0  0  0  0  0  0  0
  -25.1620  -11.9850   20.6000 C   0  0  0  0  0  0  0  0  0  0  0  0
  -26.8720  -13.1140   19.9710 N   0  0  0  0  0  0  0  0  0  0  0  0
  -26.4310  -11.8590   20.2380 N   0  0  0  0  0  0  0  0  0  0  0  0
  -24.3630  -10.7720   20.8200 C   0  0  0  0  0  0  0  0  0  0  0  0
  -24.7260   -9.8160   21.7940 C   0  0  0  0  0  3  0  0  0  0  0  0
  -23.9300   -8.6680   21.9980 C   0  0  0  0  0  3  0  0  0  0  0  0
  -22.7570   -8.4720   21.2310 C   0  0  0  0  0  0  0  0  0  0  0  0
  -22.4150   -9.4160   20.2480 C   0  0  0  0  0  3  0  0  0  0  0  0
  -23.2110  -10.5560   20.0410 C   0  0  0  0  0  3  0  0  0  0  0  0
  -21.9390   -7.3740   21.3420 O   0  0  0  0  0  0  0  0  0  0  0  0
  -21.7700   -6.7220   22.5380 C   0  0  0  0  0  0  0  0  0  0  0  0
  -21.2820   -7.3840   23.6870 C   0  0  0  0  0  3  0  0  0  0  0  0
  -21.0550   -6.6580   24.8730 C   0  0  0  0  0  3  0  0  0  0  0  0
  -21.3100   -5.2730   24.9140 C   0  0  0  0  0  0  0  0  0  0  0  0
  -21.7910   -4.6140   23.7690 C   0  0  0  0  0  3  0  0  0  0  0  0
  -22.0170   -5.3360   22.5850 C   0  0  0  0  0  0  0  0  0  0  0  0
  -22.4600   -4.6920   21.4780 F   0  0  0  0  0  0  0  0  0  0  0  0
  -21.0900   -4.5730   26.0510 F   0  0  0  0  0  0  0  0  0  0  0  0
  -23.4410  -13.9340   20.9720 C   0  0  0  0  0  0  0  0  0  0  0  0
  -22.7080  -13.2920   21.8770 N   0  0  0  0  0  0  0  0  0  0  0  0
  -23.0470  -14.9780   20.4560 O   0  0  0  0  0  0  0  0  0  0  0  0
  -23.0400  -12.4470   22.3160 H   0  0  0  0  0  0  0  0  0  0  0  0
  -21.7990  -13.6530   22.1270 H   0  0  0  0  0  0  0  0  0  0  0  0
  -26.1470  -15.4230   20.0530 N   0  0  0  0  0  0  0  0  0  0  0  0
  -25.4350  -16.1310   20.2000 H   0  0  0  0  0  0  0  0  0  0  0  0
  -26.9940  -15.8030   19.6500 H   0  0  0  0  0  0  0  0  0  0  0  0
  -30.1030  -21.5670   18.7580 C   0  0  0  0  0  2  0  0  0  0  0  0
  -30.5420  -23.0540   18.6900 C   0  0  0  0  0  2  0  0  0  0  0  0
  -29.4610  -24.0560   18.8910 N   0  0  0  0  0  4  0  0  0  0  0  0
  -29.0820  -23.9410   19.8200 H   0  0  0  0  0  0  0  0  0  0  0  0
  -28.7230  -23.8690   18.2310 H   0  0  0  0  0  0  0  0  0  0  0  0
  -29.9180  -25.4610   18.7040 C   0  0  0  0  0  2  0  0  0  0  0  0
  -28.7670  -26.4830   18.6610 C   0  0  0  0  0  2  0  0  0  0  0  0
  -28.3220  -26.8000   19.9820 O   0  0  0  0  0  0  0  0  0  0  0  0
  -24.6290  -31.9260   23.2780 C   0  0  0  0  0  0  0  0  0  0  0  0
  -27.1570  -27.5270   20.0440 C   0  0  0  0  0  0  0  0  0  0  0  0
  -23.3680  -30.5610   21.6460 C   0  0  0  0  0  3  0  0  0  0  0  0
  -24.7710  -29.0320   20.1640 C   0  0  0  0  0  0  0  0  0  0  0  0
  -25.8900  -30.8990   21.3930 C   0  0  0  0  0  2  0  0  0  0  0  0
  -25.9460  -29.5370   20.7340 C   0  0  0  0  0  0  0  0  0  0  0  0
  -27.1390  -28.7830   20.6890 C   0  0  0  0  0  3  0  0  0  0  0  0
  -25.9600  -27.0200   19.4920 C   0  0  0  0  0  3  0  0  0  0  0  0
  -24.7700  -27.7690   19.5470 C   0  0  0  0  0  3  0  0  0  0  0  0
  -23.5370  -29.8990   20.2510 C   0  0  0  0  0  2  0  0  0  0  0  0
  -24.6480  -31.1430   22.1640 N   0  0  0  0  0  0  0  0  0  0  0  0
  -23.5650  -32.2020   23.8470 O   0  0  0  0  0  0  0  0  0  0  0  0
  -22.7310  -29.5310   22.6070 C   0  0  0  0  0  0  0  0  0  0  0  0
  -21.4130  -29.3170   22.4660 N   0  0  0  0  0  0  0  0  0  0  0  0
  -23.4210  -28.9270   23.4330 O   0  0  0  0  0  0  0  0  0  0  0  0
  -20.9180  -29.8610   21.7730 H   0  0  0  0  0  0  0  0  0  0  0  0
  -18.0750  -28.0020   22.8810 C   0  0  0  0  0  0  0  0  0  0  0  0
  -20.6100  -28.3660   23.2330 C   0  0  0  0  0  3  0  0  0  0  0  0
  -20.7870  -26.9270   22.6970 C   0  0  0  0  0  2  0  0  0  0  0  0
  -19.7330  -26.5360   21.6550 C   0  0  0  0  0  2  0  0  0  0  0  0
  -18.3260  -26.6430   22.2490 C   0  0  0  0  0  2  0  0  0  0  0  0
  -19.1480  -28.8160   23.3280 C   0  0  0  0  0  0  0  0  0  0  0  0
  -18.8600  -30.0870   23.8760 C   0  0  0  0  0  3  0  0  0  0  0  0
  -17.5330  -30.5400   23.9830 C   0  0  0  0  0  3  0  0  0  0  0  0
  -16.4740  -29.7220   23.5540 C   0  0  0  0  0  3  0  0  0  0  0  0
  -16.7450  -28.4550   23.0070 C   0  0  0  0  0  3  0  0  0  0  0  0
  -25.9370  -32.5350   23.8740 C   0  0  0  0  0  3  0  0  0  0  0  0
  -25.6640  -33.9400   24.1990 N   0  0  0  0  0  0  0  0  0  0  0  0
  -26.0080  -34.9800   23.4290 C   0  0  0  0  0  0  0  0  0  0  0  0
  -26.6620  -34.8550   22.3890 O   0  0  0  0  0  0  0  0  0  0  0  0
  -25.0820  -34.1140   25.0060 H   0  0  0  0  0  0  0  0  0  0  0  0
  -24.3060  -36.7990   23.0910 C   0  0  0  0  0  1  0  0  0  0  0  0
  -25.5550  -36.3790   23.8830 C   0  0  0  0  0  3  0  0  0  0  0  0
  -27.7210  -37.2300   24.6680 C   0  0  0  0  0  1  0  0  0  0  0  0
  -26.6040  -37.4120   23.7430 N   0  0  0  0  0  0  0  0  0  0  0  0
  -26.2180  -38.3400   23.8910 H   0  0  0  0  0  0  0  0  0  0  0  0
  -26.4630  -31.7570   25.1430 C   0  0  1  0  0  0  0  0  0  0  0  0
  -25.3810  -31.5340   26.2240 C   0  0  0  0  0  1  0  0  0  0  0  0
  -27.0250  -30.3740   24.7420 C   0  0  0  0  0  1  0  0  0  0  0  0
  -27.6320  -32.5390   25.7890 C   0  0  0  0  0  1  0  0  0  0  0  0
  1  2  2  0
  3  4  1  0
  3  5  1  0
  4  1  1  0
  4  6  1  0
  5 11  1  0
  5  6  1  0
  6  7  1  0
  7 10  1  0
  7  9  1  0
  8  7  1  0
 12 20  1  0
 13 18  1  0
 14 15  1  0
 14 13  1  0
 16 15  1  0
 16 25  1  0
 16 17  1  0
 18 12  1  0
 18 17  1  0
 19 12  2  0
 20 11  1  0
 20 21  1  0
 22 23  2  0
 23 42  1  0
 24 23  1  0
 24 27  1  0
 25 26  1  0
 25 22  1  0
 26 24  2  0
 27 28  1  0
 28 29  2  0
 30 33  1  0
 30 29  1  0
 31 30  2  0
 32 31  1  0
 32 27  2  0
 33 34  1  0
 34 39  2  0
 34 35  1  0
 35 36  2  0
 36 37  1  0
 37 41  1  0
 38 37  2  0
 39 38  1  0
 40 39  1  0
 42 43  1  0
 43 46  1  0
 43 45  1  0
 44 42  2  0
 47 48  1  0
 47 22  1  0
 49 47  1  0
 50  1  1  0
 51 50  1  0
 51 52  1  0
 52 53  1  0
 54 52  1  0
 55 52  1  0
 56 55  1  0
 56 57  1  0
 57 59  1  0
 58 69  2  0
 59 64  1  0
 60 68  1  0
 60 70  1  0
 61 67  1  0
 61 63  1  0
 62 68  1  0
 63 62  1  0
 64 63  2  0
 65 66  1  0
 65 59  2  0
 66 61  2  0
 67 60  1  0
 68 58  1  0
 70 72  2  0
 71 70  1  0
 73 71  1  0
 74 83  2  0
 74 79  1  0
 75 71  1  0
 75 79  1  0
 76 75  1  0
 77 78  1  0
 77 76  1  0
 78 74  1  0
 79 80  2  0
 80 81  1  0
 82 81  2  0
 83 82  1  0
 84 58  1  0
 84 85  1  0
 84 94  1  0
 85 88  1  0
 86 90  1  0
 86 85  1  0
 87 86  2  0
 90 89  1  0
 92 90  1  0
 92 93  1  0
 92 91  1  0
 94 97  1  1
 94 95  1  0
 96 94  1  0
M  ISO  4  12 100  20 100  56 101  57 101
M  END
>  <TORSDO>  (2) 
F 24

>  <SCORE>  (2) 
-11.787

>  <name>  (2) 
1

>  <ligand_id>  (2) 
1

>  <original_smiles>  (2) 
[H]c1c([H])c([H])c2c(c1[H])C([H])([H])C([H])([H])C([H])([H])C2([H])N([H])C(=O)C1([H])N(C(=O)C([H])(N([H])C(=O)C([H])(N([H])C([H])([H])[H])C([H])([H])[H])C(C([H])([H])[H])(C([H])([H])[H])C([H])([H])[H])C([H])([H])c2c([H])c(OC([H])([H])C([H])([H])[N+]([H])([H])C([H])([H])C([H])([H])C(=O)C3([H])C([H])([H])C([H])(C([H])([H])N([H])C(=O)N4C([H])([H])C([H])([H])C([H])([H])C([H])(n5nc(-c6c([H])c([H])c(Oc7c([H])c([H])c(F)c([H])c7F)c([H])c6[H])c(C(=O)N([H])[H])c5N([H])[H])C4([H])[H])C3([H])[N+]([H])([H])[H])c([H])c([H])c2C1([H])[H]

>  <smiles>  (2) 
[H]c1c([H])c([H])c2c(c1[H])C([H])([H])C([H])([H])C([H])([H])C2([H])N([H])C(=O)C1([H])N(C(=O)C([H])(N([H])C(=O)C([H])(N([H])C([H])([H])[H])C([H])([H])[H])C(C([H])([H])[H])(C([H])([H])[H])C([H])([H])[H])C([H])([H])c2c([H])c(OC([H])([H])C([H])([H])[N+]([H])([H])C([H])([H])C([H])([H])C(=O)C3([H])C([H])([H])C([H])(C([H])([H])N([H])C(=O)N4C([H])([H])C([H])([H])C([H])([H])C([H])(n5nc(-c6c([H])c([H])c(Oc7c([H])c([H])c(F)c([H])c7F)c([H])c6[H])c(C(=O)N([H])[H])c5N([H])[H])C4([H])[H])C3([H])[N+]([H])([H])[H])c([H])c([H])c2C1([H])[H]

$$$$
2:0:0
     RDKit          3D

 94 89  0  0  1  0  0  0  0  0999 V2000
  -23.0900  -23.3430   21.2390 C   0  0  0  0  0 15  0  0  0  0  0  0
  -21.6480  -26.7010   19.5260 C   0  0  0  0  0  2  0  0  0  0  0  0
  -24.3550  -24.0680   19.2570 C   0  0  0  0  0  1  0  0  0  0  0  0
  -24.9100  -22.0710   20.1710 C   0  0  0  0  0 15  0  0  0  0  0  0
  -21.5720  -25.6520   21.4530 C   0  0  0  0  0  1  0  0  0  0  0  0
  -23.1120  -26.0810   19.0930 C   0  0  0  0  0  1  0  0  0  0  0  0
  -22.0840  -27.0860   20.3250 N   0  0  2  0  0  4  0  0  0  0  0  0
  -22.9950  -27.2440   20.7320 H   0  0  0  0  0  0  0  0  0  0  0  0
  -28.1260  -18.2150   19.7930 C   0  0  0  0  0  2  0  0  0  0  0  0
  -29.8850  -15.4990   18.8730 C   0  0  0  0  0  2  0  0  0  0  0  0
  -29.7780  -14.0530   18.0250 C   0  0  0  0  0  2  0  0  0  0  0  0
  -28.7780  -13.0570   18.5950 C   0  0  0  0  0  2  0  0  0  0  0  0
  -27.8940  -14.0140   19.3720 C   0  0  0  0  0  3  0  0  0  0  0  0
  -28.4950  -15.0940   20.3630 C   0  0  0  0  0  2  0  0  0  0  0  0
  -28.6060  -16.4730   19.6010 N   0  0  0  0  0  0  0  0  0  0  0  0
  -29.4790  -18.1570   19.6530 O   0  0  0  0  0  1  0  0  0  0  0  0
  -26.5600  -19.8240   19.9760 N   0  0  0  0  0  1  0  0  0  0  0  0
  -25.8060  -19.1450   20.0030 H   0  0  0  0  0  0  0  0  0  0  0  0
  -25.6970  -14.4380   20.2220 C   0  0  0  0  0  0  0  0  0  0  0  0
  -24.7030  -13.6610   20.6800 C   0  0  0  0  0  0  0  0  0  0  0  0
  -25.1560  -12.3100   20.5510 C   0  0  0  0  0  0  0  0  0  0  0  0
  -26.6900  -13.5550   19.8940 N   0  0  0  0  0  0  0  0  0  0  0  0
  -26.4120  -12.2570   20.1220 N   0  0  0  0  0  0  0  0  0  0  0  0
  -24.4180  -11.0720   20.7410 C   0  0  0  0  0  0  0  0  0  0  0  0
  -24.8280  -10.1000   21.6770 C   0  0  0  0  0  3  0  0  0  0  0  0
  -24.0570   -8.9340   21.8600 C   0  0  0  0  0  3  0  0  0  0  0  0
  -22.8730   -8.7430   21.1090 C   0  0  0  0  0  0  0  0  0  0  0  0
  -22.4920   -9.7040   20.1590 C   0  0  0  0  0  3  0  0  0  0  0  0
  -23.2600  -10.8590   19.9700 C   0  0  0  0  0  3  0  0  0  0  0  0
  -22.0710   -7.6340   21.2070 O   0  0  0  0  0  0  0  0  0  0  0  0
  -21.9080   -6.9750   22.3970 C   0  0  0  0  0  0  0  0  0  0  0  0
  -21.3900   -7.6190   23.5420 C   0  0  0  0  0  3  0  0  0  0  0  0
  -21.1730   -6.8820   24.7230 C   0  0  0  0  0  3  0  0  0  0  0  0
  -21.4650   -5.5050   24.7580 C   0  0  0  0  0  0  0  0  0  0  0  0
  -21.9790   -4.8630   23.6170 C   0  0  0  0  0  3  0  0  0  0  0  0
  -22.1970   -5.5970   22.4390 C   0  0  0  0  0  0  0  0  0  0  0  0
  -22.6720   -4.9720   21.3350 F   0  0  0  0  0  0  0  0  0  0  0  0
  -21.2480   -4.7950   25.8900 F   0  0  0  0  0  0  0  0  0  0  0  0
  -23.3730  -14.1850   21.0890 C   0  0  0  0  0  0  0  0  0  0  0  0
  -22.7170  -13.5060   22.0150 N   0  0  0  0  0  0  0  0  0  0  0  0
  -22.9480  -15.2490   20.6340 O   0  0  0  0  0  0  0  0  0  0  0  0
  -23.0910  -12.6500   22.3990 H   0  0  0  0  0  0  0  0  0  0  0  0
  -21.8230  -13.8410   22.3470 H   0  0  0  0  0  0  0  0  0  0  0  0
  -25.8210  -15.8160   20.0360 N   0  0  0  0  0  0  0  0  0  0  0  0
  -24.9980  -16.4070   20.0790 H   0  0  0  0  0  0  0  0  0  0  0  0
  -26.5540  -16.1680   19.4360 H   0  0  0  0  0  0  0  0  0  0  0  0
  -24.5320  -23.7210   17.7750 C   0  0  0  0  0  2  0  0  0  0  0  0
  -24.8540  -24.8120   17.0780 F   0  0  0  0  0  0  0  0  0  0  0  0
  -21.8760  -28.8500   20.9780 C   0  0  0  0  0  2  0  0  0  0  0  0
  -21.9700  -28.5960   24.7580 C   0  0  0  0  0  1  0  0  0  0  0  0
  -22.4080  -30.7010   23.9880 C   0  0  0  0  0  1  0  0  0  0  0  0
  -22.6460  -29.2280   23.3970 C   0  0  0  0  0  2  0  0  0  0  0  0
  -24.6050  -28.4520   23.8660 C   0  0  0  0  0 15  0  0  0  0  0  0
  -25.8270  -27.1830   23.1810 O   0  0  0  0  0  1  0  0  0  0  0  0
  -25.2960  -31.5820   22.3460 C   0  0  0  0  0  0  0  0  0  0  0  0
  -26.7190  -26.8870   22.0470 C   0  0  0  0  0  3  0  0  0  0  0  0
  -24.6100  -29.8340   20.5610 C   0  0  0  0  0  3  0  0  0  0  0  0
  -26.0060  -28.0860   19.9040 C   0  0  0  0  0  3  0  0  0  0  0  0
  -26.9230  -30.1700   21.0760 C   0  0  0  0  0  2  0  0  0  0  0  0
  -26.9510  -28.6860   20.7760 C   0  0  0  0  0  3  0  0  0  0  0  0
  -27.6010  -27.8880   21.6890 C   0  0  0  0  0  2  0  0  0  0  0  0
  -26.3040  -26.0160   20.9910 C   0  0  0  0  0  2  0  0  0  0  0  0
  -25.7890  -26.6960   19.8830 C   0  0  0  0  0  2  0  0  0  0  0  0
  -25.0190  -29.0220   19.3710 C   0  0  0  0  0  2  0  0  0  0  0  0
  -25.5790  -30.5610   21.4450 N   0  0  0  0  0  0  0  0  0  0  0  0
  -24.1770  -32.0940   22.4570 O   0  0  0  0  0  0  0  0  0  0  0  0
  -23.7800  -28.8660   21.3270 C   0  0  0  0  0  3  0  0  0  0  0  0
  -23.5960  -27.4680   21.9560 N   0  0  0  0  0  2  0  0  0  0  0  0
  -22.9850  -29.7360   21.3780 O   0  0  0  0  0  0  0  0  0  0  0  0
  -24.4840  -26.9680   21.8900 H   0  0  0  0  0  0  0  0  0  0  0  0
  -19.0180  -26.3970   22.1560 C   0  0  0  0  0  0  0  0  0  0  0  0
  -22.3980  -26.7600   23.3080 C   0  0  0  0  0 15  0  0  0  0  0  0
  -23.1750  -24.9110   23.0100 C   0  0  0  0  0 15  0  0  0  0  0  0
  -21.0490  -23.1200   21.8860 C   0  0  0  0  0 15  0  0  0  0  0  0
  -19.1580  -24.5070   21.7180 C   0  0  0  0  0  1  0  0  0  0  0  0
  -20.0780  -27.2510   23.1020 C   0  0  0  0  0  3  0  0  0  0  0  0
  -19.4420  -28.7000   22.9630 C   0  0  0  0  0  3  0  0  0  0  0  0
  -18.3170  -29.3470   22.2700 C   0  0  0  0  0  3  0  0  0  0  0  0
  -17.4450  -28.5400   21.5540 C   0  0  0  0  0  3  0  0  0  0  0  0
  -17.8200  -27.1410   21.5440 C   0  0  0  0  0  3  0  0  0  0  0  0
  -26.4130  -32.2550   23.2200 C   0  0  0  0  0  3  0  0  0  0  0  0
  -27.0570  -31.3850   24.3760 C   0  0  1  0  0  0  0  0  0  0  0  0
  -26.0460  -30.7230   25.3420 C   0  0  0  0  0  1  0  0  0  0  0  0
  -28.0210  -30.3170   23.8050 C   0  0  0  0  0  1  0  0  0  0  0  0
  -27.9640  -32.2930   25.2450 C   0  0  0  0  0  1  0  0  0  0  0  0
  -25.8380  -33.4800   23.7930 N   0  0  0  0  0  0  0  0  0  0  0  0
  -25.9760  -34.6930   23.2470 C   0  0  0  0  0  0  0  0  0  0  0  0
  -26.6570  -34.8880   22.2350 O   0  0  0  0  0  0  0  0  0  0  0  0
  -25.2260  -33.3730   24.5900 H   0  0  0  0  0  0  0  0  0  0  0  0
  -23.9330  -36.1530   23.2090 C   0  0  0  0  0  1  0  0  0  0  0  0
  -25.2640  -35.8740   23.9270 C   0  0  0  0  0  3  0  0  0  0  0  0
  -27.2360  -37.0130   24.8480 C   0  0  0  0  0  1  0  0  0  0  0  0
  -26.0800  -37.1070   23.9600 N   0  0  0  0  0  0  0  0  0  0  0  0
  -25.5190  -37.9030   24.2550 H   0  0  0  0  0  0  0  0  0  0  0  0
  2  7  1  0
  6  2  1  0
  7  8  1  6
  7 49  1  0
  7  5  1  0
 10 15  1  0
 11 12  1  0
 11 10  1  0
 13 12  1  0
 13 22  1  0
 13 14  1  0
 15  9  1  0
 15 14  1  0
 16  9  1  0
 17 18  1  0
 19 20  2  0
 20 39  1  0
 21 20  1  0
 21 24  1  0
 22 23  1  0
 22 19  1  0
 23 21  2  0
 24 25  1  0
 25 26  2  0
 27 30  1  0
 27 26  1  0
 28 27  2  0
 29 28  1  0
 29 24  2  0
 30 31  1  0
 31 36  2  0
 31 32  1  0
 32 33  2  0
 33 34  1  0
 34 38  1  0
 35 34  2  0
 36 35  1  0
 37 36  1  0
 39 40  1  0
 40 43  1  0
 40 42  1  0
 41 39  2  0
 44 45  1  0
 44 19  1  0
 46 44  1  0
 47  3  1  0
 48 47  1  0
 49 69  1  0
 52 51  1  0
 52 50  1  0
 55 66  2  0
 56 54  1  0
 57 67  1  0
 57 65  1  0
 58 64  1  0
 58 60  1  0
 59 65  1  0
 60 59  1  0
 60 61  1  0
 61 56  1  0
 62 56  1  0
 63 58  1  0
 63 62  1  0
 64 57  1  0
 65 55  1  0
 67 69  1  0
 67 68  1  0
 70 68  1  0
 71 76  1  0
 75 71  1  0
 77 76  2  0
 78 77  1  0
 79 78  2  0
 80 79  1  0
 80 71  2  0
 81 55  1  0
 81 86  1  0
 81 82  1  0
 82 85  1  1
 82 83  1  0
 84 82  1  0
 86 89  1  0
 87 86  1  0
 87 91  1  0
 88 87  2  0
 91 90  1  0
 91 93  1  0
 93 94  1  0
 93 92  1  0
M  ISO  4   9 100  17 100  53 101  54 101
M  END
>  <TORSDO>  (3) 
F 20

>  <SCORE>  (3) 
-6.210

>  <name>  (3) 
2

>  <ligand_id>  (3) 
2

>  <original_smiles>  (3) 
[H]c1c([H])c([H])c2c(c1[H])C([H])([H])C([H])([H])C([H])([H])C2([H])N([H])C(=O)C1([H])N(C(=O)C([H])(N([H])C(=O)C([H])(N([H])C([H])([H])[H])C([H])([H])[H])C(C([H])([H])[H])(C([H])([H])[H])C([H])([H])[H])C([H])([H])c2c([H])c(OC([H])([H])C(C([H])([H])[H])(C([H])([H])[H])C([H])([H])[N+]3([H])C4([H])C([H])([H])C([H])(N([H])C(=O)N5C([H])([H])C([H])([H])C([H])([H])C([H])(n6nc(-c7c([H])c([H])c(Oc8c([H])c([H])c(F)c([H])c8F)c([H])c7[H])c(C(=O)N([H])[H])c6N([H])[H])C5([H])[H])C([H])(C([H])([H])F)C3([H])C4([H])[H])c([H])c([H])c2C1([H])[H]

>  <smiles>  (3) 
[H]c1c([H])c([H])c2c(c1[H])C([H])([H])C([H])([H])C([H])([H])C2([H])N([H])C(=O)C1([H])N(C(=O)C([H])(N([H])C(=O)C([H])(N([H])C([H])([H])[H])C([H])([H])[H])C(C([H])([H])[H])(C([H])([H])[H])C([H])([H])[H])C([H])([H])c2c([H])c(OC([H])([H])C(C([H])([H])[H])(C([H])([H])[H])C([H])([H])[N+]3([H])C4([H])C([H])([H])C([H])(N([H])C(=O)N5C([H])([H])C([H])([H])C([H])([H])C([H])(n6nc(-c7c([H])c([H])c(Oc8c([H])c([H])c(F)c([H])c8F)c([H])c7[H])c(C(=O)N([H])[H])c6N([H])[H])C5([H])[H])C([H])(C([H])([H])F)C3([H])C4([H])[H])c([H])c([H])c2C1([H])[H]

$$$$
3:0:0
     RDKit          3D

 94102  0  0  1  0  0  0  0  0999 V2000
  -27.7310  -21.6360   20.1950 C   0  0  0  0  0  3  0  0  0  0  0  0
  -28.1830  -20.2240   20.2350 C   0  0  0  0  0  3  0  0  0  0  0  0
  -29.8730  -22.3910   20.5440 C   0  0  0  0  0  3  0  0  0  0  0  0
  -28.5190  -22.8600   20.3240 C   0  0  0  0  0  0  0  0  0  0  0  0
  -29.5380  -19.7490   20.4260 C   0  0  0  0  0  0  0  0  0  0  0  0
  -30.3400  -20.9750   20.5940 C   0  0  0  0  0  0  0  0  0  0  0  0
  -31.8370  -20.7990   20.7950 C   0  0  0  0  0  1  0  0  0  0  0  0
  -27.8180  -24.4310   20.0860 C   0  0  0  0  0  2  0  0  0  0  0  0
  -28.2040  -25.9910   20.3240 O   0  0  0  0  0  0  0  0  0  0  0  0
  -24.6000  -31.9140   23.2330 C   0  0  0  0  0  0  0  0  0  0  0  0
  -27.2050  -27.0850   20.2370 C   0  0  0  0  0  0  0  0  0  0  0  0
  -23.4220  -30.5030   21.5960 C   0  0  0  0  0  3  0  0  0  0  0  0
  -24.8890  -28.9210   20.1790 C   0  0  0  0  0  0  0  0  0  0  0  0
  -25.9840  -30.7490   21.4530 C   0  0  0  0  0  2  0  0  0  0  0  0
  -26.0700  -29.3430   20.8020 C   0  0  0  0  0  0  0  0  0  0  0  0
  -27.2240  -28.4440   20.8100 C   0  0  0  0  0  3  0  0  0  0  0  0
  -25.9950  -26.8140   19.5560 C   0  0  0  0  0  3  0  0  0  0  0  0
  -24.8740  -27.6770   19.5350 C   0  0  0  0  0  3  0  0  0  0  0  0
  -23.6590  -29.8230   20.2220 C   0  0  0  0  0  2  0  0  0  0  0  0
  -24.6900  -31.0820   22.1480 N   0  0  0  0  0  0  0  0  0  0  0  0
  -23.5080  -32.1950   23.7530 O   0  0  0  0  0  0  0  0  0  0  0  0
  -22.7390  -29.5000   22.5620 C   0  0  0  0  0  0  0  0  0  0  0  0
  -21.4100  -29.3220   22.4360 N   0  0  0  0  0  0  0  0  0  0  0  0
  -23.4090  -28.8820   23.3920 O   0  0  0  0  0  0  0  0  0  0  0  0
  -20.9210  -29.8730   21.7440 H   0  0  0  0  0  0  0  0  0  0  0  0
  -18.0350  -28.0980   22.9540 C   0  0  0  0  0  0  0  0  0  0  0  0
  -20.5940  -28.3800   23.2100 C   0  0  0  0  0  3  0  0  0  0  0  0
  -20.7030  -26.9490   22.6360 C   0  0  0  0  0  2  0  0  0  0  0  0
  -19.6000  -26.6180   21.6250 C   0  0  0  0  0  2  0  0  0  0  0  0
  -18.2190  -26.7510   22.2730 C   0  0  0  0  0  2  0  0  0  0  0  0
  -19.1500  -28.8690   23.3780 C   0  0  0  0  0  0  0  0  0  0  0  0
  -18.9210  -30.1270   23.9770 C   0  0  0  0  0  3  0  0  0  0  0  0
  -17.6120  -30.6140   24.1540 C   0  0  0  0  0  3  0  0  0  0  0  0
  -16.5130  -29.8400   23.7420 C   0  0  0  0  0  3  0  0  0  0  0  0
  -16.7250  -28.5830   23.1490 C   0  0  0  0  0  3  0  0  0  0  0  0
  -25.8660  -32.5700   23.8650 C   0  0  0  0  0  3  0  0  0  0  0  0
  -25.5430  -33.9740   24.1710 N   0  0  0  0  0  0  0  0  0  0  0  0
  -25.8870  -35.0240   23.4140 C   0  0  0  0  0  0  0  0  0  0  0  0
  -26.5730  -34.9130   22.3950 O   0  0  0  0  0  0  0  0  0  0  0  0
  -24.9360  -34.1330   24.9630 H   0  0  0  0  0  0  0  0  0  0  0  0
  -24.1800  -36.8310   23.0060 C   0  0  0  0  0  1  0  0  0  0  0  0
  -25.3940  -36.4180   23.8550 C   0  0  0  0  0  3  0  0  0  0  0  0
  -27.5030  -37.3010   24.7520 C   0  0  0  0  0  1  0  0  0  0  0  0
  -26.4350  -37.4660   23.7710 N   0  0  0  0  0  0  0  0  0  0  0  0
  -26.0280  -38.3890   23.8970 H   0  0  0  0  0  0  0  0  0  0  0  0
  -26.3610  -31.8280   25.1670 C   0  0  1  0  0  0  0  0  0  0  0  0
  -25.2500  -31.6120   26.2220 C   0  0  0  0  0  1  0  0  0  0  0  0
  -26.9540  -30.4430   24.8230 C   0  0  0  0  0  1  0  0  0  0  0  0
  -27.4980  -32.6410   25.8310 C   0  0  0  0  0  1  0  0  0  0  0  0
  -30.2010  -18.1600   20.1450 C   0  0  0  0  0  0  0  0  0  0  0  0
  -30.5500  -15.3190   20.4920 C   0  0  0  0  0  0  0  0  0  0  0  0
  -30.4940  -12.9110   19.5780 C   0  0  0  0  0  2  0  0  0  0  0  0
  -29.6020  -12.7650   18.3220 C   0  0  0  0  0  2  0  0  0  0  0  0
  -28.1390  -12.5100   18.7240 C   0  0  0  0  0  2  0  0  0  0  0  0
  -27.6750  -13.4540   19.8630 C   0  0  0  0  0  3  0  0  0  0  0  0
  -28.6990  -13.5590   21.0140 C   0  0  0  0  0  2  0  0  0  0  0  0
  -29.9560  -14.0370   20.4220 N   0  0  0  0  0  0  0  0  0  0  0  0
  -31.7680  -15.3170   20.2640 O   0  0  0  0  0  0  0  0  0  0  0  0
  -29.8240  -16.6000   20.5390 N   0  0  0  0  0  4  0  0  0  0  0  0
  -28.8440  -16.4760   20.7480 H   0  0  0  0  0  0  0  0  0  0  0  0
  -25.2870  -14.0110   20.5600 C   0  0  0  0  0  0  0  0  0  0  0  0
  -24.2170  -13.2330   20.8990 C   0  0  0  0  0  0  0  0  0  0  0  0
  -24.6850  -11.8820   20.8740 C   0  0  0  0  0  0  0  0  0  0  0  0
  -26.3350  -13.1370   20.3360 N   0  0  0  0  0  0  0  0  0  0  0  0
  -25.9840  -11.8500   20.5950 N   0  0  0  0  0  0  0  0  0  0  0  0
  -23.9530  -10.6190   21.0390 C   0  0  0  0  0  0  0  0  0  0  0  0
  -24.3630   -9.6440   21.9760 C   0  0  0  0  0  3  0  0  0  0  0  0
  -23.6290   -8.4470   22.1300 C   0  0  0  0  0  3  0  0  0  0  0  0
  -22.4720   -8.2180   21.3480 C   0  0  0  0  0  0  0  0  0  0  0  0
  -22.0820   -9.1820   20.4020 C   0  0  0  0  0  3  0  0  0  0  0  0
  -22.8160  -10.3690   20.2450 C   0  0  0  0  0  3  0  0  0  0  0  0
  -21.7110   -7.0760   21.4120 O   0  0  0  0  0  0  0  0  0  0  0  0
  -21.6300   -6.3280   22.5600 C   0  0  0  0  0  0  0  0  0  0  0  0
  -21.1360   -6.8690   23.7670 C   0  0  0  0  0  3  0  0  0  0  0  0
  -21.0050   -6.0480   24.9050 C   0  0  0  0  0  3  0  0  0  0  0  0
  -21.3560   -4.6860   24.8340 C   0  0  0  0  0  0  0  0  0  0  0  0
  -21.8430   -4.1450   23.6310 C   0  0  0  0  0  3  0  0  0  0  0  0
  -21.9760   -4.9640   22.4970 C   0  0  0  0  0  0  0  0  0  0  0  0
  -22.4250   -4.4330   21.3340 F   0  0  0  0  0  0  0  0  0  0  0  0
  -21.2230   -3.8940   25.9240 F   0  0  0  0  0  0  0  0  0  0  0  0
  -22.8130  -13.7080   21.1330 C   0  0  0  0  0  0  0  0  0  0  0  0
  -22.0640  -13.0150   21.9810 N   0  0  0  0  0  0  0  0  0  0  0  0
  -22.3890  -14.7320   20.5980 O   0  0  0  0  0  0  0  0  0  0  0  0
  -22.4200  -12.1860   22.4360 H   0  0  0  0  0  0  0  0  0  0  0  0
  -21.1210  -13.3160   22.1820 H   0  0  0  0  0  0  0  0  0  0  0  0
  -25.4510  -15.3830   20.3920 N   0  0  0  0  0  0  0  0  0  0  0  0
  -24.6760  -16.0300   20.4820 H   0  0  0  0  0  0  0  0  0  0  0  0
  -26.2950  -15.8220   20.0490 H   0  0  0  0  0  0  0  0  0  0  0  0
  -30.4470  -18.2170   18.6070 C   0  0  0  0  0  2  0  0  0  0  0  0
  -31.4730  -17.2830   17.9240 C   0  0  0  0  0  2  0  0  0  0  0  0
  -32.8580  -17.4590   18.4010 N   0  0  0  0  0  4  0  0  0  0  0  0
  -33.1390  -18.4230   18.4090 H   0  0  0  0  0  0  0  0  0  0  0  0
  -33.4870  -16.9570   17.7980 H   0  0  0  0  0  0  0  0  0  0  0  0
  -32.9490  -17.0550   19.3260 H   0  0  0  0  0  0  0  0  0  0  0  0
  1  2  2  0
  1  4  1  0
  2  5  1  0
  3  6  1  0
  4  3  2  0
  5  6  2  0
  6  7  1  0
  8  4  1  0
  8  9  1  0
 10 21  2  0
 11  9  1  0
 11 16  1  0
 12 20  1  0
 12 22  1  0
 13 19  1  0
 13 15  1  0
 14 20  1  0
 15 16  2  0
 15 14  1  0
 17 11  2  0
 18 17  1  0
 18 13  2  0
 19 12  1  0
 20 10  1  0
 22 24  2  0
 23 22  1  0
 25 23  1  0
 26 35  2  0
 26 31  1  0
 27 23  1  0
 27 31  1  0
 28 27  1  0
 29 30  1  0
 29 28  1  0
 30 26  1  0
 31 32  2  0
 32 33  1  0
 34 33  2  0
 35 34  1  0
 36 10  1  0
 36 37  1  0
 36 46  1  0
 37 40  1  0
 38 42  1  0
 38 37  1  0
 39 38  2  0
 42 41  1  0
 44 42  1  0
 44 45  1  0
 44 43  1  0
 46 49  1  1
 46 47  1  0
 48 46  1  0
 50  5  1  0
 50 59  2  0
 51 59  1  0
 52 57  1  0
 53 54  1  0
 53 52  1  0
 55 54  1  0
 55 64  1  0
 55 56  1  0
 57 51  1  0
 57 56  1  0
 58 51  2  0
 59 60  1  0
 61 62  2  0
 62 81  1  0
 63 62  1  0
 63 66  1  0
 64 61  1  0
 64 65  1  0
 65 63  2  0
 66 67  1  0
 67 68  2  0
 69 72  1  0
 69 68  1  0
 70 69  2  0
 71 70  1  0
 71 66  2  0
 72 73  1  0
 73 74  1  0
 74 75  2  0
 76 75  1  0
 76 80  1  0
 77 76  2  0
 78 73  2  0
 78 77  1  0
 79 78  1  0
 81 82  1  0
 82 85  1  0
 82 84  1  0
 83 81  2  0
 86 87  1  0
 86 61  1  0
 88 86  1  0
 89 50  1  0
 90 91  1  0
 90 89  1  0
 91 92  1  0
 91 94  1  0
 93 91  1  0
M  ISO  4   8 101   9 101  51 100  59 100
M  END
>  <TORSDO>  (4) 
F 21

>  <SCORE>  (4) 
-14.663

>  <name>  (4) 
3

>  <ligand_id>  (4) 
3

>  <original_smiles>  (4) 
[H]c1c([H])c([H])c2c(c1[H])C([H])([H])C([H])([H])C([H])([H])C2([H])N([H])C(=O)C1([H])N(C(=O)C([H])(N([H])C(=O)C([H])(N([H])C([H])([H])[H])C([H])([H])[H])C(C([H])([H])[H])(C([H])([H])[H])C([H])([H])[H])C([H])([H])c2c([H])c(OC([H])([H])c3c([H])c([H])c(C([H])(N([H])C(=O)N4C([H])([H])C([H])([H])C([H])([H])C([H])(n5nc(-c6c([H])c([H])c(Oc7c([H])c([H])c(F)c([H])c7F)c([H])c6[H])c(C(=O)N([H])[H])c5N([H])[H])C4([H])[H])C([H])([H])C([H])([H])[N+]([H])([H])[H])c(C([H])([H])[H])c3[H])c([H])c([H])c2C1([H])[H]

>  <smiles>  (4) 
[H]c1c([H])c([H])c2c(c1[H])C([H])([H])C([H])([H])C([H])([H])C2([H])N([H])C(=O)C1([H])N(C(=O)C([H])(N([H])C(=O)C([H])(N([H])C([H])([H])[H])C([H])([H])[H])C(C([H])([H])[H])(C([H])([H])[H])C([H])([H])[H])C([H])([H])c2c([H])c(OC([H])([H])c3c([H])c([H])c(C([H])(N([H])C(=O)N4C([H])([H])C([H])([H])C([H])([H])C([H])(n5nc(-c6c([H])c([H])c(Oc7c([H])c([H])c(F)c([H])c7F)c([H])c6[H])c(C(=O)N([H])[H])c5N([H])[H])C4([H])[H])C([H])([H])C([H])([H])[N+]([H])([H])[H])c(C([H])([H])[H])c3[H])c([H])c([H])c2C1([H])[H]

$$$$
4:0:0
     RDKit          3D

 94103  0  0  1  0  0  0  0  0999 V2000
  -30.1000  -21.8480   21.5670 C   0  0  0  0  0  2  0  0  0  0  0  0
  -29.0520  -20.4160   19.6930 C   0  0  0  0  0  2  0  0  0  0  0  0
  -30.3210  -20.4450   22.2010 C   0  0  0  0  0  2  0  0  0  0  0  0
  -31.0260  -18.0630   21.6690 C   0  0  0  0  0  2  0  0  0  0  0  0
  -28.9540  -21.8680   20.5310 C   0  0  0  0  0  3  0  0  0  0  0  0
  -29.7590  -17.6750   20.9040 C   0  0  0  0  0  3  0  0  0  0  0  0
  -30.0010  -19.0960   20.0920 C   0  0  0  0  0  3  0  0  0  0  0  0
  -30.8710  -19.4660   21.2250 N   0  0  1  0  0  4  0  0  0  0  0  0
  -31.7590  -19.8140   20.8850 H   0  0  0  0  0  0  0  0  0  0  0  0
  -30.5350  -15.0230   20.2850 C   0  0  0  0  0  0  0  0  0  0  0  0
  -30.4370  -12.6910   19.2840 C   0  0  0  0  0  2  0  0  0  0  0  0
  -29.4880  -12.6560   18.0650 C   0  0  0  0  0  2  0  0  0  0  0  0
  -28.0280  -12.4300   18.5120 C   0  0  0  0  0  2  0  0  0  0  0  0
  -27.6270  -13.3320   19.7110 C   0  0  0  0  0  3  0  0  0  0  0  0
  -28.6990  -13.3280   20.8200 C   0  0  0  0  0  2  0  0  0  0  0  0
  -29.9550  -13.7620   20.1940 N   0  0  0  0  0  0  0  0  0  0  0  0
  -31.7490  -15.1150   20.0750 O   0  0  0  0  0  0  0  0  0  0  0  0
  -29.7030  -16.1670   20.4090 N   0  0  0  0  0  0  0  0  0  0  0  0
  -28.7400  -15.8740   20.3520 H   0  0  0  0  0  0  0  0  0  0  0  0
  -25.2480  -13.8820   20.4830 C   0  0  0  0  0  0  0  0  0  0  0  0
  -24.1960  -13.0930   20.8560 C   0  0  0  0  0  0  0  0  0  0  0  0
  -24.6740  -11.7460   20.8140 C   0  0  0  0  0  0  0  0  0  0  0  0
  -26.2980  -13.0160   20.2230 N   0  0  0  0  0  0  0  0  0  0  0  0
  -25.9630  -11.7260   20.4880 N   0  0  0  0  0  0  0  0  0  0  0  0
  -23.9610  -10.4770   21.0020 C   0  0  0  0  0  0  0  0  0  0  0  0
  -24.3920   -9.5220   21.9470 C   0  0  0  0  0  3  0  0  0  0  0  0
  -23.6770   -8.3180   22.1240 C   0  0  0  0  0  3  0  0  0  0  0  0
  -22.5190   -8.0590   21.3540 C   0  0  0  0  0  0  0  0  0  0  0  0
  -22.1030   -9.0050   20.4010 C   0  0  0  0  0  3  0  0  0  0  0  0
  -22.8180  -10.2010   20.2220 C   0  0  0  0  0  3  0  0  0  0  0  0
  -21.7750   -6.9070   21.4420 O   0  0  0  0  0  0  0  0  0  0  0  0
  -21.7020   -6.1810   22.6030 C   0  0  0  0  0  0  0  0  0  0  0  0
  -21.2080   -6.7400   23.8020 C   0  0  0  0  0  3  0  0  0  0  0  0
  -21.0860   -5.9400   24.9540 C   0  0  0  0  0  3  0  0  0  0  0  0
  -21.4480   -4.5800   24.9100 C   0  0  0  0  0  0  0  0  0  0  0  0
  -21.9350   -4.0180   23.7170 C   0  0  0  0  0  3  0  0  0  0  0  0
  -22.0590   -4.8160   22.5650 C   0  0  0  0  0  0  0  0  0  0  0  0
  -22.5090   -4.2670   21.4120 F   0  0  0  0  0  0  0  0  0  0  0  0
  -21.3220   -3.8060   26.0150 F   0  0  0  0  0  0  0  0  0  0  0  0
  -22.7950  -13.5560   21.1380 C   0  0  0  0  0  0  0  0  0  0  0  0
  -22.0700  -12.8470   21.9970 N   0  0  0  0  0  0  0  0  0  0  0  0
  -22.3500  -14.5830   20.6270 O   0  0  0  0  0  0  0  0  0  0  0  0
  -22.4410  -12.0200   22.4400 H   0  0  0  0  0  0  0  0  0  0  0  0
  -21.1300  -13.1420   22.2170 H   0  0  0  0  0  0  0  0  0  0  0  0
  -25.3890  -15.2550   20.3110 N   0  0  0  0  0  0  0  0  0  0  0  0
  -24.6020  -15.8840   20.4270 H   0  0  0  0  0  0  0  0  0  0  0  0
  -26.2100  -15.7210   19.9490 H   0  0  0  0  0  0  0  0  0  0  0  0
  -28.7680  -23.4060   19.8240 C   0  0  0  0  0  3  0  0  0  0  0  0
  -28.0090  -23.2530   18.5650 N   0  0  0  0  0  4  0  0  0  0  0  0
  -27.0810  -22.9020   18.7280 H   0  0  0  0  0  0  0  0  0  0  0  0
  -28.4740  -22.6310   17.9280 H   0  0  0  0  0  0  0  0  0  0  0  0
  -27.9310  -24.1410   18.0990 H   0  0  0  0  0  0  0  0  0  0  0  0
  -28.1520  -24.7710   20.6100 C   0  0  0  0  0  2  0  0  0  0  0  0
  -28.3070  -26.2740   20.2270 O   0  0  0  0  0  0  0  0  0  0  0  0
  -24.5980  -31.9130   23.2530 C   0  0  0  0  0  0  0  0  0  0  0  0
  -27.2150  -27.2150   20.2420 C   0  0  0  0  0  0  0  0  0  0  0  0
  -23.4100  -30.5070   21.6130 C   0  0  0  0  0  3  0  0  0  0  0  0
  -24.8700  -28.9290   20.2080 C   0  0  0  0  0  0  0  0  0  0  0  0
  -25.9600  -30.7890   21.4520 C   0  0  0  0  0  2  0  0  0  0  0  0
  -26.0450  -29.3930   20.8070 C   0  0  0  0  0  0  0  0  0  0  0  0
  -27.2220  -28.5560   20.8010 C   0  0  0  0  0  3  0  0  0  0  0  0
  -26.0090  -26.8430   19.6150 C   0  0  0  0  0  3  0  0  0  0  0  0
  -24.8620  -27.6670   19.5950 C   0  0  0  0  0  3  0  0  0  0  0  0
  -23.6420  -29.8260   20.2380 C   0  0  0  0  0  2  0  0  0  0  0  0
  -24.6770  -31.0900   22.1620 N   0  0  0  0  0  0  0  0  0  0  0  0
  -23.5070  -32.1930   23.7760 O   0  0  0  0  0  0  0  0  0  0  0  0
  -22.7310  -29.5000   22.5760 C   0  0  0  0  0  0  0  0  0  0  0  0
  -21.4050  -29.3190   22.4440 N   0  0  0  0  0  0  0  0  0  0  0  0
  -23.4020  -28.8800   23.4050 O   0  0  0  0  0  0  0  0  0  0  0  0
  -20.9170  -29.8710   21.7500 H   0  0  0  0  0  0  0  0  0  0  0  0
  -18.0310  -28.1070   22.9520 C   0  0  0  0  0  0  0  0  0  0  0  0
  -20.5880  -28.3810   23.2160 C   0  0  0  0  0  3  0  0  0  0  0  0
  -20.6940  -26.9480   22.6450 C   0  0  0  0  0  2  0  0  0  0  0  0
  -19.5930  -26.6170   21.6320 C   0  0  0  0  0  2  0  0  0  0  0  0
  -18.2120  -26.7590   22.2760 C   0  0  0  0  0  2  0  0  0  0  0  0
  -19.1460  -28.8750   23.3810 C   0  0  0  0  0  0  0  0  0  0  0  0
  -18.9210  -30.1360   23.9770 C   0  0  0  0  0  3  0  0  0  0  0  0
  -17.6140  -30.6320   24.1420 C   0  0  0  0  0  3  0  0  0  0  0  0
  -16.5140  -29.8640   23.7240 C   0  0  0  0  0  3  0  0  0  0  0  0
  -16.7240  -28.6010   23.1400 C   0  0  0  0  0  3  0  0  0  0  0  0
  -25.8700  -32.5550   23.8820 C   0  0  0  0  0  3  0  0  0  0  0  0
  -26.3710  -31.8020   25.1760 C   0  0  1  0  0  0  0  0  0  0  0  0
  -25.2630  -31.5780   26.2330 C   0  0  0  0  0  1  0  0  0  0  0  0
  -26.9590  -30.4190   24.8120 C   0  0  0  0  0  1  0  0  0  0  0  0
  -27.5140  -32.6060   25.8430 C   0  0  0  0  0  1  0  0  0  0  0  0
  -25.5540  -33.9580   24.1940 N   0  0  0  0  0  0  0  0  0  0  0  0
  -25.8960  -35.0060   23.4340 C   0  0  0  0  0  0  0  0  0  0  0  0
  -26.5760  -34.8950   22.4110 O   0  0  0  0  0  0  0  0  0  0  0  0
  -24.9500  -34.1160   24.9860 H   0  0  0  0  0  0  0  0  0  0  0  0
  -24.1840  -36.8110   23.0410 C   0  0  0  0  0  1  0  0  0  0  0  0
  -25.4060  -36.4000   23.8780 C   0  0  0  0  0  3  0  0  0  0  0  0
  -27.5260  -37.2840   24.7490 C   0  0  0  0  0  1  0  0  0  0  0  0
  -26.4450  -37.4480   23.7820 N   0  0  0  0  0  0  0  0  0  0  0  0
  -26.0410  -38.3710   23.9120 H   0  0  0  0  0  0  0  0  0  0  0  0
  1  3  1  0
  2  5  1  0
  5 48  1  0
  5  1  1  0
  6 18  1  0
  6  4  1  0
  7  2  1  0
  7  6  1  0
  7  8  1  0
  8  9  1  6
  8  4  1  0
  8  3  1  0
 10 18  1  0
 11 16  1  0
 12 13  1  0
 12 11  1  0
 14 13  1  0
 14 23  1  0
 14 15  1  0
 16 10  1  0
 16 15  1  0
 17 10  2  0
 19 18  1  0
 20 21  2  0
 21 40  1  0
 22 21  1  0
 22 25  1  0
 23 20  1  0
 23 24  1  0
 24 22  2  0
 25 26  1  0
 26 27  2  0
 28 31  1  0
 28 27  1  0
 29 28  2  0
 30 29  1  0
 30 25  2  0
 31 32  1  0
 32 33  1  0
 33 34  2  0
 35 34  1  0
 35 39  1  0
 36 35  2  0
 37 32  2  0
 37 36  1  0
 38 37  1  0
 40 41  1  0
 41 44  1  0
 41 43  1  0
 42 40  2  0
 45 46  1  0
 45 20  1  0
 47 45  1  0
 48 53  1  0
 49 50  1  0
 49 48  1  0
 51 49  1  0
 52 49  1  0
 54 56  1  0
 54 53  1  0
 55 66  2  0
 56 61  1  0
 57 65  1  0
 57 67  1  0
 58 64  1  0
 58 60  1  0
 59 65  1  0
 60 59  1  0
 61 60  2  0
 62 56  2  0
 63 62  1  0
 63 58  2  0
 64 57  1  0
 65 55  1  0
 67 69  2  0
 68 67  1  0
 70 68  1  0
 71 80  2  0
 71 76  1  0
 72 68  1  0
 72 76  1  0
 73 72  1  0
 74 75  1  0
 74 73  1  0
 75 71  1  0
 76 77  2  0
 77 78  1  0
 79 78  2  0
 80 79  1  0
 81 55  1  0
 81 86  1  0
 81 82  1  0
 82 85  1  1
 82 83  1  0
 84 82  1  0
 86 89  1  0
 87 91  1  0
 87 86  1  0
 88 87  2  0
 91 90  1  0
 93 91  1  0
 93 94  1  0
 93 92  1  0
M  ISO  4  10 100  18 100  53 101  54 101
M  END
>  <TORSDO>  (5) 
F 19

>  <SCORE>  (5) 
-14.868

>  <name>  (5) 
4

>  <ligand_id>  (5) 
4

>  <original_smiles>  (5) 
[H]c1c([H])c([H])c2c(c1[H])C([H])([H])C([H])([H])C([H])([H])C2([H])N([H])C(=O)C1([H])N(C(=O)C([H])(N([H])C(=O)C([H])(N([H])C([H])([H])[H])C([H])([H])[H])C(C([H])([H])[H])(C([H])([H])[H])C([H])([H])[H])C([H])([H])c2c([H])c(OC([H])([H])C([H])(C3([H])C([H])([H])C([H])([H])[N+]4([H])C([H])([H])C([H])(N([H])C(=O)N5C([H])([H])C([H])([H])C([H])([H])C([H])(n6nc(-c7c([H])c([H])c(Oc8c([H])c([H])c(F)c([H])c8F)c([H])c7[H])c(C(=O)N([H])[H])c6N([H])[H])C5([H])[H])C4([H])C3([H])[H])[N+]([H])([H])[H])c([H])c([H])c2C1([H])[H]

>  <smiles>  (5) 
[H]c1c([H])c([H])c2c(c1[H])C([H])([H])C([H])([H])C([H])([H])C2([H])N([H])C(=O)C1([H])N(C(=O)C([H])(N([H])C(=O)C([H])(N([H])C([H])([H])[H])C([H])([H])[H])C(C([H])([H])[H])(C([H])([H])[H])C([H])([H])[H])C([H])([H])c2c([H])c(OC([H])([H])C([H])(C3([H])C([H])([H])C([H])([H])[N+]4([H])C([H])([H])C([H])(N([H])C(=O)N5C([H])([H])C([H])([H])C([H])([H])C([H])(n6nc(-c7c([H])c([H])c(Oc8c([H])c([H])c(F)c([H])c8F)c([H])c7[H])c(C(=O)N([H])[H])c6N([H])[H])C5([H])[H])C4([H])C3([H])[H])[N+]([H])([H])[H])c([H])c([H])c2C1([H])[H]

$$$$
5:0:0
     RDKit          3D

 94102  0  0  1  0  0  0  0  0999 V2000
  -29.2700  -21.8010   20.7490 C   0  0  0  0  0  3  0  0  0  0  0  0
  -28.4170  -21.5230   21.9280 N   0  0  0  0  0  4  0  0  0  0  0  0
  -27.4700  -21.3330   21.6500 H   0  0  0  0  0  0  0  0  0  0  0  0
  -28.4210  -22.2940   22.5700 H   0  0  0  0  0  0  0  0  0  0  0  0
  -28.7590  -20.7220   22.4260 H   0  0  0  0  0  0  0  0  0  0  0  0
  -29.3200  -20.3540   19.8850 C   0  0  0  0  0  0  0  0  0  0  0  0
  -28.8490  -20.3370   18.7470 O   0  0  0  0  0  0  0  0  0  0  0  0
  -30.8520  -15.0170   19.9620 C   0  0  0  0  0  0  0  0  0  0  0  0
  -30.6270  -12.7100   18.9450 C   0  0  0  0  0  2  0  0  0  0  0  0
  -29.6250  -12.7110   17.7670 C   0  0  0  0  0  2  0  0  0  0  0  0
  -28.1880  -12.4990   18.2800 C   0  0  0  0  0  2  0  0  0  0  0  0
  -27.8630  -13.3880   19.5080 C   0  0  0  0  0  3  0  0  0  0  0  0
  -28.9820  -13.3340   20.5680 C   0  0  0  0  0  2  0  0  0  0  0  0
  -30.2150  -13.7780   19.9040 N   0  0  0  0  0  0  0  0  0  0  0  0
  -32.0030  -15.0550   19.5160 O   0  0  0  0  0  0  0  0  0  0  0  0
  -29.1160  -18.1320   21.4780 C   0  0  0  0  0  2  0  0  0  0  0  0
  -29.6320  -16.6460   21.5290 C   0  0  0  0  0  2  0  0  0  0  0  0
  -29.9250  -18.9020   20.4210 C   0  0  0  0  0  3  0  0  0  0  0  0
  -30.1490  -17.6050   19.4500 C   0  0  0  0  0  3  0  0  0  0  0  0
  -30.1570  -16.2450   20.2070 N   0  0  0  0  0  0  0  0  0  0  0  0
  -25.5340  -13.9520   20.4040 C   0  0  0  0  0  0  0  0  0  0  0  0
  -24.4880  -13.1700   20.8090 C   0  0  0  0  0  0  0  0  0  0  0  0
  -24.9420  -11.8190   20.7070 C   0  0  0  0  0  0  0  0  0  0  0  0
  -26.5550  -13.0790   20.0750 N   0  0  0  0  0  0  0  0  0  0  0  0
  -26.2110  -11.7870   20.3200 N   0  0  0  0  0  0  0  0  0  0  0  0
  -24.2200  -10.5530   20.8990 C   0  0  0  0  0  0  0  0  0  0  0  0
  -24.6360   -9.6050   21.8590 C   0  0  0  0  0  3  0  0  0  0  0  0
  -23.9140   -8.4060   22.0390 C   0  0  0  0  0  3  0  0  0  0  0  0
  -22.7620   -8.1460   21.2590 C   0  0  0  0  0  0  0  0  0  0  0  0
  -22.3670   -9.0840   20.2880 C   0  0  0  0  0  3  0  0  0  0  0  0
  -23.0890  -10.2750   20.1070 C   0  0  0  0  0  3  0  0  0  0  0  0
  -22.0130   -6.9970   21.3470 O   0  0  0  0  0  0  0  0  0  0  0  0
  -21.8380   -6.3410   22.5390 C   0  0  0  0  0  0  0  0  0  0  0  0
  -21.2590   -6.9760   23.6600 C   0  0  0  0  0  3  0  0  0  0  0  0
  -21.0330   -6.2450   24.8440 C   0  0  0  0  0  3  0  0  0  0  0  0
  -21.3760   -4.8810   24.9070 C   0  0  0  0  0  0  0  0  0  0  0  0
  -21.9490   -4.2460   23.7900 C   0  0  0  0  0  3  0  0  0  0  0  0
  -22.1770   -4.9750   22.6080 C   0  0  0  0  0  0  0  0  0  0  0  0
  -22.7080   -4.3530   21.5280 F   0  0  0  0  0  0  0  0  0  0  0  0
  -21.1540   -4.1770   26.0400 F   0  0  0  0  0  0  0  0  0  0  0  0
  -23.1130  -13.6440   21.1800 C   0  0  0  0  0  0  0  0  0  0  0  0
  -22.4350  -12.9250   22.0670 N   0  0  0  0  0  0  0  0  0  0  0  0
  -22.6500  -14.6860   20.7160 O   0  0  0  0  0  0  0  0  0  0  0  0
  -22.8240  -12.0810   22.4610 H   0  0  0  0  0  0  0  0  0  0  0  0
  -21.5140  -13.2210   22.3540 H   0  0  0  0  0  0  0  0  0  0  0  0
  -25.6970  -15.3280   20.2640 N   0  0  0  0  0  0  0  0  0  0  0  0
  -24.9460  -15.9840   20.4420 H   0  0  0  0  0  0  0  0  0  0  0  0
  -26.5340  -15.7710   19.9080 H   0  0  0  0  0  0  0  0  0  0  0  0
  -31.3350  -17.8070   18.4950 C   0  0  0  0  0  0  0  0  0  0  0  0
  -31.1830  -17.2620   17.0820 C   0  0  0  0  0  1  0  0  0  0  0  0
  -32.3780  -18.3770   18.8250 O   0  0  0  0  0  0  0  0  0  0  0  0
  -28.9320  -23.3370   20.0750 C   0  0  0  0  0  2  0  0  0  0  0  0
  -28.0850  -24.7550   20.4960 C   0  0  0  0  0  2  0  0  0  0  0  0
  -28.3970  -26.2570   20.2290 O   0  0  0  0  0  0  0  0  0  0  0  0
  -24.6950  -31.8990   23.1890 C   0  0  0  0  0  0  0  0  0  0  0  0
  -27.3350  -27.2270   20.1770 C   0  0  0  0  0  0  0  0  0  0  0  0
  -23.5130  -30.4780   21.5590 C   0  0  0  0  0  3  0  0  0  0  0  0
  -24.9830  -28.9280   20.1360 C   0  0  0  0  0  0  0  0  0  0  0  0
  -26.0620  -30.7910   21.3820 C   0  0  0  0  0  2  0  0  0  0  0  0
  -26.1560  -29.3970   20.7410 C   0  0  0  0  0  0  0  0  0  0  0  0
  -27.3350  -28.5620   20.7450 C   0  0  0  0  0  3  0  0  0  0  0  0
  -26.1410  -26.8700   19.5120 C   0  0  0  0  0  3  0  0  0  0  0  0
  -24.9870  -27.6770   19.5060 C   0  0  0  0  0  3  0  0  0  0  0  0
  -23.7410  -29.8020   20.1820 C   0  0  0  0  0  2  0  0  0  0  0  0
  -24.7770  -31.0780   22.0980 N   0  0  0  0  0  0  0  0  0  0  0  0
  -23.6060  -32.1660   23.7170 O   0  0  0  0  0  0  0  0  0  0  0  0
  -22.8560  -29.4600   22.5250 C   0  0  0  0  0  0  0  0  0  0  0  0
  -21.5290  -29.2720   22.4090 N   0  0  0  0  0  0  0  0  0  0  0  0
  -23.5420  -28.8440   23.3440 O   0  0  0  0  0  0  0  0  0  0  0  0
  -21.0320  -29.8210   21.7230 H   0  0  0  0  0  0  0  0  0  0  0  0
  -18.1650  -28.0440   22.9460 C   0  0  0  0  0  0  0  0  0  0  0  0
  -20.7240  -28.3270   23.1870 C   0  0  0  0  0  3  0  0  0  0  0  0
  -20.8310  -26.8960   22.6100 C   0  0  0  0  0  2  0  0  0  0  0  0
  -19.7210  -26.5650   21.6070 C   0  0  0  0  0  2  0  0  0  0  0  0
  -18.3460  -26.6980   22.2660 C   0  0  0  0  0  2  0  0  0  0  0  0
  -19.2820  -28.8170   23.3650 C   0  0  0  0  0  0  0  0  0  0  0  0
  -19.0570  -30.0760   23.9620 C   0  0  0  0  0  3  0  0  0  0  0  0
  -17.7500  -30.5630   24.1430 C   0  0  0  0  0  3  0  0  0  0  0  0
  -16.6480  -29.7890   23.7400 C   0  0  0  0  0  3  0  0  0  0  0  0
  -16.8570  -28.5310   23.1470 C   0  0  0  0  0  3  0  0  0  0  0  0
  -25.9640  -32.5580   23.8080 C   0  0  0  0  0  3  0  0  0  0  0  0
  -25.6250  -33.9490   24.1480 N   0  0  0  0  0  0  0  0  0  0  0  0
  -25.9380  -35.0160   23.4010 C   0  0  0  0  0  0  0  0  0  0  0  0
  -26.6090  -34.9350   22.3690 O   0  0  0  0  0  0  0  0  0  0  0  0
  -25.0240  -34.0840   24.9480 H   0  0  0  0  0  0  0  0  0  0  0  0
  -24.1830  -36.7880   23.0620 C   0  0  0  0  0  1  0  0  0  0  0  0
  -25.4280  -36.3930   23.8730 C   0  0  0  0  0  3  0  0  0  0  0  0
  -27.5440  -37.3050   24.7230 C   0  0  0  0  0  1  0  0  0  0  0  0
  -26.4440  -37.4620   23.7740 N   0  0  0  0  0  0  0  0  0  0  0  0
  -26.0230  -38.3750   23.9280 H   0  0  0  0  0  0  0  0  0  0  0  0
  -26.4980  -31.7960   25.0830 C   0  0  1  0  0  0  0  0  0  0  0  0
  -25.4080  -31.5250   26.1470 C   0  0  0  0  0  1  0  0  0  0  0  0
  -27.1150  -30.4350   24.6870 C   0  0  0  0  0  1  0  0  0  0  0  0
  -27.6280  -32.6150   25.7480 C   0  0  0  0  0  1  0  0  0  0  0  0
  1 52  1  0
  1  2  1  0
  2  5  1  0
  2  4  1  0
  3  2  1  0
  6  1  1  0
  7  6  2  0
  8 20  1  0
  9 14  1  0
 10 11  1  0
 10  9  1  0
 12 11  1  0
 12 24  1  0
 12 13  1  0
 14  8  1  0
 14 13  1  0
 15  8  2  0
 16 17  1  0
 18  6  1  0
 18 16  1  0
 19 49  1  0
 19 20  1  0
 19 18  1  0
 20 17  1  0
 21 22  2  0
 22 41  1  0
 23 22  1  0
 23 26  1  0
 24 25  1  0
 24 21  1  0
 25 23  2  0
 26 27  1  0
 27 28  2  0
 29 32  1  0
 29 28  1  0
 30 29  2  0
 31 30  1  0
 31 26  2  0
 32 33  1  0
 33 38  2  0
 33 34  1  0
 34 35  2  0
 35 36  1  0
 36 40  1  0
 37 36  2  0
 38 37  1  0
 39 38  1  0
 41 42  1  0
 42 45  1  0
 42 44  1  0
 43 41  2  0
 46 21  1  0
 46 47  1  0
 48 46  1  0
 49 51  2  0
 50 49  1  0
 52 53  1  0
 54 53  1  0
 55 66  2  0
 56 54  1  0
 56 61  1  0
 57 65  1  0
 57 67  1  0
 58 64  1  0
 58 60  1  0
 59 65  1  0
 60 61  2  0
 60 59  1  0
 62 56  2  0
 63 62  1  0
 63 58  2  0
 64 57  1  0
 65 55  1  0
 67 69  2  0
 68 67  1  0
 70 68  1  0
 71 80  2  0
 71 76  1  0
 72 68  1  0
 72 76  1  0
 73 72  1  0
 74 75  1  0
 74 73  1  0
 75 71  1  0
 76 77  2  0
 77 78  1  0
 79 78  2  0
 80 79  1  0
 81 55  1  0
 81 82  1  0
 81 91  1  0
 82 85  1  0
 83 87  1  0
 83 82  1  0
 84 83  2  0
 87 86  1  0
 89 87  1  0
 89 90  1  0
 89 88  1  0
 91 94  1  1
 91 92  1  0
 93 91  1  0
M  ISO  4   8 100  20 100  53 101  54 101
M  END
>  <TORSDO>  (6) 
F 21

>  <SCORE>  (6) 
-13.622

>  <name>  (6) 
5

>  <ligand_id>  (6) 
5

>  <original_smiles>  (6) 
[H]c1c([H])c([H])c2c(c1[H])C([H])([H])C([H])([H])C([H])([H])C2([H])N([H])C(=O)C1([H])N(C(=O)C([H])(N([H])C(=O)C([H])(N([H])C([H])([H])[H])C([H])([H])[H])C(C([H])([H])[H])(C([H])([H])[H])C([H])([H])[H])C([H])([H])c2c([H])c(OC([H])([H])C([H])([H])C([H])(C(=O)C3([H])C([H])(C(=O)C([H])([H])[H])N(C(=O)N4C([H])([H])C([H])([H])C([H])([H])C([H])(n5nc(-c6c([H])c([H])c(Oc7c([H])c([H])c(F)c([H])c7F)c([H])c6[H])c(C(=O)N([H])[H])c5N([H])[H])C4([H])[H])C([H])([H])C3([H])[H])[N+]([H])([H])[H])c([H])c([H])c2C1([H])[H]

>  <smiles>  (6) 
[H]c1c([H])c([H])c2c(c1[H])C([H])([H])C([H])([H])C([H])([H])C2([H])N([H])C(=O)C1([H])N(C(=O)C([H])(N([H])C(=O)C([H])(N([H])C([H])([H])[H])C([H])([H])[H])C(C([H])([H])[H])(C([H])([H])[H])C([H])([H])[H])C([H])([H])c2c([H])c(OC([H])([H])C([H])([H])C([H])(C(=O)C3([H])C([H])(C(=O)C([H])([H])[H])N(C(=O)N4C([H])([H])C([H])([H])C([H])([H])C([H])(n5nc(-c6c([H])c([H])c(Oc7c([H])c([H])c(F)c([H])c7F)c([H])c6[H])c(C(=O)N([H])[H])c5N([H])[H])C4([H])[H])C([H])([H])C3([H])[H])[N+]([H])([H])[H])c([H])c([H])c2C1([H])[H]

$$$$
6:0:0
     RDKit          3D

 97106  0  0  1  0  0  0  0  0999 V2000
  -27.6580  -20.7780   20.3280 C   0  0  0  0  0  0  0  0  0  0  0  0
  -28.1630  -19.8770   19.4570 N   0  0  0  0  0  0  0  0  0  0  0  0
  -27.9640  -20.8250   21.5150 O   0  0  0  0  0  0  0  0  0  0  0  0
  -27.6870  -19.8870   18.5620 H   0  0  0  0  0  0  0  0  0  0  0  0
  -30.8490  -19.7490   21.2360 C   0  0  0  0  0  2  0  0  0  0  0  0
  -29.8810  -18.6850   21.8280 C   0  0  0  0  0  2  0  0  0  0  0  0
  -31.5820  -18.2670   19.3350 C   0  0  0  0  0  2  0  0  0  0  0  0
  -30.7490  -19.5250   19.6910 C   0  0  0  0  0  3  0  0  0  0  0  0
  -29.5170  -17.8790   20.5760 C   0  0  0  0  0  3  0  0  0  0  0  0
  -30.8880  -17.2100   20.2110 C   0  0  0  0  0  3  0  0  0  0  0  0
  -29.3360  -18.9510   19.4770 C   0  0  0  0  0  3  0  0  0  0  0  0
  -31.6890  -14.8310   19.6520 C   0  0  0  0  0  0  0  0  0  0  0  0
  -31.4140  -12.5110   18.8910 C   0  0  0  0  0  2  0  0  0  0  0  0
  -30.4120  -12.5150   17.7130 C   0  0  0  0  0  2  0  0  0  0  0  0
  -28.9550  -12.4780   18.2230 C   0  0  0  0  0  2  0  0  0  0  0  0
  -28.6810  -13.5460   19.3190 C   0  0  0  0  0  3  0  0  0  0  0  0
  -29.7620  -13.4420   20.4230 C   0  0  0  0  0  2  0  0  0  0  0  0
  -31.0700  -13.6370   19.7680 N   0  0  0  0  0  0  0  0  0  0  0  0
  -32.8560  -14.9730   19.2780 O   0  0  0  0  0  0  0  0  0  0  0  0
  -30.7880  -15.8180   19.8010 N   0  0  0  0  0  0  0  0  0  0  0  0
  -29.8810  -15.4220   20.0020 H   0  0  0  0  0  0  0  0  0  0  0  0
  -26.4110  -14.4290   20.1640 C   0  0  0  0  0  0  0  0  0  0  0  0
  -25.2810  -13.7740   20.5980 C   0  0  0  0  0  0  0  0  0  0  0  0
  -25.5850  -12.3830   20.5240 C   0  0  0  0  0  0  0  0  0  0  0  0
  -27.3330  -13.4330   19.8720 N   0  0  0  0  0  0  0  0  0  0  0  0
  -26.8390  -12.2000   20.1330 N   0  0  0  0  0  0  0  0  0  0  0  0
  -24.7330  -11.2070   20.7270 C   0  0  0  0  0  0  0  0  0  0  0  0
  -25.0600  -10.2280   21.6870 C   0  0  0  0  0  3  0  0  0  0  0  0
  -24.2240   -9.1100   21.8810 C   0  0  0  0  0  3  0  0  0  0  0  0
  -23.0450   -8.9660   21.1110 C   0  0  0  0  0  0  0  0  0  0  0  0
  -22.7360   -9.9350   20.1390 C   0  0  0  0  0  3  0  0  0  0  0  0
  -23.5740  -11.0440   19.9450 C   0  0  0  0  0  3  0  0  0  0  0  0
  -22.1840   -7.8990   21.2110 O   0  0  0  0  0  0  0  0  0  0  0  0
  -21.9810   -7.2520   22.3990 C   0  0  0  0  0  0  0  0  0  0  0  0
  -21.5200   -7.9270   23.5500 C   0  0  0  0  0  3  0  0  0  0  0  0
  -21.2610   -7.2080   24.7330 C   0  0  0  0  0  3  0  0  0  0  0  0
  -21.4510   -5.8130   24.7640 C   0  0  0  0  0  0  0  0  0  0  0  0
  -21.9110   -5.1370   23.6190 C   0  0  0  0  0  3  0  0  0  0  0  0
  -22.1710   -5.8550   22.4380 C   0  0  0  0  0  0  0  0  0  0  0  0
  -22.5910   -5.1980   21.3310 F   0  0  0  0  0  0  0  0  0  0  0  0
  -21.1960   -5.1180   25.8990 F   0  0  0  0  0  0  0  0  0  0  0  0
  -23.9630  -14.4020   20.9460 C   0  0  0  0  0  0  0  0  0  0  0  0
  -23.2200  -13.7920   21.8690 N   0  0  0  0  0  0  0  0  0  0  0  0
  -23.6060  -15.4610   20.4360 O   0  0  0  0  0  0  0  0  0  0  0  0
  -23.5260  -12.9350   22.3020 H   0  0  0  0  0  0  0  0  0  0  0  0
  -22.3340  -14.1920   22.1370 H   0  0  0  0  0  0  0  0  0  0  0  0
  -26.7190  -15.7690   19.9720 N   0  0  0  0  0  0  0  0  0  0  0  0
  -25.9980  -16.4710   20.0780 H   0  0  0  0  0  0  0  0  0  0  0  0
  -27.5000  -16.0920   19.4180 H   0  0  0  0  0  0  0  0  0  0  0  0
  -25.6780  -21.3770   18.7510 C   0  0  0  0  0  1  0  0  0  0  0  0
  -26.7200  -21.8830   19.7840 C   0  0  0  0  0  3  0  0  0  0  0  0
  -27.5710  -22.9590   19.2160 N   0  0  0  0  0  4  0  0  0  0  0  0
  -28.5170  -22.6230   19.3490 H   0  0  0  0  0  0  0  0  0  0  0  0
  -27.4070  -23.0310   18.2280 H   0  0  0  0  0  0  0  0  0  0  0  0
  -27.4720  -24.3030   19.8560 C   0  0  0  0  0  2  0  0  0  0  0  0
  -28.1560  -25.3960   18.9740 C   0  0  0  0  0  2  0  0  0  0  0  0
  -28.2050  -26.7300   19.5130 O   0  0  0  0  0  0  0  0  0  0  0  0
  -24.5820  -31.6550   23.1450 C   0  0  0  0  0  0  0  0  0  0  0  0
  -27.0390  -27.4700   19.5760 C   0  0  0  0  0  0  0  0  0  0  0  0
  -23.2890  -30.3780   21.4660 C   0  0  0  0  0  3  0  0  0  0  0  0
  -24.6590  -28.9830   19.8400 C   0  0  0  0  0  0  0  0  0  0  0  0
  -25.8020  -30.7650   21.1580 C   0  0  0  0  0  2  0  0  0  0  0  0
  -25.8490  -29.4500   20.4080 C   0  0  0  0  0  0  0  0  0  0  0  0
  -27.0380  -28.6930   20.2840 C   0  0  0  0  0  3  0  0  0  0  0  0
  -25.8310  -27.0510   18.9710 C   0  0  0  0  0  3  0  0  0  0  0  0
  -24.6440  -27.7840   19.1220 C   0  0  0  0  0  3  0  0  0  0  0  0
  -23.4230  -29.8230   20.0220 C   0  0  0  0  0  2  0  0  0  0  0  0
  -24.5800  -30.9450   21.9780 N   0  0  0  0  0  0  0  0  0  0  0  0
  -23.5330  -31.8760   23.7640 O   0  0  0  0  0  0  0  0  0  0  0  0
  -22.7010  -29.2810   22.3770 C   0  0  0  0  0  0  0  0  0  0  0  0
  -21.3860  -29.0340   22.2440 N   0  0  0  0  0  0  0  0  0  0  0  0
  -23.4160  -28.6470   23.1480 O   0  0  0  0  0  0  0  0  0  0  0  0
  -20.8820  -29.5790   21.5590 H   0  0  0  0  0  0  0  0  0  0  0  0
  -18.0980  -27.5900   22.6420 C   0  0  0  0  0  0  0  0  0  0  0  0
  -20.6300  -28.0140   22.9720 C   0  0  0  0  0  3  0  0  0  0  0  0
  -20.8460  -26.6110   22.3450 C   0  0  0  0  0  2  0  0  0  0  0  0
  -19.7860  -26.2540   21.2970 C   0  0  0  0  0  2  0  0  0  0  0  0
  -18.3820  -26.2780   21.9160 C   0  0  0  0  0  2  0  0  0  0  0  0
  -19.1570  -28.4110   23.1230 C   0  0  0  0  0  0  0  0  0  0  0  0
  -18.8390  -29.6340   23.7530 C   0  0  0  0  0  3  0  0  0  0  0  0
  -17.5010  -30.0400   23.9030 C   0  0  0  0  0  3  0  0  0  0  0  0
  -16.4580  -29.2170   23.4430 C   0  0  0  0  0  3  0  0  0  0  0  0
  -16.7610  -27.9950   22.8170 C   0  0  0  0  0  3  0  0  0  0  0  0
  -25.8990  -32.2490   23.7300 C   0  0  0  0  0  3  0  0  0  0  0  0
  -25.6210  -33.6390   24.1230 N   0  0  0  0  0  0  0  0  0  0  0  0
  -25.9430  -34.7130   23.3950 C   0  0  0  0  0  0  0  0  0  0  0  0
  -26.5810  -34.6420   22.3410 O   0  0  0  0  0  0  0  0  0  0  0  0
  -25.0500  -33.7680   24.9450 H   0  0  0  0  0  0  0  0  0  0  0  0
  -24.2220  -36.5350   23.1550 C   0  0  0  0  0  1  0  0  0  0  0  0
  -25.4820  -36.0910   23.9150 C   0  0  0  0  0  3  0  0  0  0  0  0
  -27.6510  -36.9210   24.7110 C   0  0  0  0  0  1  0  0  0  0  0  0
  -26.5240  -37.1360   23.8090 N   0  0  0  0  0  0  0  0  0  0  0  0
  -26.1320  -38.0520   24.0040 H   0  0  0  0  0  0  0  0  0  0  0  0
  -26.4600  -31.4270   24.9530 C   0  0  1  0  0  0  0  0  0  0  0  0
  -25.4120  -31.1510   26.0550 C   0  0  0  0  0  1  0  0  0  0  0  0
  -27.0170  -30.0610   24.4850 C   0  0  0  0  0  1  0  0  0  0  0  0
  -27.6420  -32.1880   25.6000 C   0  0  0  0  0  1  0  0  0  0  0  0
  1  3  2  0
  2  1  1  0
  4  2  1  0
  5  6  1  0
  7 10  1  0
  8  7  1  0
  8  5  1  0
  9  6  1  0
 10 20  1  0
 10  9  1  0
 11  2  1  0
 11  8  1  0
 11  9  1  0
 12 18  1  0
 12 20  1  0
 13 18  1  0
 14 15  1  0
 14 13  1  0
 16 15  1  0
 16 25  1  0
 16 17  1  0
 18 17  1  0
 19 12  2  0
 20 21  1  0
 22 23  2  0
 23 42  1  0
 24 23  1  0
 24 27  1  0
 25 26  1  0
 25 22  1  0
 26 24  2  0
 27 28  1  0
 28 29  2  0
 30 33  1  0
 30 29  1  0
 31 30  2  0
 32 31  1  0
 32 27  2  0
 33 34  1  0
 34 39  2  0
 34 35  1  0
 35 36  2  0
 36 37  1  0
 37 41  1  0
 38 37  2  0
 39 38  1  0
 40 39  1  0
 42 43  1  0
 43 46  1  0
 43 45  1  0
 44 42  2  0
 47 48  1  0
 47 22  1  0
 49 47  1  0
 51 50  1  0
 51  1  1  0
 52 53  1  0
 52 51  1  0
 52 55  1  0
 54 52  1  0
 56 57  1  0
 56 55  1  0
 57 59  1  0
 58 69  2  0
 59 64  1  0
 60 68  1  0
 60 70  1  0
 61 67  1  0
 61 63  1  0
 62 68  1  0
 63 62  1  0
 64 63  2  0
 65 66  1  0
 65 59  2  0
 66 61  2  0
 67 60  1  0
 68 58  1  0
 70 72  2  0
 71 70  1  0
 73 71  1  0
 74 83  2  0
 74 79  1  0
 75 71  1  0
 75 79  1  0
 76 75  1  0
 77 78  1  0
 77 76  1  0
 78 74  1  0
 79 80  2  0
 80 81  1  0
 82 81  2  0
 83 82  1  0
 84 58  1  0
 84 85  1  0
 84 94  1  0
 85 88  1  0
 86 90  1  0
 86 85  1  0
 87 86  2  0
 90 89  1  0
 92 90  1  0
 92 93  1  0
 92 91  1  0
 94 97  1  1
 94 95  1  0
 96 94  1  0
M  ISO  4  12 100  20 100  56 101  57 101
M  END
>  <TORSDO>  (7) 
F 21

>  <SCORE>  (7) 
-10.625

>  <name>  (7) 
6

>  <ligand_id>  (7) 
6

>  <original_smiles>  (7) 
[H]c1c([H])c([H])c2c(c1[H])C([H])([H])C([H])([H])C([H])([H])C2([H])N([H])C(=O)C1([H])N(C(=O)C([H])(N([H])C(=O)C([H])(N([H])C([H])([H])[H])C([H])([H])[H])C(C([H])([H])[H])(C([H])([H])[H])C([H])([H])[H])C([H])([H])c2c([H])c(OC([H])([H])C([H])([H])[N+]([H])([H])C([H])(C(=O)N([H])C3([H])C4([H])C([H])([H])C([H])([H])C3([H])C([H])(N([H])C(=O)N3C([H])([H])C([H])([H])C([H])([H])C([H])(n5nc(-c6c([H])c([H])c(Oc7c([H])c([H])c(F)c([H])c7F)c([H])c6[H])c(C(=O)N([H])[H])c5N([H])[H])C3([H])[H])C4([H])[H])C([H])([H])[H])c([H])c([H])c2C1([H])[H]

>  <smiles>  (7) 
[H]c1c([H])c([H])c2c(c1[H])C([H])([H])C([H])([H])C([H])([H])C2([H])N([H])C(=O)C1([H])N(C(=O)C([H])(N([H])C(=O)C([H])(N([H])C([H])([H])[H])C([H])([H])[H])C(C([H])([H])[H])(C([H])([H])[H])C([H])([H])[H])C([H])([H])c2c([H])c(OC([H])([H])C([H])([H])[N+]([H])([H])C([H])(C(=O)N([H])C3([H])C4([H])C([H])([H])C([H])([H])C3([H])C([H])(N([H])C(=O)N3C([H])([H])C([H])([H])C([H])([H])C([H])(n5nc(-c6c([H])c([H])c(Oc7c([H])c([H])c(F)c([H])c7F)c([H])c6[H])c(C(=O)N([H])[H])c5N([H])[H])C3([H])[H])C4([H])[H])C([H])([H])[H])c([H])c([H])c2C1([H])[H]

$$$$
7:0:0
     RDKit          3D

 93101  0  0  1  0  0  0  0  0999 V2000
  -27.4590  -20.6300   19.5030 C   0  0  0  0  0  1  0  0  0  0  0  0
  -28.8750  -21.0770   19.9130 C   0  0  0  0  0  3  0  0  0  0  0  0
  -31.9170  -18.9770   21.2530 C   0  0  0  0  0  3  0  0  0  0  0  0
  -31.4910  -17.6400   21.1660 C   0  0  0  0  0  3  0  0  0  0  0  0
  -29.3390  -18.4350   20.3840 C   0  0  0  0  0  3  0  0  0  0  0  0
  -31.0890  -20.0600   20.8800 C   0  0  0  0  0  0  0  0  0  0  0  0
  -29.7510  -19.8380   20.4490 C   0  0  0  0  0  0  0  0  0  0  0  0
  -30.2010  -17.3070   20.7040 C   0  0  0  0  0  0  0  0  0  0  0  0
  -31.7110  -21.4480   20.9230 C   0  0  0  0  0  1  0  0  0  0  0  0
  -30.5740  -14.7370   20.4020 C   0  0  0  0  0  0  0  0  0  0  0  0
  -30.3530  -12.4750   19.3660 C   0  0  0  0  0  2  0  0  0  0  0  0
  -29.4160  -12.5600   18.1420 C   0  0  0  0  0  2  0  0  0  0  0  0
  -27.9470  -12.3890   18.5740 C   0  0  0  0  0  2  0  0  0  0  0  0
  -27.5760  -13.2780   19.7910 C   0  0  0  0  0  3  0  0  0  0  0  0
  -28.6320  -13.1810   20.9130 C   0  0  0  0  0  2  0  0  0  0  0  0
  -29.9300  -13.5250   20.3200 N   0  0  0  0  0  0  0  0  0  0  0  0
  -31.7640  -14.8130   20.0760 O   0  0  0  0  0  0  0  0  0  0  0  0
  -29.8100  -15.8770   20.6150 N   0  0  0  0  0  0  0  0  0  0  0  0
  -28.8200  -15.6960   20.6900 H   0  0  0  0  0  0  0  0  0  0  0  0
  -25.1920  -13.8760   20.5210 C   0  0  0  0  0  0  0  0  0  0  0  0
  -24.1230  -13.1040   20.8890 C   0  0  0  0  0  0  0  0  0  0  0  0
  -24.5820  -11.7510   20.8560 C   0  0  0  0  0  0  0  0  0  0  0  0
  -26.2320  -12.9930   20.2810 N   0  0  0  0  0  0  0  0  0  0  0  0
  -25.8720  -11.7110   20.5470 N   0  0  0  0  0  0  0  0  0  0  0  0
  -23.8530  -10.4900   21.0410 C   0  0  0  0  0  0  0  0  0  0  0  0
  -24.2790   -9.5210   21.9750 C   0  0  0  0  0  3  0  0  0  0  0  0
  -23.5500   -8.3250   22.1490 C   0  0  0  0  0  3  0  0  0  0  0  0
  -22.3800   -8.0900   21.3890 C   0  0  0  0  0  0  0  0  0  0  0  0
  -21.9730   -9.0490   20.4430 C   0  0  0  0  0  3  0  0  0  0  0  0
  -22.7030  -10.2350   20.2670 C   0  0  0  0  0  3  0  0  0  0  0  0
  -21.6230   -6.9470   21.4720 O   0  0  0  0  0  0  0  0  0  0  0  0
  -21.5610   -6.2070   22.6250 C   0  0  0  0  0  0  0  0  0  0  0  0
  -21.1130   -6.7610   23.8440 C   0  0  0  0  0  3  0  0  0  0  0  0
  -20.9990   -5.9460   24.9870 C   0  0  0  0  0  3  0  0  0  0  0  0
  -21.3260   -4.5790   24.9140 C   0  0  0  0  0  0  0  0  0  0  0  0
  -21.7680   -4.0240   23.7000 C   0  0  0  0  0  3  0  0  0  0  0  0
  -21.8820   -4.8360   22.5580 C   0  0  0  0  0  0  0  0  0  0  0  0
  -22.2890   -4.2920   21.3860 F   0  0  0  0  0  0  0  0  0  0  0  0
  -21.2090   -3.7940   26.0100 F   0  0  0  0  0  0  0  0  0  0  0  0
  -22.7270  -13.5850   21.1580 C   0  0  0  0  0  0  0  0  0  0  0  0
  -21.9930  -12.8850   22.0160 N   0  0  0  0  0  0  0  0  0  0  0  0
  -22.2950  -14.6150   20.6420 O   0  0  0  0  0  0  0  0  0  0  0  0
  -22.3560  -12.0520   22.4550 H   0  0  0  0  0  0  0  0  0  0  0  0
  -21.0560  -13.1890   22.2410 H   0  0  0  0  0  0  0  0  0  0  0  0
  -25.3580  -15.2460   20.3450 N   0  0  0  0  0  0  0  0  0  0  0  0
  -24.5860  -15.8950   20.4490 H   0  0  0  0  0  0  0  0  0  0  0  0
  -26.1940  -15.6840   19.9820 H   0  0  0  0  0  0  0  0  0  0  0  0
  -28.7840  -22.3850   20.7180 N   0  0  0  0  0  4  0  0  0  0  0  0
  -28.0410  -22.2670   21.3900 H   0  0  0  0  0  0  0  0  0  0  0  0
  -29.6360  -22.4530   21.2530 H   0  0  0  0  0  0  0  0  0  0  0  0
  -28.5950  -23.7300   19.9750 C   0  0  0  0  0  3  0  0  0  0  0  0
  -28.2060  -25.0550   20.8200 C   0  0  0  0  0  3  0  0  0  0  0  0
  -28.3440  -26.4430   20.2620 O   0  0  0  0  0  0  0  0  0  0  0  0
  -24.6010  -31.8980   23.2480 C   0  0  0  0  0  0  0  0  0  0  0  0
  -27.2290  -27.3010   20.2490 C   0  0  0  0  0  0  0  0  0  0  0  0
  -23.4080  -30.4900   21.6080 C   0  0  0  0  0  3  0  0  0  0  0  0
  -24.8680  -28.9250   20.2030 C   0  0  0  0  0  0  0  0  0  0  0  0
  -25.9480  -30.8070   21.4370 C   0  0  0  0  0  2  0  0  0  0  0  0
  -26.0340  -29.4200   20.7990 C   0  0  0  0  0  0  0  0  0  0  0  0
  -27.2210  -28.6230   20.8050 C   0  0  0  0  0  3  0  0  0  0  0  0
  -26.0420  -26.8610   19.6300 C   0  0  0  0  0  3  0  0  0  0  0  0
  -24.8760  -27.6530   19.6050 C   0  0  0  0  0  3  0  0  0  0  0  0
  -23.6320  -29.8030   20.2340 C   0  0  0  0  0  2  0  0  0  0  0  0
  -24.6710  -31.0830   22.1540 N   0  0  0  0  0  0  0  0  0  0  0  0
  -23.5140  -32.1780   23.7750 O   0  0  0  0  0  0  0  0  0  0  0  0
  -22.7380  -29.4800   22.5720 C   0  0  0  0  0  0  0  0  0  0  0  0
  -21.4110  -29.3110   22.4450 N   0  0  0  0  0  0  0  0  0  0  0  0
  -23.4120  -28.8530   23.3920 O   0  0  0  0  0  0  0  0  0  0  0  0
  -20.9250  -29.8690   21.7560 H   0  0  0  0  0  0  0  0  0  0  0  0
  -18.0240  -28.1450   22.9590 C   0  0  0  0  0  0  0  0  0  0  0  0
  -20.5860  -28.3780   23.2160 C   0  0  0  0  0  3  0  0  0  0  0  0
  -20.6710  -26.9480   22.6350 C   0  0  0  0  0  2  0  0  0  0  0  0
  -19.5610  -26.6390   21.6250 C   0  0  0  0  0  2  0  0  0  0  0  0
  -18.1840  -26.7960   22.2780 C   0  0  0  0  0  2  0  0  0  0  0  0
  -19.1530  -28.8940   23.3860 C   0  0  0  0  0  0  0  0  0  0  0  0
  -18.9490  -30.1550   23.9850 C   0  0  0  0  0  3  0  0  0  0  0  0
  -17.6510  -30.6690   24.1610 C   0  0  0  0  0  3  0  0  0  0  0  0
  -16.5370  -29.9170   23.7510 C   0  0  0  0  0  3  0  0  0  0  0  0
  -16.7240  -28.6570   23.1560 C   0  0  0  0  0  3  0  0  0  0  0  0
  -25.8780  -32.5360   23.8760 C   0  0  0  0  0  3  0  0  0  0  0  0
  -26.3860  -31.7730   25.1610 C   0  0  1  0  0  0  0  0  0  0  0  0
  -25.2850  -31.5430   26.2240 C   0  0  0  0  0  1  0  0  0  0  0  0
  -26.9700  -30.3920   24.7840 C   0  0  0  0  0  1  0  0  0  0  0  0
  -27.5310  -32.5710   25.8260 C   0  0  0  0  0  1  0  0  0  0  0  0
  -25.5650  -33.9360   24.1970 N   0  0  0  0  0  0  0  0  0  0  0  0
  -25.8970  -34.9850   23.4340 C   0  0  0  0  0  0  0  0  0  0  0  0
  -26.5680  -34.8770   22.4040 O   0  0  0  0  0  0  0  0  0  0  0  0
  -24.9690  -34.0940   24.9960 H   0  0  0  0  0  0  0  0  0  0  0  0
  -24.1710  -36.7780   23.0670 C   0  0  0  0  0  1  0  0  0  0  0  0
  -25.4090  -36.3760   23.8840 C   0  0  0  0  0  3  0  0  0  0  0  0
  -27.5400  -37.2660   24.7180 C   0  0  0  0  0  1  0  0  0  0  0  0
  -26.4420  -37.4290   23.7690 N   0  0  0  0  0  0  0  0  0  0  0  0
  -26.0350  -38.3500   23.9110 H   0  0  0  0  0  0  0  0  0  0  0  0
  2  1  1  0
  2  7  1  0
  2 48  1  0
  4  3  1  0
  5  7  2  0
  5  8  1  0
  6  9  1  0
  6  3  2  0
  7  6  1  0
  8  4  2  0
 10 18  1  0
 11 16  1  0
 12 13  1  0
 12 11  1  0
 14 13  1  0
 14 23  1  0
 14 15  1  0
 16 10  1  0
 16 15  1  0
 17 10  2  0
 18 19  1  0
 18  8  1  0
 20 21  2  0
 21 40  1  0
 22 21  1  0
 22 25  1  0
 23 20  1  0
 23 24  1  0
 24 22  2  0
 25 26  1  0
 26 27  2  0
 28 31  1  0
 28 27  1  0
 29 28  2  0
 30 29  1  0
 30 25  2  0
 31 32  1  0
 32 33  1  0
 33 34  2  0
 35 34  1  0
 35 39  1  0
 36 35  2  0
 37 32  2  0
 37 36  1  0
 38 37  1  0
 40 41  1  0
 41 44  1  0
 41 43  1  0
 42 40  2  0
 45 46  1  0
 45 20  1  0
 47 45  1  0
 48 50  1  0
 48 49  1  0
 51 48  1  0
 51 52  2  0
 53 52  1  0
 54 65  2  0
 55 53  1  0
 55 60  1  0
 56 64  1  0
 56 66  1  0
 57 63  1  0
 57 59  1  0
 58 64  1  0
 59 60  2  0
 59 58  1  0
 61 55  2  0
 62 61  1  0
 62 57  2  0
 63 56  1  0
 64 54  1  0
 66 68  2  0
 67 66  1  0
 69 67  1  0
 70 79  2  0
 70 75  1  0
 71 67  1  0
 71 75  1  0
 72 71  1  0
 73 74  1  0
 73 72  1  0
 74 70  1  0
 75 76  2  0
 76 77  1  0
 78 77  2  0
 79 78  1  0
 80 54  1  0
 80 85  1  0
 80 81  1  0
 81 84  1  1
 81 82  1  0
 83 81  1  0
 85 88  1  0
 86 90  1  0
 86 85  1  0
 87 86  2  0
 90 89  1  0
 92 90  1  0
 92 93  1  0
 92 91  1  0
M  ISO  4  10 100  18 100  52 101  53 101
M  END
>  <TORSDO>  (8) 
F 20

>  <SCORE>  (8) 
-13.997

>  <name>  (8) 
7

>  <ligand_id>  (8) 
7

>  <original_smiles>  (8) 
[H]c1c([H])c([H])c2c(c1[H])C([H])([H])C([H])([H])C([H])([H])C2([H])N([H])C(=O)C1([H])N(C(=O)C([H])(N([H])C(=O)C([H])(N([H])C([H])([H])[H])C([H])([H])[H])C(C([H])([H])[H])(C([H])([H])[H])C([H])([H])[H])C([H])([H])c2c([H])c(OC([H])([H])C([H])([H])[N+]([H])([H])C([H])(c3c([H])c(N([H])C(=O)N4C([H])([H])C([H])([H])C([H])([H])C([H])(n5nc(-c6c([H])c([H])c(Oc7c([H])c([H])c(F)c([H])c7F)c([H])c6[H])c(C(=O)N([H])[H])c5N([H])[H])C4([H])[H])c([H])c([H])c3C([H])([H])[H])C([H])([H])[H])c([H])c([H])c2C1([H])[H]

>  <smiles>  (8) 
[H]c1c([H])c([H])c2c(c1[H])C([H])([H])C([H])([H])C([H])([H])C2([H])N([H])C(=O)C1([H])N(C(=O)C([H])(N([H])C(=O)C([H])(N([H])C([H])([H])[H])C([H])([H])[H])C(C([H])([H])[H])(C([H])([H])[H])C([H])([H])[H])C([H])([H])c2c([H])c(OC([H])([H])C([H])([H])[N+]([H])([H])C([H])(c3c([H])c(N([H])C(=O)N4C([H])([H])C([H])([H])C([H])([H])C([H])(n5nc(-c6c([H])c([H])c(Oc7c([H])c([H])c(F)c([H])c7F)c([H])c6[H])c(C(=O)N([H])[H])c5N([H])[H])C4([H])[H])c([H])c([H])c3C([H])([H])[H])C([H])([H])[H])c([H])c([H])c2C1([H])[H]

$$$$
8:0:0
     RDKit          3D

 91 99  0  0  1  0  0  0  0  0999 V2000
  -29.0380  -20.2420   21.4350 C   0  0  0  0  0  3  0  0  0  0  0  0
  -29.5300  -18.9190   21.2060 C   0  0  0  0  0  3  0  0  0  0  0  0
  -29.1810  -20.7130   19.0790 C   0  0  0  0  0  3  0  0  0  0  0  0
  -28.8540  -21.1720   20.3700 C   0  0  0  0  0  0  0  0  0  0  0  0
  -29.8220  -18.4570   19.9020 C   0  0  0  0  0  0  0  0  0  0  0  0
  -29.6420  -19.3930   18.8360 C   0  0  0  0  0  0  0  0  0  0  0  0
  -29.9620  -19.0480   17.3900 C   0  0  0  0  0  1  0  0  0  0  0  0
  -28.1270  -22.5500   20.5280 C   0  0  0  0  0  2  0  0  0  0  0  0
  -30.2980  -24.0590   20.5690 C   0  0  0  0  0  1  0  0  0  0  0  0
  -28.8420  -23.8800   21.0270 C   0  0  0  0  0  3  0  0  0  0  0  0
  -27.9270  -25.1950   20.9090 C   0  0  0  0  0  2  0  0  0  0  0  0
  -28.3290  -26.4860   20.2830 O   0  0  0  0  0  0  0  0  0  0  0  0
  -24.5980  -31.8970   23.2120 C   0  0  0  0  0  0  0  0  0  0  0  0
  -27.2630  -27.3910   20.1660 C   0  0  0  0  0  0  0  0  0  0  0  0
  -23.4190  -30.5010   21.5510 C   0  0  0  0  0  3  0  0  0  0  0  0
  -24.8930  -28.9870   20.1150 C   0  0  0  0  0  0  0  0  0  0  0  0
  -25.9560  -30.8480   21.3850 C   0  0  0  0  0  2  0  0  0  0  0  0
  -26.0540  -29.4730   20.7360 C   0  0  0  0  0  0  0  0  0  0  0  0
  -27.2400  -28.6820   20.7630 C   0  0  0  0  0  3  0  0  0  0  0  0
  -26.1050  -26.9760   19.4710 C   0  0  0  0  0  3  0  0  0  0  0  0
  -24.9240  -27.7380   19.4710 C   0  0  0  0  0  3  0  0  0  0  0  0
  -23.6460  -29.8470   20.1670 C   0  0  0  0  0  2  0  0  0  0  0  0
  -24.6770  -31.1000   22.1060 N   0  0  0  0  0  0  0  0  0  0  0  0
  -23.5070  -32.1560   23.7440 O   0  0  0  0  0  0  0  0  0  0  0  0
  -22.7630  -29.4620   22.4930 C   0  0  0  0  0  0  0  0  0  0  0  0
  -21.4370  -29.2810   22.3690 N   0  0  0  0  0  0  0  0  0  0  0  0
  -23.4480  -28.8310   23.3010 O   0  0  0  0  0  0  0  0  0  0  0  0
  -20.9370  -29.8610   21.7070 H   0  0  0  0  0  0  0  0  0  0  0  0
  -18.0600  -28.0850   22.8870 C   0  0  0  0  0  0  0  0  0  0  0  0
  -20.6210  -28.3410   23.1390 C   0  0  0  0  0  3  0  0  0  0  0  0
  -20.7060  -26.9120   22.5670 C   0  0  0  0  0  2  0  0  0  0  0  0
  -19.6060  -26.5980   21.5490 C   0  0  0  0  0  2  0  0  0  0  0  0
  -18.2290  -26.7400   22.2000 C   0  0  0  0  0  2  0  0  0  0  0  0
  -19.1860  -28.8450   23.3160 C   0  0  0  0  0  0  0  0  0  0  0  0
  -18.9730  -30.0950   23.9330 C   0  0  0  0  0  3  0  0  0  0  0  0
  -17.6660  -30.5840   24.1270 C   0  0  0  0  0  3  0  0  0  0  0  0
  -16.5570  -29.8300   23.7140 C   0  0  0  0  0  3  0  0  0  0  0  0
  -16.7550  -28.5810   23.0920 C   0  0  0  0  0  3  0  0  0  0  0  0
  -25.8700  -32.5380   23.8470 C   0  0  0  0  0  3  0  0  0  0  0  0
  -26.3760  -31.7860   25.1400 C   0  0  1  0  0  0  0  0  0  0  0  0
  -25.2660  -31.5390   26.1890 C   0  0  0  0  0  1  0  0  0  0  0  0
  -26.9730  -30.4110   24.7670 C   0  0  0  0  0  1  0  0  0  0  0  0
  -27.5050  -32.5950   25.8150 C   0  0  0  0  0  1  0  0  0  0  0  0
  -25.5500  -33.9400   24.1590 N   0  0  0  0  0  0  0  0  0  0  0  0
  -25.8930  -34.9880   23.3980 C   0  0  0  0  0  0  0  0  0  0  0  0
  -26.5850  -34.8820   22.3810 O   0  0  0  0  0  0  0  0  0  0  0  0
  -24.9430  -34.0980   24.9520 H   0  0  0  0  0  0  0  0  0  0  0  0
  -24.1810  -36.7860   22.9750 C   0  0  0  0  0  1  0  0  0  0  0  0
  -25.3910  -36.3820   23.8350 C   0  0  0  0  0  3  0  0  0  0  0  0
  -27.4920  -37.2700   24.7480 C   0  0  0  0  0  1  0  0  0  0  0  0
  -26.4310  -37.4330   23.7570 N   0  0  0  0  0  0  0  0  0  0  0  0
  -26.0200  -38.3540   23.8780 H   0  0  0  0  0  0  0  0  0  0  0  0
  -30.4930  -17.0660   19.6330 C   0  0  0  0  0  2  0  0  0  0  0  0
  -30.8250  -14.6660   20.0890 C   0  0  0  0  0  0  0  0  0  0  0  0
  -30.4890  -12.4610   19.0430 C   0  0  0  0  0  2  0  0  0  0  0  0
  -29.5220  -12.6600   17.8590 C   0  0  0  0  0  2  0  0  0  0  0  0
  -28.0610  -12.5260   18.3270 C   0  0  0  0  0  2  0  0  0  0  0  0
  -27.7560  -13.3570   19.6070 C   0  0  0  0  0  3  0  0  0  0  0  0
  -28.8550  -13.1940   20.6830 C   0  0  0  0  0  2  0  0  0  0  0  0
  -30.1510  -13.4810   20.0490 N   0  0  0  0  0  0  0  0  0  0  0  0
  -31.9860  -14.7540   19.6780 O   0  0  0  0  0  0  0  0  0  0  0  0
  -30.0960  -15.7950   20.3080 N   0  0  0  0  0  0  0  0  0  0  0  0
  -29.1400  -15.6770   20.6140 H   0  0  0  0  0  0  0  0  0  0  0  0
  -25.3980  -13.9230   20.4560 C   0  0  0  0  0  0  0  0  0  0  0  0
  -24.3480  -13.1390   20.8610 C   0  0  0  0  0  0  0  0  0  0  0  0
  -24.8070  -11.7920   20.7670 C   0  0  0  0  0  0  0  0  0  0  0  0
  -26.4320  -13.0560   20.1480 N   0  0  0  0  0  0  0  0  0  0  0  0
  -26.0830  -11.7650   20.3920 N   0  0  0  0  0  0  0  0  0  0  0  0
  -24.0900  -10.5260   20.9660 C   0  0  0  0  0  0  0  0  0  0  0  0
  -24.5300   -9.5620   21.9000 C   0  0  0  0  0  3  0  0  0  0  0  0
  -23.8140   -8.3580   22.0800 C   0  0  0  0  0  3  0  0  0  0  0  0
  -22.6410   -8.1100   21.3270 C   0  0  0  0  0  0  0  0  0  0  0  0
  -22.2210   -9.0610   20.3800 C   0  0  0  0  0  3  0  0  0  0  0  0
  -22.9380  -10.2570   20.1990 C   0  0  0  0  0  3  0  0  0  0  0  0
  -21.8980   -6.9570   21.4160 O   0  0  0  0  0  0  0  0  0  0  0  0
  -21.8150   -6.2450   22.5840 C   0  0  0  0  0  0  0  0  0  0  0  0
  -21.2920   -6.8100   23.7680 C   0  0  0  0  0  3  0  0  0  0  0  0
  -21.1590   -6.0220   24.9280 C   0  0  0  0  0  3  0  0  0  0  0  0
  -21.5410   -4.6660   24.9060 C   0  0  0  0  0  0  0  0  0  0  0  0
  -22.0510   -4.0970   23.7260 C   0  0  0  0  0  3  0  0  0  0  0  0
  -22.1880   -4.8850   22.5690 C   0  0  0  0  0  0  0  0  0  0  0  0
  -22.6630   -4.3290   21.4280 F   0  0  0  0  0  0  0  0  0  0  0  0
  -21.4040   -3.9030   26.0160 F   0  0  0  0  0  0  0  0  0  0  0  0
  -22.9690  -13.6140   21.2130 C   0  0  0  0  0  0  0  0  0  0  0  0
  -22.2760  -12.8880   22.0890 N   0  0  0  0  0  0  0  0  0  0  0  0
  -22.5110  -14.6570   20.7510 O   0  0  0  0  0  0  0  0  0  0  0  0
  -22.6560  -12.0430   22.4850 H   0  0  0  0  0  0  0  0  0  0  0  0
  -21.3530  -13.1880   22.3660 H   0  0  0  0  0  0  0  0  0  0  0  0
  -25.5490  -15.2990   20.3090 N   0  0  0  0  0  0  0  0  0  0  0  0
  -24.7780  -15.9390   20.4720 H   0  0  0  0  0  0  0  0  0  0  0  0
  -26.3730  -15.7590   19.9460 H   0  0  0  0  0  0  0  0  0  0  0  0
  2  1  1  0
  3  4  1  0
  4  8  1  0
  4  1  2  0
  5  2  2  0
  6  3  2  0
  6  5  1  0
  7  6  1  0
  8 10  1  0
 10  9  1  0
 11 10  1  0
 12 11  1  0
 13 24  2  0
 14 12  1  0
 14 19  1  0
 15 23  1  0
 15 25  1  0
 16 22  1  0
 16 18  1  0
 17 23  1  0
 18 19  2  0
 18 17  1  0
 20 14  2  0
 21 20  1  0
 21 16  2  0
 22 15  1  0
 23 13  1  0
 25 27  2  0
 26 25  1  0
 28 26  1  0
 29 38  2  0
 29 34  1  0
 30 26  1  0
 30 34  1  0
 31 30  1  0
 32 33  1  0
 32 31  1  0
 33 29  1  0
 34 35  2  0
 35 36  1  0
 37 36  2  0
 38 37  1  0
 39 13  1  0
 39 44  1  0
 39 40  1  0
 40 43  1  1
 40 41  1  0
 42 40  1  0
 44 47  1  0
 45 49  1  0
 45 44  1  0
 46 45  2  0
 49 48  1  0
 51 49  1  0
 51 52  1  0
 51 50  1  0
 53  5  1  0
 53 62  1  0
 54 62  1  0
 55 60  1  0
 56 57  1  0
 56 55  1  0
 58 57  1  0
 58 67  1  0
 58 59  1  0
 60 54  1  0
 60 59  1  0
 61 54  2  0
 62 63  1  0
 64 65  2  0
 65 84  1  0
 66 65  1  0
 66 69  1  0
 67 68  1  0
 67 64  1  0
 68 66  2  0
 69 70  1  0
 70 71  2  0
 72 75  1  0
 72 71  1  0
 73 72  2  0
 74 73  1  0
 74 69  2  0
 75 76  1  0
 76 77  1  0
 77 78  2  0
 79 78  1  0
 79 83  1  0
 80 79  2  0
 81 76  2  0
 81 80  1  0
 82 81  1  0
 84 85  1  0
 85 88  1  0
 85 87  1  0
 86 84  2  0
 89 64  1  0
 89 90  1  0
 91 89  1  0
M  ISO  4  11 101  12 101  54 100  62 100
M  END
>  <TORSDO>  (9) 
F 20

>  <SCORE>  (9) 
-13.313

>  <name>  (9) 
8

>  <ligand_id>  (9) 
8

>  <original_smiles>  (9) 
[H]c1c([H])c([H])c2c(c1[H])C([H])([H])C([H])([H])C([H])([H])C2([H])N([H])C(=O)C1([H])N(C(=O)C([H])(N([H])C(=O)C([H])(N([H])C([H])([H])[H])C([H])([H])[H])C(C([H])([H])[H])(C([H])([H])[H])C([H])([H])[H])C([H])([H])c2c([H])c(OC([H])([H])C([H])(C([H])([H])[H])C([H])([H])c3c([H])c([H])c(C([H])([H])N([H])C(=O)N4C([H])([H])C([H])([H])C([H])([H])C([H])(n5nc(-c6c([H])c([H])c(Oc7c([H])c([H])c(F)c([H])c7F)c([H])c6[H])c(C(=O)N([H])[H])c5N([H])[H])C4([H])[H])c(C([H])([H])[H])c3[H])c([H])c([H])c2C1([H])[H]

>  <smiles>  (9) 
[H]c1c([H])c([H])c2c(c1[H])C([H])([H])C([H])([H])C([H])([H])C2([H])N([H])C(=O)C1([H])N(C(=O)C([H])(N([H])C(=O)C([H])(N([H])C([H])([H])[H])C([H])([H])[H])C(C([H])([H])[H])(C([H])([H])[H])C([H])([H])[H])C([H])([H])c2c([H])c(OC([H])([H])C([H])(C([H])([H])[H])C([H])([H])c3c([H])c([H])c(C([H])([H])N([H])C(=O)N4C([H])([H])C([H])([H])C([H])([H])C([H])(n5nc(-c6c([H])c([H])c(Oc7c([H])c([H])c(F)c([H])c7F)c([H])c6[H])c(C(=O)N([H])[H])c5N([H])[H])C4([H])[H])c(C([H])([H])[H])c3[H])c([H])c([H])c2C1([H])[H]

$$$$
9:0:0
     RDKit          3D

 92100  0  0  1  0  0  0  0  0999 V2000
  -30.0580  -21.9840   18.5980 C   0  0  0  0  0  3  0  0  0  0  0  0
  -30.7510  -20.8400   18.1380 C   0  0  0  0  0  3  0  0  0  0  0  0
  -29.1490  -21.9440   19.6750 C   0  0  0  0  0  0  0  0  0  0  0  0
  -29.0510  -20.5780   20.3000 C   0  0  0  0  0  0  0  0  0  0  0  0
  -29.7890  -19.3410   19.8490 C   0  0  0  0  0  0  0  0  0  0  0  0
  -30.6190  -19.5650   18.7300 C   0  0  0  0  0  0  0  0  0  0  0  0
  -28.1320  -20.4210   21.4950 C   0  0  0  0  0  1  0  0  0  0  0  0
  -31.3580  -18.5440   18.2320 F   0  0  0  0  0  0  0  0  0  0  0  0
  -28.2350  -23.3430   19.8400 C   0  0  0  0  0  2  0  0  0  0  0  0
  -30.0560  -24.8010   20.9480 C   0  0  0  0  0  1  0  0  0  0  0  0
  -27.7460  -24.8940   21.8640 C   0  0  0  0  0  1  0  0  0  0  0  0
  -28.5710  -24.8540   20.5640 C   0  0  2  0  0  0  0  0  0  0  0  0
  -28.4700  -26.3290   20.0080 O   0  0  0  0  0  0  0  0  0  0  0  0
  -24.7450  -31.8920   23.2250 C   0  0  0  0  0  0  0  0  0  0  0  0
  -27.3700  -27.2680   20.0860 C   0  0  0  0  0  0  0  0  0  0  0  0
  -23.5650  -30.5360   21.5400 C   0  0  0  0  0  3  0  0  0  0  0  0
  -25.0300  -29.0030   20.0850 C   0  0  0  0  0  0  0  0  0  0  0  0
  -26.1180  -30.8210   21.3940 C   0  0  0  0  0  2  0  0  0  0  0  0
  -26.2050  -29.4440   20.7080 C   0  0  0  0  0  0  0  0  0  0  0  0
  -27.3780  -28.5960   20.6820 C   0  0  0  0  0  3  0  0  0  0  0  0
  -26.1690  -26.9250   19.4380 C   0  0  0  0  0  3  0  0  0  0  0  0
  -25.0260  -27.7580   19.4350 C   0  0  0  0  0  3  0  0  0  0  0  0
  -23.7990  -29.8940   20.1460 C   0  0  0  0  0  2  0  0  0  0  0  0
  -24.8310  -31.1040   22.1090 N   0  0  0  0  0  0  0  0  0  0  0  0
  -23.6540  -32.1510   23.7550 O   0  0  0  0  0  0  0  0  0  0  0  0
  -22.8890  -29.4980   22.4710 C   0  0  0  0  0  0  0  0  0  0  0  0
  -21.5610  -29.3290   22.3410 N   0  0  0  0  0  0  0  0  0  0  0  0
  -23.5630  -28.8470   23.2740 O   0  0  0  0  0  0  0  0  0  0  0  0
  -21.0730  -29.9050   21.6690 H   0  0  0  0  0  0  0  0  0  0  0  0
  -18.1800  -28.1150   22.8150 C   0  0  0  0  0  0  0  0  0  0  0  0
  -20.7410  -28.3630   23.0790 C   0  0  0  0  0  3  0  0  0  0  0  0
  -20.8380  -26.9550   22.4490 C   0  0  0  0  0  2  0  0  0  0  0  0
  -19.7310  -26.6720   21.4300 C   0  0  0  0  0  2  0  0  0  0  0  0
  -18.3530  -26.7930   22.0850 C   0  0  0  0  0  2  0  0  0  0  0  0
  -19.3030  -28.8600   23.2680 C   0  0  0  0  0  0  0  0  0  0  0  0
  -19.0870  -30.0980   23.9120 C   0  0  0  0  0  3  0  0  0  0  0  0
  -17.7840  -30.5910   24.1080 C   0  0  0  0  0  3  0  0  0  0  0  0
  -16.6760  -29.8440   23.6710 C   0  0  0  0  0  3  0  0  0  0  0  0
  -16.8750  -28.6060   23.0310 C   0  0  0  0  0  3  0  0  0  0  0  0
  -26.0140  -32.5200   23.8800 C   0  0  0  0  0  3  0  0  0  0  0  0
  -26.4970  -31.7430   25.1660 C   0  0  1  0  0  0  0  0  0  0  0  0
  -25.3780  -31.5080   26.2080 C   0  0  0  0  0  1  0  0  0  0  0  0
  -27.0820  -30.3630   24.7860 C   0  0  0  0  0  1  0  0  0  0  0  0
  -27.6370  -32.5280   25.8560 C   0  0  0  0  0  1  0  0  0  0  0  0
  -25.7010  -33.9190   24.2150 N   0  0  0  0  0  0  0  0  0  0  0  0
  -26.0540  -34.9800   23.4780 C   0  0  0  0  0  0  0  0  0  0  0  0
  -26.7420  -34.8840   22.4580 O   0  0  0  0  0  0  0  0  0  0  0  0
  -25.0960  -34.0670   25.0090 H   0  0  0  0  0  0  0  0  0  0  0  0
  -24.3500  -36.7950   23.1100 C   0  0  0  0  0  1  0  0  0  0  0  0
  -25.5680  -36.3680   23.9440 C   0  0  0  0  0  3  0  0  0  0  0  0
  -27.6850  -37.2310   24.8410 C   0  0  0  0  0  1  0  0  0  0  0  0
  -26.6110  -37.4150   23.8680 N   0  0  0  0  0  0  0  0  0  0  0  0
  -26.2070  -38.3370   24.0120 H   0  0  0  0  0  0  0  0  0  0  0  0
  -29.9640  -17.8520   20.5900 C   0  0  0  0  0  2  0  0  0  0  0  0
  -30.5610  -15.1690   19.9510 C   0  0  0  0  0  0  0  0  0  0  0  0
  -30.4220  -12.8220   18.9660 C   0  0  0  0  0  2  0  0  0  0  0  0
  -29.4120  -12.7530   17.7980 C   0  0  0  0  0  2  0  0  0  0  0  0
  -27.9800  -12.5220   18.3210 C   0  0  0  0  0  2  0  0  0  0  0  0
  -27.6340  -13.4350   19.5240 C   0  0  0  0  0  3  0  0  0  0  0  0
  -28.7580  -13.4560   20.5800 C   0  0  0  0  0  2  0  0  0  0  0  0
  -29.9720  -13.9040   19.8860 N   0  0  0  0  0  0  0  0  0  0  0  0
  -31.7710  -15.2300   19.7090 O   0  0  0  0  0  0  0  0  0  0  0  0
  -29.7570  -16.3470   20.0900 N   0  0  0  0  0  0  0  0  0  0  0  0
  -28.7790  -16.1050   20.0780 H   0  0  0  0  0  0  0  0  0  0  0  0
  -25.3090  -13.9940   20.4300 C   0  0  0  0  0  0  0  0  0  0  0  0
  -24.2680  -13.2090   20.8410 C   0  0  0  0  0  0  0  0  0  0  0  0
  -24.7280  -11.8590   20.7480 C   0  0  0  0  0  0  0  0  0  0  0  0
  -26.3330  -13.1220   20.1010 N   0  0  0  0  0  0  0  0  0  0  0  0
  -25.9990  -11.8310   20.3600 N   0  0  0  0  0  0  0  0  0  0  0  0
  -24.0120  -10.5920   20.9440 C   0  0  0  0  0  0  0  0  0  0  0  0
  -24.4680   -9.6200   21.8620 C   0  0  0  0  0  3  0  0  0  0  0  0
  -23.7490   -8.4190   22.0490 C   0  0  0  0  0  3  0  0  0  0  0  0
  -22.5600   -8.1820   21.3180 C   0  0  0  0  0  0  0  0  0  0  0  0
  -22.1240   -9.1440   20.3880 C   0  0  0  0  0  3  0  0  0  0  0  0
  -22.8430  -10.3350   20.1990 C   0  0  0  0  0  3  0  0  0  0  0  0
  -21.8100   -7.0350   21.4150 O   0  0  0  0  0  0  0  0  0  0  0  0
  -21.7600   -6.3060   22.5760 C   0  0  0  0  0  0  0  0  0  0  0  0
  -21.2800   -6.8590   23.7830 C   0  0  0  0  0  3  0  0  0  0  0  0
  -21.1790   -6.0540   24.9350 C   0  0  0  0  0  3  0  0  0  0  0  0
  -21.5460   -4.6950   24.8800 C   0  0  0  0  0  0  0  0  0  0  0  0
  -22.0170   -4.1410   23.6780 C   0  0  0  0  0  3  0  0  0  0  0  0
  -22.1200   -4.9430   22.5280 C   0  0  0  0  0  0  0  0  0  0  0  0
  -22.5550   -4.3990   21.3660 F   0  0  0  0  0  0  0  0  0  0  0  0
  -21.4420   -3.9200   25.9840 F   0  0  0  0  0  0  0  0  0  0  0  0
  -22.8890  -13.6790   21.2040 C   0  0  0  0  0  0  0  0  0  0  0  0
  -22.2080  -12.9550   22.0840 N   0  0  0  0  0  0  0  0  0  0  0  0
  -22.4280  -14.7210   20.7420 O   0  0  0  0  0  0  0  0  0  0  0  0
  -22.5950  -12.1100   22.4770 H   0  0  0  0  0  0  0  0  0  0  0  0
  -21.2850  -13.2500   22.3720 H   0  0  0  0  0  0  0  0  0  0  0  0
  -25.4610  -15.3690   20.2790 N   0  0  0  0  0  0  0  0  0  0  0  0
  -24.6970  -16.0140   20.4490 H   0  0  0  0  0  0  0  0  0  0  0  0
  -26.2720  -15.8200   19.8760 H   0  0  0  0  0  0  0  0  0  0  0  0
  1  3  1  0
  2  1  2  0
  2  6  1  0
  3  9  1  0
  3  4  2  0
  4  7  1  0
  5  4  1  0
  5 54  1  0
  6  5  2  0
  8  6  1  0
  9 12  1  0
 12 10  1  1
 12 11  1  0
 13 15  1  0
 13 12  1  0
 14 25  2  0
 15 20  1  0
 16 24  1  0
 16 26  1  0
 17 23  1  0
 17 19  1  0
 18 24  1  0
 19 18  1  0
 20 19  2  0
 21 15  2  0
 22 21  1  0
 22 17  2  0
 23 16  1  0
 24 14  1  0
 26 28  2  0
 27 26  1  0
 29 27  1  0
 30 39  2  0
 30 35  1  0
 31 27  1  0
 31 35  1  0
 32 31  1  0
 33 34  1  0
 33 32  1  0
 34 30  1  0
 35 36  2  0
 36 37  1  0
 38 37  2  0
 39 38  1  0
 40 14  1  0
 40 45  1  0
 40 41  1  0
 41 44  1  1
 41 42  1  0
 43 41  1  0
 45 48  1  0
 46 50  1  0
 46 45  1  0
 47 46  2  0
 50 49  1  0
 52 50  1  0
 52 53  1  0
 52 51  1  0
 55 63  1  0
 56 61  1  0
 57 58  1  0
 57 56  1  0
 59 58  1  0
 59 68  1  0
 59 60  1  0
 61 55  1  0
 61 60  1  0
 62 55  2  0
 63 54  1  0
 64 63  1  0
 65 66  2  0
 66 85  1  0
 67 66  1  0
 67 70  1  0
 68 69  1  0
 68 65  1  0
 69 67  2  0
 70 71  1  0
 71 72  2  0
 73 76  1  0
 73 72  1  0
 74 73  2  0
 75 74  1  0
 75 70  2  0
 76 77  1  0
 77 78  1  0
 78 79  2  0
 80 79  1  0
 80 84  1  0
 81 80  2  0
 82 77  2  0
 82 81  1  0
 83 82  1  0
 85 86  1  0
 86 89  1  0
 86 88  1  0
 87 85  2  0
 90 65  1  0
 90 91  1  0
 92 90  1  0
M  ISO  4  12 101  13 101  55 100  63 100
M  END
>  <TORSDO>  (10) 
F 19

>  <SCORE>  (10) 
-13.890

>  <name>  (10) 
9

>  <ligand_id>  (10) 
9

>  <original_smiles>  (10) 
[H]c1c([H])c([H])c2c(c1[H])C([H])([H])C([H])([H])C([H])([H])C2([H])N([H])C(=O)C1([H])N(C(=O)C([H])(N([H])C(=O)C([H])(N([H])C([H])([H])[H])C([H])([H])[H])C(C([H])([H])[H])(C([H])([H])[H])C([H])([H])[H])C([H])([H])c2c([H])c(OC(C([H])([H])[H])(C([H])([H])[H])C([H])([H])c3c([H])c([H])c(F)c(C([H])([H])N([H])C(=O)N4C([H])([H])C([H])([H])C([H])([H])C([H])(n5nc(-c6c([H])c([H])c(Oc7c([H])c([H])c(F)c([H])c7F)c([H])c6[H])c(C(=O)N([H])[H])c5N([H])[H])C4([H])[H])c3C([H])([H])[H])c([H])c([H])c2C1([H])[H]

>  <smiles>  (10) 
[H]c1c([H])c([H])c2c(c1[H])C([H])([H])C([H])([H])C([H])([H])C2([H])N([H])C(=O)C1([H])N(C(=O)C([H])(N([H])C(=O)C([H])(N([H])C([H])([H])[H])C([H])([H])[H])C(C([H])([H])[H])(C([H])([H])[H])C([H])([H])[H])C([H])([H])c2c([H])c(OC(C([H])([H])[H])(C([H])([H])[H])C([H])([H])c3c([H])c([H])c(F)c(C([H])([H])N([H])C(=O)N4C([H])([H])C([H])([H])C([H])([H])C([H])(n5nc(-c6c([H])c([H])c(Oc7c([H])c([H])c(F)c([H])c7F)c([H])c6[H])c(C(=O)N([H])[H])c5N([H])[H])C4([H])[H])c3C([H])([H])[H])c([H])c([H])c2C1([H])[H]

$$$$
10:0:0
     RDKit          3D

 97 94  0  0  1  0  0  0  0  0999 V2000
  -25.8290  -25.6490   22.3270 C   0  0  0  0  0 15  0  0  0  0  0  0
  -23.9670  -25.3590   19.8400 C   0  0  0  0  0 15  0  0  0  0  0  0
  -26.1840  -29.9360   23.0850 C   0  0  0  0  0  2  0  0  0  0  0  0
  -23.8910  -30.1910   19.9600 C   0  0  0  0  0 15  0  0  0  0  0  0
  -25.5890  -23.9510   20.8520 C   0  0  0  0  0 15  0  0  0  0  0  0
  -25.4660  -28.0120   22.4220 C   0  0  0  0  0 15  0  0  0  0  0  0
  -23.5480  -27.8990   19.4020 C   0  0  0  0  0  1  0  0  0  0  0  0
  -25.1680  -31.5140   21.3960 C   0  0  0  0  0  1  0  0  0  0  0  0
  -24.3590  -28.7390   20.1570 N   0  0  0  0  0  0  0  0  0  0  0  0
  -23.6080  -29.3450   20.4260 H   0  0  0  0  0  0  0  0  0  0  0  0
  -26.0820  -32.5160   20.7780 N   0  0  0  0  0  4  0  0  0  0  0  0
  -26.8520  -32.1200   20.2700 H   0  0  0  0  0  0  0  0  0  0  0  0
  -26.4590  -33.1250   21.4900 H   0  0  0  0  0  0  0  0  0  0  0  0
  -25.5690  -33.1100   20.1470 H   0  0  0  0  0  0  0  0  0  0  0  0
  -26.6360  -21.3280   20.4310 C   0  0  0  0  0 15  0  0  0  0  0  0
  -28.8730  -17.3700   20.1580 C   0  0  0  0  0  2  0  0  0  0  0  0
  -29.8710  -14.5090   19.2550 C   0  0  0  0  0  2  0  0  0  0  0  0
  -29.4040  -13.2840   18.2750 C   0  0  0  0  0  2  0  0  0  0  0  0
  -28.2820  -12.4280   18.8490 C   0  0  0  0  0  2  0  0  0  0  0  0
  -27.4860  -13.3980   19.7150 C   0  0  0  0  0  3  0  0  0  0  0  0
  -28.2680  -14.3870   20.6950 C   0  0  0  0  0  2  0  0  0  0  0  0
  -28.8300  -15.6550   19.9510 N   0  0  0  0  0  0  0  0  0  0  0  0
  -30.1670  -17.1420   20.0580 O   0  0  0  0  0  1  0  0  0  0  0  0
  -27.9360  -19.1950   20.3020 N   0  0  0  0  0  1  0  0  0  0  0  0
  -28.8340  -19.6550   20.3820 H   0  0  0  0  0  0  0  0  0  0  0  0
  -25.1910  -13.6530   20.5780 C   0  0  0  0  0  0  0  0  0  0  0  0
  -24.2160  -12.8050   20.9890 C   0  0  0  0  0  0  0  0  0  0  0  0
  -24.7630  -11.4860   20.9060 C   0  0  0  0  0  0  0  0  0  0  0  0
  -26.2750  -12.8630   20.2900 N   0  0  0  0  0  0  0  0  0  0  0  0
  -26.0430  -11.5390   20.5200 N   0  0  0  0  0  0  0  0  0  0  0  0
  -24.0970  -10.1900   21.1150 C   0  0  0  0  0  0  0  0  0  0  0  0
  -24.5480   -9.2650   22.0830 C   0  0  0  0  0  3  0  0  0  0  0  0
  -23.8570   -8.0500   22.2900 C   0  0  0  0  0  3  0  0  0  0  0  0
  -22.7020   -7.7490   21.5280 C   0  0  0  0  0  0  0  0  0  0  0  0
  -22.2700   -8.6630   20.5520 C   0  0  0  0  0  3  0  0  0  0  0  0
  -22.9610   -9.8690   20.3440 C   0  0  0  0  0  3  0  0  0  0  0  0
  -21.9850   -6.5820   21.6410 O   0  0  0  0  0  0  0  0  0  0  0  0
  -21.8510   -5.9300   22.8400 C   0  0  0  0  0  0  0  0  0  0  0  0
  -21.2610   -6.5500   23.9640 C   0  0  0  0  0  3  0  0  0  0  0  0
  -21.0800   -5.8210   25.1560 C   0  0  0  0  0  3  0  0  0  0  0  0
  -21.4790   -4.4730   25.2260 C   0  0  0  0  0  0  0  0  0  0  0  0
  -22.0620   -3.8520   24.1070 C   0  0  0  0  0  3  0  0  0  0  0  0
  -22.2440   -4.5780   22.9170 C   0  0  0  0  0  0  0  0  0  0  0  0
  -22.7860   -3.9680   21.8350 F   0  0  0  0  0  0  0  0  0  0  0  0
  -21.3000   -3.7700   26.3690 F   0  0  0  0  0  0  0  0  0  0  0  0
  -22.8210  -13.2200   21.3300 C   0  0  0  0  0  0  0  0  0  0  0  0
  -22.1730  -12.5010   22.2360 N   0  0  0  0  0  0  0  0  0  0  0  0
  -22.3220  -14.2300   20.8350 O   0  0  0  0  0  0  0  0  0  0  0  0
  -22.5980  -11.6890   22.6570 H   0  0  0  0  0  0  0  0  0  0  0  0
  -21.2390  -12.7670   22.5140 H   0  0  0  0  0  0  0  0  0  0  0  0
  -25.2430  -15.0320   20.3880 N   0  0  0  0  0  0  0  0  0  0  0  0
  -24.4360  -15.6310   20.5230 H   0  0  0  0  0  0  0  0  0  0  0  0
  -26.0420  -15.5170   20.0010 H   0  0  0  0  0  0  0  0  0  0  0  0
  -25.1160  -28.8300   18.5030 C   0  0  0  0  0  2  0  0  0  0  0  0
  -26.7180  -29.0180   17.9980 C   0  0  0  0  0  2  0  0  0  0  0  0
  -27.9490  -27.9270   17.9940 C   0  0  0  0  0  2  0  0  0  0  0  0
  -28.7530  -27.4010   19.1700 O   0  0  0  0  0  0  0  0  0  0  0  0
  -24.1620  -30.8330   24.0000 C   0  0  0  0  0  0  0  0  0  0  0  0
  -28.1310  -26.7590   20.1350 C   0  0  0  0  0  3  0  0  0  0  0  0
  -23.2270  -28.7850   22.5590 C   0  0  0  0  0  3  0  0  0  0  0  0
  -25.6810  -26.9970   20.6410 C   0  0  0  0  0  2  0  0  0  0  0  0
  -26.4150  -29.5920   21.2300 C   0  0  0  0  0  2  0  0  0  0  0  0
  -26.7680  -28.1500   20.7080 C   0  0  0  0  0  3  0  0  0  0  0  0
  -27.9720  -27.7460   21.0510 C   0  0  0  0  0  2  0  0  0  0  0  0
  -27.1670  -25.9570   19.5170 C   0  0  0  0  0  2  0  0  0  0  0  0
  -25.9660  -26.5080   19.4010 C   0  0  0  0  0  2  0  0  0  0  0  0
  -23.7490  -27.1330   21.9120 C   0  0  0  0  0  1  0  0  0  0  0  0
  -24.3550  -29.8460   22.7670 N   0  0  0  0  0  0  0  0  0  0  0  0
  -23.0720  -31.2170   24.4380 O   0  0  0  0  0  0  0  0  0  0  0  0
  -22.2870  -28.6450   23.5970 C   0  0  0  0  0  0  0  0  0  0  0  0
  -21.0610  -29.0710   23.3330 N   0  0  0  0  0  0  0  0  0  0  0  0
  -22.6790  -27.9560   24.5110 O   0  0  0  0  0  0  0  0  0  0  0  0
  -20.8950  -29.7000   22.5610 H   0  0  0  0  0  0  0  0  0  0  0  0
  -17.6320  -28.4280   22.7790 C   0  0  0  0  0  0  0  0  0  0  0  0
  -19.9820  -28.2230   23.7040 C   0  0  0  0  0  3  0  0  0  0  0  0
  -20.0580  -26.8680   22.9570 C   0  0  0  0  0  2  0  0  0  0  0  0
  -19.2740  -26.8610   21.6490 C   0  0  0  0  0  2  0  0  0  0  0  0
  -17.8050  -27.1500   21.9700 C   0  0  0  0  0  2  0  0  0  0  0  0
  -18.6900  -28.9690   23.5410 C   0  0  0  0  0  0  0  0  0  0  0  0
  -18.5380  -30.2040   24.2040 C   0  0  0  0  0  3  0  0  0  0  0  0
  -17.3090  -30.8790   24.1540 C   0  0  0  0  0  3  0  0  0  0  0  0
  -16.2320  -30.3120   23.4500 C   0  0  0  0  0  3  0  0  0  0  0  0
  -16.3960  -29.0950   22.7620 C   0  0  0  0  0  3  0  0  0  0  0  0
  -25.3760  -31.6440   24.8900 C   0  0  0  0  0  3  0  0  0  0  0  0
  -25.2840  -33.1480   24.8890 N   0  0  0  0  0  0  0  0  0  0  0  0
  -26.0960  -34.0610   24.2880 C   0  0  0  0  0  0  0  0  0  0  0  0
  -26.9550  -33.7430   23.4590 O   0  0  0  0  0  0  0  0  0  0  0  0
  -24.5410  -33.5220   25.4610 H   0  0  0  0  0  0  0  0  0  0  0  0
  -24.8160  -36.1410   23.6400 C   0  0  0  0  0  1  0  0  0  0  0  0
  -25.8770  -35.5700   24.5950 C   0  0  0  0  0  3  0  0  0  0  0  0
  -28.0500  -36.1970   25.5850 C   0  0  0  0  0  1  0  0  0  0  0  0
  -27.0980  -36.4120   24.4990 N   0  0  0  0  0  0  0  0  0  0  0  0
  -26.8570  -37.3990   24.4770 H   0  0  0  0  0  0  0  0  0  0  0  0
  -25.6780  -31.1790   26.4480 C   0  0  1  0  0  0  0  0  0  0  0  0
  -24.3780  -31.3160   27.2450 C   0  0  0  0  0  1  0  0  0  0  0  0
  -26.1970  -29.7630   26.8990 C   0  0  0  0  0  1  0  0  0  0  0  0
  -26.8060  -32.0380   27.0820 C   0  0  0  0  0  1  0  0  0  0  0  0
  7  9  1  0
  9 10  1  0
 11  8  1  0
 11 13  1  0
 12 11  1  0
 14 11  1  0
 17 22  1  0
 18 19  1  0
 18 17  1  0
 20 19  1  0
 20 29  1  0
 20 21  1  0
 22 16  1  0
 22 21  1  0
 23 16  1  0
 24 25  1  0
 26 27  2  0
 27 46  1  0
 28 27  1  0
 28 31  1  0
 29 30  1  0
 29 26  1  0
 30 28  2  0
 31 32  1  0
 32 33  2  0
 34 37  1  0
 34 33  1  0
 35 34  2  0
 36 35  1  0
 36 31  2  0
 37 38  1  0
 38 43  2  0
 38 39  1  0
 39 40  2  0
 40 41  1  0
 41 45  1  0
 42 41  2  0
 43 42  1  0
 44 43  1  0
 46 47  1  0
 47 50  1  0
 47 49  1  0
 48 46  2  0
 51 52  1  0
 51 26  1  0
 53 51  1  0
 54  9  1  0
 55 54  1  0
 56 55  1  0
 56 57  1  0
 58 69  2  0
 59 57  1  0
 59 64  1  0
 60 67  1  0
 60 68  1  0
 60 70  1  0
 61 63  1  0
 62  3  1  0
 63 64  1  0
 63 62  1  0
 65 59  1  0
 66 65  1  0
 66 61  1  0
 68  3  1  0
 68 58  1  0
 70 72  2  0
 71 70  1  0
 73 71  1  0
 74 79  1  0
 75 71  1  0
 76 75  1  0
 77 78  1  0
 77 76  1  0
 78 74  1  0
 79 75  1  0
 79 80  2  0
 81 80  1  0
 82 81  2  0
 83 74  2  0
 83 82  1  0
 84 58  1  0
 84 94  1  0
 85 84  1  0
 85 88  1  0
 86 90  1  0
 86 85  1  0
 87 86  2  0
 90 89  1  0
 92 90  1  0
 92 91  1  0
 93 92  1  0
 94 96  1  6
 94 97  1  0
 94 95  1  0
M  ISO  4  16 100  24 100  56 101  57 101
M  END
>  <TORSDO>  (11) 
F 21

>  <SCORE>  (11) 
-7.450

>  <name>  (11) 
10

>  <ligand_id>  (11) 
10

>  <original_smiles>  (11) 
[H]c1c([H])c([H])c2c(c1[H])C([H])([H])C([H])([H])C([H])([H])C2([H])N([H])C(=O)C1([H])N(C(=O)C([H])(N([H])C(=O)C([H])(N([H])C([H])([H])[H])C([H])([H])[H])C(C([H])([H])[H])(C([H])([H])[H])C([H])([H])[H])C([H])([H])c2c([H])c(OC([H])([H])C([H])([H])C([H])([H])[N+]3([H])C4([H])C([H])([H])C([H])(C([H])([H])N([H])C(=O)N5C([H])([H])C([H])([H])C([H])([H])C([H])(n6nc(-c7c([H])c([H])c(Oc8c([H])c([H])c(F)c([H])c8F)c([H])c7[H])c(C(=O)N([H])[H])c6N([H])[H])C5([H])[H])C([H])([H])C3([H])C([H])([H])C([H])([N+]([H])([H])[H])C4([H])[H])c([H])c([H])c2C1([H])[H]

>  <smiles>  (11) 
[H]c1c([H])c([H])c2c(c1[H])C([H])([H])C([H])([H])C([H])([H])C2([H])N([H])C(=O)C1([H])N(C(=O)C([H])(N([H])C(=O)C([H])(N([H])C([H])([H])[H])C([H])([H])[H])C(C([H])([H])[H])(C([H])([H])[H])C([H])([H])[H])C([H])([H])c2c([H])c(OC([H])([H])C([H])([H])C([H])([H])[N+]3([H])C4([H])C([H])([H])C([H])(C([H])([H])N([H])C(=O)N5C([H])([H])C([H])([H])C([H])([H])C([H])(n6nc(-c7c([H])c([H])c(Oc8c([H])c([H])c(F)c([H])c8F)c([H])c7[H])c(C(=O)N([H])[H])c6N([H])[H])C5([H])[H])C([H])([H])C3([H])C([H])([H])C([H])([N+]([H])([H])[H])C4([H])[H])c([H])c([H])c2C1([H])[H]

$$$$
11:0:0
     RDKit          3D

 96104  0  0  1  0  0  0  0  0999 V2000
  -29.1630  -21.3570   19.7420 C   0  0  0  0  0  2  0  0  0  0  0  0
  -29.0850  -18.9290   20.4750 C   0  0  0  0  0  3  0  0  0  0  0  0
  -31.8620  -18.6430   20.2910 C   0  0  0  0  0  3  0  0  0  0  0  0
  -29.6790  -17.6930   20.8070 C   0  0  0  0  0  0  0  0  0  0  0  0
  -31.2700  -19.8870   19.9800 C   0  0  0  0  0  0  0  0  0  0  0  0
  -29.8650  -20.0370   20.0750 C   0  0  0  0  0  0  0  0  0  0  0  0
  -31.0850  -17.5430   20.7100 C   0  0  0  0  0  0  0  0  0  0  0  0
  -28.7830  -16.5590   21.2830 C   0  0  0  0  0  1  0  0  0  0  0  0
  -32.1660  -21.0350   19.5460 C   0  0  0  0  0  1  0  0  0  0  0  0
  -31.7950  -16.2400   21.0770 C   0  0  0  0  0  2  0  0  0  0  0  0
  -31.3520  -14.2140   19.6850 C   0  0  0  0  0  0  0  0  0  0  0  0
  -30.7830  -12.0830   18.5760 C   0  0  0  0  0  2  0  0  0  0  0  0
  -29.7680  -12.2870   17.4370 C   0  0  0  0  0  2  0  0  0  0  0  0
  -28.3270  -12.2530   17.9790 C   0  0  0  0  0  2  0  0  0  0  0  0
  -28.1330  -13.1820   19.2060 C   0  0  0  0  0  3  0  0  0  0  0  0
  -29.2450  -12.9470   20.2520 C   0  0  0  0  0  2  0  0  0  0  0  0
  -30.5550  -13.1190   19.5940 N   0  0  0  0  0  0  0  0  0  0  0  0
  -32.3160  -14.4180   18.9390 O   0  0  0  0  0  0  0  0  0  0  0  0
  -31.0620  -15.0360   20.7000 N   0  0  0  0  0  0  0  0  0  0  0  0
  -30.2870  -14.7690   21.2870 H   0  0  0  0  0  0  0  0  0  0  0  0
  -25.8610  -13.9900   20.1120 C   0  0  0  0  0  0  0  0  0  0  0  0
  -24.7620  -13.3090   20.5630 C   0  0  0  0  0  0  0  0  0  0  0  0
  -25.0970  -11.9230   20.4820 C   0  0  0  0  0  0  0  0  0  0  0  0
  -26.8020  -13.0240   19.7900 N   0  0  0  0  0  0  0  0  0  0  0  0
  -26.3480  -11.7740   20.0660 N   0  0  0  0  0  0  0  0  0  0  0  0
  -24.2800  -10.7260   20.7220 C   0  0  0  0  0  0  0  0  0  0  0  0
  -24.6540   -9.7550   21.6780 C   0  0  0  0  0  3  0  0  0  0  0  0
  -23.8430   -8.6230   21.9030 C   0  0  0  0  0  3  0  0  0  0  0  0
  -22.6420   -8.4520   21.1740 C   0  0  0  0  0  0  0  0  0  0  0  0
  -22.2870   -9.4090   20.2060 C   0  0  0  0  0  3  0  0  0  0  0  0
  -23.0980  -10.5330   19.9790 C   0  0  0  0  0  3  0  0  0  0  0  0
  -21.8060   -7.3710   21.3060 O   0  0  0  0  0  0  0  0  0  0  0  0
  -21.6610   -6.7150   22.5030 C   0  0  0  0  0  0  0  0  0  0  0  0
  -21.2290   -7.3830   23.6700 C   0  0  0  0  0  3  0  0  0  0  0  0
  -21.0270   -6.6570   24.8620 C   0  0  0  0  0  3  0  0  0  0  0  0
  -21.2460   -5.2660   24.8850 C   0  0  0  0  0  0  0  0  0  0  0  0
  -21.6710   -4.6010   23.7220 C   0  0  0  0  0  3  0  0  0  0  0  0
  -21.8750   -5.3230   22.5350 C   0  0  0  0  0  0  0  0  0  0  0  0
  -22.2620   -4.6730   21.4110 F   0  0  0  0  0  0  0  0  0  0  0  0
  -21.0440   -4.5670   26.0270 F   0  0  0  0  0  0  0  0  0  0  0  0
  -23.4400  -13.9020   20.9560 C   0  0  0  0  0  0  0  0  0  0  0  0
  -22.7380  -13.2690   21.8910 N   0  0  0  0  0  0  0  0  0  0  0  0
  -23.0430  -14.9610   20.4710 O   0  0  0  0  0  0  0  0  0  0  0  0
  -23.0700  -12.4100   22.3030 H   0  0  0  0  0  0  0  0  0  0  0  0
  -21.8520  -13.6480   22.1940 H   0  0  0  0  0  0  0  0  0  0  0  0
  -26.1320  -15.3430   19.9310 N   0  0  0  0  0  0  0  0  0  0  0  0
  -25.4370  -16.0610   20.1040 H   0  0  0  0  0  0  0  0  0  0  0  0
  -26.9900  -15.7070   19.5390 H   0  0  0  0  0  0  0  0  0  0  0  0
  -28.4700  -21.9640   22.1450 C   0  0  0  0  0  1  0  0  0  0  0  0
  -29.2030  -22.4230   20.8710 C   0  0  0  0  0  3  0  0  0  0  0  0
  -28.6470  -23.7210   20.4120 N   0  0  0  0  0  4  0  0  0  0  0  0
  -27.8080  -23.5520   19.8770 H   0  0  0  0  0  0  0  0  0  0  0  0
  -28.3740  -24.2460   21.2290 H   0  0  0  0  0  0  0  0  0  0  0  0
  -29.5820  -24.5820   19.6460 C   0  0  0  0  0  2  0  0  0  0  0  0
  -28.8860  -25.8340   19.0840 C   0  0  0  0  0  2  0  0  0  0  0  0
  -28.4960  -26.6850   20.1680 O   0  0  0  0  0  0  0  0  0  0  0  0
  -24.5460  -31.7890   23.1360 C   0  0  0  0  0  0  0  0  0  0  0  0
  -27.2950  -27.3640   20.1160 C   0  0  0  0  0  0  0  0  0  0  0  0
  -23.3850  -30.3750   21.4720 C   0  0  0  0  0  3  0  0  0  0  0  0
  -24.8800  -28.8390   20.0890 C   0  0  0  0  0  0  0  0  0  0  0  0
  -25.9120  -30.7480   21.3310 C   0  0  0  0  0  2  0  0  0  0  0  0
  -26.0180  -29.3740   20.7010 C   0  0  0  0  0  0  0  0  0  0  0  0
  -27.2230  -28.6380   20.7220 C   0  0  0  0  0  3  0  0  0  0  0  0
  -26.1250  -26.8280   19.5260 C   0  0  0  0  0  3  0  0  0  0  0  0
  -24.9250  -27.5610   19.5080 C   0  0  0  0  0  3  0  0  0  0  0  0
  -23.6290  -29.6880   20.1020 C   0  0  0  0  0  2  0  0  0  0  0  0
  -24.6320  -30.9860   22.0380 N   0  0  0  0  0  0  0  0  0  0  0  0
  -23.4510  -32.0580   23.6480 O   0  0  0  0  0  0  0  0  0  0  0  0
  -22.7180  -29.3540   22.4210 C   0  0  0  0  0  0  0  0  0  0  0  0
  -21.3960  -29.1720   22.2710 N   0  0  0  0  0  0  0  0  0  0  0  0
  -23.3880  -28.7260   23.2470 O   0  0  0  0  0  0  0  0  0  0  0  0
  -20.9200  -29.7290   21.5750 H   0  0  0  0  0  0  0  0  0  0  0  0
  -18.0060  -28.0080   22.7240 C   0  0  0  0  0  0  0  0  0  0  0  0
  -20.5630  -28.2360   23.0260 C   0  0  0  0  0  3  0  0  0  0  0  0
  -20.6580  -26.8090   22.4380 C   0  0  0  0  0  2  0  0  0  0  0  0
  -19.5630  -26.5070   21.4100 C   0  0  0  0  0  2  0  0  0  0  0  0
  -18.1760  -26.6620   22.0400 C   0  0  0  0  0  2  0  0  0  0  0  0
  -19.1280  -28.7540   23.1720 C   0  0  0  0  0  0  0  0  0  0  0  0
  -18.9170  -30.0160   23.7680 C   0  0  0  0  0  3  0  0  0  0  0  0
  -17.6160  -30.5310   23.9230 C   0  0  0  0  0  3  0  0  0  0  0  0
  -16.5080  -29.7800   23.4940 C   0  0  0  0  0  3  0  0  0  0  0  0
  -16.7040  -28.5210   22.9000 C   0  0  0  0  0  3  0  0  0  0  0  0
  -25.8160  -32.4270   23.7820 C   0  0  0  0  0  3  0  0  0  0  0  0
  -25.4830  -33.8140   24.1320 N   0  0  0  0  0  0  0  0  0  0  0  0
  -25.8050  -34.8830   23.3920 C   0  0  0  0  0  0  0  0  0  0  0  0
  -26.4880  -34.8070   22.3660 O   0  0  0  0  0  0  0  0  0  0  0  0
  -24.8790  -33.9470   24.9300 H   0  0  0  0  0  0  0  0  0  0  0  0
  -24.0510  -36.6500   23.0430 C   0  0  0  0  0  1  0  0  0  0  0  0
  -25.2880  -36.2550   23.8650 C   0  0  0  0  0  3  0  0  0  0  0  0
  -27.3990  -37.1590   24.7360 C   0  0  0  0  0  1  0  0  0  0  0  0
  -26.3040  -37.3280   23.7840 N   0  0  0  0  0  0  0  0  0  0  0  0
  -25.8800  -38.2370   23.9450 H   0  0  0  0  0  0  0  0  0  0  0  0
  -26.3310  -31.6400   25.0490 C   0  0  1  0  0  0  0  0  0  0  0  0
  -25.2280  -31.3580   26.0970 C   0  0  0  0  0  1  0  0  0  0  0  0
  -26.9460  -30.2830   24.6330 C   0  0  0  0  0  1  0  0  0  0  0  0
  -27.4560  -32.4430   25.7440 C   0  0  0  0  0  1  0  0  0  0  0  0
  1  6  1  0
  1 50  1  0
  2  4  1  0
  3  7  1  0
  4  8  1  0
  5  6  1  0
  5  3  2  0
  6  2  2  0
  7  4  2  0
  7 10  1  0
  9  5  1  0
 11 19  1  0
 12 17  1  0
 13 14  1  0
 13 12  1  0
 15 14  1  0
 15 24  1  0
 15 16  1  0
 17 11  1  0
 17 16  1  0
 18 11  2  0
 19 10  1  0
 19 20  1  0
 21 22  2  0
 22 41  1  0
 23 22  1  0
 23 26  1  0
 24 25  1  0
 24 21  1  0
 25 23  2  0
 26 27  1  0
 27 28  2  0
 29 32  1  0
 29 28  1  0
 30 29  2  0
 31 30  1  0
 31 26  2  0
 32 33  1  0
 33 38  2  0
 33 34  1  0
 34 35  2  0
 35 36  1  0
 36 40  1  0
 37 36  2  0
 38 37  1  0
 39 38  1  0
 41 42  1  0
 42 45  1  0
 42 44  1  0
 43 41  2  0
 46 47  1  0
 46 21  1  0
 48 46  1  0
 50 49  1  0
 51 50  1  0
 51 53  1  0
 52 51  1  0
 54 51  1  0
 55 54  1  0
 55 56  1  0
 57 68  2  0
 58 56  1  0
 58 63  1  0
 59 67  1  0
 59 69  1  0
 60 66  1  0
 60 62  1  0
 61 67  1  0
 62 63  2  0
 62 61  1  0
 64 58  2  0
 65 64  1  0
 65 60  2  0
 66 59  1  0
 67 57  1  0
 69 71  2  0
 70 69  1  0
 72 70  1  0
 73 82  2  0
 73 78  1  0
 74 70  1  0
 74 78  1  0
 75 74  1  0
 76 77  1  0
 76 75  1  0
 77 73  1  0
 78 79  2  0
 79 80  1  0
 81 80  2  0
 82 81  1  0
 83 57  1  0
 83 84  1  0
 83 93  1  0
 84 87  1  0
 85 89  1  0
 85 84  1  0
 86 85  2  0
 89 88  1  0
 91 89  1  0
 91 92  1  0
 91 90  1  0
 93 96  1  1
 93 94  1  0
 95 93  1  0
M  ISO  4  11 100  19 100  55 101  56 101
M  END
>  <TORSDO>  (12) 
F 22

>  <SCORE>  (12) 
-12.150

>  <name>  (12) 
11

>  <ligand_id>  (12) 
11

>  <original_smiles>  (12) 
[H]c1c([H])c([H])c2c(c1[H])C([H])([H])C([H])([H])C([H])([H])C2([H])N([H])C(=O)C1([H])N(C(=O)C([H])(N([H])C(=O)C([H])(N([H])C([H])([H])[H])C([H])([H])[H])C(C([H])([H])[H])(C([H])([H])[H])C([H])([H])[H])C([H])([H])c2c([H])c(OC([H])([H])C([H])([H])[N+]([H])([H])C([H])(C([H])([H])[H])C([H])([H])c3c([H])c(C([H])([H])[H])c(C([H])([H])N([H])C(=O)N4C([H])([H])C([H])([H])C([H])([H])C([H])(n5nc(-c6c([H])c([H])c(Oc7c([H])c([H])c(F)c([H])c7F)c([H])c6[H])c(C(=O)N([H])[H])c5N([H])[H])C4([H])[H])c([H])c3C([H])([H])[H])c([H])c([H])c2C1([H])[H]

>  <smiles>  (12) 
[H]c1c([H])c([H])c2c(c1[H])C([H])([H])C([H])([H])C([H])([H])C2([H])N([H])C(=O)C1([H])N(C(=O)C([H])(N([H])C(=O)C([H])(N([H])C([H])([H])[H])C([H])([H])[H])C(C([H])([H])[H])(C([H])([H])[H])C([H])([H])[H])C([H])([H])c2c([H])c(OC([H])([H])C([H])([H])[N+]([H])([H])C([H])(C([H])([H])[H])C([H])([H])c3c([H])c(C([H])([H])[H])c(C([H])([H])N([H])C(=O)N4C([H])([H])C([H])([H])C([H])([H])C([H])(n5nc(-c6c([H])c([H])c(Oc7c([H])c([H])c(F)c([H])c7F)c([H])c6[H])c(C(=O)N([H])[H])c5N([H])[H])C4([H])[H])c([H])c3C([H])([H])[H])c([H])c([H])c2C1([H])[H]

$$$$
12:0:0
     RDKit          3D

 96106  0  0  1  0  0  0  0  0999 V2000
  -27.0040  -19.7050   19.5040 C   0  0  0  0  0  2  0  0  0  0  0  0
  -28.8040  -17.9430   19.9430 C   0  0  0  0  0  2  0  0  0  0  0  0
  -26.5430  -22.3090   19.6730 C   0  0  0  0  0  2  0  0  0  0  0  0
  -30.3230  -19.6110   20.7530 C   0  0  0  0  0  2  0  0  0  0  0  0
  -28.4460  -19.2590   19.2280 C   0  0  0  0  0  3  0  0  0  0  0  0
  -26.7750  -21.0520   18.8640 C   0  0  0  0  0  3  0  0  0  0  0  0
  -30.2530  -18.1050   20.4080 C   0  0  0  0  0  3  0  0  0  0  0  0
  -27.8820  -22.0790   19.0100 C   0  0  0  0  0  3  0  0  0  0  0  0
  -29.5220  -20.3130   19.6300 C   0  0  0  0  0  3  0  0  0  0  0  0
  -28.9740  -21.6800   19.9510 N   0  0  1  0  0  4  0  0  0  0  0  0
  -28.5550  -21.6380   20.8680 H   0  0  0  0  0  0  0  0  0  0  0  0
  -30.0190  -22.7460   20.0440 C   0  0  0  0  0  2  0  0  0  0  0  0
  -29.5550  -23.9060   20.9540 C   0  0  0  0  0  0  0  0  0  0  0  0
  -28.6990  -23.7270   21.8250 O   0  0  0  0  0  0  0  0  0  0  0  0
  -30.2620  -25.2690   20.8120 C   0  0  0  0  0  2  0  0  0  0  0  0
  -29.3730  -26.5250   21.0290 C   0  0  0  0  0  2  0  0  0  0  0  0
  -28.7290  -26.8960   19.8110 O   0  0  0  0  0  0  0  0  0  0  0  0
  -24.6760  -31.7610   23.1840 C   0  0  0  0  0  0  0  0  0  0  0  0
  -27.5580  -27.6110   19.9180 C   0  0  0  0  0  0  0  0  0  0  0  0
  -23.5510  -30.3870   21.4620 C   0  0  0  0  0  3  0  0  0  0  0  0
  -25.0920  -28.9920   19.9810 C   0  0  0  0  0  0  0  0  0  0  0  0
  -26.0570  -30.8740   21.3100 C   0  0  0  0  0  2  0  0  0  0  0  0
  -26.2160  -29.5380   20.6150 C   0  0  0  0  0  0  0  0  0  0  0  0
  -27.4530  -28.8500   20.5950 C   0  0  0  0  0  3  0  0  0  0  0  0
  -26.4220  -27.0840   19.2740 C   0  0  0  0  0  3  0  0  0  0  0  0
  -25.1880  -27.7600   19.3110 C   0  0  0  0  0  3  0  0  0  0  0  0
  -23.8060  -29.7870   20.0540 C   0  0  0  0  0  2  0  0  0  0  0  0
  -24.7780  -31.0210   22.0450 N   0  0  0  0  0  0  0  0  0  0  0  0
  -23.5790  -31.9550   23.7260 O   0  0  0  0  0  0  0  0  0  0  0  0
  -22.9420  -29.2890   22.3650 C   0  0  0  0  0  0  0  0  0  0  0  0
  -21.6290  -29.0510   22.2150 N   0  0  0  0  0  0  0  0  0  0  0  0
  -23.6490  -28.6570   23.1540 O   0  0  0  0  0  0  0  0  0  0  0  0
  -21.1180  -29.6190   21.5540 H   0  0  0  0  0  0  0  0  0  0  0  0
  -18.3120  -27.6770   22.6180 C   0  0  0  0  0  0  0  0  0  0  0  0
  -20.8520  -28.0380   22.9290 C   0  0  0  0  0  3  0  0  0  0  0  0
  -21.0260  -26.6450   22.2820 C   0  0  0  0  0  2  0  0  0  0  0  0
  -19.9490  -26.3240   21.2420 C   0  0  0  0  0  2  0  0  0  0  0  0
  -18.5570  -26.3730   21.8780 C   0  0  0  0  0  2  0  0  0  0  0  0
  -19.3900  -28.4670   23.0970 C   0  0  0  0  0  0  0  0  0  0  0  0
  -19.1080  -29.6880   23.7470 C   0  0  0  0  0  3  0  0  0  0  0  0
  -17.7800  -30.1200   23.9240 C   0  0  0  0  0  3  0  0  0  0  0  0
  -16.7160  -29.3270   23.4610 C   0  0  0  0  0  3  0  0  0  0  0  0
  -16.9820  -28.1060   22.8140 C   0  0  0  0  0  3  0  0  0  0  0  0
  -25.9270  -32.4210   23.8450 C   0  0  0  0  0  3  0  0  0  0  0  0
  -25.5780  -33.8110   24.1640 N   0  0  0  0  0  0  0  0  0  0  0  0
  -25.9080  -34.8690   23.4100 C   0  0  0  0  0  0  0  0  0  0  0  0
  -26.6080  -34.7780   22.3970 O   0  0  0  0  0  0  0  0  0  0  0  0
  -24.9590  -33.9550   24.9490 H   0  0  0  0  0  0  0  0  0  0  0  0
  -24.1660  -36.6310   22.9780 C   0  0  0  0  0  1  0  0  0  0  0  0
  -25.3750  -36.2460   23.8470 C   0  0  0  0  0  3  0  0  0  0  0  0
  -27.4360  -37.1800   24.8000 C   0  0  0  0  0  1  0  0  0  0  0  0
  -26.3930  -37.3170   23.7860 N   0  0  0  0  0  0  0  0  0  0  0  0
  -25.9630  -38.2310   23.8960 H   0  0  0  0  0  0  0  0  0  0  0  0
  -26.4200  -31.6600   25.1370 C   0  0  1  0  0  0  0  0  0  0  0  0
  -25.3010  -31.4000   26.1720 C   0  0  0  0  0  1  0  0  0  0  0  0
  -27.0430  -30.2950   24.7600 C   0  0  0  0  0  1  0  0  0  0  0  0
  -27.5340  -32.4770   25.8330 C   0  0  0  0  0  1  0  0  0  0  0  0
  -30.6780  -17.1320   21.5420 C   0  0  0  0  0  2  0  0  0  0  0  0
  -30.9970  -14.7990   20.6090 C   0  0  0  0  0  0  0  0  0  0  0  0
  -30.7720  -12.6420   19.4220 C   0  0  0  0  0  2  0  0  0  0  0  0
  -29.8480  -12.8160   18.2000 C   0  0  0  0  0  2  0  0  0  0  0  0
  -28.3680  -12.6480   18.5980 C   0  0  0  0  0  2  0  0  0  0  0  0
  -27.9870  -13.4870   19.8480 C   0  0  0  0  0  3  0  0  0  0  0  0
  -29.0190  -13.2760   20.9790 C   0  0  0  0  0  2  0  0  0  0  0  0
  -30.3530  -13.6110   20.4450 N   0  0  0  0  0  0  0  0  0  0  0  0
  -32.0970  -15.0440   20.1070 O   0  0  0  0  0  0  0  0  0  0  0  0
  -30.3040  -15.7330   21.2830 N   0  0  0  0  0  0  0  0  0  0  0  0
  -29.4130  -15.4330   21.6460 H   0  0  0  0  0  0  0  0  0  0  0  0
  -25.5800  -14.0680   20.5530 C   0  0  0  0  0  0  0  0  0  0  0  0
  -24.5050  -13.2810   20.8730 C   0  0  0  0  0  0  0  0  0  0  0  0
  -24.9650  -11.9320   20.7820 C   0  0  0  0  0  0  0  0  0  0  0  0
  -26.6270  -13.1950   20.2950 N   0  0  0  0  0  0  0  0  0  0  0  0
  -26.2580  -11.9030   20.4870 N   0  0  0  0  0  0  0  0  0  0  0  0
  -24.2340  -10.6630   20.9030 C   0  0  0  0  0  0  0  0  0  0  0  0
  -24.6000   -9.6880   21.8560 C   0  0  0  0  0  3  0  0  0  0  0  0
  -23.8710   -8.4830   21.9650 C   0  0  0  0  0  3  0  0  0  0  0  0
  -22.7610   -8.2470   21.1190 C   0  0  0  0  0  0  0  0  0  0  0  0
  -22.4140   -9.2120   20.1580 C   0  0  0  0  0  3  0  0  0  0  0  0
  -23.1440  -10.4070   20.0460 C   0  0  0  0  0  3  0  0  0  0  0  0
  -22.0100   -7.0970   21.1370 O   0  0  0  0  0  0  0  0  0  0  0  0
  -21.8200   -6.3790   22.2900 C   0  0  0  0  0  0  0  0  0  0  0  0
  -21.1350   -6.9190   23.4000 C   0  0  0  0  0  3  0  0  0  0  0  0
  -20.9010   -6.1230   24.5400 C   0  0  0  0  0  3  0  0  0  0  0  0
  -21.3410   -4.7860   24.5660 C   0  0  0  0  0  0  0  0  0  0  0  0
  -22.0180   -4.2440   23.4600 C   0  0  0  0  0  3  0  0  0  0  0  0
  -22.2540   -5.0380   22.3230 C   0  0  0  0  0  0  0  0  0  0  0  0
  -22.8870   -4.5050   21.2510 F   0  0  0  0  0  0  0  0  0  0  0  0
  -21.1100   -4.0180   25.6570 F   0  0  0  0  0  0  0  0  0  0  0  0
  -23.1060  -13.7480   21.1520 C   0  0  0  0  0  0  0  0  0  0  0  0
  -22.3670  -13.0130   21.9770 N   0  0  0  0  0  0  0  0  0  0  0  0
  -22.6750  -14.8000   20.6790 O   0  0  0  0  0  0  0  0  0  0  0  0
  -22.7280  -12.1620   22.3820 H   0  0  0  0  0  0  0  0  0  0  0  0
  -21.4280  -13.3060   22.2050 H   0  0  0  0  0  0  0  0  0  0  0  0
  -25.7500  -15.4440   20.4430 N   0  0  0  0  0  0  0  0  0  0  0  0
  -24.9820  -16.0940   20.5700 H   0  0  0  0  0  0  0  0  0  0  0  0
  -26.6050  -15.8940   20.1450 H   0  0  0  0  0  0  0  0  0  0  0  0
  2  7  1  0
  5  1  1  0
  5  9  1  0
  5  2  1  0
  6  8  1  0
  6  1  1  0
  6  3  1  0
  7  4  1  0
  7 58  1  0
  8  3  1  0
  8 10  1  0
  9 10  1  0
  9  4  1  0
 10 12  1  0
 10 11  1  1
 12 13  1  0
 13 14  2  0
 15 13  1  0
 15 16  1  0
 17 19  1  0
 17 16  1  0
 18 29  2  0
 19 24  1  0
 20 28  1  0
 20 30  1  0
 21 27  1  0
 21 23  1  0
 22 28  1  0
 23 22  1  0
 24 23  2  0
 25 26  1  0
 25 19  2  0
 26 21  2  0
 27 20  1  0
 28 18  1  0
 30 32  2  0
 31 30  1  0
 33 31  1  0
 34 43  2  0
 34 39  1  0
 35 31  1  0
 35 39  1  0
 36 35  1  0
 37 38  1  0
 37 36  1  0
 38 34  1  0
 39 40  2  0
 40 41  1  0
 42 41  2  0
 43 42  1  0
 44 18  1  0
 44 45  1  0
 44 54  1  0
 45 48  1  0
 46 50  1  0
 46 45  1  0
 47 46  2  0
 50 49  1  0
 52 50  1  0
 52 53  1  0
 52 51  1  0
 54 57  1  1
 54 55  1  0
 56 54  1  0
 59 67  1  0
 60 65  1  0
 61 62  1  0
 61 60  1  0
 63 62  1  0
 63 72  1  0
 63 64  1  0
 65 59  1  0
 65 64  1  0
 66 59  2  0
 67 58  1  0
 67 68  1  0
 69 70  2  0
 70 89  1  0
 71 70  1  0
 71 74  1  0
 72 73  1  0
 72 69  1  0
 73 71  2  0
 74 75  1  0
 75 76  2  0
 77 80  1  0
 77 76  1  0
 78 77  2  0
 79 78  1  0
 79 74  2  0
 80 81  1  0
 81 86  2  0
 81 82  1  0
 82 83  2  0
 83 84  1  0
 84 88  1  0
 85 84  2  0
 86 85  1  0
 87 86  1  0
 89 90  1  0
 90 93  1  0
 90 92  1  0
 91 89  2  0
 94 69  1  0
 94 95  1  0
 96 94  1  0
M  ISO  4  16 101  17 101  59 100  67 100
M  END
>  <TORSDO>  (13) 
F 21

>  <SCORE>  (13) 
-12.761

>  <name>  (13) 
12

>  <ligand_id>  (13) 
12

>  <original_smiles>  (13) 
[H]c1c([H])c([H])c2c(c1[H])C([H])([H])C([H])([H])C([H])([H])C2([H])N([H])C(=O)C1([H])N(C(=O)C([H])(N([H])C(=O)C([H])(N([H])C([H])([H])[H])C([H])([H])[H])C(C([H])([H])[H])(C([H])([H])[H])C([H])([H])[H])C([H])([H])c2c([H])c(OC([H])([H])C([H])([H])C(=O)C([H])([H])[N+]3([H])C4([H])C([H])([H])C([H])(C([H])([H])N([H])C(=O)N5C([H])([H])C([H])([H])C([H])([H])C([H])(n6nc(-c7c([H])c([H])c(Oc8c([H])c([H])c(F)c([H])c8F)c([H])c7[H])c(C(=O)N([H])[H])c6N([H])[H])C5([H])[H])C([H])([H])C4([H])C([H])([H])C4([H])C([H])([H])C43[H])c([H])c([H])c2C1([H])[H]

>  <smiles>  (13) 
[H]c1c([H])c([H])c2c(c1[H])C([H])([H])C([H])([H])C([H])([H])C2([H])N([H])C(=O)C1([H])N(C(=O)C([H])(N([H])C(=O)C([H])(N([H])C([H])([H])[H])C([H])([H])[H])C(C([H])([H])[H])(C([H])([H])[H])C([H])([H])[H])C([H])([H])c2c([H])c(OC([H])([H])C([H])([H])C(=O)C([H])([H])[N+]3([H])C4([H])C([H])([H])C([H])(C([H])([H])N([H])C(=O)N5C([H])([H])C([H])([H])C([H])([H])C([H])(n6nc(-c7c([H])c([H])c(Oc8c([H])c([H])c(F)c([H])c8F)c([H])c7[H])c(C(=O)N([H])[H])c6N([H])[H])C5([H])[H])C([H])([H])C4([H])C([H])([H])C4([H])C([H])([H])C43[H])c([H])c([H])c2C1([H])[H]

$$$$
13:0:0
     RDKit          3D

 95104  0  0  1  0  0  0  0  0999 V2000
  -28.5470  -21.1320   22.0930 C   0  0  0  0  0  2  0  0  0  0  0  0
  -29.0310  -20.5490   19.6410 C   0  0  0  0  0  2  0  0  0  0  0  0
  -28.6180  -22.5770   21.5530 C   0  0  0  0  0  2  0  0  0  0  0  0
  -27.8540  -21.4920   19.4040 C   0  0  0  0  0  2  0  0  0  0  0  0
  -29.0320  -20.0480   21.0940 C   0  0  0  0  0  3  0  0  0  0  0  0
  -27.9830  -22.7410   20.2060 N   0  0  2  0  0  4  0  0  0  0  0  0
  -27.0150  -22.9240   20.4280 H   0  0  0  0  0  0  0  0  0  0  0  0
  -30.6680  -18.8790   22.7990 C   0  0  0  0  0  2  0  0  0  0  0  0
  -30.3770  -19.4240   21.4320 C   0  0  0  0  0  3  0  0  0  0  0  0
  -30.4500  -17.9200   21.6430 C   0  0  0  0  0  3  0  0  0  0  0  0
  -31.5960  -17.0590   21.1350 C   0  0  0  0  0  2  0  0  0  0  0  0
  -31.8040  -14.7180   20.2200 C   0  0  0  0  0  0  0  0  0  0  0  0
  -31.3630  -12.5970   19.0370 C   0  0  0  0  0  2  0  0  0  0  0  0
  -30.4000  -12.8510   17.8580 C   0  0  0  0  0  2  0  0  0  0  0  0
  -28.9320  -12.7970   18.3210 C   0  0  0  0  0  2  0  0  0  0  0  0
  -28.6750  -13.6740   19.5760 C   0  0  0  0  0  3  0  0  0  0  0  0
  -29.7270  -13.3650   20.6620 C   0  0  0  0  0  2  0  0  0  0  0  0
  -31.0650  -13.5870   20.0810 N   0  0  0  0  0  0  0  0  0  0  0  0
  -32.8810  -14.9140   19.6480 O   0  0  0  0  0  0  0  0  0  0  0  0
  -31.2090  -15.6620   20.9660 N   0  0  0  0  0  0  0  0  0  0  0  0
  -30.3280  -15.3920   21.3690 H   0  0  0  0  0  0  0  0  0  0  0  0
  -26.3740  -14.4690   20.4230 C   0  0  0  0  0  0  0  0  0  0  0  0
  -25.2420  -13.7810   20.7650 C   0  0  0  0  0  0  0  0  0  0  0  0
  -25.5550  -12.3980   20.5980 C   0  0  0  0  0  0  0  0  0  0  0  0
  -27.3140  -13.5090   20.0770 N   0  0  0  0  0  0  0  0  0  0  0  0
  -26.8230  -12.2540   20.2370 N   0  0  0  0  0  0  0  0  0  0  0  0
  -24.7050  -11.2060   20.7060 C   0  0  0  0  0  0  0  0  0  0  0  0
  -25.0620  -10.1220   21.5370 C   0  0  0  0  0  3  0  0  0  0  0  0
  -24.2220   -8.9930   21.6400 C   0  0  0  0  0  3  0  0  0  0  0  0
  -23.0100   -8.9400   20.9100 C   0  0  0  0  0  0  0  0  0  0  0  0
  -22.6730  -10.0130   20.0660 C   0  0  0  0  0  3  0  0  0  0  0  0
  -23.5120  -11.1340   19.9610 C   0  0  0  0  0  3  0  0  0  0  0  0
  -22.1430   -7.8760   20.9280 O   0  0  0  0  0  0  0  0  0  0  0  0
  -21.9880   -7.0930   22.0430 C   0  0  0  0  0  0  0  0  0  0  0  0
  -21.6050   -7.6350   23.2880 C   0  0  0  0  0  3  0  0  0  0  0  0
  -21.3900   -6.7850   24.3900 C   0  0  0  0  0  3  0  0  0  0  0  0
  -21.5490   -5.3930   24.2490 C   0  0  0  0  0  0  0  0  0  0  0  0
  -21.9250   -4.8510   23.0080 C   0  0  0  0  0  3  0  0  0  0  0  0
  -22.1410   -5.6980   21.9080 C   0  0  0  0  0  0  0  0  0  0  0  0
  -22.4830   -5.1680   20.7080 F   0  0  0  0  0  0  0  0  0  0  0  0
  -21.3350   -4.5760   25.3060 F   0  0  0  0  0  0  0  0  0  0  0  0
  -23.9130  -14.3690   21.1390 C   0  0  0  0  0  0  0  0  0  0  0  0
  -23.1590  -13.6820   21.9890 N   0  0  0  0  0  0  0  0  0  0  0  0
  -23.5600  -15.4700   20.7160 O   0  0  0  0  0  0  0  0  0  0  0  0
  -23.4650  -12.7900   22.3520 H   0  0  0  0  0  0  0  0  0  0  0  0
  -22.2610  -14.0480   22.2800 H   0  0  0  0  0  0  0  0  0  0  0  0
  -26.6760  -15.8270   20.3550 N   0  0  0  0  0  0  0  0  0  0  0  0
  -25.9750  -16.5380   20.5230 H   0  0  0  0  0  0  0  0  0  0  0  0
  -27.5580  -16.2040   20.0330 H   0  0  0  0  0  0  0  0  0  0  0  0
  -27.4170  -25.1100   19.7510 C   0  0  0  0  0  1  0  0  0  0  0  0
  -28.3670  -23.9510   19.4080 C   0  0  0  0  0  3  0  0  0  0  0  0
  -29.9110  -24.2400   19.3010 C   0  0  0  0  0  2  0  0  0  0  0  0
  -30.4530  -25.6860   19.4760 C   0  0  0  0  0  2  0  0  0  0  0  0
  -30.3530  -26.3180   20.8970 C   0  0  0  0  0  2  0  0  0  0  0  0
  -30.2130  -27.7490   20.9550 O   0  0  0  0  0  0  0  0  0  0  0  0
  -25.3160  -31.9790   24.0100 C   0  0  0  0  0  0  0  0  0  0  0  0
  -28.9400  -28.2910   20.9130 C   0  0  0  0  0  0  0  0  0  0  0  0
  -24.5350  -30.6160   22.1050 C   0  0  0  0  0  3  0  0  0  0  0  0
  -26.3560  -29.4560   20.7630 C   0  0  0  0  0  0  0  0  0  0  0  0
  -26.9900  -31.3230   22.2880 C   0  0  0  0  0  2  0  0  0  0  0  0
  -27.3510  -30.0540   21.5470 C   0  0  0  0  0  0  0  0  0  0  0  0
  -28.6420  -29.4760   21.6270 C   0  0  0  0  0  3  0  0  0  0  0  0
  -27.9210  -27.7330   20.1130 C   0  0  0  0  0  3  0  0  0  0  0  0
  -26.6360  -28.2880   20.0470 C   0  0  0  0  0  3  0  0  0  0  0  0
  -25.0040  -30.1260   20.7130 C   0  0  0  0  0  2  0  0  0  0  0  0
  -25.6230  -31.3170   22.8610 N   0  0  0  0  0  0  0  0  0  0  0  0
  -24.1490  -32.0480   24.4190 O   0  0  0  0  0  0  0  0  0  0  0  0
  -23.9320  -29.4150   22.8700 C   0  0  0  0  0  0  0  0  0  0  0  0
  -22.6820  -29.0570   22.5320 N   0  0  0  0  0  0  0  0  0  0  0  0
  -24.5900  -28.8110   23.7210 O   0  0  0  0  0  0  0  0  0  0  0  0
  -22.2010  -29.6210   21.8450 H   0  0  0  0  0  0  0  0  0  0  0  0
  -19.5180  -27.3290   22.3840 C   0  0  0  0  0  0  0  0  0  0  0  0
  -21.9310  -27.9300   23.0820 C   0  0  0  0  0  3  0  0  0  0  0  0
  -22.3490  -26.5960   22.4210 C   0  0  0  0  0  2  0  0  0  0  0  0
  -21.4740  -26.2190   21.2210 C   0  0  0  0  0  2  0  0  0  0  0  0
  -20.0050  -26.0950   21.6430 C   0  0  0  0  0  2  0  0  0  0  0  0
  -20.4240  -28.1980   23.0430 C   0  0  0  0  0  0  0  0  0  0  0  0
  -19.9220  -29.3540   23.6810 C   0  0  0  0  0  3  0  0  0  0  0  0
  -18.5460  -29.6450   23.6690 C   0  0  0  0  0  3  0  0  0  0  0  0
  -17.6510  -28.7690   23.0320 C   0  0  0  0  0  3  0  0  0  0  0  0
  -18.1370  -27.6110   22.3970 C   0  0  0  0  0  3  0  0  0  0  0  0
  -26.4130  -32.7010   24.8520 C   0  0  0  0  0  3  0  0  0  0  0  0
  -25.9490  -34.0730   25.0950 N   0  0  0  0  0  0  0  0  0  0  0  0
  -26.3260  -35.1420   24.3800 C   0  0  0  0  0  0  0  0  0  0  0  0
  -27.1670  -35.0810   23.4780 O   0  0  0  0  0  0  0  0  0  0  0  0
  -25.2180  -34.1910   25.7810 H   0  0  0  0  0  0  0  0  0  0  0  0
  -24.5420  -36.7800   23.7020 C   0  0  0  0  0  1  0  0  0  0  0  0
  -25.6600  -36.4900   24.7150 C   0  0  0  0  0  3  0  0  0  0  0  0
  -27.5670  -37.5400   25.8480 C   0  0  0  0  0  1  0  0  0  0  0  0
  -26.6110  -37.6210   24.7480 N   0  0  0  0  0  0  0  0  0  0  0  0
  -26.1150  -38.5040   24.8250 H   0  0  0  0  0  0  0  0  0  0  0  0
  -26.7380  -31.9700   26.2110 C   0  0  1  0  0  0  0  0  0  0  0  0
  -25.4820  -31.6010   27.0340 C   0  0  0  0  0  1  0  0  0  0  0  0
  -27.5330  -30.6690   25.9560 C   0  0  0  0  0  1  0  0  0  0  0  0
  -27.6370  -32.8720   27.0880 C   0  0  0  0  0  1  0  0  0  0  0  0
  3  1  1  0
  4  2  1  0
  4  6  1  0
  5  2  1  0
  5  9  1  0
  5  1  1  0
  6  7  1  1
  6  3  1  0
  9 10  1  0
  9  8  1  0
 10 11  1  0
 10  8  1  0
 12 20  1  0
 13 18  1  0
 14 15  1  0
 14 13  1  0
 16 15  1  0
 16 25  1  0
 16 17  1  0
 18 12  1  0
 18 17  1  0
 19 12  2  0
 20 11  1  0
 20 21  1  0
 22 23  2  0
 23 42  1  0
 24 27  1  0
 24 23  1  0
 25 26  1  0
 25 22  1  0
 26 24  2  0
 27 28  1  0
 28 29  2  0
 30 33  1  0
 30 29  1  0
 31 30  2  0
 32 31  1  0
 32 27  2  0
 33 34  1  0
 34 35  1  0
 35 36  2  0
 37 36  1  0
 37 41  1  0
 38 37  2  0
 39 34  2  0
 39 38  1  0
 40 39  1  0
 42 43  1  0
 43 46  1  0
 43 45  1  0
 44 42  2  0
 47 22  1  0
 47 48  1  0
 49 47  1  0
 51 50  1  0
 51  6  1  0
 52 51  1  0
 52 53  1  0
 53 54  1  0
 54 55  1  0
 56 67  2  0
 57 55  1  0
 57 62  1  0
 58 66  1  0
 58 68  1  0
 59 61  1  0
 60 66  1  0
 61 62  2  0
 61 60  1  0
 63 57  2  0
 64 63  1  0
 64 59  2  0
 65 59  1  0
 65 58  1  0
 66 56  1  0
 68 70  2  0
 69 68  1  0
 71 69  1  0
 72 81  2  0
 72 77  1  0
 73 69  1  0
 74 73  1  0
 75 76  1  0
 75 74  1  0
 76 72  1  0
 77 73  1  0
 77 78  2  0
 79 78  1  0
 80 79  2  0
 81 80  1  0
 82 56  1  0
 82 83  1  0
 82 92  1  0
 83 86  1  0
 84 88  1  0
 84 83  1  0
 85 84  2  0
 88 87  1  0
 88 90  1  0
 90 91  1  0
 90 89  1  0
 92 93  1  1
 92 95  1  0
 94 92  1  0
M  ISO  4  12 100  20 100  54 101  55 101
M  END
>  <TORSDO>  (14) 
F 22

>  <SCORE>  (14) 
-8.547

>  <name>  (14) 
13

>  <ligand_id>  (14) 
13

>  <original_smiles>  (14) 
[H]c1c([H])c([H])c2c(c1[H])C([H])([H])C([H])([H])C([H])([H])C2([H])N([H])C(=O)C1([H])N(C(=O)C([H])(N([H])C(=O)C([H])(N([H])C([H])([H])[H])C([H])([H])[H])C(C([H])([H])[H])(C([H])([H])[H])C([H])([H])[H])C([H])([H])c2c([H])c(OC([H])([H])C([H])([H])C([H])([H])C([H])(C([H])([H])[H])[N+]3([H])C([H])([H])C([H])([H])C([H])(C4([H])C([H])([H])C4([H])C([H])([H])N([H])C(=O)N4C([H])([H])C([H])([H])C([H])([H])C([H])(n5nc(-c6c([H])c([H])c(Oc7c([H])c([H])c(F)c([H])c7F)c([H])c6[H])c(C(=O)N([H])[H])c5N([H])[H])C4([H])[H])C([H])([H])C3([H])[H])c([H])c([H])c2C1([H])[H]

>  <smiles>  (14) 
[H]c1c([H])c([H])c2c(c1[H])C([H])([H])C([H])([H])C([H])([H])C2([H])N([H])C(=O)C1([H])N(C(=O)C([H])(N([H])C(=O)C([H])(N([H])C([H])([H])[H])C([H])([H])[H])C(C([H])([H])[H])(C([H])([H])[H])C([H])([H])[H])C([H])([H])c2c([H])c(OC([H])([H])C([H])([H])C([H])([H])C([H])(C([H])([H])[H])[N+]3([H])C([H])([H])C([H])([H])C([H])(C4([H])C([H])([H])C4([H])C([H])([H])N([H])C(=O)N4C([H])([H])C([H])([H])C([H])([H])C([H])(n5nc(-c6c([H])c([H])c(Oc7c([H])c([H])c(F)c([H])c7F)c([H])c6[H])c(C(=O)N([H])[H])c5N([H])[H])C4([H])[H])C([H])([H])C3([H])[H])c([H])c([H])c2C1([H])[H]

$$$$
14:0:0
     RDKit          3D

 93102  0  0  1  0  0  0  0  0999 V2000
  -28.5050  -20.7390   19.1700 C   0  0  0  0  0  0  0  0  0  0  0  0
  -28.8410  -19.2540   18.9510 C   0  0  0  0  0  2  0  0  0  0  0  0
  -29.5690  -19.2360   21.3970 C   0  0  0  0  0  2  0  0  0  0  0  0
  -29.3320  -21.8840   22.1200 C   0  0  0  0  0  2  0  0  0  0  0  0
  -29.4920  -21.5450   20.0100 C   0  0  0  0  0  3  0  0  0  0  0  0
  -29.9450  -20.7560   21.2530 C   0  0  0  0  0  3  0  0  0  0  0  0
  -29.7190  -18.4940   20.0250 C   0  0  0  0  0  3  0  0  0  0  0  0
  -28.8960  -22.7100   20.8740 C   0  0  0  0  0  3  0  0  0  0  0  0
  -27.4740  -21.2720   18.6610 N   0  0  0  0  0  0  0  0  0  0  0  0
  -26.9140  -20.6200   18.1230 H   0  0  0  0  0  0  0  0  0  0  0  0
  -29.6970  -16.4310   18.4580 C   0  0  0  0  0  1  0  0  0  0  0  0
  -29.4420  -16.9110   19.9110 C   0  0  0  0  0  3  0  0  0  0  0  0
  -30.7760  -14.8170   20.6390 C   0  0  0  0  0  0  0  0  0  0  0  0
  -30.6500  -12.5090   19.7260 C   0  0  0  0  0  2  0  0  0  0  0  0
  -29.7970  -12.5360   18.4350 C   0  0  0  0  0  2  0  0  0  0  0  0
  -28.2870  -12.4530   18.7600 C   0  0  0  0  0  2  0  0  0  0  0  0
  -27.8440  -13.3530   19.9500 C   0  0  0  0  0  3  0  0  0  0  0  0
  -28.8340  -13.2700   21.1340 C   0  0  0  0  0  2  0  0  0  0  0  0
  -30.1780  -13.5820   20.6250 N   0  0  0  0  0  0  0  0  0  0  0  0
  -31.9280  -14.9760   20.2320 O   0  0  0  0  0  0  0  0  0  0  0  0
  -29.9530  -15.8870   20.9000 N   0  0  0  0  0  0  0  0  0  0  0  0
  -29.2370  -15.6380   21.5660 H   0  0  0  0  0  0  0  0  0  0  0  0
  -25.4170  -13.9350   20.5600 C   0  0  0  0  0  0  0  0  0  0  0  0
  -24.3400  -13.1580   20.8890 C   0  0  0  0  0  0  0  0  0  0  0  0
  -24.8080  -11.8090   20.8800 C   0  0  0  0  0  0  0  0  0  0  0  0
  -26.4760  -13.0600   20.3730 N   0  0  0  0  0  0  0  0  0  0  0  0
  -26.1120  -11.7760   20.6220 N   0  0  0  0  0  0  0  0  0  0  0  0
  -24.0800  -10.5430   21.0470 C   0  0  0  0  0  0  0  0  0  0  0  0
  -24.4750   -9.5830   22.0040 C   0  0  0  0  0  3  0  0  0  0  0  0
  -23.7480   -8.3820   22.1560 C   0  0  0  0  0  3  0  0  0  0  0  0
  -22.6110   -8.1350   21.3520 C   0  0  0  0  0  0  0  0  0  0  0  0
  -22.2330   -9.0860   20.3870 C   0  0  0  0  0  3  0  0  0  0  0  0
  -22.9620  -10.2760   20.2320 C   0  0  0  0  0  3  0  0  0  0  0  0
  -21.8570   -6.9880   21.4140 O   0  0  0  0  0  0  0  0  0  0  0  0
  -21.7430   -6.2640   22.5730 C   0  0  0  0  0  0  0  0  0  0  0  0
  -21.2130   -6.8240   23.7580 C   0  0  0  0  0  3  0  0  0  0  0  0
  -21.0520   -6.0210   24.9040 C   0  0  0  0  0  3  0  0  0  0  0  0
  -21.4110   -4.6600   24.8680 C   0  0  0  0  0  0  0  0  0  0  0  0
  -21.9380   -4.1020   23.6890 C   0  0  0  0  0  3  0  0  0  0  0  0
  -22.1000   -4.9010   22.5450 C   0  0  0  0  0  0  0  0  0  0  0  0
  -22.5870   -4.3550   21.4060 F   0  0  0  0  0  0  0  0  0  0  0  0
  -21.2520   -3.8850   25.9650 F   0  0  0  0  0  0  0  0  0  0  0  0
  -22.9310  -13.6320   21.1040 C   0  0  0  0  0  0  0  0  0  0  0  0
  -22.1690  -12.9430   21.9460 N   0  0  0  0  0  0  0  0  0  0  0  0
  -22.5150  -14.6580   20.5660 O   0  0  0  0  0  0  0  0  0  0  0  0
  -22.5130  -12.1150   22.4120 H   0  0  0  0  0  0  0  0  0  0  0  0
  -21.2240  -13.2490   22.1280 H   0  0  0  0  0  0  0  0  0  0  0  0
  -25.5800  -15.3050   20.3880 N   0  0  0  0  0  0  0  0  0  0  0  0
  -24.7940  -15.9430   20.4400 H   0  0  0  0  0  0  0  0  0  0  0  0
  -26.4370  -15.7480   20.0870 H   0  0  0  0  0  0  0  0  0  0  0  0
  -29.3470  -24.2140   20.6790 C   0  0  0  0  0  3  0  0  0  0  0  0
  -28.2310  -25.1980   20.1530 C   0  0  0  0  0  3  0  0  0  0  0  0
  -28.4740  -26.6520   20.1180 O   0  0  0  0  0  0  0  0  0  0  0  0
  -24.6700  -31.8820   23.2150 C   0  0  0  0  0  0  0  0  0  0  0  0
  -27.3380  -27.4690   20.0520 C   0  0  0  0  0  0  0  0  0  0  0  0
  -23.4690  -30.4950   21.5610 C   0  0  0  0  0  3  0  0  0  0  0  0
  -24.9340  -29.0100   20.0820 C   0  0  0  0  0  0  0  0  0  0  0  0
  -25.9940  -30.8790   21.3470 C   0  0  0  0  0  2  0  0  0  0  0  0
  -26.0970  -29.5190   20.6740 C   0  0  0  0  0  0  0  0  0  0  0  0
  -27.3020  -28.7640   20.6450 C   0  0  0  0  0  3  0  0  0  0  0  0
  -26.1550  -27.0120   19.4210 C   0  0  0  0  0  3  0  0  0  0  0  0
  -24.9640  -27.7590   19.4460 C   0  0  0  0  0  3  0  0  0  0  0  0
  -23.6770  -29.8490   20.1660 C   0  0  0  0  0  2  0  0  0  0  0  0
  -24.7310  -31.1000   22.0990 N   0  0  0  0  0  0  0  0  0  0  0  0
  -23.5910  -32.1280   23.7720 O   0  0  0  0  0  0  0  0  0  0  0  0
  -22.8420  -29.4460   22.5090 C   0  0  0  0  0  0  0  0  0  0  0  0
  -21.5180  -29.2430   22.3920 N   0  0  0  0  0  0  0  0  0  0  0  0
  -23.5420  -28.8170   23.3070 O   0  0  0  0  0  0  0  0  0  0  0  0
  -21.0130  -29.8010   21.7190 H   0  0  0  0  0  0  0  0  0  0  0  0
  -18.1740  -27.9700   22.9000 C   0  0  0  0  0  0  0  0  0  0  0  0
  -20.7270  -28.2780   23.1560 C   0  0  0  0  0  3  0  0  0  0  0  0
  -20.8540  -26.8590   22.5550 C   0  0  0  0  0  2  0  0  0  0  0  0
  -19.7500  -26.5300   21.5440 C   0  0  0  0  0  2  0  0  0  0  0  0
  -18.3710  -26.6370   22.2020 C   0  0  0  0  0  2  0  0  0  0  0  0
  -19.2800  -28.7490   23.3340 C   0  0  0  0  0  0  0  0  0  0  0  0
  -19.0390  -29.9990   23.9470 C   0  0  0  0  0  3  0  0  0  0  0  0
  -17.7260  -30.4670   24.1320 C   0  0  0  0  0  3  0  0  0  0  0  0
  -16.6340  -29.6860   23.7160 C   0  0  0  0  0  3  0  0  0  0  0  0
  -16.8590  -28.4400   23.1020 C   0  0  0  0  0  3  0  0  0  0  0  0
  -25.9510  -32.5240   23.8310 C   0  0  0  0  0  3  0  0  0  0  0  0
  -26.4870  -31.7490   25.0970 C   0  0  1  0  0  0  0  0  0  0  0  0
  -25.4060  -31.4900   26.1730 C   0  0  0  0  0  1  0  0  0  0  0  0
  -27.0820  -30.3780   24.6920 C   0  0  0  0  0  1  0  0  0  0  0  0
  -27.6350  -32.5520   25.7540 C   0  0  0  0  0  1  0  0  0  0  0  0
  -25.6290  -33.9150   24.1740 N   0  0  0  0  0  0  0  0  0  0  0  0
  -25.9430  -34.9780   23.4220 C   0  0  0  0  0  0  0  0  0  0  0  0
  -26.6070  -34.8910   22.3850 O   0  0  0  0  0  0  0  0  0  0  0  0
  -25.0360  -34.0560   24.9790 H   0  0  0  0  0  0  0  0  0  0  0  0
  -24.2020  -36.7620   23.0810 C   0  0  0  0  0  1  0  0  0  0  0  0
  -25.4430  -36.3560   23.8930 C   0  0  0  0  0  3  0  0  0  0  0  0
  -27.5640  -37.2520   24.7480 C   0  0  0  0  0  1  0  0  0  0  0  0
  -26.4670  -37.4200   23.7980 N   0  0  0  0  0  0  0  0  0  0  0  0
  -26.0510  -38.3350   23.9510 H   0  0  0  0  0  0  0  0  0  0  0  0
  2  1  1  0
  2  7  1  0
  5  1  1  0
  5  8  1  0
  5  6  1  0
  6  3  1  0
  6  4  1  0
  7 12  1  0
  7  3  1  0
  8 51  1  0
  8  4  1  0
  9  1  2  0
 10  9  1  0
 12 11  1  0
 12 21  1  0
 13 21  1  0
 14 19  1  0
 15 16  1  0
 15 14  1  0
 17 16  1  0
 17 26  1  0
 17 18  1  0
 19 13  1  0
 19 18  1  0
 20 13  2  0
 21 22  1  0
 23 24  2  0
 24 43  1  0
 25 24  1  0
 25 28  1  0
 26 23  1  0
 26 27  1  0
 27 25  2  0
 28 29  1  0
 29 30  2  0
 31 34  1  0
 31 30  1  0
 32 31  2  0
 33 32  1  0
 33 28  2  0
 34 35  1  0
 35 36  1  0
 36 37  2  0
 38 37  1  0
 38 42  1  0
 39 38  2  0
 40 35  2  0
 40 39  1  0
 41 40  1  0
 43 44  1  0
 44 47  1  0
 44 46  1  0
 45 43  2  0
 48 49  1  0
 48 23  1  0
 50 48  1  0
 52 51  2  0
 53 52  1  0
 54 65  2  0
 55 53  1  0
 55 60  1  0
 56 64  1  0
 56 66  1  0
 57 63  1  0
 57 59  1  0
 58 64  1  0
 59 58  1  0
 60 59  2  0
 61 62  1  0
 61 55  2  0
 62 57  2  0
 63 56  1  0
 64 54  1  0
 66 68  2  0
 67 66  1  0
 69 67  1  0
 70 79  2  0
 70 75  1  0
 71 67  1  0
 71 75  1  0
 72 71  1  0
 73 74  1  0
 73 72  1  0
 74 70  1  0
 75 76  2  0
 76 77  1  0
 78 77  2  0
 79 78  1  0
 80 54  1  0
 80 85  1  0
 80 81  1  0
 81 84  1  1
 81 82  1  0
 83 81  1  0
 85 88  1  0
 86 90  1  0
 86 85  1  0
 87 86  2  0
 90 89  1  0
 92 90  1  0
 92 93  1  0
 92 91  1  0
M  ISO  4  13 100  21 100  52 101  53 101
M  END
>  <TORSDO>  (15) 
F 19

>  <SCORE>  (15) 
-13.669

>  <name>  (15) 
14

>  <ligand_id>  (15) 
14

>  <original_smiles>  (15) 
[H]N=C1C([H])([H])C([H])(C([H])(N([H])C(=O)N2C([H])([H])C([H])([H])C([H])([H])C([H])(n3nc(-c4c([H])c([H])c(Oc5c([H])c([H])c(F)c([H])c5F)c([H])c4[H])c(C(=O)N([H])[H])c3N([H])[H])C2([H])[H])C([H])([H])[H])C([H])([H])C2([H])C([H])([H])C([H])(C([H])([H])C([H])([H])Oc3c([H])c([H])c4c(c3[H])C([H])([H])N(C(=O)C([H])(N([H])C(=O)C([H])(N([H])C([H])([H])[H])C([H])([H])[H])C(C([H])([H])[H])(C([H])([H])[H])C([H])([H])[H])C([H])(C(=O)N([H])C3([H])c5c([H])c([H])c([H])c([H])c5C([H])([H])C([H])([H])C3([H])[H])C4([H])[H])C12[H]

>  <smiles>  (15) 
[H]N=C1C([H])([H])C([H])(C([H])(N([H])C(=O)N2C([H])([H])C([H])([H])C([H])([H])C([H])(n3nc(-c4c([H])c([H])c(Oc5c([H])c([H])c(F)c([H])c5F)c([H])c4[H])c(C(=O)N([H])[H])c3N([H])[H])C2([H])[H])C([H])([H])[H])C([H])([H])C2([H])C([H])([H])C([H])(C([H])([H])C([H])([H])Oc3c([H])c([H])c4c(c3[H])C([H])([H])N(C(=O)C([H])(N([H])C(=O)C([H])(N([H])C([H])([H])[H])C([H])([H])[H])C(C([H])([H])[H])(C([H])([H])[H])C([H])([H])[H])C([H])(C(=O)N([H])C3([H])c5c([H])c([H])c([H])c([H])c5C([H])([H])C([H])([H])C3([H])[H])C4([H])[H])C12[H]

$$$$
15:0:0
     RDKit          3D

 93101  0  0  1  0  0  0  0  0999 V2000
  -30.4600  -21.7700   20.0140 C   0  0  0  0  0  0  0  0  0  0  0  0
  -29.4520  -22.6550   19.7370 N   0  0  0  0  0  0  0  0  0  0  0  0
  -31.5950  -22.2050   20.2160 O   0  0  0  0  0  0  0  0  0  0  0  0
  -28.5370  -22.2770   19.5350 H   0  0  0  0  0  0  0  0  0  0  0  0
  -31.4460  -19.4100   19.9950 C   0  0  0  0  0  3  0  0  0  0  0  0
  -31.4320  -18.0010   20.1840 C   0  0  0  0  0  3  0  0  0  0  0  0
  -30.2820  -20.2270   20.0610 C   0  0  0  0  0  0  0  0  0  0  0  0
  -29.0600  -19.5300   20.3320 C   0  0  0  0  0  0  0  0  0  0  0  0
  -29.0370  -18.0910   20.4750 C   0  0  0  0  0  0  0  0  0  0  0  0
  -30.2300  -17.2960   20.4390 C   0  0  0  0  0  0  0  0  0  0  0  0
  -27.7650  -20.3210   20.5260 C   0  0  0  0  0  1  0  0  0  0  0  0
  -27.6990  -17.3860   20.6990 C   0  0  0  0  0  1  0  0  0  0  0  0
  -30.9350  -14.7820   20.2230 C   0  0  0  0  0  0  0  0  0  0  0  0
  -30.7020  -12.5050   19.2470 C   0  0  0  0  0  2  0  0  0  0  0  0
  -29.7350  -12.5930   18.0450 C   0  0  0  0  0  2  0  0  0  0  0  0
  -28.2690  -12.4610   18.5050 C   0  0  0  0  0  2  0  0  0  0  0  0
  -27.9390  -13.3700   19.7170 C   0  0  0  0  0  3  0  0  0  0  0  0
  -29.0160  -13.2410   20.8190 C   0  0  0  0  0  2  0  0  0  0  0  0
  -30.3180  -13.5580   20.2100 N   0  0  0  0  0  0  0  0  0  0  0  0
  -32.0810  -14.9230   19.7810 O   0  0  0  0  0  0  0  0  0  0  0  0
  -30.1570  -15.8380   20.6230 N   0  0  0  0  0  0  0  0  0  0  0  0
  -29.3040  -15.5270   21.0600 H   0  0  0  0  0  0  0  0  0  0  0  0
  -25.5840  -14.0250   20.5130 C   0  0  0  0  0  0  0  0  0  0  0  0
  -24.5060  -13.2760   20.8970 C   0  0  0  0  0  0  0  0  0  0  0  0
  -24.9260  -11.9120   20.8240 C   0  0  0  0  0  0  0  0  0  0  0  0
  -26.5960  -13.1190   20.2320 N   0  0  0  0  0  0  0  0  0  0  0  0
  -26.2050  -11.8420   20.4780 N   0  0  0  0  0  0  0  0  0  0  0  0
  -24.1670  -10.6680   21.0060 C   0  0  0  0  0  0  0  0  0  0  0  0
  -24.5680   -9.6890   21.9420 C   0  0  0  0  0  3  0  0  0  0  0  0
  -23.8110   -8.5090   22.1120 C   0  0  0  0  0  3  0  0  0  0  0  0
  -22.6380   -8.3010   21.3470 C   0  0  0  0  0  0  0  0  0  0  0  0
  -22.2570   -9.2690   20.4010 C   0  0  0  0  0  3  0  0  0  0  0  0
  -23.0140  -10.4390   20.2290 C   0  0  0  0  0  3  0  0  0  0  0  0
  -21.8560   -7.1750   21.4260 O   0  0  0  0  0  0  0  0  0  0  0  0
  -21.7380   -6.4620   22.5920 C   0  0  0  0  0  0  0  0  0  0  0  0
  -21.2580   -7.0510   23.7820 C   0  0  0  0  0  3  0  0  0  0  0  0
  -21.0880   -6.2640   24.9390 C   0  0  0  0  0  3  0  0  0  0  0  0
  -21.3860   -4.8890   24.9060 C   0  0  0  0  0  0  0  0  0  0  0  0
  -21.8600   -4.2990   23.7200 C   0  0  0  0  0  3  0  0  0  0  0  0
  -22.0320   -5.0830   22.5660 C   0  0  0  0  0  0  0  0  0  0  0  0
  -22.4670   -4.5050   21.4200 F   0  0  0  0  0  0  0  0  0  0  0  0
  -21.2160   -4.1310   26.0140 F   0  0  0  0  0  0  0  0  0  0  0  0
  -23.1310  -13.7880   21.2200 C   0  0  0  0  0  0  0  0  0  0  0  0
  -22.4190  -13.1120   22.1140 N   0  0  0  0  0  0  0  0  0  0  0  0
  -22.7000  -14.8240   20.7130 O   0  0  0  0  0  0  0  0  0  0  0  0
  -22.7820  -12.2740   22.5430 H   0  0  0  0  0  0  0  0  0  0  0  0
  -21.4990  -13.4380   22.3720 H   0  0  0  0  0  0  0  0  0  0  0  0
  -25.7840  -15.3940   20.3560 N   0  0  0  0  0  0  0  0  0  0  0  0
  -25.0310  -16.0600   20.4880 H   0  0  0  0  0  0  0  0  0  0  0  0
  -26.6160  -15.8120   19.9640 H   0  0  0  0  0  0  0  0  0  0  0  0
  -29.6060  -24.1620   19.7840 C   0  0  0  0  0  3  0  0  0  0  0  0
  -28.3590  -25.0760   19.4200 C   0  0  0  0  0  3  0  0  0  0  0  0
  -28.4800  -26.5420   19.6240 O   0  0  0  0  0  0  0  0  0  0  0  0
  -24.5200  -31.5510   22.9880 C   0  0  0  0  0  0  0  0  0  0  0  0
  -27.3060  -27.3140   19.6420 C   0  0  0  0  0  0  0  0  0  0  0  0
  -23.3550  -30.1750   21.3010 C   0  0  0  0  0  3  0  0  0  0  0  0
  -24.8540  -28.7840   19.7660 C   0  0  0  0  0  0  0  0  0  0  0  0
  -25.8680  -30.6450   21.0820 C   0  0  0  0  0  2  0  0  0  0  0  0
  -26.0080  -29.3080   20.3620 C   0  0  0  0  0  0  0  0  0  0  0  0
  -27.2360  -28.5870   20.2880 C   0  0  0  0  0  3  0  0  0  0  0  0
  -26.1220  -26.8390   19.0300 C   0  0  0  0  0  3  0  0  0  0  0  0
  -24.9120  -27.5550   19.0930 C   0  0  0  0  0  3  0  0  0  0  0  0
  -23.5730  -29.5850   19.8840 C   0  0  0  0  0  2  0  0  0  0  0  0
  -24.6000  -30.8050   21.8480 N   0  0  0  0  0  0  0  0  0  0  0  0
  -23.4360  -31.7410   23.5580 O   0  0  0  0  0  0  0  0  0  0  0  0
  -22.7720  -29.0740   22.2190 C   0  0  0  0  0  0  0  0  0  0  0  0
  -21.4480  -28.8540   22.1330 N   0  0  0  0  0  0  0  0  0  0  0  0
  -23.5060  -28.4250   22.9690 O   0  0  0  0  0  0  0  0  0  0  0  0
  -20.9130  -29.4340   21.5030 H   0  0  0  0  0  0  0  0  0  0  0  0
  -18.1330  -27.5370   22.7260 C   0  0  0  0  0  0  0  0  0  0  0  0
  -20.6960  -27.8410   22.8750 C   0  0  0  0  0  3  0  0  0  0  0  0
  -20.7960  -26.4590   22.1870 C   0  0  0  0  0  2  0  0  0  0  0  0
  -19.6460  -26.1850   21.2130 C   0  0  0  0  0  2  0  0  0  0  0  0
  -18.2990  -26.2470   21.9410 C   0  0  0  0  0  2  0  0  0  0  0  0
  -19.2570  -28.2930   23.1500 C   0  0  0  0  0  0  0  0  0  0  0  0
  -19.0450  -29.5020   23.8480 C   0  0  0  0  0  3  0  0  0  0  0  0
  -17.7410  -29.9560   24.1230 C   0  0  0  0  0  3  0  0  0  0  0  0
  -16.6320  -29.1960   23.7140 C   0  0  0  0  0  3  0  0  0  0  0  0
  -16.8290  -27.9880   23.0210 C   0  0  0  0  0  3  0  0  0  0  0  0
  -25.7810  -32.2200   23.6150 C   0  0  0  0  0  3  0  0  0  0  0  0
  -26.3600  -31.4200   24.8480 C   0  0  1  0  0  0  0  0  0  0  0  0
  -25.3000  -31.0850   25.9240 C   0  0  0  0  0  1  0  0  0  0  0  0
  -26.9990  -30.0900   24.3850 C   0  0  0  0  0  1  0  0  0  0  0  0
  -27.4850  -32.2390   25.5220 C   0  0  0  0  0  1  0  0  0  0  0  0
  -25.4090  -33.5840   24.0150 N   0  0  0  0  0  0  0  0  0  0  0  0
  -25.6860  -34.6870   23.3070 C   0  0  0  0  0  0  0  0  0  0  0  0
  -26.3510  -34.6650   22.2680 O   0  0  0  0  0  0  0  0  0  0  0  0
  -24.8150  -33.6700   24.8260 H   0  0  0  0  0  0  0  0  0  0  0  0
  -23.8700  -36.4100   23.0530 C   0  0  0  0  0  1  0  0  0  0  0  0
  -25.1370  -36.0270   23.8350 C   0  0  0  0  0  3  0  0  0  0  0  0
  -27.2260  -36.9790   24.7040 C   0  0  0  0  0  1  0  0  0  0  0  0
  -26.1180  -37.1330   23.7660 N   0  0  0  0  0  0  0  0  0  0  0  0
  -25.6680  -38.0250   23.9490 H   0  0  0  0  0  0  0  0  0  0  0  0
  1  7  1  0
  1  3  2  0
  2 51  1  0
  2  1  1  0
  4  2  1  0
  5  7  2  0
  5  6  1  0
  6 10  2  0
  7  8  1  0
  8  9  2  0
  8 11  1  0
  9 12  1  0
 10  9  1  0
 10 21  1  0
 13 21  1  0
 14 19  1  0
 15 16  1  0
 15 14  1  0
 17 16  1  0
 17 26  1  0
 17 18  1  0
 19 13  1  0
 19 18  1  0
 20 13  2  0
 21 22  1  0
 23 24  2  0
 24 43  1  0
 25 24  1  0
 25 28  1  0
 26 27  1  0
 26 23  1  0
 27 25  2  0
 28 29  1  0
 29 30  2  0
 31 34  1  0
 31 30  1  0
 32 31  2  0
 33 32  1  0
 33 28  2  0
 34 35  1  0
 35 36  1  0
 36 37  2  0
 38 37  1  0
 38 42  1  0
 39 38  2  0
 40 35  2  0
 40 39  1  0
 41 40  1  0
 43 44  1  0
 44 47  1  0
 44 46  1  0
 45 43  2  0
 48 49  1  0
 48 23  1  0
 50 48  1  0
 52 53  1  0
 52 51  2  0
 53 55  1  0
 54 65  2  0
 55 60  1  0
 56 64  1  0
 56 66  1  0
 57 63  1  0
 57 59  1  0
 58 64  1  0
 59 58  1  0
 60 59  2  0
 61 62  1  0
 61 55  2  0
 62 57  2  0
 63 56  1  0
 64 54  1  0
 66 68  2  0
 67 66  1  0
 69 67  1  0
 70 79  2  0
 70 75  1  0
 71 67  1  0
 71 75  1  0
 72 71  1  0
 73 74  1  0
 73 72  1  0
 74 70  1  0
 75 76  2  0
 76 77  1  0
 78 77  2  0
 79 78  1  0
 80 54  1  0
 80 85  1  0
 80 81  1  0
 81 84  1  1
 81 82  1  0
 83 81  1  0
 85 88  1  0
 86 90  1  0
 86 85  1  0
 87 86  2  0
 90 89  1  0
 92 90  1  0
 92 93  1  0
 92 91  1  0
M  ISO  4  13 100  21 100  52 101  53 101
M  END
>  <TORSDO>  (16) 
F 19

>  <SCORE>  (16) 
-12.963

>  <name>  (16) 
15

>  <ligand_id>  (16) 
15

>  <original_smiles>  (16) 
[H]c1c([H])c([H])c2c(c1[H])C([H])([H])C([H])([H])C([H])([H])C2([H])N([H])C(=O)C1([H])N(C(=O)C([H])(N([H])C(=O)C([H])(N([H])C([H])([H])[H])C([H])([H])[H])C(C([H])([H])[H])(C([H])([H])[H])C([H])([H])[H])C([H])([H])c2c([H])c(OC([H])([H])C([H])([H])N([H])C(=O)c3c([H])c([H])c(N([H])C(=O)N4C([H])([H])C([H])([H])C([H])([H])C([H])(n5nc(-c6c([H])c([H])c(Oc7c([H])c([H])c(F)c([H])c7F)c([H])c6[H])c(C(=O)N([H])[H])c5N([H])[H])C4([H])[H])c(C([H])([H])[H])c3C([H])([H])[H])c([H])c([H])c2C1([H])[H]

>  <smiles>  (16) 
[H]c1c([H])c([H])c2c(c1[H])C([H])([H])C([H])([H])C([H])([H])C2([H])N([H])C(=O)C1([H])N(C(=O)C([H])(N([H])C(=O)C([H])(N([H])C([H])([H])[H])C([H])([H])[H])C(C([H])([H])[H])(C([H])([H])[H])C([H])([H])[H])C([H])([H])c2c([H])c(OC([H])([H])C([H])([H])N([H])C(=O)c3c([H])c([H])c(N([H])C(=O)N4C([H])([H])C([H])([H])C([H])([H])C([H])(n5nc(-c6c([H])c([H])c(Oc7c([H])c([H])c(F)c([H])c7F)c([H])c6[H])c(C(=O)N([H])[H])c5N([H])[H])C4([H])[H])c(C([H])([H])[H])c3C([H])([H])[H])c([H])c([H])c2C1([H])[H]

$$$$
16:0:0
     RDKit          3D

 98106  0  0  1  0  0  0  0  0999 V2000
  -30.6650  -22.6500   22.1410 C   0  0  0  0  0  2  0  0  0  0  0  0
  -30.2270  -23.9910   22.5880 N   0  0  0  0  0  4  0  0  0  0  0  0
  -30.4820  -24.0900   23.5600 H   0  0  0  0  0  0  0  0  0  0  0  0
  -29.2220  -23.9900   22.5460 H   0  0  0  0  0  0  0  0  0  0  0  0
  -30.7150  -25.1760   21.8340 C   0  0  0  0  0  2  0  0  0  0  0  0
  -30.4970  -27.6660   21.4130 C   0  0  0  0  0  1  0  0  0  0  0  0
  -29.7810  -26.7520   23.6010 C   0  0  0  0  0  1  0  0  0  0  0  0
  -29.8420  -26.4410   22.0860 C   0  0  2  0  0  0  0  0  0  0  0  0
  -28.3910  -26.2350   21.5460 C   0  0  0  0  0  2  0  0  0  0  0  0
  -28.1450  -26.6710   20.1970 O   0  0  0  0  0  0  0  0  0  0  0  0
  -24.4630  -31.9030   23.1980 C   0  0  0  0  0  0  0  0  0  0  0  0
  -27.0120  -27.4430   20.1220 C   0  0  0  0  0  0  0  0  0  0  0  0
  -23.2100  -30.5180   21.5700 C   0  0  0  0  0  3  0  0  0  0  0  0
  -24.6260  -28.9510   20.1340 C   0  0  0  0  0  0  0  0  0  0  0  0
  -25.7320  -30.8440   21.3410 C   0  0  0  0  0  2  0  0  0  0  0  0
  -25.7910  -29.4730   20.7090 C   0  0  0  0  0  0  0  0  0  0  0  0
  -26.9840  -28.7280   20.7040 C   0  0  0  0  0  3  0  0  0  0  0  0
  -25.8440  -26.9280   19.5260 C   0  0  0  0  0  3  0  0  0  0  0  0
  -24.6450  -27.6750   19.5370 C   0  0  0  0  0  3  0  0  0  0  0  0
  -23.3910  -29.8230   20.1920 C   0  0  0  0  0  2  0  0  0  0  0  0
  -24.4860  -31.1030   22.0950 N   0  0  0  0  0  0  0  0  0  0  0  0
  -23.3980  -32.1990   23.7560 O   0  0  0  0  0  0  0  0  0  0  0  0
  -22.5530  -29.5150   22.5440 C   0  0  0  0  0  0  0  0  0  0  0  0
  -21.2260  -29.3610   22.4360 N   0  0  0  0  0  0  0  0  0  0  0  0
  -23.2360  -28.8790   23.3530 O   0  0  0  0  0  0  0  0  0  0  0  0
  -20.7400  -29.9220   21.7500 H   0  0  0  0  0  0  0  0  0  0  0  0
  -17.8330  -28.2420   22.9800 C   0  0  0  0  0  0  0  0  0  0  0  0
  -20.3990  -28.4460   23.2230 C   0  0  0  0  0  3  0  0  0  0  0  0
  -20.4630  -27.0100   22.6510 C   0  0  0  0  0  2  0  0  0  0  0  0
  -19.3420  -26.7060   21.6520 C   0  0  0  0  0  2  0  0  0  0  0  0
  -17.9720  -26.8860   22.3100 C   0  0  0  0  0  2  0  0  0  0  0  0
  -18.9730  -28.9810   23.3940 C   0  0  0  0  0  0  0  0  0  0  0  0
  -18.7890  -30.2530   23.9790 C   0  0  0  0  0  3  0  0  0  0  0  0
  -17.4970  -30.7850   24.1540 C   0  0  0  0  0  3  0  0  0  0  0  0
  -16.3710  -30.0430   23.7560 C   0  0  0  0  0  3  0  0  0  0  0  0
  -16.5410  -28.7730   23.1740 C   0  0  0  0  0  3  0  0  0  0  0  0
  -25.7730  -32.5090   23.7950 C   0  0  0  0  0  3  0  0  0  0  0  0
  -25.4930  -33.9070   24.1470 N   0  0  0  0  0  0  0  0  0  0  0  0
  -25.8460  -34.9600   23.3990 C   0  0  0  0  0  0  0  0  0  0  0  0
  -26.5080  -34.8540   22.3620 O   0  0  0  0  0  0  0  0  0  0  0  0
  -24.8970  -34.0710   24.9460 H   0  0  0  0  0  0  0  0  0  0  0  0
  -24.1570  -36.7880   23.0600 C   0  0  0  0  0  1  0  0  0  0  0  0
  -25.3890  -36.3550   23.8700 C   0  0  0  0  0  3  0  0  0  0  0  0
  -27.5380  -37.1800   24.7210 C   0  0  0  0  0  1  0  0  0  0  0  0
  -26.4440  -37.3860   23.7750 N   0  0  0  0  0  0  0  0  0  0  0  0
  -26.0600  -38.3170   23.9310 H   0  0  0  0  0  0  0  0  0  0  0  0
  -26.3130  -31.7110   25.0460 C   0  0  1  0  0  0  0  0  0  0  0  0
  -25.2450  -31.4700   26.1370 C   0  0  0  0  0  1  0  0  0  0  0  0
  -26.8630  -30.3330   24.6150 C   0  0  0  0  0  1  0  0  0  0  0  0
  -27.4920  -32.4840   25.6830 C   0  0  0  0  0  1  0  0  0  0  0  0
  -30.2940  -22.3440   20.6750 C   0  0  0  0  0  2  0  0  0  0  0  0
  -31.2320  -19.9680   20.6750 C   0  0  0  0  0  3  0  0  0  0  0  0
  -29.0150  -20.3570   19.7730 C   0  0  0  0  0  3  0  0  0  0  0  0
  -30.1860  -20.8580   20.3720 C   0  0  0  0  0  0  0  0  0  0  0  0
  -31.1100  -18.5880   20.4140 C   0  0  0  0  0  0  0  0  0  0  0  0
  -28.8810  -18.9870   19.4780 C   0  0  0  0  0  0  0  0  0  0  0  0
  -29.9220  -18.0730   19.8180 C   0  0  0  0  0  0  0  0  0  0  0  0
  -32.3050  -17.7090   20.7450 C   0  0  0  0  0  1  0  0  0  0  0  0
  -27.6150  -18.5610   18.7440 C   0  0  0  0  0  1  0  0  0  0  0  0
  -29.8090  -16.5940   19.4180 C   0  0  0  0  0  2  0  0  0  0  0  0
  -30.6760  -14.4960   20.2790 C   0  0  0  0  0  0  0  0  0  0  0  0
  -30.3510  -12.3420   19.1900 C   0  0  0  0  0  2  0  0  0  0  0  0
  -29.3980  -12.5750   17.9980 C   0  0  0  0  0  2  0  0  0  0  0  0
  -27.9340  -12.4250   18.4490 C   0  0  0  0  0  2  0  0  0  0  0  0
  -27.6110  -13.2700   19.7090 C   0  0  0  0  0  3  0  0  0  0  0  0
  -28.6780  -13.0670   20.8130 C   0  0  0  0  0  2  0  0  0  0  0  0
  -30.0050  -13.3220   20.2310 N   0  0  0  0  0  0  0  0  0  0  0  0
  -31.8240  -14.6300   19.8520 O   0  0  0  0  0  0  0  0  0  0  0  0
  -29.8980  -15.5710   20.4720 N   0  0  0  0  0  0  0  0  0  0  0  0
  -29.0390  -15.3970   20.9700 H   0  0  0  0  0  0  0  0  0  0  0  0
  -25.2170  -13.8810   20.4300 C   0  0  0  0  0  0  0  0  0  0  0  0
  -24.1560  -13.1070   20.8120 C   0  0  0  0  0  0  0  0  0  0  0  0
  -24.6220  -11.7570   20.7920 C   0  0  0  0  0  0  0  0  0  0  0  0
  -26.2630  -13.0000   20.2000 N   0  0  0  0  0  0  0  0  0  0  0  0
  -25.9090  -11.7190   20.4780 N   0  0  0  0  0  0  0  0  0  0  0  0
  -23.9050  -10.4940   20.9940 C   0  0  0  0  0  0  0  0  0  0  0  0
  -24.3460   -9.5390   21.9380 C   0  0  0  0  0  3  0  0  0  0  0  0
  -23.6290   -8.3390   22.1310 C   0  0  0  0  0  3  0  0  0  0  0  0
  -22.4570   -8.0850   21.3770 C   0  0  0  0  0  0  0  0  0  0  0  0
  -22.0360   -9.0270   20.4250 C   0  0  0  0  0  3  0  0  0  0  0  0
  -22.7520  -10.2180   20.2310 C   0  0  0  0  0  3  0  0  0  0  0  0
  -21.7120   -6.9340   21.4790 O   0  0  0  0  0  0  0  0  0  0  0  0
  -21.6630   -6.2060   22.6400 C   0  0  0  0  0  0  0  0  0  0  0  0
  -21.2320   -6.7760   23.8580 C   0  0  0  0  0  3  0  0  0  0  0  0
  -21.1330   -5.9740   25.0120 C   0  0  0  0  0  3  0  0  0  0  0  0
  -21.4530   -4.6060   24.9510 C   0  0  0  0  0  0  0  0  0  0  0  0
  -21.8790   -4.0350   23.7370 C   0  0  0  0  0  3  0  0  0  0  0  0
  -21.9800   -4.8340   22.5850 C   0  0  0  0  0  0  0  0  0  0  0  0
  -22.3700   -4.2750   21.4130 F   0  0  0  0  0  0  0  0  0  0  0  0
  -21.3510   -3.8350   26.0580 F   0  0  0  0  0  0  0  0  0  0  0  0
  -22.7600  -13.5800   21.0940 C   0  0  0  0  0  0  0  0  0  0  0  0
  -22.0440  -12.8820   21.9690 N   0  0  0  0  0  0  0  0  0  0  0  0
  -22.3130  -14.6010   20.5740 O   0  0  0  0  0  0  0  0  0  0  0  0
  -22.4240  -12.0560   22.4090 H   0  0  0  0  0  0  0  0  0  0  0  0
  -21.1080  -13.1760   22.2060 H   0  0  0  0  0  0  0  0  0  0  0  0
  -25.3770  -15.2500   20.2390 N   0  0  0  0  0  0  0  0  0  0  0  0
  -24.6050  -15.9010   20.3380 H   0  0  0  0  0  0  0  0  0  0  0  0
  -26.2250  -15.6840   19.9020 H   0  0  0  0  0  0  0  0  0  0  0  0
  1  2  1  0
  2  3  1  0
  4  2  1  0
  5  8  1  0
  5  2  1  0
  8  6  1  6
  8  7  1  0
  9  8  1  0
 10  9  1  0
 11 22  2  0
 12 10  1  0
 12 17  1  0
 13 21  1  0
 13 23  1  0
 14 20  1  0
 14 16  1  0
 15 21  1  0
 16 15  1  0
 17 16  2  0
 18 19  1  0
 18 12  2  0
 19 14  2  0
 20 13  1  0
 21 11  1  0
 23 25  2  0
 24 23  1  0
 26 24  1  0
 27 36  2  0
 27 32  1  0
 28 24  1  0
 28 32  1  0
 29 28  1  0
 30 31  1  0
 30 29  1  0
 31 27  1  0
 32 33  2  0
 33 34  1  0
 35 34  2  0
 36 35  1  0
 37 11  1  0
 37 38  1  0
 37 47  1  0
 38 41  1  0
 39 43  1  0
 39 38  1  0
 40 39  2  0
 43 42  1  0
 45 43  1  0
 45 46  1  0
 45 44  1  0
 47 50  1  1
 47 48  1  0
 49 47  1  0
 51  1  1  0
 53 54  1  0
 54 52  2  0
 54 51  1  0
 55 52  1  0
 55 58  1  0
 56 53  2  0
 56 57  1  0
 57 55  2  0
 59 56  1  0
 60 57  1  0
 60 69  1  0
 61 69  1  0
 62 67  1  0
 63 64  1  0
 63 62  1  0
 65 64  1  0
 65 74  1  0
 65 66  1  0
 67 61  1  0
 67 66  1  0
 68 61  2  0
 69 70  1  0
 71 72  2  0
 72 91  1  0
 73 72  1  0
 73 76  1  0
 74 71  1  0
 74 75  1  0
 75 73  2  0
 76 77  1  0
 77 78  2  0
 79 82  1  0
 79 78  1  0
 80 79  2  0
 81 80  1  0
 81 76  2  0
 82 83  1  0
 83 84  1  0
 84 85  2  0
 86 85  1  0
 86 90  1  0
 87 86  2  0
 88 83  2  0
 88 87  1  0
 89 88  1  0
 91 92  1  0
 92 95  1  0
 92 94  1  0
 93 91  2  0
 96 97  1  0
 96 71  1  0
 98 96  1  0
M  ISO  4   9 101  10 101  61 100  69 100
M  END
>  <TORSDO>  (17) 
F 23

>  <SCORE>  (17) 
-13.168

>  <name>  (17) 
16

>  <ligand_id>  (17) 
16

>  <original_smiles>  (17) 
[H]c1c([H])c([H])c2c(c1[H])C([H])([H])C([H])([H])C([H])([H])C2([H])N([H])C(=O)C1([H])N(C(=O)C([H])(N([H])C(=O)C([H])(N([H])C([H])([H])[H])C([H])([H])[H])C(C([H])([H])[H])(C([H])([H])[H])C([H])([H])[H])C([H])([H])c2c([H])c(OC([H])([H])C(C([H])([H])[H])(C([H])([H])[H])C([H])([H])[N+]([H])([H])C([H])([H])C([H])([H])c3c([H])c(C([H])([H])[H])c(C([H])([H])N([H])C(=O)N4C([H])([H])C([H])([H])C([H])([H])C([H])(n5nc(-c6c([H])c([H])c(Oc7c([H])c([H])c(F)c([H])c7F)c([H])c6[H])c(C(=O)N([H])[H])c5N([H])[H])C4([H])[H])c(C([H])([H])[H])c3[H])c([H])c([H])c2C1([H])[H]

>  <smiles>  (17) 
[H]c1c([H])c([H])c2c(c1[H])C([H])([H])C([H])([H])C([H])([H])C2([H])N([H])C(=O)C1([H])N(C(=O)C([H])(N([H])C(=O)C([H])(N([H])C([H])([H])[H])C([H])([H])[H])C(C([H])([H])[H])(C([H])([H])[H])C([H])([H])[H])C([H])([H])c2c([H])c(OC([H])([H])C(C([H])([H])[H])(C([H])([H])[H])C([H])([H])[N+]([H])([H])C([H])([H])C([H])([H])c3c([H])c(C([H])([H])[H])c(C([H])([H])N([H])C(=O)N4C([H])([H])C([H])([H])C([H])([H])C([H])(n5nc(-c6c([H])c([H])c(Oc7c([H])c([H])c(F)c([H])c7F)c([H])c6[H])c(C(=O)N([H])[H])c5N([H])[H])C4([H])[H])c(C([H])([H])[H])c3[H])c([H])c([H])c2C1([H])[H]

$$$$
17:0:0
     RDKit          3D

 93101  0  0  1  0  0  0  0  0999 V2000
  -29.3400  -22.4460   20.7310 C   0  0  0  0  0  0  0  0  0  0  0  0
  -29.4030  -21.2530   21.3400 N   0  0  0  0  0  0  0  0  0  0  0  0
  -29.6620  -22.6030   19.5510 O   0  0  0  0  0  0  0  0  0  0  0  0
  -29.1470  -21.2130   22.3180 H   0  0  0  0  0  0  0  0  0  0  0  0
  -28.8050  -23.6350   21.5440 C   0  0  0  0  0  2  0  0  0  0  0  0
  -29.6670  -24.9180   21.4220 C   0  0  0  0  0  2  0  0  0  0  0  0
  -28.8700  -26.2420   21.4900 C   0  0  0  0  0  2  0  0  0  0  0  0
  -28.3970  -26.6340   20.1950 O   0  0  0  0  0  0  0  0  0  0  0  0
  -24.5940  -31.8710   23.2310 C   0  0  0  0  0  0  0  0  0  0  0  0
  -27.2660  -27.4190   20.2010 C   0  0  0  0  0  0  0  0  0  0  0  0
  -23.4030  -30.4610   21.5850 C   0  0  0  0  0  3  0  0  0  0  0  0
  -24.8740  -28.9230   20.1790 C   0  0  0  0  0  0  0  0  0  0  0  0
  -25.9300  -30.8270   21.4040 C   0  0  0  0  0  2  0  0  0  0  0  0
  -26.0250  -29.4500   20.7800 C   0  0  0  0  0  0  0  0  0  0  0  0
  -27.2270  -28.7020   20.7980 C   0  0  0  0  0  3  0  0  0  0  0  0
  -26.1050  -26.9110   19.5840 C   0  0  0  0  0  3  0  0  0  0  0  0
  -24.9080  -27.6520   19.5800 C   0  0  0  0  0  3  0  0  0  0  0  0
  -23.6250  -29.7770   20.2100 C   0  0  0  0  0  2  0  0  0  0  0  0
  -24.6610  -31.0680   22.1340 N   0  0  0  0  0  0  0  0  0  0  0  0
  -23.5080  -32.1430   23.7630 O   0  0  0  0  0  0  0  0  0  0  0  0
  -22.7490  -29.4410   22.5440 C   0  0  0  0  0  0  0  0  0  0  0  0
  -21.4260  -29.2600   22.4110 N   0  0  0  0  0  0  0  0  0  0  0  0
  -23.4290  -28.8160   23.3640 O   0  0  0  0  0  0  0  0  0  0  0  0
  -20.9380  -29.8110   21.7190 H   0  0  0  0  0  0  0  0  0  0  0  0
  -18.0490  -28.0700   22.9010 C   0  0  0  0  0  0  0  0  0  0  0  0
  -20.6070  -28.3250   23.1820 C   0  0  0  0  0  3  0  0  0  0  0  0
  -20.7100  -26.8930   22.6080 C   0  0  0  0  0  2  0  0  0  0  0  0
  -19.6110  -26.5700   21.5900 C   0  0  0  0  0  2  0  0  0  0  0  0
  -18.2270  -26.7200   22.2270 C   0  0  0  0  0  2  0  0  0  0  0  0
  -19.1680  -28.8300   23.3350 C   0  0  0  0  0  0  0  0  0  0  0  0
  -18.9510  -30.0940   23.9240 C   0  0  0  0  0  3  0  0  0  0  0  0
  -17.6470  -30.6000   24.0820 C   0  0  0  0  0  3  0  0  0  0  0  0
  -16.5420  -29.8380   23.6670 C   0  0  0  0  0  3  0  0  0  0  0  0
  -16.7440  -28.5740   23.0810 C   0  0  0  0  0  3  0  0  0  0  0  0
  -25.8740  -32.5080   23.8570 C   0  0  0  0  0  3  0  0  0  0  0  0
  -25.5580  -33.9040   24.1890 N   0  0  0  0  0  0  0  0  0  0  0  0
  -25.8850  -34.9580   23.4290 C   0  0  0  0  0  0  0  0  0  0  0  0
  -26.5560  -34.8570   22.3970 O   0  0  0  0  0  0  0  0  0  0  0  0
  -24.9640  -34.0570   24.9910 H   0  0  0  0  0  0  0  0  0  0  0  0
  -24.1410  -36.7320   23.0770 C   0  0  0  0  0  1  0  0  0  0  0  0
  -25.3890  -36.3430   23.8850 C   0  0  0  0  0  3  0  0  0  0  0  0
  -27.5200  -37.2410   24.7040 C   0  0  0  0  0  1  0  0  0  0  0  0
  -26.4120  -37.4040   23.7670 N   0  0  0  0  0  0  0  0  0  0  0  0
  -26.0010  -38.3200   23.9220 H   0  0  0  0  0  0  0  0  0  0  0  0
  -26.3950  -31.7330   25.1290 C   0  0  1  0  0  0  0  0  0  0  0  0
  -25.3020  -31.4850   26.1940 C   0  0  0  0  0  1  0  0  0  0  0  0
  -26.9860  -30.3610   24.7280 C   0  0  0  0  0  1  0  0  0  0  0  0
  -27.5420  -32.5310   25.7950 C   0  0  0  0  0  1  0  0  0  0  0  0
  -29.7470  -19.9880   20.6800 C   0  0  0  0  0  2  0  0  0  0  0  0
  -30.5980  -19.0640   21.5860 C   0  0  0  0  0  2  0  0  0  0  0  0
  -31.0970  -17.7460   20.9280 C   0  0  0  0  0  3  0  0  0  0  0  0
  -33.3400  -18.7980   19.9860 C   0  0  0  0  0  2  0  0  0  0  0  0
  -33.3460  -17.3510   19.5470 C   0  0  0  0  0  2  0  0  0  0  0  0
  -32.0320  -18.0680   19.7610 C   0  0  0  0  0  3  0  0  0  0  0  0
  -29.9030  -16.8450   20.4950 C   0  0  0  0  0  2  0  0  0  0  0  0
  -30.6670  -14.4530   20.2480 C   0  0  0  0  0  0  0  0  0  0  0  0
  -30.3470  -12.3050   19.0930 C   0  0  0  0  0  2  0  0  0  0  0  0
  -29.3850  -12.5550   17.9120 C   0  0  0  0  0  2  0  0  0  0  0  0
  -27.9110  -12.4540   18.3590 C   0  0  0  0  0  2  0  0  0  0  0  0
  -27.6200  -13.2480   19.6590 C   0  0  0  0  0  3  0  0  0  0  0  0
  -28.6920  -12.9620   20.7360 C   0  0  0  0  0  2  0  0  0  0  0  0
  -30.0130  -13.2650   20.1560 N   0  0  0  0  0  0  0  0  0  0  0  0
  -31.7390  -14.6780   19.6840 O   0  0  0  0  0  0  0  0  0  0  0  0
  -29.9630  -15.4230   20.8530 N   0  0  0  0  0  0  0  0  0  0  0  0
  -29.1490  -15.0790   21.3450 H   0  0  0  0  0  0  0  0  0  0  0  0
  -25.2370  -13.8840   20.3960 C   0  0  0  0  0  0  0  0  0  0  0  0
  -24.1690  -13.1240   20.7890 C   0  0  0  0  0  0  0  0  0  0  0  0
  -24.6150  -11.7670   20.7530 C   0  0  0  0  0  0  0  0  0  0  0  0
  -26.2700  -12.9890   20.1560 N   0  0  0  0  0  0  0  0  0  0  0  0
  -25.9000  -11.7110   20.4230 N   0  0  0  0  0  0  0  0  0  0  0  0
  -23.8810  -10.5120   20.9620 C   0  0  0  0  0  0  0  0  0  0  0  0
  -24.3250   -9.5450   21.8900 C   0  0  0  0  0  3  0  0  0  0  0  0
  -23.5940   -8.3530   22.0870 C   0  0  0  0  0  3  0  0  0  0  0  0
  -22.4030   -8.1230   21.3580 C   0  0  0  0  0  0  0  0  0  0  0  0
  -21.9790   -9.0790   20.4180 C   0  0  0  0  0  3  0  0  0  0  0  0
  -22.7090  -10.2630   20.2190 C   0  0  0  0  0  3  0  0  0  0  0  0
  -21.6390   -6.9850   21.4670 O   0  0  0  0  0  0  0  0  0  0  0  0
  -21.6080   -6.2460   22.6220 C   0  0  0  0  0  0  0  0  0  0  0  0
  -21.2250   -6.8100   23.8590 C   0  0  0  0  0  3  0  0  0  0  0  0
  -21.1420   -5.9970   25.0070 C   0  0  0  0  0  3  0  0  0  0  0  0
  -21.4290   -4.6220   24.9200 C   0  0  0  0  0  0  0  0  0  0  0  0
  -21.8050   -4.0570   23.6890 C   0  0  0  0  0  3  0  0  0  0  0  0
  -21.8920   -4.8670   22.5430 C   0  0  0  0  0  0  0  0  0  0  0  0
  -22.2330   -4.3150   21.3540 F   0  0  0  0  0  0  0  0  0  0  0  0
  -21.3430   -3.8400   26.0210 F   0  0  0  0  0  0  0  0  0  0  0  0
  -22.7830  -13.6110   21.0920 C   0  0  0  0  0  0  0  0  0  0  0  0
  -22.0680  -12.9220   21.9740 N   0  0  0  0  0  0  0  0  0  0  0  0
  -22.3410  -14.6370   20.5750 O   0  0  0  0  0  0  0  0  0  0  0  0
  -22.4380  -12.0890   22.4100 H   0  0  0  0  0  0  0  0  0  0  0  0
  -21.1390  -13.2290   22.2170 H   0  0  0  0  0  0  0  0  0  0  0  0
  -25.4160  -15.2510   20.2090 N   0  0  0  0  0  0  0  0  0  0  0  0
  -24.6620  -15.9220   20.3230 H   0  0  0  0  0  0  0  0  0  0  0  0
  -26.2700  -15.6760   19.8700 H   0  0  0  0  0  0  0  0  0  0  0  0
  1  2  1  0
  1  5  1  0
  2  4  1  0
  3  1  2  0
  6  7  1  0
  6  5  1  0
  8 10  1  0
  8  7  1  0
  9 20  2  0
 10 15  1  0
 11 19  1  0
 11 21  1  0
 12 18  1  0
 12 14  1  0
 13 19  1  0
 14 15  2  0
 14 13  1  0
 16 10  2  0
 17 16  1  0
 17 12  2  0
 18 11  1  0
 19  9  1  0
 21 23  2  0
 22 21  1  0
 24 22  1  0
 25 34  2  0
 25 30  1  0
 26 22  1  0
 26 30  1  0
 27 26  1  0
 28 29  1  0
 28 27  1  0
 29 25  1  0
 30 31  2  0
 31 32  1  0
 33 32  2  0
 34 33  1  0
 35  9  1  0
 35 36  1  0
 35 45  1  0
 36 39  1  0
 37 41  1  0
 37 36  1  0
 38 37  2  0
 41 40  1  0
 43 41  1  0
 43 44  1  0
 43 42  1  0
 45 48  1  1
 45 46  1  0
 47 45  1  0
 49  2  1  0
 49 50  1  0
 51 55  1  0
 51 50  1  0
 53 54  1  0
 53 52  1  0
 54 52  1  0
 54 51  1  0
 55 64  1  0
 56 64  1  0
 57 62  1  0
 58 59  1  0
 58 57  1  0
 60 59  1  0
 60 69  1  0
 60 61  1  0
 62 56  1  0
 62 61  1  0
 63 56  2  0
 64 65  1  0
 66 67  2  0
 67 86  1  0
 68 67  1  0
 68 71  1  0
 69 66  1  0
 69 70  1  0
 70 68  2  0
 71 72  1  0
 72 73  2  0
 74 77  1  0
 74 73  1  0
 75 74  2  0
 76 75  1  0
 76 71  2  0
 77 78  1  0
 78 79  1  0
 79 80  2  0
 81 80  1  0
 81 85  1  0
 82 81  2  0
 83 78  2  0
 83 82  1  0
 84 83  1  0
 86 87  1  0
 87 90  1  0
 87 89  1  0
 88 86  2  0
 91 92  1  0
 91 66  1  0
 93 91  1  0
M  ISO  4   7 101   8 101  56 100  64 100
M  END
>  <TORSDO>  (18) 
F 24

>  <SCORE>  (18) 
-12.656

>  <name>  (18) 
17

>  <ligand_id>  (18) 
17

>  <original_smiles>  (18) 
[H]c1c([H])c([H])c2c(c1[H])C([H])([H])C([H])([H])C([H])([H])C2([H])N([H])C(=O)C1([H])N(C(=O)C([H])(N([H])C(=O)C([H])(N([H])C([H])([H])[H])C([H])([H])[H])C(C([H])([H])[H])(C([H])([H])[H])C([H])([H])[H])C([H])([H])c2c([H])c(OC([H])([H])C([H])([H])C([H])([H])C(=O)N([H])C([H])([H])C([H])([H])C([H])(C([H])([H])N([H])C(=O)N3C([H])([H])C([H])([H])C([H])([H])C([H])(n4nc(-c5c([H])c([H])c(Oc6c([H])c([H])c(F)c([H])c6F)c([H])c5[H])c(C(=O)N([H])[H])c4N([H])[H])C3([H])[H])C3([H])C([H])([H])C3([H])[H])c([H])c([H])c2C1([H])[H]

>  <smiles>  (18) 
[H]c1c([H])c([H])c2c(c1[H])C([H])([H])C([H])([H])C([H])([H])C2([H])N([H])C(=O)C1([H])N(C(=O)C([H])(N([H])C(=O)C([H])(N([H])C([H])([H])[H])C([H])([H])[H])C(C([H])([H])[H])(C([H])([H])[H])C([H])([H])[H])C([H])([H])c2c([H])c(OC([H])([H])C([H])([H])C([H])([H])C(=O)N([H])C([H])([H])C([H])([H])C([H])(C([H])([H])N([H])C(=O)N3C([H])([H])C([H])([H])C([H])([H])C([H])(n4nc(-c5c([H])c([H])c(Oc6c([H])c([H])c(F)c([H])c6F)c([H])c5[H])c(C(=O)N([H])[H])c4N([H])[H])C3([H])[H])C3([H])C([H])([H])C3([H])[H])c([H])c([H])c2C1([H])[H]

$$$$
18:0:0
     RDKit          3D

 97107  0  0  1  0  0  0  0  0999 V2000
  -25.4450  -20.0390   19.0820 C   0  0  0  0  0  1  0  0  0  0  0  0
  -27.3360  -20.8580   17.6790 C   0  0  0  0  0  1  0  0  0  0  0  0
  -26.8380  -20.7160   19.1410 C   0  0  2  0  0  0  0  0  0  0  0  0
  -27.7560  -19.9090   20.1570 C   0  0  0  0  0  2  0  0  0  0  0  0
  -29.9330  -17.2680   18.5010 C   0  0  0  0  0  2  0  0  0  0  0  0
  -30.5420  -19.4800   19.5720 C   0  0  0  0  0  3  0  0  0  0  0  0
  -30.4000  -17.0860   19.9440 C   0  0  0  0  0  3  0  0  0  0  0  0
  -29.5820  -18.7550   18.6090 C   0  0  1  0  0  0  0  0  0  0  0  0
  -29.8490  -18.4270   20.4770 C   0  0  1  0  0  0  0  0  0  0  0  0
  -30.6470  -21.0030   19.7720 C   0  0  0  0  0  1  0  0  0  0  0  0
  -28.6060  -18.7400   19.7120 N   0  0  1  0  0  4  0  0  0  0  0  0
  -28.0170  -17.9290   19.6270 H   0  0  0  0  0  0  0  0  0  0  0  0
  -30.8630  -14.7080   20.4610 C   0  0  0  0  0  0  0  0  0  0  0  0
  -30.6190  -12.5120   19.4090 C   0  0  0  0  0  2  0  0  0  0  0  0
  -29.7370  -12.7360   18.1630 C   0  0  0  0  0  2  0  0  0  0  0  0
  -28.2430  -12.6270   18.5320 C   0  0  0  0  0  2  0  0  0  0  0  0
  -27.8640  -13.4630   19.7850 C   0  0  0  0  0  3  0  0  0  0  0  0
  -28.8740  -13.2480   20.9360 C   0  0  0  0  0  2  0  0  0  0  0  0
  -30.2180  -13.5190   20.4060 N   0  0  0  0  0  0  0  0  0  0  0  0
  -32.0460  -14.8320   20.1440 O   0  0  0  0  0  0  0  0  0  0  0  0
  -30.0480  -15.7840   20.5560 N   0  0  0  0  0  0  0  0  0  0  0  0
  -29.0840  -15.5930   20.7700 H   0  0  0  0  0  0  0  0  0  0  0  0
  -25.4460  -14.0770   20.3830 C   0  0  0  0  0  0  0  0  0  0  0  0
  -24.3710  -13.3090   20.7310 C   0  0  0  0  0  0  0  0  0  0  0  0
  -24.8370  -11.9590   20.7570 C   0  0  0  0  0  0  0  0  0  0  0  0
  -26.5020  -13.1960   20.2260 N   0  0  0  0  0  0  0  0  0  0  0  0
  -26.1390  -11.9180   20.5100 N   0  0  0  0  0  0  0  0  0  0  0  0
  -24.1060  -10.7020   20.9530 C   0  0  0  0  0  0  0  0  0  0  0  0
  -24.4810   -9.7790   21.9520 C   0  0  0  0  0  3  0  0  0  0  0  0
  -23.7540   -8.5820   22.1280 C   0  0  0  0  0  3  0  0  0  0  0  0
  -22.6380   -8.3030   21.3030 C   0  0  0  0  0  0  0  0  0  0  0  0
  -22.2800   -9.2180   20.2970 C   0  0  0  0  0  3  0  0  0  0  0  0
  -23.0090  -10.4050   20.1200 C   0  0  0  0  0  3  0  0  0  0  0  0
  -21.8840   -7.1570   21.3860 O   0  0  0  0  0  0  0  0  0  0  0  0
  -21.7450   -6.4720   22.5650 C   0  0  0  0  0  0  0  0  0  0  0  0
  -21.1820   -7.0710   23.7120 C   0  0  0  0  0  3  0  0  0  0  0  0
  -20.9890   -6.3090   24.8810 C   0  0  0  0  0  3  0  0  0  0  0  0
  -21.3510   -4.9500   24.9060 C   0  0  0  0  0  0  0  0  0  0  0  0
  -21.9080   -4.3490   23.7620 C   0  0  0  0  0  3  0  0  0  0  0  0
  -22.1010   -5.1080   22.5940 C   0  0  0  0  0  0  0  0  0  0  0  0
  -22.6170   -4.5180   21.4890 F   0  0  0  0  0  0  0  0  0  0  0  0
  -21.1600   -4.2170   26.0270 F   0  0  0  0  0  0  0  0  0  0  0  0
  -22.9690  -13.7970   20.9490 C   0  0  0  0  0  0  0  0  0  0  0  0
  -22.2080  -13.1180   21.7970 N   0  0  0  0  0  0  0  0  0  0  0  0
  -22.5530  -14.8150   20.3990 O   0  0  0  0  0  0  0  0  0  0  0  0
  -22.5570  -12.2990   22.2690 H   0  0  0  0  0  0  0  0  0  0  0  0
  -21.2680  -13.4310   21.9850 H   0  0  0  0  0  0  0  0  0  0  0  0
  -25.5990  -15.4410   20.1760 N   0  0  0  0  0  0  0  0  0  0  0  0
  -24.7430  -15.9730   20.3020 H   0  0  0  0  0  0  0  0  0  0  0  0
  -26.3850  -15.8910   20.6290 H   0  0  0  0  0  0  0  0  0  0  0  0
  -26.5980  -22.1740   19.6710 C   0  0  0  0  0  2  0  0  0  0  0  0
  -27.8460  -22.9830   19.8390 N   0  0  0  0  0  4  0  0  0  0  0  0
  -28.0460  -23.0170   20.8250 H   0  0  0  0  0  0  0  0  0  0  0  0
  -28.6060  -22.4970   19.3850 H   0  0  0  0  0  0  0  0  0  0  0  0
  -27.8600  -24.3720   19.2920 C   0  0  0  0  0  2  0  0  0  0  0  0
  -28.2420  -25.4680   20.3380 C   0  0  0  0  0  2  0  0  0  0  0  0
  -28.3340  -26.8210   19.8430 O   0  0  0  0  0  0  0  0  0  0  0  0
  -24.5880  -31.9140   23.2090 C   0  0  0  0  0  0  0  0  0  0  0  0
  -27.1790  -27.5730   19.8940 C   0  0  0  0  0  0  0  0  0  0  0  0
  -23.3830  -30.5410   21.5690 C   0  0  0  0  0  3  0  0  0  0  0  0
  -24.7870  -29.0760   20.0480 C   0  0  0  0  0  0  0  0  0  0  0  0
  -25.8940  -30.9150   21.3340 C   0  0  0  0  0  2  0  0  0  0  0  0
  -25.9610  -29.5700   20.6420 C   0  0  0  0  0  0  0  0  0  0  0  0
  -27.1620  -28.8220   20.5630 C   0  0  0  0  0  3  0  0  0  0  0  0
  -26.0010  -27.1420   19.2470 C   0  0  0  0  0  3  0  0  0  0  0  0
  -24.8060  -27.8660   19.3430 C   0  0  0  0  0  3  0  0  0  0  0  0
  -23.5410  -29.9190   20.1570 C   0  0  0  0  0  2  0  0  0  0  0  0
  -24.6460  -31.1390   22.0940 N   0  0  0  0  0  0  0  0  0  0  0  0
  -23.5130  -32.1600   23.7700 O   0  0  0  0  0  0  0  0  0  0  0  0
  -22.7700  -29.4860   22.5090 C   0  0  0  0  0  0  0  0  0  0  0  0
  -21.4560  -29.3660   22.3540 N   0  0  0  0  0  0  0  0  0  0  0  0
  -23.4470  -28.8120   23.2900 O   0  0  0  0  0  0  0  0  0  0  0  0
  -21.0390  -30.0580   21.7450 H   0  0  0  0  0  0  0  0  0  0  0  0
  -18.0750  -27.8030   22.6950 C   0  0  0  0  0  0  0  0  0  0  0  0
  -20.5340  -28.3180   22.7040 C   0  0  0  0  0  3  0  0  0  0  0  0
  -20.8580  -26.8360   22.5100 C   0  0  0  0  0  2  0  0  0  0  0  0
  -19.8050  -26.2310   21.5590 C   0  0  0  0  0  2  0  0  0  0  0  0
  -18.3640  -26.4360   22.0750 C   0  0  0  0  0  2  0  0  0  0  0  0
  -19.1210  -28.6660   23.1010 C   0  0  0  0  0  0  0  0  0  0  0  0
  -18.8250  -29.9160   23.6760 C   0  0  0  0  0  3  0  0  0  0  0  0
  -17.4920  -30.3380   23.8110 C   0  0  0  0  0  3  0  0  0  0  0  0
  -16.4510  -29.4980   23.3800 C   0  0  0  0  0  3  0  0  0  0  0  0
  -16.7410  -28.2310   22.8370 C   0  0  0  0  0  3  0  0  0  0  0  0
  -25.8800  -32.5370   23.8230 C   0  0  0  0  0  3  0  0  0  0  0  0
  -25.5690  -33.9310   24.1590 N   0  0  0  0  0  0  0  0  0  0  0  0
  -25.9010  -34.9820   23.4040 C   0  0  0  0  0  0  0  0  0  0  0  0
  -26.5730  -34.8820   22.3730 O   0  0  0  0  0  0  0  0  0  0  0  0
  -24.9810  -34.0800   24.9670 H   0  0  0  0  0  0  0  0  0  0  0  0
  -24.1920  -36.7840   23.0130 C   0  0  0  0  0  1  0  0  0  0  0  0
  -25.4070  -36.3690   23.8570 C   0  0  0  0  0  3  0  0  0  0  0  0
  -27.5140  -37.2270   24.7790 C   0  0  0  0  0  1  0  0  0  0  0  0
  -26.4510  -37.4140   23.7920 N   0  0  0  0  0  0  0  0  0  0  0  0
  -26.0480  -38.3360   23.9380 H   0  0  0  0  0  0  0  0  0  0  0  0
  -26.4000  -31.7520   25.0880 C   0  0  1  0  0  0  0  0  0  0  0  0
  -25.3100  -31.4990   26.1560 C   0  0  0  0  0  1  0  0  0  0  0  0
  -26.9900  -30.3810   24.6830 C   0  0  0  0  0  1  0  0  0  0  0  0
  -27.5540  -32.5450   25.7460 C   0  0  0  0  0  1  0  0  0  0  0  0
  3  1  1  6
  2  3  1  0
  3 51  1  0
  3  4  1  0
  5  7  1  0
  6 10  1  0
  9  6  1  1
  7  9  1  0
  7 21  1  0
  8  5  1  1
  8  6  1  0
  8 11  1  0
  8  9  1  0
  9 11  1  0
 11  4  1  0
 11 12  1  6
 13 21  1  0
 14 19  1  0
 15 16  1  0
 15 14  1  0
 17 16  1  0
 17 26  1  0
 17 18  1  0
 19 13  1  0
 19 18  1  0
 20 13  2  0
 21 22  1  0
 23 24  2  0
 24 25  1  0
 24 43  1  0
 25 28  1  0
 26 23  1  0
 26 27  1  0
 27 25  2  0
 28 29  1  0
 29 30  2  0
 31 34  1  0
 31 30  1  0
 32 31  2  0
 33 32  1  0
 33 28  2  0
 34 35  1  0
 35 40  2  0
 35 36  1  0
 36 37  2  0
 37 38  1  0
 38 42  1  0
 39 38  2  0
 40 39  1  0
 41 40  1  0
 43 44  1  0
 44 47  1  0
 44 46  1  0
 45 43  2  0
 48 49  1  0
 48 23  1  0
 48 50  1  0
 51 52  1  0
 52 53  1  0
 54 52  1  0
 55 52  1  0
 55 56  1  0
 57 59  1  0
 57 56  1  0
 58 69  2  0
 59 64  1  0
 60 68  1  0
 60 70  1  0
 61 67  1  0
 61 63  1  0
 62 68  1  0
 63 62  1  0
 64 63  2  0
 65 66  1  0
 65 59  2  0
 66 61  2  0
 67 60  1  0
 68 58  1  0
 70 72  2  0
 71 70  1  0
 73 71  1  0
 74 83  2  0
 74 79  1  0
 75 71  1  0
 75 79  1  0
 76 75  1  0
 77 78  1  0
 77 76  1  0
 78 74  1  0
 79 80  2  0
 80 81  1  0
 82 81  2  0
 83 82  1  0
 84 58  1  0
 84 85  1  0
 84 94  1  0
 85 88  1  0
 86 90  1  0
 86 85  1  0
 87 86  2  0
 90 89  1  0
 92 90  1  0
 92 93  1  0
 92 91  1  0
 94 97  1  1
 94 95  1  0
 96 94  1  0
M  ISO  4  13 100  21 100  56 101  57 101
M  END
>  <TORSDO>  (19) 
F 22

>  <SCORE>  (19) 
-12.008

>  <name>  (19) 
18

>  <ligand_id>  (19) 
18

>  <original_smiles>  (19) 
[H]c1c([H])c([H])c2c(c1[H])C([H])([H])C([H])([H])C([H])([H])C2([H])N([H])C(=O)C1([H])N(C(=O)C([H])(N([H])C(=O)C([H])(N([H])C([H])([H])[H])C([H])([H])[H])C(C([H])([H])[H])(C([H])([H])[H])C([H])([H])[H])C([H])([H])c2c([H])c(OC([H])([H])C([H])([H])[N+]([H])([H])C([H])([H])C(C([H])([H])[H])(C([H])([H])[H])C([H])([H])[N+]3([H])C4([H])C([H])([H])C([H])(N([H])C(=O)N5C([H])([H])C([H])([H])C([H])([H])C([H])(n6nc(-c7c([H])c([H])c(Oc8c([H])c([H])c(F)c([H])c8F)c([H])c7[H])c(C(=O)N([H])[H])c6N([H])[H])C5([H])[H])C3([H])C4([H])C([H])([H])[H])c([H])c([H])c2C1([H])[H]

>  <smiles>  (19) 
[H]c1c([H])c([H])c2c(c1[H])C([H])([H])C([H])([H])C([H])([H])C2([H])N([H])C(=O)C1([H])N(C(=O)C([H])(N([H])C(=O)C([H])(N([H])C([H])([H])[H])C([H])([H])[H])C(C([H])([H])[H])(C([H])([H])[H])C([H])([H])[H])C([H])([H])c2c([H])c(OC([H])([H])C([H])([H])[N+]([H])([H])C([H])([H])C(C([H])([H])[H])(C([H])([H])[H])C([H])([H])[N+]3([H])C4([H])C([H])([H])C([H])(N([H])C(=O)N5C([H])([H])C([H])([H])C([H])([H])C([H])(n6nc(-c7c([H])c([H])c(Oc8c([H])c([H])c(F)c([H])c8F)c([H])c7[H])c(C(=O)N([H])[H])c6N([H])[H])C5([H])[H])C3([H])C4([H])C([H])([H])[H])c([H])c([H])c2C1([H])[H]

$$$$
19:0:0
     RDKit          3D

 97106  0  0  1  0  0  0  0  0999 V2000
  -31.5710  -21.5180   21.2900 C   0  0  0  0  0  2  0  0  0  0  0  0
  -32.1690  -21.5910   23.7220 C   0  0  0  0  0  2  0  0  0  0  0  0
  -30.3440  -22.4060   21.5870 C   0  0  0  0  0  2  0  0  0  0  0  0
  -30.9640  -22.5300   23.9710 C   0  0  0  0  0  2  0  0  0  0  0  0
  -31.9950  -20.6630   22.4990 C   0  0  0  0  0  3  0  0  0  0  0  0
  -30.5710  -23.2970   22.7570 N   0  0  2  0  0  4  0  0  0  0  0  0
  -31.3570  -23.8900   22.5350 H   0  0  0  0  0  0  0  0  0  0  0  0
  -31.0290  -19.4870   22.7400 C   0  0  0  0  0  0  0  0  0  0  0  0
  -31.1350  -18.4410   21.9120 N   0  0  0  0  0  0  0  0  0  0  0  0
  -30.1930  -19.5350   23.6440 O   0  0  0  0  0  0  0  0  0  0  0  0
  -31.8480  -18.4840   21.1970 H   0  0  0  0  0  0  0  0  0  0  0  0
  -30.6840  -14.0860   20.1690 C   0  0  0  0  0  0  0  0  0  0  0  0
  -30.3170  -11.9240   19.0340 C   0  0  0  0  0  2  0  0  0  0  0  0
  -29.3410  -12.0920   17.8530 C   0  0  0  0  0  2  0  0  0  0  0  0
  -27.8820  -11.9450   18.3270 C   0  0  0  0  0  2  0  0  0  0  0  0
  -27.5720  -12.8170   19.5700 C   0  0  0  0  0  3  0  0  0  0  0  0
  -28.6590  -12.6390   20.6580 C   0  0  0  0  0  2  0  0  0  0  0  0
  -29.9700  -12.9300   20.0510 N   0  0  0  0  0  0  0  0  0  0  0  0
  -31.7770  -14.2460   19.6180 O   0  0  0  0  0  0  0  0  0  0  0  0
  -29.0060  -15.8360   20.4410 C   0  0  0  0  0  2  0  0  0  0  0  0
  -30.9920  -15.9600   21.7470 C   0  0  0  0  0  2  0  0  0  0  0  0
  -29.3370  -17.3100   20.6560 C   0  0  0  0  0  3  0  0  0  0  0  0
  -30.2350  -17.2900   21.8880 C   0  0  0  0  0  3  0  0  0  0  0  0
  -28.1050  -18.2190   20.7500 C   0  0  0  0  0  1  0  0  0  0  0  0
  -30.1490  -15.0630   20.9380 N   0  0  0  0  0  0  0  0  0  0  0  0
  -25.1910  -13.4470   20.3170 C   0  0  0  0  0  0  0  0  0  0  0  0
  -24.1350  -12.6840   20.7370 C   0  0  0  0  0  0  0  0  0  0  0  0
  -24.6020  -11.3340   20.7400 C   0  0  0  0  0  0  0  0  0  0  0  0
  -26.2340  -12.5600   20.0930 N   0  0  0  0  0  0  0  0  0  0  0  0
  -25.8830  -11.2870   20.4040 N   0  0  0  0  0  0  0  0  0  0  0  0
  -23.8870  -10.0760   20.9870 C   0  0  0  0  0  0  0  0  0  0  0  0
  -24.3130   -9.1690   21.9820 C   0  0  0  0  0  3  0  0  0  0  0  0
  -23.6000   -7.9730   22.2130 C   0  0  0  0  0  3  0  0  0  0  0  0
  -22.4480   -7.6760   21.4470 C   0  0  0  0  0  0  0  0  0  0  0  0
  -22.0410   -8.5710   20.4420 C   0  0  0  0  0  3  0  0  0  0  0  0
  -22.7550   -9.7590   20.2090 C   0  0  0  0  0  3  0  0  0  0  0  0
  -21.7060   -6.5270   21.5840 O   0  0  0  0  0  0  0  0  0  0  0  0
  -21.5940   -5.8830   22.7900 C   0  0  0  0  0  0  0  0  0  0  0  0
  -21.0100   -6.5050   23.9150 C   0  0  0  0  0  3  0  0  0  0  0  0
  -20.8510   -5.7830   25.1140 C   0  0  0  0  0  3  0  0  0  0  0  0
  -21.2660   -4.4390   25.1890 C   0  0  0  0  0  0  0  0  0  0  0  0
  -21.8420   -3.8170   24.0680 C   0  0  0  0  0  3  0  0  0  0  0  0
  -22.0030   -4.5370   22.8700 C   0  0  0  0  0  0  0  0  0  0  0  0
  -22.5400   -3.9260   21.7870 F   0  0  0  0  0  0  0  0  0  0  0  0
  -21.1060   -3.7430   26.3380 F   0  0  0  0  0  0  0  0  0  0  0  0
  -22.7420  -13.1650   21.0270 C   0  0  0  0  0  0  0  0  0  0  0  0
  -22.0600  -12.5300   21.9730 N   0  0  0  0  0  0  0  0  0  0  0  0
  -22.2690  -14.1400   20.4470 O   0  0  0  0  0  0  0  0  0  0  0  0
  -22.4560  -11.7420   22.4650 H   0  0  0  0  0  0  0  0  0  0  0  0
  -21.1270  -12.8370   22.2110 H   0  0  0  0  0  0  0  0  0  0  0  0
  -25.3440  -14.8120   20.0900 N   0  0  0  0  0  0  0  0  0  0  0  0
  -24.5770  -15.4640   20.1970 H   0  0  0  0  0  0  0  0  0  0  0  0
  -26.1820  -15.2440   19.7240 H   0  0  0  0  0  0  0  0  0  0  0  0
  -29.4220  -24.2040   23.0370 C   0  0  0  0  0  2  0  0  0  0  0  0
  -29.3280  -25.4360   22.1070 C   0  0  0  0  0  2  0  0  0  0  0  0
  -28.3010  -25.3130   20.9650 C   0  0  0  0  0  2  0  0  0  0  0  0
  -28.3370  -26.5150   20.2010 O   0  0  0  0  0  0  0  0  0  0  0  0
  -24.5100  -31.7000   23.1910 C   0  0  0  0  0  0  0  0  0  0  0  0
  -27.1700  -27.2340   20.2000 C   0  0  0  0  0  0  0  0  0  0  0  0
  -23.3250  -30.3100   21.5200 C   0  0  0  0  0  3  0  0  0  0  0  0
  -24.7920  -28.7440   20.1440 C   0  0  0  0  0  0  0  0  0  0  0  0
  -25.8550  -30.6400   21.3850 C   0  0  0  0  0  2  0  0  0  0  0  0
  -25.9390  -29.2660   20.7580 C   0  0  0  0  0  0  0  0  0  0  0  0
  -27.1340  -28.5180   20.7820 C   0  0  0  0  0  3  0  0  0  0  0  0
  -26.0110  -26.7140   19.5880 C   0  0  0  0  0  3  0  0  0  0  0  0
  -24.8210  -27.4650   19.5590 C   0  0  0  0  0  3  0  0  0  0  0  0
  -23.5590  -29.6190   20.1500 C   0  0  0  0  0  2  0  0  0  0  0  0
  -24.5800  -30.8970   22.0910 N   0  0  0  0  0  0  0  0  0  0  0  0
  -23.4200  -31.9900   23.7020 O   0  0  0  0  0  0  0  0  0  0  0  0
  -22.6310  -29.3040   22.4660 C   0  0  0  0  0  0  0  0  0  0  0  0
  -21.3080  -29.1450   22.3030 N   0  0  0  0  0  0  0  0  0  0  0  0
  -23.2820  -28.6690   23.3000 O   0  0  0  0  0  0  0  0  0  0  0  0
  -20.8470  -29.7080   21.6010 H   0  0  0  0  0  0  0  0  0  0  0  0
  -17.8980  -28.0300   22.7200 C   0  0  0  0  0  0  0  0  0  0  0  0
  -20.4540  -28.2250   23.0520 C   0  0  0  0  0  3  0  0  0  0  0  0
  -20.5360  -26.7940   22.4720 C   0  0  0  0  0  2  0  0  0  0  0  0
  -19.4490  -26.5010   21.4330 C   0  0  0  0  0  2  0  0  0  0  0  0
  -18.0570  -26.6790   22.0450 C   0  0  0  0  0  2  0  0  0  0  0  0
  -19.0250  -28.7640   23.1790 C   0  0  0  0  0  0  0  0  0  0  0  0
  -18.8250  -30.0310   23.7690 C   0  0  0  0  0  3  0  0  0  0  0  0
  -17.5290  -30.5650   23.9050 C   0  0  0  0  0  3  0  0  0  0  0  0
  -16.4160  -29.8280   23.4640 C   0  0  0  0  0  3  0  0  0  0  0  0
  -16.6020  -28.5630   22.8770 C   0  0  0  0  0  3  0  0  0  0  0  0
  -25.7900  -32.3090   23.8440 C   0  0  0  0  0  3  0  0  0  0  0  0
  -26.2600  -31.5340   25.1350 C   0  0  1  0  0  0  0  0  0  0  0  0
  -25.1340  -31.3110   26.1700 C   0  0  0  0  0  1  0  0  0  0  0  0
  -26.8380  -30.1500   24.7580 C   0  0  0  0  0  1  0  0  0  0  0  0
  -27.3980  -32.3170   25.8320 C   0  0  0  0  0  1  0  0  0  0  0  0
  -25.5010  -33.7140   24.1560 N   0  0  0  0  0  0  0  0  0  0  0  0
  -25.8650  -34.7530   23.3920 C   0  0  0  0  0  0  0  0  0  0  0  0
  -26.5510  -34.6280   22.3730 O   0  0  0  0  0  0  0  0  0  0  0  0
  -24.8960  -33.8870   24.9440 H   0  0  0  0  0  0  0  0  0  0  0  0
  -24.1900  -36.5790   22.9690 C   0  0  0  0  0  1  0  0  0  0  0  0
  -25.3930  -36.1530   23.8260 C   0  0  0  0  0  3  0  0  0  0  0  0
  -27.4980  -37.0120   24.7510 C   0  0  0  0  0  1  0  0  0  0  0  0
  -26.4510  -37.1830   23.7480 N   0  0  0  0  0  0  0  0  0  0  0  0
  -26.0580  -38.1140   23.8550 H   0  0  0  0  0  0  0  0  0  0  0  0
  1  3  1  0
  1  5  1  0
  2  4  1  0
  3  6  1  0
  5  8  1  0
  5  2  1  0
  6 54  1  0
  6  4  1  0
  6  7  1  6
  8 10  2  0
  9  8  1  0
 11  9  1  0
 12 25  1  0
 13 18  1  0
 14 15  1  0
 14 13  1  0
 16 15  1  0
 16 29  1  0
 16 17  1  0
 18 12  1  0
 18 17  1  0
 19 12  2  0
 20 22  1  0
 20 25  1  0
 21 23  1  0
 22 24  1  0
 22 23  1  0
 23  9  1  0
 25 21  1  0
 26 27  2  0
 27 28  1  0
 27 46  1  0
 28 31  1  0
 29 26  1  0
 29 30  1  0
 30 28  2  0
 31 32  1  0
 32 33  2  0
 34 37  1  0
 34 33  1  0
 35 34  2  0
 36 35  1  0
 36 31  2  0
 37 38  1  0
 38 43  2  0
 38 39  1  0
 39 40  2  0
 40 41  1  0
 41 45  1  0
 42 41  2  0
 43 42  1  0
 44 43  1  0
 46 47  1  0
 47 50  1  0
 47 49  1  0
 48 46  2  0
 51 52  1  0
 51 26  1  0
 53 51  1  0
 55 54  1  0
 56 55  1  0
 57 56  1  0
 58 69  2  0
 59 57  1  0
 59 64  1  0
 60 68  1  0
 60 70  1  0
 61 67  1  0
 61 63  1  0
 62 68  1  0
 63 64  2  0
 63 62  1  0
 65 59  2  0
 66 65  1  0
 66 61  2  0
 67 60  1  0
 68 58  1  0
 70 72  2  0
 71 70  1  0
 73 71  1  0
 74 83  2  0
 74 79  1  0
 75 71  1  0
 75 79  1  0
 76 75  1  0
 77 78  1  0
 77 76  1  0
 78 74  1  0
 79 80  2  0
 80 81  1  0
 82 81  2  0
 83 82  1  0
 84 58  1  0
 84 89  1  0
 84 85  1  0
 85 88  1  1
 85 86  1  0
 87 85  1  0
 89 92  1  0
 90 94  1  0
 90 89  1  0
 91 90  2  0
 94 93  1  0
 96 94  1  0
 96 97  1  0
 96 95  1  0
M  ISO  4  12 100  25 100  56 101  57 101
M  END
>  <TORSDO>  (20) 
F 20

>  <SCORE>  (20) 
-12.018

>  <name>  (20) 
19

>  <ligand_id>  (20) 
19

>  <original_smiles>  (20) 
[H]c1c([H])c([H])c2c(c1[H])C([H])([H])C([H])([H])C([H])([H])C2([H])N([H])C(=O)C1([H])N(C(=O)C([H])(N([H])C(=O)C([H])(N([H])C([H])([H])[H])C([H])([H])[H])C(C([H])([H])[H])(C([H])([H])[H])C([H])([H])[H])C([H])([H])c2c([H])c(OC([H])([H])C([H])([H])C([H])([H])[N+]3([H])C([H])([H])C([H])([H])C([H])(C(=O)N([H])C4([H])C([H])([H])N(C(=O)N5C([H])([H])C([H])([H])C([H])([H])C([H])(n6nc(-c7c([H])c([H])c(Oc8c([H])c([H])c(F)c([H])c8F)c([H])c7[H])c(C(=O)N([H])[H])c6N([H])[H])C5([H])[H])C([H])([H])C4([H])C([H])([H])[H])C([H])([H])C3([H])[H])c([H])c([H])c2C1([H])[H]

>  <smiles>  (20) 
[H]c1c([H])c([H])c2c(c1[H])C([H])([H])C([H])([H])C([H])([H])C2([H])N([H])C(=O)C1([H])N(C(=O)C([H])(N([H])C(=O)C([H])(N([H])C([H])([H])[H])C([H])([H])[H])C(C([H])([H])[H])(C([H])([H])[H])C([H])([H])[H])C([H])([H])c2c([H])c(OC([H])([H])C([H])([H])C([H])([H])[N+]3([H])C([H])([H])C([H])([H])C([H])(C(=O)N([H])C4([H])C([H])([H])N(C(=O)N5C([H])([H])C([H])([H])C([H])([H])C([H])(n6nc(-c7c([H])c([H])c(Oc8c([H])c([H])c(F)c([H])c8F)c([H])c7[H])c(C(=O)N([H])[H])c6N([H])[H])C5([H])[H])C([H])([H])C4([H])C([H])([H])[H])C([H])([H])C3([H])[H])c([H])c([H])c2C1([H])[H]

$$$$
20:0:0
     RDKit          3D

 90 99  0  0  1  0  0  0  0  0999 V2000
  -31.5860  -23.5150   19.7230 C   0  0  0  0  0  3  0  0  0  0  0  0
  -31.4380  -22.1410   19.9930 C   0  0  0  0  0  3  0  0  0  0  0  0
  -30.4910  -24.3900   19.8130 C   0  0  0  0  0  3  0  0  0  0  0  0
  -29.0880  -22.4830   20.4450 C   0  0  0  0  0  3  0  0  0  0  0  0
  -30.2000  -21.5550   20.3590 C   0  0  0  0  0  0  0  0  0  0  0  0
  -29.2210  -23.9100   20.1770 C   0  0  0  0  0  0  0  0  0  0  0  0
  -31.0500  -19.2550   19.6770 C   0  0  0  0  0  2  0  0  0  0  0  0
  -30.3220  -20.0270   20.7700 C   0  0  0  0  0  3  0  0  0  0  0  0
  -29.8870  -18.5550   20.2800 C   0  0  0  0  0  3  0  0  0  0  0  0
  -30.2520  -17.2120   21.0630 C   0  0  0  0  0  2  0  0  0  0  0  0
  -30.5910  -14.6910   20.4020 C   0  0  0  0  0  0  0  0  0  0  0  0
  -30.3670  -12.4330   19.3610 C   0  0  0  0  0  2  0  0  0  0  0  0
  -29.4280  -12.5140   18.1380 C   0  0  0  0  0  2  0  0  0  0  0  0
  -27.9550  -12.3630   18.5660 C   0  0  0  0  0  2  0  0  0  0  0  0
  -27.5870  -13.2580   19.7790 C   0  0  0  0  0  3  0  0  0  0  0  0
  -28.6430  -13.1490   20.9010 C   0  0  0  0  0  2  0  0  0  0  0  0
  -29.9440  -13.4830   20.3090 N   0  0  0  0  0  0  0  0  0  0  0  0
  -31.7840  -14.7910   20.1030 O   0  0  0  0  0  0  0  0  0  0  0  0
  -29.8290  -15.8100   20.6570 N   0  0  0  0  0  0  0  0  0  0  0  0
  -28.8420  -15.6210   20.7600 H   0  0  0  0  0  0  0  0  0  0  0  0
  -25.1980  -13.8720   20.4920 C   0  0  0  0  0  0  0  0  0  0  0  0
  -24.1240  -13.1080   20.8600 C   0  0  0  0  0  0  0  0  0  0  0  0
  -24.5790  -11.7530   20.8410 C   0  0  0  0  0  0  0  0  0  0  0  0
  -26.2380  -12.9850   20.2670 N   0  0  0  0  0  0  0  0  0  0  0  0
  -25.8710  -11.7050   20.5410 N   0  0  0  0  0  0  0  0  0  0  0  0
  -23.8440  -10.4980   21.0340 C   0  0  0  0  0  0  0  0  0  0  0  0
  -24.2740   -9.5240   21.9630 C   0  0  0  0  0  3  0  0  0  0  0  0
  -23.5400   -8.3320   22.1430 C   0  0  0  0  0  3  0  0  0  0  0  0
  -22.3600   -8.1070   21.3970 C   0  0  0  0  0  0  0  0  0  0  0  0
  -21.9470   -9.0680   20.4570 C   0  0  0  0  0  3  0  0  0  0  0  0
  -22.6830  -10.2510   20.2740 C   0  0  0  0  0  3  0  0  0  0  0  0
  -21.5960   -6.9680   21.4890 O   0  0  0  0  0  0  0  0  0  0  0  0
  -21.5590   -6.2160   22.6350 C   0  0  0  0  0  0  0  0  0  0  0  0
  -21.1720   -6.7660   23.8760 C   0  0  0  0  0  3  0  0  0  0  0  0
  -21.0810   -5.9410   25.0150 C   0  0  0  0  0  3  0  0  0  0  0  0
  -21.3690   -4.5670   24.9140 C   0  0  0  0  0  0  0  0  0  0  0  0
  -21.7500   -4.0150   23.6780 C   0  0  0  0  0  3  0  0  0  0  0  0
  -21.8420   -4.8370   22.5420 C   0  0  0  0  0  0  0  0  0  0  0  0
  -22.1900   -4.2970   21.3490 F   0  0  0  0  0  0  0  0  0  0  0  0
  -21.2740   -3.7720   26.0070 F   0  0  0  0  0  0  0  0  0  0  0  0
  -22.7280  -13.5960   21.1180 C   0  0  0  0  0  0  0  0  0  0  0  0
  -21.9880  -12.9140   21.9860 N   0  0  0  0  0  0  0  0  0  0  0  0
  -22.3000  -14.6180   20.5830 O   0  0  0  0  0  0  0  0  0  0  0  0
  -22.3470  -12.0900   22.4440 H   0  0  0  0  0  0  0  0  0  0  0  0
  -21.0500  -13.2230   22.1970 H   0  0  0  0  0  0  0  0  0  0  0  0
  -25.3710  -15.2400   20.3040 N   0  0  0  0  0  0  0  0  0  0  0  0
  -24.6070  -15.8990   20.4070 H   0  0  0  0  0  0  0  0  0  0  0  0
  -26.2150  -15.6690   19.9470 H   0  0  0  0  0  0  0  0  0  0  0  0
  -28.0320  -24.9410   20.1710 C   0  0  0  0  0  2  0  0  0  0  0  0
  -28.2990  -26.4130   20.2000 O   0  0  0  0  0  0  0  0  0  0  0  0
  -24.6240  -31.8800   23.2330 C   0  0  0  0  0  0  0  0  0  0  0  0
  -27.1900  -27.2880   20.1640 C   0  0  0  0  0  0  0  0  0  0  0  0
  -23.4050  -30.4880   21.6020 C   0  0  0  0  0  3  0  0  0  0  0  0
  -24.8380  -28.9320   20.1700 C   0  0  0  0  0  0  0  0  0  0  0  0
  -25.9470  -30.7900   21.4040 C   0  0  0  0  0  2  0  0  0  0  0  0
  -26.0160  -29.4100   20.7560 C   0  0  0  0  0  0  0  0  0  0  0  0
  -27.1970  -28.6010   20.7390 C   0  0  0  0  0  3  0  0  0  0  0  0
  -25.9820  -26.8740   19.5560 C   0  0  0  0  0  3  0  0  0  0  0  0
  -24.8240  -27.6720   19.5600 C   0  0  0  0  0  3  0  0  0  0  0  0
  -23.6060  -29.8150   20.2220 C   0  0  0  0  0  2  0  0  0  0  0  0
  -24.6780  -31.0710   22.1360 N   0  0  0  0  0  0  0  0  0  0  0  0
  -23.5440  -32.1640   23.7740 O   0  0  0  0  0  0  0  0  0  0  0  0
  -22.7420  -29.4740   22.5660 C   0  0  0  0  0  0  0  0  0  0  0  0
  -21.4140  -29.3040   22.4480 N   0  0  0  0  0  0  0  0  0  0  0  0
  -23.4220  -28.8430   23.3790 O   0  0  0  0  0  0  0  0  0  0  0  0
  -20.9230  -29.8660   21.7660 H   0  0  0  0  0  0  0  0  0  0  0  0
  -18.0340  -28.1210   22.9650 C   0  0  0  0  0  0  0  0  0  0  0  0
  -20.5940  -28.3720   23.2240 C   0  0  0  0  0  3  0  0  0  0  0  0
  -20.6870  -26.9380   22.6520 C   0  0  0  0  0  2  0  0  0  0  0  0
  -19.5800  -26.6170   21.6440 C   0  0  0  0  0  2  0  0  0  0  0  0
  -18.2020  -26.7690   22.2930 C   0  0  0  0  0  2  0  0  0  0  0  0
  -19.1570  -28.8810   23.3880 C   0  0  0  0  0  0  0  0  0  0  0  0
  -18.9460  -30.1460   23.9770 C   0  0  0  0  0  3  0  0  0  0  0  0
  -17.6440  -30.6530   24.1470 C   0  0  0  0  0  3  0  0  0  0  0  0
  -16.5350  -29.8920   23.7400 C   0  0  0  0  0  3  0  0  0  0  0  0
  -16.7310  -28.6270   23.1550 C   0  0  0  0  0  3  0  0  0  0  0  0
  -25.9130  -32.5090   23.8470 C   0  0  0  0  0  3  0  0  0  0  0  0
  -26.4410  -31.7270   25.1120 C   0  0  1  0  0  0  0  0  0  0  0  0
  -25.3600  -31.4840   26.1910 C   0  0  0  0  0  1  0  0  0  0  0  0
  -27.0160  -30.3500   24.7050 C   0  0  0  0  0  1  0  0  0  0  0  0
  -27.5990  -32.5140   25.7690 C   0  0  0  0  0  1  0  0  0  0  0  0
  -25.6050  -33.9040   24.1940 N   0  0  0  0  0  0  0  0  0  0  0  0
  -25.9160  -34.9640   23.4350 C   0  0  0  0  0  0  0  0  0  0  0  0
  -26.5610  -34.8690   22.3870 O   0  0  0  0  0  0  0  0  0  0  0  0
  -25.0290  -34.0510   25.0090 H   0  0  0  0  0  0  0  0  0  0  0  0
  -24.1660  -36.7480   23.1470 C   0  0  0  0  0  1  0  0  0  0  0  0
  -25.4360  -36.3460   23.9150 C   0  0  0  0  0  3  0  0  0  0  0  0
  -27.5940  -37.2400   24.6760 C   0  0  0  0  0  1  0  0  0  0  0  0
  -26.4590  -37.4060   23.7720 N   0  0  0  0  0  0  0  0  0  0  0  0
  -26.0530  -38.3230   23.9390 H   0  0  0  0  0  0  0  0  0  0  0  0
  1  3  2  0
  1  2  1  0
  2  5  2  0
  3  6  1  0
  5  4  1  0
  6  4  2  0
  7  9  1  0
  7  8  1  0
  8  5  1  0
  9  8  1  0
  9 10  1  0
 11 19  1  0
 12 17  1  0
 13 14  1  0
 13 12  1  0
 15 14  1  0
 15 24  1  0
 15 16  1  0
 17 11  1  0
 17 16  1  0
 18 11  2  0
 19 20  1  0
 19 10  1  0
 21 22  2  0
 22 41  1  0
 23 22  1  0
 23 26  1  0
 24 21  1  0
 24 25  1  0
 25 23  2  0
 26 27  1  0
 27 28  2  0
 29 32  1  0
 29 28  1  0
 30 29  2  0
 31 30  1  0
 31 26  2  0
 32 33  1  0
 33 34  1  0
 34 35  2  0
 36 35  1  0
 36 40  1  0
 37 36  2  0
 38 33  2  0
 38 37  1  0
 39 38  1  0
 41 42  1  0
 42 45  1  0
 42 44  1  0
 43 41  2  0
 46 47  1  0
 46 21  1  0
 48 46  1  0
 49  6  1  0
 49 50  1  0
 51 62  2  0
 52 50  1  0
 52 57  1  0
 53 61  1  0
 53 63  1  0
 54 60  1  0
 54 56  1  0
 55 61  1  0
 56 55  1  0
 57 56  2  0
 58 59  1  0
 58 52  2  0
 59 54  2  0
 60 53  1  0
 61 51  1  0
 63 65  2  0
 64 63  1  0
 66 64  1  0
 67 76  2  0
 67 72  1  0
 68 64  1  0
 68 72  1  0
 69 68  1  0
 70 71  1  0
 70 69  1  0
 71 67  1  0
 72 73  2  0
 73 74  1  0
 75 74  2  0
 76 75  1  0
 77 51  1  0
 77 82  1  0
 77 78  1  0
 78 81  1  1
 78 79  1  0
 80 78  1  0
 82 85  1  0
 83 87  1  0
 83 82  1  0
 84 83  2  0
 87 86  1  0
 89 87  1  0
 89 90  1  0
 89 88  1  0
M  ISO  4  11 100  19 100  49 101  50 101
M  END
>  <TORSDO>  (21) 
F 19

>  <SCORE>  (21) 
-14.156

>  <name>  (21) 
20

>  <ligand_id>  (21) 
20

>  <original_smiles>  (21) 
[H]c1c([H])c([H])c2c(c1[H])C([H])([H])C([H])([H])C([H])([H])C2([H])N([H])C(=O)C1([H])N(C(=O)C([H])(N([H])C(=O)C([H])(N([H])C([H])([H])[H])C([H])([H])[H])C(C([H])([H])[H])(C([H])([H])[H])C([H])([H])[H])C([H])([H])c2c([H])c(OC([H])([H])c3c([H])c([H])c([H])c(C4([H])C([H])([H])C4([H])C([H])([H])N([H])C(=O)N4C([H])([H])C([H])([H])C([H])([H])C([H])(n5nc(-c6c([H])c([H])c(Oc7c([H])c([H])c(F)c([H])c7F)c([H])c6[H])c(C(=O)N([H])[H])c5N([H])[H])C4([H])[H])c3[H])c([H])c([H])c2C1([H])[H]

>  <smiles>  (21) 
[H]c1c([H])c([H])c2c(c1[H])C([H])([H])C([H])([H])C([H])([H])C2([H])N([H])C(=O)C1([H])N(C(=O)C([H])(N([H])C(=O)C([H])(N([H])C([H])([H])[H])C([H])([H])[H])C(C([H])([H])[H])(C([H])([H])[H])C([H])([H])[H])C([H])([H])c2c([H])c(OC([H])([H])c3c([H])c([H])c([H])c(C4([H])C([H])([H])C4([H])C([H])([H])N([H])C(=O)N4C([H])([H])C([H])([H])C([H])([H])C([H])(n5nc(-c6c([H])c([H])c(Oc7c([H])c([H])c(F)c([H])c7F)c([H])c6[H])c(C(=O)N([H])[H])c5N([H])[H])C4([H])[H])c3[H])c([H])c([H])c2C1([H])[H]

$$$$
21:0:0
     RDKit          3D

 91101  0  0  1  0  0  0  0  0999 V2000
  -29.7300  -21.6400   20.2670 C   0  0  0  0  0  0  0  0  0  0  0  0
  -29.9200  -20.3250   20.6080 N   0  0  0  0  0  0  0  0  0  0  0  0
  -30.0670  -22.0700   19.1600 O   0  0  0  0  0  0  0  0  0  0  0  0
  -29.6210  -20.0390   21.5320 H   0  0  0  0  0  0  0  0  0  0  0  0
  -29.0980  -22.6380   21.2960 C   0  0  0  0  0  2  0  0  0  0  0  0
  -29.2770  -24.2140   21.1110 C   0  0  0  0  0  3  0  0  0  0  0  0
  -28.1920  -25.0560   20.3250 C   0  0  0  0  0  3  0  0  0  0  0  0
  -28.3650  -26.5220   20.3360 O   0  0  0  0  0  0  0  0  0  0  0  0
  -24.5940  -31.8700   23.2440 C   0  0  0  0  0  0  0  0  0  0  0  0
  -27.2330  -27.3390   20.2370 C   0  0  0  0  0  0  0  0  0  0  0  0
  -23.3920  -30.4660   21.5990 C   0  0  0  0  0  3  0  0  0  0  0  0
  -24.8540  -28.9180   20.1820 C   0  0  0  0  0  0  0  0  0  0  0  0
  -25.9250  -30.8090   21.4110 C   0  0  0  0  0  2  0  0  0  0  0  0
  -26.0150  -29.4290   20.7750 C   0  0  0  0  0  0  0  0  0  0  0  0
  -27.2100  -28.6530   20.7860 C   0  0  0  0  0  3  0  0  0  0  0  0
  -26.0560  -26.8750   19.6070 C   0  0  0  0  0  3  0  0  0  0  0  0
  -24.8810  -27.6480   19.5800 C   0  0  0  0  0  3  0  0  0  0  0  0
  -23.6070  -29.7740   20.2250 C   0  0  0  0  0  2  0  0  0  0  0  0
  -24.6550  -31.0680   22.1400 N   0  0  0  0  0  0  0  0  0  0  0  0
  -23.5110  -32.1410   23.7830 O   0  0  0  0  0  0  0  0  0  0  0  0
  -22.7310  -29.4530   22.5650 C   0  0  0  0  0  0  0  0  0  0  0  0
  -21.4040  -29.2750   22.4370 N   0  0  0  0  0  0  0  0  0  0  0  0
  -23.4100  -28.8300   23.3870 O   0  0  0  0  0  0  0  0  0  0  0  0
  -20.9180  -29.8290   21.7440 H   0  0  0  0  0  0  0  0  0  0  0  0
  -18.0280  -28.0730   22.9230 C   0  0  0  0  0  0  0  0  0  0  0  0
  -20.5840  -28.3390   23.2060 C   0  0  0  0  0  3  0  0  0  0  0  0
  -20.6930  -26.9040   22.6360 C   0  0  0  0  0  2  0  0  0  0  0  0
  -19.5970  -26.5750   21.6170 C   0  0  0  0  0  2  0  0  0  0  0  0
  -18.2120  -26.7220   22.2530 C   0  0  0  0  0  2  0  0  0  0  0  0
  -19.1440  -28.8390   23.3560 C   0  0  0  0  0  0  0  0  0  0  0  0
  -18.9190  -30.1040   23.9430 C   0  0  0  0  0  3  0  0  0  0  0  0
  -17.6130  -30.6060   24.0950 C   0  0  0  0  0  3  0  0  0  0  0  0
  -16.5120  -29.8370   23.6800 C   0  0  0  0  0  3  0  0  0  0  0  0
  -16.7200  -28.5710   23.1040 C   0  0  0  0  0  3  0  0  0  0  0  0
  -25.8780  -32.5020   23.8670 C   0  0  0  0  0  3  0  0  0  0  0  0
  -26.3940  -31.7340   25.1440 C   0  0  1  0  0  0  0  0  0  0  0  0
  -25.2980  -31.5020   26.2130 C   0  0  0  0  0  1  0  0  0  0  0  0
  -26.9730  -30.3530   24.7550 C   0  0  0  0  0  1  0  0  0  0  0  0
  -27.5470  -32.5250   25.8070 C   0  0  0  0  0  1  0  0  0  0  0  0
  -25.5710  -33.9020   24.1930 N   0  0  0  0  0  0  0  0  0  0  0  0
  -25.9060  -34.9520   23.4320 C   0  0  0  0  0  0  0  0  0  0  0  0
  -26.5770  -34.8450   22.4000 O   0  0  0  0  0  0  0  0  0  0  0  0
  -24.9850  -34.0600   25.0000 H   0  0  0  0  0  0  0  0  0  0  0  0
  -24.1840  -36.7480   23.0690 C   0  0  0  0  0  1  0  0  0  0  0  0
  -25.4230  -36.3440   23.8840 C   0  0  0  0  0  3  0  0  0  0  0  0
  -27.5590  -37.2260   24.7160 C   0  0  0  0  0  1  0  0  0  0  0  0
  -26.4590  -37.3940   23.7700 N   0  0  0  0  0  0  0  0  0  0  0  0
  -26.0560  -38.3160   23.9140 H   0  0  0  0  0  0  0  0  0  0  0  0
  -30.6420  -19.3050   19.7710 C   0  0  0  0  0  2  0  0  0  0  0  0
  -30.5880  -14.7070   20.2650 C   0  0  0  0  0  0  0  0  0  0  0  0
  -30.3960  -12.4640   19.2420 C   0  0  0  0  0  2  0  0  0  0  0  0
  -29.4470  -12.5870   18.0300 C   0  0  0  0  0  2  0  0  0  0  0  0
  -27.9770  -12.4170   18.4670 C   0  0  0  0  0  2  0  0  0  0  0  0
  -27.6140  -13.2720   19.7120 C   0  0  0  0  0  3  0  0  0  0  0  0
  -28.6820  -13.1420   20.8200 C   0  0  0  0  0  2  0  0  0  0  0  0
  -29.9750  -13.4850   20.2160 N   0  0  0  0  0  0  0  0  0  0  0  0
  -31.7860  -14.8230   19.9940 O   0  0  0  0  0  0  0  0  0  0  0  0
  -28.2380  -17.2910   19.1680 C   0  0  0  0  0  2  0  0  0  0  0  0
  -28.1340  -17.4760   20.6810 C   0  0  0  0  0  2  0  0  0  0  0  0
  -30.5520  -17.7400   20.0710 C   0  0  0  0  0  3  0  0  0  0  0  0
  -29.6910  -16.8400   19.1500 C   0  0  2  0  0  0  0  0  0  0  0  0
  -29.5580  -17.0490   21.0220 C   0  0  1  0  0  0  0  0  0  0  0  0
  -29.7380  -15.7990   20.2090 N   0  0  0  0  0  0  0  0  0  0  0  0
  -25.2190  -13.8580   20.4280 C   0  0  0  0  0  0  0  0  0  0  0  0
  -24.1550  -13.0850   20.8050 C   0  0  0  0  0  0  0  0  0  0  0  0
  -24.6270  -11.7370   20.7910 C   0  0  0  0  0  0  0  0  0  0  0  0
  -26.2700  -12.9820   20.2030 N   0  0  0  0  0  0  0  0  0  0  0  0
  -25.9190  -11.7000   20.4830 N   0  0  0  0  0  0  0  0  0  0  0  0
  -23.9050  -10.4740   20.9960 C   0  0  0  0  0  0  0  0  0  0  0  0
  -24.3470   -9.5130   21.9320 C   0  0  0  0  0  3  0  0  0  0  0  0
  -23.6280   -8.3140   22.1230 C   0  0  0  0  0  3  0  0  0  0  0  0
  -22.4500   -8.0680   21.3770 C   0  0  0  0  0  0  0  0  0  0  0  0
  -22.0250   -9.0170   20.4290 C   0  0  0  0  0  3  0  0  0  0  0  0
  -22.7470  -10.2070   20.2370 C   0  0  0  0  0  3  0  0  0  0  0  0
  -21.7020   -6.9190   21.4740 O   0  0  0  0  0  0  0  0  0  0  0  0
  -21.6720   -6.1790   22.6300 C   0  0  0  0  0  0  0  0  0  0  0  0
  -21.2630   -6.7360   23.8590 C   0  0  0  0  0  3  0  0  0  0  0  0
  -21.1780   -5.9200   25.0060 C   0  0  0  0  0  3  0  0  0  0  0  0
  -21.4940   -4.5510   24.9220 C   0  0  0  0  0  0  0  0  0  0  0  0
  -21.9000   -3.9960   23.7000 C   0  0  0  0  0  3  0  0  0  0  0  0
  -21.9870   -4.8060   22.5520 C   0  0  0  0  0  0  0  0  0  0  0  0
  -22.3560   -4.2610   21.3690 F   0  0  0  0  0  0  0  0  0  0  0  0
  -21.4040   -3.7670   26.0240 F   0  0  0  0  0  0  0  0  0  0  0  0
  -22.7580  -13.5600   21.0750 C   0  0  0  0  0  0  0  0  0  0  0  0
  -22.0360  -12.8700   21.9490 N   0  0  0  0  0  0  0  0  0  0  0  0
  -22.3130  -14.5780   20.5480 O   0  0  0  0  0  0  0  0  0  0  0  0
  -22.4070  -12.0440   22.3950 H   0  0  0  0  0  0  0  0  0  0  0  0
  -21.1010  -13.1760   22.1780 H   0  0  0  0  0  0  0  0  0  0  0  0
  -25.3870  -15.2250   20.2380 N   0  0  0  0  0  0  0  0  0  0  0  0
  -24.6630  -15.9120   20.4060 H   0  0  0  0  0  0  0  0  0  0  0  0
  -26.2800  -15.6410   20.0100 H   0  0  0  0  0  0  0  0  0  0  0  0
  1  2  1  0
  1  5  1  0
  2  4  1  0
  3  1  2  0
  6  5  1  0
  7  8  1  0
  7  6  2  0
  9 20  2  0
 10  8  1  0
 10 15  1  0
 11 19  1  0
 11 21  1  0
 12 18  1  0
 12 14  1  0
 13 19  1  0
 14 15  2  0
 14 13  1  0
 16 10  2  0
 17 16  1  0
 17 12  2  0
 18 11  1  0
 19  9  1  0
 21 23  2  0
 22 21  1  0
 24 22  1  0
 25 34  2  0
 25 30  1  0
 26 22  1  0
 26 30  1  0
 27 26  1  0
 28 29  1  0
 28 27  1  0
 29 25  1  0
 30 31  2  0
 31 32  1  0
 33 32  2  0
 34 33  1  0
 35  9  1  0
 35 40  1  0
 35 36  1  0
 36 39  1  1
 36 37  1  0
 38 36  1  0
 40 43  1  0
 41 45  1  0
 41 40  1  0
 42 41  2  0
 45 44  1  0
 47 45  1  0
 47 48  1  0
 47 46  1  0
 49  2  1  0
 51 56  1  0
 52 53  1  0
 52 51  1  0
 54 53  1  0
 54 67  1  0
 54 55  1  0
 56 50  1  0
 56 55  1  0
 57 50  2  0
 58 59  1  0
 60 49  1  0
 60 62  1  0
 61 58  1  1
 61 60  1  0
 61 63  1  0
 61 62  1  0
 62 59  1  6
 63 50  1  0
 63 62  1  0
 64 65  2  0
 65 84  1  0
 66 65  1  0
 66 69  1  0
 67 64  1  0
 67 68  1  0
 68 66  2  0
 69 70  1  0
 70 71  2  0
 72 75  1  0
 72 71  1  0
 73 72  2  0
 74 73  1  0
 74 69  2  0
 75 76  1  0
 76 77  1  0
 77 78  2  0
 79 78  1  0
 79 83  1  0
 80 79  2  0
 81 76  2  0
 81 80  1  0
 82 81  1  0
 84 85  1  0
 85 88  1  0
 85 87  1  0
 86 84  2  0
 89 90  1  0
 89 64  1  0
 91 89  1  0
M  ISO  4   7 101   8 101  50 100  63 100
M  END
>  <TORSDO>  (22) 
F 20

>  <SCORE>  (22) 
-13.946

>  <name>  (22) 
21

>  <ligand_id>  (22) 
21

>  <original_smiles>  (22) 
[H]c1c([H])c([H])c2c(c1[H])C([H])([H])C([H])([H])C([H])([H])C2([H])N([H])C(=O)C1([H])N(C(=O)C([H])(N([H])C(=O)C([H])(N([H])C([H])([H])[H])C([H])([H])[H])C(C([H])([H])[H])(C([H])([H])[H])C([H])([H])[H])C([H])([H])c2c([H])c(OC([H])([H])C([H])([H])C([H])([H])C(=O)N([H])C([H])([H])C3([H])C4([H])N(C(=O)N5C([H])([H])C([H])([H])C([H])([H])C([H])(n6nc(-c7c([H])c([H])c(Oc8c([H])c([H])c(F)c([H])c8F)c([H])c7[H])c(C(=O)N([H])[H])c6N([H])[H])C5([H])[H])C3([H])C([H])([H])C4([H])[H])c([H])c([H])c2C1([H])[H]

>  <smiles>  (22) 
[H]c1c([H])c([H])c2c(c1[H])C([H])([H])C([H])([H])C([H])([H])C2([H])N([H])C(=O)C1([H])N(C(=O)C([H])(N([H])C(=O)C([H])(N([H])C([H])([H])[H])C([H])([H])[H])C(C([H])([H])[H])(C([H])([H])[H])C([H])([H])[H])C([H])([H])c2c([H])c(OC([H])([H])C([H])([H])C([H])([H])C(=O)N([H])C([H])([H])C3([H])C4([H])N(C(=O)N5C([H])([H])C([H])([H])C([H])([H])C([H])(n6nc(-c7c([H])c([H])c(Oc8c([H])c([H])c(F)c([H])c8F)c([H])c7[H])c(C(=O)N([H])[H])c6N([H])[H])C5([H])[H])C3([H])C([H])([H])C4([H])[H])c([H])c([H])c2C1([H])[H]

$$$$
22:0:0
     RDKit          3D

 96104  0  0  1  0  0  0  0  0999 V2000
  -28.6980  -18.3540   20.7450 C   0  0  0  0  0  2  0  0  0  0  0  0
  -30.5830  -19.9600   20.1330 C   0  0  0  0  0  2  0  0  0  0  0  0
  -28.2620  -20.7410   19.7960 C   0  0  0  0  0  2  0  0  0  0  0  0
  -30.0250  -18.4490   19.9710 C   0  0  0  0  0  3  0  0  0  0  0  0
  -27.6380  -19.4030   20.2920 C   0  0  0  0  0  3  0  0  0  0  0  0
  -29.5680  -21.0760   20.4170 N   0  0  2  0  0  4  0  0  0  0  0  0
  -29.4350  -21.0650   21.4170 H   0  0  0  0  0  0  0  0  0  0  0  0
  -31.2500  -14.7630   20.6650 C   0  0  0  0  0  0  0  0  0  0  0  0
  -30.9990  -12.3710   20.0280 C   0  0  0  0  0  2  0  0  0  0  0  0
  -30.2030  -12.2790   18.7100 C   0  0  0  0  0  2  0  0  0  0  0  0
  -28.6900  -12.2340   18.9990 C   0  0  0  0  0  2  0  0  0  0  0  0
  -28.2400  -13.3300   20.0040 C   0  0  0  0  0  3  0  0  0  0  0  0
  -29.1740  -13.4020   21.2320 C   0  0  0  0  0  2  0  0  0  0  0  0
  -30.5400  -13.5880   20.7310 N   0  0  0  0  0  0  0  0  0  0  0  0
  -32.4730  -14.7130   20.5090 O   0  0  0  0  0  0  0  0  0  0  0  0
  -31.0070  -17.2410   20.3400 C   0  0  0  0  0  0  0  0  0  0  0  0
  -30.5400  -15.9470   20.5310 N   0  0  0  0  0  0  0  0  0  0  0  0
  -32.2060  -17.5210   20.4350 O   0  0  0  0  0  0  0  0  0  0  0  0
  -29.5410  -15.8410   20.5220 H   0  0  0  0  0  0  0  0  0  0  0  0
  -25.8730  -14.1550   20.5490 C   0  0  0  0  0  0  0  0  0  0  0  0
  -24.7090  -13.4880   20.8180 C   0  0  0  0  0  0  0  0  0  0  0  0
  -25.0370  -12.0970   20.8010 C   0  0  0  0  0  0  0  0  0  0  0  0
  -26.8400  -13.1760   20.3830 N   0  0  0  0  0  0  0  0  0  0  0  0
  -26.3380  -11.9340   20.5980 N   0  0  0  0  0  0  0  0  0  0  0  0
  -24.1780  -10.9110   20.9070 C   0  0  0  0  0  0  0  0  0  0  0  0
  -24.5110   -9.8270   21.7500 C   0  0  0  0  0  3  0  0  0  0  0  0
  -23.6560   -8.7080   21.8490 C   0  0  0  0  0  3  0  0  0  0  0  0
  -22.4560   -8.6650   21.1030 C   0  0  0  0  0  0  0  0  0  0  0  0
  -22.1400   -9.7340   20.2460 C   0  0  0  0  0  3  0  0  0  0  0  0
  -22.9940  -10.8450   20.1430 C   0  0  0  0  0  3  0  0  0  0  0  0
  -21.5770   -7.6070   21.1160 O   0  0  0  0  0  0  0  0  0  0  0  0
  -21.4840   -6.7620   22.1920 C   0  0  0  0  0  0  0  0  0  0  0  0
  -21.1670   -7.2350   23.4850 C   0  0  0  0  0  3  0  0  0  0  0  0
  -21.0140   -6.3260   24.5490 C   0  0  0  0  0  3  0  0  0  0  0  0
  -21.1660   -4.9440   24.3230 C   0  0  0  0  0  0  0  0  0  0  0  0
  -21.4770   -4.4710   23.0370 C   0  0  0  0  0  3  0  0  0  0  0  0
  -21.6330   -5.3780   21.9740 C   0  0  0  0  0  0  0  0  0  0  0  0
  -21.9110   -4.9160   20.7310 F   0  0  0  0  0  0  0  0  0  0  0  0
  -21.0110   -4.0690   25.3440 F   0  0  0  0  0  0  0  0  0  0  0  0
  -23.3480  -14.0990   20.9860 C   0  0  0  0  0  0  0  0  0  0  0  0
  -22.5050  -13.4980   21.8200 N   0  0  0  0  0  0  0  0  0  0  0  0
  -23.0450  -15.1440   20.4130 O   0  0  0  0  0  0  0  0  0  0  0  0
  -22.7650  -12.6540   22.3070 H   0  0  0  0  0  0  0  0  0  0  0  0
  -21.5860  -13.8900   21.9730 H   0  0  0  0  0  0  0  0  0  0  0  0
  -26.1830  -15.5050   20.4060 N   0  0  0  0  0  0  0  0  0  0  0  0
  -25.4410  -16.1970   20.3850 H   0  0  0  0  0  0  0  0  0  0  0  0
  -27.0600  -15.8460   20.0380 H   0  0  0  0  0  0  0  0  0  0  0  0
  -26.6580  -18.8030   19.2440 C   0  0  0  0  0  2  0  0  0  0  0  0
  -25.6850  -19.7710   18.6990 N   0  0  0  0  0  4  0  0  0  0  0  0
  -25.0740  -19.2950   18.0580 H   0  0  0  0  0  0  0  0  0  0  0  0
  -26.1260  -20.5140   18.1890 H   0  0  0  0  0  0  0  0  0  0  0  0
  -25.1120  -20.1610   19.4270 H   0  0  0  0  0  0  0  0  0  0  0  0
  -29.9910  -22.5110   20.0640 C   0  0  0  0  0  2  0  0  0  0  0  0
  -29.3560  -23.7630   20.8610 C   0  0  0  0  0  2  0  0  0  0  0  0
  -28.8790  -25.0340   20.0080 C   0  0  0  0  0  2  0  0  0  0  0  0
  -28.7440  -26.3950   20.6170 O   0  0  0  0  0  0  0  0  0  0  0  0
  -24.5370  -31.6760   23.1980 C   0  0  0  0  0  0  0  0  0  0  0  0
  -27.5960  -27.1950   20.4250 C   0  0  0  0  0  0  0  0  0  0  0  0
  -23.5360  -30.2010   21.4930 C   0  0  0  0  0  3  0  0  0  0  0  0
  -25.1660  -28.7100   20.2060 C   0  0  0  0  0  0  0  0  0  0  0  0
  -26.0670  -30.6330   21.5090 C   0  0  0  0  0  2  0  0  0  0  0  0
  -26.2600  -29.2510   20.8910 C   0  0  0  0  0  0  0  0  0  0  0  0
  -27.4710  -28.5020   21.0000 C   0  0  0  0  0  3  0  0  0  0  0  0
  -26.4850  -26.7300   19.6810 C   0  0  0  0  0  3  0  0  0  0  0  0
  -25.2830  -27.4550   19.5950 C   0  0  0  0  0  3  0  0  0  0  0  0
  -23.8890  -29.5220   20.1440 C   0  0  0  0  0  2  0  0  0  0  0  0
  -24.7270  -30.8570   22.1220 N   0  0  0  0  0  0  0  0  0  0  0  0
  -23.4030  -31.9070   23.6410 O   0  0  0  0  0  0  0  0  0  0  0  0
  -22.8510  -29.1630   22.4150 C   0  0  0  0  0  0  0  0  0  0  0  0
  -21.5320  -28.9740   22.2400 N   0  0  0  0  0  0  0  0  0  0  0  0
  -23.5080  -28.5290   23.2460 O   0  0  0  0  0  0  0  0  0  0  0  0
  -21.0620  -29.5340   21.5430 H   0  0  0  0  0  0  0  0  0  0  0  0
  -18.1400  -27.7990   22.6720 C   0  0  0  0  0  0  0  0  0  0  0  0
  -20.6970  -28.0170   22.9680 C   0  0  0  0  0  3  0  0  0  0  0  0
  -20.7890  -26.6090   22.3380 C   0  0  0  0  0  2  0  0  0  0  0  0
  -19.6890  -26.3380   21.3050 C   0  0  0  0  0  2  0  0  0  0  0  0
  -18.3060  -26.4730   21.9470 C   0  0  0  0  0  2  0  0  0  0  0  0
  -19.2640  -28.5310   23.1380 C   0  0  0  0  0  0  0  0  0  0  0  0
  -19.0540  -29.7720   23.7770 C   0  0  0  0  0  3  0  0  0  0  0  0
  -17.7550  -30.2840   23.9510 C   0  0  0  0  0  3  0  0  0  0  0  0
  -16.6450  -29.5500   23.4960 C   0  0  0  0  0  3  0  0  0  0  0  0
  -16.8380  -28.3090   22.8640 C   0  0  0  0  0  3  0  0  0  0  0  0
  -25.7350  -32.3810   23.9050 C   0  0  0  0  0  3  0  0  0  0  0  0
  -25.3560  -33.7830   24.1260 N   0  0  0  0  0  0  0  0  0  0  0  0
  -25.7440  -34.8090   23.3560 C   0  0  0  0  0  0  0  0  0  0  0  0
  -26.5270  -34.6760   22.4120 O   0  0  0  0  0  0  0  0  0  0  0  0
  -24.6710  -33.9560   24.8470 H   0  0  0  0  0  0  0  0  0  0  0  0
  -24.0210  -36.5310   22.7260 C   0  0  0  0  0  1  0  0  0  0  0  0
  -25.1750  -36.2010   23.6870 C   0  0  0  0  0  3  0  0  0  0  0  0
  -27.1770  -37.1960   24.7040 C   0  0  0  0  0  1  0  0  0  0  0  0
  -26.1870  -37.2790   23.6330 N   0  0  0  0  0  0  0  0  0  0  0  0
  -25.7430  -38.1920   23.6810 H   0  0  0  0  0  0  0  0  0  0  0  0
  -26.1420  -31.6940   25.2670 C   0  0  1  0  0  0  0  0  0  0  0  0
  -24.9560  -31.4900   26.2380 C   0  0  0  0  0  1  0  0  0  0  0  0
  -26.7890  -30.3120   25.0170 C   0  0  0  0  0  1  0  0  0  0  0  0
  -27.2050  -32.5540   25.9900 C   0  0  0  0  0  1  0  0  0  0  0  0
  2  6  1  0
  3  5  1  0
  3  6  1  0
  4  2  1  0
  4 16  1  0
  4  1  1  0
  5 48  1  0
  5  1  1  0
  6  7  1  1
  8 14  1  0
  9 14  1  0
 10 11  1  0
 10  9  1  0
 12 11  1  0
 12 23  1  0
 12 13  1  0
 14 13  1  0
 15  8  2  0
 16 18  2  0
 16 17  1  0
 17  8  1  0
 19 17  1  0
 20 21  2  0
 21 40  1  0
 22 21  1  0
 22 25  1  0
 23 20  1  0
 23 24  1  0
 24 22  2  0
 25 26  1  0
 26 27  2  0
 28 31  1  0
 28 27  1  0
 29 28  2  0
 30 29  1  0
 30 25  2  0
 31 32  1  0
 32 33  1  0
 33 34  2  0
 35 34  1  0
 35 39  1  0
 36 35  2  0
 37 32  2  0
 37 36  1  0
 38 37  1  0
 40 41  1  0
 41 44  1  0
 41 43  1  0
 42 40  2  0
 45 20  1  0
 46 45  1  0
 47 45  1  0
 49 48  1  0
 49 52  1  0
 50 49  1  0
 51 49  1  0
 53  6  1  0
 53 54  1  0
 55 56  1  0
 55 54  1  0
 57 68  2  0
 58 56  1  0
 58 63  1  0
 59 67  1  0
 59 69  1  0
 60 62  1  0
 61 67  1  0
 62 63  2  0
 62 61  1  0
 64 58  2  0
 65 64  1  0
 65 60  2  0
 66 60  1  0
 66 59  1  0
 67 57  1  0
 69 71  2  0
 70 69  1  0
 72 70  1  0
 73 82  2  0
 73 78  1  0
 74 70  1  0
 74 78  1  0
 75 74  1  0
 76 77  1  0
 76 75  1  0
 77 73  1  0
 78 79  2  0
 79 80  1  0
 81 80  2  0
 82 81  1  0
 83 57  1  0
 83 84  1  0
 83 93  1  0
 84 87  1  0
 85 89  1  0
 85 84  1  0
 86 85  2  0
 89 88  1  0
 91 92  1  0
 91 89  1  0
 91 90  1  0
 93 96  1  1
 93 94  1  0
 95 93  1  0
M  ISO  4   8 100  17 100  55 101  56 101
M  END
>  <TORSDO>  (23) 
F 21

>  <SCORE>  (23) 
-12.262

>  <name>  (23) 
22

>  <ligand_id>  (23) 
22

>  <original_smiles>  (23) 
[H]c1c([H])c([H])c2c(c1[H])C([H])([H])C([H])([H])C([H])([H])C2([H])N([H])C(=O)C1([H])N(C(=O)C([H])(N([H])C(=O)C([H])(N([H])C([H])([H])[H])C([H])([H])[H])C(C([H])([H])[H])(C([H])([H])[H])C([H])([H])[H])C([H])([H])c2c([H])c(OC([H])([H])C([H])([H])C([H])([H])[N+]3([H])C([H])([H])C([H])(C(=O)N([H])C(=O)N4C([H])([H])C([H])([H])C([H])([H])C([H])(n5nc(-c6c([H])c([H])c(Oc7c([H])c([H])c(F)c([H])c7F)c([H])c6[H])c(C(=O)N([H])[H])c5N([H])[H])C4([H])[H])C([H])([H])C([H])(C([H])([H])[N+]([H])([H])[H])C3([H])[H])c([H])c([H])c2C1([H])[H]

>  <smiles>  (23) 
[H]c1c([H])c([H])c2c(c1[H])C([H])([H])C([H])([H])C([H])([H])C2([H])N([H])C(=O)C1([H])N(C(=O)C([H])(N([H])C(=O)C([H])(N([H])C([H])([H])[H])C([H])([H])[H])C(C([H])([H])[H])(C([H])([H])[H])C([H])([H])[H])C([H])([H])c2c([H])c(OC([H])([H])C([H])([H])C([H])([H])[N+]3([H])C([H])([H])C([H])(C(=O)N([H])C(=O)N4C([H])([H])C([H])([H])C([H])([H])C([H])(n5nc(-c6c([H])c([H])c(Oc7c([H])c([H])c(F)c([H])c7F)c([H])c6[H])c(C(=O)N([H])[H])c5N([H])[H])C4([H])[H])C([H])([H])C([H])(C([H])([H])[N+]([H])([H])[H])C3([H])[H])c([H])c([H])c2C1([H])[H]

$$$$
23:0:0
     RDKit          3D

 90 99  0  0  1  0  0  0  0  0999 V2000
  -29.5510  -20.5950   20.0930 C   0  0  0  0  0  0  0  0  0  0  0  0
  -28.9010  -21.7870   20.5460 N   0  0  0  0  0  0  0  0  0  0  0  0
  -30.3490  -20.7290   19.1640 O   0  0  0  0  0  0  0  0  0  0  0  0
  -28.2440  -21.6320   21.3010 H   0  0  0  0  0  0  0  0  0  0  0  0
  -30.5710  -15.0690   20.3240 C   0  0  0  0  0  0  0  0  0  0  0  0
  -30.4120  -12.7130   19.3730 C   0  0  0  0  0  2  0  0  0  0  0  0
  -29.4740  -12.6290   18.1500 C   0  0  0  0  0  2  0  0  0  0  0  0
  -28.0210  -12.3880   18.5960 C   0  0  0  0  0  2  0  0  0  0  0  0
  -27.6050  -13.3130   19.7680 C   0  0  0  0  0  3  0  0  0  0  0  0
  -28.6750  -13.3770   20.8810 C   0  0  0  0  0  2  0  0  0  0  0  0
  -29.9230  -13.8260   20.2430 N   0  0  0  0  0  0  0  0  0  0  0  0
  -31.7920  -15.0410   20.1290 O   0  0  0  0  0  0  0  0  0  0  0  0
  -27.9120  -18.1210   18.8130 C   0  0  0  0  0  2  0  0  0  0  0  0
  -28.1340  -16.8000   18.7410 C   0  0  0  0  0  2  0  0  0  0  0  0
  -30.5110  -17.8000   20.4870 C   0  0  0  0  0  2  0  0  0  0  0  0
  -28.1970  -18.2060   20.3070 C   0  0  0  0  0  3  0  0  0  0  0  0
  -28.4820  -16.6560   20.2190 C   0  0  0  0  0  3  0  0  0  0  0  0
  -29.4200  -19.0350   20.7030 C   0  0  0  0  0  3  0  0  0  0  0  0
  -29.9130  -16.3550   20.4260 N   0  0  0  0  0  0  0  0  0  0  0  0
  -25.2260  -13.8830   20.5160 C   0  0  0  0  0  0  0  0  0  0  0  0
  -24.1680  -13.1040   20.8900 C   0  0  0  0  0  0  0  0  0  0  0  0
  -24.6410  -11.7560   20.8560 C   0  0  0  0  0  0  0  0  0  0  0  0
  -26.2740  -13.0110   20.2750 N   0  0  0  0  0  0  0  0  0  0  0  0
  -25.9310  -11.7260   20.5460 N   0  0  0  0  0  0  0  0  0  0  0  0
  -23.9190  -10.4920   21.0390 C   0  0  0  0  0  0  0  0  0  0  0  0
  -24.3440   -9.5280   21.9800 C   0  0  0  0  0  3  0  0  0  0  0  0
  -23.6200   -8.3300   22.1530 C   0  0  0  0  0  3  0  0  0  0  0  0
  -22.4570   -8.0850   21.3840 C   0  0  0  0  0  0  0  0  0  0  0  0
  -22.0510   -9.0370   20.4320 C   0  0  0  0  0  3  0  0  0  0  0  0
  -22.7770  -10.2270   20.2560 C   0  0  0  0  0  3  0  0  0  0  0  0
  -21.7050   -6.9380   21.4670 O   0  0  0  0  0  0  0  0  0  0  0  0
  -21.6310   -6.2090   22.6260 C   0  0  0  0  0  0  0  0  0  0  0  0
  -21.1490   -6.7700   23.8290 C   0  0  0  0  0  3  0  0  0  0  0  0
  -21.0250   -5.9650   24.9800 C   0  0  0  0  0  3  0  0  0  0  0  0
  -21.3720   -4.6020   24.9270 C   0  0  0  0  0  0  0  0  0  0  0  0
  -21.8470   -4.0410   23.7290 C   0  0  0  0  0  3  0  0  0  0  0  0
  -21.9730   -4.8420   22.5810 C   0  0  0  0  0  0  0  0  0  0  0  0
  -22.4110   -4.2930   21.4230 F   0  0  0  0  0  0  0  0  0  0  0  0
  -21.2460   -3.8270   26.0300 F   0  0  0  0  0  0  0  0  0  0  0  0
  -22.7690  -13.5760   21.1590 C   0  0  0  0  0  0  0  0  0  0  0  0
  -22.0420  -12.8760   22.0210 N   0  0  0  0  0  0  0  0  0  0  0  0
  -22.3310  -14.6010   20.6400 O   0  0  0  0  0  0  0  0  0  0  0  0
  -22.4090  -12.0480   22.4660 H   0  0  0  0  0  0  0  0  0  0  0  0
  -21.1030  -13.1750   22.2420 H   0  0  0  0  0  0  0  0  0  0  0  0
  -25.3640  -15.2540   20.3280 N   0  0  0  0  0  0  0  0  0  0  0  0
  -24.5720  -15.8800   20.4240 H   0  0  0  0  0  0  0  0  0  0  0  0
  -26.1720  -15.7040   19.9190 H   0  0  0  0  0  0  0  0  0  0  0  0
  -29.1020  -23.3270   20.1640 C   0  0  0  0  0  3  0  0  0  0  0  0
  -28.0410  -24.6240   20.4720 C   0  0  0  0  0  3  0  0  0  0  0  0
  -28.2870  -26.1710   20.2910 O   0  0  0  0  0  0  0  0  0  0  0  0
  -24.6170  -31.8910   23.2510 C   0  0  0  0  0  0  0  0  0  0  0  0
  -27.2210  -27.1540   20.2520 C   0  0  0  0  0  0  0  0  0  0  0  0
  -23.4310  -30.4920   21.6060 C   0  0  0  0  0  3  0  0  0  0  0  0
  -24.8920  -28.9110   20.1970 C   0  0  0  0  0  0  0  0  0  0  0  0
  -25.9880  -30.7530   21.4600 C   0  0  0  0  0  2  0  0  0  0  0  0
  -26.0680  -29.3560   20.8130 C   0  0  0  0  0  0  0  0  0  0  0  0
  -27.2340  -28.4960   20.8190 C   0  0  0  0  0  3  0  0  0  0  0  0
  -26.0170  -26.8190   19.5930 C   0  0  0  0  0  3  0  0  0  0  0  0
  -24.8810  -27.6560   19.5710 C   0  0  0  0  0  3  0  0  0  0  0  0
  -23.6650  -29.8100   20.2310 C   0  0  0  0  0  2  0  0  0  0  0  0
  -24.6990  -31.0680   22.1610 N   0  0  0  0  0  0  0  0  0  0  0  0
  -23.5270  -32.1760   23.7700 O   0  0  0  0  0  0  0  0  0  0  0  0
  -22.7440  -29.4870   22.5650 C   0  0  0  0  0  0  0  0  0  0  0  0
  -21.4190  -29.3080   22.4220 N   0  0  0  0  0  0  0  0  0  0  0  0
  -23.4080  -28.8710   23.4030 O   0  0  0  0  0  0  0  0  0  0  0  0
  -20.9390  -29.8550   21.7200 H   0  0  0  0  0  0  0  0  0  0  0  0
  -18.0360  -28.0970   22.8960 C   0  0  0  0  0  0  0  0  0  0  0  0
  -20.5920  -28.3710   23.1880 C   0  0  0  0  0  3  0  0  0  0  0  0
  -20.7040  -26.9370   22.6200 C   0  0  0  0  0  2  0  0  0  0  0  0
  -19.6140  -26.6060   21.5950 C   0  0  0  0  0  2  0  0  0  0  0  0
  -18.2260  -26.7480   22.2240 C   0  0  0  0  0  2  0  0  0  0  0  0
  -19.1470  -28.8660   23.3340 C   0  0  0  0  0  0  0  0  0  0  0  0
  -18.9160  -30.1280   23.9240 C   0  0  0  0  0  3  0  0  0  0  0  0
  -17.6070  -30.6230   24.0770 C   0  0  0  0  0  3  0  0  0  0  0  0
  -16.5100  -29.8510   23.6540 C   0  0  0  0  0  3  0  0  0  0  0  0
  -16.7260  -28.5900   23.0700 C   0  0  0  0  0  3  0  0  0  0  0  0
  -25.8890  -32.5300   23.8870 C   0  0  0  0  0  3  0  0  0  0  0  0
  -25.5770  -33.9330   24.2030 N   0  0  0  0  0  0  0  0  0  0  0  0
  -25.9150  -34.9820   23.4410 C   0  0  0  0  0  0  0  0  0  0  0  0
  -26.5880  -34.8690   22.4130 O   0  0  0  0  0  0  0  0  0  0  0  0
  -24.9790  -34.0940   25.0000 H   0  0  0  0  0  0  0  0  0  0  0  0
  -24.1940  -36.7820   23.0710 C   0  0  0  0  0  1  0  0  0  0  0  0
  -25.4320  -36.3770   23.8870 C   0  0  0  0  0  3  0  0  0  0  0  0
  -27.5660  -37.2630   24.7200 C   0  0  0  0  0  1  0  0  0  0  0  0
  -26.4690  -37.4250   23.7700 N   0  0  0  0  0  0  0  0  0  0  0  0
  -26.0640  -38.3480   23.9060 H   0  0  0  0  0  0  0  0  0  0  0  0
  -26.3800  -31.7730   25.1830 C   0  0  1  0  0  0  0  0  0  0  0  0
  -25.2680  -31.5540   26.2360 C   0  0  0  0  0  1  0  0  0  0  0  0
  -26.9640  -30.3870   24.8230 C   0  0  0  0  0  1  0  0  0  0  0  0
  -27.5240  -32.5700   25.8540 C   0  0  0  0  0  1  0  0  0  0  0  0
  1  2  1  0
  2  4  1  0
  3  1  2  0
  5 19  1  0
  6 11  1  0
  7  8  1  0
  7  6  1  0
  9  8  1  0
  9 23  1  0
  9 10  1  0
 11  5  1  0
 11 10  1  0
 12  5  2  0
 14 13  1  0
 15 18  1  0
 16 13  1  0
 16 18  1  0
 17 14  1  0
 17 16  1  0
 17 19  1  0
 18  1  1  0
 19 15  1  0
 20 21  2  0
 21 40  1  0
 22 21  1  0
 22 25  1  0
 23 20  1  0
 23 24  1  0
 24 22  2  0
 25 26  1  0
 26 27  2  0
 28 31  1  0
 28 27  1  0
 29 28  2  0
 30 29  1  0
 30 25  2  0
 31 32  1  0
 32 33  1  0
 33 34  2  0
 35 34  1  0
 35 39  1  0
 36 35  2  0
 37 32  2  0
 37 36  1  0
 38 37  1  0
 40 41  1  0
 41 44  1  0
 41 43  1  0
 42 40  2  0
 45 46  1  0
 45 20  1  0
 47 45  1  0
 48 49  2  0
 48  2  1  0
 50 49  1  0
 51 62  2  0
 52 50  1  0
 52 57  1  0
 53 61  1  0
 53 63  1  0
 54 60  1  0
 54 56  1  0
 55 61  1  0
 56 57  2  0
 56 55  1  0
 58 52  2  0
 59 58  1  0
 59 54  2  0
 60 53  1  0
 61 51  1  0
 63 65  2  0
 64 63  1  0
 66 64  1  0
 67 76  2  0
 67 72  1  0
 68 64  1  0
 68 72  1  0
 69 68  1  0
 70 71  1  0
 70 69  1  0
 71 67  1  0
 72 73  2  0
 73 74  1  0
 75 74  2  0
 76 75  1  0
 77 51  1  0
 77 78  1  0
 77 87  1  0
 78 81  1  0
 79 83  1  0
 79 78  1  0
 80 79  2  0
 83 82  1  0
 85 83  1  0
 85 86  1  0
 85 84  1  0
 87 90  1  1
 87 88  1  0
 89 87  1  0
M  ISO  4   5 100  19 100  49 101  50 101
M  END
>  <TORSDO>  (24) 
F 18

>  <SCORE>  (24) 
-15.811

>  <name>  (24) 
23

>  <ligand_id>  (24) 
23

>  <original_smiles>  (24) 
[H]C1=C([H])C2([H])C1([H])N(C(=O)N1C([H])([H])C([H])([H])C([H])([H])C([H])(n3nc(-c4c([H])c([H])c(Oc5c([H])c([H])c(F)c([H])c5F)c([H])c4[H])c(C(=O)N([H])[H])c3N([H])[H])C1([H])[H])C([H])([H])C2([H])C(=O)N([H])C([H])([H])C([H])([H])Oc1c([H])c([H])c2c(c1[H])C([H])([H])N(C(=O)C([H])(N([H])C(=O)C([H])(N([H])C([H])([H])[H])C([H])([H])[H])C(C([H])([H])[H])(C([H])([H])[H])C([H])([H])[H])C([H])(C(=O)N([H])C1([H])c3c([H])c([H])c([H])c([H])c3C([H])([H])C([H])([H])C1([H])[H])C2([H])[H]

>  <smiles>  (24) 
[H]C1=C([H])C2([H])C1([H])N(C(=O)N1C([H])([H])C([H])([H])C([H])([H])C([H])(n3nc(-c4c([H])c([H])c(Oc5c([H])c([H])c(F)c([H])c5F)c([H])c4[H])c(C(=O)N([H])[H])c3N([H])[H])C1([H])[H])C([H])([H])C2([H])C(=O)N([H])C([H])([H])C([H])([H])Oc1c([H])c([H])c2c(c1[H])C([H])([H])N(C(=O)C([H])(N([H])C(=O)C([H])(N([H])C([H])([H])[H])C([H])([H])[H])C(C([H])([H])[H])(C([H])([H])[H])C([H])([H])[H])C([H])(C(=O)N([H])C1([H])c3c([H])c([H])c([H])c([H])c3C([H])([H])C([H])([H])C1([H])[H])C2([H])[H]

$$$$
24:0:0
     RDKit          3D

 93102  0  0  1  0  0  0  0  0999 V2000
  -28.8250  -23.2470   20.5210 C   0  0  0  0  0  0  0  0  0  0  0  0
  -28.5840  -18.9470   20.4090 C   0  0  0  0  0  2  0  0  0  0  0  0
  -29.8810  -21.3900   19.1300 C   0  0  0  0  0  2  0  0  0  0  0  0
  -30.4540  -20.4400   20.2360 C   0  0  0  0  0  3  0  0  0  0  0  0
  -31.0100  -18.9400   20.0360 C   0  0  0  0  0  3  0  0  0  0  0  0
  -29.0540  -20.4790   20.7740 C   0  0  0  0  0  3  0  0  0  0  0  0
  -29.7790  -17.9110   19.9180 C   0  0  0  0  0  3  0  0  0  0  0  0
  -28.7740  -21.8190   20.0050 N   0  0  0  0  0  0  0  0  0  0  0  0
  -29.4780  -23.4450   21.5490 O   0  0  0  0  0  0  0  0  0  0  0  0
  -30.5030  -15.0960   20.1400 C   0  0  0  0  0  0  0  0  0  0  0  0
  -30.3430  -12.7260   19.2090 C   0  0  0  0  0  2  0  0  0  0  0  0
  -29.3920  -12.6760   17.9910 C   0  0  0  0  0  2  0  0  0  0  0  0
  -27.9380  -12.4570   18.4510 C   0  0  0  0  0  2  0  0  0  0  0  0
  -27.5550  -13.3730   19.6430 C   0  0  0  0  0  3  0  0  0  0  0  0
  -28.6350  -13.4050   20.7450 C   0  0  0  0  0  2  0  0  0  0  0  0
  -29.8870  -13.8350   20.1070 N   0  0  0  0  0  0  0  0  0  0  0  0
  -31.6990  -15.0840   19.8550 O   0  0  0  0  0  0  0  0  0  0  0  0
  -29.7540  -16.3220   20.3000 N   0  0  0  0  0  0  0  0  0  0  0  0
  -28.8260  -16.0720   20.6070 H   0  0  0  0  0  0  0  0  0  0  0  0
  -25.1990  -13.9460   20.4500 C   0  0  0  0  0  0  0  0  0  0  0  0
  -24.1400  -13.1710   20.8340 C   0  0  0  0  0  0  0  0  0  0  0  0
  -24.5970  -11.8180   20.7750 C   0  0  0  0  0  0  0  0  0  0  0  0
  -26.2310  -13.0670   20.1720 N   0  0  0  0  0  0  0  0  0  0  0  0
  -25.8810  -11.7810   20.4340 N   0  0  0  0  0  0  0  0  0  0  0  0
  -23.8660  -10.5570   20.9640 C   0  0  0  0  0  0  0  0  0  0  0  0
  -24.2950   -9.5880   21.8960 C   0  0  0  0  0  3  0  0  0  0  0  0
  -23.5630   -8.3940   22.0750 C   0  0  0  0  0  3  0  0  0  0  0  0
  -22.3870   -8.1610   21.3220 C   0  0  0  0  0  0  0  0  0  0  0  0
  -21.9780   -9.1200   20.3780 C   0  0  0  0  0  3  0  0  0  0  0  0
  -22.7100  -10.3050   20.1970 C   0  0  0  0  0  3  0  0  0  0  0  0
  -21.6280   -7.0200   21.4090 O   0  0  0  0  0  0  0  0  0  0  0  0
  -21.5600   -6.2880   22.5670 C   0  0  0  0  0  0  0  0  0  0  0  0
  -21.0940   -6.8490   23.7780 C   0  0  0  0  0  3  0  0  0  0  0  0
  -20.9750   -6.0420   24.9270 C   0  0  0  0  0  3  0  0  0  0  0  0
  -21.3110   -4.6760   24.8670 C   0  0  0  0  0  0  0  0  0  0  0  0
  -21.7680   -4.1140   23.6620 C   0  0  0  0  0  3  0  0  0  0  0  0
  -21.8880   -4.9180   22.5150 C   0  0  0  0  0  0  0  0  0  0  0  0
  -22.3090   -4.3680   21.3500 F   0  0  0  0  0  0  0  0  0  0  0  0
  -21.1890   -3.8990   25.9690 F   0  0  0  0  0  0  0  0  0  0  0  0
  -22.7530  -13.6540   21.1400 C   0  0  0  0  0  0  0  0  0  0  0  0
  -22.0390  -12.9530   22.0140 N   0  0  0  0  0  0  0  0  0  0  0  0
  -22.3110  -14.6860   20.6380 O   0  0  0  0  0  0  0  0  0  0  0  0
  -22.4100  -12.1190   22.4430 H   0  0  0  0  0  0  0  0  0  0  0  0
  -21.1080  -13.2590   22.2590 H   0  0  0  0  0  0  0  0  0  0  0  0
  -25.3630  -15.3200   20.2860 N   0  0  0  0  0  0  0  0  0  0  0  0
  -24.5910  -15.9660   20.4130 H   0  0  0  0  0  0  0  0  0  0  0  0
  -26.1880  -15.7600   19.9040 H   0  0  0  0  0  0  0  0  0  0  0  0
  -32.9480  -17.6010   18.9500 C   0  0  0  0  0  1  0  0  0  0  0  0
  -33.2030  -20.0190   19.3010 C   0  0  0  0  0  1  0  0  0  0  0  0
  -31.6870  -19.1610   17.5100 C   0  0  0  0  0  1  0  0  0  0  0  0
  -32.1700  -18.9200   18.9590 C   0  0  2  0  0  0  0  0  0  0  0  0
  -27.9610  -24.5690   19.9210 C   0  0  0  0  0  2  0  0  0  0  0  0
  -28.2130  -26.0930   20.2980 O   0  0  0  0  0  0  0  0  0  0  0  0
  -24.6320  -31.8890   23.2480 C   0  0  0  0  0  0  0  0  0  0  0  0
  -27.1860  -27.1270   20.2060 C   0  0  0  0  0  0  0  0  0  0  0  0
  -23.4270  -30.4980   21.6100 C   0  0  0  0  0  3  0  0  0  0  0  0
  -24.8690  -28.9170   20.1750 C   0  0  0  0  0  0  0  0  0  0  0  0
  -25.9850  -30.7430   21.4450 C   0  0  0  0  0  2  0  0  0  0  0  0
  -26.0530  -29.3460   20.7880 C   0  0  0  0  0  0  0  0  0  0  0  0
  -27.2090  -28.4680   20.7860 C   0  0  0  0  0  3  0  0  0  0  0  0
  -25.9790  -26.8210   19.5370 C   0  0  0  0  0  3  0  0  0  0  0  0
  -24.8500  -27.6700   19.5330 C   0  0  0  0  0  3  0  0  0  0  0  0
  -23.6450  -29.8210   20.2290 C   0  0  0  0  0  2  0  0  0  0  0  0
  -24.7020  -31.0670   22.1550 N   0  0  0  0  0  0  0  0  0  0  0  0
  -23.5480  -32.1760   23.7780 O   0  0  0  0  0  0  0  0  0  0  0  0
  -22.7480  -29.4920   22.5740 C   0  0  0  0  0  0  0  0  0  0  0  0
  -21.4220  -29.3060   22.4350 N   0  0  0  0  0  0  0  0  0  0  0  0
  -23.4170  -28.8810   23.4120 O   0  0  0  0  0  0  0  0  0  0  0  0
  -20.9400  -29.8510   21.7350 H   0  0  0  0  0  0  0  0  0  0  0  0
  -18.0540  -28.0470   22.8960 C   0  0  0  0  0  0  0  0  0  0  0  0
  -20.6030  -28.3650   23.2040 C   0  0  0  0  0  3  0  0  0  0  0  0
  -20.7410  -26.9270   22.6530 C   0  0  0  0  0  2  0  0  0  0  0  0
  -19.6650  -26.5670   21.6250 C   0  0  0  0  0  2  0  0  0  0  0  0
  -18.2690  -26.6920   22.2410 C   0  0  0  0  0  2  0  0  0  0  0  0
  -19.1500  -28.8390   23.3340 C   0  0  0  0  0  0  0  0  0  0  0  0
  -18.8940  -30.1030   23.9080 C   0  0  0  0  0  3  0  0  0  0  0  0
  -17.5760  -30.5780   24.0450 C   0  0  0  0  0  3  0  0  0  0  0  0
  -16.4960  -29.7850   23.6220 C   0  0  0  0  0  3  0  0  0  0  0  0
  -16.7350  -28.5210   23.0550 C   0  0  0  0  0  3  0  0  0  0  0  0
  -25.9110  -32.5250   23.8740 C   0  0  0  0  0  3  0  0  0  0  0  0
  -25.5990  -33.9240   24.2080 N   0  0  0  0  0  0  0  0  0  0  0  0
  -25.9130  -34.9810   23.4460 C   0  0  0  0  0  0  0  0  0  0  0  0
  -26.5600  -34.8800   22.4000 O   0  0  0  0  0  0  0  0  0  0  0  0
  -25.0200  -34.0750   25.0200 H   0  0  0  0  0  0  0  0  0  0  0  0
  -24.1650  -36.7690   23.1470 C   0  0  0  0  0  1  0  0  0  0  0  0
  -25.4350  -36.3700   23.9170 C   0  0  0  0  0  3  0  0  0  0  0  0
  -27.5890  -37.2730   24.6800 C   0  0  0  0  0  1  0  0  0  0  0  0
  -26.4590  -37.4290   23.7670 N   0  0  0  0  0  0  0  0  0  0  0  0
  -26.0520  -38.3480   23.9180 H   0  0  0  0  0  0  0  0  0  0  0  0
  -26.4180  -31.7580   25.1570 C   0  0  1  0  0  0  0  0  0  0  0  0
  -25.3200  -31.5290   26.2220 C   0  0  0  0  0  1  0  0  0  0  0  0
  -27.0010  -30.3760   24.7800 C   0  0  0  0  0  1  0  0  0  0  0  0
  -27.5680  -32.5530   25.8210 C   0  0  0  0  0  1  0  0  0  0  0  0
  1  9  2  0
  3  8  1  0
  4  3  1  0
  4  6  1  0
  5 51  1  0
  5  4  1  0
  6  2  1  0
  7  5  1  0
  7 18  1  0
  7  2  1  0
  8  1  1  0
  8  6  1  0
 10 18  1  0
 11 16  1  0
 12 13  1  0
 12 11  1  0
 14 13  1  0
 14 23  1  0
 14 15  1  0
 16 10  1  0
 16 15  1  0
 17 10  2  0
 18 19  1  0
 20 21  2  0
 21 40  1  0
 22 21  1  0
 22 25  1  0
 23 24  1  0
 23 20  1  0
 24 22  2  0
 25 26  1  0
 26 27  2  0
 28 31  1  0
 28 27  1  0
 29 28  2  0
 30 29  1  0
 30 25  2  0
 31 32  1  0
 32 33  1  0
 33 34  2  0
 35 34  1  0
 35 39  1  0
 36 35  2  0
 37 32  2  0
 37 36  1  0
 38 37  1  0
 40 41  1  0
 41 44  1  0
 41 43  1  0
 42 40  2  0
 45 46  1  0
 45 20  1  0
 47 45  1  0
 51 48  1  6
 50 51  1  0
 51 49  1  0
 52 53  1  0
 52  1  1  0
 54 65  2  0
 55 53  1  0
 55 60  1  0
 56 64  1  0
 56 66  1  0
 57 63  1  0
 57 59  1  0
 58 64  1  0
 59 58  1  0
 60 59  2  0
 61 55  2  0
 62 61  1  0
 62 57  2  0
 63 56  1  0
 64 54  1  0
 66 68  2  0
 67 66  1  0
 69 67  1  0
 70 79  2  0
 70 75  1  0
 71 67  1  0
 71 75  1  0
 72 71  1  0
 73 74  1  0
 73 72  1  0
 74 70  1  0
 75 76  2  0
 76 77  1  0
 78 77  2  0
 79 78  1  0
 80 54  1  0
 80 81  1  0
 80 90  1  0
 81 84  1  0
 82 86  1  0
 82 81  1  0
 83 82  2  0
 86 85  1  0
 88 86  1  0
 88 89  1  0
 88 87  1  0
 90 93  1  1
 90 91  1  0
 92 90  1  0
M  ISO  4  10 100  18 100  52 101  53 101
M  END
>  <TORSDO>  (25) 
F 18

>  <SCORE>  (25) 
-14.860

>  <name>  (25) 
24

>  <ligand_id>  (25) 
24

>  <original_smiles>  (25) 
[H]c1c([H])c([H])c2c(c1[H])C([H])([H])C([H])([H])C([H])([H])C2([H])N([H])C(=O)C1([H])N(C(=O)C([H])(N([H])C(=O)C([H])(N([H])C([H])([H])[H])C([H])([H])[H])C(C([H])([H])[H])(C([H])([H])[H])C([H])([H])[H])C([H])([H])c2c([H])c(OC([H])([H])C(=O)N3C([H])([H])C4([H])C3([H])C([H])([H])C([H])(N([H])C(=O)N3C([H])([H])C([H])([H])C([H])([H])C([H])(n5nc(-c6c([H])c([H])c(Oc7c([H])c([H])c(F)c([H])c7F)c([H])c6[H])c(C(=O)N([H])[H])c5N([H])[H])C3([H])[H])C4([H])C(C([H])([H])[H])(C([H])([H])[H])C([H])([H])[H])c([H])c([H])c2C1([H])[H]

>  <smiles>  (25) 
[H]c1c([H])c([H])c2c(c1[H])C([H])([H])C([H])([H])C([H])([H])C2([H])N([H])C(=O)C1([H])N(C(=O)C([H])(N([H])C(=O)C([H])(N([H])C([H])([H])[H])C([H])([H])[H])C(C([H])([H])[H])(C([H])([H])[H])C([H])([H])[H])C([H])([H])c2c([H])c(OC([H])([H])C(=O)N3C([H])([H])C4([H])C3([H])C([H])([H])C([H])(N([H])C(=O)N3C([H])([H])C([H])([H])C([H])([H])C([H])(n5nc(-c6c([H])c([H])c(Oc7c([H])c([H])c(F)c([H])c7F)c([H])c6[H])c(C(=O)N([H])[H])c5N([H])[H])C3([H])[H])C4([H])C(C([H])([H])[H])(C([H])([H])[H])C([H])([H])[H])c([H])c([H])c2C1([H])[H]

$$$$
25:0:0
     RDKit          3D

 92102  0  0  1  0  0  0  0  0999 V2000
  -28.6510  -22.2600   19.9250 N   0  0  1  0  0  4  0  0  0  0  0  0
  -28.8860  -22.0730   18.9610 H   0  0  0  0  0  0  0  0  0  0  0  0
  -26.7190  -22.7610   17.8920 C   0  0  0  0  0  2  0  0  0  0  0  0
  -25.1720  -22.7200   19.3150 C   0  0  0  0  0  2  0  0  0  0  0  0
  -26.2560  -21.7020   18.9130 C   0  0  1  0  0  0  0  0  0  0  0  0
  -26.4760  -23.5220   19.2010 C   0  0  2  0  0  0  0  0  0  0  0  0
  -27.1500  -22.3580   19.9920 C   0  0  0  0  0  3  0  0  0  0  0  0
  -29.1910  -23.7370   20.2230 C   0  0  0  0  0  3  0  0  0  0  0  0
  -28.3130  -25.1380   19.8450 C   0  0  0  0  0  3  0  0  0  0  0  0
  -28.5940  -26.6510   20.1050 O   0  0  0  0  0  0  0  0  0  0  0  0
  -24.7620  -32.0450   23.3750 C   0  0  0  0  0  0  0  0  0  0  0  0
  -27.5170  -27.6140   20.0880 C   0  0  0  0  0  0  0  0  0  0  0  0
  -23.6310  -30.7320   21.6250 C   0  0  0  0  0  3  0  0  0  0  0  0
  -25.1450  -29.2980   20.1280 C   0  0  0  0  0  0  0  0  0  0  0  0
  -26.1800  -31.0730   21.5290 C   0  0  0  0  0  2  0  0  0  0  0  0
  -26.3020  -29.7310   20.7880 C   0  0  0  0  0  0  0  0  0  0  0  0
  -27.4900  -28.9060   20.7530 C   0  0  0  0  0  3  0  0  0  0  0  0
  -26.3290  -27.2890   19.3930 C   0  0  0  0  0  3  0  0  0  0  0  0
  -25.1700  -28.0920   19.4170 C   0  0  0  0  0  3  0  0  0  0  0  0
  -23.8940  -30.1570   20.2100 C   0  0  0  0  0  2  0  0  0  0  0  0
  -24.8760  -31.3020   22.2320 N   0  0  0  0  0  0  0  0  0  0  0  0
  -23.6610  -32.2680   23.8970 O   0  0  0  0  0  0  0  0  0  0  0  0
  -22.9630  -29.6450   22.5040 C   0  0  0  0  0  0  0  0  0  0  0  0
  -21.6410  -29.4550   22.3460 N   0  0  0  0  0  0  0  0  0  0  0  0
  -23.6370  -28.9780   23.2930 O   0  0  0  0  0  0  0  0  0  0  0  0
  -21.1540  -30.0460   21.6870 H   0  0  0  0  0  0  0  0  0  0  0  0
  -18.2700  -28.1950   22.7590 C   0  0  0  0  0  0  0  0  0  0  0  0
  -20.8290  -28.4510   23.0370 C   0  0  0  0  0  3  0  0  0  0  0  0
  -20.9370  -27.0740   22.3420 C   0  0  0  0  0  2  0  0  0  0  0  0
  -19.8320  -26.8290   21.3100 C   0  0  0  0  0  2  0  0  0  0  0  0
  -18.4520  -26.9090   21.9690 C   0  0  0  0  0  2  0  0  0  0  0  0
  -19.3850  -28.9260   23.2460 C   0  0  0  0  0  0  0  0  0  0  0  0
  -19.1600  -30.1300   23.9480 C   0  0  0  0  0  3  0  0  0  0  0  0
  -17.8530  -30.6050   24.1640 C   0  0  0  0  0  3  0  0  0  0  0  0
  -16.7520  -29.8700   23.6910 C   0  0  0  0  0  3  0  0  0  0  0  0
  -16.9610  -28.6660   22.9950 C   0  0  0  0  0  3  0  0  0  0  0  0
  -26.0120  -32.6690   24.0670 C   0  0  0  0  0  3  0  0  0  0  0  0
  -25.6860  -34.0630   24.4050 N   0  0  0  0  0  0  0  0  0  0  0  0
  -26.0340  -35.1290   23.6700 C   0  0  0  0  0  0  0  0  0  0  0  0
  -26.7290  -35.0410   22.6550 O   0  0  0  0  0  0  0  0  0  0  0  0
  -25.0700  -34.2050   25.1910 H   0  0  0  0  0  0  0  0  0  0  0  0
  -24.2990  -36.9180   23.3160 C   0  0  0  0  0  1  0  0  0  0  0  0
  -25.5330  -36.5100   24.1370 C   0  0  0  0  0  3  0  0  0  0  0  0
  -27.6490  -37.4050   25.0050 C   0  0  0  0  0  1  0  0  0  0  0  0
  -26.5610  -37.5700   24.0450 N   0  0  0  0  0  0  0  0  0  0  0  0
  -26.1480  -38.4880   24.1920 H   0  0  0  0  0  0  0  0  0  0  0  0
  -26.4620  -31.8820   25.3590 C   0  0  1  0  0  0  0  0  0  0  0  0
  -25.3140  -31.6320   26.3650 C   0  0  0  0  0  1  0  0  0  0  0  0
  -27.0660  -30.5090   24.9850 C   0  0  0  0  0  1  0  0  0  0  0  0
  -27.5760  -32.6690   26.0890 C   0  0  0  0  0  1  0  0  0  0  0  0
  -29.2140  -20.9950   20.7420 C   0  0  0  0  0  2  0  0  0  0  0  0
  -28.0920  -18.6750   19.7580 C   0  0  0  0  0  1  0  0  0  0  0  0
  -29.3810  -19.3690   20.2170 C   0  0  0  0  0  3  0  0  0  0  0  0
  -30.2060  -18.1820   21.0860 C   0  0  0  0  0  2  0  0  0  0  0  0
  -30.7880  -15.4830   20.9690 C   0  0  0  0  0  0  0  0  0  0  0  0
  -30.8480  -13.1030   20.1070 C   0  0  0  0  0  2  0  0  0  0  0  0
  -30.0560  -12.9820   18.7840 C   0  0  0  0  0  2  0  0  0  0  0  0
  -28.5620  -12.7350   19.0660 C   0  0  0  0  0  2  0  0  0  0  0  0
  -27.9980  -13.6930   20.1480 C   0  0  0  0  0  3  0  0  0  0  0  0
  -28.9210  -13.7780   21.3820 C   0  0  0  0  0  2  0  0  0  0  0  0
  -30.2400  -14.2060   20.8990 N   0  0  0  0  0  0  0  0  0  0  0  0
  -32.0110  -15.5920   20.8380 O   0  0  0  0  0  0  0  0  0  0  0  0
  -29.9490  -16.6260   20.9840 N   0  0  0  0  0  0  0  0  0  0  0  0
  -28.9720  -16.3800   21.0120 H   0  0  0  0  0  0  0  0  0  0  0  0
  -25.5360  -14.2130   20.6110 C   0  0  0  0  0  0  0  0  0  0  0  0
  -24.4620  -13.4120   20.8850 C   0  0  0  0  0  0  0  0  0  0  0  0
  -24.9670  -12.0770   20.9410 C   0  0  0  0  0  0  0  0  0  0  0  0
  -26.6240  -13.3640   20.5080 N   0  0  0  0  0  0  0  0  0  0  0  0
  -26.2850  -12.0760   20.7740 N   0  0  0  0  0  0  0  0  0  0  0  0
  -24.2630  -10.7960   21.0840 C   0  0  0  0  0  0  0  0  0  0  0  0
  -24.6120   -9.8710   22.0920 C   0  0  0  0  0  3  0  0  0  0  0  0
  -23.9070   -8.6550   22.2220 C   0  0  0  0  0  3  0  0  0  0  0  0
  -22.8400   -8.3550   21.3420 C   0  0  0  0  0  0  0  0  0  0  0  0
  -22.5110   -9.2700   20.3260 C   0  0  0  0  0  3  0  0  0  0  0  0
  -23.2170  -10.4780   20.1950 C   0  0  0  0  0  3  0  0  0  0  0  0
  -22.1150   -7.1890   21.3780 O   0  0  0  0  0  0  0  0  0  0  0  0
  -21.9370   -6.4870   22.5420 C   0  0  0  0  0  0  0  0  0  0  0  0
  -21.3340   -7.0710   23.6780 C   0  0  0  0  0  3  0  0  0  0  0  0
  -21.1070   -6.2940   24.8320 C   0  0  0  0  0  3  0  0  0  0  0  0
  -21.4720   -4.9350   24.8500 C   0  0  0  0  0  0  0  0  0  0  0  0
  -22.0660   -4.3500   23.7180 C   0  0  0  0  0  3  0  0  0  0  0  0
  -22.2960   -5.1250   22.5660 C   0  0  0  0  0  0  0  0  0  0  0  0
  -22.8510   -4.5520   21.4710 F   0  0  0  0  0  0  0  0  0  0  0  0
  -21.2460   -4.1860   25.9540 F   0  0  0  0  0  0  0  0  0  0  0  0
  -23.0290  -13.8500   20.9880 C   0  0  0  0  0  0  0  0  0  0  0  0
  -22.2340  -13.1570   21.7940 N   0  0  0  0  0  0  0  0  0  0  0  0
  -22.6200  -14.8430   20.3870 O   0  0  0  0  0  0  0  0  0  0  0  0
  -22.5750  -12.3540   22.3010 H   0  0  0  0  0  0  0  0  0  0  0  0
  -21.2690  -13.4340   21.9080 H   0  0  0  0  0  0  0  0  0  0  0  0
  -25.6750  -15.5830   20.4120 N   0  0  0  0  0  0  0  0  0  0  0  0
  -24.8750  -16.2070   20.4070 H   0  0  0  0  0  0  0  0  0  0  0  0
  -26.5290  -16.0340   20.1170 H   0  0  0  0  0  0  0  0  0  0  0  0
  1  8  1  0
  1 51  1  0
  1  2  1  6
  5  3  1  6
  5  6  1  0
  5  4  1  0
  5  7  1  0
  6  3  1  6
  6  4  1  0
  6  7  1  0
  7  1  1  0
  9 10  1  0
  9  8  2  0
 11 22  2  0
 12 10  1  0
 12 17  1  0
 13 21  1  0
 13 23  1  0
 14 20  1  0
 14 16  1  0
 15 21  1  0
 16 15  1  0
 17 16  2  0
 18 19  1  0
 18 12  2  0
 19 14  2  0
 20 13  1  0
 21 11  1  0
 23 25  2  0
 24 23  1  0
 26 24  1  0
 27 36  2  0
 27 32  1  0
 28 24  1  0
 28 32  1  0
 29 28  1  0
 30 31  1  0
 30 29  1  0
 31 27  1  0
 32 33  2  0
 33 34  1  0
 35 34  2  0
 36 35  1  0
 37 11  1  0
 37 38  1  0
 37 47  1  0
 38 41  1  0
 39 43  1  0
 39 38  1  0
 40 39  2  0
 43 42  1  0
 45 43  1  0
 45 46  1  0
 45 44  1  0
 47 50  1  1
 47 48  1  0
 49 47  1  0
 53 52  1  0
 53 51  1  0
 53 54  1  0
 55 63  1  0
 56 61  1  0
 57 58  1  0
 57 56  1  0
 59 58  1  0
 59 68  1  0
 59 60  1  0
 61 55  1  0
 61 60  1  0
 62 55  2  0
 63 64  1  0
 63 54  1  0
 65 66  2  0
 66 67  1  0
 66 85  1  0
 67 70  1  0
 68 65  1  0
 68 69  1  0
 69 67  2  0
 70 71  1  0
 71 72  2  0
 73 76  1  0
 73 72  1  0
 74 73  2  0
 75 74  1  0
 75 70  2  0
 76 77  1  0
 77 82  2  0
 77 78  1  0
 78 79  2  0
 79 80  1  0
 80 84  1  0
 81 80  2  0
 82 81  1  0
 83 82  1  0
 85 86  1  0
 86 89  1  0
 86 88  1  0
 87 85  2  0
 90 65  1  0
 91 90  1  0
 92 90  1  0
M  ISO  4   9 101  10 101  55 100  63 100
M  END
>  <TORSDO>  (26) 
F 22

>  <SCORE>  (26) 
-13.684

>  <name>  (26) 
25

>  <ligand_id>  (26) 
25

>  <original_smiles>  (26) 
[H]c1c([H])c([H])c2c(c1[H])C([H])([H])C([H])([H])C([H])([H])C2([H])N([H])C(=O)C1([H])N(C(=O)C([H])(N([H])C(=O)C([H])(N([H])C([H])([H])[H])C([H])([H])[H])C(C([H])([H])[H])(C([H])([H])[H])C([H])([H])[H])C([H])([H])c2c([H])c(OC([H])([H])C([H])([H])[N+]([H])(C([H])([H])C([H])(C([H])([H])[H])C([H])([H])N([H])C(=O)N3C([H])([H])C([H])([H])C([H])([H])C([H])(n4nc(-c5c([H])c([H])c(Oc6c([H])c([H])c(F)c([H])c6F)c([H])c5[H])c(C(=O)N([H])[H])c4N([H])[H])C3([H])[H])C3([H])C4([H])C([H])([H])C3([H])C4([H])[H])c([H])c([H])c2C1([H])[H]

>  <smiles>  (26) 
[H]c1c([H])c([H])c2c(c1[H])C([H])([H])C([H])([H])C([H])([H])C2([H])N([H])C(=O)C1([H])N(C(=O)C([H])(N([H])C(=O)C([H])(N([H])C([H])([H])[H])C([H])([H])[H])C(C([H])([H])[H])(C([H])([H])[H])C([H])([H])[H])C([H])([H])c2c([H])c(OC([H])([H])C([H])([H])[N+]([H])(C([H])([H])C([H])(C([H])([H])[H])C([H])([H])N([H])C(=O)N3C([H])([H])C([H])([H])C([H])([H])C([H])(n4nc(-c5c([H])c([H])c(Oc6c([H])c([H])c(F)c([H])c6F)c([H])c5[H])c(C(=O)N([H])[H])c4N([H])[H])C3([H])[H])C3([H])C4([H])C([H])([H])C3([H])C4([H])[H])c([H])c([H])c2C1([H])[H]

$$$$
26:0:0
     RDKit          3D

 98108  0  0  1  0  0  0  0  0999 V2000
  -30.2990  -20.8120   19.6220 C   0  0  0  0  0  0  0  0  0  0  0  0
  -30.7720  -19.6570   19.0950 N   0  0  0  0  0  0  0  0  0  0  0  0
  -30.1080  -20.9340   20.8320 O   0  0  0  0  0  0  0  0  0  0  0  0
  -30.9450  -19.6360   18.0990 H   0  0  0  0  0  0  0  0  0  0  0  0
  -31.7990  -14.7310   19.0040 C   0  0  0  0  0  0  0  0  0  0  0  0
  -31.2500  -12.6100   17.8320 C   0  0  0  0  0  2  0  0  0  0  0  0
  -30.0040  -12.8040   16.9350 C   0  0  0  0  0  2  0  0  0  0  0  0
  -28.6820  -12.6610   17.7250 C   0  0  0  0  0  2  0  0  0  0  0  0
  -28.7110  -13.4350   19.0700 C   0  0  0  0  0  3  0  0  0  0  0  0
  -30.0070  -13.0640   19.8180 C   0  0  0  0  0  2  0  0  0  0  0  0
  -31.1300  -13.5270   18.9860 N   0  0  0  0  0  0  0  0  0  0  0  0
  -32.7660  -14.9030   18.2490 O   0  0  0  0  0  0  0  0  0  0  0  0
  -29.8850  -18.1250   20.8250 C   0  0  0  0  0  2  0  0  0  0  0  0
  -31.2580  -17.1660   18.9360 C   0  0  0  0  0  2  0  0  0  0  0  0
  -30.5750  -15.7650   20.9420 C   0  0  0  0  0  2  0  0  0  0  0  0
  -29.5800  -16.7610   23.0780 C   0  0  0  0  0  3  0  0  0  0  0  0
  -31.0310  -18.4110   19.8520 C   0  0  0  0  0  3  0  0  0  0  0  0
  -30.3090  -17.0170   21.7670 C   0  0  2  0  0  0  0  0  0  0  0  0
  -30.9890  -17.3220   23.1110 C   0  0  2  0  0  0  0  0  0  0  0  0
  -28.3360  -17.5280   23.4910 C   0  0  0  0  0  1  0  0  0  0  0  0
  -32.1150  -16.4380   23.6300 C   0  0  0  0  0  1  0  0  0  0  0  0
  -31.2510  -18.7540   23.5620 C   0  0  0  0  0  1  0  0  0  0  0  0
  -31.1950  -15.8210   19.5970 N   0  0  0  0  0  0  0  0  0  0  0  0
  -26.7330  -14.0760   20.5910 C   0  0  0  0  0  0  0  0  0  0  0  0
  -25.7020  -13.3350   21.1030 C   0  0  0  0  0  0  0  0  0  0  0  0
  -25.9200  -11.9980   20.6530 C   0  0  0  0  0  0  0  0  0  0  0  0
  -27.5220  -13.1850   19.8760 N   0  0  0  0  0  0  0  0  0  0  0  0
  -27.0500  -11.9170   19.9640 N   0  0  0  0  0  0  0  0  0  0  0  0
  -25.0870  -10.7970   20.7880 C   0  0  0  0  0  0  0  0  0  0  0  0
  -25.4720   -9.7240   21.6220 C   0  0  0  0  0  3  0  0  0  0  0  0
  -24.6460   -8.5870   21.7500 C   0  0  0  0  0  3  0  0  0  0  0  0
  -23.4200   -8.5150   21.0450 C   0  0  0  0  0  0  0  0  0  0  0  0
  -23.0540   -9.5770   20.1980 C   0  0  0  0  0  3  0  0  0  0  0  0
  -23.8790  -10.7060   20.0680 C   0  0  0  0  0  3  0  0  0  0  0  0
  -22.5670   -7.4390   21.0900 O   0  0  0  0  0  0  0  0  0  0  0  0
  -22.2680   -6.8120   22.2730 C   0  0  0  0  0  0  0  0  0  0  0  0
  -21.7320   -7.5120   23.3750 C   0  0  0  0  0  3  0  0  0  0  0  0
  -21.3730   -6.8120   24.5460 C   0  0  0  0  0  3  0  0  0  0  0  0
  -21.5380   -5.4150   24.6110 C   0  0  0  0  0  0  0  0  0  0  0  0
  -22.0690   -4.7170   23.5120 C   0  0  0  0  0  3  0  0  0  0  0  0
  -22.4290   -5.4130   22.3450 C   0  0  0  0  0  0  0  0  0  0  0  0
  -22.9210   -4.7330   21.2820 F   0  0  0  0  0  0  0  0  0  0  0  0
  -21.1860   -4.7440   25.7310 F   0  0  0  0  0  0  0  0  0  0  0  0
  -24.5290  -13.8510   21.8820 C   0  0  0  0  0  0  0  0  0  0  0  0
  -23.9240  -13.0070   22.7140 N   0  0  0  0  0  0  0  0  0  0  0  0
  -24.1680  -15.0230   21.7940 O   0  0  0  0  0  0  0  0  0  0  0  0
  -24.2270  -12.0490   22.8030 H   0  0  0  0  0  0  0  0  0  0  0  0
  -23.1460  -13.3260   23.2730 H   0  0  0  0  0  0  0  0  0  0  0  0
  -27.0470  -15.4310   20.6560 N   0  0  0  0  0  0  0  0  0  0  0  0
  -26.4530  -16.1020   21.1290 H   0  0  0  0  0  0  0  0  0  0  0  0
  -27.8410  -15.8590   20.2010 H   0  0  0  0  0  0  0  0  0  0  0  0
  -28.6260  -21.9060   18.0020 C   0  0  0  0  0  2  0  0  0  0  0  0
  -28.2960  -23.3420   17.5820 C   0  0  0  0  0  2  0  0  0  0  0  0
  -29.9970  -23.4340   19.3090 C   0  0  0  0  0  2  0  0  0  0  0  0
  -30.0050  -22.0040   18.6670 C   0  0  0  0  0  3  0  0  0  0  0  0
  -28.7890  -24.2310   18.7350 C   0  0  0  0  0  3  0  0  0  0  0  0
  -29.0690  -25.7020   18.2820 C   0  0  0  0  0  2  0  0  0  0  0  0
  -28.8810  -26.7370   19.2700 O   0  0  0  0  0  0  0  0  0  0  0  0
  -24.9390  -31.4250   22.9430 C   0  0  0  0  0  0  0  0  0  0  0  0
  -27.6580  -27.3810   19.3750 C   0  0  0  0  0  0  0  0  0  0  0  0
  -23.7260  -30.0810   21.2590 C   0  0  0  0  0  3  0  0  0  0  0  0
  -25.1820  -28.7460   19.6440 C   0  0  0  0  0  0  0  0  0  0  0  0
  -26.2130  -30.5990   20.9650 C   0  0  0  0  0  2  0  0  0  0  0  0
  -26.3410  -29.2860   20.2140 C   0  0  0  0  0  0  0  0  0  0  0  0
  -27.5760  -28.6060   20.0850 C   0  0  0  0  0  3  0  0  0  0  0  0
  -26.4710  -26.8550   18.8130 C   0  0  0  0  0  3  0  0  0  0  0  0
  -25.2430  -27.5290   18.9440 C   0  0  0  0  0  3  0  0  0  0  0  0
  -23.8970  -29.5210   19.8220 C   0  0  0  0  0  2  0  0  0  0  0  0
  -24.9810  -30.7150   21.7810 N   0  0  0  0  0  0  0  0  0  0  0  0
  -23.8750  -31.5910   23.5550 O   0  0  0  0  0  0  0  0  0  0  0  0
  -23.1850  -28.9530   22.1690 C   0  0  0  0  0  0  0  0  0  0  0  0
  -21.8920  -28.6260   22.0140 N   0  0  0  0  0  0  0  0  0  0  0  0
  -23.9270  -28.3750   22.9690 O   0  0  0  0  0  0  0  0  0  0  0  0
  -21.3490  -29.1520   21.3430 H   0  0  0  0  0  0  0  0  0  0  0  0
  -18.6680  -27.0470   22.4270 C   0  0  0  0  0  0  0  0  0  0  0  0
  -21.1800  -27.5680   22.7320 C   0  0  0  0  0  3  0  0  0  0  0  0
  -21.4410  -26.1870   22.0860 C   0  0  0  0  0  2  0  0  0  0  0  0
  -20.3830  -25.7970   21.0490 C   0  0  0  0  0  2  0  0  0  0  0  0
  -18.9920  -25.7600   21.6870 C   0  0  0  0  0  2  0  0  0  0  0  0
  -19.6960  -27.9050   22.9020 C   0  0  0  0  0  0  0  0  0  0  0  0
  -19.3380  -29.1070   23.5500 C   0  0  0  0  0  3  0  0  0  0  0  0
  -17.9870  -29.4550   23.7280 C   0  0  0  0  0  3  0  0  0  0  0  0
  -16.9740  -28.5950   23.2690 C   0  0  0  0  0  3  0  0  0  0  0  0
  -17.3150  -27.3910   22.6270 C   0  0  0  0  0  3  0  0  0  0  0  0
  -26.2190  -32.0830   23.5470 C   0  0  0  0  0  3  0  0  0  0  0  0
  -25.8090  -33.3470   24.1750 N   0  0  0  0  0  0  0  0  0  0  0  0
  -25.9400  -34.5540   23.6080 C   0  0  0  0  0  0  0  0  0  0  0  0
  -26.4890  -34.7260   22.5160 O   0  0  0  0  0  0  0  0  0  0  0  0
  -25.3030  -33.2780   25.0450 H   0  0  0  0  0  0  0  0  0  0  0  0
  -24.0020  -36.1470   23.7890 C   0  0  0  0  0  1  0  0  0  0  0  0
  -25.3710  -35.7630   24.3730 C   0  0  0  0  0  3  0  0  0  0  0  0
  -27.4920  -36.7420   25.1310 C   0  0  0  0  0  1  0  0  0  0  0  0
  -26.2650  -36.9420   24.3640 N   0  0  0  0  0  0  0  0  0  0  0  0
  -25.7880  -37.7570   24.7410 H   0  0  0  0  0  0  0  0  0  0  0  0
  -26.9630  -31.1590   24.5870 C   0  0  1  0  0  0  0  0  0  0  0  0
  -26.0210  -30.5080   25.6270 C   0  0  0  0  0  1  0  0  0  0  0  0
  -27.7190  -30.0210   23.8620 C   0  0  0  0  0  1  0  0  0  0  0  0
  -28.0290  -31.9800   25.3500 C   0  0  0  0  0  1  0  0  0  0  0  0
  1  3  2  0
  2  1  1  0
  4  2  1  0
  5 23  1  0
  6 11  1  0
  7  8  1  0
  7  6  1  0
  9  8  1  0
  9 10  1  0
  9 27  1  0
 11  5  1  0
 11 10  1  0
 12  5  2  0
 14 23  1  0
 14 17  1  0
 18 15  1  6
 16 19  1  0
 16 20  1  0
 17  2  1  0
 17 13  1  0
 18 13  1  0
 18 16  1  0
 18 19  1  0
 19 22  1  6
 19 21  1  0
 23 15  1  0
 24 49  1  0
 24 25  2  0
 25 44  1  0
 26 29  1  0
 26 25  1  0
 27 28  1  0
 27 24  1  0
 28 26  2  0
 29 30  1  0
 30 31  2  0
 32 35  1  0
 32 31  1  0
 33 32  2  0
 34 33  1  0
 34 29  2  0
 35 36  1  0
 36 41  2  0
 36 37  1  0
 37 38  2  0
 38 39  1  0
 39 43  1  0
 40 39  2  0
 41 40  1  0
 42 41  1  0
 44 45  1  0
 45 47  1  0
 45 48  1  0
 46 44  2  0
 49 50  1  0
 51 49  1  0
 52 55  1  0
 53 52  1  0
 53 56  1  0
 55 54  1  0
 55  1  1  0
 56 57  1  0
 56 54  1  0
 57 58  1  0
 58 60  1  0
 59 70  2  0
 60 65  1  0
 61 69  1  0
 61 71  1  0
 62 68  1  0
 62 64  1  0
 63 69  1  0
 64 63  1  0
 65 64  2  0
 66 67  1  0
 66 60  2  0
 67 62  2  0
 68 61  1  0
 69 59  1  0
 71 73  2  0
 72 71  1  0
 74 72  1  0
 75 84  2  0
 75 80  1  0
 76 72  1  0
 76 80  1  0
 77 76  1  0
 78 79  1  0
 78 77  1  0
 79 75  1  0
 80 81  2  0
 81 82  1  0
 83 82  2  0
 84 83  1  0
 85 59  1  0
 85 86  1  0
 85 95  1  0
 86 89  1  0
 87 86  1  0
 87 91  1  0
 88 87  2  0
 91 90  1  0
 93 91  1  0
 93 94  1  0
 93 92  1  0
 95 98  1  1
 95 96  1  0
 97 95  1  0
M  ISO  4   5 100  23 100  57 101  58 101
M  END
>  <TORSDO>  (27) 
F 18

>  <SCORE>  (27) 
6.956

>  <name>  (27) 
26

>  <ligand_id>  (27) 
26

>  <original_smiles>  (27) 
[H]c1c([H])c([H])c2c(c1[H])C([H])([H])C([H])([H])C([H])([H])C2([H])N([H])C(=O)C1([H])N(C(=O)C([H])(N([H])C(=O)C([H])(N([H])C([H])([H])[H])C([H])([H])[H])C(C([H])([H])[H])(C([H])([H])[H])C([H])([H])[H])C([H])([H])c2c([H])c(OC([H])([H])C3([H])C([H])([H])C([H])([H])C([H])(C(=O)N([H])C4([H])C([H])([H])N(C(=O)N5C([H])([H])C([H])([H])C([H])([H])C([H])(n6nc(-c7c([H])c([H])c(Oc8c([H])c([H])c(F)c([H])c8F)c([H])c7[H])c(C(=O)N([H])[H])c6N([H])[H])C5([H])[H])C([H])([H])C5(C4([H])[H])C([H])(C([H])([H])[H])C5(C([H])([H])[H])C([H])([H])[H])C3([H])[H])c([H])c([H])c2C1([H])[H]

>  <smiles>  (27) 
[H]c1c([H])c([H])c2c(c1[H])C([H])([H])C([H])([H])C([H])([H])C2([H])N([H])C(=O)C1([H])N(C(=O)C([H])(N([H])C(=O)C([H])(N([H])C([H])([H])[H])C([H])([H])[H])C(C([H])([H])[H])(C([H])([H])[H])C([H])([H])[H])C([H])([H])c2c([H])c(OC([H])([H])C3([H])C([H])([H])C([H])([H])C([H])(C(=O)N([H])C4([H])C([H])([H])N(C(=O)N5C([H])([H])C([H])([H])C([H])([H])C([H])(n6nc(-c7c([H])c([H])c(Oc8c([H])c([H])c(F)c([H])c8F)c([H])c7[H])c(C(=O)N([H])[H])c6N([H])[H])C5([H])[H])C([H])([H])C5(C4([H])[H])C([H])(C([H])([H])[H])C5(C([H])([H])[H])C([H])([H])[H])C3([H])[H])c([H])c([H])c2C1([H])[H]

$$$$
27:0:0
     RDKit          3D

 95103  0  0  1  0  0  0  0  0999 V2000
  -29.0420  -22.6240   19.2250 C   0  0  0  0  0  2  0  0  0  0  0  0
  -29.9210  -20.8310   20.9720 C   0  0  0  0  0  3  0  0  0  0  0  0
  -29.7710  -18.7570   19.1000 C   0  0  0  0  0  3  0  0  0  0  0  0
  -30.3630  -19.5140   21.3080 C   0  0  0  0  0  0  0  0  0  0  0  0
  -29.3170  -20.0680   18.7680 C   0  0  0  0  0  0  0  0  0  0  0  0
  -29.4150  -21.1600   19.6880 C   0  0  0  0  0  0  0  0  0  0  0  0
  -30.3430  -18.4480   20.3540 C   0  0  0  0  0  0  0  0  0  0  0  0
  -30.9090  -19.2880   22.7090 C   0  0  0  0  0  1  0  0  0  0  0  0
  -28.7600  -20.2790   17.3680 C   0  0  0  0  0  1  0  0  0  0  0  0
  -31.1090  -17.0880   20.5700 C   0  0  0  0  0  2  0  0  0  0  0  0
  -31.1540  -14.6130   19.9240 C   0  0  0  0  0  0  0  0  0  0  0  0
  -30.7900  -12.3530   18.9620 C   0  0  0  0  0  2  0  0  0  0  0  0
  -29.8190  -12.4490   17.7680 C   0  0  0  0  0  2  0  0  0  0  0  0
  -28.3560  -12.3710   18.2530 C   0  0  0  0  0  2  0  0  0  0  0  0
  -28.0660  -13.3130   19.4520 C   0  0  0  0  0  3  0  0  0  0  0  0
  -29.1530  -13.1910   20.5410 C   0  0  0  0  0  2  0  0  0  0  0  0
  -30.4510  -13.4410   19.8990 N   0  0  0  0  0  0  0  0  0  0  0  0
  -32.3100  -14.6690   19.4950 O   0  0  0  0  0  0  0  0  0  0  0  0
  -30.4910  -15.7490   20.2960 N   0  0  0  0  0  0  0  0  0  0  0  0
  -29.5330  -15.6350   20.5860 H   0  0  0  0  0  0  0  0  0  0  0  0
  -25.7500  -14.0410   20.2880 C   0  0  0  0  0  0  0  0  0  0  0  0
  -24.6560  -13.3270   20.6980 C   0  0  0  0  0  0  0  0  0  0  0  0
  -25.0350  -11.9520   20.6340 C   0  0  0  0  0  0  0  0  0  0  0  0
  -26.7280  -13.1040   19.9970 N   0  0  0  0  0  0  0  0  0  0  0  0
  -26.3060  -11.8410   20.2660 N   0  0  0  0  0  0  0  0  0  0  0  0
  -24.2440  -10.7330   20.8440 C   0  0  0  0  0  0  0  0  0  0  0  0
  -24.6320   -9.7520   21.7830 C   0  0  0  0  0  3  0  0  0  0  0  0
  -23.8430   -8.5980   21.9810 C   0  0  0  0  0  3  0  0  0  0  0  0
  -22.6490   -8.4180   21.2410 C   0  0  0  0  0  0  0  0  0  0  0  0
  -22.2810   -9.3880   20.2910 C   0  0  0  0  0  3  0  0  0  0  0  0
  -23.0700  -10.5330   20.0910 C   0  0  0  0  0  3  0  0  0  0  0  0
  -21.8330   -7.3190   21.3460 O   0  0  0  0  0  0  0  0  0  0  0  0
  -21.7170   -6.6210   22.5220 C   0  0  0  0  0  0  0  0  0  0  0  0
  -21.2860   -7.2410   23.7170 C   0  0  0  0  0  3  0  0  0  0  0  0
  -21.1130   -6.4720   24.8850 C   0  0  0  0  0  3  0  0  0  0  0  0
  -21.3580   -5.0860   24.8590 C   0  0  0  0  0  0  0  0  0  0  0  0
  -21.7810   -4.4680   23.6690 C   0  0  0  0  0  3  0  0  0  0  0  0
  -21.9570   -5.2330   22.5040 C   0  0  0  0  0  0  0  0  0  0  0  0
  -22.3440   -4.6280   21.3550 F   0  0  0  0  0  0  0  0  0  0  0  0
  -21.1830   -4.3450   25.9780 F   0  0  0  0  0  0  0  0  0  0  0  0
  -23.3040  -13.8840   21.0350 C   0  0  0  0  0  0  0  0  0  0  0  0
  -22.5810  -13.2320   21.9380 N   0  0  0  0  0  0  0  0  0  0  0  0
  -22.9010  -14.9320   20.5310 O   0  0  0  0  0  0  0  0  0  0  0  0
  -22.9250  -12.3870   22.3710 H   0  0  0  0  0  0  0  0  0  0  0  0
  -21.6710  -13.5830   22.2000 H   0  0  0  0  0  0  0  0  0  0  0  0
  -25.9870  -15.4010   20.1170 N   0  0  0  0  0  0  0  0  0  0  0  0
  -25.2570  -16.0920   20.2580 H   0  0  0  0  0  0  0  0  0  0  0  0
  -26.8380  -15.8000   19.7430 H   0  0  0  0  0  0  0  0  0  0  0  0
  -28.6860  -23.8280   20.2120 C   0  0  0  0  0  3  0  0  0  0  0  0
  -27.4190  -23.5370   20.9230 N   0  0  0  0  0  4  0  0  0  0  0  0
  -26.6410  -23.4720   20.2880 H   0  0  0  0  0  0  0  0  0  0  0  0
  -27.2140  -24.2600   21.5930 H   0  0  0  0  0  0  0  0  0  0  0  0
  -27.4750  -22.6630   21.4170 H   0  0  0  0  0  0  0  0  0  0  0  0
  -28.6040  -25.2520   19.4800 C   0  0  0  0  0  2  0  0  0  0  0  0
  -28.4160  -26.5050   20.2450 O   0  0  0  0  0  0  0  0  0  0  0  0
  -24.5500  -31.8030   23.2040 C   0  0  0  0  0  0  0  0  0  0  0  0
  -27.2560  -27.2880   20.1710 C   0  0  0  0  0  0  0  0  0  0  0  0
  -23.3800  -30.3920   21.5470 C   0  0  0  0  0  3  0  0  0  0  0  0
  -24.8650  -28.8580   20.1390 C   0  0  0  0  0  0  0  0  0  0  0  0
  -25.9160  -30.7420   21.3950 C   0  0  0  0  0  2  0  0  0  0  0  0
  -26.0170  -29.3660   20.7490 C   0  0  0  0  0  0  0  0  0  0  0  0
  -27.2110  -28.5900   20.7570 C   0  0  0  0  0  3  0  0  0  0  0  0
  -26.0720  -26.8190   19.5590 C   0  0  0  0  0  3  0  0  0  0  0  0
  -24.8940  -27.5910   19.5380 C   0  0  0  0  0  3  0  0  0  0  0  0
  -23.6160  -29.7160   20.1700 C   0  0  0  0  0  2  0  0  0  0  0  0
  -24.6320  -30.9970   22.1040 N   0  0  0  0  0  0  0  0  0  0  0  0
  -23.4580  -32.0670   23.7280 O   0  0  0  0  0  0  0  0  0  0  0  0
  -22.7190  -29.3680   22.5010 C   0  0  0  0  0  0  0  0  0  0  0  0
  -21.4010  -29.1570   22.3440 N   0  0  0  0  0  0  0  0  0  0  0  0
  -23.3930  -28.7650   23.3420 O   0  0  0  0  0  0  0  0  0  0  0  0
  -20.9190  -29.6930   21.6370 H   0  0  0  0  0  0  0  0  0  0  0  0
  -18.0480  -27.8680   22.7530 C   0  0  0  0  0  0  0  0  0  0  0  0
  -20.5860  -28.2080   23.1050 C   0  0  0  0  0  3  0  0  0  0  0  0
  -20.7500  -26.7720   22.5590 C   0  0  0  0  0  2  0  0  0  0  0  0
  -19.6930  -26.3990   21.5150 C   0  0  0  0  0  2  0  0  0  0  0  0
  -18.2860  -26.5140   22.1070 C   0  0  0  0  0  2  0  0  0  0  0  0
  -19.1280  -28.6700   23.2070 C   0  0  0  0  0  0  0  0  0  0  0  0
  -18.8520  -29.9360   23.7700 C   0  0  0  0  0  3  0  0  0  0  0  0
  -17.5280  -30.4000   23.8810 C   0  0  0  0  0  3  0  0  0  0  0  0
  -16.4610  -29.5960   23.4440 C   0  0  0  0  0  3  0  0  0  0  0  0
  -16.7220  -28.3310   22.8850 C   0  0  0  0  0  3  0  0  0  0  0  0
  -25.8200  -32.4470   23.8410 C   0  0  0  0  0  3  0  0  0  0  0  0
  -25.4950  -33.8440   24.1640 N   0  0  0  0  0  0  0  0  0  0  0  0
  -25.8170  -34.8970   23.4010 C   0  0  0  0  0  0  0  0  0  0  0  0
  -26.4890  -34.7950   22.3710 O   0  0  0  0  0  0  0  0  0  0  0  0
  -24.9010  -33.9940   24.9660 H   0  0  0  0  0  0  0  0  0  0  0  0
  -24.0650  -36.6640   23.0360 C   0  0  0  0  0  1  0  0  0  0  0  0
  -25.3130  -36.2830   23.8500 C   0  0  0  0  0  3  0  0  0  0  0  0
  -27.4360  -37.2000   24.6730 C   0  0  0  0  0  1  0  0  0  0  0  0
  -26.3310  -37.3470   23.7280 N   0  0  0  0  0  0  0  0  0  0  0  0
  -25.9140  -38.2630   23.8650 H   0  0  0  0  0  0  0  0  0  0  0  0
  -26.3250  -31.6870   25.1280 C   0  0  1  0  0  0  0  0  0  0  0  0
  -25.2180  -31.4440   26.1810 C   0  0  0  0  0  1  0  0  0  0  0  0
  -26.9270  -30.3130   24.7530 C   0  0  0  0  0  1  0  0  0  0  0  0
  -27.4590  -32.4940   25.8030 C   0  0  0  0  0  1  0  0  0  0  0  0
  1  6  1  0
  2  4  1  0
  3  7  1  0
  4  8  1  0
  5  3  2  0
  5  6  1  0
  6  2  2  0
  7 10  1  0
  7  4  2  0
  9  5  1  0
 11 19  1  0
 12 17  1  0
 13 14  1  0
 13 12  1  0
 15 14  1  0
 15 24  1  0
 15 16  1  0
 17 11  1  0
 17 16  1  0
 18 11  2  0
 19 10  1  0
 19 20  1  0
 21 22  2  0
 22 41  1  0
 23 22  1  0
 23 26  1  0
 24 25  1  0
 24 21  1  0
 25 23  2  0
 26 27  1  0
 27 28  2  0
 29 32  1  0
 29 28  1  0
 30 29  2  0
 31 30  1  0
 31 26  2  0
 32 33  1  0
 33 34  1  0
 34 35  2  0
 36 35  1  0
 36 40  1  0
 37 36  2  0
 38 33  2  0
 38 37  1  0
 39 38  1  0
 41 42  1  0
 42 45  1  0
 42 44  1  0
 43 41  2  0
 46 47  1  0
 46 21  1  0
 48 46  1  0
 49  1  1  0
 49 50  1  0
 50 53  1  0
 50 52  1  0
 51 50  1  0
 54 49  1  0
 54 55  1  0
 56 67  2  0
 57 55  1  0
 57 62  1  0
 58 66  1  0
 58 68  1  0
 59 65  1  0
 59 61  1  0
 60 66  1  0
 61 62  2  0
 61 60  1  0
 63 57  2  0
 64 63  1  0
 64 59  2  0
 65 58  1  0
 66 56  1  0
 68 70  2  0
 69 68  1  0
 71 69  1  0
 72 81  2  0
 72 77  1  0
 73 69  1  0
 73 77  1  0
 74 73  1  0
 75 76  1  0
 75 74  1  0
 76 72  1  0
 77 78  2  0
 78 79  1  0
 80 79  2  0
 81 80  1  0
 82 56  1  0
 82 83  1  0
 82 92  1  0
 83 86  1  0
 84 88  1  0
 84 83  1  0
 85 84  2  0
 88 87  1  0
 90 88  1  0
 90 91  1  0
 90 89  1  0
 92 95  1  1
 92 93  1  0
 94 92  1  0
M  ISO  4  11 100  19 100  54 101  55 101
M  END
>  <TORSDO>  (28) 
F 21

>  <SCORE>  (28) 
-13.327

>  <name>  (28) 
27

>  <ligand_id>  (28) 
27

>  <original_smiles>  (28) 
[H]c1c([H])c([H])c2c(c1[H])C([H])([H])C([H])([H])C([H])([H])C2([H])N([H])C(=O)C1([H])N(C(=O)C([H])(N([H])C(=O)C([H])(N([H])C([H])([H])[H])C([H])([H])[H])C(C([H])([H])[H])(C([H])([H])[H])C([H])([H])[H])C([H])([H])c2c([H])c(OC([H])([H])C([H])(C([H])([H])c3c([H])c(C([H])([H])[H])c(C([H])([H])N([H])C(=O)N4C([H])([H])C([H])([H])C([H])([H])C([H])(n5nc(-c6c([H])c([H])c(Oc7c([H])c([H])c(F)c([H])c7F)c([H])c6[H])c(C(=O)N([H])[H])c5N([H])[H])C4([H])[H])c([H])c3C([H])([H])[H])[N+]([H])([H])[H])c([H])c([H])c2C1([H])[H]

>  <smiles>  (28) 
[H]c1c([H])c([H])c2c(c1[H])C([H])([H])C([H])([H])C([H])([H])C2([H])N([H])C(=O)C1([H])N(C(=O)C([H])(N([H])C(=O)C([H])(N([H])C([H])([H])[H])C([H])([H])[H])C(C([H])([H])[H])(C([H])([H])[H])C([H])([H])[H])C([H])([H])c2c([H])c(OC([H])([H])C([H])(C([H])([H])c3c([H])c(C([H])([H])[H])c(C([H])([H])N([H])C(=O)N4C([H])([H])C([H])([H])C([H])([H])C([H])(n5nc(-c6c([H])c([H])c(Oc7c([H])c([H])c(F)c([H])c7F)c([H])c6[H])c(C(=O)N([H])[H])c5N([H])[H])C4([H])[H])c([H])c3C([H])([H])[H])[N+]([H])([H])[H])c([H])c([H])c2C1([H])[H]

$$$$
28:0:0
     RDKit          3D

 94103  0  0  1  0  0  0  0  0999 V2000
  -28.9130  -22.2490   20.0130 C   0  0  0  0  0  2  0  0  0  0  0  0
  -29.5410  -21.0650   21.9990 C   0  0  0  0  0  2  0  0  0  0  0  0
  -29.3520  -23.3070   21.0350 C   0  0  0  0  0  3  0  0  0  0  0  0
  -29.2660  -22.5330   22.3680 C   0  0  0  0  0  3  0  0  0  0  0  0
  -30.1840  -23.0740   23.4780 C   0  0  0  0  0  1  0  0  0  0  0  0
  -29.4060  -20.9510   20.5300 N   0  0  1  0  0  4  0  0  0  0  0  0
  -30.3460  -20.8590   20.1760 H   0  0  0  0  0  0  0  0  0  0  0  0
  -28.5080  -24.5990   20.9900 C   0  0  0  0  0  0  0  0  0  0  0  0
  -27.7750  -24.9170   21.9310 O   0  0  0  0  0  0  0  0  0  0  0  0
  -28.6330  -25.4910   19.7430 C   0  0  0  0  0  2  0  0  0  0  0  0
  -28.5400  -26.8780   20.0920 O   0  0  0  0  0  0  0  0  0  0  0  0
  -24.6210  -31.8850   23.2370 C   0  0  0  0  0  0  0  0  0  0  0  0
  -27.3230  -27.5280   20.0920 C   0  0  0  0  0  0  0  0  0  0  0  0
  -23.4310  -30.4960   21.5740 C   0  0  0  0  0  3  0  0  0  0  0  0
  -24.9010  -28.9910   20.1320 C   0  0  0  0  0  0  0  0  0  0  0  0
  -25.9500  -30.8870   21.3810 C   0  0  0  0  0  2  0  0  0  0  0  0
  -26.0500  -29.5230   20.7280 C   0  0  0  0  0  0  0  0  0  0  0  0
  -27.2600  -28.7990   20.7050 C   0  0  0  0  0  3  0  0  0  0  0  0
  -26.1520  -27.0010   19.4990 C   0  0  0  0  0  3  0  0  0  0  0  0
  -24.9460  -27.7250   19.5190 C   0  0  0  0  0  3  0  0  0  0  0  0
  -23.6460  -29.8340   20.1880 C   0  0  0  0  0  2  0  0  0  0  0  0
  -24.6860  -31.1020   22.1240 N   0  0  0  0  0  0  0  0  0  0  0  0
  -23.5370  -32.1380   23.7830 O   0  0  0  0  0  0  0  0  0  0  0  0
  -22.7890  -29.4560   22.5210 C   0  0  0  0  0  0  0  0  0  0  0  0
  -21.4700  -29.2510   22.3740 N   0  0  0  0  0  0  0  0  0  0  0  0
  -23.4750  -28.8340   23.3360 O   0  0  0  0  0  0  0  0  0  0  0  0
  -20.9820  -29.8030   21.6840 H   0  0  0  0  0  0  0  0  0  0  0  0
  -18.1190  -27.9760   22.7960 C   0  0  0  0  0  0  0  0  0  0  0  0
  -20.6610  -28.2960   23.1280 C   0  0  0  0  0  3  0  0  0  0  0  0
  -20.8140  -26.8680   22.5570 C   0  0  0  0  0  2  0  0  0  0  0  0
  -19.7450  -26.5160   21.5180 C   0  0  0  0  0  2  0  0  0  0  0  0
  -18.3450  -26.6300   22.1270 C   0  0  0  0  0  2  0  0  0  0  0  0
  -19.2080  -28.7640   23.2520 C   0  0  0  0  0  0  0  0  0  0  0  0
  -18.9450  -30.0230   23.8350 C   0  0  0  0  0  3  0  0  0  0  0  0
  -17.6250  -30.4960   23.9640 C   0  0  0  0  0  3  0  0  0  0  0  0
  -16.5500  -29.7040   23.5260 C   0  0  0  0  0  3  0  0  0  0  0  0
  -16.7980  -28.4460   22.9480 C   0  0  0  0  0  3  0  0  0  0  0  0
  -25.9000  -32.5200   23.8650 C   0  0  0  0  0  3  0  0  0  0  0  0
  -26.4110  -31.7480   25.1430 C   0  0  1  0  0  0  0  0  0  0  0  0
  -25.3090  -31.5000   26.2010 C   0  0  0  0  0  1  0  0  0  0  0  0
  -27.0000  -30.3750   24.7450 C   0  0  0  0  0  1  0  0  0  0  0  0
  -27.5520  -32.5440   25.8170 C   0  0  0  0  0  1  0  0  0  0  0  0
  -25.5830  -33.9150   24.1930 N   0  0  0  0  0  0  0  0  0  0  0  0
  -25.9170  -34.9690   23.4370 C   0  0  0  0  0  0  0  0  0  0  0  0
  -26.5940  -34.8690   22.4110 O   0  0  0  0  0  0  0  0  0  0  0  0
  -24.9720  -34.0630   24.9830 H   0  0  0  0  0  0  0  0  0  0  0  0
  -24.1750  -36.7490   23.0820 C   0  0  0  0  0  1  0  0  0  0  0  0
  -25.4210  -36.3560   23.8920 C   0  0  0  0  0  3  0  0  0  0  0  0
  -27.5500  -37.2570   24.7180 C   0  0  0  0  0  1  0  0  0  0  0  0
  -26.4470  -37.4160   23.7730 N   0  0  0  0  0  0  0  0  0  0  0  0
  -26.0360  -38.3340   23.9170 H   0  0  0  0  0  0  0  0  0  0  0  0
  -28.6530  -19.7670   20.0400 C   0  0  0  0  0  2  0  0  0  0  0  0
  -30.8960  -14.4700   20.0750 C   0  0  0  0  0  0  0  0  0  0  0  0
  -30.4880  -12.3330   18.9500 C   0  0  0  0  0  2  0  0  0  0  0  0
  -29.4970  -12.5750   17.7920 C   0  0  0  0  0  2  0  0  0  0  0  0
  -28.0410  -12.4810   18.2930 C   0  0  0  0  0  2  0  0  0  0  0  0
  -27.7800  -13.3000   19.5870 C   0  0  0  0  0  3  0  0  0  0  0  0
  -28.8890  -13.0630   20.6370 C   0  0  0  0  0  2  0  0  0  0  0  0
  -30.1840  -13.3180   19.9940 N   0  0  0  0  0  0  0  0  0  0  0  0
  -32.0680  -14.5740   19.7020 O   0  0  0  0  0  0  0  0  0  0  0  0
  -29.0480  -17.4990   18.9670 C   0  0  0  0  0  2  0  0  0  0  0  0
  -29.4490  -17.6810   21.3920 C   0  0  0  0  0  2  0  0  0  0  0  0
  -30.0170  -16.3160   18.8980 C   0  0  0  0  0  2  0  0  0  0  0  0
  -30.3830  -16.4510   21.3430 C   0  0  0  0  0  2  0  0  0  0  0  0
  -29.4910  -18.4670   20.0670 C   0  0  0  0  0  3  0  0  0  0  0  0
  -30.1420  -15.5850   20.1760 N   0  0  0  0  0  0  0  0  0  0  0  0
  -25.4280  -13.9120   20.4340 C   0  0  0  0  0  0  0  0  0  0  0  0
  -24.3720  -13.1400   20.8360 C   0  0  0  0  0  0  0  0  0  0  0  0
  -24.8200  -11.7860   20.7520 C   0  0  0  0  0  0  0  0  0  0  0  0
  -26.4530  -13.0280   20.1320 N   0  0  0  0  0  0  0  0  0  0  0  0
  -26.0920  -11.7430   20.3820 N   0  0  0  0  0  0  0  0  0  0  0  0
  -24.0930  -10.5250   20.9470 C   0  0  0  0  0  0  0  0  0  0  0  0
  -24.5210   -9.5630   21.8890 C   0  0  0  0  0  3  0  0  0  0  0  0
  -23.7940   -8.3670   22.0710 C   0  0  0  0  0  3  0  0  0  0  0  0
  -22.6240   -8.1240   21.3100 C   0  0  0  0  0  0  0  0  0  0  0  0
  -22.2170   -9.0740   20.3560 C   0  0  0  0  0  3  0  0  0  0  0  0
  -22.9440  -10.2610   20.1730 C   0  0  0  0  0  3  0  0  0  0  0  0
  -21.8690   -6.9800   21.4020 O   0  0  0  0  0  0  0  0  0  0  0  0
  -21.7620   -6.2800   22.5770 C   0  0  0  0  0  0  0  0  0  0  0  0
  -21.2530   -6.8730   23.7530 C   0  0  0  0  0  3  0  0  0  0  0  0
  -21.0930   -6.0980   24.9190 C   0  0  0  0  0  3  0  0  0  0  0  0
  -21.4330   -4.7320   24.9100 C   0  0  0  0  0  0  0  0  0  0  0  0
  -21.9350   -4.1400   23.7390 C   0  0  0  0  0  3  0  0  0  0  0  0
  -22.0960   -4.9100   22.5750 C   0  0  0  0  0  0  0  0  0  0  0  0
  -22.5600   -4.3290   21.4420 F   0  0  0  0  0  0  0  0  0  0  0  0
  -21.2730   -3.9860   26.0280 F   0  0  0  0  0  0  0  0  0  0  0  0
  -22.9930  -13.6200   21.1860 C   0  0  0  0  0  0  0  0  0  0  0  0
  -22.3030  -12.9110   22.0730 N   0  0  0  0  0  0  0  0  0  0  0  0
  -22.5370  -14.6600   20.7100 O   0  0  0  0  0  0  0  0  0  0  0  0
  -22.6850  -12.0700   22.4800 H   0  0  0  0  0  0  0  0  0  0  0  0
  -21.3800  -13.2140   22.3490 H   0  0  0  0  0  0  0  0  0  0  0  0
  -25.5980  -15.2850   20.2810 N   0  0  0  0  0  0  0  0  0  0  0  0
  -24.8460  -15.9450   20.4410 H   0  0  0  0  0  0  0  0  0  0  0  0
  -26.4510  -15.7220   19.9570 H   0  0  0  0  0  0  0  0  0  0  0  0
  1  6  1  0
  1  3  1  0
  2  4  1  0
  3  8  1  0
  3  4  1  0
  4  5  1  0
  6  2  1  0
  6  7  1  6
  8  9  2  0
 10 11  1  0
 10  8  1  0
 11 13  1  0
 12 23  2  0
 13 18  1  0
 14 22  1  0
 14 24  1  0
 15 21  1  0
 15 17  1  0
 16 22  1  0
 17 16  1  0
 18 17  2  0
 19 20  1  0
 19 13  2  0
 20 15  2  0
 21 14  1  0
 22 12  1  0
 24 26  2  0
 25 24  1  0
 27 25  1  0
 28 37  2  0
 28 33  1  0
 29 25  1  0
 29 33  1  0
 30 29  1  0
 31 32  1  0
 31 30  1  0
 32 28  1  0
 33 34  2  0
 34 35  1  0
 36 35  2  0
 37 36  1  0
 38 12  1  0
 38 43  1  0
 38 39  1  0
 39 42  1  1
 39 40  1  0
 41 39  1  0
 43 46  1  0
 44 48  1  0
 44 43  1  0
 45 44  2  0
 48 47  1  0
 50 48  1  0
 50 51  1  0
 50 49  1  0
 52  6  1  0
 53 66  1  0
 54 59  1  0
 55 56  1  0
 55 54  1  0
 57 56  1  0
 57 70  1  0
 57 58  1  0
 59 53  1  0
 59 58  1  0
 60 53  2  0
 61 65  1  0
 63 61  1  0
 63 66  1  0
 64 62  1  0
 65 52  1  0
 65 62  1  0
 66 64  1  0
 67 68  2  0
 68 87  1  0
 69 68  1  0
 69 72  1  0
 70 71  1  0
 70 67  1  0
 71 69  2  0
 72 73  1  0
 73 74  2  0
 75 78  1  0
 75 74  1  0
 76 75  2  0
 77 76  1  0
 77 72  2  0
 78 79  1  0
 79 80  1  0
 80 81  2  0
 82 81  1  0
 82 86  1  0
 83 82  2  0
 84 79  2  0
 84 83  1  0
 85 84  1  0
 87 88  1  0
 88 91  1  0
 88 90  1  0
 89 87  2  0
 92 67  1  0
 92 93  1  0
 94 92  1  0
M  ISO  4  10 101  11 101  53 100  66 100
M  END
>  <TORSDO>  (29) 
F 19

>  <SCORE>  (29) 
-14.144

>  <name>  (29) 
28

>  <ligand_id>  (29) 
28

>  <original_smiles>  (29) 
[H]c1c([H])c([H])c2c(c1[H])C([H])([H])C([H])([H])C([H])([H])C2([H])N([H])C(=O)C1([H])N(C(=O)C([H])(N([H])C(=O)C([H])(N([H])C([H])([H])[H])C([H])([H])[H])C(C([H])([H])[H])(C([H])([H])[H])C([H])([H])[H])C([H])([H])c2c([H])c(OC([H])([H])C(=O)C3([H])C([H])(C([H])([H])[H])C([H])([H])[N+]([H])(C([H])([H])C4([H])C([H])([H])C([H])([H])N(C(=O)N5C([H])([H])C([H])([H])C([H])([H])C([H])(n6nc(-c7c([H])c([H])c(Oc8c([H])c([H])c(F)c([H])c8F)c([H])c7[H])c(C(=O)N([H])[H])c6N([H])[H])C5([H])[H])C([H])([H])C4([H])[H])C3([H])[H])c([H])c([H])c2C1([H])[H]

>  <smiles>  (29) 
[H]c1c([H])c([H])c2c(c1[H])C([H])([H])C([H])([H])C([H])([H])C2([H])N([H])C(=O)C1([H])N(C(=O)C([H])(N([H])C(=O)C([H])(N([H])C([H])([H])[H])C([H])([H])[H])C(C([H])([H])[H])(C([H])([H])[H])C([H])([H])[H])C([H])([H])c2c([H])c(OC([H])([H])C(=O)C3([H])C([H])(C([H])([H])[H])C([H])([H])[N+]([H])(C([H])([H])C4([H])C([H])([H])C([H])([H])N(C(=O)N5C([H])([H])C([H])([H])C([H])([H])C([H])(n6nc(-c7c([H])c([H])c(Oc8c([H])c([H])c(F)c([H])c8F)c([H])c7[H])c(C(=O)N([H])[H])c6N([H])[H])C5([H])[H])C([H])([H])C4([H])[H])C3([H])[H])c([H])c([H])c2C1([H])[H]

$$$$
29:0:0
     RDKit          3D

 91 99  0  0  1  0  0  0  0  0999 V2000
  -28.9200  -22.7800   21.1480 C   0  0  0  0  0  3  0  0  0  0  0  0
  -29.2650  -21.3900   21.3630 C   0  0  0  0  0  3  0  0  0  0  0  0
  -29.0330  -22.3800   18.8270 C   0  0  0  0  0  3  0  0  0  0  0  0
  -28.7870  -23.3580   19.8530 C   0  0  0  0  0  0  0  0  0  0  0  0
  -29.5020  -20.3930   20.3400 C   0  0  0  0  0  0  0  0  0  0  0  0
  -29.3590  -20.9770   19.0360 C   0  0  0  0  0  0  0  0  0  0  0  0
  -29.4990  -20.1060   17.8010 C   0  0  0  0  0  1  0  0  0  0  0  0
  -28.6610  -18.3610   21.6640 C   0  0  0  0  0  1  0  0  0  0  0  0
  -31.0930  -18.8500   21.6340 C   0  0  0  0  0  1  0  0  0  0  0  0
  -29.8220  -18.8200   20.7620 C   0  0  2  0  0  0  0  0  0  0  0  0
  -30.1020  -17.5490   19.7250 C   0  0  0  0  0  2  0  0  0  0  0  0
  -30.8160  -14.9190   19.8730 C   0  0  0  0  0  0  0  0  0  0  0  0
  -30.5870  -12.6230   18.8660 C   0  0  0  0  0  2  0  0  0  0  0  0
  -29.5830  -12.7100   17.6900 C   0  0  0  0  0  2  0  0  0  0  0  0
  -28.1460  -12.4990   18.2010 C   0  0  0  0  0  2  0  0  0  0  0  0
  -27.8340  -13.3740   19.4430 C   0  0  0  0  0  3  0  0  0  0  0  0
  -28.9540  -13.2810   20.5060 C   0  0  0  0  0  2  0  0  0  0  0  0
  -30.2120  -13.6690   19.8550 N   0  0  0  0  0  0  0  0  0  0  0  0
  -31.9660  -15.0290   19.4380 O   0  0  0  0  0  0  0  0  0  0  0  0
  -30.0430  -16.0500   20.1780 N   0  0  0  0  0  0  0  0  0  0  0  0
  -29.1530  -15.8040   20.5870 H   0  0  0  0  0  0  0  0  0  0  0  0
  -25.4970  -13.9570   20.3260 C   0  0  0  0  0  0  0  0  0  0  0  0
  -24.4480  -13.1770   20.7370 C   0  0  0  0  0  0  0  0  0  0  0  0
  -24.9010  -11.8250   20.6520 C   0  0  0  0  0  0  0  0  0  0  0  0
  -26.5190  -13.0770   20.0070 N   0  0  0  0  0  0  0  0  0  0  0  0
  -26.1720  -11.7900   20.2660 N   0  0  0  0  0  0  0  0  0  0  0  0
  -24.1800  -10.5610   20.8520 C   0  0  0  0  0  0  0  0  0  0  0  0
  -24.6340   -9.5880   21.7690 C   0  0  0  0  0  3  0  0  0  0  0  0
  -23.9120   -8.3900   21.9550 C   0  0  0  0  0  3  0  0  0  0  0  0
  -22.7190   -8.1580   21.2270 C   0  0  0  0  0  0  0  0  0  0  0  0
  -22.2860   -9.1190   20.2960 C   0  0  0  0  0  3  0  0  0  0  0  0
  -23.0100  -10.3100   20.1090 C   0  0  0  0  0  3  0  0  0  0  0  0
  -21.9660   -7.0160   21.3270 O   0  0  0  0  0  0  0  0  0  0  0  0
  -21.9050   -6.2900   22.4910 C   0  0  0  0  0  0  0  0  0  0  0  0
  -21.4770   -6.8690   23.7070 C   0  0  0  0  0  3  0  0  0  0  0  0
  -21.3640   -6.0720   24.8640 C   0  0  0  0  0  3  0  0  0  0  0  0
  -21.6690   -4.7000   24.8060 C   0  0  0  0  0  0  0  0  0  0  0  0
  -22.0910   -4.1220   23.5970 C   0  0  0  0  0  3  0  0  0  0  0  0
  -22.2060   -4.9140   22.4420 C   0  0  0  0  0  0  0  0  0  0  0  0
  -22.5930   -4.3480   21.2740 F   0  0  0  0  0  0  0  0  0  0  0  0
  -21.5540   -3.9320   25.9170 F   0  0  0  0  0  0  0  0  0  0  0  0
  -23.0720  -13.6560   21.0970 C   0  0  0  0  0  0  0  0  0  0  0  0
  -22.3910  -12.9490   21.9950 N   0  0  0  0  0  0  0  0  0  0  0  0
  -22.6040  -14.6860   20.6160 O   0  0  0  0  0  0  0  0  0  0  0  0
  -22.7770  -12.1100   22.4020 H   0  0  0  0  0  0  0  0  0  0  0  0
  -21.4700  -13.2540   22.2800 H   0  0  0  0  0  0  0  0  0  0  0  0
  -25.6580  -15.3300   20.1710 N   0  0  0  0  0  0  0  0  0  0  0  0
  -24.8980  -15.9870   20.3090 H   0  0  0  0  0  0  0  0  0  0  0  0
  -26.4800  -15.7660   19.7730 H   0  0  0  0  0  0  0  0  0  0  0  0
  -28.1820  -24.8300   19.4660 C   0  0  0  0  0  2  0  0  0  0  0  0
  -28.2580  -26.1870   20.2030 O   0  0  0  0  0  0  0  0  0  0  0  0
  -24.6440  -31.8670   23.1930 C   0  0  0  0  0  0  0  0  0  0  0  0
  -27.2020  -27.1690   20.1190 C   0  0  0  0  0  0  0  0  0  0  0  0
  -23.4300  -30.4660   21.5750 C   0  0  0  0  0  3  0  0  0  0  0  0
  -24.8660  -28.9030   20.1370 C   0  0  0  0  0  0  0  0  0  0  0  0
  -25.9820  -30.7330   21.3880 C   0  0  0  0  0  2  0  0  0  0  0  0
  -26.0510  -29.3440   20.7370 C   0  0  0  0  0  0  0  0  0  0  0  0
  -27.2140  -28.4870   20.7300 C   0  0  0  0  0  3  0  0  0  0  0  0
  -25.9890  -26.8480   19.4610 C   0  0  0  0  0  3  0  0  0  0  0  0
  -24.8450  -27.6660   19.4890 C   0  0  0  0  0  3  0  0  0  0  0  0
  -23.6370  -29.7930   20.1950 C   0  0  0  0  0  2  0  0  0  0  0  0
  -24.7050  -31.0410   22.1050 N   0  0  0  0  0  0  0  0  0  0  0  0
  -23.5620  -32.1530   23.7300 O   0  0  0  0  0  0  0  0  0  0  0  0
  -22.7640  -29.4560   22.5430 C   0  0  0  0  0  0  0  0  0  0  0  0
  -21.4370  -29.2750   22.4240 N   0  0  0  0  0  0  0  0  0  0  0  0
  -23.4460  -28.8390   23.3660 O   0  0  0  0  0  0  0  0  0  0  0  0
  -20.9420  -29.8220   21.7350 H   0  0  0  0  0  0  0  0  0  0  0  0
  -18.0750  -28.0420   22.9510 C   0  0  0  0  0  0  0  0  0  0  0  0
  -20.6310  -28.3380   23.2100 C   0  0  0  0  0  3  0  0  0  0  0  0
  -20.7460  -26.8980   22.6530 C   0  0  0  0  0  2  0  0  0  0  0  0
  -19.6480  -26.5570   21.6410 C   0  0  0  0  0  2  0  0  0  0  0  0
  -18.2670  -26.6890   22.2850 C   0  0  0  0  0  2  0  0  0  0  0  0
  -19.1850  -28.8240   23.3710 C   0  0  0  0  0  0  0  0  0  0  0  0
  -18.9520  -30.0880   23.9520 C   0  0  0  0  0  3  0  0  0  0  0  0
  -17.6400  -30.5710   24.1160 C   0  0  0  0  0  3  0  0  0  0  0  0
  -16.5470  -29.7900   23.7090 C   0  0  0  0  0  3  0  0  0  0  0  0
  -16.7650  -28.5250   23.1340 C   0  0  0  0  0  3  0  0  0  0  0  0
  -25.9260  -32.5100   23.8000 C   0  0  0  0  0  3  0  0  0  0  0  0
  -26.4580  -31.7450   25.0750 C   0  0  1  0  0  0  0  0  0  0  0  0
  -25.3750  -31.5070   26.1530 C   0  0  0  0  0  1  0  0  0  0  0  0
  -27.0460  -30.3680   24.6880 C   0  0  0  0  0  1  0  0  0  0  0  0
  -27.6120  -32.5470   25.7230 C   0  0  0  0  0  1  0  0  0  0  0  0
  -25.6090  -33.9070   24.1380 N   0  0  0  0  0  0  0  0  0  0  0  0
  -25.9310  -34.9680   23.3860 C   0  0  0  0  0  0  0  0  0  0  0  0
  -26.5890  -34.8740   22.3470 O   0  0  0  0  0  0  0  0  0  0  0  0
  -25.0210  -34.0530   24.9450 H   0  0  0  0  0  0  0  0  0  0  0  0
  -24.1930  -36.7630   23.0610 C   0  0  0  0  0  1  0  0  0  0  0  0
  -25.4420  -36.3530   23.8580 C   0  0  0  0  0  3  0  0  0  0  0  0
  -27.5800  -37.2400   24.6800 C   0  0  0  0  0  1  0  0  0  0  0  0
  -26.4720  -37.4090   23.7460 N   0  0  0  0  0  0  0  0  0  0  0  0
  -26.0640  -38.3280   23.9010 H   0  0  0  0  0  0  0  0  0  0  0  0
  1  2  1  0
  3  6  2  0
  3  4  1  0
  4  1  2  0
  5 10  1  0
  5  2  2  0
  6  5  1  0
  7  6  1  0
 10  9  1  1
 10  8  1  0
 11 20  1  0
 11 10  1  0
 12 20  1  0
 13 18  1  0
 14 15  1  0
 14 13  1  0
 16 15  1  0
 16 25  1  0
 16 17  1  0
 18 12  1  0
 18 17  1  0
 19 12  2  0
 20 21  1  0
 22 23  2  0
 23 42  1  0
 24 23  1  0
 24 27  1  0
 25 26  1  0
 25 22  1  0
 26 24  2  0
 27 28  1  0
 28 29  2  0
 30 33  1  0
 30 29  1  0
 31 30  2  0
 32 31  1  0
 32 27  2  0
 33 34  1  0
 34 35  1  0
 35 36  2  0
 37 36  1  0
 37 41  1  0
 38 37  2  0
 39 34  2  0
 39 38  1  0
 40 39  1  0
 42 43  1  0
 43 46  1  0
 43 45  1  0
 44 42  2  0
 47 48  1  0
 47 22  1  0
 49 47  1  0
 50  4  1  0
 50 51  1  0
 52 63  2  0
 53 51  1  0
 53 58  1  0
 54 62  1  0
 54 64  1  0
 55 61  1  0
 55 57  1  0
 56 62  1  0
 57 56  1  0
 58 57  2  0
 59 60  1  0
 59 53  2  0
 60 55  2  0
 61 54  1  0
 62 52  1  0
 64 66  2  0
 65 64  1  0
 67 65  1  0
 68 77  2  0
 68 73  1  0
 69 65  1  0
 69 73  1  0
 70 69  1  0
 71 72  1  0
 71 70  1  0
 72 68  1  0
 73 74  2  0
 74 75  1  0
 76 75  2  0
 77 76  1  0
 78 52  1  0
 78 83  1  0
 78 79  1  0
 79 82  1  1
 79 80  1  0
 81 79  1  0
 83 86  1  0
 84 88  1  0
 84 83  1  0
 85 84  2  0
 88 87  1  0
 90 88  1  0
 90 91  1  0
 90 89  1  0
M  ISO  4  12 100  20 100  50 101  51 101
M  END
>  <TORSDO>  (30) 
F 19

>  <SCORE>  (30) 
-12.491

>  <name>  (30) 
29

>  <ligand_id>  (30) 
29

>  <original_smiles>  (30) 
[H]c1c([H])c([H])c2c(c1[H])C([H])([H])C([H])([H])C([H])([H])C2([H])N([H])C(=O)C1([H])N(C(=O)C([H])(N([H])C(=O)C([H])(N([H])C([H])([H])[H])C([H])([H])[H])C(C([H])([H])[H])(C([H])([H])[H])C([H])([H])[H])C([H])([H])c2c([H])c(OC([H])([H])c3c([H])c([H])c(C(C([H])([H])[H])(C([H])([H])[H])C([H])([H])N([H])C(=O)N4C([H])([H])C([H])([H])C([H])([H])C([H])(n5nc(-c6c([H])c([H])c(Oc7c([H])c([H])c(F)c([H])c7F)c([H])c6[H])c(C(=O)N([H])[H])c5N([H])[H])C4([H])[H])c(C([H])([H])[H])c3[H])c([H])c([H])c2C1([H])[H]

>  <smiles>  (30) 
[H]c1c([H])c([H])c2c(c1[H])C([H])([H])C([H])([H])C([H])([H])C2([H])N([H])C(=O)C1([H])N(C(=O)C([H])(N([H])C(=O)C([H])(N([H])C([H])([H])[H])C([H])([H])[H])C(C([H])([H])[H])(C([H])([H])[H])C([H])([H])[H])C([H])([H])c2c([H])c(OC([H])([H])c3c([H])c([H])c(C(C([H])([H])[H])(C([H])([H])[H])C([H])([H])N([H])C(=O)N4C([H])([H])C([H])([H])C([H])([H])C([H])(n5nc(-c6c([H])c([H])c(Oc7c([H])c([H])c(F)c([H])c7F)c([H])c6[H])c(C(=O)N([H])[H])c5N([H])[H])C4([H])[H])c(C([H])([H])[H])c3[H])c([H])c([H])c2C1([H])[H]

$$$$
30:0:0
     RDKit          3D

 95103  0  0  1  0  0  0  0  0999 V2000
  -29.6210  -21.9040   22.1270 C   0  0  0  0  0  3  0  0  0  0  0  0
  -30.3210  -19.2160   22.0060 C   0  0  0  0  0  3  0  0  0  0  0  0
  -29.2620  -21.2460   20.9050 C   0  0  0  0  0  0  0  0  0  0  0  0
  -30.3040  -21.3260   23.2210 C   0  0  0  0  0  0  0  0  0  0  0  0
  -29.6640  -19.6910   20.8400 C   0  0  0  0  0  0  0  0  0  0  0  0
  -30.6370  -19.9700   23.1470 C   0  0  0  0  0  0  0  0  0  0  0  0
  -31.3080  -19.3710   24.1590 F   0  0  0  0  0  0  0  0  0  0  0  0
  -30.7810  -22.1600   24.4250 C   0  0  1  0  0  0  0  0  0  0  0  0
  -30.1060  -23.3030   24.5460 F   0  0  0  0  0  0  0  0  0  0  0  0
  -30.6650  -21.5050   25.5830 F   0  0  0  0  0  0  0  0  0  0  0  0
  -32.0710  -22.4590   24.2560 F   0  0  0  0  0  0  0  0  0  0  0  0
  -28.5850  -22.5330   19.9510 C   0  0  1  0  0  0  0  0  0  0  0  0
  -29.5090  -22.7760   19.0240 F   0  0  0  0  0  0  0  0  0  0  0  0
  -27.5920  -21.9080   19.3250 F   0  0  0  0  0  0  0  0  0  0  0  0
  -27.8580  -24.1810   20.3510 C   0  0  0  0  0  2  0  0  0  0  0  0
  -28.1540  -25.8200   20.2700 O   0  0  0  0  0  0  0  0  0  0  0  0
  -24.6300  -31.8630   23.1920 C   0  0  0  0  0  0  0  0  0  0  0  0
  -27.1480  -26.9330   20.2070 C   0  0  0  0  0  0  0  0  0  0  0  0
  -23.4240  -30.4710   21.5550 C   0  0  0  0  0  3  0  0  0  0  0  0
  -24.8600  -28.8420   20.1460 C   0  0  0  0  0  0  0  0  0  0  0  0
  -25.9950  -30.6620   21.4020 C   0  0  0  0  0  2  0  0  0  0  0  0
  -26.0540  -29.2400   20.7640 C   0  0  0  0  0  0  0  0  0  0  0  0
  -27.1870  -28.3060   20.7700 C   0  0  0  0  0  3  0  0  0  0  0  0
  -25.9270  -26.6970   19.5270 C   0  0  0  0  0  3  0  0  0  0  0  0
  -24.8250  -27.5930   19.5070 C   0  0  0  0  0  3  0  0  0  0  0  0
  -23.6500  -29.7750   20.1840 C   0  0  0  0  0  2  0  0  0  0  0  0
  -24.7060  -31.0280   22.1020 N   0  0  0  0  0  0  0  0  0  0  0  0
  -23.5460  -32.1570   23.7170 O   0  0  0  0  0  0  0  0  0  0  0  0
  -22.7270  -29.4890   22.5310 C   0  0  0  0  0  0  0  0  0  0  0  0
  -21.4030  -29.2980   22.3870 N   0  0  0  0  0  0  0  0  0  0  0  0
  -23.3900  -28.8890   23.3810 O   0  0  0  0  0  0  0  0  0  0  0  0
  -20.9220  -29.8370   21.6800 H   0  0  0  0  0  0  0  0  0  0  0  0
  -18.0430  -27.9810   22.8070 C   0  0  0  0  0  0  0  0  0  0  0  0
  -20.5790  -28.3630   23.1640 C   0  0  0  0  0  3  0  0  0  0  0  0
  -20.7550  -26.9100   22.6580 C   0  0  0  0  0  2  0  0  0  0  0  0
  -19.7100  -26.5040   21.6120 C   0  0  0  0  0  2  0  0  0  0  0  0
  -18.2980  -26.6160   22.1900 C   0  0  0  0  0  2  0  0  0  0  0  0
  -19.1110  -28.8060   23.2490 C   0  0  0  0  0  0  0  0  0  0  0  0
  -18.8110  -30.0760   23.7870 C   0  0  0  0  0  3  0  0  0  0  0  0
  -17.4780  -30.5180   23.8940 C   0  0  0  0  0  3  0  0  0  0  0  0
  -16.4250  -29.6920   23.4640 C   0  0  0  0  0  3  0  0  0  0  0  0
  -16.7110  -28.4270   22.9180 C   0  0  0  0  0  3  0  0  0  0  0  0
  -25.9050  -32.5020   23.8220 C   0  0  0  0  0  3  0  0  0  0  0  0
  -26.4140  -31.7340   25.1050 C   0  0  1  0  0  0  0  0  0  0  0  0
  -25.3220  -31.4990   26.1760 C   0  0  0  0  0  1  0  0  0  0  0  0
  -26.9870  -30.3510   24.7240 C   0  0  0  0  0  1  0  0  0  0  0  0
  -27.5710  -32.5240   25.7660 C   0  0  0  0  0  1  0  0  0  0  0  0
  -25.5890  -33.9020   24.1640 N   0  0  0  0  0  0  0  0  0  0  0  0
  -25.9160  -34.9710   23.4230 C   0  0  0  0  0  0  0  0  0  0  0  0
  -26.5830  -34.8790   22.3880 O   0  0  0  0  0  0  0  0  0  0  0  0
  -24.9890  -34.0410   24.9630 H   0  0  0  0  0  0  0  0  0  0  0  0
  -24.1980  -36.7920   23.1170 C   0  0  0  0  0  1  0  0  0  0  0  0
  -25.4410  -36.3560   23.9080 C   0  0  0  0  0  3  0  0  0  0  0  0
  -27.5880  -37.2320   24.7280 C   0  0  0  0  0  1  0  0  0  0  0  0
  -26.4750  -37.4080   23.7980 N   0  0  0  0  0  0  0  0  0  0  0  0
  -26.0720  -38.3270   23.9520 H   0  0  0  0  0  0  0  0  0  0  0  0
  -29.6900  -18.2900   19.8080 C   0  0  0  0  0  2  0  0  0  0  0  0
  -30.4480  -15.3740   19.8660 C   0  0  0  0  0  0  0  0  0  0  0  0
  -30.3720  -12.9210   18.9760 C   0  0  0  0  0  2  0  0  0  0  0  0
  -29.3940  -12.7450   17.7850 C   0  0  0  0  0  2  0  0  0  0  0  0
  -27.9660  -12.4660   18.2920 C   0  0  0  0  0  2  0  0  0  0  0  0
  -27.5850  -13.4010   19.4710 C   0  0  0  0  0  3  0  0  0  0  0  0
  -28.6940  -13.5350   20.5390 C   0  0  0  0  0  2  0  0  0  0  0  0
  -29.8860  -14.0540   19.8520 N   0  0  0  0  0  0  0  0  0  0  0  0
  -31.6190  -15.3840   19.4650 O   0  0  0  0  0  0  0  0  0  0  0  0
  -29.6970  -16.6290   20.1440 N   0  0  0  0  0  0  0  0  0  0  0  0
  -28.7930  -16.3690   20.5120 H   0  0  0  0  0  0  0  0  0  0  0  0
  -25.2800  -13.9440   20.4160 C   0  0  0  0  0  0  0  0  0  0  0  0
  -24.2400  -13.1620   20.8410 C   0  0  0  0  0  0  0  0  0  0  0  0
  -24.6940  -11.8090   20.7240 C   0  0  0  0  0  0  0  0  0  0  0  0
  -26.2940  -13.0740   20.0580 N   0  0  0  0  0  0  0  0  0  0  0  0
  -25.9590  -11.7790   20.3130 N   0  0  0  0  0  0  0  0  0  0  0  0
  -23.9680  -10.5500   20.9230 C   0  0  0  0  0  0  0  0  0  0  0  0
  -24.4300   -9.5670   21.8300 C   0  0  0  0  0  3  0  0  0  0  0  0
  -23.7040   -8.3720   22.0260 C   0  0  0  0  0  3  0  0  0  0  0  0
  -22.5020   -8.1480   21.3160 C   0  0  0  0  0  0  0  0  0  0  0  0
  -22.0520   -9.1180   20.4000 C   0  0  0  0  0  3  0  0  0  0  0  0
  -22.7780  -10.3030   20.2020 C   0  0  0  0  0  3  0  0  0  0  0  0
  -21.7410   -7.0040   21.4240 O   0  0  0  0  0  0  0  0  0  0  0  0
  -21.7100   -6.2660   22.5790 C   0  0  0  0  0  0  0  0  0  0  0  0
  -21.2930   -6.8260   23.8070 C   0  0  0  0  0  3  0  0  0  0  0  0
  -21.2050   -6.0150   24.9550 C   0  0  0  0  0  3  0  0  0  0  0  0
  -21.5210   -4.6460   24.8770 C   0  0  0  0  0  0  0  0  0  0  0  0
  -21.9290   -4.0850   23.6560 C   0  0  0  0  0  3  0  0  0  0  0  0
  -22.0200   -4.8920   22.5080 C   0  0  0  0  0  0  0  0  0  0  0  0
  -22.3950   -4.3440   21.3280 F   0  0  0  0  0  0  0  0  0  0  0  0
  -21.4250   -3.8680   25.9810 F   0  0  0  0  0  0  0  0  0  0  0  0
  -22.8710  -13.6390   21.2260 C   0  0  0  0  0  0  0  0  0  0  0  0
  -22.2020  -12.9260   22.1250 N   0  0  0  0  0  0  0  0  0  0  0  0
  -22.4060  -14.6830   20.7670 O   0  0  0  0  0  0  0  0  0  0  0  0
  -22.5910  -12.0900   22.5320 H   0  0  0  0  0  0  0  0  0  0  0  0
  -21.2830  -13.2280   22.4200 H   0  0  0  0  0  0  0  0  0  0  0  0
  -25.4380  -15.3190   20.2690 N   0  0  0  0  0  0  0  0  0  0  0  0
  -24.6760  -15.9650   20.4580 H   0  0  0  0  0  0  0  0  0  0  0  0
  -26.2190  -15.7620   19.8020 H   0  0  0  0  0  0  0  0  0  0  0  0
  1  4  1  0
  2  6  1  0
  3  1  2  0
  4  8  1  0
  5  3  1  0
  5  2  2  0
  6  4  2  0
  6  7  1  0
  8  9  1  1
  8 10  1  0
 11  8  1  0
 12 15  1  0
 12  3  1  0
 12 13  1  6
 14 12  1  0
 16 15  1  0
 17 28  2  0
 18 16  1  0
 18 23  1  0
 19 27  1  0
 19 29  1  0
 20 26  1  0
 20 22  1  0
 21 27  1  0
 22 23  2  0
 22 21  1  0
 24 18  2  0
 25 24  1  0
 25 20  2  0
 26 19  1  0
 27 17  1  0
 29 31  2  0
 30 29  1  0
 32 30  1  0
 33 42  2  0
 33 38  1  0
 34 30  1  0
 34 38  1  0
 35 34  1  0
 36 37  1  0
 36 35  1  0
 37 33  1  0
 38 39  2  0
 39 40  1  0
 41 40  2  0
 42 41  1  0
 43 17  1  0
 43 48  1  0
 43 44  1  0
 44 47  1  1
 44 45  1  0
 46 44  1  0
 48 51  1  0
 49 53  1  0
 49 48  1  0
 50 49  2  0
 53 52  1  0
 55 53  1  0
 55 56  1  0
 55 54  1  0
 57 66  1  0
 57  5  1  0
 58 66  1  0
 59 64  1  0
 60 61  1  0
 60 59  1  0
 62 61  1  0
 62 71  1  0
 62 63  1  0
 64 58  1  0
 64 63  1  0
 65 58  2  0
 66 67  1  0
 68 69  2  0
 69 88  1  0
 70 69  1  0
 70 73  1  0
 71 72  1  0
 71 68  1  0
 72 70  2  0
 73 74  1  0
 74 75  2  0
 76 79  1  0
 76 75  1  0
 77 76  2  0
 78 77  1  0
 78 73  2  0
 79 80  1  0
 80 81  1  0
 81 82  2  0
 83 82  1  0
 83 87  1  0
 84 83  2  0
 85 80  2  0
 85 84  1  0
 86 85  1  0
 88 89  1  0
 89 92  1  0
 89 91  1  0
 90 88  2  0
 93 68  1  0
 93 94  1  0
 95 93  1  0
M  ISO  4  15 101  16 101  58 100  66 100
M  END
>  <TORSDO>  (31) 
F 20

>  <SCORE>  (31) 
-15.389

>  <name>  (31) 
30

>  <ligand_id>  (31) 
30

>  <original_smiles>  (31) 
[H]c1c([H])c([H])c2c(c1[H])C([H])([H])C([H])([H])C([H])([H])C2([H])N([H])C(=O)C1([H])N(C(=O)C([H])(N([H])C(=O)C([H])(N([H])C([H])([H])[H])C([H])([H])[H])C(C([H])([H])[H])(C([H])([H])[H])C([H])([H])[H])C([H])([H])c2c([H])c(OC([H])([H])C(F)(F)c3c([H])c(C(F)(F)F)c(F)c([H])c3C([H])([H])N([H])C(=O)N3C([H])([H])C([H])([H])C([H])([H])C([H])(n4nc(-c5c([H])c([H])c(Oc6c([H])c([H])c(F)c([H])c6F)c([H])c5[H])c(C(=O)N([H])[H])c4N([H])[H])C3([H])[H])c([H])c([H])c2C1([H])[H]

>  <smiles>  (31) 
[H]c1c([H])c([H])c2c(c1[H])C([H])([H])C([H])([H])C([H])([H])C2([H])N([H])C(=O)C1([H])N(C(=O)C([H])(N([H])C(=O)C([H])(N([H])C([H])([H])[H])C([H])([H])[H])C(C([H])([H])[H])(C([H])([H])[H])C([H])([H])[H])C([H])([H])c2c([H])c(OC([H])([H])C(F)(F)c3c([H])c(C(F)(F)F)c(F)c([H])c3C([H])([H])N([H])C(=O)N3C([H])([H])C([H])([H])C([H])([H])C([H])(n4nc(-c5c([H])c([H])c(Oc6c([H])c([H])c(F)c([H])c6F)c([H])c5[H])c(C(=O)N([H])[H])c4N([H])[H])C3([H])[H])c([H])c([H])c2C1([H])[H]

$$$$
31:0:0
     RDKit          3D

 96106  0  0  1  0  0  0  0  0999 V2000
  -26.4730  -20.4410   19.0050 C   0  0  0  0  0  2  0  0  0  0  0  0
  -27.8810  -21.0790   21.0400 C   0  0  0  0  0  2  0  0  0  0  0  0
  -26.7750  -21.8550   18.3920 C   0  0  0  0  0  2  0  0  0  0  0  0
  -27.3860  -22.5000   20.7080 C   0  0  0  0  0  2  0  0  0  0  0  0
  -27.4530  -19.9150   20.0740 C   0  0  0  0  0  3  0  0  0  0  0  0
  -27.5080  -22.8400   19.2740 N   0  0  2  0  0  4  0  0  0  0  0  0
  -28.4770  -22.7130   19.0190 H   0  0  0  0  0  0  0  0  0  0  0  0
  -28.6980  -19.1090   19.5450 C   0  0  0  0  0  2  0  0  0  0  0  0
  -28.6730  -17.5600   19.3960 C   0  0  0  0  0  0  0  0  0  0  0  0
  -28.0250  -17.0920   18.4550 O   0  0  0  0  0  0  0  0  0  0  0  0
  -31.1670  -14.6600   19.6170 C   0  0  0  0  0  0  0  0  0  0  0  0
  -30.6850  -12.4180   18.7050 C   0  0  0  0  0  2  0  0  0  0  0  0
  -29.6850  -12.5350   17.5440 C   0  0  0  0  0  2  0  0  0  0  0  0
  -28.2480  -12.4440   18.0880 C   0  0  0  0  0  2  0  0  0  0  0  0
  -28.0130  -13.3750   19.3090 C   0  0  0  0  0  3  0  0  0  0  0  0
  -29.1440  -13.2310   20.3500 C   0  0  0  0  0  2  0  0  0  0  0  0
  -30.3810  -13.5350   19.6360 N   0  0  0  0  0  0  0  0  0  0  0  0
  -32.3130  -14.5290   19.1890 O   0  0  0  0  0  0  0  0  0  0  0  0
  -31.0090  -16.3760   22.4960 C   0  0  0  0  0  2  0  0  0  0  0  0
  -30.8820  -18.3780   21.8840 C   0  0  0  0  0  2  0  0  0  0  0  0
  -31.7990  -16.9620   19.9960 C   0  0  0  0  0  2  0  0  0  0  0  0
  -29.4670  -16.5840   20.3770 C   0  0  0  0  0  3  0  0  0  0  0  0
  -31.8410  -17.2910   21.5100 C   0  0  0  0  0  3  0  0  0  0  0  0
  -29.8710  -17.2030   21.7730 C   0  0  0  0  0  3  0  0  0  0  0  0
  -30.7140  -15.9680   19.8180 N   0  0  0  0  0  0  0  0  0  0  0  0
  -25.7270  -14.0800   20.2190 C   0  0  0  0  0  0  0  0  0  0  0  0
  -24.6540  -13.3520   20.6620 C   0  0  0  0  0  0  0  0  0  0  0  0
  -25.0430  -11.9830   20.5710 C   0  0  0  0  0  0  0  0  0  0  0  0
  -26.7000  -13.1510   19.8910 N   0  0  0  0  0  0  0  0  0  0  0  0
  -26.3020  -11.8850   20.1700 N   0  0  0  0  0  0  0  0  0  0  0  0
  -24.2690  -10.7540   20.7940 C   0  0  0  0  0  0  0  0  0  0  0  0
  -24.6710   -9.7830   21.7390 C   0  0  0  0  0  3  0  0  0  0  0  0
  -23.8950   -8.6230   21.9460 C   0  0  0  0  0  3  0  0  0  0  0  0
  -22.7030   -8.4250   21.2110 C   0  0  0  0  0  0  0  0  0  0  0  0
  -22.3210   -9.3810   20.2530 C   0  0  0  0  0  3  0  0  0  0  0  0
  -23.0970  -10.5330   20.0440 C   0  0  0  0  0  3  0  0  0  0  0  0
  -21.9020   -7.3150   21.3290 O   0  0  0  0  0  0  0  0  0  0  0  0
  -21.7910   -6.6330   22.5140 C   0  0  0  0  0  0  0  0  0  0  0  0
  -21.3630   -7.2640   23.7030 C   0  0  0  0  0  3  0  0  0  0  0  0
  -21.1980   -6.5080   24.8810 C   0  0  0  0  0  3  0  0  0  0  0  0
  -21.4500   -5.1240   24.8710 C   0  0  0  0  0  0  0  0  0  0  0  0
  -21.8730   -4.4920   23.6880 C   0  0  0  0  0  3  0  0  0  0  0  0
  -22.0410   -5.2450   22.5120 C   0  0  0  0  0  0  0  0  0  0  0  0
  -22.4270   -4.6300   21.3690 F   0  0  0  0  0  0  0  0  0  0  0  0
  -21.2840   -4.3960   25.9990 F   0  0  0  0  0  0  0  0  0  0  0  0
  -23.3100  -13.8950   21.0370 C   0  0  0  0  0  0  0  0  0  0  0  0
  -22.6210  -13.2370   21.9620 N   0  0  0  0  0  0  0  0  0  0  0  0
  -22.8850  -14.9420   20.5500 O   0  0  0  0  0  0  0  0  0  0  0  0
  -22.9870  -12.3890   22.3680 H   0  0  0  0  0  0  0  0  0  0  0  0
  -21.7200  -13.5790   22.2560 H   0  0  0  0  0  0  0  0  0  0  0  0
  -25.9330  -15.4430   20.0430 N   0  0  0  0  0  0  0  0  0  0  0  0
  -25.1510  -16.0840   20.1480 H   0  0  0  0  0  0  0  0  0  0  0  0
  -26.6930  -15.8360   19.4890 H   0  0  0  0  0  0  0  0  0  0  0  0
  -27.1710  -24.2940   19.0400 C   0  0  0  0  0  2  0  0  0  0  0  0
  -28.3500  -25.2870   18.7090 C   0  0  0  0  0  2  0  0  0  0  0  0
  -28.3660  -26.6770   19.2380 O   0  0  0  0  0  0  0  0  0  0  0  0
  -24.7080  -31.5990   23.0170 C   0  0  0  0  0  0  0  0  0  0  0  0
  -27.2330  -27.4940   19.3150 C   0  0  0  0  0  0  0  0  0  0  0  0
  -23.4540  -30.3290   21.3110 C   0  0  0  0  0  3  0  0  0  0  0  0
  -24.8520  -29.0170   19.6400 C   0  0  0  0  0  0  0  0  0  0  0  0
  -25.9680  -30.7430   21.0390 C   0  0  0  0  0  2  0  0  0  0  0  0
  -26.0340  -29.4440   20.2530 C   0  0  0  0  0  0  0  0  0  0  0  0
  -27.2260  -28.6830   20.1020 C   0  0  0  0  0  3  0  0  0  0  0  0
  -26.0430  -27.1820   18.6230 C   0  0  0  0  0  3  0  0  0  0  0  0
  -24.8550  -27.8950   18.8080 C   0  0  0  0  0  3  0  0  0  0  0  0
  -23.6020  -29.8370   19.8550 C   0  0  0  0  0  2  0  0  0  0  0  0
  -24.7330  -30.9020   21.8480 N   0  0  0  0  0  0  0  0  0  0  0  0
  -23.6440  -31.7940   23.6260 O   0  0  0  0  0  0  0  0  0  0  0  0
  -22.8700  -29.1900   22.1790 C   0  0  0  0  0  0  0  0  0  0  0  0
  -21.5470  -28.9750   22.0860 N   0  0  0  0  0  0  0  0  0  0  0  0
  -23.5950  -28.5040   22.9010 O   0  0  0  0  0  0  0  0  0  0  0  0
  -21.0170  -29.5690   21.4700 H   0  0  0  0  0  0  0  0  0  0  0  0
  -18.2300  -27.6610   22.5520 C   0  0  0  0  0  0  0  0  0  0  0  0
  -20.7840  -27.9500   22.7960 C   0  0  0  0  0  3  0  0  0  0  0  0
  -20.8740  -26.5820   22.0870 C   0  0  0  0  0  2  0  0  0  0  0  0
  -19.7790  -26.3700   21.0320 C   0  0  0  0  0  2  0  0  0  0  0  0
  -18.4110  -26.4150   21.7000 C   0  0  0  0  0  2  0  0  0  0  0  0
  -19.3420  -28.4040   23.0340 C   0  0  0  0  0  0  0  0  0  0  0  0
  -19.1040  -29.5990   23.7540 C   0  0  0  0  0  3  0  0  0  0  0  0
  -17.7910  -30.0610   23.9750 C   0  0  0  0  0  3  0  0  0  0  0  0
  -16.6990  -29.2910   23.5350 C   0  0  0  0  0  3  0  0  0  0  0  0
  -16.9220  -28.0950   22.8310 C   0  0  0  0  0  3  0  0  0  0  0  0
  -26.0070  -32.1990   23.6320 C   0  0  0  0  0  3  0  0  0  0  0  0
  -26.6060  -31.3100   24.7910 C   0  0  1  0  0  0  0  0  0  0  0  0
  -25.5740  -30.9380   25.8820 C   0  0  0  0  0  1  0  0  0  0  0  0
  -27.1950  -29.9950   24.2260 C   0  0  0  0  0  1  0  0  0  0  0  0
  -27.7770  -32.0570   25.4750 C   0  0  0  0  0  1  0  0  0  0  0  0
  -25.6830  -33.5450   24.1230 N   0  0  0  0  0  0  0  0  0  0  0  0
  -25.9610  -34.6790   23.4700 C   0  0  0  0  0  0  0  0  0  0  0  0
  -26.5880  -34.7000   22.4070 O   0  0  0  0  0  0  0  0  0  0  0  0
  -25.1260  -33.6000   24.9660 H   0  0  0  0  0  0  0  0  0  0  0  0
  -24.1790  -36.4490   23.3850 C   0  0  0  0  0  1  0  0  0  0  0  0
  -25.4670  -35.9980   24.0910 C   0  0  0  0  0  3  0  0  0  0  0  0
  -27.6210  -36.8540   24.9080 C   0  0  0  0  0  1  0  0  0  0  0  0
  -26.4690  -37.0850   24.0400 N   0  0  0  0  0  0  0  0  0  0  0  0
  -26.0470  -37.9730   24.2990 H   0  0  0  0  0  0  0  0  0  0  0  0
  1  5  1  0
  3  1  1  0
  3  6  1  0
  4  2  1  0
  5  8  1  0
  5  2  1  0
  6  4  1  0
  6  7  1  6
  9  8  1  0
 10  9  2  0
 11 17  1  0
 11 25  1  0
 12 17  1  0
 13 14  1  0
 13 12  1  0
 15 14  1  0
 15 29  1  0
 15 16  1  0
 17 16  1  0
 18 11  2  0
 22  9  1  0
 22 24  1  0
 23 21  1  0
 23 20  1  0
 23 19  1  0
 24 20  1  0
 24 19  1  0
 25 21  1  0
 25 22  1  0
 26 27  2  0
 27 46  1  0
 28 27  1  0
 28 31  1  0
 29 30  1  0
 29 26  1  0
 30 28  2  0
 31 32  1  0
 32 33  2  0
 34 37  1  0
 34 33  1  0
 35 34  2  0
 36 35  1  0
 36 31  2  0
 37 38  1  0
 38 39  1  0
 39 40  2  0
 41 40  1  0
 41 45  1  0
 42 41  2  0
 43 38  2  0
 43 42  1  0
 44 43  1  0
 46 47  1  0
 47 50  1  0
 47 49  1  0
 48 46  2  0
 51 52  1  0
 51 26  1  0
 53 51  1  0
 54  6  1  0
 55 54  1  0
 55 56  1  0
 56 58  1  0
 57 68  2  0
 58 63  1  0
 59 67  1  0
 59 69  1  0
 60 66  1  0
 60 62  1  0
 61 67  1  0
 62 61  1  0
 63 62  2  0
 64 65  1  0
 64 58  2  0
 65 60  2  0
 66 59  1  0
 67 57  1  0
 69 71  2  0
 70 69  1  0
 72 70  1  0
 73 82  2  0
 73 78  1  0
 74 70  1  0
 74 78  1  0
 75 74  1  0
 76 77  1  0
 76 75  1  0
 77 73  1  0
 78 79  2  0
 79 80  1  0
 81 80  2  0
 82 81  1  0
 83 57  1  0
 83 88  1  0
 83 84  1  0
 84 87  1  1
 84 85  1  0
 86 84  1  0
 88 91  1  0
 89 93  1  0
 89 88  1  0
 90 89  2  0
 93 92  1  0
 95 93  1  0
 95 96  1  0
 95 94  1  0
M  ISO  4  11 100  25 100  55 101  56 101
M  END
>  <TORSDO>  (32) 
F 20

>  <SCORE>  (32) 
-11.671

>  <name>  (32) 
31

>  <ligand_id>  (32) 
31

>  <original_smiles>  (32) 
[H]c1c([H])c([H])c2c(c1[H])C([H])([H])C([H])([H])C([H])([H])C2([H])N([H])C(=O)C1([H])N(C(=O)C([H])(N([H])C(=O)C([H])(N([H])C([H])([H])[H])C([H])([H])[H])C(C([H])([H])[H])(C([H])([H])[H])C([H])([H])[H])C([H])([H])c2c([H])c(OC([H])([H])C([H])([H])[N+]3([H])C([H])([H])C([H])([H])C([H])(C([H])([H])C(=O)C4([H])N(C(=O)N5C([H])([H])C([H])([H])C([H])([H])C([H])(n6nc(-c7c([H])c([H])c(Oc8c([H])c([H])c(F)c([H])c8F)c([H])c7[H])c(C(=O)N([H])[H])c6N([H])[H])C5([H])[H])C([H])([H])C5([H])C([H])([H])C4([H])C5([H])[H])C([H])([H])C3([H])[H])c([H])c([H])c2C1([H])[H]

>  <smiles>  (32) 
[H]c1c([H])c([H])c2c(c1[H])C([H])([H])C([H])([H])C([H])([H])C2([H])N([H])C(=O)C1([H])N(C(=O)C([H])(N([H])C(=O)C([H])(N([H])C([H])([H])[H])C([H])([H])[H])C(C([H])([H])[H])(C([H])([H])[H])C([H])([H])[H])C([H])([H])c2c([H])c(OC([H])([H])C([H])([H])[N+]3([H])C([H])([H])C([H])([H])C([H])(C([H])([H])C(=O)C4([H])N(C(=O)N5C([H])([H])C([H])([H])C([H])([H])C([H])(n6nc(-c7c([H])c([H])c(Oc8c([H])c([H])c(F)c([H])c8F)c([H])c7[H])c(C(=O)N([H])[H])c6N([H])[H])C5([H])[H])C([H])([H])C5([H])C([H])([H])C4([H])C5([H])[H])C([H])([H])C3([H])[H])c([H])c([H])c2C1([H])[H]

$$$$
32:0:0
     RDKit          3D

 97105  0  0  1  0  0  0  0  0999 V2000
  -29.4060  -19.1640   19.7720 C   0  0  0  0  0  3  0  0  0  0  0  0
  -31.0890  -19.0200   23.2310 C   0  0  0  0  0  3  0  0  0  0  0  0
  -31.1440  -17.6510   23.5250 C   0  0  0  0  0  3  0  0  0  0  0  0
  -30.5170  -19.4520   22.0200 C   0  0  0  0  0  3  0  0  0  0  0  0
  -30.6350  -16.7220   22.6070 C   0  0  0  0  0  3  0  0  0  0  0  0
  -29.9800  -18.5430   21.0750 C   0  0  0  0  0  0  0  0  0  0  0  0
  -30.0660  -17.1260   21.3720 C   0  0  0  0  0  0  0  0  0  0  0  0
  -30.3290  -15.0340   20.0630 C   0  0  0  0  0  0  0  0  0  0  0  0
  -30.1510  -12.8130   18.9800 C   0  0  0  0  0  2  0  0  0  0  0  0
  -29.1240  -12.8630   17.8310 C   0  0  0  0  0  2  0  0  0  0  0  0
  -27.6980  -12.6120   18.3610 C   0  0  0  0  0  2  0  0  0  0  0  0
  -27.3600  -13.4720   19.6090 C   0  0  0  0  0  3  0  0  0  0  0  0
  -28.4940  -13.4010   20.6530 C   0  0  0  0  0  2  0  0  0  0  0  0
  -29.7370  -13.8070   19.9820 N   0  0  0  0  0  0  0  0  0  0  0  0
  -31.4300  -15.2640   19.5560 O   0  0  0  0  0  0  0  0  0  0  0  0
  -29.5690  -16.0540   20.5490 N   0  0  0  0  0  0  0  0  0  0  0  0
  -28.6010  -15.8070   20.7050 H   0  0  0  0  0  0  0  0  0  0  0  0
  -25.0100  -13.9260   20.5500 C   0  0  0  0  0  0  0  0  0  0  0  0
  -24.0100  -13.0880   20.9630 C   0  0  0  0  0  0  0  0  0  0  0  0
  -24.5240  -11.7620   20.8180 C   0  0  0  0  0  0  0  0  0  0  0  0
  -26.0670  -13.1090   20.1830 N   0  0  0  0  0  0  0  0  0  0  0  0
  -25.7840  -11.7980   20.4030 N   0  0  0  0  0  0  0  0  0  0  0  0
  -23.8690  -10.4600   20.9950 C   0  0  0  0  0  0  0  0  0  0  0  0
  -24.3500   -9.5140   21.9260 C   0  0  0  0  0  3  0  0  0  0  0  0
  -23.6920   -8.2760   22.0940 C   0  0  0  0  0  3  0  0  0  0  0  0
  -22.5410   -7.9750   21.3280 C   0  0  0  0  0  0  0  0  0  0  0  0
  -22.0800   -8.9120   20.3860 C   0  0  0  0  0  3  0  0  0  0  0  0
  -22.7390  -10.1410   20.2170 C   0  0  0  0  0  3  0  0  0  0  0  0
  -21.8520   -6.7880   21.4030 O   0  0  0  0  0  0  0  0  0  0  0  0
  -21.7630   -6.0810   22.5760 C   0  0  0  0  0  0  0  0  0  0  0  0
  -21.1540   -6.6250   23.7280 C   0  0  0  0  0  3  0  0  0  0  0  0
  -21.0210   -5.8390   24.8900 C   0  0  0  0  0  3  0  0  0  0  0  0
  -21.4850   -4.5100   24.8980 C   0  0  0  0  0  0  0  0  0  0  0  0
  -22.0850   -3.9660   23.7510 C   0  0  0  0  0  3  0  0  0  0  0  0
  -22.2220   -4.7490   22.5910 C   0  0  0  0  0  0  0  0  0  0  0  0
  -22.7820   -4.2130   21.4800 F   0  0  0  0  0  0  0  0  0  0  0  0
  -21.3500   -3.7510   26.0130 F   0  0  0  0  0  0  0  0  0  0  0  0
  -22.6220  -13.4860   21.3730 C   0  0  0  0  0  0  0  0  0  0  0  0
  -21.9990  -12.7160   22.2580 N   0  0  0  0  0  0  0  0  0  0  0  0
  -22.1000  -14.5130   20.9430 O   0  0  0  0  0  0  0  0  0  0  0  0
  -22.4380  -11.8840   22.6280 H   0  0  0  0  0  0  0  0  0  0  0  0
  -21.0710  -12.9600   22.5710 H   0  0  0  0  0  0  0  0  0  0  0  0
  -25.0980  -15.3100   20.4390 N   0  0  0  0  0  0  0  0  0  0  0  0
  -24.3030  -15.9090   20.6420 H   0  0  0  0  0  0  0  0  0  0  0  0
  -25.8770  -15.8120   20.0320 H   0  0  0  0  0  0  0  0  0  0  0  0
  -30.5080  -19.3510   18.8080 N   0  0  0  0  0  4  0  0  0  0  0  0
  -31.1490  -20.0630   19.1060 H   0  0  0  0  0  0  0  0  0  0  0  0
  -30.1650  -19.5620   17.8870 H   0  0  0  0  0  0  0  0  0  0  0  0
  -31.0260  -18.4930   18.7480 H   0  0  0  0  0  0  0  0  0  0  0  0
  -28.4770  -20.4560   19.9490 C   0  0  0  0  0  3  0  0  0  0  0  0
  -28.9160  -21.8940   19.4290 C   0  0  0  0  0  3  0  0  0  0  0  0
  -26.6420  -22.9340   19.6490 C   0  0  0  0  0  1  0  0  0  0  0  0
  -28.0990  -23.0840   19.9070 N   0  0  2  0  0  4  0  0  0  0  0  0
  -28.2020  -23.0840   20.9130 H   0  0  0  0  0  0  0  0  0  0  0  0
  -28.5970  -24.4360   19.4240 C   0  0  0  0  0  3  0  0  0  0  0  0
  -28.1490  -25.6820   20.2810 C   0  0  0  0  0  3  0  0  0  0  0  0
  -28.2440  -26.9940   19.6420 O   0  0  0  0  0  0  0  0  0  0  0  0
  -24.5000  -31.9850   23.1650 C   0  0  0  0  0  0  0  0  0  0  0  0
  -27.0960  -27.7710   19.7080 C   0  0  0  0  0  0  0  0  0  0  0  0
  -23.2600  -30.6700   21.4780 C   0  0  0  0  0  3  0  0  0  0  0  0
  -24.6860  -29.2620   19.8940 C   0  0  0  0  0  0  0  0  0  0  0  0
  -25.7750  -31.0810   21.2170 C   0  0  0  0  0  2  0  0  0  0  0  0
  -25.8610  -29.7590   20.4760 C   0  0  0  0  0  0  0  0  0  0  0  0
  -27.0710  -29.0240   20.3740 C   0  0  0  0  0  3  0  0  0  0  0  0
  -25.9070  -27.3080   19.1040 C   0  0  0  0  0  3  0  0  0  0  0  0
  -24.7080  -28.0410   19.2000 C   0  0  0  0  0  3  0  0  0  0  0  0
  -23.4290  -30.0900   20.0500 C   0  0  0  0  0  2  0  0  0  0  0  0
  -24.5320  -31.2580   22.0110 N   0  0  0  0  0  0  0  0  0  0  0  0
  -23.4360  -32.1990   23.7610 O   0  0  0  0  0  0  0  0  0  0  0  0
  -22.6630  -29.5750   22.3930 C   0  0  0  0  0  0  0  0  0  0  0  0
  -21.3450  -29.3460   22.2760 N   0  0  0  0  0  0  0  0  0  0  0  0
  -23.3840  -28.9390   23.1650 O   0  0  0  0  0  0  0  0  0  0  0  0
  -20.8220  -29.9120   21.6230 H   0  0  0  0  0  0  0  0  0  0  0  0
  -18.0300  -27.9920   22.7630 C   0  0  0  0  0  0  0  0  0  0  0  0
  -20.5800  -28.3370   23.0090 C   0  0  0  0  0  3  0  0  0  0  0  0
  -20.7300  -26.9450   22.3510 C   0  0  0  0  0  2  0  0  0  0  0  0
  -19.6230  -26.6350   21.3410 C   0  0  0  0  0  2  0  0  0  0  0  0
  -18.2470  -26.6890   22.0130 C   0  0  0  0  0  2  0  0  0  0  0  0
  -19.1260  -28.7720   23.2180 C   0  0  0  0  0  0  0  0  0  0  0  0
  -18.8680  -29.9910   23.8820 C   0  0  0  0  0  3  0  0  0  0  0  0
  -17.5480  -30.4300   24.0970 C   0  0  0  0  0  3  0  0  0  0  0  0
  -16.4680  -29.6450   23.6590 C   0  0  0  0  0  3  0  0  0  0  0  0
  -16.7100  -28.4270   22.9980 C   0  0  0  0  0  3  0  0  0  0  0  0
  -25.7960  -32.6010   23.7780 C   0  0  0  0  0  3  0  0  0  0  0  0
  -26.3230  -31.8150   25.0420 C   0  0  1  0  0  0  0  0  0  0  0  0
  -25.2350  -31.5570   26.1100 C   0  0  0  0  0  1  0  0  0  0  0  0
  -26.9120  -30.4450   24.6280 C   0  0  0  0  0  1  0  0  0  0  0  0
  -27.4710  -32.6080   25.7100 C   0  0  0  0  0  1  0  0  0  0  0  0
  -25.5020  -33.9990   24.1220 N   0  0  0  0  0  0  0  0  0  0  0  0
  -25.8430  -35.0560   23.3740 C   0  0  0  0  0  0  0  0  0  0  0  0
  -26.5070  -34.9570   22.3390 O   0  0  0  0  0  0  0  0  0  0  0  0
  -24.9100  -34.1510   24.9270 H   0  0  0  0  0  0  0  0  0  0  0  0
  -24.1410  -36.8770   23.0310 C   0  0  0  0  0  1  0  0  0  0  0  0
  -25.3700  -36.4440   23.8460 C   0  0  0  0  0  3  0  0  0  0  0  0
  -27.4990  -37.3000   24.7180 C   0  0  0  0  0  1  0  0  0  0  0  0
  -26.4170  -37.4840   23.7550 N   0  0  0  0  0  0  0  0  0  0  0  0
  -26.0200  -38.4100   23.8950 H   0  0  0  0  0  0  0  0  0  0  0  0
  1 50  1  0
  1  6  1  0
  2  3  1  0
  4  2  2  0
  5  3  2  0
  6  7  2  0
  6  4  1  0
  7  5  1  0
  8 16  1  0
  9 14  1  0
 10 11  1  0
 10  9  1  0
 12 11  1  0
 12 21  1  0
 12 13  1  0
 14  8  1  0
 14 13  1  0
 15  8  2  0
 16 17  1  0
 16  7  1  0
 18 19  2  0
 19 38  1  0
 20 19  1  0
 20 23  1  0
 21 22  1  0
 21 18  1  0
 22 20  2  0
 23 24  1  0
 24 25  2  0
 26 29  1  0
 26 25  1  0
 27 26  2  0
 28 27  1  0
 28 23  2  0
 29 30  1  0
 30 35  2  0
 30 31  1  0
 31 32  2  0
 32 33  1  0
 33 37  1  0
 34 33  2  0
 35 34  1  0
 36 35  1  0
 38 39  1  0
 39 42  1  0
 39 41  1  0
 40 38  2  0
 43 18  1  0
 43 44  1  0
 45 43  1  0
 46 47  1  0
 46  1  1  0
 48 46  1  0
 49 46  1  0
 51 53  1  0
 51 50  2  0
 52 53  1  0
 53 54  1  1
 55 53  1  0
 55 56  2  0
 57 59  1  0
 57 56  1  0
 58 69  2  0
 59 64  1  0
 60 68  1  0
 60 70  1  0
 61 67  1  0
 61 63  1  0
 62 68  1  0
 63 62  1  0
 64 63  2  0
 65 66  1  0
 65 59  2  0
 66 61  2  0
 67 60  1  0
 68 58  1  0
 70 72  2  0
 71 70  1  0
 73 71  1  0
 74 83  2  0
 74 79  1  0
 75 71  1  0
 75 79  1  0
 76 75  1  0
 77 78  1  0
 77 76  1  0
 78 74  1  0
 79 80  2  0
 80 81  1  0
 82 81  2  0
 83 82  1  0
 84 58  1  0
 84 89  1  0
 84 85  1  0
 85 88  1  1
 85 86  1  0
 87 85  1  0
 89 92  1  0
 90 94  1  0
 90 89  1  0
 91 90  2  0
 94 93  1  0
 96 94  1  0
 96 97  1  0
 96 95  1  0
M  ISO  4   8 100  16 100  56 101  57 101
M  END
>  <TORSDO>  (33) 
F 23

>  <SCORE>  (33) 
-11.708

>  <name>  (33) 
32

>  <ligand_id>  (33) 
32

>  <original_smiles>  (33) 
[H]c1c([H])c([H])c(C([H])(C([H])([H])C([H])([H])[N+]([H])(C([H])([H])[H])C([H])([H])C([H])([H])Oc2c([H])c([H])c3c(c2[H])C([H])([H])N(C(=O)C([H])(N([H])C(=O)C([H])(N([H])C([H])([H])[H])C([H])([H])[H])C(C([H])([H])[H])(C([H])([H])[H])C([H])([H])[H])C([H])(C(=O)N([H])C2([H])c4c([H])c([H])c([H])c([H])c4C([H])([H])C([H])([H])C2([H])[H])C3([H])[H])[N+]([H])([H])[H])c(N([H])C(=O)N2C([H])([H])C([H])([H])C([H])([H])C([H])(n3nc(-c4c([H])c([H])c(Oc5c([H])c([H])c(F)c([H])c5F)c([H])c4[H])c(C(=O)N([H])[H])c3N([H])[H])C2([H])[H])c1[H]

>  <smiles>  (33) 
[H]c1c([H])c([H])c(C([H])(C([H])([H])C([H])([H])[N+]([H])(C([H])([H])[H])C([H])([H])C([H])([H])Oc2c([H])c([H])c3c(c2[H])C([H])([H])N(C(=O)C([H])(N([H])C(=O)C([H])(N([H])C([H])([H])[H])C([H])([H])[H])C(C([H])([H])[H])(C([H])([H])[H])C([H])([H])[H])C([H])(C(=O)N([H])C2([H])c4c([H])c([H])c([H])c([H])c4C([H])([H])C([H])([H])C2([H])[H])C3([H])[H])[N+]([H])([H])[H])c(N([H])C(=O)N2C([H])([H])C([H])([H])C([H])([H])C([H])(n3nc(-c4c([H])c([H])c(Oc5c([H])c([H])c(F)c([H])c5F)c([H])c4[H])c(C(=O)N([H])[H])c3N([H])[H])C2([H])[H])c1[H]

$$$$
33:0:0
     RDKit          3D

 91100  0  0  1  0  0  0  0  0999 V2000
  -27.6790  -22.5990   19.7640 C   0  0  0  0  0  2  0  0  0  0  0  0
  -29.1030  -22.2070   20.0930 C   0  0  0  0  0  3  0  0  0  0  0  0
  -28.7070  -23.6010   19.3050 C   0  0  0  0  0  3  0  0  0  0  0  0
  -29.9680  -19.9260   18.7370 C   0  0  0  0  0  3  0  0  0  0  0  0
  -30.2220  -18.4890   18.6770 C   0  0  0  0  0  3  0  0  0  0  0  0
  -29.3910  -18.2790   20.8800 C   0  0  0  0  0  3  0  0  0  0  0  0
  -29.4140  -20.6150   19.8740 C   0  0  0  0  0  0  0  0  0  0  0  0
  -29.1500  -19.6960   20.9510 C   0  0  0  0  0  0  0  0  0  0  0  0
  -29.9350  -17.5900   19.7610 C   0  0  0  0  0  0  0  0  0  0  0  0
  -28.5920  -20.2170   22.2690 C   0  0  0  0  0  1  0  0  0  0  0  0
  -30.7910  -15.0220   19.3680 C   0  0  0  0  0  0  0  0  0  0  0  0
  -30.5550  -12.6790   18.4630 C   0  0  0  0  0  2  0  0  0  0  0  0
  -29.4580  -12.6770   17.3710 C   0  0  0  0  0  2  0  0  0  0  0  0
  -28.0560  -12.5080   17.9910 C   0  0  0  0  0  2  0  0  0  0  0  0
  -27.8340  -13.4360   19.2130 C   0  0  0  0  0  3  0  0  0  0  0  0
  -29.0270  -13.3800   20.1930 C   0  0  0  0  0  2  0  0  0  0  0  0
  -30.2330  -13.7540   19.4360 N   0  0  0  0  0  0  0  0  0  0  0  0
  -31.8890  -15.1700   18.8200 O   0  0  0  0  0  0  0  0  0  0  0  0
  -30.0110  -16.0840   19.8380 N   0  0  0  0  0  0  0  0  0  0  0  0
  -29.2480  -15.7020   20.3770 H   0  0  0  0  0  0  0  0  0  0  0  0
  -25.6180  -14.0750   20.3370 C   0  0  0  0  0  0  0  0  0  0  0  0
  -24.5760  -13.3230   20.8070 C   0  0  0  0  0  0  0  0  0  0  0  0
  -24.9480  -11.9600   20.6010 C   0  0  0  0  0  0  0  0  0  0  0  0
  -26.5620  -13.1700   19.8780 N   0  0  0  0  0  0  0  0  0  0  0  0
  -26.1740  -11.8870   20.0960 N   0  0  0  0  0  0  0  0  0  0  0  0
  -24.1850  -10.7210   20.8030 C   0  0  0  0  0  0  0  0  0  0  0  0
  -24.6170   -9.7240   21.7050 C   0  0  0  0  0  3  0  0  0  0  0  0
  -23.8560   -8.5520   21.8960 C   0  0  0  0  0  3  0  0  0  0  0  0
  -22.6470   -8.3670   21.1850 C   0  0  0  0  0  0  0  0  0  0  0  0
  -22.2320   -9.3520   20.2710 C   0  0  0  0  0  3  0  0  0  0  0  0
  -22.9940  -10.5160   20.0770 C   0  0  0  0  0  3  0  0  0  0  0  0
  -21.8550   -7.2480   21.2860 O   0  0  0  0  0  0  0  0  0  0  0  0
  -21.7070   -6.5770   22.4730 C   0  0  0  0  0  0  0  0  0  0  0  0
  -21.2160   -7.2140   23.6340 C   0  0  0  0  0  3  0  0  0  0  0  0
  -21.0130   -6.4700   24.8130 C   0  0  0  0  0  3  0  0  0  0  0  0
  -21.2920   -5.0900   24.8320 C   0  0  0  0  0  0  0  0  0  0  0  0
  -21.7760   -4.4530   23.6760 C   0  0  0  0  0  3  0  0  0  0  0  0
  -21.9800   -5.1940   22.4990 C   0  0  0  0  0  0  0  0  0  0  0  0
  -22.4250   -4.5710   21.3820 F   0  0  0  0  0  0  0  0  0  0  0  0
  -21.0900   -4.3740   25.9630 F   0  0  0  0  0  0  0  0  0  0  0  0
  -23.2650  -13.8410   21.3250 C   0  0  0  0  0  0  0  0  0  0  0  0
  -22.6460  -13.1220   22.2550 N   0  0  0  0  0  0  0  0  0  0  0  0
  -22.8050  -14.9160   20.9410 O   0  0  0  0  0  0  0  0  0  0  0  0
  -23.0320  -12.2490   22.5820 H   0  0  0  0  0  0  0  0  0  0  0  0
  -21.7740  -13.4500   22.6450 H   0  0  0  0  0  0  0  0  0  0  0  0
  -25.8360  -15.4470   20.2410 N   0  0  0  0  0  0  0  0  0  0  0  0
  -25.1330  -16.1250   20.5110 H   0  0  0  0  0  0  0  0  0  0  0  0
  -26.6410  -15.8700   19.7960 H   0  0  0  0  0  0  0  0  0  0  0  0
  -28.0050  -25.1780   21.3150 C   0  0  0  0  0  1  0  0  0  0  0  0
  -28.6950  -25.1280   19.9350 C   0  0  0  0  0  3  0  0  0  0  0  0
  -28.5040  -26.4680   19.2050 O   0  0  0  0  0  0  0  0  0  0  0  0
  -24.5290  -31.4240   22.8620 C   0  0  0  0  0  0  0  0  0  0  0  0
  -27.3410  -27.2840   19.3290 C   0  0  0  0  0  0  0  0  0  0  0  0
  -23.3660  -30.0720   21.1580 C   0  0  0  0  0  3  0  0  0  0  0  0
  -24.8670  -28.7550   19.5440 C   0  0  0  0  0  0  0  0  0  0  0  0
  -25.8700  -30.5910   20.9010 C   0  0  0  0  0  2  0  0  0  0  0  0
  -26.0280  -29.2720   20.1350 C   0  0  0  0  0  0  0  0  0  0  0  0
  -27.2660  -28.5540   20.0100 C   0  0  0  0  0  3  0  0  0  0  0  0
  -26.1530  -26.8460   18.7130 C   0  0  0  0  0  3  0  0  0  0  0  0
  -24.9350  -27.5530   18.8210 C   0  0  0  0  0  3  0  0  0  0  0  0
  -23.5720  -29.5320   19.7170 C   0  0  0  0  0  2  0  0  0  0  0  0
  -24.6100  -30.7130   21.6970 N   0  0  0  0  0  0  0  0  0  0  0  0
  -23.4530  -31.5650   23.4610 O   0  0  0  0  0  0  0  0  0  0  0  0
  -22.8280  -28.9310   22.0560 C   0  0  0  0  0  0  0  0  0  0  0  0
  -21.5170  -28.6470   21.9630 N   0  0  0  0  0  0  0  0  0  0  0  0
  -23.5890  -28.3070   22.8010 O   0  0  0  0  0  0  0  0  0  0  0  0
  -20.9540  -29.2100   21.3410 H   0  0  0  0  0  0  0  0  0  0  0  0
  -18.2880  -27.0830   22.4460 C   0  0  0  0  0  0  0  0  0  0  0  0
  -20.8160  -27.5790   22.6800 C   0  0  0  0  0  3  0  0  0  0  0  0
  -21.0420  -26.2090   22.0010 C   0  0  0  0  0  2  0  0  0  0  0  0
  -19.9490  -25.8500   20.9880 C   0  0  0  0  0  2  0  0  0  0  0  0
  -18.5790  -25.8100   21.6690 C   0  0  0  0  0  2  0  0  0  0  0  0
  -19.3380  -27.9220   22.9070 C   0  0  0  0  0  0  0  0  0  0  0  0
  -19.0110  -29.1120   23.5920 C   0  0  0  0  0  3  0  0  0  0  0  0
  -17.6680  -29.4650   23.8250 C   0  0  0  0  0  3  0  0  0  0  0  0
  -16.6340  -28.6230   23.3790 C   0  0  0  0  0  3  0  0  0  0  0  0
  -16.9450  -27.4340   22.6950 C   0  0  0  0  0  3  0  0  0  0  0  0
  -25.7830  -32.1110   23.4870 C   0  0  0  0  0  3  0  0  0  0  0  0
  -25.3730  -33.4380   23.9720 N   0  0  0  0  0  0  0  0  0  0  0  0
  -25.5830  -34.5880   23.3180 C   0  0  0  0  0  0  0  0  0  0  0  0
  -26.2110  -34.6490   22.2590 O   0  0  0  0  0  0  0  0  0  0  0  0
  -24.8090  -33.4590   24.8090 H   0  0  0  0  0  0  0  0  0  0  0  0
  -23.7010  -36.2550   23.2250 C   0  0  0  0  0  1  0  0  0  0  0  0
  -25.0070  -35.8760   23.9400 C   0  0  0  0  0  3  0  0  0  0  0  0
  -27.0970  -36.8550   24.7820 C   0  0  0  0  0  1  0  0  0  0  0  0
  -25.9430  -37.0200   23.9000 N   0  0  0  0  0  0  0  0  0  0  0  0
  -25.4710  -37.8820   24.1560 H   0  0  0  0  0  0  0  0  0  0  0  0
  -26.4310  -31.2730   24.6560 C   0  0  1  0  0  0  0  0  0  0  0  0
  -25.4250  -30.8450   25.7500 C   0  0  0  0  0  1  0  0  0  0  0  0
  -27.1010  -29.9920   24.1050 C   0  0  0  0  0  1  0  0  0  0  0  0
  -27.5490  -32.0990   25.3370 C   0  0  0  0  0  1  0  0  0  0  0  0
  1  2  1  0
  2  7  1  0
  3  1  1  0
  3 50  1  0
  3  2  1  0
  4  7  1  0
  5  4  2  0
  5  9  1  0
  6  8  1  0
  7  8  2  0
  8 10  1  0
  9 19  1  0
  9  6  2  0
 11 17  1  0
 11 19  1  0
 12 17  1  0
 13 14  1  0
 13 12  1  0
 15 14  1  0
 15 24  1  0
 15 16  1  0
 17 16  1  0
 18 11  2  0
 19 20  1  0
 21 22  2  0
 22 41  1  0
 23 26  1  0
 23 22  1  0
 24 25  1  0
 24 21  1  0
 25 23  2  0
 26 27  1  0
 27 28  2  0
 29 32  1  0
 29 28  1  0
 30 29  2  0
 31 30  1  0
 31 26  2  0
 32 33  1  0
 33 38  2  0
 33 34  1  0
 34 35  2  0
 35 36  1  0
 36 40  1  0
 37 36  2  0
 38 37  1  0
 39 38  1  0
 41 42  1  0
 42 44  1  0
 42 45  1  0
 43 41  2  0
 46 21  1  0
 46 47  1  0
 48 46  1  0
 50 49  1  0
 51 53  1  0
 51 50  1  0
 52 63  2  0
 53 58  1  0
 54 62  1  0
 54 64  1  0
 55 61  1  0
 55 57  1  0
 56 62  1  0
 57 56  1  0
 58 57  2  0
 59 60  1  0
 59 53  2  0
 60 55  2  0
 61 54  1  0
 62 52  1  0
 64 66  2  0
 65 64  1  0
 67 65  1  0
 68 77  2  0
 68 73  1  0
 69 65  1  0
 69 73  1  0
 70 69  1  0
 71 72  1  0
 71 70  1  0
 72 68  1  0
 73 74  2  0
 74 75  1  0
 76 75  2  0
 77 76  1  0
 78 52  1  0
 78 79  1  0
 78 88  1  0
 79 82  1  0
 80 84  1  0
 80 79  1  0
 81 80  2  0
 84 83  1  0
 86 84  1  0
 86 87  1  0
 86 85  1  0
 88 91  1  1
 88 89  1  0
 90 88  1  0
M  ISO  4  11 100  19 100  50 101  51 101
M  END
>  <TORSDO>  (34) 
F 18

>  <SCORE>  (34) 
-9.980

>  <name>  (34) 
33

>  <ligand_id>  (34) 
33

>  <original_smiles>  (34) 
[H]c1c([H])c([H])c2c(c1[H])C([H])([H])C([H])([H])C([H])([H])C2([H])N([H])C(=O)C1([H])N(C(=O)C([H])(N([H])C(=O)C([H])(N([H])C([H])([H])[H])C([H])([H])[H])C(C([H])([H])[H])(C([H])([H])[H])C([H])([H])[H])C([H])([H])c2c([H])c(OC([H])(C([H])([H])[H])C3([H])C([H])([H])C3([H])c3c([H])c([H])c(N([H])C(=O)N4C([H])([H])C([H])([H])C([H])([H])C([H])(n5nc(-c6c([H])c([H])c(Oc7c([H])c([H])c(F)c([H])c7F)c([H])c6[H])c(C(=O)N([H])[H])c5N([H])[H])C4([H])[H])c([H])c3C([H])([H])[H])c([H])c([H])c2C1([H])[H]

>  <smiles>  (34) 
[H]c1c([H])c([H])c2c(c1[H])C([H])([H])C([H])([H])C([H])([H])C2([H])N([H])C(=O)C1([H])N(C(=O)C([H])(N([H])C(=O)C([H])(N([H])C([H])([H])[H])C([H])([H])[H])C(C([H])([H])[H])(C([H])([H])[H])C([H])([H])[H])C([H])([H])c2c([H])c(OC([H])(C([H])([H])[H])C3([H])C([H])([H])C3([H])c3c([H])c([H])c(N([H])C(=O)N4C([H])([H])C([H])([H])C([H])([H])C([H])(n5nc(-c6c([H])c([H])c(Oc7c([H])c([H])c(F)c([H])c7F)c([H])c6[H])c(C(=O)N([H])[H])c5N([H])[H])C4([H])[H])c([H])c3C([H])([H])[H])c([H])c([H])c2C1([H])[H]

$$$$
34:0:0
     RDKit          3D

 91100  0  0  1  0  0  0  0  0999 V2000
  -31.1220  -18.1900   20.7260 C   0  0  0  0  0  2  0  0  0  0  0  0
  -28.7000  -18.3890   20.3970 C   0  0  0  0  0  2  0  0  0  0  0  0
  -30.5020  -20.4770   19.3830 C   0  0  0  0  0  2  0  0  0  0  0  0
  -30.7210  -19.6950   20.6990 C   0  0  0  0  0  3  0  0  0  0  0  0
  -29.9230  -17.3770   20.1660 C   0  0  0  0  0  3  0  0  0  0  0  0
  -29.2250  -19.8280   20.8400 C   0  0  0  0  0  3  0  0  0  0  0  0
  -29.2300  -21.0370   19.8970 N   0  0  1  0  0  4  0  0  0  0  0  0
  -28.5110  -20.9770   19.1940 H   0  0  0  0  0  0  0  0  0  0  0  0
  -30.5710  -14.7860   20.3190 C   0  0  0  0  0  0  0  0  0  0  0  0
  -30.3850  -12.5080   19.3090 C   0  0  0  0  0  2  0  0  0  0  0  0
  -29.4490  -12.5950   18.0810 C   0  0  0  0  0  2  0  0  0  0  0  0
  -27.9750  -12.4340   18.5030 C   0  0  0  0  0  2  0  0  0  0  0  0
  -27.6050  -13.3110   19.7280 C   0  0  0  0  0  3  0  0  0  0  0  0
  -28.6590  -13.1980   20.8520 C   0  0  0  0  0  2  0  0  0  0  0  0
  -29.9600  -13.5510   20.2710 N   0  0  0  0  0  0  0  0  0  0  0  0
  -31.7420  -14.9060   19.9500 O   0  0  0  0  0  0  0  0  0  0  0  0
  -29.7740  -15.8980   20.5650 N   0  0  0  0  0  0  0  0  0  0  0  0
  -28.8530  -15.6490   20.8930 H   0  0  0  0  0  0  0  0  0  0  0  0
  -25.2100  -13.9130   20.4240 C   0  0  0  0  0  0  0  0  0  0  0  0
  -24.1410  -13.1460   20.7980 C   0  0  0  0  0  0  0  0  0  0  0  0
  -24.6040  -11.7940   20.7900 C   0  0  0  0  0  0  0  0  0  0  0  0
  -26.2560  -13.0310   20.2100 N   0  0  0  0  0  0  0  0  0  0  0  0
  -25.8980  -11.7530   20.4920 N   0  0  0  0  0  0  0  0  0  0  0  0
  -23.8770  -10.5340   20.9910 C   0  0  0  0  0  0  0  0  0  0  0  0
  -24.3060   -9.5740   21.9350 C   0  0  0  0  0  3  0  0  0  0  0  0
  -23.5770   -8.3810   22.1240 C   0  0  0  0  0  3  0  0  0  0  0  0
  -22.4040   -8.1380   21.3710 C   0  0  0  0  0  0  0  0  0  0  0  0
  -21.9930   -9.0870   20.4170 C   0  0  0  0  0  3  0  0  0  0  0  0
  -22.7240  -10.2710   20.2250 C   0  0  0  0  0  3  0  0  0  0  0  0
  -21.6460   -6.9960   21.4700 O   0  0  0  0  0  0  0  0  0  0  0  0
  -21.6000   -6.2610   22.6270 C   0  0  0  0  0  0  0  0  0  0  0  0
  -21.1900   -6.8270   23.8540 C   0  0  0  0  0  3  0  0  0  0  0  0
  -21.0900   -6.0180   25.0040 C   0  0  0  0  0  3  0  0  0  0  0  0
  -21.3900   -4.6450   24.9280 C   0  0  0  0  0  0  0  0  0  0  0  0
  -21.7950   -4.0790   23.7060 C   0  0  0  0  0  3  0  0  0  0  0  0
  -21.8960   -4.8850   22.5580 C   0  0  0  0  0  0  0  0  0  0  0  0
  -22.2650   -4.3300   21.3790 F   0  0  0  0  0  0  0  0  0  0  0  0
  -21.2870   -3.8660   26.0300 F   0  0  0  0  0  0  0  0  0  0  0  0
  -22.7420  -13.6260   21.0500 C   0  0  0  0  0  0  0  0  0  0  0  0
  -22.0060  -12.9420   21.9190 N   0  0  0  0  0  0  0  0  0  0  0  0
  -22.3090  -14.6440   20.5110 O   0  0  0  0  0  0  0  0  0  0  0  0
  -22.3700  -12.1170   22.3760 H   0  0  0  0  0  0  0  0  0  0  0  0
  -21.0670  -13.2460   22.1320 H   0  0  0  0  0  0  0  0  0  0  0  0
  -25.3730  -15.2820   20.2260 N   0  0  0  0  0  0  0  0  0  0  0  0
  -24.5990  -15.9310   20.3150 H   0  0  0  0  0  0  0  0  0  0  0  0
  -26.2090  -15.7150   19.8560 H   0  0  0  0  0  0  0  0  0  0  0  0
  -29.3560  -22.5060   20.4050 C   0  0  0  0  0  2  0  0  0  0  0  0
  -27.2800  -23.7440   21.4010 C   0  0  0  0  0  1  0  0  0  0  0  0
  -28.1820  -23.6220   20.1640 C   0  0  0  0  0  3  0  0  0  0  0  0
  -28.5300  -25.1110   19.5790 C   0  0  0  0  0  2  0  0  0  0  0  0
  -28.3650  -26.4380   20.2680 O   0  0  0  0  0  0  0  0  0  0  0  0
  -24.6110  -31.8740   23.2260 C   0  0  0  0  0  0  0  0  0  0  0  0
  -27.2390  -27.2890   20.1660 C   0  0  0  0  0  0  0  0  0  0  0  0
  -23.4150  -30.4770   21.5780 C   0  0  0  0  0  3  0  0  0  0  0  0
  -24.8710  -28.9230   20.1470 C   0  0  0  0  0  0  0  0  0  0  0  0
  -25.9550  -30.7900   21.4030 C   0  0  0  0  0  2  0  0  0  0  0  0
  -26.0360  -29.4080   20.7520 C   0  0  0  0  0  0  0  0  0  0  0  0
  -27.2170  -28.6000   20.7540 C   0  0  0  0  0  3  0  0  0  0  0  0
  -26.0480  -26.8650   19.5360 C   0  0  0  0  0  3  0  0  0  0  0  0
  -24.8810  -27.6590   19.5310 C   0  0  0  0  0  3  0  0  0  0  0  0
  -23.6330  -29.8010   20.1960 C   0  0  0  0  0  2  0  0  0  0  0  0
  -24.6790  -31.0670   22.1250 N   0  0  0  0  0  0  0  0  0  0  0  0
  -23.5270  -32.1490   23.7600 O   0  0  0  0  0  0  0  0  0  0  0  0
  -22.7490  -29.4610   22.5370 C   0  0  0  0  0  0  0  0  0  0  0  0
  -21.4210  -29.2920   22.4180 N   0  0  0  0  0  0  0  0  0  0  0  0
  -23.4280  -28.8260   23.3480 O   0  0  0  0  0  0  0  0  0  0  0  0
  -20.9310  -29.8590   21.7390 H   0  0  0  0  0  0  0  0  0  0  0  0
  -18.0400  -28.1110   22.9320 C   0  0  0  0  0  0  0  0  0  0  0  0
  -20.6020  -28.3540   23.1870 C   0  0  0  0  0  3  0  0  0  0  0  0
  -20.6910  -26.9270   22.5990 C   0  0  0  0  0  2  0  0  0  0  0  0
  -19.5810  -26.6190   21.5900 C   0  0  0  0  0  2  0  0  0  0  0  0
  -18.2040  -26.7670   22.2430 C   0  0  0  0  0  2  0  0  0  0  0  0
  -19.1660  -28.8630   23.3600 C   0  0  0  0  0  0  0  0  0  0  0  0
  -18.9570  -30.1220   23.9650 C   0  0  0  0  0  3  0  0  0  0  0  0
  -17.6560  -30.6280   24.1450 C   0  0  0  0  0  3  0  0  0  0  0  0
  -16.5450  -29.8730   23.7320 C   0  0  0  0  0  3  0  0  0  0  0  0
  -16.7380  -28.6170   23.1310 C   0  0  0  0  0  3  0  0  0  0  0  0
  -25.8900  -32.5090   23.8530 C   0  0  0  0  0  3  0  0  0  0  0  0
  -26.4030  -31.7410   25.1330 C   0  0  1  0  0  0  0  0  0  0  0  0
  -25.3070  -31.5080   26.1990 C   0  0  0  0  0  1  0  0  0  0  0  0
  -26.9860  -30.3620   24.7460 C   0  0  0  0  0  1  0  0  0  0  0  0
  -27.5520  -32.5350   25.7970 C   0  0  0  0  0  1  0  0  0  0  0  0
  -25.5780  -33.9070   24.1840 N   0  0  0  0  0  0  0  0  0  0  0  0
  -25.9110  -34.9640   23.4310 C   0  0  0  0  0  0  0  0  0  0  0  0
  -26.5830  -34.8640   22.4010 O   0  0  0  0  0  0  0  0  0  0  0  0
  -24.9840  -34.0590   24.9880 H   0  0  0  0  0  0  0  0  0  0  0  0
  -24.1830  -36.7570   23.0780 C   0  0  0  0  0  1  0  0  0  0  0  0
  -25.4210  -36.3510   23.8920 C   0  0  0  0  0  3  0  0  0  0  0  0
  -27.5560  -37.2320   24.7270 C   0  0  0  0  0  1  0  0  0  0  0  0
  -26.4540  -37.4050   23.7850 N   0  0  0  0  0  0  0  0  0  0  0  0
  -26.0470  -38.3240   23.9380 H   0  0  0  0  0  0  0  0  0  0  0  0
  3  7  1  0
  4  3  1  0
  4  1  1  0
  4  6  1  0
  5  2  1  0
  5 17  1  0
  5  1  1  0
  6  2  1  0
  7 47  1  0
  7  6  1  0
  7  8  1  6
  9 17  1  0
 10 15  1  0
 11 12  1  0
 11 10  1  0
 13 12  1  0
 13 22  1  0
 13 14  1  0
 15  9  1  0
 15 14  1  0
 16  9  2  0
 17 18  1  0
 19 20  2  0
 20 39  1  0
 21 20  1  0
 21 24  1  0
 22 19  1  0
 22 23  1  0
 23 21  2  0
 24 25  1  0
 25 26  2  0
 27 30  1  0
 27 26  1  0
 28 27  2  0
 29 28  1  0
 29 24  2  0
 30 31  1  0
 31 32  1  0
 32 33  2  0
 34 33  1  0
 34 38  1  0
 35 34  2  0
 36 31  2  0
 36 35  1  0
 37 36  1  0
 39 40  1  0
 40 43  1  0
 40 42  1  0
 41 39  2  0
 44 45  1  0
 44 19  1  0
 46 44  1  0
 49 47  1  0
 49 48  1  0
 50 49  1  0
 50 51  1  0
 52 63  2  0
 53 51  1  0
 53 58  1  0
 54 62  1  0
 54 64  1  0
 55 61  1  0
 55 57  1  0
 56 62  1  0
 57 58  2  0
 57 56  1  0
 59 53  2  0
 60 59  1  0
 60 55  2  0
 61 54  1  0
 62 52  1  0
 64 66  2  0
 65 64  1  0
 67 65  1  0
 68 77  2  0
 68 73  1  0
 69 65  1  0
 69 73  1  0
 70 69  1  0
 71 72  1  0
 71 70  1  0
 72 68  1  0
 73 74  2  0
 74 75  1  0
 76 75  2  0
 77 76  1  0
 78 52  1  0
 78 83  1  0
 78 79  1  0
 79 82  1  1
 79 80  1  0
 81 79  1  0
 83 86  1  0
 84 88  1  0
 84 83  1  0
 85 84  2  0
 88 87  1  0
 90 88  1  0
 90 91  1  0
 90 89  1  0
M  ISO  4   9 100  17 100  50 101  51 101
M  END
>  <TORSDO>  (35) 
F 19

>  <SCORE>  (35) 
-14.296

>  <name>  (35) 
34

>  <ligand_id>  (35) 
34

>  <original_smiles>  (35) 
[H]c1c([H])c([H])c2c(c1[H])C([H])([H])C([H])([H])C([H])([H])C2([H])N([H])C(=O)C1([H])N(C(=O)C([H])(N([H])C(=O)C([H])(N([H])C([H])([H])[H])C([H])([H])[H])C(C([H])([H])[H])(C([H])([H])[H])C([H])([H])[H])C([H])([H])c2c([H])c(OC([H])([H])C([H])(C([H])([H])[H])C([H])([H])[N+]3([H])C([H])([H])C4([H])C([H])([H])C([H])(N([H])C(=O)N5C([H])([H])C([H])([H])C([H])([H])C([H])(n6nc(-c7c([H])c([H])c(Oc8c([H])c([H])c(F)c([H])c8F)c([H])c7[H])c(C(=O)N([H])[H])c6N([H])[H])C5([H])[H])C([H])([H])C43[H])c([H])c([H])c2C1([H])[H]

>  <smiles>  (35) 
[H]c1c([H])c([H])c2c(c1[H])C([H])([H])C([H])([H])C([H])([H])C2([H])N([H])C(=O)C1([H])N(C(=O)C([H])(N([H])C(=O)C([H])(N([H])C([H])([H])[H])C([H])([H])[H])C(C([H])([H])[H])(C([H])([H])[H])C([H])([H])[H])C([H])([H])c2c([H])c(OC([H])([H])C([H])(C([H])([H])[H])C([H])([H])[N+]3([H])C([H])([H])C4([H])C([H])([H])C([H])(N([H])C(=O)N5C([H])([H])C([H])([H])C([H])([H])C([H])(n6nc(-c7c([H])c([H])c(Oc8c([H])c([H])c(F)c([H])c8F)c([H])c7[H])c(C(=O)N([H])[H])c6N([H])[H])C5([H])[H])C([H])([H])C43[H])c([H])c([H])c2C1([H])[H]

$$$$
35:0:0
     RDKit          3D

 97107  0  0  1  0  0  0  0  0999 V2000
  -30.2540  -18.1920   18.9120 C   0  0  0  0  0  2  0  0  0  0  0  0
  -29.5920  -19.4780   19.3900 C   0  0  0  0  0  3  0  0  0  0  0  0
  -30.1330  -19.2270   20.7780 C   0  0  0  0  0  3  0  0  0  0  0  0
  -30.2960  -20.6120   20.1170 C   0  0  0  0  0  3  0  0  0  0  0  0
  -30.7720  -17.8800   20.3280 C   0  0  1  0  0  0  0  0  0  0  0  0
  -30.9860  -14.5650   19.7560 C   0  0  0  0  0  0  0  0  0  0  0  0
  -30.4700  -12.5430   18.4020 C   0  0  0  0  0  2  0  0  0  0  0  0
  -29.3890  -12.8410   17.3430 C   0  0  0  0  0  2  0  0  0  0  0  0
  -27.9760  -12.6750   17.9340 C   0  0  0  0  0  2  0  0  0  0  0  0
  -27.8120  -13.4220   19.2820 C   0  0  0  0  0  3  0  0  0  0  0  0
  -28.9780  -13.0980   20.2370 C   0  0  0  0  0  2  0  0  0  0  0  0
  -30.2500  -13.4280   19.5620 N   0  0  0  0  0  0  0  0  0  0  0  0
  -31.8820  -14.9280   18.9850 O   0  0  0  0  0  0  0  0  0  0  0  0
  -31.2830  -15.8170   23.1730 C   0  0  0  0  0  2  0  0  0  0  0  0
  -30.2660  -16.8220   22.6520 C   0  0  0  0  0  2  0  0  0  0  0  0
  -31.2470  -14.6840   22.1620 C   0  0  0  0  0  2  0  0  0  0  0  0
  -30.1920  -16.6340   21.1160 C   0  0  0  0  0  3  0  0  0  0  0  0
  -30.7480  -15.2540   20.9030 N   0  0  0  0  0  0  0  0  0  0  0  0
  -25.5240  -14.0240   20.2970 C   0  0  0  0  0  0  0  0  0  0  0  0
  -24.4930  -13.2480   20.7560 C   0  0  0  0  0  0  0  0  0  0  0  0
  -24.9220  -11.8940   20.6070 C   0  0  0  0  0  0  0  0  0  0  0  0
  -26.5180  -13.1420   19.9020 N   0  0  0  0  0  0  0  0  0  0  0  0
  -26.1640  -11.8520   20.1410 N   0  0  0  0  0  0  0  0  0  0  0  0
  -24.2000  -10.6330   20.8260 C   0  0  0  0  0  0  0  0  0  0  0  0
  -24.6600   -9.6650   21.7470 C   0  0  0  0  0  3  0  0  0  0  0  0
  -23.9380   -8.4710   21.9520 C   0  0  0  0  0  3  0  0  0  0  0  0
  -22.7410   -8.2330   21.2370 C   0  0  0  0  0  0  0  0  0  0  0  0
  -22.2980   -9.1890   20.3040 C   0  0  0  0  0  3  0  0  0  0  0  0
  -23.0210  -10.3760   20.0970 C   0  0  0  0  0  3  0  0  0  0  0  0
  -21.9870   -7.0900   21.3510 O   0  0  0  0  0  0  0  0  0  0  0  0
  -21.8850   -6.4100   22.5380 C   0  0  0  0  0  0  0  0  0  0  0  0
  -21.4000   -7.0290   23.7120 C   0  0  0  0  0  3  0  0  0  0  0  0
  -21.2430   -6.2740   24.8930 C   0  0  0  0  0  3  0  0  0  0  0  0
  -21.5660   -4.9040   24.9000 C   0  0  0  0  0  0  0  0  0  0  0  0
  -22.0460   -4.2870   23.7330 C   0  0  0  0  0  3  0  0  0  0  0  0
  -22.2030   -5.0380   22.5540 C   0  0  0  0  0  0  0  0  0  0  0  0
  -22.6440   -4.4320   21.4250 F   0  0  0  0  0  0  0  0  0  0  0  0
  -21.4100   -4.1780   26.0320 F   0  0  0  0  0  0  0  0  0  0  0  0
  -23.1460  -13.7300   21.2140 C   0  0  0  0  0  0  0  0  0  0  0  0
  -22.5270  -13.0170   22.1500 N   0  0  0  0  0  0  0  0  0  0  0  0
  -22.6540  -14.7710   20.7800 O   0  0  0  0  0  0  0  0  0  0  0  0
  -22.9410  -12.1760   22.5230 H   0  0  0  0  0  0  0  0  0  0  0  0
  -21.6260  -13.3150   22.4960 H   0  0  0  0  0  0  0  0  0  0  0  0
  -25.6920  -15.3970   20.1590 N   0  0  0  0  0  0  0  0  0  0  0  0
  -24.9570  -16.0610   20.3770 H   0  0  0  0  0  0  0  0  0  0  0  0
  -26.5030  -15.8280   19.7300 H   0  0  0  0  0  0  0  0  0  0  0  0
  -32.2560  -17.9040   20.3730 N   0  0  0  0  0  4  0  0  0  0  0  0
  -32.6250  -18.6780   19.8490 H   0  0  0  0  0  0  0  0  0  0  0  0
  -32.6350  -17.0640   19.9700 H   0  0  0  0  0  0  0  0  0  0  0  0
  -32.5990  -17.9800   21.3150 H   0  0  0  0  0  0  0  0  0  0  0  0
  -29.5420  -21.8330   20.7140 C   0  0  0  0  0  2  0  0  0  0  0  0
  -28.9290  -24.2710   20.4130 C   0  0  0  0  0  0  0  0  0  0  0  0
  -29.4470  -23.1030   19.9460 N   0  0  0  0  0  0  0  0  0  0  0  0
  -28.4550  -24.3520   21.5510 O   0  0  0  0  0  0  0  0  0  0  0  0
  -29.7840  -23.0950   18.9910 H   0  0  0  0  0  0  0  0  0  0  0  0
  -28.9490  -25.5300   19.4920 C   0  0  0  0  0  2  0  0  0  0  0  0
  -28.7080  -26.7820   20.1910 O   0  0  0  0  0  0  0  0  0  0  0  0
  -24.7970  -31.8980   23.2320 C   0  0  0  0  0  0  0  0  0  0  0  0
  -27.5000  -27.4670   20.1420 C   0  0  0  0  0  0  0  0  0  0  0  0
  -23.5990  -30.4820   21.5920 C   0  0  0  0  0  3  0  0  0  0  0  0
  -25.0700  -28.9540   20.1620 C   0  0  0  0  0  0  0  0  0  0  0  0
  -26.1190  -30.8690   21.3840 C   0  0  0  0  0  2  0  0  0  0  0  0
  -26.2230  -29.4960   20.7410 C   0  0  0  0  0  0  0  0  0  0  0  0
  -27.4340  -28.7620   20.7220 C   0  0  0  0  0  3  0  0  0  0  0  0
  -26.3210  -26.9420   19.5630 C   0  0  0  0  0  3  0  0  0  0  0  0
  -25.1150  -27.6760   19.5730 C   0  0  0  0  0  3  0  0  0  0  0  0
  -23.8140  -29.7980   20.2140 C   0  0  0  0  0  2  0  0  0  0  0  0
  -24.8560  -31.1000   22.1270 N   0  0  0  0  0  0  0  0  0  0  0  0
  -23.7160  -32.1560   23.7820 O   0  0  0  0  0  0  0  0  0  0  0  0
  -22.9620  -29.4560   22.5570 C   0  0  0  0  0  0  0  0  0  0  0  0
  -21.6440  -29.2400   22.4180 N   0  0  0  0  0  0  0  0  0  0  0  0
  -23.6510  -28.8580   23.3880 O   0  0  0  0  0  0  0  0  0  0  0  0
  -21.1490  -29.7760   21.7180 H   0  0  0  0  0  0  0  0  0  0  0  0
  -18.3040  -27.9310   22.8600 C   0  0  0  0  0  0  0  0  0  0  0  0
  -20.8430  -28.2870   23.1850 C   0  0  0  0  0  3  0  0  0  0  0  0
  -21.0110  -26.8510   22.6340 C   0  0  0  0  0  2  0  0  0  0  0  0
  -19.9450  -26.4720   21.6010 C   0  0  0  0  0  2  0  0  0  0  0  0
  -18.5450  -26.5780   22.2110 C   0  0  0  0  0  2  0  0  0  0  0  0
  -19.3840  -28.7400   23.3020 C   0  0  0  0  0  0  0  0  0  0  0  0
  -19.1070  -30.0040   23.8670 C   0  0  0  0  0  3  0  0  0  0  0  0
  -17.7820  -30.4620   23.9940 C   0  0  0  0  0  3  0  0  0  0  0  0
  -16.7150  -29.6500   23.5700 C   0  0  0  0  0  3  0  0  0  0  0  0
  -16.9770  -28.3860   23.0080 C   0  0  0  0  0  3  0  0  0  0  0  0
  -26.0780  -32.5420   23.8460 C   0  0  0  0  0  3  0  0  0  0  0  0
  -26.6350  -31.7530   25.0960 C   0  0  1  0  0  0  0  0  0  0  0  0
  -25.5630  -31.4490   26.1680 C   0  0  0  0  0  1  0  0  0  0  0  0
  -27.2580  -30.4070   24.6570 C   0  0  0  0  0  1  0  0  0  0  0  0
  -27.7690  -32.5650   25.7660 C   0  0  0  0  0  1  0  0  0  0  0  0
  -25.7470  -33.9260   24.2140 N   0  0  0  0  0  0  0  0  0  0  0  0
  -26.0380  -35.0020   23.4700 C   0  0  0  0  0  0  0  0  0  0  0  0
  -26.6860  -34.9350   22.4220 O   0  0  0  0  0  0  0  0  0  0  0  0
  -25.1710  -34.0480   25.0340 H   0  0  0  0  0  0  0  0  0  0  0  0
  -24.2550  -36.7540   23.2050 C   0  0  0  0  0  1  0  0  0  0  0  0
  -25.5320  -36.3680   23.9680 C   0  0  0  0  0  3  0  0  0  0  0  0
  -27.6710  -37.2930   24.7440 C   0  0  0  0  0  1  0  0  0  0  0  0
  -26.5340  -37.4500   23.8390 N   0  0  0  0  0  0  0  0  0  0  0  0
  -26.1100  -38.3550   24.0200 H   0  0  0  0  0  0  0  0  0  0  0  0
  1  5  1  0
  2  1  1  0
  2  4  1  0
  2  3  1  0
  4 51  1  0
  4  3  1  0
  5 47  1  6
  5  3  1  0
  5 17  1  0
  6 18  1  0
  7 12  1  0
  8  9  1  0
  8  7  1  0
  9 10  1  0
 10 22  1  0
 10 11  1  0
 12  6  1  0
 12 11  1  0
 13  6  2  0
 15 14  1  0
 16 14  1  0
 17 15  1  0
 18 17  1  0
 18 16  1  0
 19 20  2  0
 20 39  1  0
 21 20  1  0
 21 24  1  0
 22 23  1  0
 22 19  1  0
 23 21  2  0
 24 25  1  0
 25 26  2  0
 27 30  1  0
 27 26  1  0
 28 27  2  0
 29 28  1  0
 29 24  2  0
 30 31  1  0
 31 36  2  0
 31 32  1  0
 32 33  2  0
 33 34  1  0
 34 38  1  0
 35 34  2  0
 36 35  1  0
 37 36  1  0
 39 40  1  0
 40 43  1  0
 40 42  1  0
 41 39  2  0
 44 19  1  0
 44 45  1  0
 46 44  1  0
 47 50  1  0
 48 47  1  0
 49 47  1  0
 52 54  2  0
 53 52  1  0
 53 51  1  0
 55 53  1  0
 56 57  1  0
 56 52  1  0
 58 69  2  0
 58 84  1  0
 59 57  1  0
 59 64  1  0
 60 68  1  0
 60 70  1  0
 61 67  1  0
 61 63  1  0
 62 68  1  0
 63 62  1  0
 64 63  2  0
 65 66  1  0
 65 59  2  0
 66 61  2  0
 67 60  1  0
 68 58  1  0
 70 72  2  0
 71 70  1  0
 71 75  1  0
 73 71  1  0
 74 83  2  0
 74 79  1  0
 75 79  1  0
 76 75  1  0
 77 78  1  0
 77 76  1  0
 78 74  1  0
 79 80  2  0
 80 81  1  0
 82 81  2  0
 83 82  1  0
 84 89  1  0
 84 85  1  0
 85 88  1  1
 85 86  1  0
 87 85  1  0
 89 92  1  0
 90 94  1  0
 90 89  1  0
 91 90  2  0
 93 94  1  0
 96 94  1  0
 96 97  1  0
 96 95  1  0
M  ISO  4   6 100  18 100  56 101  57 101
M  END
>  <TORSDO>  (36) 
F 20

>  <SCORE>  (36) 
-10.592

>  <name>  (36) 
35

>  <ligand_id>  (36) 
35

>  <original_smiles>  (36) 
[H]c1c([H])c([H])c2c(c1[H])C([H])([H])C([H])([H])C([H])([H])C2([H])N([H])C(=O)C1([H])N(C(=O)C([H])(N([H])C(=O)C([H])(N([H])C([H])([H])[H])C([H])([H])[H])C(C([H])([H])[H])(C([H])([H])[H])C([H])([H])[H])C([H])([H])c2c([H])c(OC([H])([H])C(=O)N([H])C([H])([H])C3([H])C4([H])C([H])([H])C(C5([H])N(C(=O)N6C([H])([H])C([H])([H])C([H])([H])C([H])(n7nc(-c8c([H])c([H])c(Oc9c([H])c([H])c(F)c([H])c9F)c([H])c8[H])c(C(=O)N([H])[H])c7N([H])[H])C6([H])[H])C([H])([H])C([H])([H])C5([H])[H])([N+]([H])([H])[H])C34[H])c([H])c([H])c2C1([H])[H]

>  <smiles>  (36) 
[H]c1c([H])c([H])c2c(c1[H])C([H])([H])C([H])([H])C([H])([H])C2([H])N([H])C(=O)C1([H])N(C(=O)C([H])(N([H])C(=O)C([H])(N([H])C([H])([H])[H])C([H])([H])[H])C(C([H])([H])[H])(C([H])([H])[H])C([H])([H])[H])C([H])([H])c2c([H])c(OC([H])([H])C(=O)N([H])C([H])([H])C3([H])C4([H])C([H])([H])C(C5([H])N(C(=O)N6C([H])([H])C([H])([H])C([H])([H])C([H])(n7nc(-c8c([H])c([H])c(Oc9c([H])c([H])c(F)c([H])c9F)c([H])c8[H])c(C(=O)N([H])[H])c7N([H])[H])C6([H])[H])C([H])([H])C([H])([H])C5([H])[H])([N+]([H])([H])[H])C34[H])c([H])c([H])c2C1([H])[H]

$$$$
36:0:0
     RDKit          3D

 91100  0  0  1  0  0  0  0  0999 V2000
  -30.0890  -19.9710   19.4260 C   0  0  0  0  0  0  0  0  0  0  0  0
  -29.7740  -21.1340   20.1010 N   0  0  0  0  0  0  0  0  0  0  0  0
  -30.1550  -19.9900   18.1960 O   0  0  0  0  0  0  0  0  0  0  0  0
  -29.7840  -21.0720   21.1110 H   0  0  0  0  0  0  0  0  0  0  0  0
  -30.7640  -14.7160   19.6810 C   0  0  0  0  0  0  0  0  0  0  0  0
  -30.4360  -12.5280   18.5020 C   0  0  0  0  0  2  0  0  0  0  0  0
  -29.3410  -12.6910   17.4210 C   0  0  0  0  0  2  0  0  0  0  0  0
  -27.9240  -12.5220   18.0110 C   0  0  0  0  0  2  0  0  0  0  0  0
  -27.7400  -13.2970   19.3440 C   0  0  0  0  0  3  0  0  0  0  0  0
  -28.9300  -12.9940   20.2870 C   0  0  0  0  0  2  0  0  0  0  0  0
  -30.1360  -13.4820   19.5990 N   0  0  0  0  0  0  0  0  0  0  0  0
  -31.8600  -14.8550   19.1240 O   0  0  0  0  0  0  0  0  0  0  0  0
  -29.3880  -18.4520   21.3920 C   0  0  0  0  0  2  0  0  0  0  0  0
  -28.3840  -17.3840   19.4720 C   0  0  0  0  0  2  0  0  0  0  0  0
  -29.1040  -15.9720   21.2010 C   0  0  0  0  0  2  0  0  0  0  0  0
  -30.3220  -18.5640   20.1650 C   0  0  0  0  0  3  0  0  0  0  0  0
  -28.4220  -17.3250   20.9950 C   0  0  0  0  0  3  0  0  0  0  0  0
  -29.8990  -17.2160   19.3670 C   0  0  0  0  0  3  0  0  0  0  0  0
  -30.0380  -15.8550   20.0640 N   0  0  0  0  0  0  0  0  0  0  0  0
  -25.4480  -13.9200   20.3330 C   0  0  0  0  0  0  0  0  0  0  0  0
  -24.4100  -13.1530   20.7860 C   0  0  0  0  0  0  0  0  0  0  0  0
  -24.8330  -11.7960   20.6470 C   0  0  0  0  0  0  0  0  0  0  0  0
  -26.4440  -13.0290   19.9580 N   0  0  0  0  0  0  0  0  0  0  0  0
  -26.0820  -11.7440   20.1990 N   0  0  0  0  0  0  0  0  0  0  0  0
  -24.1020  -10.5430   20.8620 C   0  0  0  0  0  0  0  0  0  0  0  0
  -24.5690   -9.5640   21.7660 C   0  0  0  0  0  3  0  0  0  0  0  0
  -23.8390   -8.3740   21.9700 C   0  0  0  0  0  3  0  0  0  0  0  0
  -22.6290   -8.1540   21.2690 C   0  0  0  0  0  0  0  0  0  0  0  0
  -22.1810   -9.1230   20.3530 C   0  0  0  0  0  3  0  0  0  0  0  0
  -22.9120  -10.3040   20.1470 C   0  0  0  0  0  3  0  0  0  0  0  0
  -21.8660   -7.0170   21.3840 O   0  0  0  0  0  0  0  0  0  0  0  0
  -21.7870   -6.3210   22.5640 C   0  0  0  0  0  0  0  0  0  0  0  0
  -21.3110   -6.9190   23.7510 C   0  0  0  0  0  3  0  0  0  0  0  0
  -21.1800   -6.1490   24.9240 C   0  0  0  0  0  3  0  0  0  0  0  0
  -21.5160   -4.7820   24.9100 C   0  0  0  0  0  0  0  0  0  0  0  0
  -21.9860   -4.1840   23.7270 C   0  0  0  0  0  3  0  0  0  0  0  0
  -22.1180   -4.9520   22.5570 C   0  0  0  0  0  0  0  0  0  0  0  0
  -22.5510   -4.3660   21.4140 F   0  0  0  0  0  0  0  0  0  0  0  0
  -21.3830   -4.0390   26.0330 F   0  0  0  0  0  0  0  0  0  0  0  0
  -23.0640  -13.6460   21.2340 C   0  0  0  0  0  0  0  0  0  0  0  0
  -22.4240  -12.9320   22.1530 N   0  0  0  0  0  0  0  0  0  0  0  0
  -22.5920  -14.6990   20.8060 O   0  0  0  0  0  0  0  0  0  0  0  0
  -22.8200  -12.0780   22.5200 H   0  0  0  0  0  0  0  0  0  0  0  0
  -21.5260  -13.2430   22.4960 H   0  0  0  0  0  0  0  0  0  0  0  0
  -25.6130  -15.2930   20.1920 N   0  0  0  0  0  0  0  0  0  0  0  0
  -24.8720  -15.9480   20.4150 H   0  0  0  0  0  0  0  0  0  0  0  0
  -26.4410  -15.7400   19.8220 H   0  0  0  0  0  0  0  0  0  0  0  0
  -29.1400  -22.3840   19.5150 C   0  0  0  0  0  2  0  0  0  0  0  0
  -29.2270  -23.7970   20.2740 C   0  0  0  0  0  3  0  0  0  0  0  0
  -28.2270  -24.9470   19.7660 C   0  0  0  0  0  3  0  0  0  0  0  0
  -28.3360  -26.3660   20.2090 O   0  0  0  0  0  0  0  0  0  0  0  0
  -24.5180  -31.7410   23.1890 C   0  0  0  0  0  0  0  0  0  0  0  0
  -27.2020  -27.2050   20.1380 C   0  0  0  0  0  0  0  0  0  0  0  0
  -23.3340  -30.3200   21.5550 C   0  0  0  0  0  3  0  0  0  0  0  0
  -24.8070  -28.7890   20.1290 C   0  0  0  0  0  0  0  0  0  0  0  0
  -25.8700  -30.6720   21.3710 C   0  0  0  0  0  2  0  0  0  0  0  0
  -25.9690  -29.2920   20.7280 C   0  0  0  0  0  0  0  0  0  0  0  0
  -27.1650  -28.5110   20.7250 C   0  0  0  0  0  3  0  0  0  0  0  0
  -26.0150  -26.7680   19.5010 C   0  0  0  0  0  3  0  0  0  0  0  0
  -24.8340  -27.5320   19.5090 C   0  0  0  0  0  3  0  0  0  0  0  0
  -23.5570  -29.6440   20.1760 C   0  0  0  0  0  2  0  0  0  0  0  0
  -24.5920  -30.9290   22.0950 N   0  0  0  0  0  0  0  0  0  0  0  0
  -23.4320  -32.0050   23.7240 O   0  0  0  0  0  0  0  0  0  0  0  0
  -22.6870  -29.2960   22.5190 C   0  0  0  0  0  0  0  0  0  0  0  0
  -21.3660  -29.0890   22.3850 N   0  0  0  0  0  0  0  0  0  0  0  0
  -23.3730  -28.6930   23.3480 O   0  0  0  0  0  0  0  0  0  0  0  0
  -20.8710  -29.6280   21.6890 H   0  0  0  0  0  0  0  0  0  0  0  0
  -18.0100  -27.8330   22.8820 C   0  0  0  0  0  0  0  0  0  0  0  0
  -20.5620  -28.1400   23.1580 C   0  0  0  0  0  3  0  0  0  0  0  0
  -20.6910  -26.7070   22.5910 C   0  0  0  0  0  2  0  0  0  0  0  0
  -19.5990  -26.3590   21.5750 C   0  0  0  0  0  2  0  0  0  0  0  0
  -18.2130  -26.4830   22.2140 C   0  0  0  0  0  2  0  0  0  0  0  0
  -19.1130  -28.6180   23.3110 C   0  0  0  0  0  0  0  0  0  0  0  0
  -18.8690  -29.8790   23.8960 C   0  0  0  0  0  3  0  0  0  0  0  0
  -17.5540  -30.3570   24.0540 C   0  0  0  0  0  3  0  0  0  0  0  0
  -16.4650  -29.5700   23.6410 C   0  0  0  0  0  3  0  0  0  0  0  0
  -16.6950  -28.3090   23.0610 C   0  0  0  0  0  3  0  0  0  0  0  0
  -25.7920  -32.3950   23.8070 C   0  0  0  0  0  3  0  0  0  0  0  0
  -26.3110  -31.6450   25.0950 C   0  0  1  0  0  0  0  0  0  0  0  0
  -25.2150  -31.4040   26.1590 C   0  0  0  0  0  1  0  0  0  0  0  0
  -26.9170  -30.2720   24.7240 C   0  0  0  0  0  1  0  0  0  0  0  0
  -27.4470  -32.4640   25.7550 C   0  0  0  0  0  1  0  0  0  0  0  0
  -25.4660  -33.7940   24.1200 N   0  0  0  0  0  0  0  0  0  0  0  0
  -25.7660  -34.8390   23.3380 C   0  0  0  0  0  0  0  0  0  0  0  0
  -26.4160  -34.7290   22.2950 O   0  0  0  0  0  0  0  0  0  0  0  0
  -24.8840  -33.9520   24.9310 H   0  0  0  0  0  0  0  0  0  0  0  0
  -23.9920  -36.5920   23.0060 C   0  0  0  0  0  1  0  0  0  0  0  0
  -25.2660  -36.2280   23.7840 C   0  0  0  0  0  3  0  0  0  0  0  0
  -27.4040  -37.1770   24.5320 C   0  0  0  0  0  1  0  0  0  0  0  0
  -26.2740  -37.2970   23.6150 N   0  0  0  0  0  0  0  0  0  0  0  0
  -25.8530  -38.2130   23.7480 H   0  0  0  0  0  0  0  0  0  0  0  0
  1  2  1  0
  2  4  1  0
  3  1  2  0
  5 19  1  0
  6 11  1  0
  7  8  1  0
  7  6  1  0
  9  8  1  0
  9 23  1  0
  9 10  1  0
 11  5  1  0
 11 10  1  0
 12  5  2  0
 16  1  1  0
 16 13  1  0
 17 14  1  0
 17 15  1  0
 17 13  1  0
 18 14  1  0
 18 19  1  0
 18 16  1  0
 19 15  1  0
 20 21  2  0
 21 40  1  0
 22 21  1  0
 22 25  1  0
 23 24  1  0
 23 20  1  0
 24 22  2  0
 25 26  1  0
 26 27  2  0
 28 31  1  0
 28 27  1  0
 29 28  2  0
 30 29  1  0
 30 25  2  0
 31 32  1  0
 32 33  1  0
 33 34  2  0
 35 34  1  0
 35 39  1  0
 36 35  2  0
 37 32  2  0
 37 36  1  0
 38 37  1  0
 40 41  1  0
 41 44  1  0
 41 43  1  0
 42 40  2  0
 45 20  1  0
 45 46  1  0
 47 45  1  0
 48  2  1  0
 48 49  1  0
 50 51  1  0
 50 49  2  0
 52 63  2  0
 53 51  1  0
 53 58  1  0
 54 62  1  0
 54 64  1  0
 55 61  1  0
 55 57  1  0
 56 62  1  0
 57 56  1  0
 58 57  2  0
 59 60  1  0
 59 53  2  0
 60 55  2  0
 61 54  1  0
 62 52  1  0
 64 66  2  0
 65 64  1  0
 67 65  1  0
 68 77  2  0
 68 73  1  0
 69 65  1  0
 69 73  1  0
 70 69  1  0
 71 72  1  0
 71 70  1  0
 72 68  1  0
 73 74  2  0
 74 75  1  0
 76 75  2  0
 77 76  1  0
 78 52  1  0
 78 83  1  0
 78 79  1  0
 79 82  1  1
 79 80  1  0
 81 79  1  0
 83 86  1  0
 84 88  1  0
 84 83  1  0
 85 84  2  0
 88 87  1  0
 90 91  1  0
 90 88  1  0
 90 89  1  0
M  ISO  4   5 100  19 100  50 101  51 101
M  END
>  <TORSDO>  (37) 
F 19

>  <SCORE>  (37) 
-12.655

>  <name>  (37) 
36

>  <ligand_id>  (37) 
36

>  <original_smiles>  (37) 
[H]c1c([H])c([H])c2c(c1[H])C([H])([H])C([H])([H])C([H])([H])C2([H])N([H])C(=O)C1([H])N(C(=O)C([H])(N([H])C(=O)C([H])(N([H])C([H])([H])[H])C([H])([H])[H])C(C([H])([H])[H])(C([H])([H])[H])C([H])([H])[H])C([H])([H])c2c([H])c(OC([H])([H])C([H])([H])C([H])([H])N([H])C(=O)C3([H])C([H])([H])C4([H])C([H])([H])N(C(=O)N5C([H])([H])C([H])([H])C([H])([H])C([H])(n6nc(-c7c([H])c([H])c(Oc8c([H])c([H])c(F)c([H])c8F)c([H])c7[H])c(C(=O)N([H])[H])c6N([H])[H])C5([H])[H])C3([H])C4([H])[H])c([H])c([H])c2C1([H])[H]

>  <smiles>  (37) 
[H]c1c([H])c([H])c2c(c1[H])C([H])([H])C([H])([H])C([H])([H])C2([H])N([H])C(=O)C1([H])N(C(=O)C([H])(N([H])C(=O)C([H])(N([H])C([H])([H])[H])C([H])([H])[H])C(C([H])([H])[H])(C([H])([H])[H])C([H])([H])[H])C([H])([H])c2c([H])c(OC([H])([H])C([H])([H])C([H])([H])N([H])C(=O)C3([H])C([H])([H])C4([H])C([H])([H])N(C(=O)N5C([H])([H])C([H])([H])C([H])([H])C([H])(n6nc(-c7c([H])c([H])c(Oc8c([H])c([H])c(F)c([H])c8F)c([H])c7[H])c(C(=O)N([H])[H])c6N([H])[H])C5([H])[H])C3([H])C4([H])[H])c([H])c([H])c2C1([H])[H]

$$$$
37:0:0
     RDKit          3D

 94103  0  0  1  0  0  0  0  0999 V2000
  -30.5170  -15.0990   20.3500 C   0  0  0  0  0  0  0  0  0  0  0  0
  -30.3530  -12.7460   19.4070 C   0  0  0  0  0  2  0  0  0  0  0  0
  -29.4220  -12.6520   18.1790 C   0  0  0  0  0  2  0  0  0  0  0  0
  -27.9670  -12.4260   18.6260 C   0  0  0  0  0  2  0  0  0  0  0  0
  -27.5500  -13.3630   19.7900 C   0  0  0  0  0  3  0  0  0  0  0  0
  -28.6110  -13.4420   20.9050 C   0  0  0  0  0  2  0  0  0  0  0  0
  -29.8560  -13.8710   20.2570 N   0  0  0  0  0  0  0  0  0  0  0  0
  -31.7480  -15.0160   20.2540 O   0  0  0  0  0  0  0  0  0  0  0  0
  -28.7720  -18.2070   18.9670 C   0  0  0  0  0  2  0  0  0  0  0  0
  -31.2080  -17.4780   18.5890 C   0  0  0  0  0  2  0  0  0  0  0  0
  -29.4170  -19.1750   19.9810 C   0  0  0  0  0  3  0  0  0  0  0  0
  -29.7560  -16.9740   18.8860 C   0  0  0  0  0  3  0  0  0  0  0  0
  -30.2670  -17.8890   20.6940 C   0  0  0  0  0  3  0  0  0  0  0  0
  -31.6310  -18.0630   19.9650 C   0  0  0  0  0  3  0  0  0  0  0  0
  -29.8700  -16.4070   20.2420 N   0  0  0  0  0  0  0  0  0  0  0  0
  -25.1780  -13.9180   20.5530 C   0  0  0  0  0  0  0  0  0  0  0  0
  -24.1190  -13.1350   20.9160 C   0  0  0  0  0  0  0  0  0  0  0  0
  -24.5900  -11.7860   20.8770 C   0  0  0  0  0  0  0  0  0  0  0  0
  -26.2240  -13.0470   20.3040 N   0  0  0  0  0  0  0  0  0  0  0  0
  -25.8830  -11.7590   20.5680 N   0  0  0  0  0  0  0  0  0  0  0  0
  -23.8690  -10.5190   21.0570 C   0  0  0  0  0  0  0  0  0  0  0  0
  -24.3000   -9.5470   21.9870 C   0  0  0  0  0  3  0  0  0  0  0  0
  -23.5750   -8.3480   22.1580 C   0  0  0  0  0  3  0  0  0  0  0  0
  -22.4060   -8.1110   21.3980 C   0  0  0  0  0  0  0  0  0  0  0  0
  -21.9920   -9.0720   20.4590 C   0  0  0  0  0  3  0  0  0  0  0  0
  -22.7170  -10.2630   20.2850 C   0  0  0  0  0  3  0  0  0  0  0  0
  -21.6530   -6.9640   21.4790 O   0  0  0  0  0  0  0  0  0  0  0  0
  -21.5950   -6.2200   22.6300 C   0  0  0  0  0  0  0  0  0  0  0  0
  -21.1500   -6.7690   23.8510 C   0  0  0  0  0  3  0  0  0  0  0  0
  -21.0410   -5.9500   24.9930 C   0  0  0  0  0  3  0  0  0  0  0  0
  -21.3660   -4.5840   24.9150 C   0  0  0  0  0  0  0  0  0  0  0  0
  -21.8050   -4.0330   23.6970 C   0  0  0  0  0  3  0  0  0  0  0  0
  -21.9160   -4.8480   22.5570 C   0  0  0  0  0  0  0  0  0  0  0  0
  -22.3170   -4.3090   21.3810 F   0  0  0  0  0  0  0  0  0  0  0  0
  -21.2550   -3.7950   26.0090 F   0  0  0  0  0  0  0  0  0  0  0  0
  -22.7200  -13.6040   21.1850 C   0  0  0  0  0  0  0  0  0  0  0  0
  -21.9930  -12.9010   22.0450 N   0  0  0  0  0  0  0  0  0  0  0  0
  -22.2810  -14.6310   20.6700 O   0  0  0  0  0  0  0  0  0  0  0  0
  -22.3600  -12.0700   22.4840 H   0  0  0  0  0  0  0  0  0  0  0  0
  -21.0530  -13.1980   22.2690 H   0  0  0  0  0  0  0  0  0  0  0  0
  -25.3380  -15.2900   20.3870 N   0  0  0  0  0  0  0  0  0  0  0  0
  -24.5710  -15.9420   20.5080 H   0  0  0  0  0  0  0  0  0  0  0  0
  -26.1930  -15.7370   20.0820 H   0  0  0  0  0  0  0  0  0  0  0  0
  -32.7840  -17.3930   20.5950 N   0  0  0  0  0  4  0  0  0  0  0  0
  -32.9140  -17.7030   21.5420 H   0  0  0  0  0  0  0  0  0  0  0  0
  -33.6260  -17.5820   20.0830 H   0  0  0  0  0  0  0  0  0  0  0  0
  -32.6210  -16.3890   20.5850 H   0  0  0  0  0  0  0  0  0  0  0  0
  -28.4800  -20.4900   20.5440 C   0  0  0  0  0  2  0  0  0  0  0  0
  -28.2810  -23.2680   20.1440 C   0  0  0  0  0  0  0  0  0  0  0  0
  -28.8210  -22.0530   20.6890 N   0  0  0  0  0  0  0  0  0  0  0  0
  -27.7600  -23.2040   19.0290 O   0  0  0  0  0  0  0  0  0  0  0  0
  -29.3350  -22.2400   21.5420 H   0  0  0  0  0  0  0  0  0  0  0  0
  -28.1570  -24.7490   20.9310 C   0  0  0  0  0  2  0  0  0  0  0  0
  -28.2600  -26.1840   20.2890 O   0  0  0  0  0  0  0  0  0  0  0  0
  -24.6020  -31.9440   23.2550 C   0  0  0  0  0  0  0  0  0  0  0  0
  -27.2010  -27.1700   20.3120 C   0  0  0  0  0  0  0  0  0  0  0  0
  -23.4180  -30.5300   21.6200 C   0  0  0  0  0  3  0  0  0  0  0  0
  -24.8790  -28.9310   20.2320 C   0  0  0  0  0  0  0  0  0  0  0  0
  -25.9760  -30.7880   21.4760 C   0  0  0  0  0  2  0  0  0  0  0  0
  -26.0560  -29.3830   20.8450 C   0  0  0  0  0  0  0  0  0  0  0  0
  -27.2220  -28.5220   20.8580 C   0  0  0  0  0  3  0  0  0  0  0  0
  -25.9970  -26.8200   19.6700 C   0  0  0  0  0  3  0  0  0  0  0  0
  -24.8640  -27.6630   19.6290 C   0  0  0  0  0  3  0  0  0  0  0  0
  -23.6550  -29.8350   20.2520 C   0  0  0  0  0  2  0  0  0  0  0  0
  -24.6850  -31.1110   22.1720 N   0  0  0  0  0  0  0  0  0  0  0  0
  -23.5100  -32.2320   23.7700 O   0  0  0  0  0  0  0  0  0  0  0  0
  -22.7300  -29.5350   22.5870 C   0  0  0  0  0  0  0  0  0  0  0  0
  -21.4030  -29.3610   22.4500 N   0  0  0  0  0  0  0  0  0  0  0  0
  -23.3930  -28.9190   23.4260 O   0  0  0  0  0  0  0  0  0  0  0  0
  -20.9230  -29.9090   21.7490 H   0  0  0  0  0  0  0  0  0  0  0  0
  -18.0190  -28.1600   22.9370 C   0  0  0  0  0  0  0  0  0  0  0  0
  -20.5750  -28.4300   23.2230 C   0  0  0  0  0  3  0  0  0  0  0  0
  -20.6850  -26.9920   22.6650 C   0  0  0  0  0  2  0  0  0  0  0  0
  -19.5920  -26.6570   21.6450 C   0  0  0  0  0  2  0  0  0  0  0  0
  -18.2050  -26.8050   22.2750 C   0  0  0  0  0  2  0  0  0  0  0  0
  -19.1330  -28.9290   23.3680 C   0  0  0  0  0  0  0  0  0  0  0  0
  -18.9040  -30.1960   23.9500 C   0  0  0  0  0  3  0  0  0  0  0  0
  -17.5960  -30.6930   24.1020 C   0  0  0  0  0  3  0  0  0  0  0  0
  -16.4980  -29.9210   23.6860 C   0  0  0  0  0  3  0  0  0  0  0  0
  -16.7100  -28.6570   23.1100 C   0  0  0  0  0  3  0  0  0  0  0  0
  -25.8720  -32.5890   23.8890 C   0  0  0  0  0  3  0  0  0  0  0  0
  -26.3670  -31.8390   25.1870 C   0  0  1  0  0  0  0  0  0  0  0  0
  -25.2580  -31.6220   26.2430 C   0  0  0  0  0  1  0  0  0  0  0  0
  -26.9520  -30.4530   24.8330 C   0  0  0  0  0  1  0  0  0  0  0  0
  -27.5110  -32.6410   25.8520 C   0  0  0  0  0  1  0  0  0  0  0  0
  -25.5570  -33.9930   24.1990 N   0  0  0  0  0  0  0  0  0  0  0  0
  -25.8960  -35.0410   23.4360 C   0  0  0  0  0  0  0  0  0  0  0  0
  -26.5740  -34.9270   22.4120 O   0  0  0  0  0  0  0  0  0  0  0  0
  -24.9560  -34.1540   24.9940 H   0  0  0  0  0  0  0  0  0  0  0  0
  -24.1760  -36.8380   23.0540 C   0  0  0  0  0  1  0  0  0  0  0  0
  -25.4090  -36.4350   23.8780 C   0  0  0  0  0  3  0  0  0  0  0  0
  -27.5370  -37.3240   24.7220 C   0  0  0  0  0  1  0  0  0  0  0  0
  -26.4450  -37.4850   23.7660 N   0  0  0  0  0  0  0  0  0  0  0  0
  -26.0400  -38.4070   23.8990 H   0  0  0  0  0  0  0  0  0  0  0  0
  2  7  1  0
  3  4  1  0
  3  2  1  0
  5  4  1  0
  5 19  1  0
  5  6  1  0
  7  1  1  0
  7  6  1  0
  8  1  2  0
  9 11  1  0
 10 14  1  0
 11 48  1  0
 11 13  1  0
 12 10  1  0
 12  9  1  0
 12 15  1  0
 13 15  1  0
 14 44  1  0
 14 13  1  0
 15  1  1  0
 16 17  2  0
 17 36  1  0
 18 17  1  0
 18 21  1  0
 19 16  1  0
 19 20  1  0
 20 18  2  0
 21 22  1  0
 22 23  2  0
 24 27  1  0
 24 23  1  0
 25 24  2  0
 26 25  1  0
 26 21  2  0
 27 28  1  0
 28 29  1  0
 29 30  2  0
 31 30  1  0
 31 35  1  0
 32 31  2  0
 33 28  2  0
 33 32  1  0
 34 33  1  0
 36 37  1  0
 37 40  1  0
 37 39  1  0
 38 36  2  0
 41 42  1  0
 41 16  1  0
 43 41  1  0
 44 45  1  0
 46 44  1  0
 47 44  1  0
 48 50  1  0
 49 50  1  0
 49 53  1  0
 50 52  1  0
 51 49  2  0
 54 56  1  0
 54 53  1  0
 55 66  2  0
 56 61  1  0
 57 65  1  0
 57 67  1  0
 58 64  1  0
 58 60  1  0
 59 65  1  0
 60 61  2  0
 60 59  1  0
 62 56  2  0
 63 62  1  0
 63 58  2  0
 64 57  1  0
 65 55  1  0
 67 69  2  0
 68 67  1  0
 70 68  1  0
 71 80  2  0
 71 76  1  0
 72 68  1  0
 72 76  1  0
 73 72  1  0
 74 75  1  0
 74 73  1  0
 75 71  1  0
 76 77  2  0
 77 78  1  0
 79 78  2  0
 80 79  1  0
 81 55  1  0
 81 86  1  0
 81 82  1  0
 82 85  1  1
 82 83  1  0
 84 82  1  0
 86 89  1  0
 87 91  1  0
 87 86  1  0
 88 87  2  0
 91 90  1  0
 93 91  1  0
 93 94  1  0
 93 92  1  0
M  ISO  4   1 100  15 100  53 101  54 101
M  END
>  <TORSDO>  (38) 
F 19

>  <SCORE>  (38) 
-15.049

>  <name>  (38) 
37

>  <ligand_id>  (38) 
37

>  <original_smiles>  (38) 
[H]c1c([H])c([H])c2c(c1[H])C([H])([H])C([H])([H])C([H])([H])C2([H])N([H])C(=O)C1([H])N(C(=O)C([H])(N([H])C(=O)C([H])(N([H])C([H])([H])[H])C([H])([H])[H])C(C([H])([H])[H])(C([H])([H])[H])C([H])([H])[H])C([H])([H])c2c([H])c(OC([H])([H])C(=O)N([H])C([H])([H])C3([H])C([H])([H])C4([H])N(C(=O)N5C([H])([H])C([H])([H])C([H])([H])C([H])(n6nc(-c7c([H])c([H])c(Oc8c([H])c([H])c(F)c([H])c8F)c([H])c7[H])c(C(=O)N([H])[H])c6N([H])[H])C5([H])[H])C3([H])C([H])([N+]([H])([H])[H])C4([H])[H])c([H])c([H])c2C1([H])[H]

>  <smiles>  (38) 
[H]c1c([H])c([H])c2c(c1[H])C([H])([H])C([H])([H])C([H])([H])C2([H])N([H])C(=O)C1([H])N(C(=O)C([H])(N([H])C(=O)C([H])(N([H])C([H])([H])[H])C([H])([H])[H])C(C([H])([H])[H])(C([H])([H])[H])C([H])([H])[H])C([H])([H])c2c([H])c(OC([H])([H])C(=O)N([H])C([H])([H])C3([H])C([H])([H])C4([H])N(C(=O)N5C([H])([H])C([H])([H])C([H])([H])C([H])(n6nc(-c7c([H])c([H])c(Oc8c([H])c([H])c(F)c([H])c8F)c([H])c7[H])c(C(=O)N([H])[H])c6N([H])[H])C5([H])[H])C3([H])C([H])([N+]([H])([H])[H])C4([H])[H])c([H])c([H])c2C1([H])[H]

$$$$
38:0:0
     RDKit          3D

 97106  0  0  1  0  0  0  0  0999 V2000
  -27.8950  -20.3110   18.4270 N   0  0  0  0  0  4  0  0  0  0  0  0
  -28.2990  -19.9090   17.5980 H   0  0  0  0  0  0  0  0  0  0  0  0
  -28.6480  -20.4370   19.0900 H   0  0  0  0  0  0  0  0  0  0  0  0
  -26.0680  -17.8890   20.0020 C   0  0  0  0  0  2  0  0  0  0  0  0
  -28.5580  -18.3920   20.7150 C   0  0  0  0  0  2  0  0  0  0  0  0
  -28.1580  -17.1500   18.5910 C   0  0  0  0  0  2  0  0  0  0  0  0
  -27.1310  -18.9290   20.4400 C   0  0  0  0  0  3  0  0  0  0  0  0
  -26.8260  -17.9510   18.6440 C   0  0  0  0  0  3  0  0  0  0  0  0
  -28.7610  -17.0210   20.0240 C   0  0  0  0  0  3  0  0  0  0  0  0
  -26.8480  -19.4540   19.0180 C   0  0  0  0  0  3  0  0  0  0  0  0
  -30.2000  -16.4540   20.1370 C   0  0  0  0  0  2  0  0  0  0  0  0
  -30.9140  -14.0790   20.0440 C   0  0  0  0  0  0  0  0  0  0  0  0
  -30.6760  -11.8320   19.0760 C   0  0  0  0  0  2  0  0  0  0  0  0
  -29.6950  -11.9250   17.8830 C   0  0  0  0  0  2  0  0  0  0  0  0
  -28.2280  -11.8310   18.3590 C   0  0  0  0  0  2  0  0  0  0  0  0
  -27.9160  -12.7710   19.5560 C   0  0  0  0  0  3  0  0  0  0  0  0
  -28.9840  -12.5700   20.6490 C   0  0  0  0  0  2  0  0  0  0  0  0
  -30.3030  -12.8660   20.0530 N   0  0  0  0  0  0  0  0  0  0  0  0
  -31.9720  -14.3140   19.4510 O   0  0  0  0  0  0  0  0  0  0  0  0
  -30.1740  -15.0560   20.5780 N   0  0  0  0  0  0  0  0  0  0  0  0
  -29.4360  -14.7680   21.2070 H   0  0  0  0  0  0  0  0  0  0  0  0
  -25.5390  -13.4570   20.2940 C   0  0  0  0  0  0  0  0  0  0  0  0
  -24.4770  -12.7220   20.7280 C   0  0  0  0  0  0  0  0  0  0  0  0
  -24.9190  -11.3640   20.7280 C   0  0  0  0  0  0  0  0  0  0  0  0
  -26.5700  -12.5590   20.0730 N   0  0  0  0  0  0  0  0  0  0  0  0
  -26.1920  -11.2920   20.3740 N   0  0  0  0  0  0  0  0  0  0  0  0
  -24.1820  -10.1230   20.9780 C   0  0  0  0  0  0  0  0  0  0  0  0
  -24.5710   -9.2200   21.9940 C   0  0  0  0  0  3  0  0  0  0  0  0
  -23.8320   -8.0400   22.2200 C   0  0  0  0  0  3  0  0  0  0  0  0
  -22.6890   -7.7560   21.4340 C   0  0  0  0  0  0  0  0  0  0  0  0
  -22.3220   -8.6470   20.4100 C   0  0  0  0  0  3  0  0  0  0  0  0
  -23.0640   -9.8180   20.1830 C   0  0  0  0  0  3  0  0  0  0  0  0
  -21.9290   -6.6220   21.5670 O   0  0  0  0  0  0  0  0  0  0  0  0
  -21.7730   -6.0030   22.7820 C   0  0  0  0  0  0  0  0  0  0  0  0
  -21.2190   -6.6750   23.8930 C   0  0  0  0  0  3  0  0  0  0  0  0
  -21.0190   -5.9840   25.1050 C   0  0  0  0  0  3  0  0  0  0  0  0
  -21.3560   -4.6210   25.2020 C   0  0  0  0  0  0  0  0  0  0  0  0
  -21.9070   -3.9490   24.0950 C   0  0  0  0  0  3  0  0  0  0  0  0
  -22.1120   -4.6400   22.8880 C   0  0  0  0  0  0  0  0  0  0  0  0
  -22.6240   -3.9870   21.8170 F   0  0  0  0  0  0  0  0  0  0  0  0
  -21.1540   -3.9530   26.3600 F   0  0  0  0  0  0  0  0  0  0  0  0
  -23.0970  -13.2360   21.0330 C   0  0  0  0  0  0  0  0  0  0  0  0
  -22.4060  -12.5960   21.9650 N   0  0  0  0  0  0  0  0  0  0  0  0
  -22.6540  -14.2450   20.4850 O   0  0  0  0  0  0  0  0  0  0  0  0
  -22.7840  -11.7800   22.4310 H   0  0  0  0  0  0  0  0  0  0  0  0
  -21.4880  -12.9240   22.2290 H   0  0  0  0  0  0  0  0  0  0  0  0
  -25.6950  -14.8110   20.0440 N   0  0  0  0  0  0  0  0  0  0  0  0
  -24.8980  -15.4320   20.0890 H   0  0  0  0  0  0  0  0  0  0  0  0
  -26.4740  -15.2130   19.5410 H   0  0  0  0  0  0  0  0  0  0  0  0
  -27.3990  -21.6540   18.0890 C   0  0  0  0  0  2  0  0  0  0  0  0
  -28.5330  -22.6580   18.1000 C   0  0  0  0  0  0  0  0  0  0  0  0
  -28.1980  -23.8640   18.5490 N   0  0  0  0  0  0  0  0  0  0  0  0
  -29.6740  -22.3420   17.7590 O   0  0  0  0  0  0  0  0  0  0  0  0
  -27.2290  -23.9980   18.8070 H   0  0  0  0  0  0  0  0  0  0  0  0
  -29.0950  -24.9420   18.9050 C   0  0  0  0  0  2  0  0  0  0  0  0
  -28.7390  -25.4140   20.3200 C   0  0  0  0  0  2  0  0  0  0  0  0
  -28.5850  -26.8110   20.2940 O   0  0  0  0  0  0  0  0  0  0  0  0
  -24.5660  -31.7660   23.2100 C   0  0  0  0  0  0  0  0  0  0  0  0
  -27.3290  -27.3650   20.2590 C   0  0  0  0  0  0  0  0  0  0  0  0
  -23.3930  -30.3180   21.5760 C   0  0  0  0  0  3  0  0  0  0  0  0
  -24.8770  -28.7580   20.2080 C   0  0  0  0  0  0  0  0  0  0  0  0
  -25.9000  -30.7250   21.3850 C   0  0  0  0  0  2  0  0  0  0  0  0
  -26.0090  -29.3440   20.7830 C   0  0  0  0  0  0  0  0  0  0  0  0
  -27.2330  -28.6540   20.7960 C   0  0  0  0  0  3  0  0  0  0  0  0
  -26.1780  -26.7580   19.7020 C   0  0  0  0  0  3  0  0  0  0  0  0
  -24.9520  -27.4590   19.6680 C   0  0  0  0  0  3  0  0  0  0  0  0
  -23.6140  -29.5860   20.2200 C   0  0  0  0  0  2  0  0  0  0  0  0
  -24.6370  -30.9510   22.1160 N   0  0  0  0  0  0  0  0  0  0  0  0
  -23.4810  -32.0370   23.7370 O   0  0  0  0  0  0  0  0  0  0  0  0
  -22.7460  -29.3160   22.5550 C   0  0  0  0  0  0  0  0  0  0  0  0
  -21.4220  -29.1320   22.4250 N   0  0  0  0  0  0  0  0  0  0  0  0
  -23.4270  -28.7000   23.3800 O   0  0  0  0  0  0  0  0  0  0  0  0
  -20.9280  -29.7220   21.7710 H   0  0  0  0  0  0  0  0  0  0  0  0
  -18.0580  -27.8860   22.8580 C   0  0  0  0  0  0  0  0  0  0  0  0
  -20.6060  -28.1830   23.1800 C   0  0  0  0  0  3  0  0  0  0  0  0
  -20.7480  -26.7480   22.6200 C   0  0  0  0  0  2  0  0  0  0  0  0
  -19.6640  -26.3890   21.6030 C   0  0  0  0  0  2  0  0  0  0  0  0
  -18.2620  -26.5350   22.2000 C   0  0  0  0  0  2  0  0  0  0  0  0
  -19.1590  -28.6700   23.2940 C   0  0  0  0  0  0  0  0  0  0  0  0
  -18.9180  -29.9490   23.8390 C   0  0  0  0  0  3  0  0  0  0  0  0
  -17.6050  -30.4410   23.9680 C   0  0  0  0  0  3  0  0  0  0  0  0
  -16.5170  -29.6570   23.5480 C   0  0  0  0  0  3  0  0  0  0  0  0
  -16.7420  -28.3810   23.0020 C   0  0  0  0  0  3  0  0  0  0  0  0
  -25.8430  -32.4150   23.8280 C   0  0  0  0  0  3  0  0  0  0  0  0
  -25.5350  -33.8240   24.1010 N   0  0  0  0  0  0  0  0  0  0  0  0
  -25.8910  -34.8460   23.3100 C   0  0  0  0  0  0  0  0  0  0  0  0
  -26.5850  -34.7030   22.2980 O   0  0  0  0  0  0  0  0  0  0  0  0
  -24.9190  -34.0080   24.8800 H   0  0  0  0  0  0  0  0  0  0  0  0
  -24.1780  -36.6260   22.8380 C   0  0  0  0  0  1  0  0  0  0  0  0
  -25.3950  -36.2510   23.7000 C   0  0  0  0  0  3  0  0  0  0  0  0
  -27.5080  -37.1580   24.5630 C   0  0  0  0  0  1  0  0  0  0  0  0
  -26.4360  -37.2950   23.5790 N   0  0  0  0  0  0  0  0  0  0  0  0
  -26.0320  -38.2230   23.6810 H   0  0  0  0  0  0  0  0  0  0  0  0
  -26.3400  -31.6880   25.1380 C   0  0  1  0  0  0  0  0  0  0  0  0
  -25.2320  -31.4790   26.1960 C   0  0  0  0  0  1  0  0  0  0  0  0
  -26.9330  -30.3020   24.7950 C   0  0  0  0  0  1  0  0  0  0  0  0
  -27.4800  -32.5060   25.7920 C   0  0  0  0  0  1  0  0  0  0  0  0
  1  3  1  0
  2  1  1  0
  6  9  1  0
  7  4  1  0
  7  5  1  0
  8  6  1  0
  8 10  1  0
  8  4  1  0
  9 11  1  0
  9  5  1  0
 10  1  1  0
 10  7  1  0
 11 20  1  0
 12 18  1  0
 12 20  1  0
 13 18  1  0
 14 15  1  0
 14 13  1  0
 16 15  1  0
 16 25  1  0
 16 17  1  0
 18 17  1  0
 19 12  2  0
 20 21  1  0
 22 23  2  0
 23 42  1  0
 24 23  1  0
 24 27  1  0
 25 22  1  0
 25 26  1  0
 26 24  2  0
 27 28  1  0
 28 29  2  0
 30 33  1  0
 30 29  1  0
 31 30  2  0
 32 31  1  0
 32 27  2  0
 33 34  1  0
 34 39  2  0
 34 35  1  0
 35 36  2  0
 36 37  1  0
 37 41  1  0
 38 37  2  0
 39 38  1  0
 40 39  1  0
 42 43  1  0
 43 46  1  0
 43 45  1  0
 44 42  2  0
 47 48  1  0
 47 22  1  0
 49 47  1  0
 50 51  1  0
 50  1  1  0
 51 52  1  0
 52 54  1  0
 52 55  1  0
 53 51  2  0
 55 56  1  0
 57 56  1  0
 58 69  2  0
 59 57  1  0
 59 64  1  0
 60 68  1  0
 60 70  1  0
 61 67  1  0
 61 63  1  0
 62 68  1  0
 63 64  2  0
 63 62  1  0
 65 59  2  0
 66 65  1  0
 66 61  2  0
 67 60  1  0
 68 58  1  0
 70 72  2  0
 71 70  1  0
 73 71  1  0
 74 83  2  0
 74 79  1  0
 75 71  1  0
 75 79  1  0
 76 75  1  0
 77 78  1  0
 77 76  1  0
 78 74  1  0
 79 80  2  0
 80 81  1  0
 82 81  2  0
 83 82  1  0
 84 58  1  0
 84 85  1  0
 84 94  1  0
 85 88  1  0
 86 90  1  0
 86 85  1  0
 87 86  2  0
 90 89  1  0
 92 93  1  0
 92 90  1  0
 92 91  1  0
 94 97  1  1
 94 95  1  0
 96 94  1  0
M  ISO  4  12 100  20 100  56 101  57 101
M  END
>  <TORSDO>  (39) 
F 22

>  <SCORE>  (39) 
-11.443

>  <name>  (39) 
38

>  <ligand_id>  (39) 
38

>  <original_smiles>  (39) 
[H]c1c([H])c([H])c2c(c1[H])C([H])([H])C([H])([H])C([H])([H])C2([H])N([H])C(=O)C1([H])N(C(=O)C([H])(N([H])C(=O)C([H])(N([H])C([H])([H])[H])C([H])([H])[H])C(C([H])([H])[H])(C([H])([H])[H])C([H])([H])[H])C([H])([H])c2c([H])c(OC([H])([H])C([H])([H])N([H])C(=O)C([H])([H])[N+]([H])([H])C3([H])C4([H])C([H])([H])C([H])(C([H])([H])N([H])C(=O)N5C([H])([H])C([H])([H])C([H])([H])C([H])(n6nc(-c7c([H])c([H])c(Oc8c([H])c([H])c(F)c([H])c8F)c([H])c7[H])c(C(=O)N([H])[H])c6N([H])[H])C5([H])[H])C([H])([H])C3([H])C4([H])[H])c([H])c([H])c2C1([H])[H]

>  <smiles>  (39) 
[H]c1c([H])c([H])c2c(c1[H])C([H])([H])C([H])([H])C([H])([H])C2([H])N([H])C(=O)C1([H])N(C(=O)C([H])(N([H])C(=O)C([H])(N([H])C([H])([H])[H])C([H])([H])[H])C(C([H])([H])[H])(C([H])([H])[H])C([H])([H])[H])C([H])([H])c2c([H])c(OC([H])([H])C([H])([H])N([H])C(=O)C([H])([H])[N+]([H])([H])C3([H])C4([H])C([H])([H])C([H])(C([H])([H])N([H])C(=O)N5C([H])([H])C([H])([H])C([H])([H])C([H])(n6nc(-c7c([H])c([H])c(Oc8c([H])c([H])c(F)c([H])c8F)c([H])c7[H])c(C(=O)N([H])[H])c6N([H])[H])C5([H])[H])C([H])([H])C3([H])C4([H])[H])c([H])c([H])c2C1([H])[H]

$$$$
39:0:0
     RDKit          3D

 91 99  0  0  1  0  0  0  0  0999 V2000
  -29.6460  -21.3090   21.5050 C   0  0  0  0  0  3  0  0  0  0  0  0
  -28.7380  -21.2290   19.3280 C   0  0  0  0  0  3  0  0  0  0  0  0
  -29.0950  -22.0740   20.4270 C   0  0  0  0  0  0  0  0  0  0  0  0
  -29.9180  -19.8850   21.4660 C   0  0  0  0  0  0  0  0  0  0  0  0
  -28.9940  -19.7970   19.2750 C   0  0  0  0  0  0  0  0  0  0  0  0
  -29.6510  -19.0560   20.3230 C   0  0  0  0  0  0  0  0  0  0  0  0
  -30.6120  -19.2750   22.6720 C   0  0  0  0  0  1  0  0  0  0  0  0
  -28.6130  -19.0760   17.9950 C   0  0  0  0  0  1  0  0  0  0  0  0
  -30.3360  -24.0770   19.4410 C   0  0  0  0  0  1  0  0  0  0  0  0
  -29.1910  -23.7100   20.3970 C   0  0  0  0  0  3  0  0  0  0  0  0
  -27.9820  -24.8100   20.1530 C   0  0  0  0  0  2  0  0  0  0  0  0
  -28.2130  -26.3270   20.2710 O   0  0  0  0  0  0  0  0  0  0  0  0
  -24.5860  -31.9510   23.2420 C   0  0  0  0  0  0  0  0  0  0  0  0
  -27.1320  -27.2620   20.2110 C   0  0  0  0  0  0  0  0  0  0  0  0
  -23.3650  -30.5470   21.6240 C   0  0  0  0  0  3  0  0  0  0  0  0
  -24.7960  -28.9680   20.1950 C   0  0  0  0  0  0  0  0  0  0  0  0
  -25.9130  -30.8250   21.4220 C   0  0  0  0  0  2  0  0  0  0  0  0
  -25.9790  -29.4330   20.7810 C   0  0  0  0  0  0  0  0  0  0  0  0
  -27.1500  -28.5950   20.7710 C   0  0  0  0  0  3  0  0  0  0  0  0
  -25.9220  -26.8820   19.5930 C   0  0  0  0  0  3  0  0  0  0  0  0
  -24.7760  -27.7040   19.5870 C   0  0  0  0  0  3  0  0  0  0  0  0
  -23.5680  -29.8610   20.2470 C   0  0  0  0  0  2  0  0  0  0  0  0
  -24.6420  -31.1290   22.1520 N   0  0  0  0  0  0  0  0  0  0  0  0
  -23.5070  -32.2380   23.7810 O   0  0  0  0  0  0  0  0  0  0  0  0
  -22.7010  -29.5440   22.6000 C   0  0  0  0  0  0  0  0  0  0  0  0
  -21.3760  -29.3510   22.4700 N   0  0  0  0  0  0  0  0  0  0  0  0
  -23.3790  -28.9400   23.4360 O   0  0  0  0  0  0  0  0  0  0  0  0
  -20.8870  -29.8910   21.7690 H   0  0  0  0  0  0  0  0  0  0  0  0
  -18.0130  -28.1020   22.9590 C   0  0  0  0  0  0  0  0  0  0  0  0
  -20.5630  -28.4170   23.2520 C   0  0  0  0  0  3  0  0  0  0  0  0
  -20.6970  -26.9740   22.7140 C   0  0  0  0  0  2  0  0  0  0  0  0
  -19.6150  -26.6070   21.6930 C   0  0  0  0  0  2  0  0  0  0  0  0
  -18.2220  -26.7410   22.3160 C   0  0  0  0  0  2  0  0  0  0  0  0
  -19.1110  -28.8960   23.3840 C   0  0  0  0  0  0  0  0  0  0  0  0
  -18.8610  -30.1660   23.9460 C   0  0  0  0  0  3  0  0  0  0  0  0
  -17.5450  -30.6460   24.0840 C   0  0  0  0  0  3  0  0  0  0  0  0
  -16.4600  -29.8510   23.6750 C   0  0  0  0  0  3  0  0  0  0  0  0
  -16.6950  -28.5810   23.1190 C   0  0  0  0  0  3  0  0  0  0  0  0
  -25.8730  -32.5880   23.8490 C   0  0  0  0  0  3  0  0  0  0  0  0
  -26.3960  -31.8270   25.1300 C   0  0  1  0  0  0  0  0  0  0  0  0
  -25.3070  -31.5970   26.2050 C   0  0  0  0  0  1  0  0  0  0  0  0
  -26.9790  -30.4470   24.7480 C   0  0  0  0  0  1  0  0  0  0  0  0
  -27.5500  -32.6260   25.7800 C   0  0  0  0  0  1  0  0  0  0  0  0
  -25.5670  -33.9890   24.1750 N   0  0  0  0  0  0  0  0  0  0  0  0
  -25.8740  -35.0380   23.3990 C   0  0  0  0  0  0  0  0  0  0  0  0
  -26.5110  -34.9270   22.3480 O   0  0  0  0  0  0  0  0  0  0  0  0
  -24.9970  -34.1490   24.9920 H   0  0  0  0  0  0  0  0  0  0  0  0
  -24.1240  -36.8200   23.0980 C   0  0  0  0  0  1  0  0  0  0  0  0
  -25.4000  -36.4300   23.8600 C   0  0  0  0  0  3  0  0  0  0  0  0
  -27.5600  -37.3380   24.5950 C   0  0  0  0  0  1  0  0  0  0  0  0
  -26.4220  -37.4870   23.6920 N   0  0  0  0  0  0  0  0  0  0  0  0
  -26.0170  -38.4070   23.8400 H   0  0  0  0  0  0  0  0  0  0  0  0
  -30.3510  -17.5840   20.1040 C   0  0  0  0  0  2  0  0  0  0  0  0
  -30.5440  -14.9470   20.1340 C   0  0  0  0  0  0  0  0  0  0  0  0
  -30.3250  -12.6530   19.1230 C   0  0  0  0  0  2  0  0  0  0  0  0
  -29.3450  -12.6920   17.9300 C   0  0  0  0  0  2  0  0  0  0  0  0
  -27.8970  -12.4910   18.4150 C   0  0  0  0  0  2  0  0  0  0  0  0
  -27.5540  -13.3660   19.6500 C   0  0  0  0  0  3  0  0  0  0  0  0
  -28.6570  -13.3190   20.7280 C   0  0  0  0  0  2  0  0  0  0  0  0
  -29.9100  -13.7150   20.0790 N   0  0  0  0  0  0  0  0  0  0  0  0
  -31.7250  -15.0020   19.7780 O   0  0  0  0  0  0  0  0  0  0  0  0
  -29.8290  -16.1410   20.3560 N   0  0  0  0  0  0  0  0  0  0  0  0
  -28.8550  -16.0490   20.6050 H   0  0  0  0  0  0  0  0  0  0  0  0
  -25.2030  -13.9130   20.5070 C   0  0  0  0  0  0  0  0  0  0  0  0
  -24.1590  -13.1240   20.9010 C   0  0  0  0  0  0  0  0  0  0  0  0
  -24.6260  -11.7760   20.8120 C   0  0  0  0  0  0  0  0  0  0  0  0
  -26.2390  -13.0480   20.1960 N   0  0  0  0  0  0  0  0  0  0  0  0
  -25.9040  -11.7550   20.4460 N   0  0  0  0  0  0  0  0  0  0  0  0
  -23.9120  -10.5060   20.9970 C   0  0  0  0  0  0  0  0  0  0  0  0
  -24.3520   -9.5390   21.9270 C   0  0  0  0  0  3  0  0  0  0  0  0
  -23.6360   -8.3340   22.1010 C   0  0  0  0  0  3  0  0  0  0  0  0
  -22.4660   -8.0890   21.3440 C   0  0  0  0  0  0  0  0  0  0  0  0
  -22.0450   -9.0450   20.4030 C   0  0  0  0  0  3  0  0  0  0  0  0
  -22.7610  -10.2410   20.2270 C   0  0  0  0  0  3  0  0  0  0  0  0
  -21.7200   -6.9380   21.4270 O   0  0  0  0  0  0  0  0  0  0  0  0
  -21.6310   -6.2220   22.5940 C   0  0  0  0  0  0  0  0  0  0  0  0
  -21.1260   -6.7920   23.7820 C   0  0  0  0  0  3  0  0  0  0  0  0
  -20.9870   -6.0000   24.9390 C   0  0  0  0  0  3  0  0  0  0  0  0
  -21.3430   -4.6390   24.9090 C   0  0  0  0  0  0  0  0  0  0  0  0
  -21.8410   -4.0680   23.7250 C   0  0  0  0  0  3  0  0  0  0  0  0
  -21.9810   -4.8570   22.5700 C   0  0  0  0  0  0  0  0  0  0  0  0
  -22.4410   -4.2960   21.4260 F   0  0  0  0  0  0  0  0  0  0  0  0
  -21.2020   -3.8750   26.0180 F   0  0  0  0  0  0  0  0  0  0  0  0
  -22.7730  -13.5880   21.2420 C   0  0  0  0  0  0  0  0  0  0  0  0
  -22.0840  -12.8680   22.1200 N   0  0  0  0  0  0  0  0  0  0  0  0
  -22.3120  -14.6240   20.7650 O   0  0  0  0  0  0  0  0  0  0  0  0
  -22.4710  -12.0330   22.5310 H   0  0  0  0  0  0  0  0  0  0  0  0
  -21.1550  -13.1620   22.3880 H   0  0  0  0  0  0  0  0  0  0  0  0
  -25.3510  -15.2900   20.3600 N   0  0  0  0  0  0  0  0  0  0  0  0
  -24.5820  -15.9310   20.5240 H   0  0  0  0  0  0  0  0  0  0  0  0
  -26.1710  -15.7450   19.9800 H   0  0  0  0  0  0  0  0  0  0  0  0
  2  3  1  0
  3  1  2  0
  4  1  1  0
  4  7  1  0
  5  2  2  0
  5  6  1  0
  6  4  2  0
  8  5  1  0
 10  9  1  0
 10  3  1  0
 11 12  1  0
 11 10  1  0
 13 24  2  0
 14 12  1  0
 14 19  1  0
 15 23  1  0
 15 25  1  0
 16 22  1  0
 16 18  1  0
 17 23  1  0
 18 17  1  0
 19 18  2  0
 20 14  2  0
 21 20  1  0
 21 16  2  0
 22 15  1  0
 23 13  1  0
 25 27  2  0
 26 25  1  0
 28 26  1  0
 29 38  2  0
 29 34  1  0
 30 26  1  0
 30 34  1  0
 31 30  1  0
 32 33  1  0
 32 31  1  0
 33 29  1  0
 34 35  2  0
 35 36  1  0
 37 36  2  0
 38 37  1  0
 39 13  1  0
 39 44  1  0
 39 40  1  0
 40 43  1  1
 40 41  1  0
 42 40  1  0
 44 47  1  0
 45 49  1  0
 45 44  1  0
 46 45  2  0
 49 48  1  0
 51 52  1  0
 51 49  1  0
 51 50  1  0
 53  6  1  0
 53 62  1  0
 54 62  1  0
 55 60  1  0
 56 57  1  0
 56 55  1  0
 58 57  1  0
 58 67  1  0
 58 59  1  0
 60 54  1  0
 60 59  1  0
 61 54  2  0
 62 63  1  0
 64 65  2  0
 65 84  1  0
 66 65  1  0
 66 69  1  0
 67 68  1  0
 67 64  1  0
 68 66  2  0
 69 70  1  0
 70 71  2  0
 72 75  1  0
 72 71  1  0
 73 72  2  0
 74 73  1  0
 74 69  2  0
 75 76  1  0
 76 77  1  0
 77 78  2  0
 79 78  1  0
 79 83  1  0
 80 79  2  0
 81 76  2  0
 81 80  1  0
 82 81  1  0
 84 85  1  0
 85 88  1  0
 85 87  1  0
 86 84  2  0
 89 64  1  0
 89 90  1  0
 91 89  1  0
M  ISO  4  11 101  12 101  54 100  62 100
M  END
>  <TORSDO>  (40) 
F 19

>  <SCORE>  (40) 
-13.913

>  <name>  (40) 
39

>  <ligand_id>  (40) 
39

>  <original_smiles>  (40) 
[H]c1c([H])c([H])c2c(c1[H])C([H])([H])C([H])([H])C([H])([H])C2([H])N([H])C(=O)C1([H])N(C(=O)C([H])(N([H])C(=O)C([H])(N([H])C([H])([H])[H])C([H])([H])[H])C(C([H])([H])[H])(C([H])([H])[H])C([H])([H])[H])C([H])([H])c2c([H])c(OC([H])([H])C([H])(c3c([H])c(C([H])([H])[H])c(C([H])([H])N([H])C(=O)N4C([H])([H])C([H])([H])C([H])([H])C([H])(n5nc(-c6c([H])c([H])c(Oc7c([H])c([H])c(F)c([H])c7F)c([H])c6[H])c(C(=O)N([H])[H])c5N([H])[H])C4([H])[H])c(C([H])([H])[H])c3[H])C([H])([H])[H])c([H])c([H])c2C1([H])[H]

>  <smiles>  (40) 
[H]c1c([H])c([H])c2c(c1[H])C([H])([H])C([H])([H])C([H])([H])C2([H])N([H])C(=O)C1([H])N(C(=O)C([H])(N([H])C(=O)C([H])(N([H])C([H])([H])[H])C([H])([H])[H])C(C([H])([H])[H])(C([H])([H])[H])C([H])([H])[H])C([H])([H])c2c([H])c(OC([H])([H])C([H])(c3c([H])c(C([H])([H])[H])c(C([H])([H])N([H])C(=O)N4C([H])([H])C([H])([H])C([H])([H])C([H])(n5nc(-c6c([H])c([H])c(Oc7c([H])c([H])c(F)c([H])c7F)c([H])c6[H])c(C(=O)N([H])[H])c5N([H])[H])C4([H])[H])c(C([H])([H])[H])c3[H])C([H])([H])[H])c([H])c([H])c2C1([H])[H]

$$$$
40:0:0
     RDKit          3D

 97106  0  0  1  0  0  0  0  0999 V2000
  -31.8010  -21.6300   21.0900 C   0  0  0  0  0  2  0  0  0  0  0  0
  -29.7550  -21.2190   20.0070 C   0  0  0  0  0  2  0  0  0  0  0  0
  -30.7000  -19.9640   22.4420 C   0  0  0  0  0  2  0  0  0  0  0  0
  -31.1600  -20.5690   20.1890 C   0  0  0  0  0  3  0  0  0  0  0  0
  -30.7180  -21.4930   22.1580 C   0  0  0  0  0  3  0  0  0  0  0  0
  -29.4670  -21.9260   21.3610 C   0  0  0  0  0  3  0  0  0  0  0  0
  -31.2040  -19.3080   21.1220 C   0  0  1  0  0  0  0  0  0  0  0  0
  -28.5310  -24.2510   20.7700 C   0  0  0  0  0  0  0  0  0  0  0  0
  -29.4120  -23.4060   21.3450 N   0  0  0  0  0  0  0  0  0  0  0  0
  -27.6920  -23.8710   19.9500 O   0  0  0  0  0  0  0  0  0  0  0  0
  -30.0660  -23.8560   21.9710 H   0  0  0  0  0  0  0  0  0  0  0  0
  -28.5720  -25.7320   21.2430 C   0  0  0  0  0  2  0  0  0  0  0  0
  -28.4310  -26.6880   20.1720 O   0  0  0  0  0  0  0  0  0  0  0  0
  -24.6030  -31.9020   23.2480 C   0  0  0  0  0  0  0  0  0  0  0  0
  -27.2780  -27.4460   20.2040 C   0  0  0  0  0  0  0  0  0  0  0  0
  -23.4130  -30.4930   21.6010 C   0  0  0  0  0  3  0  0  0  0  0  0
  -24.8830  -28.9510   20.1930 C   0  0  0  0  0  0  0  0  0  0  0  0
  -25.9400  -30.8560   21.4200 C   0  0  0  0  0  2  0  0  0  0  0  0
  -26.0360  -29.4800   20.7880 C   0  0  0  0  0  0  0  0  0  0  0  0
  -27.2410  -28.7350   20.7920 C   0  0  0  0  0  3  0  0  0  0  0  0
  -26.1130  -26.9340   19.6040 C   0  0  0  0  0  3  0  0  0  0  0  0
  -24.9160  -27.6770   19.5990 C   0  0  0  0  0  3  0  0  0  0  0  0
  -23.6360  -29.8080   20.2260 C   0  0  0  0  0  2  0  0  0  0  0  0
  -24.6700  -31.0990   22.1480 N   0  0  0  0  0  0  0  0  0  0  0  0
  -23.5170  -32.1740   23.7800 O   0  0  0  0  0  0  0  0  0  0  0  0
  -22.7560  -29.4730   22.5600 C   0  0  0  0  0  0  0  0  0  0  0  0
  -21.4330  -29.2900   22.4260 N   0  0  0  0  0  0  0  0  0  0  0  0
  -23.4360  -28.8500   23.3800 O   0  0  0  0  0  0  0  0  0  0  0  0
  -20.9460  -29.8450   21.7360 H   0  0  0  0  0  0  0  0  0  0  0  0
  -18.0560  -28.0970   22.9130 C   0  0  0  0  0  0  0  0  0  0  0  0
  -20.6130  -28.3520   23.1920 C   0  0  0  0  0  3  0  0  0  0  0  0
  -20.7160  -26.9210   22.6130 C   0  0  0  0  0  2  0  0  0  0  0  0
  -19.6160  -26.6030   21.5960 C   0  0  0  0  0  2  0  0  0  0  0  0
  -18.2330  -26.7480   22.2360 C   0  0  0  0  0  2  0  0  0  0  0  0
  -19.1750  -28.8570   23.3470 C   0  0  0  0  0  0  0  0  0  0  0  0
  -18.9570  -30.1200   23.9390 C   0  0  0  0  0  3  0  0  0  0  0  0
  -17.6520  -30.6240   24.1000 C   0  0  0  0  0  3  0  0  0  0  0  0
  -16.5490  -29.8620   23.6830 C   0  0  0  0  0  3  0  0  0  0  0  0
  -16.7510  -28.6000   23.0950 C   0  0  0  0  0  3  0  0  0  0  0  0
  -25.8830  -32.5400   23.8740 C   0  0  0  0  0  3  0  0  0  0  0  0
  -25.5710  -33.9390   24.1930 N   0  0  0  0  0  0  0  0  0  0  0  0
  -25.9150  -34.9860   23.4310 C   0  0  0  0  0  0  0  0  0  0  0  0
  -26.5980  -34.8760   22.4090 O   0  0  0  0  0  0  0  0  0  0  0  0
  -24.9680  -34.0990   24.9860 H   0  0  0  0  0  0  0  0  0  0  0  0
  -24.1940  -36.7780   23.0380 C   0  0  0  0  0  1  0  0  0  0  0  0
  -25.4210  -36.3780   23.8730 C   0  0  0  0  0  3  0  0  0  0  0  0
  -27.5430  -37.2630   24.7340 C   0  0  0  0  0  1  0  0  0  0  0  0
  -26.4570  -37.4280   23.7710 N   0  0  0  0  0  0  0  0  0  0  0  0
  -26.0500  -38.3510   23.9080 H   0  0  0  0  0  0  0  0  0  0  0  0
  -26.3930  -31.7760   25.1580 C   0  0  1  0  0  0  0  0  0  0  0  0
  -25.2940  -31.5390   26.2190 C   0  0  0  0  0  1  0  0  0  0  0  0
  -26.9820  -30.3980   24.7740 C   0  0  0  0  0  1  0  0  0  0  0  0
  -27.5390  -32.5740   25.8240 C   0  0  0  0  0  1  0  0  0  0  0  0
  -32.6250  -18.9030   21.2450 N   0  0  0  0  0  4  0  0  0  0  0  0
  -33.1890  -19.7000   21.4900 H   0  0  0  0  0  0  0  0  0  0  0  0
  -32.9700  -18.5420   20.3720 H   0  0  0  0  0  0  0  0  0  0  0  0
  -32.7540  -18.2000   21.9500 H   0  0  0  0  0  0  0  0  0  0  0  0
  -30.3940  -18.0320   20.6750 C   0  0  0  0  0  2  0  0  0  0  0  0
  -30.5570  -16.7890   21.6230 C   0  0  0  0  0  2  0  0  0  0  0  0
  -30.6740  -14.5150   20.5130 C   0  0  0  0  0  0  0  0  0  0  0  0
  -30.3790  -12.3660   19.3210 C   0  0  0  0  0  2  0  0  0  0  0  0
  -29.4390  -12.5650   18.1150 C   0  0  0  0  0  2  0  0  0  0  0  0
  -27.9640  -12.4270   18.5400 C   0  0  0  0  0  2  0  0  0  0  0  0
  -27.6240  -13.2620   19.8030 C   0  0  0  0  0  3  0  0  0  0  0  0
  -28.6720  -13.0320   20.9130 C   0  0  0  0  0  2  0  0  0  0  0  0
  -29.9950  -13.3460   20.3500 N   0  0  0  0  0  0  0  0  0  0  0  0
  -31.7990  -14.7060   20.0440 O   0  0  0  0  0  0  0  0  0  0  0  0
  -30.0050  -15.5030   21.1450 N   0  0  0  0  0  0  0  0  0  0  0  0
  -29.0710  -15.2700   21.4490 H   0  0  0  0  0  0  0  0  0  0  0  0
  -25.2220  -13.8800   20.4900 C   0  0  0  0  0  0  0  0  0  0  0  0
  -24.1490  -13.1120   20.8560 C   0  0  0  0  0  0  0  0  0  0  0  0
  -24.6070  -11.7590   20.8380 C   0  0  0  0  0  0  0  0  0  0  0  0
  -26.2670  -12.9940   20.2730 N   0  0  0  0  0  0  0  0  0  0  0  0
  -25.8990  -11.7150   20.5410 N   0  0  0  0  0  0  0  0  0  0  0  0
  -23.8770  -10.5010   21.0310 C   0  0  0  0  0  0  0  0  0  0  0  0
  -24.3040   -9.5350   21.9690 C   0  0  0  0  0  3  0  0  0  0  0  0
  -23.5730   -8.3400   22.1510 C   0  0  0  0  0  3  0  0  0  0  0  0
  -22.4020   -8.1030   21.3920 C   0  0  0  0  0  0  0  0  0  0  0  0
  -21.9940   -9.0570   20.4440 C   0  0  0  0  0  3  0  0  0  0  0  0
  -22.7250  -10.2430   20.2610 C   0  0  0  0  0  3  0  0  0  0  0  0
  -21.6450   -6.9600   21.4820 O   0  0  0  0  0  0  0  0  0  0  0  0
  -21.5940   -6.2190   22.6350 C   0  0  0  0  0  0  0  0  0  0  0  0
  -21.1750   -6.7770   23.8620 C   0  0  0  0  0  3  0  0  0  0  0  0
  -21.0720   -5.9620   25.0070 C   0  0  0  0  0  3  0  0  0  0  0  0
  -21.3780   -4.5900   24.9250 C   0  0  0  0  0  0  0  0  0  0  0  0
  -21.7900   -4.0310   23.7040 C   0  0  0  0  0  3  0  0  0  0  0  0
  -21.8950   -4.8440   22.5600 C   0  0  0  0  0  0  0  0  0  0  0  0
  -22.2720   -4.2960   21.3800 F   0  0  0  0  0  0  0  0  0  0  0  0
  -21.2710   -3.8050   26.0230 F   0  0  0  0  0  0  0  0  0  0  0  0
  -22.7520  -13.5950   21.1140 C   0  0  0  0  0  0  0  0  0  0  0  0
  -22.0150  -12.9060   21.9790 N   0  0  0  0  0  0  0  0  0  0  0  0
  -22.3210  -14.6190   20.5850 O   0  0  0  0  0  0  0  0  0  0  0  0
  -22.3760  -12.0770   22.4280 H   0  0  0  0  0  0  0  0  0  0  0  0
  -21.0770  -13.2110   22.1950 H   0  0  0  0  0  0  0  0  0  0  0  0
  -25.3930  -15.2490   20.3040 N   0  0  0  0  0  0  0  0  0  0  0  0
  -24.6280  -15.9070   20.3980 H   0  0  0  0  0  0  0  0  0  0  0  0
  -26.2480  -15.6790   19.9740 H   0  0  0  0  0  0  0  0  0  0  0  0
  2  6  1  0
  4  2  1  0
  4  1  1  0
  4  7  1  0
  5  1  1  0
  5  3  1  0
  6  9  1  0
  6  5  1  0
  7 58  1  6
  7 54  1  0
  7  3  1  0
  8 12  1  0
  8  9  1  0
  9 11  1  0
 10  8  2  0
 13 15  1  0
 13 12  1  0
 14 25  2  0
 15 20  1  0
 16 24  1  0
 16 26  1  0
 17 23  1  0
 17 19  1  0
 18 24  1  0
 19 20  2  0
 19 18  1  0
 21 15  2  0
 22 21  1  0
 22 17  2  0
 23 16  1  0
 24 14  1  0
 26 28  2  0
 27 26  1  0
 29 27  1  0
 30 39  2  0
 30 35  1  0
 31 27  1  0
 31 35  1  0
 32 31  1  0
 33 34  1  0
 33 32  1  0
 34 30  1  0
 35 36  2  0
 36 37  1  0
 38 37  2  0
 39 38  1  0
 40 14  1  0
 40 41  1  0
 40 50  1  0
 41 44  1  0
 42 46  1  0
 42 41  1  0
 43 42  2  0
 46 45  1  0
 48 46  1  0
 48 49  1  0
 48 47  1  0
 50 53  1  1
 50 51  1  0
 52 50  1  0
 54 55  1  0
 54 57  1  0
 56 54  1  0
 58 59  1  0
 60 68  1  0
 61 66  1  0
 62 63  1  0
 62 61  1  0
 64 63  1  0
 64 73  1  0
 64 65  1  0
 66 60  1  0
 66 65  1  0
 67 60  2  0
 68 69  1  0
 68 59  1  0
 70 71  2  0
 71 90  1  0
 72 71  1  0
 72 75  1  0
 73 70  1  0
 73 74  1  0
 74 72  2  0
 75 76  1  0
 76 77  2  0
 78 81  1  0
 78 77  1  0
 79 78  2  0
 80 79  1  0
 80 75  2  0
 81 82  1  0
 82 83  1  0
 83 84  2  0
 85 84  1  0
 85 89  1  0
 86 85  2  0
 87 82  2  0
 87 86  1  0
 88 87  1  0
 90 91  1  0
 91 94  1  0
 91 93  1  0
 92 90  2  0
 95 96  1  0
 95 70  1  0
 97 95  1  0
M  ISO  4  12 101  13 101  60 100  68 100
M  END
>  <TORSDO>  (41) 
F 21

>  <SCORE>  (41) 
-14.002

>  <name>  (41) 
40

>  <ligand_id>  (41) 
40

>  <original_smiles>  (41) 
[H]c1c([H])c([H])c2c(c1[H])C([H])([H])C([H])([H])C([H])([H])C2([H])N([H])C(=O)C1([H])N(C(=O)C([H])(N([H])C(=O)C([H])(N([H])C([H])([H])[H])C([H])([H])[H])C(C([H])([H])[H])(C([H])([H])[H])C([H])([H])[H])C([H])([H])c2c([H])c(OC([H])([H])C(=O)N([H])C3([H])C([H])([H])C4([H])C([H])([H])C3([H])C([H])([H])C4(C([H])([H])C([H])([H])N([H])C(=O)N3C([H])([H])C([H])([H])C([H])([H])C([H])(n4nc(-c5c([H])c([H])c(Oc6c([H])c([H])c(F)c([H])c6F)c([H])c5[H])c(C(=O)N([H])[H])c4N([H])[H])C3([H])[H])[N+]([H])([H])[H])c([H])c([H])c2C1([H])[H]

>  <smiles>  (41) 
[H]c1c([H])c([H])c2c(c1[H])C([H])([H])C([H])([H])C([H])([H])C2([H])N([H])C(=O)C1([H])N(C(=O)C([H])(N([H])C(=O)C([H])(N([H])C([H])([H])[H])C([H])([H])[H])C(C([H])([H])[H])(C([H])([H])[H])C([H])([H])[H])C([H])([H])c2c([H])c(OC([H])([H])C(=O)N([H])C3([H])C([H])([H])C4([H])C([H])([H])C3([H])C([H])([H])C4(C([H])([H])C([H])([H])N([H])C(=O)N3C([H])([H])C([H])([H])C([H])([H])C([H])(n4nc(-c5c([H])c([H])c(Oc6c([H])c([H])c(F)c([H])c6F)c([H])c5[H])c(C(=O)N([H])[H])c4N([H])[H])C3([H])[H])[N+]([H])([H])[H])c([H])c([H])c2C1([H])[H]

$$$$
41:0:0
     RDKit          3D

 92100  0  0  1  0  0  0  0  0999 V2000
  -28.9900  -22.8760   20.3430 C   0  0  0  0  0  3  0  0  0  0  0  0
  -28.5760  -20.6180   18.7080 C   0  0  0  0  0  2  0  0  0  0  0  0
  -29.9110  -19.8470   18.8260 C   0  0  0  0  0  2  0  0  0  0  0  0
  -28.6980  -21.0930   20.1620 C   0  0  0  0  0  3  0  0  0  0  0  0
  -29.6360  -19.5490   20.3090 C   0  0  2  0  0  0  0  0  0  0  0  0
  -30.8050  -19.6130   21.2900 C   0  0  0  0  0  1  0  0  0  0  0  0
  -30.3280  -15.3400   20.2360 C   0  0  0  0  0  0  0  0  0  0  0  0
  -30.3800  -12.8970   19.3400 C   0  0  0  0  0  2  0  0  0  0  0  0
  -29.4400  -12.7120   18.1210 C   0  0  0  0  0  2  0  0  0  0  0  0
  -27.9930  -12.4240   18.5690 C   0  0  0  0  0  2  0  0  0  0  0  0
  -27.5490  -13.3640   19.7190 C   0  0  0  0  0  3  0  0  0  0  0  0
  -28.6110  -13.4780   20.8330 C   0  0  0  0  0  2  0  0  0  0  0  0
  -29.8370  -14.0040   20.2040 N   0  0  0  0  0  0  0  0  0  0  0  0
  -31.5330  -15.4340   19.9700 O   0  0  0  0  0  0  0  0  0  0  0  0
  -29.0250  -17.9120   20.4170 C   0  0  0  0  0  0  0  0  0  0  0  0
  -29.3920  -16.4690   20.3930 N   0  0  0  0  0  0  0  0  0  0  0  0
  -27.8080  -17.9860   20.5900 O   0  0  0  0  0  0  0  0  0  0  0  0
  -28.5080  -16.0210   20.5520 H   0  0  0  0  0  0  0  0  0  0  0  0
  -25.1810  -13.8990   20.5080 C   0  0  0  0  0  0  0  0  0  0  0  0
  -24.1290  -13.1110   20.8830 C   0  0  0  0  0  0  0  0  0  0  0  0
  -24.6040  -11.7660   20.8300 C   0  0  0  0  0  0  0  0  0  0  0  0
  -26.2270  -13.0340   20.2390 N   0  0  0  0  0  0  0  0  0  0  0  0
  -25.8920  -11.7430   20.5000 N   0  0  0  0  0  0  0  0  0  0  0  0
  -23.8850  -10.4970   21.0170 C   0  0  0  0  0  0  0  0  0  0  0  0
  -24.3130   -9.5350   21.9570 C   0  0  0  0  0  3  0  0  0  0  0  0
  -23.5910   -8.3330   22.1290 C   0  0  0  0  0  3  0  0  0  0  0  0
  -22.4280   -8.0850   21.3630 C   0  0  0  0  0  0  0  0  0  0  0  0
  -22.0200   -9.0370   20.4120 C   0  0  0  0  0  3  0  0  0  0  0  0
  -22.7430  -10.2290   20.2380 C   0  0  0  0  0  3  0  0  0  0  0  0
  -21.6800   -6.9360   21.4440 O   0  0  0  0  0  0  0  0  0  0  0  0
  -21.5980   -6.2120   22.6070 C   0  0  0  0  0  0  0  0  0  0  0  0
  -21.0990   -6.7760   23.8030 C   0  0  0  0  0  3  0  0  0  0  0  0
  -20.9660   -5.9760   24.9550 C   0  0  0  0  0  3  0  0  0  0  0  0
  -21.3220   -4.6140   24.9130 C   0  0  0  0  0  0  0  0  0  0  0  0
  -21.8130   -4.0510   23.7230 C   0  0  0  0  0  3  0  0  0  0  0  0
  -21.9460   -4.8470   22.5730 C   0  0  0  0  0  0  0  0  0  0  0  0
  -22.4010   -4.2940   21.4220 F   0  0  0  0  0  0  0  0  0  0  0  0
  -21.1880   -3.8440   26.0180 F   0  0  0  0  0  0  0  0  0  0  0  0
  -22.7320  -13.5770   21.1750 C   0  0  0  0  0  0  0  0  0  0  0  0
  -22.0170  -12.8750   22.0480 N   0  0  0  0  0  0  0  0  0  0  0  0
  -22.2810  -14.6010   20.6620 O   0  0  0  0  0  0  0  0  0  0  0  0
  -22.3940  -12.0510   22.4920 H   0  0  0  0  0  0  0  0  0  0  0  0
  -21.0790  -13.1710   22.2780 H   0  0  0  0  0  0  0  0  0  0  0  0
  -25.3260  -15.2740   20.3450 N   0  0  0  0  0  0  0  0  0  0  0  0
  -24.5460  -15.9080   20.4830 H   0  0  0  0  0  0  0  0  0  0  0  0
  -26.1570  -15.7460   20.0140 H   0  0  0  0  0  0  0  0  0  0  0  0
  -30.1960  -23.2140   19.5610 N   0  0  0  0  0  4  0  0  0  0  0  0
  -30.0160  -23.1560   18.5730 H   0  0  0  0  0  0  0  0  0  0  0  0
  -30.9730  -22.6220   19.7910 H   0  0  0  0  0  0  0  0  0  0  0  0
  -30.4640  -24.1620   19.7590 H   0  0  0  0  0  0  0  0  0  0  0  0
  -27.9280  -24.3070   20.1170 C   0  0  0  0  0  2  0  0  0  0  0  0
  -28.1640  -25.9280   20.2850 O   0  0  0  0  0  0  0  0  0  0  0  0
  -24.6290  -31.8850   23.2530 C   0  0  0  0  0  0  0  0  0  0  0  0
  -27.1510  -27.0160   20.2190 C   0  0  0  0  0  0  0  0  0  0  0  0
  -23.4240  -30.5010   21.6110 C   0  0  0  0  0  3  0  0  0  0  0  0
  -24.8600  -28.9000   20.1770 C   0  0  0  0  0  0  0  0  0  0  0  0
  -25.9900  -30.7040   21.4600 C   0  0  0  0  0  2  0  0  0  0  0  0
  -26.0500  -29.2980   20.8000 C   0  0  0  0  0  0  0  0  0  0  0  0
  -27.1910  -28.3790   20.7940 C   0  0  0  0  0  3  0  0  0  0  0  0
  -25.9330  -26.7660   19.5480 C   0  0  0  0  0  3  0  0  0  0  0  0
  -24.8270  -27.6560   19.5270 C   0  0  0  0  0  3  0  0  0  0  0  0
  -23.6470  -29.8270   20.2310 C   0  0  0  0  0  2  0  0  0  0  0  0
  -24.7030  -31.0560   22.1630 N   0  0  0  0  0  0  0  0  0  0  0  0
  -23.5430  -32.1760   23.7790 O   0  0  0  0  0  0  0  0  0  0  0  0
  -22.7300  -29.5020   22.5740 C   0  0  0  0  0  0  0  0  0  0  0  0
  -21.4010  -29.3330   22.4420 N   0  0  0  0  0  0  0  0  0  0  0  0
  -23.3940  -28.8780   23.4050 O   0  0  0  0  0  0  0  0  0  0  0  0
  -20.9190  -29.8860   21.7460 H   0  0  0  0  0  0  0  0  0  0  0  0
  -18.0190  -28.1170   22.9370 C   0  0  0  0  0  0  0  0  0  0  0  0
  -20.5770  -28.3960   23.2130 C   0  0  0  0  0  3  0  0  0  0  0  0
  -20.6870  -26.9620   22.6430 C   0  0  0  0  0  2  0  0  0  0  0  0
  -19.5910  -26.6300   21.6240 C   0  0  0  0  0  2  0  0  0  0  0  0
  -18.2070  -26.7690   22.2620 C   0  0  0  0  0  2  0  0  0  0  0  0
  -19.1320  -28.8880   23.3690 C   0  0  0  0  0  0  0  0  0  0  0  0
  -18.9020  -30.1470   23.9630 C   0  0  0  0  0  3  0  0  0  0  0  0
  -17.5910  -30.6370   24.1300 C   0  0  0  0  0  3  0  0  0  0  0  0
  -16.4940  -29.8650   23.7100 C   0  0  0  0  0  3  0  0  0  0  0  0
  -16.7090  -28.6080   23.1190 C   0  0  0  0  0  3  0  0  0  0  0  0
  -25.9040  -32.5190   23.8840 C   0  0  0  0  0  3  0  0  0  0  0  0
  -26.4080  -31.7480   25.1680 C   0  0  1  0  0  0  0  0  0  0  0  0
  -25.3060  -31.5190   26.2300 C   0  0  0  0  0  1  0  0  0  0  0  0
  -26.9850  -30.3640   24.7930 C   0  0  0  0  0  1  0  0  0  0  0  0
  -27.5580  -32.5390   25.8360 C   0  0  0  0  0  1  0  0  0  0  0  0
  -25.5950  -33.9200   24.2230 N   0  0  0  0  0  0  0  0  0  0  0  0
  -25.8980  -34.9790   23.4600 C   0  0  0  0  0  0  0  0  0  0  0  0
  -26.5310  -34.8790   22.4060 O   0  0  0  0  0  0  0  0  0  0  0  0
  -25.0280  -34.0700   25.0450 H   0  0  0  0  0  0  0  0  0  0  0  0
  -24.1400  -36.7640   23.1950 C   0  0  0  0  0  1  0  0  0  0  0  0
  -25.4270  -36.3670   23.9390 C   0  0  0  0  0  3  0  0  0  0  0  0
  -27.5920  -37.2800   24.6570 C   0  0  0  0  0  1  0  0  0  0  0  0
  -26.4430  -37.4280   23.7650 N   0  0  0  0  0  0  0  0  0  0  0  0
  -26.0380  -38.3470   23.9220 H   0  0  0  0  0  0  0  0  0  0  0  0
  1 51  1  0
  2  3  1  0
  2  4  1  0
  3  5  1  0
  4  5  1  0
  4  1  1  0
  5 15  1  0
  5  6  1  1
  7 16  1  0
  8 13  1  0
  9 10  1  0
  9  8  1  0
 11 10  1  0
 11 22  1  0
 11 12  1  0
 13  7  1  0
 13 12  1  0
 14  7  2  0
 15 17  2  0
 16 15  1  0
 16 18  1  0
 19 20  2  0
 20 39  1  0
 21 20  1  0
 21 24  1  0
 22 23  1  0
 22 19  1  0
 23 21  2  0
 24 25  1  0
 25 26  2  0
 27 30  1  0
 27 26  1  0
 28 27  2  0
 29 28  1  0
 29 24  2  0
 30 31  1  0
 31 32  1  0
 32 33  2  0
 34 33  1  0
 34 38  1  0
 35 34  2  0
 36 31  2  0
 36 35  1  0
 37 36  1  0
 39 40  1  0
 40 43  1  0
 40 42  1  0
 41 39  2  0
 44 45  1  0
 44 19  1  0
 46 44  1  0
 47 50  1  0
 47 49  1  0
 47  1  1  0
 48 47  1  0
 51 52  1  0
 53 64  2  0
 54 52  1  0
 54 59  1  0
 55 63  1  0
 55 65  1  0
 56 62  1  0
 56 58  1  0
 57 63  1  0
 58 57  1  0
 59 58  2  0
 60 54  2  0
 61 60  1  0
 61 56  2  0
 62 55  1  0
 63 53  1  0
 65 67  2  0
 66 65  1  0
 68 66  1  0
 69 78  2  0
 69 74  1  0
 70 66  1  0
 70 74  1  0
 71 70  1  0
 72 73  1  0
 72 71  1  0
 73 69  1  0
 74 75  2  0
 75 76  1  0
 77 76  2  0
 78 77  1  0
 79 53  1  0
 79 84  1  0
 79 80  1  0
 80 83  1  1
 80 81  1  0
 82 80  1  0
 84 87  1  0
 85 89  1  0
 85 84  1  0
 86 85  2  0
 89 88  1  0
 91 92  1  0
 91 89  1  0
 91 90  1  0
M  ISO  4   7 100  16 100  51 101  52 101
M  END
>  <TORSDO>  (42) 
F 19

>  <SCORE>  (42) 
-16.445

>  <name>  (42) 
41

>  <ligand_id>  (42) 
41

>  <original_smiles>  (42) 
[H]c1c([H])c([H])c2c(c1[H])C([H])([H])C([H])([H])C([H])([H])C2([H])N([H])C(=O)C1([H])N(C(=O)C([H])(N([H])C(=O)C([H])(N([H])C([H])([H])[H])C([H])([H])[H])C(C([H])([H])[H])(C([H])([H])[H])C([H])([H])[H])C([H])([H])c2c([H])c(OC([H])([H])C([H])(C3([H])C([H])([H])C([H])([H])C3(C(=O)N([H])C(=O)N3C([H])([H])C([H])([H])C([H])([H])C([H])(n4nc(-c5c([H])c([H])c(Oc6c([H])c([H])c(F)c([H])c6F)c([H])c5[H])c(C(=O)N([H])[H])c4N([H])[H])C3([H])[H])C([H])([H])[H])[N+]([H])([H])[H])c([H])c([H])c2C1([H])[H]

>  <smiles>  (42) 
[H]c1c([H])c([H])c2c(c1[H])C([H])([H])C([H])([H])C([H])([H])C2([H])N([H])C(=O)C1([H])N(C(=O)C([H])(N([H])C(=O)C([H])(N([H])C([H])([H])[H])C([H])([H])[H])C(C([H])([H])[H])(C([H])([H])[H])C([H])([H])[H])C([H])([H])c2c([H])c(OC([H])([H])C([H])(C3([H])C([H])([H])C([H])([H])C3(C(=O)N([H])C(=O)N3C([H])([H])C([H])([H])C([H])([H])C([H])(n4nc(-c5c([H])c([H])c(Oc6c([H])c([H])c(F)c([H])c6F)c([H])c5[H])c(C(=O)N([H])[H])c4N([H])[H])C3([H])[H])C([H])([H])[H])[N+]([H])([H])[H])c([H])c([H])c2C1([H])[H]

$$$$
42:0:0
     RDKit          3D

 96105  0  0  1  0  0  0  0  0999 V2000
  -28.8290  -22.6160   20.1920 C   0  0  0  0  0  3  0  0  0  0  0  0
  -27.9070  -23.8330   20.6810 C   0  0  0  0  0  2  0  0  0  0  0  0
  -28.4550  -25.2850   21.0440 C   0  0  0  0  0  2  0  0  0  0  0  0
  -28.3780  -26.3900   20.0990 O   0  0  0  0  0  0  0  0  0  0  0  0
  -24.7340  -31.7380   23.2880 C   0  0  0  0  0  0  0  0  0  0  0  0
  -27.2660  -27.2190   20.1620 C   0  0  0  0  0  0  0  0  0  0  0  0
  -23.5130  -30.4160   21.5930 C   0  0  0  0  0  3  0  0  0  0  0  0
  -24.9400  -28.8530   20.1600 C   0  0  0  0  0  0  0  0  0  0  0  0
  -26.0580  -30.6730   21.4550 C   0  0  0  0  0  2  0  0  0  0  0  0
  -26.1090  -29.3090   20.7850 C   0  0  0  0  0  0  0  0  0  0  0  0
  -27.2780  -28.5010   20.7780 C   0  0  0  0  0  3  0  0  0  0  0  0
  -26.0800  -26.7920   19.5320 C   0  0  0  0  0  3  0  0  0  0  0  0
  -24.9230  -27.5960   19.5300 C   0  0  0  0  0  3  0  0  0  0  0  0
  -23.7280  -29.7620   20.2020 C   0  0  0  0  0  2  0  0  0  0  0  0
  -24.7860  -30.9580   22.1700 N   0  0  0  0  0  0  0  0  0  0  0  0
  -23.6510  -32.0370   23.8140 O   0  0  0  0  0  0  0  0  0  0  0  0
  -22.8040  -29.3990   22.5150 C   0  0  0  0  0  0  0  0  0  0  0  0
  -21.4810  -29.2420   22.3330 N   0  0  0  0  0  0  0  0  0  0  0  0
  -23.4430  -28.7530   23.3500 O   0  0  0  0  0  0  0  0  0  0  0  0
  -21.0300  -29.8160   21.6360 H   0  0  0  0  0  0  0  0  0  0  0  0
  -18.0670  -28.1020   22.6910 C   0  0  0  0  0  0  0  0  0  0  0  0
  -20.6180  -28.3090   23.0580 C   0  0  0  0  0  3  0  0  0  0  0  0
  -20.7170  -26.8840   22.4660 C   0  0  0  0  0  2  0  0  0  0  0  0
  -19.6470  -26.5970   21.4070 C   0  0  0  0  0  2  0  0  0  0  0  0
  -18.2450  -26.7610   22.0010 C   0  0  0  0  0  2  0  0  0  0  0  0
  -19.1840  -28.8370   23.1720 C   0  0  0  0  0  0  0  0  0  0  0  0
  -18.9680  -30.0960   23.7730 C   0  0  0  0  0  3  0  0  0  0  0  0
  -17.6690  -30.6220   23.8960 C   0  0  0  0  0  3  0  0  0  0  0  0
  -16.5660  -29.8830   23.4350 C   0  0  0  0  0  3  0  0  0  0  0  0
  -16.7660  -28.6250   22.8370 C   0  0  0  0  0  3  0  0  0  0  0  0
  -26.0280  -32.3090   23.9480 C   0  0  0  0  0  3  0  0  0  0  0  0
  -25.7770  -33.7220   24.2630 N   0  0  0  0  0  0  0  0  0  0  0  0
  -26.1820  -34.7540   23.5110 C   0  0  0  0  0  0  0  0  0  0  0  0
  -26.8780  -34.6140   22.5030 O   0  0  0  0  0  0  0  0  0  0  0  0
  -25.1690  -33.9080   25.0480 H   0  0  0  0  0  0  0  0  0  0  0  0
  -24.5610  -36.6300   23.0950 C   0  0  0  0  0  1  0  0  0  0  0  0
  -25.7500  -36.1660   23.9510 C   0  0  0  0  0  3  0  0  0  0  0  0
  -27.8820  -36.9590   24.8760 C   0  0  0  0  0  1  0  0  0  0  0  0
  -26.8380  -37.1650   23.8750 N   0  0  0  0  0  0  0  0  0  0  0  0
  -26.4700  -38.1050   23.9930 H   0  0  0  0  0  0  0  0  0  0  0  0
  -26.4670  -31.5190   25.2420 C   0  0  1  0  0  0  0  0  0  0  0  0
  -25.3280  -31.3300   26.2700 C   0  0  0  0  0  1  0  0  0  0  0  0
  -27.0060  -30.1180   24.8700 C   0  0  0  0  0  1  0  0  0  0  0  0
  -27.6250  -32.2670   25.9440 C   0  0  0  0  0  1  0  0  0  0  0  0
  -28.2190  -21.1730   20.5290 C   0  0  0  0  0  2  0  0  0  0  0  0
  -30.0650  -17.8860   21.2430 C   0  0  0  0  0  2  0  0  0  0  0  0
  -29.8010  -17.1910   18.6750 C   0  0  0  0  0  2  0  0  0  0  0  0
  -30.0760  -19.3980   20.7900 C   0  0  0  0  0  2  0  0  0  0  0  0
  -27.9020  -18.8220   19.6840 C   0  0  0  0  0  2  0  0  0  0  0  0
  -28.4740  -17.4230   19.3700 C   0  0  0  0  0  3  0  0  0  0  0  0
  -29.6560  -16.8870   20.1580 C   0  0  2  0  0  0  0  0  0  0  0  0
  -28.8910  -19.9050   20.0020 N   0  0  1  0  0  4  0  0  0  0  0  0
  -29.2610  -20.1490   19.0950 H   0  0  0  0  0  0  0  0  0  0  0  0
  -30.4970  -14.4650   20.3880 C   0  0  0  0  0  0  0  0  0  0  0  0
  -30.4000  -12.1670   19.4650 C   0  0  0  0  0  2  0  0  0  0  0  0
  -29.4500  -12.2030   18.2460 C   0  0  0  0  0  2  0  0  0  0  0  0
  -27.9870  -11.9950   18.6860 C   0  0  0  0  0  2  0  0  0  0  0  0
  -27.5910  -12.9050   19.8800 C   0  0  0  0  0  3  0  0  0  0  0  0
  -28.6550  -12.8520   21.0010 C   0  0  0  0  0  2  0  0  0  0  0  0
  -29.9520  -13.2110   20.4060 N   0  0  0  0  0  0  0  0  0  0  0  0
  -31.6420  -14.6730   19.9770 O   0  0  0  0  0  0  0  0  0  0  0  0
  -29.6100  -15.4810   20.5950 N   0  0  0  0  0  0  0  0  0  0  0  0
  -28.7200  -15.1720   20.9580 H   0  0  0  0  0  0  0  0  0  0  0  0
  -25.1930  -13.4410   20.6360 C   0  0  0  0  0  0  0  0  0  0  0  0
  -24.1530  -12.6370   21.0220 C   0  0  0  0  0  0  0  0  0  0  0  0
  -24.6520  -11.2990   20.9770 C   0  0  0  0  0  0  0  0  0  0  0  0
  -26.2560  -12.5880   20.3810 N   0  0  0  0  0  0  0  0  0  0  0  0
  -25.9360  -11.2960   20.6460 N   0  0  0  0  0  0  0  0  0  0  0  0
  -23.9650  -10.0170   21.1730 C   0  0  0  0  0  0  0  0  0  0  0  0
  -24.3570   -9.1150   22.1870 C   0  0  0  0  0  3  0  0  0  0  0  0
  -23.6670   -7.8960   22.3650 C   0  0  0  0  0  3  0  0  0  0  0  0
  -22.5730   -7.5700   21.5300 C   0  0  0  0  0  0  0  0  0  0  0  0
  -22.2000   -8.4620   20.5080 C   0  0  0  0  0  3  0  0  0  0  0  0
  -22.8910   -9.6720   20.3270 C   0  0  0  0  0  3  0  0  0  0  0  0
  -21.8590   -6.3990   21.6150 O   0  0  0  0  0  0  0  0  0  0  0  0
  -21.6840   -5.7480   22.8090 C   0  0  0  0  0  0  0  0  0  0  0  0
  -20.9840   -6.3380   23.8850 C   0  0  0  0  0  3  0  0  0  0  0  0
  -20.7670   -5.6080   25.0690 C   0  0  0  0  0  3  0  0  0  0  0  0
  -21.2400   -4.2860   25.1800 C   0  0  0  0  0  0  0  0  0  0  0  0
  -21.9350   -3.6950   24.1090 C   0  0  0  0  0  3  0  0  0  0  0  0
  -22.1530   -4.4240   22.9260 C   0  0  0  0  0  0  0  0  0  0  0  0
  -22.8040   -3.8420   21.8900 F   0  0  0  0  0  0  0  0  0  0  0  0
  -21.0260   -3.5810   26.3150 F   0  0  0  0  0  0  0  0  0  0  0  0
  -22.7480  -13.0750   21.3190 C   0  0  0  0  0  0  0  0  0  0  0  0
  -22.0490  -12.3450   22.1810 N   0  0  0  0  0  0  0  0  0  0  0  0
  -22.2790  -14.0980   20.8230 O   0  0  0  0  0  0  0  0  0  0  0  0
  -22.4400  -11.5170   22.6020 H   0  0  0  0  0  0  0  0  0  0  0  0
  -21.1070  -12.6190   22.4230 H   0  0  0  0  0  0  0  0  0  0  0  0
  -25.3160  -14.8150   20.4560 N   0  0  0  0  0  0  0  0  0  0  0  0
  -24.5220  -15.4400   20.5570 H   0  0  0  0  0  0  0  0  0  0  0  0
  -26.1270  -15.2690   20.0610 H   0  0  0  0  0  0  0  0  0  0  0  0
  -30.3280  -22.7620   20.5700 C   0  0  0  0  0  2  0  0  0  0  0  0
  -32.1240  -22.2680   22.1930 C   0  0  0  0  0  1  0  0  0  0  0  0
  -30.6690  -22.3770   21.9620 N   0  0  0  0  0  4  0  0  0  0  0  0
  -30.3110  -23.0550   22.6150 H   0  0  0  0  0  0  0  0  0  0  0  0
  -30.2620  -21.4870   22.1990 H   0  0  0  0  0  0  0  0  0  0  0  0
  1 45  1  0
  1 92  1  0
  1  2  1  0
  2  3  1  0
  4  6  1  0
  4  3  1  0
  5 16  2  0
  6 11  1  0
  7 15  1  0
  7 17  1  0
  8 14  1  0
  8 10  1  0
  9 15  1  0
 10  9  1  0
 11 10  2  0
 12  6  2  0
 13 12  1  0
 13  8  2  0
 14  7  1  0
 15  5  1  0
 17 19  2  0
 18 17  1  0
 20 18  1  0
 21 30  2  0
 21 26  1  0
 22 18  1  0
 22 26  1  0
 23 22  1  0
 24 25  1  0
 24 23  1  0
 25 21  1  0
 26 27  2  0
 27 28  1  0
 29 28  2  0
 30 29  1  0
 31  5  1  0
 31 32  1  0
 31 41  1  0
 32 35  1  0
 33 37  1  0
 33 32  1  0
 34 33  2  0
 37 36  1  0
 39 37  1  0
 39 40  1  0
 39 38  1  0
 41 44  1  1
 41 42  1  0
 43 41  1  0
 47 51  1  0
 48 46  1  0
 49 52  1  0
 50 47  1  0
 50 49  1  0
 50 51  1  0
 51 62  1  1
 51 46  1  0
 52 45  1  0
 52 48  1  0
 52 53  1  6
 54 60  1  0
 54 62  1  0
 55 60  1  0
 56 57  1  0
 56 55  1  0
 58 57  1  0
 58 67  1  0
 58 59  1  0
 60 59  1  0
 61 54  2  0
 62 63  1  0
 64 65  2  0
 65 84  1  0
 66 65  1  0
 66 69  1  0
 67 64  1  0
 67 68  1  0
 68 66  2  0
 69 70  1  0
 70 71  2  0
 72 75  1  0
 72 71  1  0
 73 72  2  0
 74 73  1  0
 74 69  2  0
 75 76  1  0
 76 81  2  0
 76 77  1  0
 77 78  2  0
 78 79  1  0
 79 83  1  0
 80 79  2  0
 81 80  1  0
 82 81  1  0
 84 85  1  0
 85 88  1  0
 85 87  1  0
 86 84  2  0
 89 90  1  0
 89 64  1  0
 91 89  1  0
 92 94  1  0
 94 93  1  0
 94 96  1  0
 94 95  1  0
M  ISO  4   3 101   4 101  54 100  62 100
M  END
>  <TORSDO>  (43) 
F 22

>  <SCORE>  (43) 
-11.651

>  <name>  (43) 
42

>  <ligand_id>  (43) 
42

>  <original_smiles>  (43) 
[H]c1c([H])c([H])c2c(c1[H])C([H])([H])C([H])([H])C([H])([H])C2([H])N([H])C(=O)C1([H])N(C(=O)C([H])(N([H])C(=O)C([H])(N([H])C([H])([H])[H])C([H])([H])[H])C(C([H])([H])[H])(C([H])([H])[H])C([H])([H])[H])C([H])([H])c2c([H])c(OC([H])([H])C([H])([H])C([H])(C([H])([H])[N+]([H])([H])C([H])([H])[H])C([H])([H])[N+]3([H])C([H])([H])C([H])([H])C4(N([H])C(=O)N5C([H])([H])C([H])([H])C([H])([H])C([H])(n6nc(-c7c([H])c([H])c(Oc8c([H])c([H])c(F)c([H])c8F)c([H])c7[H])c(C(=O)N([H])[H])c6N([H])[H])C5([H])[H])C([H])([H])C4([H])C3([H])[H])c([H])c([H])c2C1([H])[H]

>  <smiles>  (43) 
[H]c1c([H])c([H])c2c(c1[H])C([H])([H])C([H])([H])C([H])([H])C2([H])N([H])C(=O)C1([H])N(C(=O)C([H])(N([H])C(=O)C([H])(N([H])C([H])([H])[H])C([H])([H])[H])C(C([H])([H])[H])(C([H])([H])[H])C([H])([H])[H])C([H])([H])c2c([H])c(OC([H])([H])C([H])([H])C([H])(C([H])([H])[N+]([H])([H])C([H])([H])[H])C([H])([H])[N+]3([H])C([H])([H])C([H])([H])C4(N([H])C(=O)N5C([H])([H])C([H])([H])C([H])([H])C([H])(n6nc(-c7c([H])c([H])c(Oc8c([H])c([H])c(F)c([H])c8F)c([H])c7[H])c(C(=O)N([H])[H])c6N([H])[H])C5([H])[H])C([H])([H])C4([H])C3([H])[H])c([H])c([H])c2C1([H])[H]

$$$$
43:0:0
     RDKit          3D

 98106  0  0  1  0  0  0  0  0999 V2000
  -31.1840  -18.6170   21.0080 C   0  0  0  0  0  2  0  0  0  0  0  0
  -28.8160  -18.5480   20.5850 C   0  0  0  0  0  2  0  0  0  0  0  0
  -31.1300  -20.2240   20.8470 C   0  0  0  0  0  2  0  0  0  0  0  0
  -28.7890  -20.1390   20.3020 C   0  0  0  0  0  2  0  0  0  0  0  0
  -30.1350  -17.7200   20.2300 C   0  0  2  0  0  0  0  0  0  0  0  0
  -29.8050  -20.9480   21.0660 N   0  0  2  0  0  4  0  0  0  0  0  0
  -29.5870  -20.8070   22.0430 H   0  0  0  0  0  0  0  0  0  0  0  0
  -30.9330  -15.1030   20.4050 C   0  0  0  0  0  0  0  0  0  0  0  0
  -30.7770  -12.8730   19.2740 C   0  0  0  0  0  2  0  0  0  0  0  0
  -29.8330  -13.0380   18.0650 C   0  0  0  0  0  2  0  0  0  0  0  0
  -28.3600  -12.8460   18.4820 C   0  0  0  0  0  2  0  0  0  0  0  0
  -27.9950  -13.6030   19.7850 C   0  0  0  0  0  3  0  0  0  0  0  0
  -29.0690  -13.4230   20.8810 C   0  0  0  0  0  2  0  0  0  0  0  0
  -30.3500  -13.8540   20.3030 N   0  0  0  0  0  0  0  0  0  0  0  0
  -32.1110  -15.2470   20.0600 O   0  0  0  0  0  0  0  0  0  0  0  0
  -30.0970  -16.2060   20.6360 N   0  0  0  0  0  0  0  0  0  0  0  0
  -29.1930  -15.9030   20.9660 H   0  0  0  0  0  0  0  0  0  0  0  0
  -25.6090  -14.1420   20.5360 C   0  0  0  0  0  0  0  0  0  0  0  0
  -24.5500  -13.3440   20.8750 C   0  0  0  0  0  0  0  0  0  0  0  0
  -25.0230  -11.9980   20.7800 C   0  0  0  0  0  0  0  0  0  0  0  0
  -26.6570  -13.2770   20.2590 N   0  0  0  0  0  0  0  0  0  0  0  0
  -26.3100  -11.9810   20.4660 N   0  0  0  0  0  0  0  0  0  0  0  0
  -24.3050  -10.7240   20.9110 C   0  0  0  0  0  0  0  0  0  0  0  0
  -24.6620   -9.7780   21.8970 C   0  0  0  0  0  3  0  0  0  0  0  0
  -23.9440   -8.5660   22.0120 C   0  0  0  0  0  3  0  0  0  0  0  0
  -22.8610   -8.2930   21.1400 C   0  0  0  0  0  0  0  0  0  0  0  0
  -22.5260   -9.2310   20.1500 C   0  0  0  0  0  3  0  0  0  0  0  0
  -23.2410  -10.4360   20.0310 C   0  0  0  0  0  3  0  0  0  0  0  0
  -22.1210   -7.1350   21.1650 O   0  0  0  0  0  0  0  0  0  0  0  0
  -21.8710   -6.4710   22.3400 C   0  0  0  0  0  0  0  0  0  0  0  0
  -21.1860   -7.0840   23.4100 C   0  0  0  0  0  3  0  0  0  0  0  0
  -20.8810   -6.3430   24.5700 C   0  0  0  0  0  3  0  0  0  0  0  0
  -21.2520   -4.9860   24.6610 C   0  0  0  0  0  0  0  0  0  0  0  0
  -21.9250   -4.3710   23.5880 C   0  0  0  0  0  3  0  0  0  0  0  0
  -22.2310   -5.1130   22.4320 C   0  0  0  0  0  0  0  0  0  0  0  0
  -22.8640   -4.5100   21.3970 F   0  0  0  0  0  0  0  0  0  0  0  0
  -20.9540   -4.2690   25.7690 F   0  0  0  0  0  0  0  0  0  0  0  0
  -23.1510  -13.7980   21.1680 C   0  0  0  0  0  0  0  0  0  0  0  0
  -22.4320  -13.0700   22.0170 N   0  0  0  0  0  0  0  0  0  0  0  0
  -22.6980  -14.8370   20.6880 O   0  0  0  0  0  0  0  0  0  0  0  0
  -22.8080  -12.2360   22.4440 H   0  0  0  0  0  0  0  0  0  0  0  0
  -21.4910  -13.3550   22.2470 H   0  0  0  0  0  0  0  0  0  0  0  0
  -25.7610  -15.5200   20.4160 N   0  0  0  0  0  0  0  0  0  0  0  0
  -24.9780  -16.1550   20.5350 H   0  0  0  0  0  0  0  0  0  0  0  0
  -26.5920  -15.9840   20.0840 H   0  0  0  0  0  0  0  0  0  0  0  0
  -30.3520  -17.7620   18.6870 C   0  0  0  0  0  0  0  0  0  0  0  0
  -31.4870  -17.7650   18.2040 O   0  0  0  0  0  0  0  0  0  0  0  0
  -29.1180  -17.8320   17.7670 C   0  0  0  0  0  2  0  0  0  0  0  0
  -29.5490  -18.2580   16.4220 N   0  0  0  0  0  4  0  0  0  0  0  0
  -30.3390  -18.8720   16.5300 H   0  0  0  0  0  0  0  0  0  0  0  0
  -28.8070  -18.7350   15.9370 H   0  0  0  0  0  0  0  0  0  0  0  0
  -29.8490  -17.4650   15.8840 H   0  0  0  0  0  0  0  0  0  0  0  0
  -29.8850  -22.5210   20.8960 C   0  0  0  0  0  2  0  0  0  0  0  0
  -28.6110  -23.5850   20.9290 C   0  0  0  0  0  2  0  0  0  0  0  0
  -27.4510  -25.3250   22.4110 C   0  0  0  0  0  1  0  0  0  0  0  0
  -29.9000  -25.4910   22.1750 C   0  0  0  0  0  1  0  0  0  0  0  0
  -28.6120  -25.2090   21.3900 C   0  0  1  0  0  0  0  0  0  0  0  0
  -28.5470  -26.4680   20.4980 O   0  0  0  0  0  0  0  0  0  0  0  0
  -24.6460  -31.9930   23.4060 C   0  0  0  0  0  0  0  0  0  0  0  0
  -27.4480  -27.3830   20.4720 C   0  0  0  0  0  0  0  0  0  0  0  0
  -23.5370  -30.5540   21.7370 C   0  0  0  0  0  3  0  0  0  0  0  0
  -25.0660  -29.0110   20.3790 C   0  0  0  0  0  0  0  0  0  0  0  0
  -26.0850  -30.8940   21.6620 C   0  0  0  0  0  2  0  0  0  0  0  0
  -26.2110  -29.5090   21.0150 C   0  0  0  0  0  0  0  0  0  0  0  0
  -27.4060  -28.7080   21.0470 C   0  0  0  0  0  3  0  0  0  0  0  0
  -26.2800  -26.9660   19.8000 C   0  0  0  0  0  3  0  0  0  0  0  0
  -25.1070  -27.7490   19.7640 C   0  0  0  0  0  3  0  0  0  0  0  0
  -23.8130  -29.8670   20.3750 C   0  0  0  0  0  2  0  0  0  0  0  0
  -24.7730  -31.1710   22.3220 N   0  0  0  0  0  0  0  0  0  0  0  0
  -23.5370  -32.2550   23.8940 O   0  0  0  0  0  0  0  0  0  0  0  0
  -22.8550  -29.5390   22.6850 C   0  0  0  0  0  0  0  0  0  0  0  0
  -21.5410  -29.3170   22.4990 N   0  0  0  0  0  0  0  0  0  0  0  0
  -23.5110  -28.9540   23.5490 O   0  0  0  0  0  0  0  0  0  0  0  0
  -21.0670  -29.8330   21.7700 H   0  0  0  0  0  0  0  0  0  0  0  0
  -18.1790  -28.0410   22.9140 C   0  0  0  0  0  0  0  0  0  0  0  0
  -20.7220  -28.3640   23.2490 C   0  0  0  0  0  3  0  0  0  0  0  0
  -20.8740  -26.9330   22.6810 C   0  0  0  0  0  2  0  0  0  0  0  0
  -19.8080  -26.5820   21.6370 C   0  0  0  0  0  2  0  0  0  0  0  0
  -18.4050  -26.6960   22.2400 C   0  0  0  0  0  2  0  0  0  0  0  0
  -19.2660  -28.8300   23.3720 C   0  0  0  0  0  0  0  0  0  0  0  0
  -19.0000  -30.0870   23.9600 C   0  0  0  0  0  3  0  0  0  0  0  0
  -17.6790  -30.5550   24.0880 C   0  0  0  0  0  3  0  0  0  0  0  0
  -16.6060  -29.7620   23.6490 C   0  0  0  0  0  3  0  0  0  0  0  0
  -16.8560  -28.5070   23.0690 C   0  0  0  0  0  3  0  0  0  0  0  0
  -25.8900  -32.6640   24.0690 C   0  0  0  0  0  3  0  0  0  0  0  0
  -25.5350  -34.0580   24.3780 N   0  0  0  0  0  0  0  0  0  0  0  0
  -25.8530  -35.1150   23.6140 C   0  0  0  0  0  0  0  0  0  0  0  0
  -26.5460  -35.0180   22.5970 O   0  0  0  0  0  0  0  0  0  0  0  0
  -24.9220  -34.2040   25.1680 H   0  0  0  0  0  0  0  0  0  0  0  0
  -24.0780  -36.8510   23.2290 C   0  0  0  0  0  1  0  0  0  0  0  0
  -25.3250  -36.4940   24.0510 C   0  0  0  0  0  3  0  0  0  0  0  0
  -27.4300  -37.4460   24.8870 C   0  0  0  0  0  1  0  0  0  0  0  0
  -26.3280  -37.5740   23.9350 N   0  0  0  0  0  0  0  0  0  0  0  0
  -25.8930  -38.4820   24.0730 H   0  0  0  0  0  0  0  0  0  0  0  0
  -26.3790  -31.9200   25.3740 C   0  0  1  0  0  0  0  0  0  0  0  0
  -25.2340  -31.5670   26.3510 C   0  0  0  0  0  1  0  0  0  0  0  0
  -27.1130  -30.6060   25.0250 C   0  0  0  0  0  1  0  0  0  0  0  0
  -27.3990  -32.8040   26.1290 C   0  0  0  0  0  1  0  0  0  0  0  0
  3  1  1  0
  3  6  1  0
  4  2  1  0
  4  6  1  0
  5 46  1  0
  5  2  1  0
  5 16  1  1
  5  1  1  0
  6  7  1  1
  8 16  1  0
  9 14  1  0
 10 11  1  0
 10  9  1  0
 12 11  1  0
 12 21  1  0
 12 13  1  0
 14  8  1  0
 14 13  1  0
 15  8  2  0
 16 17  1  0
 18 19  2  0
 19 38  1  0
 20 19  1  0
 20 23  1  0
 21 22  1  0
 21 18  1  0
 22 20  2  0
 23 24  1  0
 24 25  2  0
 26 29  1  0
 26 25  1  0
 27 26  2  0
 28 27  1  0
 28 23  2  0
 29 30  1  0
 30 35  2  0
 30 31  1  0
 31 32  2  0
 32 33  1  0
 33 37  1  0
 34 33  2  0
 35 34  1  0
 36 35  1  0
 38 39  1  0
 39 42  1  0
 39 41  1  0
 40 38  2  0
 43 44  1  0
 43 18  1  0
 45 43  1  0
 47 46  2  0
 48 46  1  0
 49 50  1  0
 49 48  1  0
 51 49  1  0
 52 49  1  0
 53 54  1  0
 53  6  1  0
 54 57  1  0
 57 56  1  1
 57 55  1  0
 58 57  1  0
 59 70  2  0
 60 58  1  0
 60 65  1  0
 61 69  1  0
 61 71  1  0
 62 64  1  0
 63 69  1  0
 64 65  2  0
 64 63  1  0
 66 60  2  0
 67 66  1  0
 67 62  2  0
 68 62  1  0
 68 61  1  0
 69 59  1  0
 71 73  2  0
 72 71  1  0
 74 72  1  0
 75 84  2  0
 75 80  1  0
 76 72  1  0
 76 80  1  0
 77 76  1  0
 78 79  1  0
 78 77  1  0
 79 75  1  0
 80 81  2  0
 81 82  1  0
 83 82  2  0
 84 83  1  0
 85 59  1  0
 85 86  1  0
 85 95  1  0
 86 89  1  0
 87 91  1  0
 87 86  1  0
 88 87  2  0
 91 90  1  0
 93 91  1  0
 93 94  1  0
 93 92  1  0
 95 98  1  1
 95 96  1  0
 97 95  1  0
M  ISO  4   8 100  16 100  57 101  58 101
M  END
>  <TORSDO>  (44) 
F 22

>  <SCORE>  (44) 
-12.980

>  <name>  (44) 
43

>  <ligand_id>  (44) 
43

>  <original_smiles>  (44) 
[H]c1c([H])c([H])c2c(c1[H])C([H])([H])C([H])([H])C([H])([H])C2([H])N([H])C(=O)C1([H])N(C(=O)C([H])(N([H])C(=O)C([H])(N([H])C([H])([H])[H])C([H])([H])[H])C(C([H])([H])[H])(C([H])([H])[H])C([H])([H])[H])C([H])([H])c2c([H])c(OC(C([H])([H])[H])(C([H])([H])[H])C([H])([H])C([H])([H])[N+]3([H])C([H])([H])C([H])([H])C(C(=O)C([H])([H])[N+]([H])([H])[H])(N([H])C(=O)N4C([H])([H])C([H])([H])C([H])([H])C([H])(n5nc(-c6c([H])c([H])c(Oc7c([H])c([H])c(F)c([H])c7F)c([H])c6[H])c(C(=O)N([H])[H])c5N([H])[H])C4([H])[H])C([H])([H])C3([H])[H])c([H])c([H])c2C1([H])[H]

>  <smiles>  (44) 
[H]c1c([H])c([H])c2c(c1[H])C([H])([H])C([H])([H])C([H])([H])C2([H])N([H])C(=O)C1([H])N(C(=O)C([H])(N([H])C(=O)C([H])(N([H])C([H])([H])[H])C([H])([H])[H])C(C([H])([H])[H])(C([H])([H])[H])C([H])([H])[H])C([H])([H])c2c([H])c(OC(C([H])([H])[H])(C([H])([H])[H])C([H])([H])C([H])([H])[N+]3([H])C([H])([H])C([H])([H])C(C(=O)C([H])([H])[N+]([H])([H])[H])(N([H])C(=O)N4C([H])([H])C([H])([H])C([H])([H])C([H])(n5nc(-c6c([H])c([H])c(Oc7c([H])c([H])c(F)c([H])c7F)c([H])c6[H])c(C(=O)N([H])[H])c5N([H])[H])C4([H])[H])C([H])([H])C3([H])[H])c([H])c([H])c2C1([H])[H]

$$$$
44:0:0
     RDKit          3D

 91100  0  0  1  0  0  0  0  0999 V2000
  -28.8880  -19.6340   21.1450 C   0  0  0  0  0  2  0  0  0  0  0  0
  -28.9170  -22.2690   20.0130 C   0  0  0  0  0  3  0  0  0  0  0  0
  -29.2250  -21.1640   21.1030 C   0  0  0  0  0  3  0  0  0  0  0  0
  -30.1870  -21.3580   19.9910 C   0  0  0  0  0  3  0  0  0  0  0  0
  -29.5260  -18.8920   19.9260 C   0  0  0  0  0  3  0  0  0  0  0  0
  -30.2170  -20.0420   19.2390 N   0  0  0  0  0  4  0  0  0  0  0  0
  -31.1780  -19.7890   19.0840 H   0  0  0  0  0  0  0  0  0  0  0  0
  -29.8110  -20.1640   18.3250 H   0  0  0  0  0  0  0  0  0  0  0  0
  -29.0880  -23.8410   20.3230 C   0  0  0  0  0  0  0  0  0  0  0  0
  -30.0600  -24.2040   20.9940 O   0  0  0  0  0  0  0  0  0  0  0  0
  -28.0580  -24.9780   19.8270 C   0  0  0  0  0  2  0  0  0  0  0  0
  -28.3070  -26.4430   20.1590 O   0  0  0  0  0  0  0  0  0  0  0  0
  -24.5800  -31.9250   23.1900 C   0  0  0  0  0  0  0  0  0  0  0  0
  -27.2180  -27.3560   20.0920 C   0  0  0  0  0  0  0  0  0  0  0  0
  -23.3890  -30.5310   21.5400 C   0  0  0  0  0  3  0  0  0  0  0  0
  -24.8530  -29.0060   20.0920 C   0  0  0  0  0  0  0  0  0  0  0  0
  -25.9330  -30.8560   21.3620 C   0  0  0  0  0  2  0  0  0  0  0  0
  -26.0230  -29.4800   20.6980 C   0  0  0  0  0  0  0  0  0  0  0  0
  -27.2070  -28.6680   20.6880 C   0  0  0  0  0  3  0  0  0  0  0  0
  -26.0240  -26.9650   19.4440 C   0  0  0  0  0  3  0  0  0  0  0  0
  -24.8610  -27.7590   19.4510 C   0  0  0  0  0  3  0  0  0  0  0  0
  -23.6100  -29.8740   20.1520 C   0  0  0  0  0  2  0  0  0  0  0  0
  -24.6530  -31.1230   22.0870 N   0  0  0  0  0  0  0  0  0  0  0  0
  -23.4930  -32.1890   23.7270 O   0  0  0  0  0  0  0  0  0  0  0  0
  -22.7340  -29.5010   22.4920 C   0  0  0  0  0  0  0  0  0  0  0  0
  -21.4110  -29.3060   22.3600 N   0  0  0  0  0  0  0  0  0  0  0  0
  -23.4170  -28.8800   23.3110 O   0  0  0  0  0  0  0  0  0  0  0  0
  -20.9170  -29.8590   21.6740 H   0  0  0  0  0  0  0  0  0  0  0  0
  -18.0410  -28.0850   22.8760 C   0  0  0  0  0  0  0  0  0  0  0  0
  -20.6020  -28.3520   23.1220 C   0  0  0  0  0  3  0  0  0  0  0  0
  -20.7020  -26.9310   22.5200 C   0  0  0  0  0  2  0  0  0  0  0  0
  -19.5910  -26.6220   21.5110 C   0  0  0  0  0  2  0  0  0  0  0  0
  -18.2160  -26.7500   22.1730 C   0  0  0  0  0  2  0  0  0  0  0  0
  -19.1620  -28.8440   23.3080 C   0  0  0  0  0  0  0  0  0  0  0  0
  -18.9440  -30.0940   23.9270 C   0  0  0  0  0  3  0  0  0  0  0  0
  -17.6390  -30.5860   24.1170 C   0  0  0  0  0  3  0  0  0  0  0  0
  -16.5330  -29.8240   23.7020 C   0  0  0  0  0  3  0  0  0  0  0  0
  -16.7350  -28.5750   23.0870 C   0  0  0  0  0  3  0  0  0  0  0  0
  -25.8550  -32.5670   23.8180 C   0  0  0  0  0  3  0  0  0  0  0  0
  -26.3680  -31.8010   25.0990 C   0  0  1  0  0  0  0  0  0  0  0  0
  -25.2680  -31.5450   26.1550 C   0  0  0  0  0  1  0  0  0  0  0  0
  -26.9770  -30.4330   24.7130 C   0  0  0  0  0  1  0  0  0  0  0  0
  -27.5000  -32.6110   25.7750 C   0  0  0  0  0  1  0  0  0  0  0  0
  -25.5350  -33.9640   24.1470 N   0  0  0  0  0  0  0  0  0  0  0  0
  -25.8460  -35.0190   23.3830 C   0  0  0  0  0  0  0  0  0  0  0  0
  -26.5020  -34.9200   22.3420 O   0  0  0  0  0  0  0  0  0  0  0  0
  -24.9540  -34.1160   24.9580 H   0  0  0  0  0  0  0  0  0  0  0  0
  -24.1070  -36.8040   23.0390 C   0  0  0  0  0  1  0  0  0  0  0  0
  -25.3540  -36.4040   23.8460 C   0  0  0  0  0  3  0  0  0  0  0  0
  -27.4730  -37.3130   24.6870 C   0  0  0  0  0  1  0  0  0  0  0  0
  -26.3800  -37.4630   23.7300 N   0  0  0  0  0  0  0  0  0  0  0  0
  -25.9660  -38.3810   23.8610 H   0  0  0  0  0  0  0  0  0  0  0  0
  -30.4650  -17.5510   20.1360 C   0  0  0  0  0  2  0  0  0  0  0  0
  -30.6620  -14.9320   20.1360 C   0  0  0  0  0  0  0  0  0  0  0  0
  -30.4050  -12.6570   19.1250 C   0  0  0  0  0  2  0  0  0  0  0  0
  -29.4290  -12.7250   17.9300 C   0  0  0  0  0  2  0  0  0  0  0  0
  -27.9760  -12.5460   18.4090 C   0  0  0  0  0  2  0  0  0  0  0  0
  -27.6410  -13.4310   19.6390 C   0  0  0  0  0  3  0  0  0  0  0  0
  -28.7370  -13.3600   20.7250 C   0  0  0  0  0  2  0  0  0  0  0  0
  -30.0080  -13.7170   20.0840 N   0  0  0  0  0  0  0  0  0  0  0  0
  -31.8410  -14.9920   19.7830 O   0  0  0  0  0  0  0  0  0  0  0  0
  -29.9490  -16.1130   20.3550 N   0  0  0  0  0  0  0  0  0  0  0  0
  -28.9780  -16.0090   20.6070 H   0  0  0  0  0  0  0  0  0  0  0  0
  -25.2840  -14.0150   20.4600 C   0  0  0  0  0  0  0  0  0  0  0  0
  -24.2280  -13.2380   20.8530 C   0  0  0  0  0  0  0  0  0  0  0  0
  -24.6860  -11.8860   20.7870 C   0  0  0  0  0  0  0  0  0  0  0  0
  -26.3160  -13.1360   20.1740 N   0  0  0  0  0  0  0  0  0  0  0  0
  -25.9660  -11.8500   20.4350 N   0  0  0  0  0  0  0  0  0  0  0  0
  -23.9610  -10.6240   20.9810 C   0  0  0  0  0  0  0  0  0  0  0  0
  -24.3950   -9.6580   21.9160 C   0  0  0  0  0  3  0  0  0  0  0  0
  -23.6700   -8.4610   22.0980 C   0  0  0  0  0  3  0  0  0  0  0  0
  -22.4950   -8.2210   21.3460 C   0  0  0  0  0  0  0  0  0  0  0  0
  -22.0790   -9.1750   20.4010 C   0  0  0  0  0  3  0  0  0  0  0  0
  -22.8060  -10.3640   20.2160 C   0  0  0  0  0  3  0  0  0  0  0  0
  -21.7400   -7.0770   21.4380 O   0  0  0  0  0  0  0  0  0  0  0  0
  -21.6590   -6.3600   22.6040 C   0  0  0  0  0  0  0  0  0  0  0  0
  -21.1130   -6.9130   23.7830 C   0  0  0  0  0  3  0  0  0  0  0  0
  -20.9870   -6.1180   24.9400 C   0  0  0  0  0  3  0  0  0  0  0  0
  -21.3950   -4.7720   24.9190 C   0  0  0  0  0  0  0  0  0  0  0  0
  -21.9340   -4.2170   23.7440 C   0  0  0  0  0  3  0  0  0  0  0  0
  -22.0630   -5.0090   22.5890 C   0  0  0  0  0  0  0  0  0  0  0  0
  -22.5630   -4.4640   21.4540 F   0  0  0  0  0  0  0  0  0  0  0  0
  -21.2660   -4.0060   26.0270 F   0  0  0  0  0  0  0  0  0  0  0  0
  -22.8430  -13.7160   21.1760 C   0  0  0  0  0  0  0  0  0  0  0  0
  -22.1400  -13.0110   22.0550 N   0  0  0  0  0  0  0  0  0  0  0  0
  -22.3930  -14.7500   20.6830 O   0  0  0  0  0  0  0  0  0  0  0  0
  -22.5180  -12.1750   22.4740 H   0  0  0  0  0  0  0  0  0  0  0  0
  -21.2110  -13.3120   22.3130 H   0  0  0  0  0  0  0  0  0  0  0  0
  -25.4450  -15.3870   20.2950 N   0  0  0  0  0  0  0  0  0  0  0  0
  -24.6790  -16.0380   20.4340 H   0  0  0  0  0  0  0  0  0  0  0  0
  -26.2710  -15.8260   19.9100 H   0  0  0  0  0  0  0  0  0  0  0  0
  2  9  1  0
  2  3  1  0
  3  1  1  0
  4  6  1  0
  4  2  1  0
  4  3  1  0
  5 53  1  0
  5  1  1  0
  6  5  1  0
  7  6  1  0
  8  6  1  0
  9 10  2  0
 11 12  1  0
 11  9  1  0
 13 24  2  0
 14 12  1  0
 14 19  1  0
 15 23  1  0
 15 25  1  0
 16 22  1  0
 16 18  1  0
 17 23  1  0
 18 17  1  0
 19 18  2  0
 20 21  1  0
 20 14  2  0
 21 16  2  0
 22 15  1  0
 23 13  1  0
 25 27  2  0
 26 25  1  0
 28 26  1  0
 29 38  2  0
 29 34  1  0
 30 26  1  0
 30 34  1  0
 31 30  1  0
 32 33  1  0
 32 31  1  0
 33 29  1  0
 34 35  2  0
 35 36  1  0
 37 36  2  0
 38 37  1  0
 39 13  1  0
 39 44  1  0
 39 40  1  0
 40 43  1  1
 40 41  1  0
 42 40  1  0
 44 47  1  0
 45 49  1  0
 45 44  1  0
 46 45  2  0
 49 48  1  0
 51 49  1  0
 51 52  1  0
 51 50  1  0
 53 62  1  0
 54 62  1  0
 55 60  1  0
 56 57  1  0
 56 55  1  0
 58 57  1  0
 58 67  1  0
 58 59  1  0
 60 54  1  0
 60 59  1  0
 61 54  2  0
 62 63  1  0
 64 65  2  0
 65 84  1  0
 66 65  1  0
 66 69  1  0
 67 68  1  0
 67 64  1  0
 68 66  2  0
 69 70  1  0
 70 71  2  0
 72 75  1  0
 72 71  1  0
 73 72  2  0
 74 73  1  0
 74 69  2  0
 75 76  1  0
 76 77  1  0
 77 78  2  0
 79 78  1  0
 79 83  1  0
 80 79  2  0
 81 76  2  0
 81 80  1  0
 82 81  1  0
 84 85  1  0
 85 88  1  0
 85 87  1  0
 86 84  2  0
 89 90  1  0
 89 64  1  0
 91 89  1  0
M  ISO  4  11 101  12 101  54 100  62 100
M  END
>  <TORSDO>  (45) 
F 19

>  <SCORE>  (45) 
-13.856

>  <name>  (45) 
44

>  <ligand_id>  (45) 
44

>  <original_smiles>  (45) 
[H]c1c([H])c([H])c2c(c1[H])C([H])([H])C([H])([H])C([H])([H])C2([H])N([H])C(=O)C1([H])N(C(=O)C([H])(N([H])C(=O)C([H])(N([H])C([H])([H])[H])C([H])([H])[H])C(C([H])([H])[H])(C([H])([H])[H])C([H])([H])[H])C([H])([H])c2c([H])c(OC([H])([H])C(=O)C3([H])C4([H])C([H])([H])C([H])(C([H])([H])N([H])C(=O)N5C([H])([H])C([H])([H])C([H])([H])C([H])(n6nc(-c7c([H])c([H])c(Oc8c([H])c([H])c(F)c([H])c8F)c([H])c7[H])c(C(=O)N([H])[H])c6N([H])[H])C5([H])[H])[N+]([H])([H])C34[H])c([H])c([H])c2C1([H])[H]

>  <smiles>  (45) 
[H]c1c([H])c([H])c2c(c1[H])C([H])([H])C([H])([H])C([H])([H])C2([H])N([H])C(=O)C1([H])N(C(=O)C([H])(N([H])C(=O)C([H])(N([H])C([H])([H])[H])C([H])([H])[H])C(C([H])([H])[H])(C([H])([H])[H])C([H])([H])[H])C([H])([H])c2c([H])c(OC([H])([H])C(=O)C3([H])C4([H])C([H])([H])C([H])(C([H])([H])N([H])C(=O)N5C([H])([H])C([H])([H])C([H])([H])C([H])(n6nc(-c7c([H])c([H])c(Oc8c([H])c([H])c(F)c([H])c8F)c([H])c7[H])c(C(=O)N([H])[H])c6N([H])[H])C5([H])[H])[N+]([H])([H])C34[H])c([H])c([H])c2C1([H])[H]

$$$$
45:0:0
     RDKit          3D

 90 98  0  0  1  0  0  0  0  0999 V2000
  -29.1290  -21.2920   20.5460 N   0  0  0  0  0  4  0  0  0  0  0  0
  -30.1270  -21.4260   20.5390 H   0  0  0  0  0  0  0  0  0  0  0  0
  -28.8710  -21.3230   21.5180 H   0  0  0  0  0  0  0  0  0  0  0  0
  -30.4380  -15.3530   20.3760 C   0  0  0  0  0  0  0  0  0  0  0  0
  -30.4510  -12.9050   19.5030 C   0  0  0  0  0  2  0  0  0  0  0  0
  -29.5480  -12.6610   18.2680 C   0  0  0  0  0  2  0  0  0  0  0  0
  -28.0940  -12.3840   18.6870 C   0  0  0  0  0  2  0  0  0  0  0  0
  -27.6130  -13.3490   19.7980 C   0  0  0  0  0  3  0  0  0  0  0  0
  -28.6470  -13.5340   20.9280 C   0  0  0  0  0  2  0  0  0  0  0  0
  -29.8690  -14.0500   20.2920 N   0  0  0  0  0  0  0  0  0  0  0  0
  -31.6780  -15.3310   20.3290 O   0  0  0  0  0  0  0  0  0  0  0  0
  -28.8150  -19.3390   18.7080 C   0  0  0  0  0  0  0  0  0  0  0  0
  -28.2670  -17.9290   18.4360 C   0  0  0  0  0  2  0  0  0  0  0  0
  -29.2560  -16.7730   18.7830 C   0  0  0  0  0  2  0  0  0  0  0  0
  -29.8330  -18.2090   20.7340 C   0  0  0  0  0  2  0  0  0  0  0  0
  -28.9320  -19.6540   20.1900 C   0  0  0  0  0  3  0  0  0  0  0  0
  -29.6880  -16.6370   20.1980 N   0  0  0  0  0  0  0  0  0  0  0  0
  -29.2120  -20.0450   17.7800 O   0  0  0  0  0  0  0  0  0  0  0  0
  -25.2280  -13.8980   20.5020 C   0  0  0  0  0  0  0  0  0  0  0  0
  -24.1640  -13.1150   20.8520 C   0  0  0  0  0  0  0  0  0  0  0  0
  -24.6440  -11.7680   20.8450 C   0  0  0  0  0  0  0  0  0  0  0  0
  -26.2830  -13.0270   20.2910 N   0  0  0  0  0  0  0  0  0  0  0  0
  -25.9430  -11.7430   20.5660 N   0  0  0  0  0  0  0  0  0  0  0  0
  -23.9240  -10.5010   21.0300 C   0  0  0  0  0  0  0  0  0  0  0  0
  -24.3390   -9.5500   21.9870 C   0  0  0  0  0  3  0  0  0  0  0  0
  -23.6180   -8.3500   22.1590 C   0  0  0  0  0  3  0  0  0  0  0  0
  -22.4690   -8.0920   21.3740 C   0  0  0  0  0  0  0  0  0  0  0  0
  -22.0780   -9.0310   20.4040 C   0  0  0  0  0  3  0  0  0  0  0  0
  -22.7980  -10.2240   20.2310 C   0  0  0  0  0  3  0  0  0  0  0  0
  -21.7230   -6.9420   21.4560 O   0  0  0  0  0  0  0  0  0  0  0  0
  -21.6410   -6.2160   22.6160 C   0  0  0  0  0  0  0  0  0  0  0  0
  -21.1470   -6.7770   23.8140 C   0  0  0  0  0  3  0  0  0  0  0  0
  -21.0180   -5.9780   24.9670 C   0  0  0  0  0  3  0  0  0  0  0  0
  -21.3690   -4.6160   24.9220 C   0  0  0  0  0  0  0  0  0  0  0  0
  -21.8520   -4.0520   23.7280 C   0  0  0  0  0  3  0  0  0  0  0  0
  -21.9850   -4.8490   22.5790 C   0  0  0  0  0  0  0  0  0  0  0  0
  -22.4310   -4.2960   21.4240 F   0  0  0  0  0  0  0  0  0  0  0  0
  -21.2380   -3.8440   26.0260 F   0  0  0  0  0  0  0  0  0  0  0  0
  -22.7560  -13.5800   21.0820 C   0  0  0  0  0  0  0  0  0  0  0  0
  -22.0120  -12.8800   21.9300 N   0  0  0  0  0  0  0  0  0  0  0  0
  -22.3250  -14.6000   20.5440 O   0  0  0  0  0  0  0  0  0  0  0  0
  -22.3750  -12.0530   22.3830 H   0  0  0  0  0  0  0  0  0  0  0  0
  -21.0650  -13.1700   22.1260 H   0  0  0  0  0  0  0  0  0  0  0  0
  -25.3850  -15.2700   20.3140 N   0  0  0  0  0  0  0  0  0  0  0  0
  -24.6200  -15.9280   20.4070 H   0  0  0  0  0  0  0  0  0  0  0  0
  -26.2510  -15.7080   20.0280 H   0  0  0  0  0  0  0  0  0  0  0  0
  -29.3010  -23.1300   18.6540 C   0  0  0  0  0  1  0  0  0  0  0  0
  -28.5020  -22.7250   19.9090 C   0  0  0  0  0  3  0  0  0  0  0  0
  -28.1680  -24.3160   20.6990 C   0  0  0  0  0  2  0  0  0  0  0  0
  -28.2210  -25.9200   20.2820 O   0  0  0  0  0  0  0  0  0  0  0  0
  -24.5660  -31.8650   23.2430 C   0  0  0  0  0  0  0  0  0  0  0  0
  -27.1740  -26.9810   20.2950 C   0  0  0  0  0  0  0  0  0  0  0  0
  -23.4010  -30.4600   21.5920 C   0  0  0  0  0  3  0  0  0  0  0  0
  -24.8710  -28.8500   20.2020 C   0  0  0  0  0  0  0  0  0  0  0  0
  -25.9670  -30.6790   21.4780 C   0  0  0  0  0  2  0  0  0  0  0  0
  -26.0500  -29.2650   20.8350 C   0  0  0  0  0  0  0  0  0  0  0  0
  -27.2000  -28.3530   20.8480 C   0  0  0  0  0  3  0  0  0  0  0  0
  -25.9660  -26.7120   19.6180 C   0  0  0  0  0  3  0  0  0  0  0  0
  -24.8540  -27.5930   19.5740 C   0  0  0  0  0  3  0  0  0  0  0  0
  -23.6550  -29.7710   20.2210 C   0  0  0  0  0  2  0  0  0  0  0  0
  -24.6670  -31.0290   22.1590 N   0  0  0  0  0  0  0  0  0  0  0  0
  -23.4710  -32.1520   23.7500 O   0  0  0  0  0  0  0  0  0  0  0  0
  -22.6980  -29.4640   22.5510 C   0  0  0  0  0  0  0  0  0  0  0  0
  -21.3680  -29.2980   22.4160 N   0  0  0  0  0  0  0  0  0  0  0  0
  -23.3570  -28.8380   23.3850 O   0  0  0  0  0  0  0  0  0  0  0  0
  -20.8880  -29.8630   21.7300 H   0  0  0  0  0  0  0  0  0  0  0  0
  -17.9800  -28.1020   22.9140 C   0  0  0  0  0  0  0  0  0  0  0  0
  -20.5410  -28.3580   23.1790 C   0  0  0  0  0  3  0  0  0  0  0  0
  -20.6350  -26.9270   22.5980 C   0  0  0  0  0  2  0  0  0  0  0  0
  -19.5330  -26.6160   21.5800 C   0  0  0  0  0  2  0  0  0  0  0  0
  -18.1520  -26.7590   22.2250 C   0  0  0  0  0  2  0  0  0  0  0  0
  -19.0990  -28.8600   23.3470 C   0  0  0  0  0  0  0  0  0  0  0  0
  -18.8800  -30.1160   23.9520 C   0  0  0  0  0  3  0  0  0  0  0  0
  -17.5740  -30.6140   24.1280 C   0  0  0  0  0  3  0  0  0  0  0  0
  -16.4700  -29.8510   23.7080 C   0  0  0  0  0  3  0  0  0  0  0  0
  -16.6730  -28.6000   23.1060 C   0  0  0  0  0  3  0  0  0  0  0  0
  -25.8270  -32.5170   23.8900 C   0  0  0  0  0  3  0  0  0  0  0  0
  -25.5090  -33.9250   24.1950 N   0  0  0  0  0  0  0  0  0  0  0  0
  -25.8620  -34.9730   23.4390 C   0  0  0  0  0  0  0  0  0  0  0  0
  -26.5570  -34.8580   22.4270 O   0  0  0  0  0  0  0  0  0  0  0  0
  -24.9000  -34.0870   24.9840 H   0  0  0  0  0  0  0  0  0  0  0  0
  -24.1630  -36.7860   23.0210 C   0  0  0  0  0  1  0  0  0  0  0  0
  -25.3740  -36.3720   23.8740 C   0  0  0  0  0  3  0  0  0  0  0  0
  -27.4850  -37.2480   24.7750 C   0  0  0  0  0  1  0  0  0  0  0  0
  -26.4190  -37.4160   23.7910 N   0  0  0  0  0  0  0  0  0  0  0  0
  -26.0140  -38.3400   23.9190 H   0  0  0  0  0  0  0  0  0  0  0  0
  -26.3050  -31.7770   25.2010 C   0  0  1  0  0  0  0  0  0  0  0  0
  -25.1850  -31.5660   26.2480 C   0  0  0  0  0  1  0  0  0  0  0  0
  -26.8940  -30.3880   24.8680 C   0  0  0  0  0  1  0  0  0  0  0  0
  -27.4390  -32.5850   25.8750 C   0  0  0  0  0  1  0  0  0  0  0  0
  1  3  1  0
  2  1  1  0
  5 10  1  0
  6  7  1  0
  6  5  1  0
  8  7  1  0
  8 22  1  0
  8  9  1  0
 10  4  1  0
 10  9  1  0
 11  4  2  0
 12 16  1  0
 13 12  1  0
 13 14  1  0
 14 17  1  0
 16  1  1  0
 16 15  1  0
 17  4  1  0
 17 15  1  0
 18 12  2  0
 19 20  2  0
 20 39  1  0
 21 20  1  0
 21 24  1  0
 22 19  1  0
 22 23  1  0
 23 21  2  0
 24 25  1  0
 25 26  2  0
 27 30  1  0
 27 26  1  0
 28 27  2  0
 29 28  1  0
 29 24  2  0
 30 31  1  0
 31 32  1  0
 32 33  2  0
 34 33  1  0
 34 38  1  0
 35 34  2  0
 36 31  2  0
 36 35  1  0
 37 36  1  0
 39 40  1  0
 40 43  1  0
 40 42  1  0
 41 39  2  0
 44 45  1  0
 44 19  1  0
 46 44  1  0
 48 47  1  0
 48  1  1  0
 48 49  1  0
 50 52  1  0
 50 49  1  0
 51 62  2  0
 52 57  1  0
 53 61  1  0
 53 63  1  0
 54 60  1  0
 54 56  1  0
 55 61  1  0
 56 57  2  0
 56 55  1  0
 58 52  2  0
 59 58  1  0
 59 54  2  0
 60 53  1  0
 61 51  1  0
 63 65  2  0
 64 63  1  0
 66 64  1  0
 67 76  2  0
 67 72  1  0
 68 64  1  0
 68 72  1  0
 69 68  1  0
 70 71  1  0
 70 69  1  0
 71 67  1  0
 72 73  2  0
 73 74  1  0
 75 74  2  0
 76 75  1  0
 77 51  1  0
 77 78  1  0
 77 87  1  0
 78 81  1  0
 79 83  1  0
 79 78  1  0
 80 79  2  0
 83 82  1  0
 85 83  1  0
 85 86  1  0
 85 84  1  0
 87 90  1  1
 87 88  1  0
 89 87  1  0
M  ISO  4   4 100  17 100  49 101  50 101
M  END
>  <TORSDO>  (46) 
F 18

>  <SCORE>  (46) 
-16.674

>  <name>  (46) 
45

>  <ligand_id>  (46) 
45

>  <original_smiles>  (46) 
[H]c1c([H])c([H])c2c(c1[H])C([H])([H])C([H])([H])C([H])([H])C2([H])N([H])C(=O)C1([H])N(C(=O)C([H])(N([H])C(=O)C([H])(N([H])C([H])([H])[H])C([H])([H])[H])C(C([H])([H])[H])(C([H])([H])[H])C([H])([H])[H])C([H])([H])c2c([H])c(OC([H])([H])C([H])(C([H])([H])[H])[N+]([H])([H])C3([H])C(=O)C([H])([H])C([H])([H])N(C(=O)N4C([H])([H])C([H])([H])C([H])([H])C([H])(n5nc(-c6c([H])c([H])c(Oc7c([H])c([H])c(F)c([H])c7F)c([H])c6[H])c(C(=O)N([H])[H])c5N([H])[H])C4([H])[H])C3([H])[H])c([H])c([H])c2C1([H])[H]

>  <smiles>  (46) 
[H]c1c([H])c([H])c2c(c1[H])C([H])([H])C([H])([H])C([H])([H])C2([H])N([H])C(=O)C1([H])N(C(=O)C([H])(N([H])C(=O)C([H])(N([H])C([H])([H])[H])C([H])([H])[H])C(C([H])([H])[H])(C([H])([H])[H])C([H])([H])[H])C([H])([H])c2c([H])c(OC([H])([H])C([H])(C([H])([H])[H])[N+]([H])([H])C3([H])C(=O)C([H])([H])C([H])([H])N(C(=O)N4C([H])([H])C([H])([H])C([H])([H])C([H])(n5nc(-c6c([H])c([H])c(Oc7c([H])c([H])c(F)c([H])c7F)c([H])c6[H])c(C(=O)N([H])[H])c5N([H])[H])C4([H])[H])C3([H])[H])c([H])c([H])c2C1([H])[H]

$$$$
46:0:0
     RDKit          3D

 96105  0  0  1  0  0  0  0  0999 V2000
  -29.4090  -22.8490   21.8470 C   0  0  0  0  0  2  0  0  0  0  0  0
  -31.3300  -23.7090   20.4200 C   0  0  0  0  0  2  0  0  0  0  0  0
  -28.6580  -24.1730   21.5830 C   0  0  0  0  0  2  0  0  0  0  0  0
  -30.5430  -25.0070   20.1580 C   0  0  0  0  0  2  0  0  0  0  0  0
  -30.4310  -22.4870   20.7380 C   0  0  0  0  0  3  0  0  0  0  0  0
  -29.6420  -25.3390   21.3560 C   0  0  0  0  0  3  0  0  0  0  0  0
  -31.3270  -21.2850   21.1480 C   0  0  0  0  0  2  0  0  0  0  0  0
  -29.9470  -17.9910   19.6790 C   0  0  0  0  0  2  0  0  0  0  0  0
  -30.5250  -19.4200   19.7350 C   0  0  0  0  0  2  0  0  0  0  0  0
  -31.3810  -18.9880   22.0220 C   0  0  0  0  0  2  0  0  0  0  0  0
  -30.7750  -17.0270   20.5510 C   0  0  0  0  0  3  0  0  0  0  0  0
  -30.8140  -17.5370   22.0150 C   0  0  2  0  0  0  0  0  0  0  0  0
  -29.4250  -17.4850   22.6940 C   0  0  0  0  0  1  0  0  0  0  0  0
  -31.7650  -16.6400   22.8380 C   0  0  0  0  0  1  0  0  0  0  0  0
  -30.6660  -19.9440   21.1240 N   0  0  1  0  0  4  0  0  0  0  0  0
  -29.7410  -20.0630   21.5090 H   0  0  0  0  0  0  0  0  0  0  0  0
  -30.9010  -14.6500   19.7760 C   0  0  0  0  0  0  0  0  0  0  0  0
  -30.5260  -12.4720   18.6880 C   0  0  0  0  0  2  0  0  0  0  0  0
  -29.5040  -12.6390   17.5450 C   0  0  0  0  0  2  0  0  0  0  0  0
  -28.0630  -12.5090   18.0770 C   0  0  0  0  0  2  0  0  0  0  0  0
  -27.8080  -13.3830   19.3350 C   0  0  0  0  0  3  0  0  0  0  0  0
  -28.9330  -13.1920   20.3760 C   0  0  0  0  0  2  0  0  0  0  0  0
  -30.2180  -13.4780   19.7150 N   0  0  0  0  0  0  0  0  0  0  0  0
  -31.9610  -14.8440   19.1720 O   0  0  0  0  0  0  0  0  0  0  0  0
  -30.2930  -15.6410   20.4470 N   0  0  0  0  0  0  0  0  0  0  0  0
  -29.4210  -15.4140   20.8980 H   0  0  0  0  0  0  0  0  0  0  0  0
  -25.4790  -14.0100   20.2360 C   0  0  0  0  0  0  0  0  0  0  0  0
  -24.4290  -13.2450   20.6690 C   0  0  0  0  0  0  0  0  0  0  0  0
  -24.8640  -11.8880   20.5690 C   0  0  0  0  0  0  0  0  0  0  0  0
  -26.4890  -13.1200   19.9070 N   0  0  0  0  0  0  0  0  0  0  0  0
  -26.1260  -11.8370   20.1630 N   0  0  0  0  0  0  0  0  0  0  0  0
  -24.1340  -10.6320   20.7850 C   0  0  0  0  0  0  0  0  0  0  0  0
  -24.5590   -9.6850   21.7430 C   0  0  0  0  0  3  0  0  0  0  0  0
  -23.8300   -8.4940   21.9460 C   0  0  0  0  0  3  0  0  0  0  0  0
  -22.6630   -8.2400   21.1890 C   0  0  0  0  0  0  0  0  0  0  0  0
  -22.2560   -9.1740   20.2200 C   0  0  0  0  0  3  0  0  0  0  0  0
  -22.9850  -10.3570   20.0160 C   0  0  0  0  0  3  0  0  0  0  0  0
  -21.9050   -7.0970   21.2980 O   0  0  0  0  0  0  0  0  0  0  0  0
  -21.7530   -6.4480   22.4960 C   0  0  0  0  0  0  0  0  0  0  0  0
  -21.2300   -7.0990   23.6350 C   0  0  0  0  0  3  0  0  0  0  0  0
  -21.0240   -6.3750   24.8270 C   0  0  0  0  0  3  0  0  0  0  0  0
  -21.3310   -5.0020   24.8800 C   0  0  0  0  0  0  0  0  0  0  0  0
  -21.8470   -4.3520   23.7440 C   0  0  0  0  0  3  0  0  0  0  0  0
  -22.0540   -5.0720   22.5560 C   0  0  0  0  0  0  0  0  0  0  0  0
  -22.5310   -4.4360   21.4590 F   0  0  0  0  0  0  0  0  0  0  0  0
  -21.1270   -4.3050   26.0210 F   0  0  0  0  0  0  0  0  0  0  0  0
  -23.0650  -13.7360   21.0590 C   0  0  0  0  0  0  0  0  0  0  0  0
  -22.4090  -13.0480   21.9880 N   0  0  0  0  0  0  0  0  0  0  0  0
  -22.5930  -14.7640   20.5760 O   0  0  0  0  0  0  0  0  0  0  0  0
  -22.8060  -12.2160   22.3980 H   0  0  0  0  0  0  0  0  0  0  0  0
  -21.4980  -13.3590   22.2930 H   0  0  0  0  0  0  0  0  0  0  0  0
  -25.6540  -15.3820   20.0780 N   0  0  0  0  0  0  0  0  0  0  0  0
  -24.9080  -16.0450   20.2550 H   0  0  0  0  0  0  0  0  0  0  0  0
  -26.4840  -15.8140   19.6930 H   0  0  0  0  0  0  0  0  0  0  0  0
  -28.9650  -26.7260   21.2670 C   0  0  0  0  0  2  0  0  0  0  0  0
  -28.2660  -26.9070   20.0370 O   0  0  0  0  0  0  0  0  0  0  0  0
  -24.5380  -31.9880   23.3920 C   0  0  0  0  0  0  0  0  0  0  0  0
  -27.1350  -27.6900   20.1020 C   0  0  0  0  0  0  0  0  0  0  0  0
  -23.3000  -30.6460   21.7180 C   0  0  0  0  0  3  0  0  0  0  0  0
  -24.7310  -29.1720   20.2060 C   0  0  0  0  0  0  0  0  0  0  0  0
  -25.8160  -31.0290   21.4840 C   0  0  0  0  0  2  0  0  0  0  0  0
  -25.8950  -29.6830   20.7960 C   0  0  0  0  0  0  0  0  0  0  0  0
  -27.0990  -28.9480   20.7490 C   0  0  0  0  0  3  0  0  0  0  0  0
  -25.9640  -27.1970   19.4950 C   0  0  0  0  0  3  0  0  0  0  0  0
  -24.7590  -27.9260   19.5530 C   0  0  0  0  0  3  0  0  0  0  0  0
  -23.4840  -30.0200   20.3090 C   0  0  0  0  0  2  0  0  0  0  0  0
  -24.5700  -31.2320   22.2570 N   0  0  0  0  0  0  0  0  0  0  0  0
  -23.4680  -32.2370   23.9640 O   0  0  0  0  0  0  0  0  0  0  0  0
  -22.6710  -29.5880   22.6510 C   0  0  0  0  0  0  0  0  0  0  0  0
  -21.3630  -29.3380   22.4740 N   0  0  0  0  0  0  0  0  0  0  0  0
  -23.3560  -28.9960   23.4890 O   0  0  0  0  0  0  0  0  0  0  0  0
  -20.8700  -29.8730   21.7720 H   0  0  0  0  0  0  0  0  0  0  0  0
  -18.0710  -27.8780   22.7480 C   0  0  0  0  0  0  0  0  0  0  0  0
  -20.5680  -28.3550   23.2100 C   0  0  0  0  0  3  0  0  0  0  0  0
  -20.8330  -26.9240   22.6910 C   0  0  0  0  0  2  0  0  0  0  0  0
  -19.8470  -26.4840   21.6050 C   0  0  0  0  0  2  0  0  0  0  0  0
  -18.4100  -26.5300   22.1330 C   0  0  0  0  0  2  0  0  0  0  0  0
  -19.0850  -28.7420   23.2390 C   0  0  0  0  0  0  0  0  0  0  0  0
  -18.7190  -29.9980   23.7680 C   0  0  0  0  0  3  0  0  0  0  0  0
  -17.3690  -30.3940   23.8130 C   0  0  0  0  0  3  0  0  0  0  0  0
  -16.3680  -29.5290   23.3400 C   0  0  0  0  0  3  0  0  0  0  0  0
  -16.7180  -28.2730   22.8140 C   0  0  0  0  0  3  0  0  0  0  0  0
  -25.8360  -32.5940   24.0090 C   0  0  0  0  0  3  0  0  0  0  0  0
  -26.3460  -31.8120   25.2820 C   0  0  1  0  0  0  0  0  0  0  0  0
  -25.2460  -31.5710   26.3410 C   0  0  0  0  0  1  0  0  0  0  0  0
  -26.9240  -30.4360   24.8790 C   0  0  0  0  0  1  0  0  0  0  0  0
  -27.4960  -32.5970   25.9560 C   0  0  0  0  0  1  0  0  0  0  0  0
  -25.5570  -33.9980   24.3390 N   0  0  0  0  0  0  0  0  0  0  0  0
  -25.8950  -35.0400   23.5680 C   0  0  0  0  0  0  0  0  0  0  0  0
  -26.5480  -34.9220   22.5270 O   0  0  0  0  0  0  0  0  0  0  0  0
  -24.9790  -34.1660   25.1480 H   0  0  0  0  0  0  0  0  0  0  0  0
  -24.1870  -36.8540   23.2290 C   0  0  0  0  0  1  0  0  0  0  0  0
  -25.4350  -36.4380   24.0240 C   0  0  0  0  0  3  0  0  0  0  0  0
  -27.5930  -37.3000   24.8200 C   0  0  0  0  0  1  0  0  0  0  0  0
  -26.4810  -37.4750   23.8870 N   0  0  0  0  0  0  0  0  0  0  0  0
  -26.0910  -38.4020   24.0320 H   0  0  0  0  0  0  0  0  0  0  0  0
  2  5  1  0
  3  1  1  0
  4  2  1  0
  4  6  1  0
  5  7  1  0
  5  1  1  0
  6 55  1  0
  6  3  1  0
  8  9  1  0
  8 11  1  0
  9 15  1  0
 11 25  1  0
 11 12  1  0
 12 10  1  0
 12 13  1  1
 12 14  1  0
 15  7  1  0
 15 16  1  1
 15 10  1  0
 17 25  1  0
 18 23  1  0
 19 20  1  0
 19 18  1  0
 21 20  1  0
 21 30  1  0
 21 22  1  0
 23 17  1  0
 23 22  1  0
 24 17  2  0
 25 26  1  0
 27 28  2  0
 28 47  1  0
 29 28  1  0
 29 32  1  0
 30 31  1  0
 30 27  1  0
 31 29  2  0
 32 33  1  0
 33 34  2  0
 35 38  1  0
 35 34  1  0
 36 35  2  0
 37 36  1  0
 37 32  2  0
 38 39  1  0
 39 44  2  0
 39 40  1  0
 40 41  2  0
 41 42  1  0
 42 46  1  0
 43 42  2  0
 44 43  1  0
 45 44  1  0
 47 48  1  0
 48 51  1  0
 48 50  1  0
 49 47  2  0
 52 27  1  0
 52 53  1  0
 54 52  1  0
 56 58  1  0
 56 55  1  0
 57 68  2  0
 58 63  1  0
 59 67  1  0
 59 69  1  0
 60 66  1  0
 60 62  1  0
 61 67  1  0
 62 61  1  0
 63 62  2  0
 64 65  1  0
 64 58  2  0
 65 60  2  0
 66 59  1  0
 67 57  1  0
 69 71  2  0
 70 69  1  0
 72 70  1  0
 73 82  2  0
 73 78  1  0
 74 70  1  0
 74 78  1  0
 75 74  1  0
 76 77  1  0
 76 75  1  0
 77 73  1  0
 78 79  2  0
 79 80  1  0
 81 80  2  0
 82 81  1  0
 83 57  1  0
 83 88  1  0
 83 84  1  0
 84 87  1  1
 84 85  1  0
 86 84  1  0
 88 91  1  0
 89 93  1  0
 89 88  1  0
 90 89  2  0
 93 92  1  0
 95 93  1  0
 95 96  1  0
 95 94  1  0
M  ISO  4  17 100  25 100  55 101  56 101
M  END
>  <TORSDO>  (47) 
F 19

>  <SCORE>  (47) 
-10.431

>  <name>  (47) 
46

>  <ligand_id>  (47) 
46

>  <original_smiles>  (47) 
[H]c1c([H])c([H])c2c(c1[H])C([H])([H])C([H])([H])C([H])([H])C2([H])N([H])C(=O)C1([H])N(C(=O)C([H])(N([H])C(=O)C([H])(N([H])C([H])([H])[H])C([H])([H])[H])C(C([H])([H])[H])(C([H])([H])[H])C([H])([H])[H])C([H])([H])c2c([H])c(OC([H])([H])C3([H])C([H])([H])C([H])([H])C([H])(C([H])([H])[N+]4([H])C([H])([H])C([H])([H])C([H])(N([H])C(=O)N5C([H])([H])C([H])([H])C([H])([H])C([H])(n6nc(-c7c([H])c([H])c(Oc8c([H])c([H])c(F)c([H])c8F)c([H])c7[H])c(C(=O)N([H])[H])c6N([H])[H])C5([H])[H])C(C([H])([H])[H])(C([H])([H])[H])C4([H])[H])C([H])([H])C3([H])[H])c([H])c([H])c2C1([H])[H]

>  <smiles>  (47) 
[H]c1c([H])c([H])c2c(c1[H])C([H])([H])C([H])([H])C([H])([H])C2([H])N([H])C(=O)C1([H])N(C(=O)C([H])(N([H])C(=O)C([H])(N([H])C([H])([H])[H])C([H])([H])[H])C(C([H])([H])[H])(C([H])([H])[H])C([H])([H])[H])C([H])([H])c2c([H])c(OC([H])([H])C3([H])C([H])([H])C([H])([H])C([H])(C([H])([H])[N+]4([H])C([H])([H])C([H])([H])C([H])(N([H])C(=O)N5C([H])([H])C([H])([H])C([H])([H])C([H])(n6nc(-c7c([H])c([H])c(Oc8c([H])c([H])c(F)c([H])c8F)c([H])c7[H])c(C(=O)N([H])[H])c6N([H])[H])C5([H])[H])C(C([H])([H])[H])(C([H])([H])[H])C4([H])[H])C([H])([H])C3([H])[H])c([H])c([H])c2C1([H])[H]

$$$$
47:0:0
     RDKit          3D

 93 97  0  0  1  0  0  0  0  0999 V2000
  -28.0200  -16.8200   19.0800 C   0  0  0  0  0  3  0  0  0  0  0  0
  -25.8960  -15.3260   19.4160 C   0  0  0  0  0  1  0  0  0  0  0  0
  -27.3130  -15.3370   18.9430 N   0  0  2  0  0  4  0  0  0  0  0  0
  -27.0560  -15.5650   17.9950 H   0  0  0  0  0  0  0  0  0  0  0  0
  -27.6410  -11.9530   16.8070 C   0  0  0  0  0  2  0  0  0  0  0  0
  -28.7650  -11.5430   17.7890 C   0  0  0  0  0  2  0  0  0  0  0  0
  -26.9100  -13.1940   17.3770 C   0  0  0  0  0  2  0  0  0  0  0  0
  -28.4480  -12.2860   19.0970 C   0  0  0  0  0  3  0  0  0  0  0  0
  -27.8580  -13.8410   18.4170 C   0  0  0  0  0  3  0  0  0  0  0  0
  -30.5560  -12.3640   21.4910 C   0  0  2  0  0  0  0  0  0  0  0  0
  -31.6950  -11.7080   20.5690 C   0  0  0  0  0  1  0  0  0  0  0  0
  -31.2120  -13.1490   19.3970 C   0  0  0  0  0  1  0  0  0  0  0  0
  -29.8110  -14.2060   20.0560 C   0  0  0  0  0  1  0  0  0  0  0  0
  -28.5790  -13.6850   21.5060 C   0  0  0  0  0  1  0  0  0  0  0  0
  -29.3700  -12.4010   22.5810 C   0  0  0  0  0  1  0  0  0  0  0  0
  -30.7310  -11.5110   22.0110 N   0  0  0  0  0  1  0  0  0  0  0  0
  -31.3200  -13.4540   21.9290 O   0  0  0  0  0  1  0  0  0  0  0  0
  -29.4340  -11.7550   20.3550 N   0  0  0  0  0  2  0  0  0  0  0  0
  -29.2680  -10.7850   20.5580 H   0  0  0  0  0  0  0  0  0  0  0  0
  -25.9690  -13.8870   21.4910 C   0  0  0  0  0  0  0  0  0  0  0  0
  -24.8560  -13.0920   21.4970 C   0  0  0  0  0  0  0  0  0  0  0  0
  -25.2950  -11.7380   21.3850 C   0  0  0  0  0  0  0  0  0  0  0  0
  -27.0990  -13.1200   21.3850 N   0  0  0  0  0  0  0  0  0  0  0  0
  -26.6500  -11.7670   21.4110 N   0  0  0  0  0  0  0  0  0  0  0  0
  -24.4520  -10.4910   21.2770 C   0  0  0  0  0  0  0  0  0  0  0  0
  -24.5680   -9.3880   22.1640 C   0  0  0  0  0  3  0  0  0  0  0  0
  -23.6950   -8.2700   22.0800 C   0  0  0  0  0  3  0  0  0  0  0  0
  -22.6710   -8.2160   21.1090 C   0  0  0  0  0  0  0  0  0  0  0  0
  -22.5570   -9.2960   20.2130 C   0  0  0  0  0  3  0  0  0  0  0  0
  -23.4300  -10.4070   20.2940 C   0  0  0  0  0  3  0  0  0  0  0  0
  -21.7900   -7.1620   20.9460 O   0  0  0  0  0  0  0  0  0  0  0  0
  -21.4310   -6.3280   21.9780 C   0  0  0  0  0  0  0  0  0  0  0  0
  -20.8060   -6.8180   23.1470 C   0  0  0  0  0  3  0  0  0  0  0  0
  -20.4090   -5.9230   24.1650 C   0  0  0  0  0  3  0  0  0  0  0  0
  -20.6180   -4.5410   24.0140 C   0  0  0  0  0  0  0  0  0  0  0  0
  -21.2270   -4.0490   22.8430 C   0  0  0  0  0  3  0  0  0  0  0  0
  -21.6300   -4.9380   21.8300 C   0  0  0  0  0  0  0  0  0  0  0  0
  -22.1880   -4.4480   20.6980 F   0  0  0  0  0  0  0  0  0  0  0  0
  -20.2260   -3.6860   24.9850 F   0  0  0  0  0  0  0  0  0  0  0  0
  -23.4530  -13.6110   21.6020 C   0  0  0  0  0  0  0  0  0  0  0  0
  -22.5760  -12.8900   22.2900 N   0  0  0  0  0  0  0  0  0  0  0  0
  -23.1560  -14.7110   21.1380 O   0  0  0  0  0  0  0  0  0  0  0  0
  -22.8270  -12.0060   22.6980 H   0  0  0  0  0  0  0  0  0  0  0  0
  -21.6360  -13.2300   22.4280 H   0  0  0  0  0  0  0  0  0  0  0  0
  -26.1210  -15.2470   21.6430 N   0  0  0  0  0  0  0  0  0  0  0  0
  -25.3210  -15.8180   21.8830 H   0  0  0  0  0  0  0  0  0  0  0  0
  -26.9900  -15.6500   21.9690 H   0  0  0  0  0  0  0  0  0  0  0  0
  -27.4670  -18.4560   19.2240 C   0  0  0  0  0  3  0  0  0  0  0  0
  -28.3810  -19.8880   19.4630 C   0  0  0  0  0  3  0  0  0  0  0  0
  -27.8030  -21.5120   19.5080 C   0  0  0  0  0  3  0  0  0  0  0  0
  -28.6290  -23.0100   19.7660 C   0  0  0  0  0  3  0  0  0  0  0  0
  -27.9280  -24.5820   19.6880 C   0  0  0  0  0  3  0  0  0  0  0  0
  -28.4210  -26.1030   19.8620 O   0  0  0  0  0  0  0  0  0  0  0  0
  -24.6890  -31.7870   23.1200 C   0  0  0  0  0  0  0  0  0  0  0  0
  -27.4420  -27.1840   19.9110 C   0  0  0  0  0  0  0  0  0  0  0  0
  -23.5790  -30.3470   21.4730 C   0  0  0  0  0  3  0  0  0  0  0  0
  -25.0950  -28.9020   20.0010 C   0  0  0  0  0  0  0  0  0  0  0  0
  -26.1300  -30.7220   21.3270 C   0  0  0  0  0  2  0  0  0  0  0  0
  -26.2650  -29.3440   20.6320 C   0  0  0  0  0  0  0  0  0  0  0  0
  -27.4470  -28.4880   20.5940 C   0  0  0  0  0  3  0  0  0  0  0  0
  -26.2440  -26.9110   19.2290 C   0  0  0  0  0  3  0  0  0  0  0  0
  -25.1040  -27.7100   19.2860 C   0  0  0  0  0  3  0  0  0  0  0  0
  -23.8310  -29.7320   20.0770 C   0  0  0  0  0  2  0  0  0  0  0  0
  -24.8190  -30.9770   22.0250 N   0  0  0  0  0  0  0  0  0  0  0  0
  -23.5840  -31.9960   23.6440 O   0  0  0  0  0  0  0  0  0  0  0  0
  -22.9700  -29.2760   22.4150 C   0  0  0  0  0  0  0  0  0  0  0  0
  -21.6620  -28.9960   22.2660 N   0  0  0  0  0  0  0  0  0  0  0  0
  -23.6780  -28.6970   23.2440 O   0  0  0  0  0  0  0  0  0  0  0  0
  -21.1430  -29.5160   21.5730 H   0  0  0  0  0  0  0  0  0  0  0  0
  -18.4050  -27.4450   22.6400 C   0  0  0  0  0  0  0  0  0  0  0  0
  -20.9070  -27.9930   23.0230 C   0  0  0  0  0  3  0  0  0  0  0  0
  -21.1910  -26.5680   22.4920 C   0  0  0  0  0  2  0  0  0  0  0  0
  -20.1810  -26.1040   21.4360 C   0  0  0  0  0  2  0  0  0  0  0  0
  -18.7610  -26.1100   22.0110 C   0  0  0  0  0  2  0  0  0  0  0  0
  -19.4120  -28.3340   23.1030 C   0  0  0  0  0  0  0  0  0  0  0  0
  -19.0270  -29.5770   23.6530 C   0  0  0  0  0  3  0  0  0  0  0  0
  -17.6680  -29.9330   23.7470 C   0  0  0  0  0  3  0  0  0  0  0  0
  -16.6770  -29.0420   23.3030 C   0  0  0  0  0  3  0  0  0  0  0  0
  -17.0450  -27.8010   22.7550 C   0  0  0  0  0  3  0  0  0  0  0  0
  -25.9170  -32.5040   23.7550 C   0  0  0  0  0  3  0  0  0  0  0  0
  -25.5050  -33.8750   24.1020 N   0  0  0  0  0  0  0  0  0  0  0  0
  -25.8700  -34.9780   23.4370 C   0  0  0  0  0  0  0  0  0  0  0  0
  -26.6540  -34.9510   22.4850 O   0  0  0  0  0  0  0  0  0  0  0  0
  -24.8160  -33.9660   24.8340 H   0  0  0  0  0  0  0  0  0  0  0  0
  -24.1380  -36.7420   22.9540 C   0  0  0  0  0  1  0  0  0  0  0  0
  -25.2760  -36.3240   23.8980 C   0  0  0  0  0  3  0  0  0  0  0  0
  -27.2580  -37.2220   25.0390 C   0  0  0  0  0  1  0  0  0  0  0  0
  -26.2740  -37.4130   23.9770 N   0  0  0  0  0  0  0  0  0  0  0  0
  -25.8190  -38.3100   24.1220 H   0  0  0  0  0  0  0  0  0  0  0  0
  -26.4690  -31.7620   25.0340 C   0  0  1  0  0  0  0  0  0  0  0  0
  -25.3880  -31.4560   26.0960 C   0  0  0  0  0  1  0  0  0  0  0  0
  -27.1350  -30.4200   24.6500 C   0  0  0  0  0  1  0  0  0  0  0  0
  -27.5670  -32.6200   25.7040 C   0  0  0  0  0  1  0  0  0  0  0  0
  1 48  2  0
  3  1  1  0
  3  2  1  0
  3  4  1  6
  5  7  1  0
  5  6  1  0
  6  8  1  0
  7  9  1  0
  8 18  1  0
  9  3  1  0
  9  8  1  0
 10 17  1  0
 10 16  1  0
 10 15  1  6
 11 10  1  0
 12 13  1  0
 18 19  1  0
 20 21  2  0
 20 45  1  0
 21 40  1  0
 22 24  2  0
 22 21  1  0
 23 24  1  0
 23 20  1  0
 23 14  1  0
 25 22  1  0
 25 26  1  0
 27 26  2  0
 28 27  1  0
 29 30  1  0
 29 28  2  0
 30 25  2  0
 31 28  1  0
 31 32  1  0
 32 33  1  0
 33 34  2  0
 35 34  1  0
 35 39  1  0
 36 35  2  0
 37 32  2  0
 37 36  1  0
 38 37  1  0
 40 41  1  0
 41 44  1  0
 41 43  1  0
 42 40  2  0
 45 46  1  0
 45 47  1  0
 48 49  1  0
 49 50  2  0
 50 51  1  0
 52 51  2  0
 52 53  1  0
 53 55  1  0
 54 65  2  0
 55 60  1  0
 56 64  1  0
 56 66  1  0
 57 63  1  0
 57 59  1  0
 58 64  1  0
 59 58  1  0
 60 59  2  0
 61 62  1  0
 61 55  2  0
 62 57  2  0
 63 56  1  0
 64 54  1  0
 66 68  2  0
 67 66  1  0
 69 67  1  0
 70 79  2  0
 70 75  1  0
 71 67  1  0
 71 75  1  0
 72 71  1  0
 73 74  1  0
 73 72  1  0
 74 70  1  0
 75 76  2  0
 76 77  1  0
 78 77  2  0
 79 78  1  0
 80 54  1  0
 80 81  1  0
 80 90  1  0
 81 84  1  0
 82 86  1  0
 82 81  1  0
 83 82  2  0
 86 85  1  0
 86 88  1  0
 88 89  1  0
 88 87  1  0
 90 93  1  1
 90 91  1  0
 92 90  1  0
M  ISO  4  10 100  18 100  52 101  53 101
M  END
>  <TORSDO>  (48) 
F 23

>  <SCORE>  (48) 
-8.317

>  <name>  (48) 
47

>  <ligand_id>  (48) 
47

>  <original_smiles>  (48) 
[H]c1c([H])c([H])c2c(c1[H])C([H])([H])C([H])([H])C([H])([H])C2([H])N([H])C(=O)C1([H])N(C(=O)C([H])(N([H])C(=O)C([H])(N([H])C([H])([H])[H])C([H])([H])[H])C(C([H])([H])[H])(C([H])([H])[H])C([H])([H])[H])C([H])([H])c2c([H])c(OC([H])([H])C([H])([H])C([H])([H])C([H])([H])C([H])([H])C([H])([H])[N+]([H])(C([H])([H])[H])C3([H])C([H])([H])C([H])([H])C([H])([H])C3([H])N([H])C(=O)N3C([H])([H])C([H])([H])C([H])([H])C([H])(n4nc(-c5c([H])c([H])c(Oc6c([H])c([H])c(F)c([H])c6F)c([H])c5[H])c(C(=O)N([H])[H])c4N([H])[H])C3([H])[H])c([H])c([H])c2C1([H])[H]

>  <smiles>  (48) 
[H]c1c([H])c([H])c2c(c1[H])C([H])([H])C([H])([H])C([H])([H])C2([H])N([H])C(=O)C1([H])N(C(=O)C([H])(N([H])C(=O)C([H])(N([H])C([H])([H])[H])C([H])([H])[H])C(C([H])([H])[H])(C([H])([H])[H])C([H])([H])[H])C([H])([H])c2c([H])c(OC([H])([H])C([H])([H])C([H])([H])C([H])([H])C([H])([H])C([H])([H])[N+]([H])(C([H])([H])[H])C3([H])C([H])([H])C([H])([H])C([H])([H])C3([H])N([H])C(=O)N3C([H])([H])C([H])([H])C([H])([H])C([H])(n4nc(-c5c([H])c([H])c(Oc6c([H])c([H])c(F)c([H])c6F)c([H])c5[H])c(C(=O)N([H])[H])c4N([H])[H])C3([H])[H])c([H])c([H])c2C1([H])[H]

$$$$
48:0:0
     RDKit          3D

 91100  0  0  1  0  0  0  0  0999 V2000
  -30.0760  -21.3810   21.1750 C   0  0  0  0  0  3  0  0  0  0  0  0
  -29.7440  -22.7930   21.1870 C   0  0  0  0  0  3  0  0  0  0  0  0
  -28.3590  -21.0010   19.6010 C   0  0  0  0  0  3  0  0  0  0  0  0
  -29.3650  -20.3920   20.4160 C   0  0  0  0  0  0  0  0  0  0  0  0
  -28.6780  -23.3860   20.4340 C   0  0  0  0  0  0  0  0  0  0  0  0
  -28.0240  -22.4140   19.6020 C   0  0  0  0  0  0  0  0  0  0  0  0
  -26.8530  -22.8510   18.7390 C   0  0  0  0  0  1  0  0  0  0  0  0
  -29.9990  -18.3920   22.0280 C   0  0  0  0  0  2  0  0  0  0  0  0
  -31.2730  -17.8410   21.3730 C   0  0  0  0  0  2  0  0  0  0  0  0
  -29.4670  -18.7670   20.6330 C   0  0  0  0  0  3  0  0  0  0  0  0
  -30.4460  -17.5240   20.1220 C   0  0  0  0  0  3  0  0  0  0  0  0
  -30.7480  -14.8550   19.9000 C   0  0  0  0  0  0  0  0  0  0  0  0
  -30.4980  -12.5490   18.9200 C   0  0  0  0  0  2  0  0  0  0  0  0
  -29.4800  -12.5710   17.7580 C   0  0  0  0  0  2  0  0  0  0  0  0
  -28.0520  -12.3660   18.2960 C   0  0  0  0  0  2  0  0  0  0  0  0
  -27.7430  -13.2780   19.5150 C   0  0  0  0  0  3  0  0  0  0  0  0
  -28.8760  -13.2460   20.5640 C   0  0  0  0  0  2  0  0  0  0  0  0
  -30.1180  -13.6220   19.8760 N   0  0  0  0  0  0  0  0  0  0  0  0
  -31.9090  -14.9300   19.4860 O   0  0  0  0  0  0  0  0  0  0  0  0
  -30.0240  -16.0200   20.1980 N   0  0  0  0  0  0  0  0  0  0  0  0
  -29.0740  -15.8540   20.4930 H   0  0  0  0  0  0  0  0  0  0  0  0
  -25.4340  -13.8590   20.4590 C   0  0  0  0  0  0  0  0  0  0  0  0
  -24.3920  -13.0830   20.8820 C   0  0  0  0  0  0  0  0  0  0  0  0
  -24.8330  -11.7300   20.7630 C   0  0  0  0  0  0  0  0  0  0  0  0
  -26.4430  -12.9810   20.1020 N   0  0  0  0  0  0  0  0  0  0  0  0
  -26.0940  -11.6910   20.3490 N   0  0  0  0  0  0  0  0  0  0  0  0
  -24.1090  -10.4670   20.9600 C   0  0  0  0  0  0  0  0  0  0  0  0
  -24.5550   -9.4930   21.8780 C   0  0  0  0  0  3  0  0  0  0  0  0
  -23.8280   -8.2970   22.0630 C   0  0  0  0  0  3  0  0  0  0  0  0
  -22.6400   -8.0680   21.3280 C   0  0  0  0  0  0  0  0  0  0  0  0
  -22.2130   -9.0310   20.3980 C   0  0  0  0  0  3  0  0  0  0  0  0
  -22.9410  -10.2180   20.2110 C   0  0  0  0  0  3  0  0  0  0  0  0
  -21.8830   -6.9250   21.4220 O   0  0  0  0  0  0  0  0  0  0  0  0
  -21.7990   -6.2120   22.5920 C   0  0  0  0  0  0  0  0  0  0  0  0
  -21.3030   -6.7870   23.7820 C   0  0  0  0  0  3  0  0  0  0  0  0
  -21.1690   -5.9980   24.9420 C   0  0  0  0  0  3  0  0  0  0  0  0
  -21.5210   -4.6360   24.9120 C   0  0  0  0  0  0  0  0  0  0  0  0
  -22.0100   -4.0600   23.7270 C   0  0  0  0  0  3  0  0  0  0  0  0
  -22.1450   -4.8460   22.5690 C   0  0  0  0  0  0  0  0  0  0  0  0
  -22.5960   -4.2800   21.4230 F   0  0  0  0  0  0  0  0  0  0  0  0
  -21.3850   -3.8770   26.0260 F   0  0  0  0  0  0  0  0  0  0  0  0
  -23.0270  -13.5640   21.2810 C   0  0  0  0  0  0  0  0  0  0  0  0
  -22.3550  -12.8390   22.1680 N   0  0  0  0  0  0  0  0  0  0  0  0
  -22.5670  -14.6180   20.8430 O   0  0  0  0  0  0  0  0  0  0  0  0
  -22.7400  -11.9830   22.5410 H   0  0  0  0  0  0  0  0  0  0  0  0
  -21.4430  -13.1440   22.4790 H   0  0  0  0  0  0  0  0  0  0  0  0
  -25.6010  -15.2350   20.3200 N   0  0  0  0  0  0  0  0  0  0  0  0
  -24.8460  -15.8880   20.5020 H   0  0  0  0  0  0  0  0  0  0  0  0
  -26.4140  -15.6770   19.9120 H   0  0  0  0  0  0  0  0  0  0  0  0
  -28.0370  -24.8530   20.7880 C   0  0  0  0  0  2  0  0  0  0  0  0
  -28.3840  -26.2370   20.2410 O   0  0  0  0  0  0  0  0  0  0  0  0
  -24.6720  -31.8430   23.1800 C   0  0  0  0  0  0  0  0  0  0  0  0
  -27.3280  -27.1990   20.1930 C   0  0  0  0  0  0  0  0  0  0  0  0
  -23.4980  -30.4320   21.5350 C   0  0  0  0  0  3  0  0  0  0  0  0
  -24.9740  -28.8740   20.1310 C   0  0  0  0  0  0  0  0  0  0  0  0
  -26.0450  -30.7420   21.3810 C   0  0  0  0  0  2  0  0  0  0  0  0
  -26.1440  -29.3530   20.7380 C   0  0  0  0  0  0  0  0  0  0  0  0
  -27.3270  -28.5310   20.7500 C   0  0  0  0  0  3  0  0  0  0  0  0
  -26.1360  -26.8070   19.5480 C   0  0  0  0  0  3  0  0  0  0  0  0
  -24.9790  -27.6110   19.5210 C   0  0  0  0  0  3  0  0  0  0  0  0
  -23.7340  -29.7510   20.1610 C   0  0  0  0  0  2  0  0  0  0  0  0
  -24.7570  -31.0270   22.0880 N   0  0  0  0  0  0  0  0  0  0  0  0
  -23.5800  -32.1170   23.7010 O   0  0  0  0  0  0  0  0  0  0  0  0
  -22.8240  -29.4190   22.4940 C   0  0  0  0  0  0  0  0  0  0  0  0
  -21.4940  -29.2610   22.3800 N   0  0  0  0  0  0  0  0  0  0  0  0
  -23.4990  -28.7780   23.3030 O   0  0  0  0  0  0  0  0  0  0  0  0
  -21.0050  -29.8340   21.7070 H   0  0  0  0  0  0  0  0  0  0  0  0
  -18.1010  -28.1060   22.9180 C   0  0  0  0  0  0  0  0  0  0  0  0
  -20.6690  -28.3250   23.1480 C   0  0  0  0  0  3  0  0  0  0  0  0
  -20.7380  -26.9000   22.5520 C   0  0  0  0  0  2  0  0  0  0  0  0
  -19.6150  -26.6080   21.5510 C   0  0  0  0  0  2  0  0  0  0  0  0
  -18.2450  -26.7640   22.2180 C   0  0  0  0  0  2  0  0  0  0  0  0
  -19.2380  -28.8460   23.3400 C   0  0  0  0  0  0  0  0  0  0  0  0
  -19.0470  -30.1010   23.9560 C   0  0  0  0  0  3  0  0  0  0  0  0
  -17.7530  -30.6170   24.1520 C   0  0  0  0  0  3  0  0  0  0  0  0
  -16.6310  -29.8750   23.7450 C   0  0  0  0  0  3  0  0  0  0  0  0
  -16.8060  -28.6210   23.1350 C   0  0  0  0  0  3  0  0  0  0  0  0
  -25.9400  -32.4910   23.8160 C   0  0  0  0  0  3  0  0  0  0  0  0
  -25.6110  -33.8860   24.1510 N   0  0  0  0  0  0  0  0  0  0  0  0
  -25.9420  -34.9480   23.4060 C   0  0  0  0  0  0  0  0  0  0  0  0
  -26.6250  -34.8600   22.3830 O   0  0  0  0  0  0  0  0  0  0  0  0
  -25.0110  -34.0290   24.9510 H   0  0  0  0  0  0  0  0  0  0  0  0
  -24.2110  -36.7370   23.0370 C   0  0  0  0  0  1  0  0  0  0  0  0
  -25.4370  -36.3300   23.8700 C   0  0  0  0  0  3  0  0  0  0  0  0
  -27.5450  -37.2180   24.7620 C   0  0  0  0  0  1  0  0  0  0  0  0
  -26.4660  -37.3900   23.7930 N   0  0  0  0  0  0  0  0  0  0  0  0
  -26.0510  -38.3060   23.9410 H   0  0  0  0  0  0  0  0  0  0  0  0
  -26.4530  -31.7240   25.0960 C   0  0  1  0  0  0  0  0  0  0  0  0
  -25.3510  -31.4670   26.1510 C   0  0  0  0  0  1  0  0  0  0  0  0
  -27.0630  -30.3580   24.7080 C   0  0  0  0  0  1  0  0  0  0  0  0
  -27.5820  -32.5360   25.7740 C   0  0  0  0  0  1  0  0  0  0  0  0
  1  2  1  0
  3  6  2  0
  3  4  1  0
  4  1  2  0
  5 50  1  0
  5  2  2  0
  6  5  1  0
  7  6  1  0
  9  8  1  0
 10  4  1  0
 10  8  1  0
 11 20  1  0
 11 10  1  0
 11  9  1  0
 12 20  1  0
 13 18  1  0
 14 15  1  0
 14 13  1  0
 16 15  1  0
 16 25  1  0
 16 17  1  0
 18 12  1  0
 18 17  1  0
 19 12  2  0
 20 21  1  0
 22 23  2  0
 23 42  1  0
 24 23  1  0
 24 27  1  0
 25 26  1  0
 25 22  1  0
 26 24  2  0
 27 28  1  0
 28 29  2  0
 30 33  1  0
 30 29  1  0
 31 30  2  0
 32 31  1  0
 32 27  2  0
 33 34  1  0
 34 35  1  0
 35 36  2  0
 37 36  1  0
 37 41  1  0
 38 37  2  0
 39 34  2  0
 39 38  1  0
 40 39  1  0
 42 43  1  0
 43 46  1  0
 43 45  1  0
 44 42  2  0
 47 22  1  0
 47 48  1  0
 49 47  1  0
 51 50  1  0
 52 63  2  0
 53 51  1  0
 53 58  1  0
 54 62  1  0
 54 64  1  0
 55 61  1  0
 55 57  1  0
 56 62  1  0
 57 58  2  0
 57 56  1  0
 59 53  2  0
 60 59  1  0
 60 55  2  0
 61 54  1  0
 62 52  1  0
 64 66  2  0
 65 64  1  0
 67 65  1  0
 68 77  2  0
 68 73  1  0
 69 65  1  0
 69 73  1  0
 70 69  1  0
 71 72  1  0
 71 70  1  0
 72 68  1  0
 73 74  2  0
 74 75  1  0
 76 75  2  0
 77 76  1  0
 78 52  1  0
 78 79  1  0
 78 88  1  0
 79 82  1  0
 80 84  1  0
 80 79  1  0
 81 80  2  0
 84 83  1  0
 86 84  1  0
 86 87  1  0
 86 85  1  0
 88 91  1  1
 88 89  1  0
 90 88  1  0
M  ISO  4  12 100  20 100  50 101  51 101
M  END
>  <TORSDO>  (49) 
F 18

>  <SCORE>  (49) 
-14.064

>  <name>  (49) 
48

>  <ligand_id>  (49) 
48

>  <original_smiles>  (49) 
[H]c1c([H])c([H])c2c(c1[H])C([H])([H])C([H])([H])C([H])([H])C2([H])N([H])C(=O)C1([H])N(C(=O)C([H])(N([H])C(=O)C([H])(N([H])C([H])([H])[H])C([H])([H])[H])C(C([H])([H])[H])(C([H])([H])[H])C([H])([H])[H])C([H])([H])c2c([H])c(OC([H])([H])c3c([H])c([H])c(C4([H])C([H])([H])C([H])([H])C4([H])N([H])C(=O)N4C([H])([H])C([H])([H])C([H])([H])C([H])(n5nc(-c6c([H])c([H])c(Oc7c([H])c([H])c(F)c([H])c7F)c([H])c6[H])c(C(=O)N([H])[H])c5N([H])[H])C4([H])[H])c([H])c3C([H])([H])[H])c([H])c([H])c2C1([H])[H]

>  <smiles>  (49) 
[H]c1c([H])c([H])c2c(c1[H])C([H])([H])C([H])([H])C([H])([H])C2([H])N([H])C(=O)C1([H])N(C(=O)C([H])(N([H])C(=O)C([H])(N([H])C([H])([H])[H])C([H])([H])[H])C(C([H])([H])[H])(C([H])([H])[H])C([H])([H])[H])C([H])([H])c2c([H])c(OC([H])([H])c3c([H])c([H])c(C4([H])C([H])([H])C([H])([H])C4([H])N([H])C(=O)N4C([H])([H])C([H])([H])C([H])([H])C([H])(n5nc(-c6c([H])c([H])c(Oc7c([H])c([H])c(F)c([H])c7F)c([H])c6[H])c(C(=O)N([H])[H])c5N([H])[H])C4([H])[H])c([H])c3C([H])([H])[H])c([H])c([H])c2C1([H])[H]

$$$$
49:0:0
     RDKit          3D

 93102  0  0  1  0  0  0  0  0999 V2000
  -28.7760  -19.3780   21.6630 C   0  0  0  0  0  2  0  0  0  0  0  0
  -28.1360  -19.0220   20.3000 C   0  0  0  0  0  2  0  0  0  0  0  0
  -29.3590  -20.7610   19.0090 C   0  0  0  0  0  2  0  0  0  0  0  0
  -30.0850  -20.0410   21.1380 C   0  0  0  0  0  3  0  0  0  0  0  0
  -29.6110  -21.3950   20.3800 C   0  0  0  0  0  3  0  0  0  0  0  0
  -30.5090  -18.9060   20.0300 C   0  0  0  0  0  3  0  0  0  0  0  0
  -29.2460  -19.2920   19.3310 N   0  0  1  0  0  4  0  0  0  0  0  0
  -29.1100  -18.7730   18.4760 H   0  0  0  0  0  0  0  0  0  0  0  0
  -28.2320  -23.6250   20.3690 C   0  0  0  0  0  1  0  0  0  0  0  0
  -29.6160  -23.0150   20.7320 C   0  0  0  0  0  3  0  0  0  0  0  0
  -31.5910  -23.4840   19.2070 C   0  0  0  0  0  1  0  0  0  0  0  0
  -30.7300  -24.1070   20.3210 C   0  0  0  0  0  3  0  0  0  0  0  0
  -30.3280  -25.6260   19.8470 C   0  0  0  0  0  2  0  0  0  0  0  0
  -29.9260  -26.8010   20.6940 O   0  0  0  0  0  0  0  0  0  0  0  0
  -25.0680  -31.4880   23.3970 C   0  0  0  0  0  0  0  0  0  0  0  0
  -28.7000  -27.4970   20.5160 C   0  0  0  0  0  0  0  0  0  0  0  0
  -24.2890  -29.9850   21.6060 C   0  0  0  0  0  3  0  0  0  0  0  0
  -26.1130  -28.7540   20.3020 C   0  0  0  0  0  0  0  0  0  0  0  0
  -26.7540  -30.7020   21.7130 C   0  0  0  0  0  2  0  0  0  0  0  0
  -27.1250  -29.3810   21.0380 C   0  0  0  0  0  0  0  0  0  0  0  0
  -28.4160  -28.7640   21.1380 C   0  0  0  0  0  3  0  0  0  0  0  0
  -27.6390  -26.9360   19.7630 C   0  0  0  0  0  3  0  0  0  0  0  0
  -26.3750  -27.5400   19.6580 C   0  0  0  0  0  3  0  0  0  0  0  0
  -24.7520  -29.4170   20.2400 C   0  0  0  0  0  2  0  0  0  0  0  0
  -25.3810  -30.7430   22.2970 N   0  0  0  0  0  0  0  0  0  0  0  0
  -23.9030  -31.5650   23.8140 O   0  0  0  0  0  0  0  0  0  0  0  0
  -23.7060  -28.8350   22.4610 C   0  0  0  0  0  0  0  0  0  0  0  0
  -22.4530  -28.4410   22.1730 N   0  0  0  0  0  0  0  0  0  0  0  0
  -24.3840  -28.3010   23.3420 O   0  0  0  0  0  0  0  0  0  0  0  0
  -21.9520  -28.9410   21.4520 H   0  0  0  0  0  0  0  0  0  0  0  0
  -19.3070  -26.6520   22.2390 C   0  0  0  0  0  0  0  0  0  0  0  0
  -21.7310  -27.3440   22.8170 C   0  0  0  0  0  3  0  0  0  0  0  0
  -22.1520  -25.9750   22.2310 C   0  0  0  0  0  2  0  0  0  0  0  0
  -21.2450  -25.4980   21.0940 C   0  0  0  0  0  2  0  0  0  0  0  0
  -19.7970  -25.3760   21.5730 C   0  0  0  0  0  2  0  0  0  0  0  0
  -20.2160  -27.5810   22.8100 C   0  0  0  0  0  0  0  0  0  0  0  0
  -19.7090  -28.7640   23.3900 C   0  0  0  0  0  3  0  0  0  0  0  0
  -18.3270  -29.0280   23.4050 C   0  0  0  0  0  3  0  0  0  0  0  0
  -17.4320  -28.1000   22.8490 C   0  0  0  0  0  3  0  0  0  0  0  0
  -17.9210  -26.9130   22.2720 C   0  0  0  0  0  3  0  0  0  0  0  0
  -26.1550  -32.2950   24.1720 C   0  0  0  0  0  3  0  0  0  0  0  0
  -26.5310  -31.6510   25.5630 C   0  0  1  0  0  0  0  0  0  0  0  0
  -25.3070  -31.3240   26.4510 C   0  0  0  0  0  1  0  0  0  0  0  0
  -27.3280  -30.3420   25.3650 C   0  0  0  0  0  1  0  0  0  0  0  0
  -27.4500  -32.6120   26.3530 C   0  0  0  0  0  1  0  0  0  0  0  0
  -25.6450  -33.6610   24.3560 N   0  0  0  0  0  0  0  0  0  0  0  0
  -25.9580  -34.7030   23.5750 C   0  0  0  0  0  0  0  0  0  0  0  0
  -26.7710  -34.6250   22.6520 O   0  0  0  0  0  0  0  0  0  0  0  0
  -24.9310  -33.7860   25.0600 H   0  0  0  0  0  0  0  0  0  0  0  0
  -24.0890  -36.2420   22.8880 C   0  0  0  0  0  1  0  0  0  0  0  0
  -25.2590  -36.0460   23.8670 C   0  0  0  0  0  3  0  0  0  0  0  0
  -27.1550  -37.2400   24.8700 C   0  0  0  0  0  1  0  0  0  0  0  0
  -26.1680  -37.2110   23.7940 N   0  0  0  0  0  0  0  0  0  0  0  0
  -25.6420  -38.0810   23.8210 H   0  0  0  0  0  0  0  0  0  0  0  0
  -30.4740  -17.2460   19.8680 C   0  0  0  0  0  2  0  0  0  0  0  0
  -32.1420  -15.0810   19.8890 C   0  0  0  0  0  0  0  0  0  0  0  0
  -31.7020  -12.7290   19.2110 C   0  0  0  0  0  2  0  0  0  0  0  0
  -30.7770  -12.6450   17.9840 C   0  0  0  0  0  2  0  0  0  0  0  0
  -29.3080  -12.6050   18.4340 C   0  0  0  0  0  2  0  0  0  0  0  0
  -28.9760  -13.6880   19.4940 C   0  0  0  0  0  3  0  0  0  0  0  0
  -30.0400  -13.7860   20.6090 C   0  0  0  0  0  2  0  0  0  0  0  0
  -31.3360  -13.9650   19.9500 N   0  0  0  0  0  0  0  0  0  0  0  0
  -33.3310  -14.9390   19.6180 O   0  0  0  0  0  0  0  0  0  0  0  0
  -31.7290  -16.4030   19.9130 N   0  0  0  0  0  0  0  0  0  0  0  0
  -32.5530  -16.9800   19.8260 H   0  0  0  0  0  0  0  0  0  0  0  0
  -26.7050  -14.4990   20.3540 C   0  0  0  0  0  0  0  0  0  0  0  0
  -25.5720  -13.8330   20.7270 C   0  0  0  0  0  0  0  0  0  0  0  0
  -25.8720  -12.4400   20.6050 C   0  0  0  0  0  0  0  0  0  0  0  0
  -27.6300  -13.5220   20.0290 N   0  0  0  0  0  0  0  0  0  0  0  0
  -27.1400  -12.2750   20.2470 N   0  0  0  0  0  0  0  0  0  0  0  0
  -25.0070  -11.2620   20.7500 C   0  0  0  0  0  0  0  0  0  0  0  0
  -25.3190  -10.2250   21.6580 C   0  0  0  0  0  3  0  0  0  0  0  0
  -24.4610   -9.1120   21.7960 C   0  0  0  0  0  3  0  0  0  0  0  0
  -23.2780   -9.0280   21.0230 C   0  0  0  0  0  0  0  0  0  0  0  0
  -22.9850  -10.0500   20.1020 C   0  0  0  0  0  3  0  0  0  0  0  0
  -23.8430  -11.1540   19.9620 C   0  0  0  0  0  3  0  0  0  0  0  0
  -22.3980   -7.9730   21.0720 O   0  0  0  0  0  0  0  0  0  0  0  0
  -22.1380   -7.3070   22.2430 C   0  0  0  0  0  0  0  0  0  0  0  0
  -21.6010   -7.9650   23.3710 C   0  0  0  0  0  3  0  0  0  0  0  0
  -21.2830   -7.2280   24.5290 C   0  0  0  0  0  3  0  0  0  0  0  0
  -21.4920   -5.8360   24.5600 C   0  0  0  0  0  0  0  0  0  0  0  0
  -22.0230   -5.1800   23.4360 C   0  0  0  0  0  3  0  0  0  0  0  0
  -22.3410   -5.9120   22.2800 C   0  0  0  0  0  0  0  0  0  0  0  0
  -22.8330   -5.2710   21.1930 F   0  0  0  0  0  0  0  0  0  0  0  0
  -21.1800   -5.1280   25.6700 F   0  0  0  0  0  0  0  0  0  0  0  0
  -24.2480  -14.4510   21.0690 C   0  0  0  0  0  0  0  0  0  0  0  0
  -23.4860  -13.8200   21.9550 N   0  0  0  0  0  0  0  0  0  0  0  0
  -23.9030  -15.5270   20.5830 O   0  0  0  0  0  0  0  0  0  0  0  0
  -23.7780  -12.9480   22.3710 H   0  0  0  0  0  0  0  0  0  0  0  0
  -22.5990  -14.2180   22.2280 H   0  0  0  0  0  0  0  0  0  0  0  0
  -27.0200  -15.8500   20.2260 N   0  0  0  0  0  0  0  0  0  0  0  0
  -26.2420  -16.5020   20.2300 H   0  0  0  0  0  0  0  0  0  0  0  0
  -27.7300  -16.0980   19.5530 H   0  0  0  0  0  0  0  0  0  0  0  0
  2  1  1  0
  3  7  1  0
  3  5  1  0
  4  1  1  0
  5 10  1  0
  5  4  1  0
  6 55  1  0
  6  4  1  0
  7  8  1  6
  7  6  1  0
  7  2  1  0
 10  9  1  0
 12 11  1  0
 12 10  1  0
 13 12  1  0
 13 14  1  0
 15 26  2  0
 16 14  1  0
 16 21  1  0
 17 25  1  0
 17 27  1  0
 18 20  1  0
 19 25  1  0
 20 21  2  0
 20 19  1  0
 22 16  2  0
 23 22  1  0
 23 18  2  0
 24 18  1  0
 24 17  1  0
 25 15  1  0
 27 29  2  0
 28 27  1  0
 30 28  1  0
 31 40  2  0
 31 36  1  0
 32 28  1  0
 33 32  1  0
 34 35  1  0
 34 33  1  0
 35 31  1  0
 36 32  1  0
 36 37  2  0
 37 38  1  0
 39 38  2  0
 40 39  1  0
 41 15  1  0
 41 46  1  0
 41 42  1  0
 42 45  1  1
 42 43  1  0
 44 42  1  0
 46 49  1  0
 47 51  1  0
 47 46  1  0
 48 47  2  0
 51 50  1  0
 53 54  1  0
 53 51  1  0
 53 52  1  0
 55 64  1  0
 56 64  1  0
 56 62  1  0
 57 62  1  0
 58 59  1  0
 58 57  1  0
 60 59  1  0
 60 69  1  0
 60 61  1  0
 62 61  1  0
 63 56  2  0
 65 64  1  0
 66 67  2  0
 67 86  1  0
 68 67  1  0
 68 71  1  0
 69 70  1  0
 69 66  1  0
 70 68  2  0
 71 72  1  0
 72 73  2  0
 74 77  1  0
 74 73  1  0
 75 74  2  0
 76 75  1  0
 76 71  2  0
 77 78  1  0
 78 83  2  0
 78 79  1  0
 79 80  2  0
 80 81  1  0
 81 85  1  0
 82 81  2  0
 83 82  1  0
 84 83  1  0
 86 87  1  0
 87 90  1  0
 87 89  1  0
 88 86  2  0
 91 92  1  0
 91 66  1  0
 93 91  1  0
M  ISO  4  13 101  14 101  56 100  64 100
M  END
>  <TORSDO>  (50) 
F 20

>  <SCORE>  (50) 
-9.568

>  <name>  (50) 
49

>  <ligand_id>  (50) 
49

>  <original_smiles>  (50) 
[H]c1c([H])c([H])c2c(c1[H])C([H])([H])C([H])([H])C([H])([H])C2([H])N([H])C(=O)C1([H])N(C(=O)C([H])(N([H])C(=O)C([H])(N([H])C([H])([H])[H])C([H])([H])[H])C(C([H])([H])[H])(C([H])([H])[H])C([H])([H])[H])C([H])([H])c2c([H])c(OC([H])([H])C([H])(C([H])([H])[H])C([H])(C([H])([H])[H])C3([H])C4([H])C([H])([H])C([H])([H])[N+]([H])(C3([H])[H])C4([H])C([H])([H])N([H])C(=O)N3C([H])([H])C([H])([H])C([H])([H])C([H])(n4nc(-c5c([H])c([H])c(Oc6c([H])c([H])c(F)c([H])c6F)c([H])c5[H])c(C(=O)N([H])[H])c4N([H])[H])C3([H])[H])c([H])c([H])c2C1([H])[H]

>  <smiles>  (50) 
[H]c1c([H])c([H])c2c(c1[H])C([H])([H])C([H])([H])C([H])([H])C2([H])N([H])C(=O)C1([H])N(C(=O)C([H])(N([H])C(=O)C([H])(N([H])C([H])([H])[H])C([H])([H])[H])C(C([H])([H])[H])(C([H])([H])[H])C([H])([H])[H])C([H])([H])c2c([H])c(OC([H])([H])C([H])(C([H])([H])[H])C([H])(C([H])([H])[H])C3([H])C4([H])C([H])([H])C([H])([H])[N+]([H])(C3([H])[H])C4([H])C([H])([H])N([H])C(=O)N3C([H])([H])C([H])([H])C([H])([H])C([H])(n4nc(-c5c([H])c([H])c(Oc6c([H])c([H])c(F)c([H])c6F)c([H])c5[H])c(C(=O)N([H])[H])c4N([H])[H])C3([H])[H])c([H])c([H])c2C1([H])[H]

$$$$
50:0:0
     RDKit          3D

 93102  0  0  1  0  0  0  0  0999 V2000
  -27.9250  -21.6090   20.8390 C   0  0  0  0  0  2  0  0  0  0  0  0
  -29.1110  -19.2160   21.3670 C   0  0  0  0  0  2  0  0  0  0  0  0
  -29.1280  -20.7680   21.3220 C   0  0  0  0  0  3  0  0  0  0  0  0
  -29.8810  -21.2430   20.0940 C   0  0  0  0  0  3  0  0  0  0  0  0
  -28.8280  -22.4240   19.8860 C   0  0  0  0  0  3  0  0  0  0  0  0
  -29.5150  -18.6520   19.9710 C   0  0  0  0  0  3  0  0  0  0  0  0
  -30.0860  -19.9450   19.2310 C   0  0  0  0  0  3  0  0  0  0  0  0
  -29.5620  -20.0990   17.8640 N   0  0  0  0  0  4  0  0  0  0  0  0
  -28.5660  -20.2270   17.8700 H   0  0  0  0  0  0  0  0  0  0  0  0
  -29.7770  -19.2910   17.3060 H   0  0  0  0  0  0  0  0  0  0  0  0
  -29.9830  -20.8970   17.4210 H   0  0  0  0  0  0  0  0  0  0  0  0
  -29.1590  -23.9640   20.2010 C   0  0  0  0  0  3  0  0  0  0  0  0
  -28.0560  -25.0750   19.8680 C   0  0  0  0  0  3  0  0  0  0  0  0
  -28.2970  -26.5260   20.1310 O   0  0  0  0  0  0  0  0  0  0  0  0
  -24.6460  -31.9100   23.3000 C   0  0  0  0  0  0  0  0  0  0  0  0
  -27.1920  -27.4030   20.1000 C   0  0  0  0  0  0  0  0  0  0  0  0
  -23.4140  -30.5520   21.6480 C   0  0  0  0  0  3  0  0  0  0  0  0
  -24.8370  -29.0360   20.1610 C   0  0  0  0  0  0  0  0  0  0  0  0
  -25.9530  -30.8660   21.4330 C   0  0  0  0  0  2  0  0  0  0  0  0
  -26.0190  -29.5020   20.7510 C   0  0  0  0  0  0  0  0  0  0  0  0
  -27.1990  -28.6980   20.7110 C   0  0  0  0  0  3  0  0  0  0  0  0
  -25.9870  -27.0030   19.4770 C   0  0  0  0  0  3  0  0  0  0  0  0
  -24.8250  -27.7930   19.5140 C   0  0  0  0  0  3  0  0  0  0  0  0
  -23.6040  -29.9120   20.2500 C   0  0  0  0  0  2  0  0  0  0  0  0
  -24.6910  -31.1260   22.1830 N   0  0  0  0  0  0  0  0  0  0  0  0
  -23.5720  -32.1780   23.8570 O   0  0  0  0  0  0  0  0  0  0  0  0
  -22.7650  -29.5150   22.5950 C   0  0  0  0  0  0  0  0  0  0  0  0
  -21.4410  -29.3230   22.4670 N   0  0  0  0  0  0  0  0  0  0  0  0
  -23.4510  -28.8850   23.4050 O   0  0  0  0  0  0  0  0  0  0  0  0
  -20.9450  -29.8840   21.7880 H   0  0  0  0  0  0  0  0  0  0  0  0
  -18.0810  -28.0650   22.9370 C   0  0  0  0  0  0  0  0  0  0  0  0
  -20.6320  -28.3660   23.2250 C   0  0  0  0  0  3  0  0  0  0  0  0
  -20.7630  -26.9400   22.6420 C   0  0  0  0  0  2  0  0  0  0  0  0
  -19.6720  -26.6060   21.6180 C   0  0  0  0  0  2  0  0  0  0  0  0
  -18.2840  -26.7240   22.2540 C   0  0  0  0  0  2  0  0  0  0  0  0
  -19.1830  -28.8430   23.3790 C   0  0  0  0  0  0  0  0  0  0  0  0
  -18.9400  -30.0980   23.9780 C   0  0  0  0  0  3  0  0  0  0  0  0
  -17.6260  -30.5770   24.1390 C   0  0  0  0  0  3  0  0  0  0  0  0
  -16.5370  -29.7960   23.7130 C   0  0  0  0  0  3  0  0  0  0  0  0
  -16.7650  -28.5420   23.1180 C   0  0  0  0  0  3  0  0  0  0  0  0
  -25.9400  -32.5260   23.9150 C   0  0  0  0  0  3  0  0  0  0  0  0
  -26.4550  -31.7460   25.1870 C   0  0  1  0  0  0  0  0  0  0  0  0
  -25.3650  -31.5170   26.2600 C   0  0  0  0  0  1  0  0  0  0  0  0
  -27.0220  -30.3640   24.7900 C   0  0  0  0  0  1  0  0  0  0  0  0
  -27.6170  -32.5270   25.8450 C   0  0  0  0  0  1  0  0  0  0  0  0
  -25.6490  -33.9270   24.2510 N   0  0  0  0  0  0  0  0  0  0  0  0
  -25.9570  -34.9770   23.4770 C   0  0  0  0  0  0  0  0  0  0  0  0
  -26.5870  -34.8670   22.4220 O   0  0  0  0  0  0  0  0  0  0  0  0
  -25.0860  -34.0870   25.0740 H   0  0  0  0  0  0  0  0  0  0  0  0
  -24.2090  -36.7650   23.2040 C   0  0  0  0  0  1  0  0  0  0  0  0
  -25.4940  -36.3690   23.9490 C   0  0  0  0  0  3  0  0  0  0  0  0
  -27.6660  -37.2660   24.6570 C   0  0  0  0  0  1  0  0  0  0  0  0
  -26.5170  -37.4210   23.7700 N   0  0  0  0  0  0  0  0  0  0  0  0
  -26.1170  -38.3430   23.9270 H   0  0  0  0  0  0  0  0  0  0  0  0
  -30.4860  -17.3620   19.9620 C   0  0  0  0  0  2  0  0  0  0  0  0
  -30.7000  -14.8000   19.9350 C   0  0  0  0  0  0  0  0  0  0  0  0
  -30.4140  -12.5410   18.9370 C   0  0  0  0  0  2  0  0  0  0  0  0
  -29.4050  -12.6250   17.7720 C   0  0  0  0  0  2  0  0  0  0  0  0
  -27.9660  -12.4490   18.2930 C   0  0  0  0  0  2  0  0  0  0  0  0
  -27.6650  -13.3350   19.5330 C   0  0  0  0  0  3  0  0  0  0  0  0
  -28.7920  -13.2540   20.5870 C   0  0  0  0  0  2  0  0  0  0  0  0
  -30.0510  -13.5920   19.9120 N   0  0  0  0  0  0  0  0  0  0  0  0
  -31.8580  -14.8920   19.5200 O   0  0  0  0  0  0  0  0  0  0  0  0
  -29.9820  -15.9480   20.1970 N   0  0  0  0  0  0  0  0  0  0  0  0
  -29.0250  -15.8310   20.4980 H   0  0  0  0  0  0  0  0  0  0  0  0
  -25.3370  -13.9050   20.4470 C   0  0  0  0  0  0  0  0  0  0  0  0
  -24.2960  -13.1210   20.8620 C   0  0  0  0  0  0  0  0  0  0  0  0
  -24.7470  -11.7710   20.7470 C   0  0  0  0  0  0  0  0  0  0  0  0
  -26.3570  -13.0330   20.1050 N   0  0  0  0  0  0  0  0  0  0  0  0
  -26.0130  -11.7420   20.3470 N   0  0  0  0  0  0  0  0  0  0  0  0
  -24.0280  -10.5050   20.9380 C   0  0  0  0  0  0  0  0  0  0  0  0
  -24.4680   -9.5390   21.8700 C   0  0  0  0  0  3  0  0  0  0  0  0
  -23.7490   -8.3370   22.0490 C   0  0  0  0  0  3  0  0  0  0  0  0
  -22.5750   -8.0940   21.2980 C   0  0  0  0  0  0  0  0  0  0  0  0
  -22.1540   -9.0490   20.3540 C   0  0  0  0  0  3  0  0  0  0  0  0
  -22.8750  -10.2400   20.1730 C   0  0  0  0  0  3  0  0  0  0  0  0
  -21.8260   -6.9450   21.3860 O   0  0  0  0  0  0  0  0  0  0  0  0
  -21.7080   -6.2530   22.5640 C   0  0  0  0  0  0  0  0  0  0  0  0
  -21.1830   -6.8500   23.7300 C   0  0  0  0  0  3  0  0  0  0  0  0
  -21.0140   -6.0820   24.9000 C   0  0  0  0  0  3  0  0  0  0  0  0
  -21.3610   -4.7180   24.9040 C   0  0  0  0  0  0  0  0  0  0  0  0
  -21.8810   -4.1200   23.7430 C   0  0  0  0  0  3  0  0  0  0  0  0
  -22.0510   -4.8850   22.5750 C   0  0  0  0  0  0  0  0  0  0  0  0
  -22.5310   -4.2990   21.4520 F   0  0  0  0  0  0  0  0  0  0  0  0
  -21.1940   -3.9780   26.0250 F   0  0  0  0  0  0  0  0  0  0  0  0
  -22.9230  -13.5920   21.2470 C   0  0  0  0  0  0  0  0  0  0  0  0
  -22.2560  -12.8690   22.1390 N   0  0  0  0  0  0  0  0  0  0  0  0
  -22.4540  -14.6350   20.7930 O   0  0  0  0  0  0  0  0  0  0  0  0
  -22.6500  -12.0250   22.5270 H   0  0  0  0  0  0  0  0  0  0  0  0
  -21.3380  -13.1650   22.4410 H   0  0  0  0  0  0  0  0  0  0  0  0
  -25.4950  -15.2820   20.3100 N   0  0  0  0  0  0  0  0  0  0  0  0
  -24.7380  -15.9310   20.4940 H   0  0  0  0  0  0  0  0  0  0  0  0
  -26.3120  -15.7310   19.9170 H   0  0  0  0  0  0  0  0  0  0  0  0
  3  1  1  0
  3  2  1  0
  4  3  1  0
  5  4  1  0
  5 12  1  0
  5  1  1  0
  6  2  1  0
  7  6  1  0
  7  4  1  0
  8  9  1  0
  8  7  1  0
 10  8  1  0
 11  8  1  0
 13 14  1  0
 13 12  2  0
 15 26  2  0
 15 41  1  0
 16 14  1  0
 16 21  1  0
 17 25  1  0
 17 27  1  0
 18 24  1  0
 18 20  1  0
 19 25  1  0
 20 19  1  0
 21 20  2  0
 22 23  1  0
 22 16  2  0
 23 18  2  0
 24 17  1  0
 25 15  1  0
 27 29  2  0
 28 27  1  0
 28 32  1  0
 30 28  1  0
 31 40  2  0
 31 36  1  0
 32 36  1  0
 33 32  1  0
 34 35  1  0
 34 33  1  0
 35 31  1  0
 36 37  2  0
 37 38  1  0
 39 38  2  0
 40 39  1  0
 41 46  1  0
 41 42  1  0
 42 45  1  1
 42 43  1  0
 44 42  1  0
 46 49  1  0
 47 51  1  0
 47 46  1  0
 48 47  2  0
 50 51  1  0
 53 54  1  0
 53 51  1  0
 53 52  1  0
 55  6  1  0
 55 64  1  0
 56 64  1  0
 57 62  1  0
 58 59  1  0
 58 57  1  0
 59 60  1  0
 60 69  1  0
 60 61  1  0
 62 56  1  0
 62 61  1  0
 63 56  2  0
 64 65  1  0
 66 67  2  0
 67 86  1  0
 68 67  1  0
 68 71  1  0
 69 70  1  0
 69 66  1  0
 70 68  2  0
 71 72  1  0
 72 73  2  0
 74 77  1  0
 74 73  1  0
 75 74  2  0
 76 75  1  0
 76 71  2  0
 77 78  1  0
 78 83  2  0
 78 79  1  0
 79 80  2  0
 80 81  1  0
 81 85  1  0
 82 81  2  0
 83 82  1  0
 84 83  1  0
 86 87  1  0
 87 90  1  0
 87 89  1  0
 88 86  2  0
 91 66  1  0
 91 92  1  0
 93 91  1  0
M  ISO  4  13 101  14 101  56 100  64 100
M  END
>  <TORSDO>  (51) 
F 20

>  <SCORE>  (51) 
-13.242

>  <name>  (51) 
50

>  <ligand_id>  (51) 
50

>  <original_smiles>  (51) 
[H]c1c([H])c([H])c2c(c1[H])C([H])([H])C([H])([H])C([H])([H])C2([H])N([H])C(=O)C1([H])N(C(=O)C([H])(N([H])C(=O)C([H])(N([H])C([H])([H])[H])C([H])([H])[H])C(C([H])([H])[H])(C([H])([H])[H])C([H])([H])[H])C([H])([H])c2c([H])c(OC([H])([H])C([H])([H])C3([H])C([H])([H])C4([H])C([H])([H])C([H])(C([H])([H])N([H])C(=O)N5C([H])([H])C([H])([H])C([H])([H])C([H])(n6nc(-c7c([H])c([H])c(Oc8c([H])c([H])c(F)c([H])c8F)c([H])c7[H])c(C(=O)N([H])[H])c6N([H])[H])C5([H])[H])C([H])([N+]([H])([H])[H])C34[H])c([H])c([H])c2C1([H])[H]

>  <smiles>  (51) 
[H]c1c([H])c([H])c2c(c1[H])C([H])([H])C([H])([H])C([H])([H])C2([H])N([H])C(=O)C1([H])N(C(=O)C([H])(N([H])C(=O)C([H])(N([H])C([H])([H])[H])C([H])([H])[H])C(C([H])([H])[H])(C([H])([H])[H])C([H])([H])[H])C([H])([H])c2c([H])c(OC([H])([H])C([H])([H])C3([H])C([H])([H])C4([H])C([H])([H])C([H])(C([H])([H])N([H])C(=O)N5C([H])([H])C([H])([H])C([H])([H])C([H])(n6nc(-c7c([H])c([H])c(Oc8c([H])c([H])c(F)c([H])c8F)c([H])c7[H])c(C(=O)N([H])[H])c6N([H])[H])C5([H])[H])C([H])([N+]([H])([H])[H])C34[H])c([H])c([H])c2C1([H])[H]

$$$$
51:0:0
     RDKit          3D

 93101  0  0  1  0  0  0  0  0999 V2000
  -28.7860  -21.2090   20.2470 N   0  0  1  0  0  4  0  0  0  0  0  0
  -27.8030  -21.0730   20.4510 H   0  0  0  0  0  0  0  0  0  0  0  0
  -28.8260  -21.1910   18.7580 C   0  0  0  0  0  2  0  0  0  0  0  0
  -26.6010  -20.1540   17.7350 C   0  0  0  0  0  2  0  0  0  0  0  0
  -28.0540  -20.0280   18.1460 C   0  0  0  0  0  3  0  0  0  0  0  0
  -27.6710  -20.0090   16.6760 C   0  0  0  0  0  3  0  0  0  0  0  0
  -27.7210  -18.6710   16.0400 N   0  0  0  0  0  4  0  0  0  0  0  0
  -27.0240  -18.5860   15.3190 H   0  0  0  0  0  0  0  0  0  0  0  0
  -27.5750  -17.9260   16.6960 H   0  0  0  0  0  0  0  0  0  0  0  0
  -28.6190  -18.5250   15.6110 H   0  0  0  0  0  0  0  0  0  0  0  0
  -29.4180  -19.8050   20.9310 C   0  0  0  0  0  2  0  0  0  0  0  0
  -29.7650  -18.1610   20.2360 C   0  0  0  0  0  2  0  0  0  0  0  0
  -30.6810  -15.3650   20.6220 C   0  0  0  0  0  0  0  0  0  0  0  0
  -30.7200  -12.9290   19.7600 C   0  0  0  0  0  2  0  0  0  0  0  0
  -29.8570  -12.7330   18.4890 C   0  0  0  0  0  2  0  0  0  0  0  0
  -28.3880  -12.4550   18.8590 C   0  0  0  0  0  2  0  0  0  0  0  0
  -27.8870  -13.4030   19.9780 C   0  0  0  0  0  3  0  0  0  0  0  0
  -28.8820  -13.5360   21.1490 C   0  0  0  0  0  2  0  0  0  0  0  0
  -30.1440  -14.0490   20.5890 N   0  0  0  0  0  0  0  0  0  0  0  0
  -31.8830  -15.4120   20.3240 O   0  0  0  0  0  0  0  0  0  0  0  0
  -29.8850  -16.5960   20.8110 N   0  0  0  0  0  0  0  0  0  0  0  0
  -28.9890  -16.3240   21.1950 H   0  0  0  0  0  0  0  0  0  0  0  0
  -25.4880  -13.9340   20.6680 C   0  0  0  0  0  0  0  0  0  0  0  0
  -24.4230  -13.1460   20.9930 C   0  0  0  0  0  0  0  0  0  0  0  0
  -24.9030  -11.7990   20.9650 C   0  0  0  0  0  0  0  0  0  0  0  0
  -26.5440  -13.0720   20.4380 N   0  0  0  0  0  0  0  0  0  0  0  0
  -26.2030  -11.7800   20.6870 N   0  0  0  0  0  0  0  0  0  0  0  0
  -24.1750  -10.5300   21.1140 C   0  0  0  0  0  0  0  0  0  0  0  0
  -24.5560   -9.5730   22.0770 C   0  0  0  0  0  3  0  0  0  0  0  0
  -23.8300   -8.3720   22.2190 C   0  0  0  0  0  3  0  0  0  0  0  0
  -22.7060   -8.1210   21.3960 C   0  0  0  0  0  0  0  0  0  0  0  0
  -22.3420   -9.0720   20.4240 C   0  0  0  0  0  3  0  0  0  0  0  0
  -23.0700  -10.2620   20.2800 C   0  0  0  0  0  3  0  0  0  0  0  0
  -21.9530   -6.9760   21.4480 O   0  0  0  0  0  0  0  0  0  0  0  0
  -21.8040   -6.2610   22.6110 C   0  0  0  0  0  0  0  0  0  0  0  0
  -21.2030   -6.8230   23.7590 C   0  0  0  0  0  3  0  0  0  0  0  0
  -21.0050   -6.0320   24.9090 C   0  0  0  0  0  3  0  0  0  0  0  0
  -21.4040   -4.6800   24.9120 C   0  0  0  0  0  0  0  0  0  0  0  0
  -21.9980   -4.1210   23.7680 C   0  0  0  0  0  3  0  0  0  0  0  0
  -22.1970   -4.9080   22.6220 C   0  0  0  0  0  0  0  0  0  0  0  0
  -22.7520   -4.3560   21.5150 F   0  0  0  0  0  0  0  0  0  0  0  0
  -21.2080   -3.9200   26.0130 F   0  0  0  0  0  0  0  0  0  0  0  0
  -23.0150  -13.6120   21.2200 C   0  0  0  0  0  0  0  0  0  0  0  0
  -22.2570  -12.9020   22.0460 N   0  0  0  0  0  0  0  0  0  0  0  0
  -22.5970  -14.6500   20.7040 O   0  0  0  0  0  0  0  0  0  0  0  0
  -22.6080  -12.0680   22.4920 H   0  0  0  0  0  0  0  0  0  0  0  0
  -21.3080  -13.1920   22.2270 H   0  0  0  0  0  0  0  0  0  0  0  0
  -25.6470  -15.3100   20.5140 N   0  0  0  0  0  0  0  0  0  0  0  0
  -24.8740  -15.9570   20.6390 H   0  0  0  0  0  0  0  0  0  0  0  0
  -26.4980  -15.7630   20.2130 H   0  0  0  0  0  0  0  0  0  0  0  0
  -28.9860  -22.7930   20.7460 C   0  0  0  0  0  3  0  0  0  0  0  0
  -28.0950  -24.2930   20.2670 C   0  0  0  0  0  3  0  0  0  0  0  0
  -28.2860  -25.9170   20.4830 O   0  0  0  0  0  0  0  0  0  0  0  0
  -24.5540  -31.8490   23.2530 C   0  0  0  0  0  0  0  0  0  0  0  0
  -27.2680  -27.0010   20.3550 C   0  0  0  0  0  0  0  0  0  0  0  0
  -23.4310  -30.4330   21.5810 C   0  0  0  0  0  3  0  0  0  0  0  0
  -24.9490  -28.8460   20.2120 C   0  0  0  0  0  0  0  0  0  0  0  0
  -25.9970  -30.6800   21.5190 C   0  0  0  0  0  2  0  0  0  0  0  0
  -26.1100  -29.2720   20.8710 C   0  0  0  0  0  0  0  0  0  0  0  0
  -27.2630  -28.3700   20.9200 C   0  0  0  0  0  3  0  0  0  0  0  0
  -26.0850  -26.7290   19.6330 C   0  0  0  0  0  3  0  0  0  0  0  0
  -24.9660  -27.5990   19.5660 C   0  0  0  0  0  3  0  0  0  0  0  0
  -23.7180  -29.7490   20.2140 C   0  0  0  0  0  2  0  0  0  0  0  0
  -24.6800  -31.0160   22.1710 N   0  0  0  0  0  0  0  0  0  0  0  0
  -23.4460  -32.1270   23.7390 O   0  0  0  0  0  0  0  0  0  0  0  0
  -22.7170  -29.4330   22.5260 C   0  0  0  0  0  0  0  0  0  0  0  0
  -21.3880  -29.2730   22.3780 N   0  0  0  0  0  0  0  0  0  0  0  0
  -23.3670  -28.8010   23.3630 O   0  0  0  0  0  0  0  0  0  0  0  0
  -20.9200  -29.8370   21.6820 H   0  0  0  0  0  0  0  0  0  0  0  0
  -17.9860  -28.1050   22.8540 C   0  0  0  0  0  0  0  0  0  0  0  0
  -20.5490  -28.3330   23.1290 C   0  0  0  0  0  3  0  0  0  0  0  0
  -20.6330  -26.9120   22.5270 C   0  0  0  0  0  2  0  0  0  0  0  0
  -19.5300  -26.6230   21.5040 C   0  0  0  0  0  2  0  0  0  0  0  0
  -18.1480  -26.7700   22.1480 C   0  0  0  0  0  2  0  0  0  0  0  0
  -19.1120  -28.8470   23.3000 C   0  0  0  0  0  0  0  0  0  0  0  0
  -18.9040  -30.0950   23.9240 C   0  0  0  0  0  3  0  0  0  0  0  0
  -17.6040  -30.6040   24.1030 C   0  0  0  0  0  3  0  0  0  0  0  0
  -16.4920  -29.8600   23.6700 C   0  0  0  0  0  3  0  0  0  0  0  0
  -16.6850  -28.6130   23.0520 C   0  0  0  0  0  3  0  0  0  0  0  0
  -25.7970  -32.5080   23.9270 C   0  0  0  0  0  3  0  0  0  0  0  0
  -25.4570  -33.9090   24.2350 N   0  0  0  0  0  0  0  0  0  0  0  0
  -25.8500  -34.9690   23.5160 C   0  0  0  0  0  0  0  0  0  0  0  0
  -26.6010  -34.8720   22.5420 O   0  0  0  0  0  0  0  0  0  0  0  0
  -24.7990  -34.0580   24.9860 H   0  0  0  0  0  0  0  0  0  0  0  0
  -24.2090  -36.8110   23.0060 C   0  0  0  0  0  1  0  0  0  0  0  0
  -25.3380  -36.3600   23.9480 C   0  0  0  0  0  3  0  0  0  0  0  0
  -27.3620  -37.1990   25.0600 C   0  0  0  0  0  1  0  0  0  0  0  0
  -26.3950  -37.3960   23.9830 N   0  0  0  0  0  0  0  0  0  0  0  0
  -25.9880  -38.3220   24.0860 H   0  0  0  0  0  0  0  0  0  0  0  0
  -26.2580  -31.7620   25.2400 C   0  0  1  0  0  0  0  0  0  0  0  0
  -25.1190  -31.5300   26.2610 C   0  0  0  0  0  1  0  0  0  0  0  0
  -26.8720  -30.3840   24.9050 C   0  0  0  0  0  1  0  0  0  0  0  0
  -27.3710  -32.5770   25.9400 C   0  0  0  0  0  1  0  0  0  0  0  0
  1  2  1  6
  1 51  1  0
  1 11  1  0
  3  1  1  0
  4  5  1  0
  5  3  1  0
  6  7  1  0
  6  4  1  0
  6  5  1  0
  7  9  1  0
  8  7  1  0
 10  7  1  0
 12 21  1  0
 12 11  1  0
 13 21  1  0
 14 19  1  0
 15 16  1  0
 15 14  1  0
 17 16  1  0
 17 26  1  0
 17 18  1  0
 19 13  1  0
 19 18  1  0
 20 13  2  0
 21 22  1  0
 23 24  2  0
 24 43  1  0
 25 24  1  0
 25 28  1  0
 26 23  1  0
 26 27  1  0
 27 25  2  0
 28 29  1  0
 29 30  2  0
 31 34  1  0
 31 30  1  0
 32 31  2  0
 33 32  1  0
 33 28  2  0
 34 35  1  0
 35 40  2  0
 35 36  1  0
 36 37  2  0
 37 38  1  0
 38 42  1  0
 39 38  2  0
 40 39  1  0
 41 40  1  0
 43 44  1  0
 44 47  1  0
 44 46  1  0
 45 43  2  0
 48 49  1  0
 48 23  1  0
 50 48  1  0
 52 53  1  0
 52 51  2  0
 54 65  2  0
 55 53  1  0
 55 60  1  0
 56 64  1  0
 56 66  1  0
 57 63  1  0
 57 59  1  0
 58 64  1  0
 59 60  2  0
 59 58  1  0
 61 55  2  0
 62 61  1  0
 62 57  2  0
 63 56  1  0
 64 54  1  0
 66 68  2  0
 67 66  1  0
 69 67  1  0
 70 79  2  0
 70 75  1  0
 71 67  1  0
 71 75  1  0
 72 71  1  0
 73 74  1  0
 73 72  1  0
 74 70  1  0
 75 76  2  0
 76 77  1  0
 78 77  2  0
 79 78  1  0
 80 54  1  0
 80 81  1  0
 80 90  1  0
 81 84  1  0
 82 86  1  0
 82 81  1  0
 83 82  2  0
 86 85  1  0
 86 88  1  0
 88 89  1  0
 88 87  1  0
 90 93  1  1
 90 91  1  0
 92 90  1  0
M  ISO  4  13 100  21 100  52 101  53 101
M  END
>  <TORSDO>  (52) 
F 23

>  <SCORE>  (52) 
-14.894

>  <name>  (52) 
51

>  <ligand_id>  (52) 
51

>  <original_smiles>  (52) 
[H]c1c([H])c([H])c2c(c1[H])C([H])([H])C([H])([H])C([H])([H])C2([H])N([H])C(=O)C1([H])N(C(=O)C([H])(N([H])C(=O)C([H])(N([H])C([H])([H])[H])C([H])([H])[H])C(C([H])([H])[H])(C([H])([H])[H])C([H])([H])[H])C([H])([H])c2c([H])c(OC([H])([H])C([H])([H])[N+]([H])(C([H])([H])C([H])([H])N([H])C(=O)N3C([H])([H])C([H])([H])C([H])([H])C([H])(n4nc(-c5c([H])c([H])c(Oc6c([H])c([H])c(F)c([H])c6F)c([H])c5[H])c(C(=O)N([H])[H])c4N([H])[H])C3([H])[H])C([H])([H])C3([H])C([H])([H])C3([H])[N+]([H])([H])[H])c([H])c([H])c2C1([H])[H]

>  <smiles>  (52) 
[H]c1c([H])c([H])c2c(c1[H])C([H])([H])C([H])([H])C([H])([H])C2([H])N([H])C(=O)C1([H])N(C(=O)C([H])(N([H])C(=O)C([H])(N([H])C([H])([H])[H])C([H])([H])[H])C(C([H])([H])[H])(C([H])([H])[H])C([H])([H])[H])C([H])([H])c2c([H])c(OC([H])([H])C([H])([H])[N+]([H])(C([H])([H])C([H])([H])N([H])C(=O)N3C([H])([H])C([H])([H])C([H])([H])C([H])(n4nc(-c5c([H])c([H])c(Oc6c([H])c([H])c(F)c([H])c6F)c([H])c5[H])c(C(=O)N([H])[H])c4N([H])[H])C3([H])[H])C([H])([H])C3([H])C([H])([H])C3([H])[N+]([H])([H])[H])c([H])c([H])c2C1([H])[H]

$$$$
52:0:0
     RDKit          3D

 95103  0  0  1  0  0  0  0  0999 V2000
  -29.6170  -23.8990   17.3300 C   0  0  0  0  0  3  0  0  0  0  0  0
  -29.1170  -25.0010   18.0590 C   0  0  0  0  0  3  0  0  0  0  0  0
  -28.6400  -23.4570   19.8580 C   0  0  0  0  0  3  0  0  0  0  0  0
  -29.6270  -22.5690   17.8190 C   0  0  0  0  0  0  0  0  0  0  0  0
  -29.1150  -22.2380   19.1050 C   0  0  0  0  0  0  0  0  0  0  0  0
  -28.6100  -24.8750   19.3630 C   0  0  0  0  0  0  0  0  0  0  0  0
  -30.1700  -21.4950   16.8890 C   0  0  0  0  0  1  0  0  0  0  0  0
  -28.3440  -26.1600   20.0420 O   0  0  0  0  0  0  0  0  0  0  0  0
  -24.3900  -31.5620   23.0880 C   0  0  0  0  0  0  0  0  0  0  0  0
  -27.2670  -27.1170   19.8930 C   0  0  0  0  0  0  0  0  0  0  0  0
  -23.3200  -30.2520   21.2920 C   0  0  0  0  0  3  0  0  0  0  0  0
  -24.8900  -28.8090   19.8410 C   0  0  0  0  0  0  0  0  0  0  0  0
  -25.8680  -30.5860   21.2910 C   0  0  0  0  0  2  0  0  0  0  0  0
  -26.0160  -29.2420   20.5490 C   0  0  0  0  0  0  0  0  0  0  0  0
  -27.1990  -28.4110   20.5630 C   0  0  0  0  0  3  0  0  0  0  0  0
  -26.1180  -26.7900   19.1450 C   0  0  0  0  0  3  0  0  0  0  0  0
  -24.9540  -27.5990   19.1250 C   0  0  0  0  0  3  0  0  0  0  0  0
  -23.6340  -29.6720   19.8850 C   0  0  0  0  0  2  0  0  0  0  0  0
  -24.5420  -30.8200   21.9480 N   0  0  0  0  0  0  0  0  0  0  0  0
  -23.2690  -31.7850   23.5730 O   0  0  0  0  0  0  0  0  0  0  0  0
  -22.6150  -29.1710   22.1490 C   0  0  0  0  0  0  0  0  0  0  0  0
  -21.2800  -29.0660   22.0300 N   0  0  0  0  0  0  0  0  0  0  0  0
  -23.2730  -28.4290   22.8840 O   0  0  0  0  0  0  0  0  0  0  0  0
  -20.8050  -29.7140   21.4170 H   0  0  0  0  0  0  0  0  0  0  0  0
  -17.8530  -28.0100   22.5460 C   0  0  0  0  0  0  0  0  0  0  0  0
  -20.4330  -28.0770   22.7040 C   0  0  0  0  0  3  0  0  0  0  0  0
  -20.4110  -26.7420   21.9250 C   0  0  0  0  0  2  0  0  0  0  0  0
  -19.2440  -26.6390   20.9380 C   0  0  0  0  0  2  0  0  0  0  0  0
  -17.9070  -26.7680   21.6720 C   0  0  0  0  0  2  0  0  0  0  0  0
  -19.0390  -28.6340   23.0170 C   0  0  0  0  0  0  0  0  0  0  0  0
  -18.9330  -29.8030   23.8000 C   0  0  0  0  0  3  0  0  0  0  0  0
  -17.6740  -30.3490   24.1120 C   0  0  0  0  0  3  0  0  0  0  0  0
  -16.5020  -29.7210   23.6550 C   0  0  0  0  0  3  0  0  0  0  0  0
  -16.5920  -28.5510   22.8790 C   0  0  0  0  0  3  0  0  0  0  0  0
  -25.6140  -32.1840   23.8280 C   0  0  0  0  0  3  0  0  0  0  0  0
  -25.2970  -33.5920   24.1190 N   0  0  0  0  0  0  0  0  0  0  0  0
  -25.6770  -34.6330   23.3660 C   0  0  0  0  0  0  0  0  0  0  0  0
  -26.3980  -34.5080   22.3730 O   0  0  0  0  0  0  0  0  0  0  0  0
  -24.6640  -33.7620   24.8870 H   0  0  0  0  0  0  0  0  0  0  0  0
  -23.9660  -36.4250   22.9250 C   0  0  0  0  0  1  0  0  0  0  0  0
  -25.1830  -36.0340   23.7800 C   0  0  0  0  0  3  0  0  0  0  0  0
  -27.2850  -36.9470   24.6650 C   0  0  0  0  0  1  0  0  0  0  0  0
  -26.2220  -37.0820   23.6710 N   0  0  0  0  0  0  0  0  0  0  0  0
  -25.8120  -38.0080   23.7710 H   0  0  0  0  0  0  0  0  0  0  0  0
  -25.9840  -31.4220   25.1610 C   0  0  1  0  0  0  0  0  0  0  0  0
  -24.7880  -31.2310   26.1230 C   0  0  0  0  0  1  0  0  0  0  0  0
  -26.5660  -30.0230   24.8520 C   0  0  0  0  0  1  0  0  0  0  0  0
  -27.0860  -32.1980   25.9200 C   0  0  0  0  0  1  0  0  0  0  0  0
  -28.9190  -20.5960   19.4310 C   0  0  0  0  0  3  0  0  0  0  0  0
  -30.0520  -19.4090   19.9480 C   0  0  0  0  0  2  0  0  0  0  0  0
  -30.2530  -17.8020   19.3810 C   0  0  0  0  0  2  0  0  0  0  0  0
  -31.0440  -15.1710   19.9840 C   0  0  0  0  0  0  0  0  0  0  0  0
  -30.8600  -12.7380   19.2630 C   0  0  0  0  0  2  0  0  0  0  0  0
  -29.9120  -12.6270   18.0440 C   0  0  0  0  0  2  0  0  0  0  0  0
  -28.4490  -12.4900   18.5060 C   0  0  0  0  0  2  0  0  0  0  0  0
  -28.0880  -13.5090   19.6180 C   0  0  0  0  0  3  0  0  0  0  0  0
  -29.1580  -13.5780   20.7310 C   0  0  0  0  0  2  0  0  0  0  0  0
  -30.4330  -13.9140   20.0850 N   0  0  0  0  0  0  0  0  0  0  0  0
  -32.2140  -15.1800   19.5840 O   0  0  0  0  0  0  0  0  0  0  0  0
  -30.3030  -16.3900   20.1420 N   0  0  0  0  0  0  0  0  0  0  0  0
  -29.4360  -16.2040   20.6250 H   0  0  0  0  0  0  0  0  0  0  0  0
  -25.8000  -14.2300   20.5040 C   0  0  0  0  0  0  0  0  0  0  0  0
  -24.6860  -13.5240   20.8660 C   0  0  0  0  0  0  0  0  0  0  0  0
  -25.0250  -12.1450   20.7130 C   0  0  0  0  0  0  0  0  0  0  0  0
  -26.7490  -13.2860   20.1510 N   0  0  0  0  0  0  0  0  0  0  0  0
  -26.2940  -12.0200   20.3410 N   0  0  0  0  0  0  0  0  0  0  0  0
  -24.1940  -10.9390   20.8420 C   0  0  0  0  0  0  0  0  0  0  0  0
  -24.5880   -9.8520   21.6510 C   0  0  0  0  0  3  0  0  0  0  0  0
  -23.7600   -8.7150   21.7750 C   0  0  0  0  0  3  0  0  0  0  0  0
  -22.5230   -8.6590   21.0910 C   0  0  0  0  0  0  0  0  0  0  0  0
  -22.1460   -9.7340   20.2680 C   0  0  0  0  0  3  0  0  0  0  0  0
  -22.9740  -10.8620   20.1400 C   0  0  0  0  0  3  0  0  0  0  0  0
  -21.6670   -7.5850   21.1310 O   0  0  0  0  0  0  0  0  0  0  0  0
  -21.5690   -6.7840   22.2410 C   0  0  0  0  0  0  0  0  0  0  0  0
  -21.1860   -7.2980   23.4990 C   0  0  0  0  0  3  0  0  0  0  0  0
  -21.0290   -6.4290   24.5970 C   0  0  0  0  0  3  0  0  0  0  0  0
  -21.2450   -5.0480   24.4380 C   0  0  0  0  0  0  0  0  0  0  0  0
  -21.6210   -4.5330   23.1850 C   0  0  0  0  0  3  0  0  0  0  0  0
  -21.7790   -5.3990   22.0890 C   0  0  0  0  0  0  0  0  0  0  0  0
  -22.1210   -4.8940   20.8790 F   0  0  0  0  0  0  0  0  0  0  0  0
  -21.0870   -4.2110   25.4900 F   0  0  0  0  0  0  0  0  0  0  0  0
  -23.3500  -14.0990   21.2340 C   0  0  0  0  0  0  0  0  0  0  0  0
  -22.6180  -13.4310   22.1180 N   0  0  0  0  0  0  0  0  0  0  0  0
  -22.9700  -15.1770   20.7760 O   0  0  0  0  0  0  0  0  0  0  0  0
  -22.9400  -12.5590   22.5090 H   0  0  0  0  0  0  0  0  0  0  0  0
  -21.7220  -13.7980   22.4080 H   0  0  0  0  0  0  0  0  0  0  0  0
  -26.0800  -15.5910   20.4210 N   0  0  0  0  0  0  0  0  0  0  0  0
  -25.3730  -16.2960   20.6060 H   0  0  0  0  0  0  0  0  0  0  0  0
  -26.9380  -15.9780   20.0500 H   0  0  0  0  0  0  0  0  0  0  0  0
  -27.5820  -20.3620   20.1810 C   0  0  0  0  0  2  0  0  0  0  0  0
  -26.2960  -20.6480   19.3650 C   0  0  0  0  0  2  0  0  0  0  0  0
  -26.0190  -22.0800   19.1600 N   0  0  0  0  0  4  0  0  0  0  0  0
  -25.8350  -22.5380   20.0360 H   0  0  0  0  0  0  0  0  0  0  0  0
  -25.2040  -22.1870   18.5800 H   0  0  0  0  0  0  0  0  0  0  0  0
  -26.7920  -22.5340   18.7030 H   0  0  0  0  0  0  0  0  0  0  0  0
  1  4  2  0
  1  2  1  0
  2  6  2  0
  4  5  1  0
  5 49  1  0
  5  3  2  0
  6  3  1  0
  6  8  1  0
  7  4  1  0
  9 20  2  0
 10  8  1  0
 10 15  1  0
 11 19  1  0
 11 21  1  0
 12 18  1  0
 12 14  1  0
 13 19  1  0
 14 15  2  0
 14 13  1  0
 16 10  2  0
 17 16  1  0
 17 12  2  0
 18 11  1  0
 19  9  1  0
 21 23  2  0
 22 21  1  0
 24 22  1  0
 25 34  2  0
 25 30  1  0
 26 22  1  0
 26 30  1  0
 27 26  1  0
 28 29  1  0
 28 27  1  0
 29 25  1  0
 30 31  2  0
 31 32  1  0
 33 32  2  0
 34 33  1  0
 35  9  1  0
 35 36  1  0
 35 45  1  0
 36 39  1  0
 37 41  1  0
 37 36  1  0
 38 37  2  0
 41 40  1  0
 43 44  1  0
 43 41  1  0
 43 42  1  0
 45 48  1  1
 45 46  1  0
 47 45  1  0
 49 50  1  0
 49 90  1  0
 51 50  1  0
 51 60  1  0
 52 58  1  0
 52 60  1  0
 53 58  1  0
 54 55  1  0
 54 53  1  0
 56 55  1  0
 56 65  1  0
 56 57  1  0
 58 57  1  0
 59 52  2  0
 60 61  1  0
 62 63  2  0
 63 82  1  0
 64 67  1  0
 64 63  1  0
 65 66  1  0
 65 62  1  0
 66 64  2  0
 67 68  1  0
 68 69  2  0
 70 73  1  0
 70 69  1  0
 71 70  2  0
 72 71  1  0
 72 67  2  0
 73 74  1  0
 74 75  1  0
 75 76  2  0
 77 76  1  0
 77 81  1  0
 78 77  2  0
 79 74  2  0
 79 78  1  0
 80 79  1  0
 82 83  1  0
 83 86  1  0
 83 85  1  0
 84 82  2  0
 87 62  1  0
 87 88  1  0
 89 87  1  0
 91 90  1  0
 92 91  1  0
 92 93  1  0
 94 92  1  0
 95 92  1  0
M  ISO  4   6 101   8 101  52 100  60 100
M  END
>  <TORSDO>  (53) 
F 22

>  <SCORE>  (53) 
-12.222

>  <name>  (53) 
52

>  <ligand_id>  (53) 
52

>  <original_smiles>  (53) 
[H]c1c([H])c([H])c2c(c1[H])C([H])([H])C([H])([H])C([H])([H])C2([H])N([H])C(=O)C1([H])N(C(=O)C([H])(N([H])C(=O)C([H])(N([H])C([H])([H])[H])C([H])([H])[H])C(C([H])([H])[H])(C([H])([H])[H])C([H])([H])[H])C([H])([H])c2c([H])c(Oc3c([H])c([H])c(C([H])([H])[H])c(C([H])(C([H])([H])C([H])([H])N([H])C(=O)N4C([H])([H])C([H])([H])C([H])([H])C([H])(n5nc(-c6c([H])c([H])c(Oc7c([H])c([H])c(F)c([H])c7F)c([H])c6[H])c(C(=O)N([H])[H])c5N([H])[H])C4([H])[H])C([H])([H])C([H])([H])[N+]([H])([H])[H])c3[H])c([H])c([H])c2C1([H])[H]

>  <smiles>  (53) 
[H]c1c([H])c([H])c2c(c1[H])C([H])([H])C([H])([H])C([H])([H])C2([H])N([H])C(=O)C1([H])N(C(=O)C([H])(N([H])C(=O)C([H])(N([H])C([H])([H])[H])C([H])([H])[H])C(C([H])([H])[H])(C([H])([H])[H])C([H])([H])[H])C([H])([H])c2c([H])c(Oc3c([H])c([H])c(C([H])([H])[H])c(C([H])(C([H])([H])C([H])([H])N([H])C(=O)N4C([H])([H])C([H])([H])C([H])([H])C([H])(n5nc(-c6c([H])c([H])c(Oc7c([H])c([H])c(F)c([H])c7F)c([H])c6[H])c(C(=O)N([H])[H])c5N([H])[H])C4([H])[H])C([H])([H])C([H])([H])[N+]([H])([H])[H])c3[H])c([H])c([H])c2C1([H])[H]

$$$$
54:0:0
     RDKit          3D

 94102  0  0  1  0  0  0  0  0999 V2000
  -29.2850  -21.7060   19.5390 C   0  0  0  0  0  2  0  0  0  0  0  0
  -29.1370  -22.8720   20.4650 N   0  0  0  0  0  4  0  0  0  0  0  0
  -28.6320  -22.5670   21.2840 H   0  0  0  0  0  0  0  0  0  0  0  0
  -30.0710  -23.1180   20.7580 H   0  0  0  0  0  0  0  0  0  0  0  0
  -28.4840  -24.0980   19.8790 C   0  0  0  0  0  2  0  0  0  0  0  0
  -28.4200  -25.3340   20.8390 C   0  0  0  0  0  2  0  0  0  0  0  0
  -28.4410  -26.6340   20.1940 O   0  0  0  0  0  0  0  0  0  0  0  0
  -24.6110  -31.8610   23.2330 C   0  0  0  0  0  0  0  0  0  0  0  0
  -27.2740  -27.3760   20.2120 C   0  0  0  0  0  0  0  0  0  0  0  0
  -23.4150  -30.4440   21.5930 C   0  0  0  0  0  3  0  0  0  0  0  0
  -24.8810  -28.8970   20.1870 C   0  0  0  0  0  0  0  0  0  0  0  0
  -25.9410  -30.8060   21.4020 C   0  0  0  0  0  2  0  0  0  0  0  0
  -26.0360  -29.4250   20.7780 C   0  0  0  0  0  0  0  0  0  0  0  0
  -27.2380  -28.6750   20.7820 C   0  0  0  0  0  3  0  0  0  0  0  0
  -26.1020  -26.8660   19.6150 C   0  0  0  0  0  3  0  0  0  0  0  0
  -24.9110  -27.6200   19.5990 C   0  0  0  0  0  3  0  0  0  0  0  0
  -23.6360  -29.7550   20.2190 C   0  0  0  0  0  2  0  0  0  0  0  0
  -24.6740  -31.0540   22.1350 N   0  0  0  0  0  0  0  0  0  0  0  0
  -23.5270  -32.1340   23.7650 O   0  0  0  0  0  0  0  0  0  0  0  0
  -22.7600  -29.4300   22.5570 C   0  0  0  0  0  0  0  0  0  0  0  0
  -21.4350  -29.2570   22.4370 N   0  0  0  0  0  0  0  0  0  0  0  0
  -23.4440  -28.8000   23.3700 O   0  0  0  0  0  0  0  0  0  0  0  0
  -20.9430  -29.8230   21.7580 H   0  0  0  0  0  0  0  0  0  0  0  0
  -18.0550  -28.0860   22.9450 C   0  0  0  0  0  0  0  0  0  0  0  0
  -20.6150  -28.3230   23.2080 C   0  0  0  0  0  3  0  0  0  0  0  0
  -20.7050  -26.8910   22.6310 C   0  0  0  0  0  2  0  0  0  0  0  0
  -19.5970  -26.5800   21.6190 C   0  0  0  0  0  2  0  0  0  0  0  0
  -18.2180  -26.7350   22.2680 C   0  0  0  0  0  2  0  0  0  0  0  0
  -19.1810  -28.8370   23.3730 C   0  0  0  0  0  0  0  0  0  0  0  0
  -18.9740  -30.1020   23.9660 C   0  0  0  0  0  3  0  0  0  0  0  0
  -17.6760  -30.6170   24.1320 C   0  0  0  0  0  3  0  0  0  0  0  0
  -16.5630  -29.8600   23.7230 C   0  0  0  0  0  3  0  0  0  0  0  0
  -16.7530  -28.5960   23.1380 C   0  0  0  0  0  3  0  0  0  0  0  0
  -25.8930  -32.5000   23.8550 C   0  0  0  0  0  3  0  0  0  0  0  0
  -25.5790  -33.8970   24.1870 N   0  0  0  0  0  0  0  0  0  0  0  0
  -25.9030  -34.9490   23.4240 C   0  0  0  0  0  0  0  0  0  0  0  0
  -26.5690  -34.8470   22.3900 O   0  0  0  0  0  0  0  0  0  0  0  0
  -24.9920  -34.0510   24.9920 H   0  0  0  0  0  0  0  0  0  0  0  0
  -24.1610  -36.7260   23.0740 C   0  0  0  0  0  1  0  0  0  0  0  0
  -25.4070  -36.3340   23.8820 C   0  0  0  0  0  3  0  0  0  0  0  0
  -27.5390  -37.2330   24.7040 C   0  0  0  0  0  1  0  0  0  0  0  0
  -26.4320  -37.3940   23.7650 N   0  0  0  0  0  0  0  0  0  0  0  0
  -26.0200  -38.3110   23.9190 H   0  0  0  0  0  0  0  0  0  0  0  0
  -26.4170  -31.7310   25.1300 C   0  0  1  0  0  0  0  0  0  0  0  0
  -25.3280  -31.4860   26.1990 C   0  0  0  0  0  1  0  0  0  0  0  0
  -27.0050  -30.3580   24.7280 C   0  0  0  0  0  1  0  0  0  0  0  0
  -27.5630  -32.5300   25.7930 C   0  0  0  0  0  1  0  0  0  0  0  0
  -30.4020  -20.6540   19.9100 C   0  0  0  0  0  3  0  0  0  0  0  0
  -30.8650  -19.0000   21.9740 C   0  0  0  0  0  2  0  0  0  0  0  0
  -30.6870  -17.4840   22.2410 C   0  0  0  0  0  2  0  0  0  0  0  0
  -30.0090  -18.0070   19.9540 C   0  0  0  0  0  2  0  0  0  0  0  0
  -30.0070  -19.3610   20.7330 C   0  0  0  0  0  3  0  0  0  0  0  0
  -29.8450  -16.9550   21.0760 C   0  0  0  0  0  3  0  0  0  0  0  0
  -30.7440  -14.5760   20.2500 C   0  0  0  0  0  0  0  0  0  0  0  0
  -30.5090  -12.4210   19.0310 C   0  0  0  0  0  2  0  0  0  0  0  0
  -29.5100  -12.6350   17.8700 C   0  0  0  0  0  2  0  0  0  0  0  0
  -28.0480  -12.4760   18.3470 C   0  0  0  0  0  2  0  0  0  0  0  0
  -27.7580  -13.2700   19.6470 C   0  0  0  0  0  3  0  0  0  0  0  0
  -28.8500  -12.9820   20.7020 C   0  0  0  0  0  2  0  0  0  0  0  0
  -30.1480  -13.3550   20.1080 N   0  0  0  0  0  0  0  0  0  0  0  0
  -31.8540  -14.8410   19.7770 O   0  0  0  0  0  0  0  0  0  0  0  0
  -29.9130  -15.4920   20.8120 N   0  0  0  0  0  0  0  0  0  0  0  0
  -29.0660  -15.0270   21.1070 H   0  0  0  0  0  0  0  0  0  0  0  0
  -25.3880  -13.8960   20.4370 C   0  0  0  0  0  0  0  0  0  0  0  0
  -24.3230  -13.1290   20.8310 C   0  0  0  0  0  0  0  0  0  0  0  0
  -24.7710  -11.7730   20.7680 C   0  0  0  0  0  0  0  0  0  0  0  0
  -26.4140  -13.0070   20.1580 N   0  0  0  0  0  0  0  0  0  0  0  0
  -26.0490  -11.7250   20.4160 N   0  0  0  0  0  0  0  0  0  0  0  0
  -24.0420  -10.5140   20.9660 C   0  0  0  0  0  0  0  0  0  0  0  0
  -24.4820   -9.5450   21.8950 C   0  0  0  0  0  3  0  0  0  0  0  0
  -23.7540   -8.3500   22.0810 C   0  0  0  0  0  3  0  0  0  0  0  0
  -22.5750   -8.1150   21.3360 C   0  0  0  0  0  0  0  0  0  0  0  0
  -22.1540   -9.0740   20.3960 C   0  0  0  0  0  3  0  0  0  0  0  0
  -22.8810  -10.2610   20.2080 C   0  0  0  0  0  3  0  0  0  0  0  0
  -21.8190   -6.9710   21.4290 O   0  0  0  0  0  0  0  0  0  0  0  0
  -21.7550   -6.2450   22.5900 C   0  0  0  0  0  0  0  0  0  0  0  0
  -21.3100   -6.8160   23.8020 C   0  0  0  0  0  3  0  0  0  0  0  0
  -21.1930   -6.0150   24.9570 C   0  0  0  0  0  3  0  0  0  0  0  0
  -21.5100   -4.6450   24.8980 C   0  0  0  0  0  0  0  0  0  0  0  0
  -21.9470   -4.0730   23.6910 C   0  0  0  0  0  3  0  0  0  0  0  0
  -22.0670   -4.8710   22.5390 C   0  0  0  0  0  0  0  0  0  0  0  0
  -22.4700   -4.3110   21.3730 F   0  0  0  0  0  0  0  0  0  0  0  0
  -21.3910   -3.8730   26.0040 F   0  0  0  0  0  0  0  0  0  0  0  0
  -22.9400  -13.6160   21.1540 C   0  0  0  0  0  0  0  0  0  0  0  0
  -22.2320  -12.9150   22.0340 N   0  0  0  0  0  0  0  0  0  0  0  0
  -22.4940  -14.6500   20.6600 O   0  0  0  0  0  0  0  0  0  0  0  0
  -22.6060  -12.0790   22.4580 H   0  0  0  0  0  0  0  0  0  0  0  0
  -21.3050  -13.2230   22.2890 H   0  0  0  0  0  0  0  0  0  0  0  0
  -25.5600  -15.2670   20.2720 N   0  0  0  0  0  0  0  0  0  0  0  0
  -24.8010  -15.9260   20.4110 H   0  0  0  0  0  0  0  0  0  0  0  0
  -26.3910  -15.7010   19.8920 H   0  0  0  0  0  0  0  0  0  0  0  0
  -31.5980  -21.3190   20.4250 N   0  0  0  0  0  0  0  0  0  0  0  0
  -31.4850  -21.7000   21.3570 H   0  0  0  0  0  0  0  0  0  0  0  0
  -31.9070  -22.0780   19.8240 H   0  0  0  0  0  0  0  0  0  0  0  0
  1  2  1  0
  2  4  1  0
  2  3  1  0
  5  2  1  0
  5  6  1  0
  7  9  1  0
  7  6  1  0
  8 19  2  0
  9 14  1  0
 10 18  1  0
 10 20  1  0
 11 17  1  0
 11 13  1  0
 12 18  1  0
 13 14  2  0
 13 12  1  0
 15  9  2  0
 16 15  1  0
 16 11  2  0
 17 10  1  0
 18  8  1  0
 20 22  2  0
 21 20  1  0
 23 21  1  0
 24 33  2  0
 24 29  1  0
 25 21  1  0
 25 29  1  0
 26 25  1  0
 27 28  1  0
 27 26  1  0
 28 24  1  0
 29 30  2  0
 30 31  1  0
 32 31  2  0
 33 32  1  0
 34  8  1  0
 34 35  1  0
 34 44  1  0
 35 38  1  0
 36 40  1  0
 36 35  1  0
 37 36  2  0
 40 39  1  0
 42 40  1  0
 42 43  1  0
 42 41  1  0
 44 47  1  1
 44 45  1  0
 46 44  1  0
 48  1  1  0
 48 92  1  0
 49 50  1  0
 51 52  1  0
 51 53  1  0
 52 48  1  0
 52 49  1  0
 53 62  1  0
 53 50  1  0
 54 62  1  0
 55 60  1  0
 56 57  1  0
 56 55  1  0
 58 57  1  0
 58 67  1  0
 58 59  1  0
 60 54  1  0
 60 59  1  0
 61 54  2  0
 62 63  1  0
 64 65  2  0
 65 84  1  0
 66 65  1  0
 66 69  1  0
 67 68  1  0
 67 64  1  0
 68 66  2  0
 69 70  1  0
 70 71  2  0
 72 75  1  0
 72 71  1  0
 73 72  2  0
 74 73  1  0
 74 69  2  0
 75 76  1  0
 76 77  1  0
 77 78  2  0
 79 78  1  0
 79 83  1  0
 80 79  2  0
 81 76  2  0
 81 80  1  0
 82 81  1  0
 84 85  1  0
 85 88  1  0
 85 87  1  0
 86 84  2  0
 89 90  1  0
 89 64  1  0
 91 89  1  0
 92 93  1  0
 94 92  1  0
M  ISO  4   6 101   7 101  54 100  62 100
M  END
>  <TORSDO>  (54) 
F 22

>  <SCORE>  (54) 
-13.263

>  <name>  (54) 
54

>  <ligand_id>  (54) 
54

>  <original_smiles>  (54) 
[H]c1c([H])c([H])c2c(c1[H])C([H])([H])C([H])([H])C([H])([H])C2([H])N([H])C(=O)C1([H])N(C(=O)C([H])(N([H])C(=O)C([H])(N([H])C([H])([H])[H])C([H])([H])[H])C(C([H])([H])[H])(C([H])([H])[H])C([H])([H])[H])C([H])([H])c2c([H])c(OC([H])([H])C([H])([H])[N+]([H])([H])C([H])([H])C([H])(N([H])[H])C3([H])C([H])([H])C([H])([H])C([H])(N([H])C(=O)N4C([H])([H])C([H])([H])C([H])([H])C([H])(n5nc(-c6c([H])c([H])c(Oc7c([H])c([H])c(F)c([H])c7F)c([H])c6[H])c(C(=O)N([H])[H])c5N([H])[H])C4([H])[H])C3([H])[H])c([H])c([H])c2C1([H])[H]

>  <smiles>  (54) 
[H]c1c([H])c([H])c2c(c1[H])C([H])([H])C([H])([H])C([H])([H])C2([H])N([H])C(=O)C1([H])N(C(=O)C([H])(N([H])C(=O)C([H])(N([H])C([H])([H])[H])C([H])([H])[H])C(C([H])([H])[H])(C([H])([H])[H])C([H])([H])[H])C([H])([H])c2c([H])c(OC([H])([H])C([H])([H])[N+]([H])([H])C([H])([H])C([H])(N([H])[H])C3([H])C([H])([H])C([H])([H])C([H])(N([H])C(=O)N4C([H])([H])C([H])([H])C([H])([H])C([H])(n5nc(-c6c([H])c([H])c(Oc7c([H])c([H])c(F)c([H])c7F)c([H])c6[H])c(C(=O)N([H])[H])c5N([H])[H])C4([H])[H])C3([H])[H])c([H])c([H])c2C1([H])[H]

$$$$
55:0:0
     RDKit          3D

 95106  0  0  1  0  0  0  0  0999 V2000
  -30.0480  -20.3880   21.2500 C   0  0  0  0  0  2  0  0  0  0  0  0
  -27.6100  -19.9330   20.7680 C   0  0  0  0  0  2  0  0  0  0  0  0
  -29.9520  -19.8310   19.8270 C   0  0  0  0  0  3  0  0  0  0  0  0
  -28.6120  -20.9100   21.4030 C   0  0  1  0  0  0  0  0  0  0  0  0
  -28.5040  -20.3500   19.5850 C   0  0  1  0  0  0  0  0  0  0  0  0
  -28.2360  -21.6850   20.2100 N   0  0  2  0  0  4  0  0  0  0  0  0
  -27.2400  -21.8440   20.1970 H   0  0  0  0  0  0  0  0  0  0  0  0
  -30.0810  -18.2600   19.6320 C   0  0  0  0  0  0  0  0  0  0  0  0
  -29.2050  -17.7120   18.9530 O   0  0  0  0  0  0  0  0  0  0  0  0
  -31.7070  -14.9220   20.0040 C   0  0  0  0  0  0  0  0  0  0  0  0
  -31.4280  -12.5960   19.1660 C   0  0  0  0  0  2  0  0  0  0  0  0
  -30.4710  -12.5880   17.9540 C   0  0  0  0  0  2  0  0  0  0  0  0
  -28.9990  -12.5100   18.4140 C   0  0  0  0  0  2  0  0  0  0  0  0
  -28.6720  -13.5500   19.5150 C   0  0  0  0  0  3  0  0  0  0  0  0
  -29.7230  -13.4730   20.6390 C   0  0  0  0  0  2  0  0  0  0  0  0
  -31.0440  -13.7230   20.0350 N   0  0  0  0  0  0  0  0  0  0  0  0
  -32.8050  -15.0420   19.4500 O   0  0  0  0  0  0  0  0  0  0  0  0
  -31.4520  -17.5770   21.7510 C   0  0  0  0  0  2  0  0  0  0  0  0
  -30.8310  -16.2050   21.9040 C   0  0  0  0  0  2  0  0  0  0  0  0
  -31.2710  -17.4740   20.2330 C   0  0  0  0  0  3  0  0  0  0  0  0
  -31.0150  -16.0050   20.4620 N   0  0  0  0  0  0  0  0  0  0  0  0
  -26.3860  -14.3560   20.3780 C   0  0  0  0  0  0  0  0  0  0  0  0
  -25.2620  -13.6740   20.7580 C   0  0  0  0  0  0  0  0  0  0  0  0
  -25.5810  -12.2850   20.6350 C   0  0  0  0  0  0  0  0  0  0  0  0
  -27.3220  -13.3870   20.0430 N   0  0  0  0  0  0  0  0  0  0  0  0
  -26.8440  -12.1360   20.2590 N   0  0  0  0  0  0  0  0  0  0  0  0
  -24.7410  -11.0910   20.7960 C   0  0  0  0  0  0  0  0  0  0  0  0
  -25.0910  -10.0580   21.6930 C   0  0  0  0  0  3  0  0  0  0  0  0
  -24.2600   -8.9260   21.8400 C   0  0  0  0  0  3  0  0  0  0  0  0
  -23.0640   -8.8210   21.0920 C   0  0  0  0  0  0  0  0  0  0  0  0
  -22.7320   -9.8430   20.1850 C   0  0  0  0  0  3  0  0  0  0  0  0
  -23.5620  -10.9640   20.0350 C   0  0  0  0  0  3  0  0  0  0  0  0
  -22.2090   -7.7450   21.1520 O   0  0  0  0  0  0  0  0  0  0  0  0
  -22.0090   -7.0480   22.3160 C   0  0  0  0  0  0  0  0  0  0  0  0
  -21.5160   -7.6760   23.4830 C   0  0  0  0  0  3  0  0  0  0  0  0
  -21.2540   -6.9080   24.6360 C   0  0  0  0  0  3  0  0  0  0  0  0
  -21.4730   -5.5180   24.6220 C   0  0  0  0  0  0  0  0  0  0  0  0
  -21.9600   -4.8920   23.4610 C   0  0  0  0  0  3  0  0  0  0  0  0
  -22.2250   -5.6570   22.3100 C   0  0  0  0  0  0  0  0  0  0  0  0
  -22.6720   -5.0460   21.1860 F   0  0  0  0  0  0  0  0  0  0  0  0
  -21.2140   -4.7790   25.7270 F   0  0  0  0  0  0  0  0  0  0  0  0
  -23.9320  -14.2740   21.1150 C   0  0  0  0  0  0  0  0  0  0  0  0
  -23.1940  -13.6430   22.0190 N   0  0  0  0  0  0  0  0  0  0  0  0
  -23.5600  -15.3400   20.6260 O   0  0  0  0  0  0  0  0  0  0  0  0
  -23.5050  -12.7850   22.4490 H   0  0  0  0  0  0  0  0  0  0  0  0
  -22.3050  -14.0390   22.2930 H   0  0  0  0  0  0  0  0  0  0  0  0
  -26.6790  -15.7110   20.2690 N   0  0  0  0  0  0  0  0  0  0  0  0
  -25.9860  -16.4240   20.4680 H   0  0  0  0  0  0  0  0  0  0  0  0
  -27.5640  -16.1010   19.9590 H   0  0  0  0  0  0  0  0  0  0  0  0
  -28.9320  -22.9620   19.8400 C   0  0  0  0  0  2  0  0  0  0  0  0
  -28.5450  -24.5740   21.8220 C   0  0  0  0  0  1  0  0  0  0  0  0
  -26.6890  -24.2880   20.1680 C   0  0  0  0  0  1  0  0  0  0  0  0
  -28.2360  -24.3230   20.3240 C   0  0  2  0  0  0  0  0  0  0  0  0
  -28.8390  -25.5060   19.4510 C   0  0  0  0  0  2  0  0  0  0  0  0
  -28.7340  -26.8990   19.8690 O   0  0  0  0  0  0  0  0  0  0  0  0
  -24.5460  -31.6550   23.0590 C   0  0  0  0  0  0  0  0  0  0  0  0
  -27.5480  -27.6060   19.7630 C   0  0  0  0  0  0  0  0  0  0  0  0
  -23.4910  -30.3190   21.2670 C   0  0  0  0  0  3  0  0  0  0  0  0
  -25.0830  -29.0150   19.7640 C   0  0  0  0  0  0  0  0  0  0  0  0
  -26.0000  -30.8350   21.2090 C   0  0  0  0  0  2  0  0  0  0  0  0
  -26.1830  -29.5340   20.4580 C   0  0  0  0  0  0  0  0  0  0  0  0
  -27.4130  -28.8330   20.4580 C   0  0  0  0  0  3  0  0  0  0  0  0
  -26.4480  -27.1480   19.0050 C   0  0  0  0  0  3  0  0  0  0  0  0
  -25.2180  -27.8310   19.0230 C   0  0  0  0  0  3  0  0  0  0  0  0
  -23.7820  -29.7770   19.8450 C   0  0  0  0  0  2  0  0  0  0  0  0
  -24.6920  -30.9550   21.9010 N   0  0  0  0  0  0  0  0  0  0  0  0
  -23.4330  -31.8120   23.5800 O   0  0  0  0  0  0  0  0  0  0  0  0
  -22.8820  -29.1800   22.1160 C   0  0  0  0  0  0  0  0  0  0  0  0
  -21.5650  -28.9600   21.9670 N   0  0  0  0  0  0  0  0  0  0  0  0
  -23.5880  -28.5020   22.8660 O   0  0  0  0  0  0  0  0  0  0  0  0
  -21.0530  -29.5500   21.3260 H   0  0  0  0  0  0  0  0  0  0  0  0
  -18.2340  -27.6230   22.3600 C   0  0  0  0  0  0  0  0  0  0  0  0
  -20.7870  -27.9210   22.6420 C   0  0  0  0  0  3  0  0  0  0  0  0
  -20.9210  -26.5630   21.9130 C   0  0  0  0  0  2  0  0  0  0  0  0
  -19.8220  -26.3280   20.8730 C   0  0  0  0  0  2  0  0  0  0  0  0
  -18.4380  -26.3660   21.5310 C   0  0  0  0  0  2  0  0  0  0  0  0
  -19.3350  -28.3630   22.8650 C   0  0  0  0  0  0  0  0  0  0  0  0
  -19.0850  -29.5450   23.5960 C   0  0  0  0  0  3  0  0  0  0  0  0
  -17.7680  -29.9850   23.8300 C   0  0  0  0  0  3  0  0  0  0  0  0
  -16.6820  -29.2370   23.3450 C   0  0  0  0  0  3  0  0  0  0  0  0
  -16.9160  -28.0600   22.6110 C   0  0  0  0  0  3  0  0  0  0  0  0
  -25.7700  -32.3110   23.7710 C   0  0  0  0  0  3  0  0  0  0  0  0
  -26.2130  -31.5480   25.0790 C   0  0  1  0  0  0  0  0  0  0  0  0
  -25.0510  -31.3120   26.0730 C   0  0  0  0  0  1  0  0  0  0  0  0
  -26.8280  -30.1700   24.7380 C   0  0  0  0  0  1  0  0  0  0  0  0
  -27.3190  -32.3540   25.8020 C   0  0  0  0  0  1  0  0  0  0  0  0
  -25.4070  -33.7000   24.0860 N   0  0  0  0  0  0  0  0  0  0  0  0
  -25.7740  -34.7640   23.3620 C   0  0  0  0  0  0  0  0  0  0  0  0
  -26.5260  -34.6860   22.3860 O   0  0  0  0  0  0  0  0  0  0  0  0
  -24.7490  -33.8350   24.8390 H   0  0  0  0  0  0  0  0  0  0  0  0
  -24.0310  -36.5090   22.8870 C   0  0  0  0  0  1  0  0  0  0  0  0
  -25.2180  -36.1360   23.7890 C   0  0  0  0  0  3  0  0  0  0  0  0
  -27.2610  -37.0630   24.7840 C   0  0  0  0  0  1  0  0  0  0  0  0
  -26.2290  -37.2140   23.7620 N   0  0  0  0  0  0  0  0  0  0  0  0
  -25.7890  -38.1220   23.8880 H   0  0  0  0  0  0  0  0  0  0  0  0
  4  1  1  1
  3  8  1  0
  3  1  1  0
  4  2  1  0
  5  3  1  0
  5  6  1  0
  5  2  1  6
  5  4  1  0
  6  4  1  0
  6  7  1  1
  9  8  2  0
 10 16  1  0
 10 21  1  0
 11 16  1  0
 12 13  1  0
 12 11  1  0
 14 13  1  0
 14 25  1  0
 14 15  1  0
 16 15  1  0
 17 10  2  0
 18 19  1  0
 20  8  1  0
 20 21  1  0
 20 18  1  0
 21 19  1  0
 22 23  2  0
 23 42  1  0
 24 23  1  0
 24 27  1  0
 25 26  1  0
 25 22  1  0
 26 24  2  0
 27 28  1  0
 28 29  2  0
 30 33  1  0
 30 29  1  0
 31 30  2  0
 32 31  1  0
 32 27  2  0
 33 34  1  0
 34 35  1  0
 35 36  2  0
 37 36  1  0
 37 41  1  0
 38 37  2  0
 39 34  2  0
 39 38  1  0
 40 39  1  0
 42 43  1  0
 43 46  1  0
 43 45  1  0
 44 42  2  0
 47 22  1  0
 47 48  1  0
 49 47  1  0
 50  6  1  0
 50 53  1  0
 53 52  1  1
 53 51  1  0
 54 55  1  0
 54 53  1  0
 56 67  2  0
 57 55  1  0
 57 62  1  0
 58 66  1  0
 58 68  1  0
 59 65  1  0
 59 61  1  0
 60 66  1  0
 61 62  2  0
 61 60  1  0
 63 64  1  0
 63 57  2  0
 64 59  2  0
 65 58  1  0
 66 56  1  0
 68 70  2  0
 69 68  1  0
 71 69  1  0
 72 81  2  0
 72 77  1  0
 73 69  1  0
 73 77  1  0
 74 73  1  0
 75 76  1  0
 75 74  1  0
 76 72  1  0
 77 78  2  0
 78 79  1  0
 80 79  2  0
 81 80  1  0
 82 56  1  0
 82 87  1  0
 82 83  1  0
 83 86  1  1
 83 84  1  0
 85 83  1  0
 87 90  1  0
 88 92  1  0
 88 87  1  0
 89 88  2  0
 92 91  1  0
 94 92  1  0
 94 95  1  0
 94 93  1  0
M  ISO  4  10 100  21 100  54 101  55 101
M  END
>  <TORSDO>  (55) 
F 20

>  <SCORE>  (55) 
-11.675

>  <name>  (55) 
55

>  <ligand_id>  (55) 
55

>  <original_smiles>  (55) 
[H]c1c([H])c([H])c2c(c1[H])C([H])([H])C([H])([H])C([H])([H])C2([H])N([H])C(=O)C1([H])N(C(=O)C([H])(N([H])C(=O)C([H])(N([H])C([H])([H])[H])C([H])([H])[H])C(C([H])([H])[H])(C([H])([H])[H])C([H])([H])[H])C([H])([H])c2c([H])c(OC([H])([H])C(C([H])([H])[H])(C([H])([H])[H])C([H])([H])[N+]3([H])C4([H])C([H])([H])C([H])(C(=O)C5([H])N(C(=O)N6C([H])([H])C([H])([H])C([H])([H])C([H])(n7nc(-c8c([H])c([H])c(Oc9c([H])c([H])c(F)c([H])c9F)c([H])c8[H])c(C(=O)N([H])[H])c7N([H])[H])C6([H])[H])C([H])([H])C5([H])[H])C3([H])C4([H])[H])c([H])c([H])c2C1([H])[H]

>  <smiles>  (55) 
[H]c1c([H])c([H])c2c(c1[H])C([H])([H])C([H])([H])C([H])([H])C2([H])N([H])C(=O)C1([H])N(C(=O)C([H])(N([H])C(=O)C([H])(N([H])C([H])([H])[H])C([H])([H])[H])C(C([H])([H])[H])(C([H])([H])[H])C([H])([H])[H])C([H])([H])c2c([H])c(OC([H])([H])C(C([H])([H])[H])(C([H])([H])[H])C([H])([H])[N+]3([H])C4([H])C([H])([H])C([H])(C(=O)C5([H])N(C(=O)N6C([H])([H])C([H])([H])C([H])([H])C([H])(n7nc(-c8c([H])c([H])c(Oc9c([H])c([H])c(F)c([H])c9F)c([H])c8[H])c(C(=O)N([H])[H])c7N([H])[H])C6([H])[H])C([H])([H])C5([H])[H])C3([H])C4([H])[H])c([H])c([H])c2C1([H])[H]

$$$$
56:0:0
     RDKit          3D

 95103  0  0  1  0  0  0  0  0999 V2000
  -28.9490  -22.4540   19.7910 C   0  0  0  0  0  3  0  0  0  0  0  0
  -28.9670  -22.4210   18.3090 N   0  0  0  0  0  4  0  0  0  0  0  0
  -28.0470  -22.2610   17.9350 H   0  0  0  0  0  0  0  0  0  0  0  0
  -29.5740  -21.7030   17.9580 H   0  0  0  0  0  0  0  0  0  0  0  0
  -29.3070  -23.2870   17.9310 H   0  0  0  0  0  0  0  0  0  0  0  0
  -28.2410  -23.9230   21.8190 C   0  0  0  0  0  1  0  0  0  0  0  0
  -28.1400  -23.7740   20.2890 C   0  0  0  0  0  3  0  0  0  0  0  0
  -28.4990  -25.1760   19.5780 C   0  0  0  0  0  2  0  0  0  0  0  0
  -28.3580  -26.5050   20.2250 O   0  0  0  0  0  0  0  0  0  0  0  0
  -24.6190  -31.8690   23.2330 C   0  0  0  0  0  0  0  0  0  0  0  0
  -27.2140  -27.3140   20.1510 C   0  0  0  0  0  0  0  0  0  0  0  0
  -23.4060  -30.4730   21.5960 C   0  0  0  0  0  3  0  0  0  0  0  0
  -24.8460  -28.9200   20.1600 C   0  0  0  0  0  0  0  0  0  0  0  0
  -25.9420  -30.7940   21.3960 C   0  0  0  0  0  2  0  0  0  0  0  0
  -26.0150  -29.4130   20.7500 C   0  0  0  0  0  0  0  0  0  0  0  0
  -27.1970  -28.6170   20.7420 C   0  0  0  0  0  3  0  0  0  0  0  0
  -26.0210  -26.8650   19.5450 C   0  0  0  0  0  3  0  0  0  0  0  0
  -24.8500  -27.6530   19.5540 C   0  0  0  0  0  3  0  0  0  0  0  0
  -23.6120  -29.7990   20.2110 C   0  0  0  0  0  2  0  0  0  0  0  0
  -24.6750  -31.0650   22.1320 N   0  0  0  0  0  0  0  0  0  0  0  0
  -23.5370  -32.1430   23.7750 O   0  0  0  0  0  0  0  0  0  0  0  0
  -22.7540  -29.4540   22.5600 C   0  0  0  0  0  0  0  0  0  0  0  0
  -21.4270  -29.2750   22.4430 N   0  0  0  0  0  0  0  0  0  0  0  0
  -23.4390  -28.8260   23.3720 O   0  0  0  0  0  0  0  0  0  0  0  0
  -20.9330  -29.8380   21.7640 H   0  0  0  0  0  0  0  0  0  0  0  0
  -18.0520  -28.0750   22.9500 C   0  0  0  0  0  0  0  0  0  0  0  0
  -20.6120  -28.3350   23.2130 C   0  0  0  0  0  3  0  0  0  0  0  0
  -20.7140  -26.9050   22.6340 C   0  0  0  0  0  2  0  0  0  0  0  0
  -19.6080  -26.5820   21.6250 C   0  0  0  0  0  2  0  0  0  0  0  0
  -18.2260  -26.7260   22.2720 C   0  0  0  0  0  2  0  0  0  0  0  0
  -19.1720  -28.8360   23.3780 C   0  0  0  0  0  0  0  0  0  0  0  0
  -18.9560  -30.0980   23.9700 C   0  0  0  0  0  3  0  0  0  0  0  0
  -17.6510  -30.6000   24.1410 C   0  0  0  0  0  3  0  0  0  0  0  0
  -16.5450  -29.8340   23.7340 C   0  0  0  0  0  3  0  0  0  0  0  0
  -16.7460  -28.5740   23.1420 C   0  0  0  0  0  3  0  0  0  0  0  0
  -25.9030  -32.5050   23.8510 C   0  0  0  0  0  3  0  0  0  0  0  0
  -25.5900  -33.9030   24.1830 N   0  0  0  0  0  0  0  0  0  0  0  0
  -25.9180  -34.9580   23.4260 C   0  0  0  0  0  0  0  0  0  0  0  0
  -26.5820  -34.8560   22.3900 O   0  0  0  0  0  0  0  0  0  0  0  0
  -24.9960  -34.0580   24.9840 H   0  0  0  0  0  0  0  0  0  0  0  0
  -24.1810  -36.7500   23.0910 C   0  0  0  0  0  1  0  0  0  0  0  0
  -25.4300  -36.3450   23.8900 C   0  0  0  0  0  3  0  0  0  0  0  0
  -27.5710  -37.2290   24.7030 C   0  0  0  0  0  1  0  0  0  0  0  0
  -26.4580  -37.4010   23.7720 N   0  0  0  0  0  0  0  0  0  0  0  0
  -26.0530  -38.3180   23.9340 H   0  0  0  0  0  0  0  0  0  0  0  0
  -26.4230  -31.7350   25.1270 C   0  0  1  0  0  0  0  0  0  0  0  0
  -25.3310  -31.4920   26.1980 C   0  0  0  0  0  1  0  0  0  0  0  0
  -27.0100  -30.3630   24.7300 C   0  0  0  0  0  1  0  0  0  0  0  0
  -27.5780  -32.5280   25.7840 C   0  0  0  0  0  1  0  0  0  0  0  0
  -28.5160  -20.9960   20.3490 C   0  0  0  0  0  2  0  0  0  0  0  0
  -28.8430  -18.2590   19.9660 C   0  0  0  0  0  2  0  0  0  0  0  0
  -30.5070  -17.9950   21.5890 C   0  0  0  0  0  2  0  0  0  0  0  0
  -30.0020  -17.2550   20.3350 C   0  0  0  0  0  3  0  0  0  0  0  0
  -29.4690  -19.6980   20.1780 C   0  0  0  0  0  3  0  0  0  0  0  0
  -30.4160  -19.4580   21.3040 N   0  0  0  0  0  4  0  0  0  0  0  0
  -31.3310  -19.7950   21.0480 H   0  0  0  0  0  0  0  0  0  0  0  0
  -30.1360  -19.9390   22.1420 H   0  0  0  0  0  0  0  0  0  0  0  0
  -30.5420  -14.6890   20.3500 C   0  0  0  0  0  0  0  0  0  0  0  0
  -30.3620  -12.4340   19.3200 C   0  0  0  0  0  2  0  0  0  0  0  0
  -29.4150  -12.5400   18.1030 C   0  0  0  0  0  2  0  0  0  0  0  0
  -27.9420  -12.3820   18.5320 C   0  0  0  0  0  2  0  0  0  0  0  0
  -27.5810  -13.2520   19.7660 C   0  0  0  0  0  3  0  0  0  0  0  0
  -28.6390  -13.1210   20.8830 C   0  0  0  0  0  2  0  0  0  0  0  0
  -29.9390  -13.4610   20.2940 N   0  0  0  0  0  0  0  0  0  0  0  0
  -31.7250  -14.8320   20.0300 O   0  0  0  0  0  0  0  0  0  0  0  0
  -29.7140  -15.7760   20.5290 N   0  0  0  0  0  0  0  0  0  0  0  0
  -28.7500  -15.5380   20.7120 H   0  0  0  0  0  0  0  0  0  0  0  0
  -25.1940  -13.8570   20.4890 C   0  0  0  0  0  0  0  0  0  0  0  0
  -24.1280  -13.0860   20.8620 C   0  0  0  0  0  0  0  0  0  0  0  0
  -24.5890  -11.7350   20.8390 C   0  0  0  0  0  0  0  0  0  0  0  0
  -26.2360  -12.9750   20.2560 N   0  0  0  0  0  0  0  0  0  0  0  0
  -25.8800  -11.6930   20.5310 N   0  0  0  0  0  0  0  0  0  0  0  0
  -23.8620  -10.4740   21.0350 C   0  0  0  0  0  0  0  0  0  0  0  0
  -24.2950   -9.5090   21.9690 C   0  0  0  0  0  3  0  0  0  0  0  0
  -23.5680   -8.3120   22.1520 C   0  0  0  0  0  3  0  0  0  0  0  0
  -22.3920   -8.0750   21.4000 C   0  0  0  0  0  0  0  0  0  0  0  0
  -21.9780   -9.0300   20.4540 C   0  0  0  0  0  3  0  0  0  0  0  0
  -22.7070  -10.2170   20.2710 C   0  0  0  0  0  3  0  0  0  0  0  0
  -21.6370   -6.9320   21.4910 O   0  0  0  0  0  0  0  0  0  0  0  0
  -21.5970   -6.1860   22.6420 C   0  0  0  0  0  0  0  0  0  0  0  0
  -21.1770   -6.7380   23.8720 C   0  0  0  0  0  3  0  0  0  0  0  0
  -21.0840   -5.9190   25.0150 C   0  0  0  0  0  3  0  0  0  0  0  0
  -21.3990   -4.5500   24.9280 C   0  0  0  0  0  0  0  0  0  0  0  0
  -21.8110   -3.9980   23.7030 C   0  0  0  0  0  3  0  0  0  0  0  0
  -21.9050   -4.8140   22.5630 C   0  0  0  0  0  0  0  0  0  0  0  0
  -22.2820   -4.2720   21.3800 F   0  0  0  0  0  0  0  0  0  0  0  0
  -21.3020   -3.7620   26.0240 F   0  0  0  0  0  0  0  0  0  0  0  0
  -22.7310  -13.5670   21.1320 C   0  0  0  0  0  0  0  0  0  0  0  0
  -22.0020  -12.8740   21.9980 N   0  0  0  0  0  0  0  0  0  0  0  0
  -22.2950  -14.5930   20.6080 O   0  0  0  0  0  0  0  0  0  0  0  0
  -22.3700  -12.0420   22.4400 H   0  0  0  0  0  0  0  0  0  0  0  0
  -21.0660  -13.1770   22.2250 H   0  0  0  0  0  0  0  0  0  0  0  0
  -25.3550  -15.2270   20.3050 N   0  0  0  0  0  0  0  0  0  0  0  0
  -24.5740  -15.8660   20.3980 H   0  0  0  0  0  0  0  0  0  0  0  0
  -26.1830  -15.6720   19.9320 H   0  0  0  0  0  0  0  0  0  0  0  0
  1  7  1  0
  1 50  1  0
  2  1  1  0
  3  2  1  0
  4  2  1  0
  5  2  1  0
  7  6  1  0
  8  9  1  0
  8  7  1  0
 10 21  2  0
 11  9  1  0
 11 16  1  0
 12 20  1  0
 12 22  1  0
 13 19  1  0
 13 15  1  0
 14 20  1  0
 15 14  1  0
 16 15  2  0
 17 18  1  0
 17 11  2  0
 18 13  2  0
 19 12  1  0
 20 10  1  0
 22 24  2  0
 23 22  1  0
 25 23  1  0
 26 35  2  0
 26 31  1  0
 27 23  1  0
 27 31  1  0
 28 27  1  0
 29 30  1  0
 29 28  1  0
 30 26  1  0
 31 32  2  0
 32 33  1  0
 34 33  2  0
 35 34  1  0
 36 10  1  0
 36 37  1  0
 36 46  1  0
 37 40  1  0
 38 42  1  0
 38 37  1  0
 39 38  2  0
 42 41  1  0
 44 42  1  0
 44 45  1  0
 44 43  1  0
 46 49  1  1
 46 47  1  0
 48 46  1  0
 51 54  1  0
 51 53  1  0
 53 66  1  0
 53 52  1  0
 54 50  1  0
 54 55  1  0
 55 52  1  0
 55 57  1  0
 56 55  1  0
 58 66  1  0
 59 64  1  0
 60 61  1  0
 60 59  1  0
 62 61  1  0
 62 71  1  0
 62 63  1  0
 64 58  1  0
 64 63  1  0
 65 58  2  0
 66 67  1  0
 68 69  2  0
 69 88  1  0
 70 69  1  0
 70 73  1  0
 71 68  1  0
 71 72  1  0
 72 70  2  0
 73 74  1  0
 74 75  2  0
 76 79  1  0
 76 75  1  0
 77 76  2  0
 78 77  1  0
 78 73  2  0
 79 80  1  0
 80 81  1  0
 81 82  2  0
 83 82  1  0
 83 87  1  0
 84 83  2  0
 85 80  2  0
 85 84  1  0
 86 85  1  0
 88 89  1  0
 89 92  1  0
 89 91  1  0
 90 88  2  0
 93 94  1  0
 93 68  1  0
 95 93  1  0
M  ISO  4   8 101   9 101  58 100  66 100
M  END
>  <TORSDO>  (56) 
F 21

>  <SCORE>  (56) 
-13.746

>  <name>  (56) 
56

>  <ligand_id>  (56) 
56

>  <original_smiles>  (56) 
[H]c1c([H])c([H])c2c(c1[H])C([H])([H])C([H])([H])C([H])([H])C2([H])N([H])C(=O)C1([H])N(C(=O)C([H])(N([H])C(=O)C([H])(N([H])C([H])([H])[H])C([H])([H])[H])C(C([H])([H])[H])(C([H])([H])[H])C([H])([H])[H])C([H])([H])c2c([H])c(OC([H])([H])C([H])(C([H])([H])[H])C([H])(C([H])([H])C3([H])C([H])([H])C([H])(N([H])C(=O)N4C([H])([H])C([H])([H])C([H])([H])C([H])(n5nc(-c6c([H])c([H])c(Oc7c([H])c([H])c(F)c([H])c7F)c([H])c6[H])c(C(=O)N([H])[H])c5N([H])[H])C4([H])[H])C([H])([H])[N+]3([H])[H])[N+]([H])([H])[H])c([H])c([H])c2C1([H])[H]

>  <smiles>  (56) 
[H]c1c([H])c([H])c2c(c1[H])C([H])([H])C([H])([H])C([H])([H])C2([H])N([H])C(=O)C1([H])N(C(=O)C([H])(N([H])C(=O)C([H])(N([H])C([H])([H])[H])C([H])([H])[H])C(C([H])([H])[H])(C([H])([H])[H])C([H])([H])[H])C([H])([H])c2c([H])c(OC([H])([H])C([H])(C([H])([H])[H])C([H])(C([H])([H])C3([H])C([H])([H])C([H])(N([H])C(=O)N4C([H])([H])C([H])([H])C([H])([H])C([H])(n5nc(-c6c([H])c([H])c(Oc7c([H])c([H])c(F)c([H])c7F)c([H])c6[H])c(C(=O)N([H])[H])c5N([H])[H])C4([H])[H])C([H])([H])[N+]3([H])[H])[N+]([H])([H])[H])c([H])c([H])c2C1([H])[H]

$$$$
58:0:0
     RDKit          3D

 93101  0  0  1  0  0  0  0  0999 V2000
  -33.3310  -24.2680   19.7210 C   0  0  0  0  0  2  0  0  0  0  0  0
  -33.0300  -22.7960   19.4530 C   0  0  0  0  0  2  0  0  0  0  0  0
  -32.0590  -24.8330   20.3720 C   0  0  0  0  0  2  0  0  0  0  0  0
  -31.8260  -22.4750   20.3460 C   0  0  0  0  0  3  0  0  0  0  0  0
  -31.0600  -23.7380   20.4150 N   0  0  1  0  0  4  0  0  0  0  0  0
  -30.5380  -23.7970   19.5530 H   0  0  0  0  0  0  0  0  0  0  0  0
  -31.0030  -21.2810   19.8200 C   0  0  0  0  0  2  0  0  0  0  0  0
  -30.6430  -20.2360   20.8940 C   0  0  0  0  0  2  0  0  0  0  0  0
  -30.6690  -18.8530   20.2910 C   0  0  0  0  0  3  0  0  0  0  0  0
  -29.6780  -17.9530   20.3360 C   0  0  0  0  0  3  0  0  0  0  0  0
  -29.7680  -16.6300   19.6180 C   0  0  0  0  0  2  0  0  0  0  0  0
  -30.5920  -14.4580   20.3740 C   0  0  0  0  0  0  0  0  0  0  0  0
  -30.3040  -12.3100   19.2550 C   0  0  0  0  0  2  0  0  0  0  0  0
  -29.3420  -12.5590   18.0730 C   0  0  0  0  0  2  0  0  0  0  0  0
  -27.8690  -12.4440   18.5170 C   0  0  0  0  0  2  0  0  0  0  0  0
  -27.5620  -13.2430   19.8120 C   0  0  0  0  0  3  0  0  0  0  0  0
  -28.6360  -12.9770   20.8960 C   0  0  0  0  0  2  0  0  0  0  0  0
  -29.9570  -13.2650   20.3140 N   0  0  0  0  0  0  0  0  0  0  0  0
  -31.7530  -14.6430   19.9900 O   0  0  0  0  0  0  0  0  0  0  0  0
  -29.7440  -15.4830   20.5210 N   0  0  0  0  0  0  0  0  0  0  0  0
  -28.8330  -15.2150   20.8630 H   0  0  0  0  0  0  0  0  0  0  0  0
  -25.1790  -13.8580   20.5690 C   0  0  0  0  0  0  0  0  0  0  0  0
  -24.1160  -13.0850   20.9530 C   0  0  0  0  0  0  0  0  0  0  0  0
  -24.5730  -11.7330   20.9010 C   0  0  0  0  0  0  0  0  0  0  0  0
  -26.2160  -12.9740   20.3100 N   0  0  0  0  0  0  0  0  0  0  0  0
  -25.8560  -11.6900   20.5670 N   0  0  0  0  0  0  0  0  0  0  0  0
  -23.8490  -10.4700   21.0900 C   0  0  0  0  0  0  0  0  0  0  0  0
  -24.3150   -9.4850   21.9860 C   0  0  0  0  0  3  0  0  0  0  0  0
  -23.5990   -8.2820   22.1670 C   0  0  0  0  0  3  0  0  0  0  0  0
  -22.4000   -8.0590   21.4480 C   0  0  0  0  0  0  0  0  0  0  0  0
  -21.9520   -9.0320   20.5380 C   0  0  0  0  0  3  0  0  0  0  0  0
  -22.6700  -10.2260   20.3570 C   0  0  0  0  0  3  0  0  0  0  0  0
  -21.6470   -6.9140   21.5420 O   0  0  0  0  0  0  0  0  0  0  0  0
  -21.6570   -6.1360   22.6710 C   0  0  0  0  0  0  0  0  0  0  0  0
  -21.3140   -6.6560   23.9380 C   0  0  0  0  0  3  0  0  0  0  0  0
  -21.2710   -5.8050   25.0610 C   0  0  0  0  0  3  0  0  0  0  0  0
  -21.5570   -4.4340   24.9160 C   0  0  0  0  0  0  0  0  0  0  0  0
  -21.8890   -3.9130   23.6540 C   0  0  0  0  0  3  0  0  0  0  0  0
  -21.9360   -4.7610   22.5350 C   0  0  0  0  0  0  0  0  0  0  0  0
  -22.2390   -4.2500   21.3170 F   0  0  0  0  0  0  0  0  0  0  0  0
  -21.5040   -3.6130   25.9910 F   0  0  0  0  0  0  0  0  0  0  0  0
  -22.7240  -13.5610   21.2530 C   0  0  0  0  0  0  0  0  0  0  0  0
  -22.0090  -12.8570   22.1230 N   0  0  0  0  0  0  0  0  0  0  0  0
  -22.2760  -14.5880   20.7460 O   0  0  0  0  0  0  0  0  0  0  0  0
  -22.3820  -12.0250   22.5550 H   0  0  0  0  0  0  0  0  0  0  0  0
  -21.0720  -13.1510   22.3580 H   0  0  0  0  0  0  0  0  0  0  0  0
  -25.3440  -15.2300   20.4000 N   0  0  0  0  0  0  0  0  0  0  0  0
  -24.5800  -15.8850   20.5310 H   0  0  0  0  0  0  0  0  0  0  0  0
  -26.1780  -15.6650   20.0230 H   0  0  0  0  0  0  0  0  0  0  0  0
  -30.0950  -23.8030   21.5460 C   0  0  0  0  0  2  0  0  0  0  0  0
  -29.3170  -25.1330   21.6200 C   0  0  0  0  0  2  0  0  0  0  0  0
  -28.3640  -25.3970   20.4400 C   0  0  0  0  0  2  0  0  0  0  0  0
  -28.4060  -26.7950   20.1590 O   0  0  0  0  0  0  0  0  0  0  0  0
  -24.5940  -31.9140   23.2400 C   0  0  0  0  0  0  0  0  0  0  0  0
  -27.2150  -27.4800   20.1650 C   0  0  0  0  0  0  0  0  0  0  0  0
  -23.3720  -30.5050   21.6110 C   0  0  0  0  0  3  0  0  0  0  0  0
  -24.8160  -28.9630   20.1840 C   0  0  0  0  0  0  0  0  0  0  0  0
  -25.8930  -30.8740   21.3880 C   0  0  0  0  0  2  0  0  0  0  0  0
  -25.9760  -29.5030   20.7550 C   0  0  0  0  0  0  0  0  0  0  0  0
  -27.1800  -28.7700   20.7360 C   0  0  0  0  0  3  0  0  0  0  0  0
  -26.0400  -26.9460   19.5910 C   0  0  0  0  0  3  0  0  0  0  0  0
  -24.8400  -27.6840   19.6020 C   0  0  0  0  0  3  0  0  0  0  0  0
  -23.5700  -29.8170   20.2340 C   0  0  0  0  0  2  0  0  0  0  0  0
  -24.6380  -31.1110   22.1390 N   0  0  0  0  0  0  0  0  0  0  0  0
  -23.5160  -32.1890   23.7870 O   0  0  0  0  0  0  0  0  0  0  0  0
  -22.7300  -29.4870   22.5800 C   0  0  0  0  0  0  0  0  0  0  0  0
  -21.4060  -29.3010   22.4590 N   0  0  0  0  0  0  0  0  0  0  0  0
  -23.4190  -28.8690   23.3950 O   0  0  0  0  0  0  0  0  0  0  0  0
  -20.9120  -29.8510   21.7710 H   0  0  0  0  0  0  0  0  0  0  0  0
  -18.0400  -28.0950   22.9610 C   0  0  0  0  0  0  0  0  0  0  0  0
  -20.5940  -28.3680   23.2380 C   0  0  0  0  0  3  0  0  0  0  0  0
  -20.7060  -26.9310   22.6770 C   0  0  0  0  0  2  0  0  0  0  0  0
  -19.6090  -26.5930   21.6630 C   0  0  0  0  0  2  0  0  0  0  0  0
  -18.2250  -26.7390   22.3010 C   0  0  0  0  0  2  0  0  0  0  0  0
  -19.1520  -28.8670   23.3860 C   0  0  0  0  0  0  0  0  0  0  0  0
  -18.9270  -30.1380   23.9600 C   0  0  0  0  0  3  0  0  0  0  0  0
  -17.6190  -30.6340   24.1140 C   0  0  0  0  0  3  0  0  0  0  0  0
  -16.5200  -29.8590   23.7060 C   0  0  0  0  0  3  0  0  0  0  0  0
  -16.7310  -28.5910   23.1340 C   0  0  0  0  0  3  0  0  0  0  0  0
  -25.8860  -32.5440   23.8460 C   0  0  0  0  0  3  0  0  0  0  0  0
  -25.5790  -33.9410   24.1810 N   0  0  0  0  0  0  0  0  0  0  0  0
  -25.9090  -34.9940   23.4220 C   0  0  0  0  0  0  0  0  0  0  0  0
  -26.5740  -34.8910   22.3860 O   0  0  0  0  0  0  0  0  0  0  0  0
  -24.9850  -34.0940   24.9830 H   0  0  0  0  0  0  0  0  0  0  0  0
  -24.1780  -36.7820   23.0800 C   0  0  0  0  0  1  0  0  0  0  0  0
  -25.4240  -36.3800   23.8840 C   0  0  0  0  0  3  0  0  0  0  0  0
  -27.5660  -37.2610   24.6990 C   0  0  0  0  0  1  0  0  0  0  0  0
  -26.4550  -37.4330   23.7650 N   0  0  0  0  0  0  0  0  0  0  0  0
  -26.0500  -38.3530   23.9230 H   0  0  0  0  0  0  0  0  0  0  0  0
  -26.4220  -31.7680   25.1120 C   0  0  1  0  0  0  0  0  0  0  0  0
  -25.3430  -31.5290   26.1940 C   0  0  0  0  0  1  0  0  0  0  0  0
  -26.9990  -30.3930   24.7050 C   0  0  0  0  0  1  0  0  0  0  0  0
  -27.5810  -32.5620   25.7600 C   0  0  0  0  0  1  0  0  0  0  0  0
  1  3  1  0
  2  1  1  0
  2  4  1  0
  3  5  1  0
  4  7  1  0
  4  5  1  0
  5 50  1  0
  5  6  1  6
  7  8  1  0
  9 10  2  0
  9  8  1  0
 11 10  1  0
 11 20  1  0
 12 20  1  0
 13 18  1  0
 14 15  1  0
 14 13  1  0
 16 15  1  0
 16 25  1  0
 16 17  1  0
 18 12  1  0
 18 17  1  0
 19 12  2  0
 20 21  1  0
 22 23  2  0
 23 42  1  0
 24 23  1  0
 24 27  1  0
 25 26  1  0
 25 22  1  0
 26 24  2  0
 27 28  1  0
 28 29  2  0
 30 33  1  0
 30 29  1  0
 31 30  2  0
 32 31  1  0
 32 27  2  0
 33 34  1  0
 34 35  1  0
 35 36  2  0
 37 36  1  0
 37 41  1  0
 38 37  2  0
 39 34  2  0
 39 38  1  0
 40 39  1  0
 42 43  1  0
 43 46  1  0
 43 45  1  0
 44 42  2  0
 47 48  1  0
 47 22  1  0
 49 47  1  0
 50 51  1  0
 52 51  1  0
 53 55  1  0
 53 52  1  0
 54 65  2  0
 55 60  1  0
 56 64  1  0
 56 66  1  0
 57 63  1  0
 57 59  1  0
 58 64  1  0
 59 58  1  0
 60 59  2  0
 61 62  1  0
 61 55  2  0
 62 57  2  0
 63 56  1  0
 64 54  1  0
 66 68  2  0
 67 66  1  0
 69 67  1  0
 70 79  2  0
 70 75  1  0
 71 67  1  0
 71 75  1  0
 72 71  1  0
 73 74  1  0
 73 72  1  0
 74 70  1  0
 75 76  2  0
 76 77  1  0
 78 77  2  0
 79 78  1  0
 80 54  1  0
 80 81  1  0
 80 90  1  0
 81 84  1  0
 82 86  1  0
 82 81  1  0
 83 82  2  0
 86 85  1  0
 88 86  1  0
 88 89  1  0
 88 87  1  0
 90 93  1  1
 90 91  1  0
 92 90  1  0
M  ISO  4  12 100  20 100  52 101  53 101
M  END
>  <TORSDO>  (57) 
F 23

>  <SCORE>  (57) 
-12.760

>  <name>  (57) 
58

>  <ligand_id>  (57) 
58

>  <original_smiles>  (57) 
[H]C(=C([H])C([H])([H])C([H])([H])C1([H])C([H])([H])C([H])([H])C([H])([H])[N+]1([H])C([H])([H])C([H])([H])C([H])([H])Oc1c([H])c([H])c2c(c1[H])C([H])([H])N(C(=O)C([H])(N([H])C(=O)C([H])(N([H])C([H])([H])[H])C([H])([H])[H])C(C([H])([H])[H])(C([H])([H])[H])C([H])([H])[H])C([H])(C(=O)N([H])C1([H])c3c([H])c([H])c([H])c([H])c3C([H])([H])C([H])([H])C1([H])[H])C2([H])[H])C([H])([H])N([H])C(=O)N1C([H])([H])C([H])([H])C([H])([H])C([H])(n2nc(-c3c([H])c([H])c(Oc4c([H])c([H])c(F)c([H])c4F)c([H])c3[H])c(C(=O)N([H])[H])c2N([H])[H])C1([H])[H]

>  <smiles>  (57) 
[H]C(=C([H])C([H])([H])C([H])([H])C1([H])C([H])([H])C([H])([H])C([H])([H])[N+]1([H])C([H])([H])C([H])([H])C([H])([H])Oc1c([H])c([H])c2c(c1[H])C([H])([H])N(C(=O)C([H])(N([H])C(=O)C([H])(N([H])C([H])([H])[H])C([H])([H])[H])C(C([H])([H])[H])(C([H])([H])[H])C([H])([H])[H])C([H])(C(=O)N([H])C1([H])c3c([H])c([H])c([H])c([H])c3C([H])([H])C([H])([H])C1([H])[H])C2([H])[H])C([H])([H])N([H])C(=O)N1C([H])([H])C([H])([H])C([H])([H])C([H])(n2nc(-c3c([H])c([H])c(Oc4c([H])c([H])c(F)c([H])c4F)c([H])c3[H])c(C(=O)N([H])[H])c2N([H])[H])C1([H])[H]

$$$$
59:0:0
     RDKit          3D

 92100  0  0  1  0  0  0  0  0999 V2000
  -28.8280  -21.3300   19.3430 C   0  0  0  0  0  3  0  0  0  0  0  0
  -29.0710  -19.9080   19.2220 C   0  0  0  0  0  3  0  0  0  0  0  0
  -29.2840  -22.1350   20.4310 C   0  0  0  0  0  0  0  0  0  0  0  0
  -29.8150  -19.1000   20.1530 C   0  0  0  0  0  0  0  0  0  0  0  0
  -29.9350  -21.3130   21.4390 C   0  0  0  0  0  0  0  0  0  0  0  0
  -30.1980  -19.8760   21.3020 C   0  0  0  0  0  0  0  0  0  0  0  0
  -30.4100  -21.9980   22.7230 C   0  0  0  0  0  1  0  0  0  0  0  0
  -30.9740  -19.1630   22.4070 C   0  0  0  0  0  1  0  0  0  0  0  0
  -29.2970  -23.7570   20.4430 C   0  0  0  0  0  0  0  0  0  0  0  0
  -30.3300  -24.3080   20.8370 O   0  0  0  0  0  0  0  0  0  0  0  0
  -28.1240  -24.8070   20.0140 C   0  0  0  0  0  2  0  0  0  0  0  0
  -28.3660  -26.3250   20.1840 O   0  0  0  0  0  0  0  0  0  0  0  0
  -24.6650  -31.9010   23.1770 C   0  0  0  0  0  0  0  0  0  0  0  0
  -27.2870  -27.2640   20.1170 C   0  0  0  0  0  0  0  0  0  0  0  0
  -23.4730  -30.4970   21.5380 C   0  0  0  0  0  3  0  0  0  0  0  0
  -24.9320  -28.9500   20.1000 C   0  0  0  0  0  0  0  0  0  0  0  0
  -26.0190  -30.8040   21.3590 C   0  0  0  0  0  2  0  0  0  0  0  0
  -26.1070  -29.4190   20.7040 C   0  0  0  0  0  0  0  0  0  0  0  0
  -27.2850  -28.5900   20.6950 C   0  0  0  0  0  3  0  0  0  0  0  0
  -26.0870  -26.8840   19.4760 C   0  0  0  0  0  3  0  0  0  0  0  0
  -24.9330  -27.6950   19.4720 C   0  0  0  0  0  3  0  0  0  0  0  0
  -23.6940  -29.8270   20.1550 C   0  0  0  0  0  2  0  0  0  0  0  0
  -24.7400  -31.0880   22.0800 N   0  0  0  0  0  0  0  0  0  0  0  0
  -23.5790  -32.1700   23.7110 O   0  0  0  0  0  0  0  0  0  0  0  0
  -22.8130  -29.4770   22.4990 C   0  0  0  0  0  0  0  0  0  0  0  0
  -21.4850  -29.2980   22.3800 N   0  0  0  0  0  0  0  0  0  0  0  0
  -23.4960  -28.8510   23.3120 O   0  0  0  0  0  0  0  0  0  0  0  0
  -20.9910  -29.8540   21.6970 H   0  0  0  0  0  0  0  0  0  0  0  0
  -18.1170  -28.0700   22.8940 C   0  0  0  0  0  0  0  0  0  0  0  0
  -20.6750  -28.3520   23.1520 C   0  0  0  0  0  3  0  0  0  0  0  0
  -20.7860  -26.9220   22.5730 C   0  0  0  0  0  2  0  0  0  0  0  0
  -19.6820  -26.5930   21.5620 C   0  0  0  0  0  2  0  0  0  0  0  0
  -18.3020  -26.7260   22.2120 C   0  0  0  0  0  2  0  0  0  0  0  0
  -19.2320  -28.8410   23.3210 C   0  0  0  0  0  0  0  0  0  0  0  0
  -19.0030  -30.0990   23.9200 C   0  0  0  0  0  3  0  0  0  0  0  0
  -17.6950  -30.5870   24.0950 C   0  0  0  0  0  3  0  0  0  0  0  0
  -16.5950  -29.8150   23.6840 C   0  0  0  0  0  3  0  0  0  0  0  0
  -16.8080  -28.5570   23.0880 C   0  0  0  0  0  3  0  0  0  0  0  0
  -25.9400  -32.5460   23.8010 C   0  0  0  0  0  3  0  0  0  0  0  0
  -26.4700  -31.7720   25.0710 C   0  0  1  0  0  0  0  0  0  0  0  0
  -25.3830  -31.5160   26.1410 C   0  0  0  0  0  1  0  0  0  0  0  0
  -27.0670  -30.4030   24.6720 C   0  0  0  0  0  1  0  0  0  0  0  0
  -27.6150  -32.5740   25.7350 C   0  0  0  0  0  1  0  0  0  0  0  0
  -25.6130  -33.9380   24.1480 N   0  0  0  0  0  0  0  0  0  0  0  0
  -25.9250  -35.0050   23.4000 C   0  0  0  0  0  0  0  0  0  0  0  0
  -26.5860  -34.9230   22.3620 O   0  0  0  0  0  0  0  0  0  0  0  0
  -25.0240  -34.0750   24.9570 H   0  0  0  0  0  0  0  0  0  0  0  0
  -24.1740  -36.7850   23.0840 C   0  0  0  0  0  1  0  0  0  0  0  0
  -25.4260  -36.3820   23.8800 C   0  0  0  0  0  3  0  0  0  0  0  0
  -27.5550  -37.2850   24.7090 C   0  0  0  0  0  1  0  0  0  0  0  0
  -26.4460  -37.4490   23.7730 N   0  0  0  0  0  0  0  0  0  0  0  0
  -26.0300  -38.3630   23.9310 H   0  0  0  0  0  0  0  0  0  0  0  0
  -30.4850  -17.4800   18.2230 C   0  0  0  0  0  1  0  0  0  0  0  0
  -30.4070  -17.6030   19.7610 C   0  0  0  0  0  0  0  0  0  0  0  0
  -30.7320  -14.9820   20.1970 C   0  0  0  0  0  0  0  0  0  0  0  0
  -30.5250  -12.6690   19.2300 C   0  0  0  0  0  2  0  0  0  0  0  0
  -29.5820  -12.6970   18.0070 C   0  0  0  0  0  2  0  0  0  0  0  0
  -28.1190  -12.5100   18.4510 C   0  0  0  0  0  2  0  0  0  0  0  0
  -27.7460  -13.4120   19.6580 C   0  0  0  0  0  3  0  0  0  0  0  0
  -28.8140  -13.3780   20.7720 C   0  0  0  0  0  2  0  0  0  0  0  0
  -30.0910  -13.7520   20.1560 N   0  0  0  0  0  0  0  0  0  0  0  0
  -31.9310  -15.0100   19.9020 O   0  0  0  0  0  0  0  0  0  0  0  0
  -30.0030  -16.1900   20.3000 N   0  0  0  0  0  4  0  0  0  0  0  0
  -29.0340  -16.0890   20.5580 H   0  0  0  0  0  0  0  0  0  0  0  0
  -25.3710  -13.9950   20.4140 C   0  0  0  0  0  0  0  0  0  0  0  0
  -24.3080  -13.2210   20.7930 C   0  0  0  0  0  0  0  0  0  0  0  0
  -24.7720  -11.8700   20.7600 C   0  0  0  0  0  0  0  0  0  0  0  0
  -26.4120  -13.1160   20.1670 N   0  0  0  0  0  0  0  0  0  0  0  0
  -26.0600  -11.8320   20.4410 N   0  0  0  0  0  0  0  0  0  0  0  0
  -24.0440  -10.6090   20.9560 C   0  0  0  0  0  0  0  0  0  0  0  0
  -24.4710   -9.6470   21.8980 C   0  0  0  0  0  3  0  0  0  0  0  0
  -23.7420   -8.4530   22.0820 C   0  0  0  0  0  3  0  0  0  0  0  0
  -22.5720   -8.2100   21.3230 C   0  0  0  0  0  0  0  0  0  0  0  0
  -22.1650   -9.1600   20.3700 C   0  0  0  0  0  3  0  0  0  0  0  0
  -22.8940  -10.3460   20.1850 C   0  0  0  0  0  3  0  0  0  0  0  0
  -21.8160   -7.0660   21.4160 O   0  0  0  0  0  0  0  0  0  0  0  0
  -21.7420   -6.3450   22.5810 C   0  0  0  0  0  0  0  0  0  0  0  0
  -21.2810   -6.9190   23.7850 C   0  0  0  0  0  3  0  0  0  0  0  0
  -21.1550   -6.1240   24.9410 C   0  0  0  0  0  3  0  0  0  0  0  0
  -21.4790   -4.7550   24.8950 C   0  0  0  0  0  0  0  0  0  0  0  0
  -21.9330   -4.1800   23.6950 C   0  0  0  0  0  3  0  0  0  0  0  0
  -22.0610   -4.9720   22.5400 C   0  0  0  0  0  0  0  0  0  0  0  0
  -22.4780   -4.4090   21.3810 F   0  0  0  0  0  0  0  0  0  0  0  0
  -21.3510   -3.9890   26.0030 F   0  0  0  0  0  0  0  0  0  0  0  0
  -22.9140  -13.7010   21.0720 C   0  0  0  0  0  0  0  0  0  0  0  0
  -22.1930  -13.0130   21.9500 N   0  0  0  0  0  0  0  0  0  0  0  0
  -22.4720  -14.7210   20.5450 O   0  0  0  0  0  0  0  0  0  0  0  0
  -22.5640  -12.1870   22.3970 H   0  0  0  0  0  0  0  0  0  0  0  0
  -21.2580  -13.3160   22.1800 H   0  0  0  0  0  0  0  0  0  0  0  0
  -25.5330  -15.3660   20.2330 N   0  0  0  0  0  0  0  0  0  0  0  0
  -24.7630  -16.0160   20.3430 H   0  0  0  0  0  0  0  0  0  0  0  0
  -26.3680  -15.8030   19.8660 H   0  0  0  0  0  0  0  0  0  0  0  0
  1  3  1  0
  2  1  2  0
  2  4  1  0
  3  9  1  0
  3  5  2  0
  4  6  2  0
  5  7  1  0
  6  5  1  0
  6  8  1  0
  9 10  2  0
 11 12  1  0
 11  9  1  0
 13 24  2  0
 14 12  1  0
 14 19  1  0
 15 23  1  0
 15 25  1  0
 16 22  1  0
 16 18  1  0
 17 23  1  0
 18 17  1  0
 19 18  2  0
 20 14  2  0
 21 20  1  0
 21 16  2  0
 22 15  1  0
 23 13  1  0
 25 27  2  0
 26 25  1  0
 28 26  1  0
 29 38  2  0
 29 34  1  0
 30 26  1  0
 30 34  1  0
 31 30  1  0
 32 33  1  0
 32 31  1  0
 33 29  1  0
 34 35  2  0
 35 36  1  0
 37 36  2  0
 38 37  1  0
 39 13  1  0
 39 44  1  0
 39 40  1  0
 40 43  1  1
 40 41  1  0
 42 40  1  0
 44 47  1  0
 45 49  1  0
 45 44  1  0
 46 45  2  0
 49 48  1  0
 51 49  1  0
 51 52  1  0
 51 50  1  0
 53 54  1  0
 54  4  1  0
 54 63  2  0
 55 63  1  0
 56 61  1  0
 57 58  1  0
 57 56  1  0
 59 58  1  0
 59 68  1  0
 59 60  1  0
 61 55  1  0
 61 60  1  0
 62 55  2  0
 63 64  1  0
 65 66  2  0
 66 85  1  0
 67 66  1  0
 67 70  1  0
 68 65  1  0
 68 69  1  0
 69 67  2  0
 70 71  1  0
 71 72  2  0
 73 76  1  0
 73 72  1  0
 74 73  2  0
 75 74  1  0
 75 70  2  0
 76 77  1  0
 77 78  1  0
 78 79  2  0
 80 79  1  0
 80 84  1  0
 81 80  2  0
 82 77  2  0
 82 81  1  0
 83 82  1  0
 85 86  1  0
 86 89  1  0
 86 88  1  0
 87 85  2  0
 90 91  1  0
 90 65  1  0
 92 90  1  0
M  ISO  4  11 101  12 101  55 100  63 100
M  END
>  <TORSDO>  (58) 
F 19

>  <SCORE>  (58) 
-14.353

>  <name>  (58) 
59

>  <ligand_id>  (58) 
59

>  <original_smiles>  (58) 
[H]c1c([H])c([H])c2c(c1[H])C([H])([H])C([H])([H])C([H])([H])C2([H])N([H])C(=O)C1([H])N(C(=O)C([H])(N([H])C(=O)C([H])(N([H])C([H])([H])[H])C([H])([H])[H])C(C([H])([H])[H])(C([H])([H])[H])C([H])([H])[H])C([H])([H])c2c([H])c(OC([H])([H])C(=O)c3c([H])c([H])c(C([H])(N([H])C(=O)N4C([H])([H])C([H])([H])C([H])([H])C([H])(n5nc(-c6c([H])c([H])c(Oc7c([H])c([H])c(F)c([H])c7F)c([H])c6[H])c(C(=O)N([H])[H])c5N([H])[H])C4([H])[H])C([H])([H])[H])c(C([H])([H])[H])c3C([H])([H])[H])c([H])c([H])c2C1([H])[H]

>  <smiles>  (58) 
[H]c1c([H])c([H])c2c(c1[H])C([H])([H])C([H])([H])C([H])([H])C2([H])N([H])C(=O)C1([H])N(C(=O)C([H])(N([H])C(=O)C([H])(N([H])C([H])([H])[H])C([H])([H])[H])C(C([H])([H])[H])(C([H])([H])[H])C([H])([H])[H])C([H])([H])c2c([H])c(OC([H])([H])C(=O)c3c([H])c([H])c(C([H])(N([H])C(=O)N4C([H])([H])C([H])([H])C([H])([H])C([H])(n5nc(-c6c([H])c([H])c(Oc7c([H])c([H])c(F)c([H])c7F)c([H])c6[H])c(C(=O)N([H])[H])c5N([H])[H])C4([H])[H])C([H])([H])[H])c(C([H])([H])[H])c3C([H])([H])[H])c([H])c([H])c2C1([H])[H]

$$$$
60:0:0
     RDKit          3D

 92100  0  0  1  0  0  0  0  0999 V2000
  -29.6860  -20.5100   19.9170 N   0  0  0  0  0  4  0  0  0  0  0  0
  -30.5800  -20.9090   20.1560 H   0  0  0  0  0  0  0  0  0  0  0  0
  -29.6760  -20.3710   18.9180 H   0  0  0  0  0  0  0  0  0  0  0  0
  -28.6190  -21.5080   20.2300 C   0  0  0  0  0  2  0  0  0  0  0  0
  -29.1630  -22.9470   20.5080 C   0  0  0  0  0  2  0  0  0  0  0  0
  -28.2050  -24.1370   20.1670 C   0  0  0  0  0  2  0  0  0  0  0  0
  -28.5540  -25.4720   20.8940 C   0  0  0  0  0  2  0  0  0  0  0  0
  -28.4380  -26.6860   20.1260 O   0  0  0  0  0  0  0  0  0  0  0  0
  -24.6540  -31.8990   23.2550 C   0  0  0  0  0  0  0  0  0  0  0  0
  -27.2640  -27.4050   20.2030 C   0  0  0  0  0  0  0  0  0  0  0  0
  -23.4380  -30.4960   21.6190 C   0  0  0  0  0  3  0  0  0  0  0  0
  -24.8790  -28.9330   20.2090 C   0  0  0  0  0  0  0  0  0  0  0  0
  -25.9660  -30.8340   21.4150 C   0  0  0  0  0  2  0  0  0  0  0  0
  -26.0440  -29.4550   20.7890 C   0  0  0  0  0  0  0  0  0  0  0  0
  -27.2400  -28.7010   20.7770 C   0  0  0  0  0  3  0  0  0  0  0  0
  -26.0840  -26.8960   19.6240 C   0  0  0  0  0  3  0  0  0  0  0  0
  -24.8960  -27.6520   19.6230 C   0  0  0  0  0  3  0  0  0  0  0  0
  -23.6440  -29.8030   20.2450 C   0  0  0  0  0  2  0  0  0  0  0  0
  -24.7040  -31.0930   22.1540 N   0  0  0  0  0  0  0  0  0  0  0  0
  -23.5730  -32.1790   23.7950 O   0  0  0  0  0  0  0  0  0  0  0  0
  -22.7790  -29.4840   22.5870 C   0  0  0  0  0  0  0  0  0  0  0  0
  -21.4570  -29.3000   22.4540 N   0  0  0  0  0  0  0  0  0  0  0  0
  -23.4580  -28.8660   23.4120 O   0  0  0  0  0  0  0  0  0  0  0  0
  -20.9700  -29.8510   21.7590 H   0  0  0  0  0  0  0  0  0  0  0  0
  -18.0810  -28.1040   22.9310 C   0  0  0  0  0  0  0  0  0  0  0  0
  -20.6360  -28.3680   23.2260 C   0  0  0  0  0  3  0  0  0  0  0  0
  -20.7460  -26.9310   22.6640 C   0  0  0  0  0  2  0  0  0  0  0  0
  -19.6550  -26.5980   21.6430 C   0  0  0  0  0  2  0  0  0  0  0  0
  -18.2660  -26.7480   22.2700 C   0  0  0  0  0  2  0  0  0  0  0  0
  -19.1930  -28.8710   23.3660 C   0  0  0  0  0  0  0  0  0  0  0  0
  -18.9650  -30.1410   23.9380 C   0  0  0  0  0  3  0  0  0  0  0  0
  -17.6570  -30.6400   24.0850 C   0  0  0  0  0  3  0  0  0  0  0  0
  -16.5600  -29.8680   23.6680 C   0  0  0  0  0  3  0  0  0  0  0  0
  -16.7720  -28.6020   23.0950 C   0  0  0  0  0  3  0  0  0  0  0  0
  -25.9430  -32.5220   23.8720 C   0  0  0  0  0  3  0  0  0  0  0  0
  -25.6380  -33.9190   24.2120 N   0  0  0  0  0  0  0  0  0  0  0  0
  -25.9800  -34.9760   23.4650 C   0  0  0  0  0  0  0  0  0  0  0  0
  -26.6520  -34.8790   22.4340 O   0  0  0  0  0  0  0  0  0  0  0  0
  -25.0430  -34.0700   25.0130 H   0  0  0  0  0  0  0  0  0  0  0  0
  -24.2700  -36.7840   23.1020 C   0  0  0  0  0  1  0  0  0  0  0  0
  -25.4940  -36.3600   23.9290 C   0  0  0  0  0  3  0  0  0  0  0  0
  -27.6230  -37.2190   24.8020 C   0  0  0  0  0  1  0  0  0  0  0  0
  -26.5360  -37.4070   23.8450 N   0  0  0  0  0  0  0  0  0  0  0  0
  -26.1350  -38.3280   23.9980 H   0  0  0  0  0  0  0  0  0  0  0  0
  -26.4680  -31.7420   25.1400 C   0  0  1  0  0  0  0  0  0  0  0  0
  -25.3820  -31.5000   26.2130 C   0  0  0  0  0  1  0  0  0  0  0  0
  -27.0440  -30.3650   24.7310 C   0  0  0  0  0  1  0  0  0  0  0  0
  -27.6240  -32.5300   25.8000 C   0  0  0  0  0  1  0  0  0  0  0  0
  -29.6240  -19.1680   20.5840 C   0  0  0  0  0  2  0  0  0  0  0  0
  -30.4440  -17.6990   18.6640 C   0  0  0  0  0  1  0  0  0  0  0  0
  -32.0930  -18.9320   20.0640 C   0  0  0  0  0  1  0  0  0  0  0  0
  -30.7500  -18.1580   20.1040 C   0  0  1  0  0  0  0  0  0  0  0  0
  -30.8490  -14.5680   20.0810 C   0  0  0  0  0  0  0  0  0  0  0  0
  -30.4110  -12.4950   18.7850 C   0  0  0  0  0  2  0  0  0  0  0  0
  -29.3870  -12.7650   17.6630 C   0  0  0  0  0  2  0  0  0  0  0  0
  -27.9450  -12.5960   18.1880 C   0  0  0  0  0  2  0  0  0  0  0  0
  -27.7100  -13.3560   19.5220 C   0  0  0  0  0  3  0  0  0  0  0  0
  -28.8400  -13.0400   20.5230 C   0  0  0  0  0  2  0  0  0  0  0  0
  -30.1140  -13.4250   19.8950 N   0  0  0  0  0  0  0  0  0  0  0  0
  -31.9130  -14.7350   19.4770 O   0  0  0  0  0  0  0  0  0  0  0  0
  -30.4880  -16.8380   22.4860 C   0  0  0  0  0  2  0  0  0  0  0  0
  -29.7930  -15.5310   22.1580 C   0  0  0  0  0  2  0  0  0  0  0  0
  -31.0060  -16.9100   21.0540 C   0  0  0  0  0  3  0  0  0  0  0  0
  -30.3030  -15.6130   20.7820 N   0  0  0  0  0  0  0  0  0  0  0  0
  -25.3690  -13.9410   20.4140 C   0  0  0  0  0  0  0  0  0  0  0  0
  -24.3300  -13.1600   20.8420 C   0  0  0  0  0  0  0  0  0  0  0  0
  -24.7860  -11.8080   20.7450 C   0  0  0  0  0  0  0  0  0  0  0  0
  -26.3930  -13.0670   20.0880 N   0  0  0  0  0  0  0  0  0  0  0  0
  -26.0500  -11.7770   20.3390 N   0  0  0  0  0  0  0  0  0  0  0  0
  -24.0740  -10.5420   20.9560 C   0  0  0  0  0  0  0  0  0  0  0  0
  -24.5420   -9.5710   21.8690 C   0  0  0  0  0  3  0  0  0  0  0  0
  -23.8280   -8.3690   22.0610 C   0  0  0  0  0  3  0  0  0  0  0  0
  -22.6330   -8.1300   21.3430 C   0  0  0  0  0  0  0  0  0  0  0  0
  -22.1850   -9.0880   20.4190 C   0  0  0  0  0  3  0  0  0  0  0  0
  -22.9000  -10.2820   20.2210 C   0  0  0  0  0  3  0  0  0  0  0  0
  -21.8870   -6.9810   21.4480 O   0  0  0  0  0  0  0  0  0  0  0  0
  -21.8410   -6.2580   22.6140 C   0  0  0  0  0  0  0  0  0  0  0  0
  -21.4190   -6.8320   23.8330 C   0  0  0  0  0  3  0  0  0  0  0  0
  -21.3170   -6.0340   24.9910 C   0  0  0  0  0  3  0  0  0  0  0  0
  -21.6350   -4.6630   24.9320 C   0  0  0  0  0  0  0  0  0  0  0  0
  -22.0520   -4.0880   23.7170 C   0  0  0  0  0  3  0  0  0  0  0  0
  -22.1510   -4.8830   22.5620 C   0  0  0  0  0  0  0  0  0  0  0  0
  -22.5320   -4.3190   21.3900 F   0  0  0  0  0  0  0  0  0  0  0  0
  -21.5340   -3.8950   26.0420 F   0  0  0  0  0  0  0  0  0  0  0  0
  -22.9570  -13.6290   21.2260 C   0  0  0  0  0  0  0  0  0  0  0  0
  -22.2990  -12.9280   22.1430 N   0  0  0  0  0  0  0  0  0  0  0  0
  -22.4770  -14.6550   20.7450 O   0  0  0  0  0  0  0  0  0  0  0  0
  -22.7000  -12.1000   22.5590 H   0  0  0  0  0  0  0  0  0  0  0  0
  -21.3770  -13.2250   22.4310 H   0  0  0  0  0  0  0  0  0  0  0  0
  -25.5190  -15.3160   20.2620 N   0  0  0  0  0  0  0  0  0  0  0  0
  -24.7620  -15.9620   20.4570 H   0  0  0  0  0  0  0  0  0  0  0  0
  -26.3460  -15.7730   19.9000 H   0  0  0  0  0  0  0  0  0  0  0  0
  1  2  1  0
  1  4  1  0
  1 49  1  0
  3  1  1  0
  4  5  1  0
  6  5  1  0
  6  7  1  0
  8 10  1  0
  8  7  1  0
  9 20  2  0
 10 15  1  0
 11 19  1  0
 11 21  1  0
 12 18  1  0
 12 14  1  0
 13 19  1  0
 14 13  1  0
 15 14  2  0
 16 10  2  0
 17 16  1  0
 17 12  2  0
 18 11  1  0
 19  9  1  0
 21 23  2  0
 22 21  1  0
 24 22  1  0
 25 34  2  0
 25 30  1  0
 26 22  1  0
 26 30  1  0
 27 26  1  0
 28 29  1  0
 28 27  1  0
 29 25  1  0
 30 31  2  0
 31 32  1  0
 33 32  2  0
 34 33  1  0
 35  9  1  0
 35 36  1  0
 35 45  1  0
 36 39  1  0
 37 41  1  0
 37 36  1  0
 38 37  2  0
 41 40  1  0
 43 41  1  0
 43 44  1  0
 43 42  1  0
 45 48  1  1
 45 46  1  0
 47 45  1  0
 52 50  1  6
 51 52  1  0
 52 49  1  0
 53 64  1  0
 54 59  1  0
 55 56  1  0
 55 54  1  0
 57 56  1  0
 57 68  1  0
 57 58  1  0
 59 53  1  0
 59 58  1  0
 60 53  2  0
 62 61  1  0
 63 52  1  0
 63 61  1  0
 64 63  1  0
 64 62  1  0
 65 66  2  0
 66 85  1  0
 67 66  1  0
 67 70  1  0
 68 69  1  0
 68 65  1  0
 69 67  2  0
 70 71  1  0
 71 72  2  0
 73 76  1  0
 73 72  1  0
 74 73  2  0
 75 74  1  0
 75 70  2  0
 76 77  1  0
 77 78  1  0
 78 79  2  0
 80 79  1  0
 80 84  1  0
 81 80  2  0
 82 77  2  0
 82 81  1  0
 83 82  1  0
 85 86  1  0
 86 89  1  0
 86 88  1  0
 87 85  2  0
 90 65  1  0
 90 91  1  0
 92 90  1  0
M  ISO  4   7 101   8 101  53 100  64 100
M  END
>  <TORSDO>  (59) 
F 22

>  <SCORE>  (59) 
-12.064

>  <name>  (59) 
60

>  <ligand_id>  (59) 
60

>  <original_smiles>  (59) 
[H]c1c([H])c([H])c2c(c1[H])C([H])([H])C([H])([H])C([H])([H])C2([H])N([H])C(=O)C1([H])N(C(=O)C([H])(N([H])C(=O)C([H])(N([H])C([H])([H])[H])C([H])([H])[H])C(C([H])([H])[H])(C([H])([H])[H])C([H])([H])[H])C([H])([H])c2c([H])c(OC([H])([H])C([H])([H])C([H])([H])C([H])([H])[N+]([H])([H])C([H])([H])C(C([H])([H])[H])(C([H])([H])[H])C3([H])N(C(=O)N4C([H])([H])C([H])([H])C([H])([H])C([H])(n5nc(-c6c([H])c([H])c(Oc7c([H])c([H])c(F)c([H])c7F)c([H])c6[H])c(C(=O)N([H])[H])c5N([H])[H])C4([H])[H])C([H])([H])C3([H])[H])c([H])c([H])c2C1([H])[H]

>  <smiles>  (59) 
[H]c1c([H])c([H])c2c(c1[H])C([H])([H])C([H])([H])C([H])([H])C2([H])N([H])C(=O)C1([H])N(C(=O)C([H])(N([H])C(=O)C([H])(N([H])C([H])([H])[H])C([H])([H])[H])C(C([H])([H])[H])(C([H])([H])[H])C([H])([H])[H])C([H])([H])c2c([H])c(OC([H])([H])C([H])([H])C([H])([H])C([H])([H])[N+]([H])([H])C([H])([H])C(C([H])([H])[H])(C([H])([H])[H])C3([H])N(C(=O)N4C([H])([H])C([H])([H])C([H])([H])C([H])(n5nc(-c6c([H])c([H])c(Oc7c([H])c([H])c(F)c([H])c7F)c([H])c6[H])c(C(=O)N([H])[H])c5N([H])[H])C4([H])[H])C([H])([H])C3([H])[H])c([H])c([H])c2C1([H])[H]

$$$$
61:0:0
     RDKit          3D

 91 99  0  0  1  0  0  0  0  0999 V2000
  -30.2060  -20.5050   21.6030 C   0  0  0  0  0  2  0  0  0  0  0  0
  -28.0510  -20.4320   20.1990 C   0  0  0  0  0  2  0  0  0  0  0  0
  -30.4340  -21.9240   20.9860 C   0  0  0  0  0  2  0  0  0  0  0  0
  -28.4370  -21.8560   19.6680 C   0  0  0  0  0  2  0  0  0  0  0  0
  -29.1550  -19.5780   20.9170 C   0  0  0  0  0  3  0  0  0  0  0  0
  -29.1730  -22.6670   20.6800 N   0  0  2  0  0  4  0  0  0  0  0  0
  -28.6210  -22.6540   21.5270 H   0  0  0  0  0  0  0  0  0  0  0  0
  -29.6760  -18.2790   20.1850 C   0  0  0  0  0  0  0  0  0  0  0  0
  -29.4910  -18.1320   18.9740 O   0  0  0  0  0  0  0  0  0  0  0  0
  -30.3940  -17.1440   20.9950 C   0  0  0  0  0  2  0  0  0  0  0  0
  -30.6580  -14.6620   20.3300 C   0  0  0  0  0  0  0  0  0  0  0  0
  -30.3830  -12.4600   19.2140 C   0  0  0  0  0  2  0  0  0  0  0  0
  -29.4290  -12.6160   18.0110 C   0  0  0  0  0  2  0  0  0  0  0  0
  -27.9600  -12.4680   18.4550 C   0  0  0  0  0  2  0  0  0  0  0  0
  -27.6240  -13.3210   19.7080 C   0  0  0  0  0  3  0  0  0  0  0  0
  -28.6910  -13.1440   20.8100 C   0  0  0  0  0  2  0  0  0  0  0  0
  -29.9970  -13.4700   20.2170 N   0  0  0  0  0  0  0  0  0  0  0  0
  -31.8210  -14.7950   19.9400 O   0  0  0  0  0  0  0  0  0  0  0  0
  -29.9280  -15.7380   20.7380 N   0  0  0  0  0  0  0  0  0  0  0  0
  -28.9610  -15.5510   20.9550 H   0  0  0  0  0  0  0  0  0  0  0  0
  -25.2370  -13.9320   20.4370 C   0  0  0  0  0  0  0  0  0  0  0  0
  -24.1690  -13.1640   20.8170 C   0  0  0  0  0  0  0  0  0  0  0  0
  -24.6270  -11.8100   20.7900 C   0  0  0  0  0  0  0  0  0  0  0  0
  -26.2770  -13.0470   20.2020 N   0  0  0  0  0  0  0  0  0  0  0  0
  -25.9160  -11.7660   20.4750 N   0  0  0  0  0  0  0  0  0  0  0  0
  -23.8970  -10.5510   20.9890 C   0  0  0  0  0  0  0  0  0  0  0  0
  -24.3340   -9.5840   21.9210 C   0  0  0  0  0  3  0  0  0  0  0  0
  -23.6050   -8.3890   22.1060 C   0  0  0  0  0  3  0  0  0  0  0  0
  -22.4250   -8.1540   21.3620 C   0  0  0  0  0  0  0  0  0  0  0  0
  -22.0080   -9.1100   20.4190 C   0  0  0  0  0  3  0  0  0  0  0  0
  -22.7380  -10.2960   20.2310 C   0  0  0  0  0  3  0  0  0  0  0  0
  -21.6680   -7.0120   21.4580 O   0  0  0  0  0  0  0  0  0  0  0  0
  -21.6290   -6.2680   22.6100 C   0  0  0  0  0  0  0  0  0  0  0  0
  -21.2200   -6.8250   23.8420 C   0  0  0  0  0  3  0  0  0  0  0  0
  -21.1280   -6.0090   24.9860 C   0  0  0  0  0  3  0  0  0  0  0  0
  -21.4350   -4.6370   24.9020 C   0  0  0  0  0  0  0  0  0  0  0  0
  -21.8360   -4.0800   23.6750 C   0  0  0  0  0  3  0  0  0  0  0  0
  -21.9300   -4.8940   22.5310 C   0  0  0  0  0  0  0  0  0  0  0  0
  -22.2970   -4.3490   21.3470 F   0  0  0  0  0  0  0  0  0  0  0  0
  -21.3380   -3.8510   25.9990 F   0  0  0  0  0  0  0  0  0  0  0  0
  -22.7750  -13.6460   21.0930 C   0  0  0  0  0  0  0  0  0  0  0  0
  -22.0480  -12.9570   21.9660 N   0  0  0  0  0  0  0  0  0  0  0  0
  -22.3370  -14.6700   20.5680 O   0  0  0  0  0  0  0  0  0  0  0  0
  -22.4160  -12.1300   22.4120 H   0  0  0  0  0  0  0  0  0  0  0  0
  -21.1130  -13.2630   22.1930 H   0  0  0  0  0  0  0  0  0  0  0  0
  -25.4030  -15.3010   20.2500 N   0  0  0  0  0  0  0  0  0  0  0  0
  -24.6320  -15.9520   20.3490 H   0  0  0  0  0  0  0  0  0  0  0  0
  -26.2370  -15.7310   19.8710 H   0  0  0  0  0  0  0  0  0  0  0  0
  -29.4050  -24.1440   20.3540 C   0  0  0  0  0  3  0  0  0  0  0  0
  -28.1420  -25.0880   20.2070 C   0  0  0  0  0  3  0  0  0  0  0  0
  -28.3600  -26.5510   20.2290 O   0  0  0  0  0  0  0  0  0  0  0  0
  -24.6040  -31.9240   23.2400 C   0  0  0  0  0  0  0  0  0  0  0  0
  -27.2280  -27.3790   20.1900 C   0  0  0  0  0  0  0  0  0  0  0  0
  -23.4040  -30.5220   21.6000 C   0  0  0  0  0  3  0  0  0  0  0  0
  -24.8560  -28.9760   20.1810 C   0  0  0  0  0  0  0  0  0  0  0  0
  -25.9430  -30.8480   21.4190 C   0  0  0  0  0  2  0  0  0  0  0  0
  -26.0250  -29.4710   20.7740 C   0  0  0  0  0  0  0  0  0  0  0  0
  -27.2140  -28.6850   20.7650 C   0  0  0  0  0  3  0  0  0  0  0  0
  -26.0310  -26.9330   19.5780 C   0  0  0  0  0  3  0  0  0  0  0  0
  -24.8610  -27.7120   19.5760 C   0  0  0  0  0  3  0  0  0  0  0  0
  -23.6200  -29.8470   20.2220 C   0  0  0  0  0  2  0  0  0  0  0  0
  -24.6690  -31.1140   22.1440 N   0  0  0  0  0  0  0  0  0  0  0  0
  -23.5200  -32.2010   23.7730 O   0  0  0  0  0  0  0  0  0  0  0  0
  -22.7420  -29.5050   22.5600 C   0  0  0  0  0  0  0  0  0  0  0  0
  -21.4170  -29.3280   22.4320 N   0  0  0  0  0  0  0  0  0  0  0  0
  -23.4200  -28.8770   23.3770 O   0  0  0  0  0  0  0  0  0  0  0  0
  -20.9290  -29.8860   21.7450 H   0  0  0  0  0  0  0  0  0  0  0  0
  -18.0350  -28.1480   22.9370 C   0  0  0  0  0  0  0  0  0  0  0  0
  -20.5950  -28.3940   23.2040 C   0  0  0  0  0  3  0  0  0  0  0  0
  -20.6900  -26.9620   22.6270 C   0  0  0  0  0  2  0  0  0  0  0  0
  -19.5840  -26.6460   21.6140 C   0  0  0  0  0  2  0  0  0  0  0  0
  -18.2040  -26.7970   22.2600 C   0  0  0  0  0  2  0  0  0  0  0  0
  -19.1580  -28.9040   23.3660 C   0  0  0  0  0  0  0  0  0  0  0  0
  -18.9450  -30.1670   23.9580 C   0  0  0  0  0  3  0  0  0  0  0  0
  -17.6430  -30.6750   24.1270 C   0  0  0  0  0  3  0  0  0  0  0  0
  -16.5340  -29.9150   23.7130 C   0  0  0  0  0  3  0  0  0  0  0  0
  -16.7310  -28.6540   23.1250 C   0  0  0  0  0  3  0  0  0  0  0  0
  -25.8870  -32.5570   23.8630 C   0  0  0  0  0  3  0  0  0  0  0  0
  -26.4000  -31.7870   25.1420 C   0  0  1  0  0  0  0  0  0  0  0  0
  -25.3050  -31.5510   26.2080 C   0  0  0  0  0  1  0  0  0  0  0  0
  -26.9840  -30.4100   24.7530 C   0  0  0  0  0  1  0  0  0  0  0  0
  -27.5490  -32.5840   25.8050 C   0  0  0  0  0  1  0  0  0  0  0  0
  -25.5760  -33.9550   24.1910 N   0  0  0  0  0  0  0  0  0  0  0  0
  -25.9070  -35.0070   23.4310 C   0  0  0  0  0  0  0  0  0  0  0  0
  -26.5760  -34.9030   22.3990 O   0  0  0  0  0  0  0  0  0  0  0  0
  -24.9820  -34.1110   24.9920 H   0  0  0  0  0  0  0  0  0  0  0  0
  -24.1780  -36.7980   23.0730 C   0  0  0  0  0  1  0  0  0  0  0  0
  -25.4180  -36.3960   23.8860 C   0  0  0  0  0  3  0  0  0  0  0  0
  -27.5520  -37.2820   24.7180 C   0  0  0  0  0  1  0  0  0  0  0  0
  -26.4500  -37.4490   23.7730 N   0  0  0  0  0  0  0  0  0  0  0  0
  -26.0430  -38.3700   23.9190 H   0  0  0  0  0  0  0  0  0  0  0  0
  2  5  1  0
  3  1  1  0
  4  2  1  0
  4  6  1  0
  5  8  1  0
  5  1  1  0
  6  3  1  0
  6  7  1  1
  8 10  1  0
  9  8  2  0
 11 19  1  0
 12 17  1  0
 13 14  1  0
 13 12  1  0
 15 14  1  0
 15 24  1  0
 15 16  1  0
 17 11  1  0
 17 16  1  0
 18 11  2  0
 19 20  1  0
 19 10  1  0
 21 22  2  0
 22 41  1  0
 23 22  1  0
 23 26  1  0
 24 21  1  0
 24 25  1  0
 25 23  2  0
 26 27  1  0
 27 28  2  0
 29 32  1  0
 29 28  1  0
 30 29  2  0
 31 30  1  0
 31 26  2  0
 32 33  1  0
 33 34  1  0
 34 35  2  0
 36 35  1  0
 36 40  1  0
 37 36  2  0
 38 33  2  0
 38 37  1  0
 39 38  1  0
 41 42  1  0
 42 45  1  0
 42 44  1  0
 43 41  2  0
 46 47  1  0
 46 21  1  0
 48 46  1  0
 49  6  1  0
 50 51  1  0
 50 49  2  0
 52 63  2  0
 53 51  1  0
 53 58  1  0
 54 62  1  0
 54 64  1  0
 55 61  1  0
 55 57  1  0
 56 62  1  0
 57 56  1  0
 58 57  2  0
 59 53  2  0
 60 59  1  0
 60 55  2  0
 61 54  1  0
 62 52  1  0
 64 66  2  0
 65 64  1  0
 67 65  1  0
 68 77  2  0
 68 73  1  0
 69 65  1  0
 69 73  1  0
 70 69  1  0
 71 72  1  0
 71 70  1  0
 72 68  1  0
 73 74  2  0
 74 75  1  0
 76 75  2  0
 77 76  1  0
 78 52  1  0
 78 83  1  0
 78 79  1  0
 79 82  1  1
 79 80  1  0
 81 79  1  0
 83 86  1  0
 84 88  1  0
 84 83  1  0
 85 84  2  0
 88 87  1  0
 90 88  1  0
 90 91  1  0
 90 89  1  0
M  ISO  4  11 100  19 100  50 101  51 101
M  END
>  <TORSDO>  (60) 
F 20

>  <SCORE>  (60) 
-13.794

>  <name>  (60) 
61

>  <ligand_id>  (60) 
61

>  <original_smiles>  (60) 
[H]c1c([H])c([H])c2c(c1[H])C([H])([H])C([H])([H])C([H])([H])C2([H])N([H])C(=O)C1([H])N(C(=O)C([H])(N([H])C(=O)C([H])(N([H])C([H])([H])[H])C([H])([H])[H])C(C([H])([H])[H])(C([H])([H])[H])C([H])([H])[H])C([H])([H])c2c([H])c(OC([H])([H])C([H])([H])[N+]3([H])C([H])([H])C([H])([H])C([H])(C(=O)C([H])([H])N([H])C(=O)N4C([H])([H])C([H])([H])C([H])([H])C([H])(n5nc(-c6c([H])c([H])c(Oc7c([H])c([H])c(F)c([H])c7F)c([H])c6[H])c(C(=O)N([H])[H])c5N([H])[H])C4([H])[H])C([H])([H])C3([H])[H])c([H])c([H])c2C1([H])[H]

>  <smiles>  (60) 
[H]c1c([H])c([H])c2c(c1[H])C([H])([H])C([H])([H])C([H])([H])C2([H])N([H])C(=O)C1([H])N(C(=O)C([H])(N([H])C(=O)C([H])(N([H])C([H])([H])[H])C([H])([H])[H])C(C([H])([H])[H])(C([H])([H])[H])C([H])([H])[H])C([H])([H])c2c([H])c(OC([H])([H])C([H])([H])[N+]3([H])C([H])([H])C([H])([H])C([H])(C(=O)C([H])([H])N([H])C(=O)N4C([H])([H])C([H])([H])C([H])([H])C([H])(n5nc(-c6c([H])c([H])c(Oc7c([H])c([H])c(F)c([H])c7F)c([H])c6[H])c(C(=O)N([H])[H])c5N([H])[H])C4([H])[H])C([H])([H])C3([H])[H])c([H])c([H])c2C1([H])[H]

$$$$
62:0:0
     RDKit          3D

 94103  0  0  1  0  0  0  0  0999 V2000
  -29.6850  -18.3200   20.7140 C   0  0  0  0  0  0  0  0  0  0  0  0
  -27.6640  -21.1360   19.7780 C   0  0  0  0  0  2  0  0  0  0  0  0
  -30.7320  -20.6160   20.4760 C   0  0  0  0  0  2  0  0  0  0  0  0
  -27.9410  -22.6450   19.7460 C   0  0  0  0  0  2  0  0  0  0  0  0
  -28.6340  -20.6140   20.8160 C   0  0  0  0  0  3  0  0  0  0  0  0
  -29.7270  -21.6750   21.0200 C   0  0  0  0  0  3  0  0  0  0  0  0
  -29.6250  -19.6730   20.2620 N   0  0  0  0  0  0  0  0  0  0  0  0
  -29.3610  -22.8550   20.1440 N   0  0  2  0  0  4  0  0  0  0  0  0
  -29.0250  -17.9630   21.6920 O   0  0  0  0  0  0  0  0  0  0  0  0
  -29.9190  -22.7610   19.3070 H   0  0  0  0  0  0  0  0  0  0  0  0
  -29.6030  -24.2360   20.7340 C   0  0  0  0  0  2  0  0  0  0  0  0
  -29.3430  -25.4620   19.7670 C   0  0  0  0  0  2  0  0  0  0  0  0
  -29.1130  -26.7790   20.3850 O   0  0  0  0  0  0  0  0  0  0  0  0
  -24.8150  -31.7340   23.2920 C   0  0  0  0  0  0  0  0  0  0  0  0
  -27.9060  -27.4790   20.2720 C   0  0  0  0  0  0  0  0  0  0  0  0
  -23.8090  -30.3280   21.5290 C   0  0  0  0  0  3  0  0  0  0  0  0
  -25.4390  -28.9200   20.1580 C   0  0  0  0  0  0  0  0  0  0  0  0
  -26.3270  -30.8090   21.5280 C   0  0  0  0  0  2  0  0  0  0  0  0
  -26.5300  -29.4640   20.8460 C   0  0  0  0  0  0  0  0  0  0  0  0
  -27.7600  -28.7540   20.8960 C   0  0  0  0  0  3  0  0  0  0  0  0
  -26.7830  -26.9790   19.5670 C   0  0  0  0  0  3  0  0  0  0  0  0
  -25.5670  -27.6830   19.5140 C   0  0  0  0  0  3  0  0  0  0  0  0
  -24.1510  -29.7140   20.1470 C   0  0  0  0  0  2  0  0  0  0  0  0
  -24.9980  -30.9720   22.1750 N   0  0  0  0  0  0  0  0  0  0  0  0
  -23.6850  -31.9280   23.7610 O   0  0  0  0  0  0  0  0  0  0  0  0
  -23.1510  -29.2380   22.4100 C   0  0  0  0  0  0  0  0  0  0  0  0
  -21.8390  -29.0210   22.2190 N   0  0  0  0  0  0  0  0  0  0  0  0
  -23.8220  -28.5930   23.2210 O   0  0  0  0  0  0  0  0  0  0  0  0
  -21.3610  -29.5940   21.5380 H   0  0  0  0  0  0  0  0  0  0  0  0
  -18.4720  -27.7600   22.5900 C   0  0  0  0  0  0  0  0  0  0  0  0
  -21.0230  -28.0230   22.9120 C   0  0  0  0  0  3  0  0  0  0  0  0
  -21.1460  -26.6370   22.2390 C   0  0  0  0  0  2  0  0  0  0  0  0
  -20.0630  -26.3810   21.1850 C   0  0  0  0  0  2  0  0  0  0  0  0
  -18.6710  -26.4670   21.8170 C   0  0  0  0  0  2  0  0  0  0  0  0
  -19.5760  -28.5000   23.0890 C   0  0  0  0  0  0  0  0  0  0  0  0
  -19.3380  -29.7130   23.7700 C   0  0  0  0  0  3  0  0  0  0  0  0
  -18.0260  -30.1860   23.9570 C   0  0  0  0  0  3  0  0  0  0  0  0
  -16.9340  -29.4430   23.4750 C   0  0  0  0  0  3  0  0  0  0  0  0
  -17.1580  -28.2320   22.7980 C   0  0  0  0  0  3  0  0  0  0  0  0
  -26.0160  -32.4150   24.0190 C   0  0  0  0  0  3  0  0  0  0  0  0
  -26.4350  -31.6790   25.3500 C   0  0  1  0  0  0  0  0  0  0  0  0
  -25.2530  -31.4180   26.3140 C   0  0  0  0  0  1  0  0  0  0  0  0
  -27.0970  -30.3170   25.0400 C   0  0  0  0  0  1  0  0  0  0  0  0
  -27.4900  -32.5210   26.1050 C   0  0  0  0  0  1  0  0  0  0  0  0
  -25.6330  -33.8070   24.2950 N   0  0  0  0  0  0  0  0  0  0  0  0
  -25.9810  -34.8560   23.5390 C   0  0  0  0  0  0  0  0  0  0  0  0
  -26.7270  -34.7590   22.5600 O   0  0  0  0  0  0  0  0  0  0  0  0
  -24.9740  -33.9540   25.0460 H   0  0  0  0  0  0  0  0  0  0  0  0
  -24.2090  -36.5680   23.0330 C   0  0  0  0  0  1  0  0  0  0  0  0
  -25.4120  -36.2340   23.9290 C   0  0  0  0  0  3  0  0  0  0  0  0
  -27.4450  -37.2330   24.8770 C   0  0  0  0  0  1  0  0  0  0  0  0
  -26.4080  -37.3250   23.8520 N   0  0  0  0  0  0  0  0  0  0  0  0
  -25.9560  -38.2320   23.9370 H   0  0  0  0  0  0  0  0  0  0  0  0
  -30.4270  -17.2130   19.8730 C   0  0  0  0  0  3  0  0  0  0  0  0
  -31.0010  -14.7280   20.1110 C   0  0  0  0  0  0  0  0  0  0  0  0
  -30.6890  -12.5310   19.0310 C   0  0  0  0  0  2  0  0  0  0  0  0
  -29.7210  -12.7250   17.8420 C   0  0  0  0  0  2  0  0  0  0  0  0
  -28.2550  -12.6110   18.3040 C   0  0  0  0  0  2  0  0  0  0  0  0
  -27.9560  -13.4540   19.5720 C   0  0  0  0  0  3  0  0  0  0  0  0
  -29.0360  -13.2420   20.6580 C   0  0  0  0  0  2  0  0  0  0  0  0
  -30.3450  -13.5340   20.0540 N   0  0  0  0  0  0  0  0  0  0  0  0
  -32.1560  -14.8610   19.6940 O   0  0  0  0  0  0  0  0  0  0  0  0
  -30.2270  -15.8120   20.3760 N   0  0  0  0  0  0  0  0  0  0  0  0
  -29.3210  -15.6280   20.7820 H   0  0  0  0  0  0  0  0  0  0  0  0
  -25.5920  -14.1060   20.3380 C   0  0  0  0  0  0  0  0  0  0  0  0
  -24.5180  -13.3540   20.7330 C   0  0  0  0  0  0  0  0  0  0  0  0
  -24.9520  -11.9930   20.6950 C   0  0  0  0  0  0  0  0  0  0  0  0
  -26.6120  -13.2030   20.0830 N   0  0  0  0  0  0  0  0  0  0  0  0
  -26.2340  -11.9290   20.3570 N   0  0  0  0  0  0  0  0  0  0  0  0
  -24.2040  -10.7450   20.9030 C   0  0  0  0  0  0  0  0  0  0  0  0
  -24.6140   -9.7900   21.8590 C   0  0  0  0  0  3  0  0  0  0  0  0
  -23.8680   -8.6060   22.0530 C   0  0  0  0  0  3  0  0  0  0  0  0
  -22.7000   -8.3710   21.2890 C   0  0  0  0  0  0  0  0  0  0  0  0
  -22.3100   -9.3140   20.3220 C   0  0  0  0  0  3  0  0  0  0  0  0
  -23.0560  -10.4890   20.1270 C   0  0  0  0  0  3  0  0  0  0  0  0
  -21.9280   -7.2400   21.3910 O   0  0  0  0  0  0  0  0  0  0  0  0
  -21.8320   -6.5360   22.5650 C   0  0  0  0  0  0  0  0  0  0  0  0
  -21.3360   -7.1270   23.7490 C   0  0  0  0  0  3  0  0  0  0  0  0
  -21.1900   -6.3510   24.9150 C   0  0  0  0  0  3  0  0  0  0  0  0
  -21.5290   -4.9840   24.9000 C   0  0  0  0  0  0  0  0  0  0  0  0
  -22.0160   -4.3930   23.7210 C   0  0  0  0  0  3  0  0  0  0  0  0
  -22.1660   -5.1670   22.5560 C   0  0  0  0  0  0  0  0  0  0  0  0
  -22.6170   -4.5870   21.4180 F   0  0  0  0  0  0  0  0  0  0  0  0
  -21.3800   -4.2350   26.0170 F   0  0  0  0  0  0  0  0  0  0  0  0
  -23.1370  -13.8600   21.0370 C   0  0  0  0  0  0  0  0  0  0  0  0
  -22.4180  -13.1820   21.9260 N   0  0  0  0  0  0  0  0  0  0  0  0
  -22.7040  -14.8870   20.5190 O   0  0  0  0  0  0  0  0  0  0  0  0
  -22.7800  -12.3500   22.3660 H   0  0  0  0  0  0  0  0  0  0  0  0
  -21.4920  -13.5020   22.1700 H   0  0  0  0  0  0  0  0  0  0  0  0
  -25.7800  -15.4720   20.1530 N   0  0  0  0  0  0  0  0  0  0  0  0
  -25.0280  -16.1410   20.2780 H   0  0  0  0  0  0  0  0  0  0  0  0
  -26.6170  -15.8900   19.7680 H   0  0  0  0  0  0  0  0  0  0  0  0
  -29.3270  -18.0280   17.3260 C   0  0  0  0  0  1  0  0  0  0  0  0
  -30.2080  -17.2120   18.3140 C   0  0  0  0  0  2  0  0  0  0  0  0
  1  9  2  0
  4  2  1  0
  4  8  1  0
  5  2  1  0
  5  6  1  0
  6  3  1  0
  7  3  1  0
  7  1  1  0
  7  5  1  0
  8 11  1  0
  8  6  1  0
  8 10  1  6
 12 13  1  0
 12 11  1  0
 14 25  2  0
 15 13  1  0
 15 20  1  0
 16 24  1  0
 16 26  1  0
 17 19  1  0
 18 24  1  0
 19 20  2  0
 19 18  1  0
 21 15  2  0
 22 21  1  0
 22 17  2  0
 23 17  1  0
 23 16  1  0
 24 14  1  0
 26 28  2  0
 27 26  1  0
 29 27  1  0
 30 39  2  0
 30 35  1  0
 31 27  1  0
 31 35  1  0
 32 31  1  0
 33 34  1  0
 33 32  1  0
 34 30  1  0
 35 36  2  0
 36 37  1  0
 38 37  2  0
 39 38  1  0
 40 14  1  0
 40 45  1  0
 40 41  1  0
 41 44  1  1
 41 42  1  0
 43 41  1  0
 45 48  1  0
 46 50  1  0
 46 45  1  0
 47 46  2  0
 50 49  1  0
 52 50  1  0
 52 53  1  0
 52 51  1  0
 54 94  1  0
 54 63  1  0
 54  1  1  0
 55 63  1  0
 56 61  1  0
 57 58  1  0
 57 56  1  0
 59 58  1  0
 59 68  1  0
 59 60  1  0
 61 55  1  0
 61 60  1  0
 62 55  2  0
 63 64  1  0
 65 66  2  0
 66 85  1  0
 67 66  1  0
 67 70  1  0
 68 65  1  0
 68 69  1  0
 69 67  2  0
 70 71  1  0
 71 72  2  0
 73 76  1  0
 73 72  1  0
 74 73  2  0
 75 74  1  0
 75 70  2  0
 76 77  1  0
 77 78  1  0
 78 79  2  0
 80 79  1  0
 80 84  1  0
 81 80  2  0
 82 77  2  0
 82 81  1  0
 83 82  1  0
 85 86  1  0
 86 89  1  0
 86 88  1  0
 87 85  2  0
 90 91  1  0
 90 65  1  0
 92 90  1  0
 93 94  1  0
M  ISO  4  12 101  13 101  55 100  63 100
M  END
>  <TORSDO>  (61) 
F 20

>  <SCORE>  (61) 
-12.580

>  <name>  (61) 
62

>  <ligand_id>  (61) 
62

>  <original_smiles>  (61) 
[H]c1c([H])c([H])c2c(c1[H])C([H])([H])C([H])([H])C([H])([H])C2([H])N([H])C(=O)C1([H])N(C(=O)C([H])(N([H])C(=O)C([H])(N([H])C([H])([H])[H])C([H])([H])[H])C(C([H])([H])[H])(C([H])([H])[H])C([H])([H])[H])C([H])([H])c2c([H])c(OC([H])([H])C([H])([H])[N+]3([H])C([H])([H])C([H])([H])C4([H])N(C(=O)C([H])(N([H])C(=O)N5C([H])([H])C([H])([H])C([H])([H])C([H])(n6nc(-c7c([H])c([H])c(Oc8c([H])c([H])c(F)c([H])c8F)c([H])c7[H])c(C(=O)N([H])[H])c6N([H])[H])C5([H])[H])C([H])([H])C([H])([H])[H])C([H])([H])C43[H])c([H])c([H])c2C1([H])[H]

>  <smiles>  (61) 
[H]c1c([H])c([H])c2c(c1[H])C([H])([H])C([H])([H])C([H])([H])C2([H])N([H])C(=O)C1([H])N(C(=O)C([H])(N([H])C(=O)C([H])(N([H])C([H])([H])[H])C([H])([H])[H])C(C([H])([H])[H])(C([H])([H])[H])C([H])([H])[H])C([H])([H])c2c([H])c(OC([H])([H])C([H])([H])[N+]3([H])C([H])([H])C([H])([H])C4([H])N(C(=O)C([H])(N([H])C(=O)N5C([H])([H])C([H])([H])C([H])([H])C([H])(n6nc(-c7c([H])c([H])c(Oc8c([H])c([H])c(F)c([H])c8F)c([H])c7[H])c(C(=O)N([H])[H])c6N([H])[H])C5([H])[H])C([H])([H])C([H])([H])[H])C([H])([H])C43[H])c([H])c([H])c2C1([H])[H]

$$$$
63:0:0
     RDKit          3D

 96104  0  0  1  0  0  0  0  0999 V2000
  -29.2920  -22.0170   23.8450 C   0  0  0  0  0  2  0  0  0  0  0  0
  -30.1740  -21.9570   22.6220 C   0  0  0  0  0  3  0  0  0  0  0  0
  -29.7050  -23.2960   23.1470 C   0  0  0  0  0  3  0  0  0  0  0  0
  -31.6260  -21.5440   22.7580 C   0  0  0  0  0  2  0  0  0  0  0  0
  -31.7780  -20.0250   22.9240 C   0  0  0  0  0  2  0  0  0  0  0  0
  -31.9180  -18.4200   21.0420 C   0  0  0  0  0  0  0  0  0  0  0  0
  -32.4130  -19.4430   21.7490 N   0  0  0  0  0  0  0  0  0  0  0  0
  -30.9700  -17.7350   21.4250 O   0  0  0  0  0  0  0  0  0  0  0  0
  -33.2300  -19.9150   21.3830 H   0  0  0  0  0  0  0  0  0  0  0  0
  -32.5610  -18.1450   19.6830 C   0  0  0  0  0  2  0  0  0  0  0  0
  -31.5160  -17.8130   18.5920 C   0  0  0  0  0  2  0  0  0  0  0  0
  -31.2720  -15.3500   18.2720 C   0  0  0  0  0  0  0  0  0  0  0  0
  -31.4150  -12.9360   18.7340 C   0  0  0  0  0  2  0  0  0  0  0  0
  -30.5210  -12.0700   17.8310 C   0  0  0  0  0  2  0  0  0  0  0  0
  -29.1060  -11.9500   18.4240 C   0  0  0  0  0  2  0  0  0  0  0  0
  -28.5040  -13.3310   18.7930 C   0  0  0  0  0  3  0  0  0  0  0  0
  -29.5030  -14.1680   19.6270 C   0  0  0  0  0  2  0  0  0  0  0  0
  -30.7850  -14.2510   18.8990 N   0  0  0  0  0  0  0  0  0  0  0  0
  -32.1430  -15.3080   17.3980 O   0  0  0  0  0  0  0  0  0  0  0  0
  -30.8800  -16.5110   18.8100 N   0  0  0  0  0  0  0  0  0  0  0  0
  -30.1620  -16.4550   19.5170 H   0  0  0  0  0  0  0  0  0  0  0  0
  -26.3430  -14.1650   19.9270 C   0  0  0  0  0  0  0  0  0  0  0  0
  -25.2570  -13.4990   20.4300 C   0  0  0  0  0  0  0  0  0  0  0  0
  -25.5250  -12.1100   20.2430 C   0  0  0  0  0  0  0  0  0  0  0  0
  -27.2160  -13.1860   19.4740 N   0  0  0  0  0  0  0  0  0  0  0  0
  -26.7330  -11.9390   19.7180 N   0  0  0  0  0  0  0  0  0  0  0  0
  -24.6780  -10.9330   20.4820 C   0  0  0  0  0  0  0  0  0  0  0  0
  -25.0290   -9.9500   21.4320 C   0  0  0  0  0  3  0  0  0  0  0  0
  -24.1870   -8.8380   21.6550 C   0  0  0  0  0  3  0  0  0  0  0  0
  -22.9810   -8.7040   20.9290 C   0  0  0  0  0  0  0  0  0  0  0  0
  -22.6500   -9.6730   19.9660 C   0  0  0  0  0  3  0  0  0  0  0  0
  -23.4910  -10.7760   19.7410 C   0  0  0  0  0  3  0  0  0  0  0  0
  -22.1150   -7.6440   21.0600 O   0  0  0  0  0  0  0  0  0  0  0  0
  -21.8280   -7.0980   22.2850 C   0  0  0  0  0  0  0  0  0  0  0  0
  -21.3120   -7.8760   23.3450 C   0  0  0  0  0  3  0  0  0  0  0  0
  -20.9630   -7.2610   24.5650 C   0  0  0  0  0  3  0  0  0  0  0  0
  -21.1240   -5.8710   24.7250 C   0  0  0  0  0  0  0  0  0  0  0  0
  -21.6340   -5.0960   23.6690 C   0  0  0  0  0  3  0  0  0  0  0  0
  -21.9810   -5.7070   22.4520 C   0  0  0  0  0  0  0  0  0  0  0  0
  -22.4520   -4.9510   21.4300 F   0  0  0  0  0  0  0  0  0  0  0  0
  -20.7830   -5.2790   25.8940 F   0  0  0  0  0  0  0  0  0  0  0  0
  -23.9980  -14.1200   20.9620 C   0  0  0  0  0  0  0  0  0  0  0  0
  -23.3700  -13.4830   21.9450 N   0  0  0  0  0  0  0  0  0  0  0  0
  -23.5900  -15.2000   20.5390 O   0  0  0  0  0  0  0  0  0  0  0  0
  -23.7150  -12.6090   22.3100 H   0  0  0  0  0  0  0  0  0  0  0  0
  -22.5290  -13.8810   22.3400 H   0  0  0  0  0  0  0  0  0  0  0  0
  -26.6540  -15.5150   19.8040 N   0  0  0  0  0  0  0  0  0  0  0  0
  -25.9990  -16.2420   20.0700 H   0  0  0  0  0  0  0  0  0  0  0  0
  -27.4990  -15.8780   19.3820 H   0  0  0  0  0  0  0  0  0  0  0  0
  -28.6500  -24.1430   22.4620 C   0  0  0  0  0  2  0  0  0  0  0  0
  -29.0600  -24.5510   21.1040 N   0  0  0  0  0  4  0  0  0  0  0  0
  -28.9830  -23.7540   20.4900 H   0  0  0  0  0  0  0  0  0  0  0  0
  -30.0310  -24.8180   21.1290 H   0  0  0  0  0  0  0  0  0  0  0  0
  -28.2800  -25.6940   20.5810 C   0  0  0  0  0  2  0  0  0  0  0  0
  -28.6470  -26.0750   19.1300 C   0  0  0  0  0  2  0  0  0  0  0  0
  -28.3690  -27.4540   18.8770 O   0  0  0  0  0  0  0  0  0  0  0  0
  -24.4920  -31.3980   23.3010 C   0  0  0  0  0  0  0  0  0  0  0  0
  -27.1100  -27.9370   19.1490 C   0  0  0  0  0  0  0  0  0  0  0  0
  -23.2070  -30.1020   21.6310 C   0  0  0  0  0  3  0  0  0  0  0  0
  -24.5810  -29.0190   19.7750 C   0  0  0  0  0  0  0  0  0  0  0  0
  -25.6000  -30.8540   21.1380 C   0  0  0  0  0  2  0  0  0  0  0  0
  -25.7410  -29.6210   20.2720 C   0  0  0  0  0  0  0  0  0  0  0  0
  -27.0060  -29.0850   19.9590 C   0  0  0  0  0  3  0  0  0  0  0  0
  -25.9320  -27.3400   18.6460 C   0  0  0  0  0  3  0  0  0  0  0  0
  -24.6690  -27.8710   18.9660 C   0  0  0  0  0  3  0  0  0  0  0  0
  -23.2670  -29.6670   20.1410 C   0  0  0  0  0  2  0  0  0  0  0  0
  -24.4580  -30.7950   22.0780 N   0  0  0  0  0  0  0  0  0  0  0  0
  -23.4910  -31.4270   24.0300 O   0  0  0  0  0  0  0  0  0  0  0  0
  -22.8480  -28.8680   22.4890 C   0  0  0  0  0  0  0  0  0  0  0  0
  -21.6830  -28.2630   22.2060 N   0  0  0  0  0  0  0  0  0  0  0  0
  -23.6190  -28.4560   23.3580 O   0  0  0  0  0  0  0  0  0  0  0  0
  -21.1060  -28.6650   21.4800 H   0  0  0  0  0  0  0  0  0  0  0  0
  -19.1030  -25.7430   22.0030 C   0  0  0  0  0  0  0  0  0  0  0  0
  -21.1590  -27.0610   22.8520 C   0  0  0  0  0  3  0  0  0  0  0  0
  -21.9910  -25.8150   22.4660 C   0  0  0  0  0  2  0  0  0  0  0  0
  -21.4230  -25.0660   21.2580 C   0  0  0  0  0  2  0  0  0  0  0  0
  -19.9900  -24.6030   21.5330 C   0  0  0  0  0  2  0  0  0  0  0  0
  -19.6530  -26.9040   22.6080 C   0  0  0  0  0  0  0  0  0  0  0  0
  -18.7860  -27.9500   22.9940 C   0  0  0  0  0  3  0  0  0  0  0  0
  -17.3980  -27.8480   22.7890 C   0  0  0  0  0  3  0  0  0  0  0  0
  -16.8570  -26.6890   22.2040 C   0  0  0  0  0  3  0  0  0  0  0  0
  -17.7100  -25.6400   21.8170 C   0  0  0  0  0  3  0  0  0  0  0  0
  -25.7810  -32.1020   23.8310 C   0  0  0  0  0  3  0  0  0  0  0  0
  -26.4110  -31.3830   25.0880 C   0  0  1  0  0  0  0  0  0  0  0  0
  -25.3920  -31.0930   26.2150 C   0  0  0  0  0  1  0  0  0  0  0  0
  -27.0560  -30.0380   24.6770 C   0  0  0  0  0  1  0  0  0  0  0  0
  -27.5440  -32.2560   25.6760 C   0  0  0  0  0  1  0  0  0  0  0  0
  -25.4260  -33.4910   24.1490 N   0  0  0  0  0  0  0  0  0  0  0  0
  -25.7440  -34.5480   23.3920 C   0  0  0  0  0  0  0  0  0  0  0  0
  -26.4350  -34.4590   22.3750 O   0  0  0  0  0  0  0  0  0  0  0  0
  -24.8080  -33.6300   24.9350 H   0  0  0  0  0  0  0  0  0  0  0  0
  -23.9840  -36.2990   22.9840 C   0  0  0  0  0  1  0  0  0  0  0  0
  -25.2100  -35.9260   23.8330 C   0  0  0  0  0  3  0  0  0  0  0  0
  -27.2980  -36.8600   24.7210 C   0  0  0  0  0  1  0  0  0  0  0  0
  -26.2200  -37.0030   23.7480 N   0  0  0  0  0  0  0  0  0  0  0  0
  -25.7890  -37.9150   23.8840 H   0  0  0  0  0  0  0  0  0  0  0  0
  2  4  1  0
  2  3  1  0
  2  1  1  0
  3 50  1  0
  3  1  1  0
  4  5  1  0
  6  8  2  0
  6  7  1  0
  7  5  1  0
  9  7  1  0
 10  6  1  0
 11 20  1  0
 11 10  1  0
 12 20  1  0
 12 18  1  0
 13 18  1  0
 14 15  1  0
 14 13  1  0
 16 15  1  0
 16 25  1  0
 16 17  1  0
 18 17  1  0
 19 12  2  0
 20 21  1  0
 22 23  2  0
 23 42  1  0
 24 23  1  0
 24 27  1  0
 25 26  1  0
 25 22  1  0
 26 24  2  0
 27 28  1  0
 28 29  2  0
 30 33  1  0
 30 29  1  0
 31 30  2  0
 32 31  1  0
 32 27  2  0
 33 34  1  0
 34 39  2  0
 34 35  1  0
 35 36  2  0
 36 37  1  0
 37 41  1  0
 38 37  2  0
 39 38  1  0
 40 39  1  0
 42 43  1  0
 43 45  1  0
 43 46  1  0
 44 42  2  0
 47 22  1  0
 47 48  1  0
 49 47  1  0
 51 53  1  0
 51 50  1  0
 52 51  1  0
 54 51  1  0
 55 54  1  0
 56 55  1  0
 56 58  1  0
 57 68  2  0
 58 63  1  0
 59 67  1  0
 59 69  1  0
 60 66  1  0
 60 62  1  0
 61 67  1  0
 62 61  1  0
 63 62  2  0
 64 65  1  0
 64 58  2  0
 65 60  2  0
 66 59  1  0
 67 57  1  0
 69 71  2  0
 70 69  1  0
 72 70  1  0
 73 78  1  0
 74 70  1  0
 75 74  1  0
 76 77  1  0
 76 75  1  0
 77 73  1  0
 78 74  1  0
 78 79  2  0
 80 79  1  0
 81 80  2  0
 82 73  2  0
 82 81  1  0
 83 57  1  0
 83 88  1  0
 83 84  1  0
 84 87  1  1
 84 85  1  0
 86 84  1  0
 88 91  1  0
 89 93  1  0
 89 88  1  0
 90 89  2  0
 93 92  1  0
 95 93  1  0
 95 96  1  0
 95 94  1  0
M  ISO  4  12 100  20 100  55 101  56 101
M  END
>  <TORSDO>  (62) 
F 25

>  <SCORE>  (62) 
-9.201

>  <name>  (62) 
63

>  <ligand_id>  (62) 
63

>  <original_smiles>  (62) 
[H]c1c([H])c([H])c2c(c1[H])C([H])([H])C([H])([H])C([H])([H])C2([H])N([H])C(=O)C1([H])N(C(=O)C([H])(N([H])C(=O)C([H])(N([H])C([H])([H])[H])C([H])([H])[H])C(C([H])([H])[H])(C([H])([H])[H])C([H])([H])[H])C([H])([H])c2c([H])c(OC([H])([H])C([H])([H])[N+]([H])([H])C([H])([H])C3([H])C([H])([H])C3([H])C([H])([H])C([H])([H])N([H])C(=O)C([H])([H])C([H])([H])N([H])C(=O)N3C([H])([H])C([H])([H])C([H])([H])C([H])(n4nc(-c5c([H])c([H])c(Oc6c([H])c([H])c(F)c([H])c6F)c([H])c5[H])c(C(=O)N([H])[H])c4N([H])[H])C3([H])[H])c([H])c([H])c2C1([H])[H]

>  <smiles>  (62) 
[H]c1c([H])c([H])c2c(c1[H])C([H])([H])C([H])([H])C([H])([H])C2([H])N([H])C(=O)C1([H])N(C(=O)C([H])(N([H])C(=O)C([H])(N([H])C([H])([H])[H])C([H])([H])[H])C(C([H])([H])[H])(C([H])([H])[H])C([H])([H])[H])C([H])([H])c2c([H])c(OC([H])([H])C([H])([H])[N+]([H])([H])C([H])([H])C3([H])C([H])([H])C3([H])C([H])([H])C([H])([H])N([H])C(=O)C([H])([H])C([H])([H])N([H])C(=O)N3C([H])([H])C([H])([H])C([H])([H])C([H])(n4nc(-c5c([H])c([H])c(Oc6c([H])c([H])c(F)c([H])c6F)c([H])c5[H])c(C(=O)N([H])[H])c4N([H])[H])C3([H])[H])c([H])c([H])c2C1([H])[H]

$$$$
64:0:0
     RDKit          3D

 96105  0  0  1  0  0  0  0  0999 V2000
  -29.3720  -23.9000   23.1500 C   0  0  0  0  0  3  0  0  0  0  0  0
  -28.8570  -24.7760   22.1740 C   0  0  0  0  0  3  0  0  0  0  0  0
  -30.1960  -22.8190   22.7710 C   0  0  0  0  0  3  0  0  0  0  0  0
  -30.0150  -23.5160   20.4450 C   0  0  0  0  0  3  0  0  0  0  0  0
  -29.1810  -24.5860   20.8130 C   0  0  0  0  0  0  0  0  0  0  0  0
  -30.5150  -22.6140   21.4070 C   0  0  0  0  0  0  0  0  0  0  0  0
  -32.7640  -21.4430   21.5250 C   0  0  0  0  0  1  0  0  0  0  0  0
  -31.3400  -21.4160   20.9350 C   0  0  0  0  0  3  0  0  0  0  0  0
  -30.5970  -20.0850   21.1890 C   0  0  0  0  0  2  0  0  0  0  0  0
  -31.2570  -18.9330   20.5260 N   0  0  0  0  0  4  0  0  0  0  0  0
  -31.1800  -18.9850   19.5220 H   0  0  0  0  0  0  0  0  0  0  0  0
  -32.2370  -18.9890   20.7510 H   0  0  0  0  0  0  0  0  0  0  0  0
  -30.8270  -17.6010   21.0080 C   0  0  0  0  0  2  0  0  0  0  0  0
  -29.7010  -17.0880   18.5870 C   0  0  0  0  0  2  0  0  0  0  0  0
  -28.6360  -17.5280   19.5590 C   0  0  0  0  0  2  0  0  0  0  0  0
  -29.8820  -16.8310   20.0780 C   0  0  2  0  0  0  0  0  0  0  0  0
  -30.5540  -14.4650   20.4080 C   0  0  0  0  0  0  0  0  0  0  0  0
  -30.2840  -12.2900   19.3260 C   0  0  0  0  0  2  0  0  0  0  0  0
  -29.3310  -12.5170   18.1310 C   0  0  0  0  0  2  0  0  0  0  0  0
  -27.8550  -12.4060   18.5680 C   0  0  0  0  0  2  0  0  0  0  0  0
  -27.5340  -13.2280   19.8440 C   0  0  0  0  0  3  0  0  0  0  0  0
  -28.6010  -12.9890   20.9410 C   0  0  0  0  0  2  0  0  0  0  0  0
  -29.9240  -13.2660   20.3600 N   0  0  0  0  0  0  0  0  0  0  0  0
  -31.7180  -14.6470   20.0430 O   0  0  0  0  0  0  0  0  0  0  0  0
  -29.6980  -15.4890   20.5530 N   0  0  0  0  0  0  0  0  0  0  0  0
  -28.7670  -15.2340   20.8440 H   0  0  0  0  0  0  0  0  0  0  0  0
  -25.1450  -13.8460   20.5850 C   0  0  0  0  0  0  0  0  0  0  0  0
  -24.0780  -13.0770   20.9620 C   0  0  0  0  0  0  0  0  0  0  0  0
  -24.5350  -11.7230   20.9180 C   0  0  0  0  0  0  0  0  0  0  0  0
  -26.1840  -12.9610   20.3370 N   0  0  0  0  0  0  0  0  0  0  0  0
  -25.8200  -11.6800   20.5960 N   0  0  0  0  0  0  0  0  0  0  0  0
  -23.8080  -10.4630   21.1090 C   0  0  0  0  0  0  0  0  0  0  0  0
  -24.2660   -9.4760   22.0090 C   0  0  0  0  0  3  0  0  0  0  0  0
  -23.5410   -8.2790   22.1880 C   0  0  0  0  0  3  0  0  0  0  0  0
  -22.3420   -8.0620   21.4680 C   0  0  0  0  0  0  0  0  0  0  0  0
  -21.9020   -9.0380   20.5570 C   0  0  0  0  0  3  0  0  0  0  0  0
  -22.6290  -10.2280   20.3760 C   0  0  0  0  0  3  0  0  0  0  0  0
  -21.5850   -6.9180   21.5580 O   0  0  0  0  0  0  0  0  0  0  0  0
  -21.5930   -6.1370   22.6860 C   0  0  0  0  0  0  0  0  0  0  0  0
  -21.2590   -6.6590   23.9540 C   0  0  0  0  0  3  0  0  0  0  0  0
  -21.2100   -5.8070   25.0760 C   0  0  0  0  0  3  0  0  0  0  0  0
  -21.4870   -4.4330   24.9290 C   0  0  0  0  0  0  0  0  0  0  0  0
  -21.8170   -3.9120   23.6660 C   0  0  0  0  0  3  0  0  0  0  0  0
  -21.8660   -4.7620   22.5460 C   0  0  0  0  0  0  0  0  0  0  0  0
  -22.1610   -4.2510   21.3270 F   0  0  0  0  0  0  0  0  0  0  0  0
  -21.4340   -3.6110   26.0030 F   0  0  0  0  0  0  0  0  0  0  0  0
  -22.6850  -13.5590   21.2470 C   0  0  0  0  0  0  0  0  0  0  0  0
  -21.9600  -12.8670   22.1210 N   0  0  0  0  0  0  0  0  0  0  0  0
  -22.2440  -14.5840   20.7340 O   0  0  0  0  0  0  0  0  0  0  0  0
  -22.3220  -12.0400   22.5710 H   0  0  0  0  0  0  0  0  0  0  0  0
  -21.0250  -13.1780   22.3490 H   0  0  0  0  0  0  0  0  0  0  0  0
  -25.3100  -15.2180   20.4060 N   0  0  0  0  0  0  0  0  0  0  0  0
  -24.5420  -15.8700   20.5170 H   0  0  0  0  0  0  0  0  0  0  0  0
  -26.1290  -15.6430   19.9960 H   0  0  0  0  0  0  0  0  0  0  0  0
  -28.5890  -25.4630   19.7220 C   0  0  0  0  0  2  0  0  0  0  0  0
  -28.4420  -26.8200   20.1300 O   0  0  0  0  0  0  0  0  0  0  0  0
  -24.5990  -31.8860   23.2170 C   0  0  0  0  0  0  0  0  0  0  0  0
  -27.2190  -27.4600   20.1140 C   0  0  0  0  0  0  0  0  0  0  0  0
  -23.3730  -30.4850   21.5880 C   0  0  0  0  0  3  0  0  0  0  0  0
  -24.8100  -28.9460   20.1520 C   0  0  0  0  0  0  0  0  0  0  0  0
  -25.8930  -30.8500   21.3600 C   0  0  0  0  0  2  0  0  0  0  0  0
  -25.9700  -29.4760   20.7280 C   0  0  0  0  0  0  0  0  0  0  0  0
  -27.1680  -28.7360   20.7120 C   0  0  0  0  0  3  0  0  0  0  0  0
  -26.0360  -26.9380   19.5310 C   0  0  0  0  0  3  0  0  0  0  0  0
  -24.8400  -27.6760   19.5540 C   0  0  0  0  0  3  0  0  0  0  0  0
  -23.5670  -29.8030   20.2070 C   0  0  0  0  0  2  0  0  0  0  0  0
  -24.6420  -31.0880   22.1140 N   0  0  0  0  0  0  0  0  0  0  0  0
  -23.5250  -32.1620   23.7700 O   0  0  0  0  0  0  0  0  0  0  0  0
  -22.7330  -29.4660   22.5550 C   0  0  0  0  0  0  0  0  0  0  0  0
  -21.4070  -29.2820   22.4390 N   0  0  0  0  0  0  0  0  0  0  0  0
  -23.4240  -28.8380   23.3610 O   0  0  0  0  0  0  0  0  0  0  0  0
  -20.9110  -29.8410   21.7600 H   0  0  0  0  0  0  0  0  0  0  0  0
  -18.0400  -28.0900   22.9560 C   0  0  0  0  0  0  0  0  0  0  0  0
  -20.5990  -28.3490   23.2170 C   0  0  0  0  0  3  0  0  0  0  0  0
  -20.6990  -26.9160   22.6430 C   0  0  0  0  0  2  0  0  0  0  0  0
  -19.5910  -26.5920   21.6350 C   0  0  0  0  0  2  0  0  0  0  0  0
  -18.2120  -26.7390   22.2840 C   0  0  0  0  0  2  0  0  0  0  0  0
  -19.1600  -28.8530   23.3800 C   0  0  0  0  0  0  0  0  0  0  0  0
  -18.9460  -30.1190   23.9640 C   0  0  0  0  0  3  0  0  0  0  0  0
  -17.6410  -30.6230   24.1330 C   0  0  0  0  0  3  0  0  0  0  0  0
  -16.5350  -29.8570   23.7260 C   0  0  0  0  0  3  0  0  0  0  0  0
  -16.7350  -28.5930   23.1440 C   0  0  0  0  0  3  0  0  0  0  0  0
  -25.8950  -32.5140   23.8230 C   0  0  0  0  0  3  0  0  0  0  0  0
  -25.5910  -33.9050   24.1750 N   0  0  0  0  0  0  0  0  0  0  0  0
  -25.9050  -34.9660   23.4190 C   0  0  0  0  0  0  0  0  0  0  0  0
  -26.5600  -34.8760   22.3760 O   0  0  0  0  0  0  0  0  0  0  0  0
  -25.0080  -34.0510   24.9870 H   0  0  0  0  0  0  0  0  0  0  0  0
  -24.1620  -36.7530   23.1130 C   0  0  0  0  0  1  0  0  0  0  0  0
  -25.4200  -36.3480   23.8990 C   0  0  0  0  0  3  0  0  0  0  0  0
  -27.5670  -37.2330   24.6960 C   0  0  0  0  0  1  0  0  0  0  0  0
  -26.4450  -37.4080   23.7760 N   0  0  0  0  0  0  0  0  0  0  0  0
  -26.0370  -38.3230   23.9450 H   0  0  0  0  0  0  0  0  0  0  0  0
  -26.4400  -31.7270   25.0770 C   0  0  1  0  0  0  0  0  0  0  0  0
  -25.3730  -31.4780   26.1670 C   0  0  0  0  0  1  0  0  0  0  0  0
  -27.0110  -30.3530   24.6520 C   0  0  0  0  0  1  0  0  0  0  0  0
  -27.6060  -32.5120   25.7250 C   0  0  0  0  0  1  0  0  0  0  0  0
  2  1  2  0
  3  1  1  0
  4  5  2  0
  4  6  1  0
  5  2  1  0
  6  3  2  0
  8  9  1  0
  8  6  1  0
  8  7  1  0
 10 12  1  0
 10 13  1  0
 10  9  1  0
 11 10  1  0
 14 15  1  0
 14 16  1  0
 15 16  1  0
 16 25  1  0
 16 13  1  1
 17 25  1  0
 18 23  1  0
 19 20  1  0
 19 18  1  0
 21 20  1  0
 21 30  1  0
 21 22  1  0
 23 17  1  0
 23 22  1  0
 24 17  2  0
 25 26  1  0
 27 28  2  0
 28 47  1  0
 29 28  1  0
 29 32  1  0
 30 27  1  0
 30 31  1  0
 31 29  2  0
 32 33  1  0
 33 34  2  0
 35 38  1  0
 35 34  1  0
 36 35  2  0
 37 36  1  0
 37 32  2  0
 38 39  1  0
 39 40  1  0
 40 41  2  0
 42 41  1  0
 42 46  1  0
 43 42  2  0
 44 39  2  0
 44 43  1  0
 45 44  1  0
 47 48  1  0
 48 51  1  0
 48 50  1  0
 49 47  2  0
 52 53  1  0
 52 27  1  0
 54 52  1  0
 55 56  1  0
 55  5  1  0
 57 68  2  0
 58 56  1  0
 58 63  1  0
 59 67  1  0
 59 69  1  0
 60 66  1  0
 60 62  1  0
 61 67  1  0
 62 61  1  0
 63 62  2  0
 64 65  1  0
 64 58  2  0
 65 60  2  0
 66 59  1  0
 67 57  1  0
 69 71  2  0
 70 69  1  0
 72 70  1  0
 73 82  2  0
 73 78  1  0
 74 70  1  0
 74 78  1  0
 75 74  1  0
 76 77  1  0
 76 75  1  0
 77 73  1  0
 78 79  2  0
 79 80  1  0
 81 80  2  0
 82 81  1  0
 83 57  1  0
 83 84  1  0
 83 93  1  0
 84 87  1  0
 85 89  1  0
 85 84  1  0
 86 85  2  0
 89 88  1  0
 91 89  1  0
 91 92  1  0
 91 90  1  0
 93 96  1  1
 93 94  1  0
 95 93  1  0
M  ISO  4  17 100  25 100  55 101  56 101
M  END
>  <TORSDO>  (63) 
F 22

>  <SCORE>  (63) 
-13.104

>  <name>  (63) 
64

>  <ligand_id>  (63) 
64

>  <original_smiles>  (63) 
[H]c1c([H])c([H])c2c(c1[H])C([H])([H])C([H])([H])C([H])([H])C2([H])N([H])C(=O)C1([H])N(C(=O)C([H])(N([H])C(=O)C([H])(N([H])C([H])([H])[H])C([H])([H])[H])C(C([H])([H])[H])(C([H])([H])[H])C([H])([H])[H])C([H])([H])c2c([H])c(OC([H])([H])c3c([H])c([H])c([H])c(C([H])(C([H])([H])[H])C([H])([H])[N+]([H])([H])C([H])([H])C4(N([H])C(=O)N5C([H])([H])C([H])([H])C([H])([H])C([H])(n6nc(-c7c([H])c([H])c(Oc8c([H])c([H])c(F)c([H])c8F)c([H])c7[H])c(C(=O)N([H])[H])c6N([H])[H])C5([H])[H])C([H])([H])C4([H])[H])c3[H])c([H])c([H])c2C1([H])[H]

>  <smiles>  (63) 
[H]c1c([H])c([H])c2c(c1[H])C([H])([H])C([H])([H])C([H])([H])C2([H])N([H])C(=O)C1([H])N(C(=O)C([H])(N([H])C(=O)C([H])(N([H])C([H])([H])[H])C([H])([H])[H])C(C([H])([H])[H])(C([H])([H])[H])C([H])([H])[H])C([H])([H])c2c([H])c(OC([H])([H])c3c([H])c([H])c([H])c(C([H])(C([H])([H])[H])C([H])([H])[N+]([H])([H])C([H])([H])C4(N([H])C(=O)N5C([H])([H])C([H])([H])C([H])([H])C([H])(n6nc(-c7c([H])c([H])c(Oc8c([H])c([H])c(F)c([H])c8F)c([H])c7[H])c(C(=O)N([H])[H])c6N([H])[H])C5([H])[H])C([H])([H])C4([H])[H])c3[H])c([H])c([H])c2C1([H])[H]

$$$$
65:0:0
     RDKit          3D

 95100  0  0  1  0  0  0  0  0999 V2000
  -21.9530  -14.1270   19.6440 C   0  0  0  0  0  3  0  0  0  0  0  0
  -22.7930  -13.0080   19.0340 C   0  0  0  0  0  3  0  0  0  0  0  0
  -24.3870  -13.0150   22.7310 C   0  0  0  0  0  1  0  0  0  0  0  0
  -25.4680  -15.5040   20.3190 C   0  0  0  0  0 15  0  0  0  0  0  0
  -22.3810  -12.7560   20.8590 C   0  0  0  0  0  3  0  0  0  0  0  0
  -23.6400  -14.6770   19.0550 C   0  0  0  0  0  2  0  0  0  0  0  0
  -25.7980  -14.4140   22.0030 N   0  0  0  0  0  2  0  0  0  0  0  0
  -25.8380  -15.1130   22.7320 H   0  0  0  0  0  0  0  0  0  0  0  0
  -26.1970  -17.2220   19.6400 C   0  0  0  0  0  2  0  0  0  0  0  0
  -27.3930  -18.3070   19.5880 N   0  0  0  0  0  0  0  0  0  0  0  0
  -25.3560  -17.6230   18.8340 O   0  0  0  0  0  1  0  0  0  0  0  0
  -28.0960  -18.0580   20.2720 H   0  0  0  0  0  0  0  0  0  0  0  0
  -28.0650  -19.7570   18.6170 C   0  0  0  0  0  1  0  0  0  0  0  0
  -29.3730  -21.3370   18.5960 C   0  0  0  0  0  1  0  0  0  0  0  0
  -30.4980  -22.4900   17.6700 O   0  0  0  0  0  0  0  0  0  0  0  0
  -33.9790  -28.8670   20.3840 C   0  0  0  0  0  0  0  0  0  0  0  0
  -30.7680  -24.0280   17.7390 C   0  0  0  0  0  0  0  0  0  0  0  0
  -31.5590  -28.5050   20.3690 C   0  0  0  0  0  3  0  0  0  0  0  0
  -30.5860  -26.8590   18.6300 C   0  0  0  0  0  0  0  0  0  0  0  0
  -32.9460  -27.5550   18.4140 C   0  0  0  0  0  2  0  0  0  0  0  0
  -31.8440  -26.4310   18.2060 C   0  0  0  0  0  0  0  0  0  0  0  0
  -31.9370  -25.0130   17.7210 C   0  0  0  0  0  3  0  0  0  0  0  0
  -29.5820  -24.7280   17.9090 C   0  0  0  0  0  3  0  0  0  0  0  0
  -29.4770  -26.0450   18.3970 C   0  0  0  0  0  3  0  0  0  0  0  0
  -30.4230  -28.1900   19.3620 C   0  0  0  0  0  2  0  0  0  0  0  0
  -32.8980  -28.3230   19.7270 N   0  0  0  0  0  0  0  0  0  0  0  0
  -33.8590  -29.4360   21.4810 O   0  0  0  0  0  0  0  0  0  0  0  0
  -31.4080  -27.6460   21.6560 C   0  0  0  0  0  0  0  0  0  0  0  0
  -30.5510  -28.0680   22.6050 N   0  0  0  0  0  0  0  0  0  0  0  0
  -32.0630  -26.6060   21.7890 O   0  0  0  0  0  0  0  0  0  0  0  0
  -30.0720  -28.9470   22.4520 H   0  0  0  0  0  0  0  0  0  0  0  0
  -28.6010  -28.2280   25.6650 C   0  0  0  0  0  0  0  0  0  0  0  0
  -30.2410  -27.3670   23.8590 C   0  0  0  0  0  3  0  0  0  0  0  0
  -29.2170  -26.2310   23.6270 C   0  0  0  0  0  2  0  0  0  0  0  0
  -27.7650  -26.6690   23.8560 C   0  0  0  0  0  2  0  0  0  0  0  0
  -27.5790  -27.1690   25.2920 C   0  0  0  0  0  2  0  0  0  0  0  0
  -29.8440  -28.3310   24.9850 C   0  0  0  0  0  0  0  0  0  0  0  0
  -30.7440  -29.3500   25.3610 C   0  0  0  0  0  3  0  0  0  0  0  0
  -30.4160  -30.2580   26.3850 C   0  0  0  0  0  3  0  0  0  0  0  0
  -29.1870  -30.1440   27.0610 C   0  0  0  0  0  3  0  0  0  0  0  0
  -28.2870  -29.1260   26.7040 C   0  0  0  0  0  3  0  0  0  0  0  0
  -35.4200  -28.8190   19.7860 C   0  0  0  0  0  3  0  0  0  0  0  0
  -36.0760  -30.1130   20.0640 N   0  0  0  0  0  0  0  0  0  0  0  0
  -36.1890  -31.1320   19.2010 C   0  0  0  0  0  0  0  0  0  0  0  0
  -35.7840  -31.0590   18.0380 O   0  0  0  0  0  0  0  0  0  0  0  0
  -36.3850  -30.2540   21.0160 H   0  0  0  0  0  0  0  0  0  0  0  0
  -35.7730  -33.4690   20.0530 C   0  0  0  0  0  1  0  0  0  0  0  0
  -36.8550  -32.4350   19.6940 C   0  0  0  0  0  3  0  0  0  0  0  0
  -39.0050  -32.2280   18.5190 C   0  0  0  0  0  1  0  0  0  0  0  0
  -37.7970  -33.0260   18.7170 N   0  0  0  0  0  0  0  0  0  0  0  0
  -38.0780  -33.9600   19.0060 H   0  0  0  0  0  0  0  0  0  0  0  0
  -36.2940  -27.6460   20.3840 C   0  0  1  0  0  0  0  0  0  0  0  0
  -36.3330  -27.6170   21.9320 C   0  0  0  0  0  1  0  0  0  0  0  0
  -35.7740  -26.2720   19.9090 C   0  0  0  0  0  1  0  0  0  0  0  0
  -37.7500  -27.7610   19.8770 C   0  0  0  0  0  1  0  0  0  0  0  0
  -27.2520  -13.7450   22.0580 C   0  0  0  0  0  3  0  0  0  0  0  0
  -28.6190  -14.1720   21.1430 C   0  0  0  0  0  3  0  0  0  0  0  0
  -30.8720  -12.4850   20.5370 C   0  0  0  0  0  0  0  0  0  0  0  0
  -30.7800  -10.0120   19.9100 C   0  0  0  0  0  2  0  0  0  0  0  0
  -29.8820   -9.8460   18.6470 C   0  0  0  0  0  2  0  0  0  0  0  0
  -28.4010   -9.9760   18.9960 C   0  0  0  0  0  2  0  0  0  0  0  0
  -28.2080  -11.0960   19.9970 C   0  0  0  0  0  3  0  0  0  0  0  0
  -29.0880  -10.9920   21.2370 C   0  0  0  0  0  2  0  0  0  0  0  0
  -30.3840  -11.2160   20.6910 N   0  0  0  0  0  0  0  0  0  0  0  0
  -31.9970  -12.5800   20.0120 O   0  0  0  0  0  0  0  0  0  0  0  0
  -30.1080  -13.5940   21.0090 N   0  0  0  0  0  0  0  0  0  0  0  0
  -30.7190  -14.3990   20.8230 H   0  0  0  0  0  0  0  0  0  0  0  0
  -26.1670  -12.4030   20.1660 C   0  0  0  0  0  3  0  0  0  0  0  0
  -25.0330  -12.3450   20.9100 C   0  0  0  0  0  2  0  0  0  0  0  0
  -24.9900  -10.6920   20.8910 C   0  0  0  0  0  3  0  0  0  0  0  0
  -26.8520  -11.2460   20.3200 N   0  0  0  0  0  0  0  0  0  0  0  0
  -26.1710  -10.1900   20.7140 N   0  0  0  0  0  2  0  0  0  0  0  0
  -23.9750   -9.4470   21.1150 C   0  0  0  0  0  0  0  0  0  0  0  0
  -24.0210   -8.4960   22.1930 C   0  0  0  0  0  3  0  0  0  0  0  0
  -23.0830   -7.4170   22.3500 C   0  0  0  0  0  3  0  0  0  0  0  0
  -21.9960   -7.2420   21.4540 C   0  0  0  0  0  0  0  0  0  0  0  0
  -21.9500   -8.1260   20.3670 C   0  0  0  0  0  3  0  0  0  0  0  0
  -22.9560   -9.1000   20.1650 C   0  0  0  0  0  3  0  0  0  0  0  0
  -21.0390   -6.2360   21.4930 O   0  0  0  0  0  0  0  0  0  0  0  0
  -20.5680   -5.6680   22.6590 C   0  0  0  0  0  0  0  0  0  0  0  0
  -19.9380   -6.4400   23.6610 C   0  0  0  0  0  3  0  0  0  0  0  0
  -19.4050   -5.8170   24.8070 C   0  0  0  0  0  3  0  0  0  0  0  0
  -19.4960   -4.4180   24.9590 C   0  0  0  0  0  0  0  0  0  0  0  0
  -20.1030   -3.6420   23.9570 C   0  0  0  0  0  3  0  0  0  0  0  0
  -20.6330   -4.2570   22.8090 C   0  0  0  0  0  0  0  0  0  0  0  0
  -21.1920   -3.4950   21.8360 F   0  0  0  0  0  0  0  0  0  0  0  0
  -18.9880   -3.8210   26.0630 F   0  0  0  0  0  0  0  0  0  0  0  0
  -23.5640  -13.8290   21.9320 C   0  0  2  0  0  0  0  0  0  0  0  0
  -22.4960  -13.4550   22.7420 N   0  0  0  0  0  0  0  0  0  0  0  0
  -23.2950  -14.9840   21.6990 O   0  0  0  0  0  1  0  0  0  0  0  0
  -22.3160  -12.5180   23.0670 H   0  0  0  0  0  0  0  0  0  0  0  0
  -21.8330  -14.1810   22.9770 H   0  0  0  0  0  0  0  0  0  0  0  0
  -26.7490  -13.3390   19.3500 N   0  0  0  0  0  0  0  0  0  0  0  0
  -26.1580  -14.0090   18.8620 H   0  0  0  0  0  0  0  0  0  0  0  0
  -27.5270  -13.0430   18.7720 H   0  0  0  0  0  0  0  0  0  0  0  0
  1  6  1  0
  1  5  1  0
  2  6  1  0
  2  1  1  0
  2  5  1  0
  5 88  1  0
  7 56  1  0
  7  8  1  0
 10  9  1  0
 10 12  1  0
 11  9  1  0
 13 10  1  0
 15 17  1  0
 15 14  1  0
 16 27  2  0
 17 23  1  0
 18 28  1  0
 19 25  1  0
 20 26  1  0
 21 20  1  0
 21 19  2  0
 22 17  2  0
 22 21  1  0
 23 24  2  0
 24 19  1  0
 25 18  1  0
 26 18  1  0
 26 16  1  0
 28 30  2  0
 28 29  1  0
 31 29  1  0
 32 41  1  0
 33 29  1  0
 33 37  1  0
 34 35  1  0
 34 33  1  0
 35 36  1  0
 36 32  1  0
 37 38  1  0
 37 32  2  0
 38 39  2  0
 39 40  1  0
 41 40  2  0
 42 43  1  0
 42 52  1  0
 42 16  1  0
 43 46  1  0
 44 48  1  0
 44 43  1  0
 45 44  2  0
 48 47  1  0
 49 50  1  0
 50 51  1  0
 50 48  1  0
 52 53  1  1
 54 52  1  0
 55 52  1  0
 57 56  2  0
 58 64  1  0
 58 66  1  0
 59 64  1  0
 60 61  1  0
 60 59  1  0
 62 61  1  0
 62 71  1  0
 62 63  1  0
 64 63  1  0
 65 58  2  0
 66 57  1  0
 67 66  1  0
 68 93  1  0
 68 71  1  0
 68 69  1  0
 70 69  1  0
 70 73  1  0
 71 72  1  0
 72 70  1  0
 73 74  1  0
 74 75  2  0
 76 79  1  0
 76 75  1  0
 77 76  2  0
 78 77  1  0
 78 73  2  0
 79 80  1  0
 80 85  2  0
 80 81  1  0
 81 82  2  0
 82 83  1  0
 83 87  1  0
 84 83  2  0
 85 84  1  0
 86 85  1  0
 88  3  1  1
 88 89  1  0
 89 92  1  0
 89 91  1  0
 90 88  1  0
 94 93  1  0
 95 93  1  0
M  ISO  4  14 101  15 101  58 100  66 100
M  END
>  <TORSDO>  (64) 
F 21

>  <SCORE>  (64) 
2.838

>  <name>  (64) 
65

>  <ligand_id>  (64) 
65

>  <original_smiles>  (64) 
[H]c1c([H])c([H])c2c(c1[H])C([H])([H])C([H])([H])C([H])([H])C2([H])N([H])C(=O)C1([H])N(C(=O)C([H])(N([H])C(=O)C([H])(N([H])C([H])([H])[H])C([H])([H])[H])C(C([H])([H])[H])(C([H])([H])[H])C([H])([H])[H])C([H])([H])c2c([H])c(OC([H])([H])C([H])([H])N([H])C(=O)C3([H])C4([H])C([H])([H])C([H])(C4([H])[H])C([H])([H])[N+]3([H])C([H])([H])C([H])([H])N([H])C(=O)N3C([H])([H])C([H])([H])C([H])([H])C([H])(n4nc(-c5c([H])c([H])c(Oc6c([H])c([H])c(F)c([H])c6F)c([H])c5[H])c(C(=O)N([H])[H])c4N([H])[H])C3([H])[H])c([H])c([H])c2C1([H])[H]

>  <smiles>  (64) 
[H]c1c([H])c([H])c2c(c1[H])C([H])([H])C([H])([H])C([H])([H])C2([H])N([H])C(=O)C1([H])N(C(=O)C([H])(N([H])C(=O)C([H])(N([H])C([H])([H])[H])C([H])([H])[H])C(C([H])([H])[H])(C([H])([H])[H])C([H])([H])[H])C([H])([H])c2c([H])c(OC([H])([H])C([H])([H])N([H])C(=O)C3([H])C4([H])C([H])([H])C([H])(C4([H])[H])C([H])([H])[N+]3([H])C([H])([H])C([H])([H])N([H])C(=O)N3C([H])([H])C([H])([H])C([H])([H])C([H])(n4nc(-c5c([H])c([H])c(Oc6c([H])c([H])c(F)c([H])c6F)c([H])c5[H])c(C(=O)N([H])[H])c4N([H])[H])C3([H])[H])c([H])c([H])c2C1([H])[H]

$$$$
66:0:0
     RDKit          3D

 93102  0  0  1  0  0  0  0  0999 V2000
  -29.5700  -21.9520   19.7360 C   0  0  0  0  0  2  0  0  0  0  0  0
  -30.6020  -19.3600   23.0030 C   0  0  0  0  0  2  0  0  0  0  0  0
  -31.6800  -20.2580   22.3090 C   0  0  0  0  0  2  0  0  0  0  0  0
  -29.0410  -19.4860   20.9530 C   0  0  0  0  0  2  0  0  0  0  0  0
  -29.9950  -18.5660   21.8000 C   0  0  0  0  0  3  0  0  0  0  0  0
  -31.3230  -20.0400   20.8190 C   0  0  0  0  0  3  0  0  0  0  0  0
  -29.9070  -20.7530   20.7370 C   0  0  0  0  0  3  0  0  0  0  0  0
  -31.2300  -18.4420   20.9170 C   0  0  0  0  0  3  0  0  0  0  0  0
  -31.2040  -17.3460   19.7590 C   0  0  0  0  0  2  0  0  0  0  0  0
  -31.7990  -14.7960   19.7360 C   0  0  0  0  0  0  0  0  0  0  0  0
  -31.4310  -12.5270   18.7790 C   0  0  0  0  0  2  0  0  0  0  0  0
  -30.4200  -12.7000   17.6240 C   0  0  0  0  0  2  0  0  0  0  0  0
  -28.9620  -12.6880   18.1230 C   0  0  0  0  0  2  0  0  0  0  0  0
  -28.7600  -13.5520   19.3980 C   0  0  0  0  0  3  0  0  0  0  0  0
  -29.8770  -13.3090   20.4440 C   0  0  0  0  0  2  0  0  0  0  0  0
  -31.1600  -13.5850   19.7790 N   0  0  0  0  0  0  0  0  0  0  0  0
  -32.8500  -14.9210   19.1000 O   0  0  0  0  0  0  0  0  0  0  0  0
  -31.1280  -15.8870   20.2090 N   0  0  0  0  0  0  0  0  0  0  0  0
  -30.3480  -15.6450   20.8240 H   0  0  0  0  0  0  0  0  0  0  0  0
  -26.4920  -14.3660   20.2980 C   0  0  0  0  0  0  0  0  0  0  0  0
  -25.3650  -13.6920   20.7060 C   0  0  0  0  0  0  0  0  0  0  0  0
  -25.6750  -12.3080   20.5820 C   0  0  0  0  0  0  0  0  0  0  0  0
  -27.4170  -13.3880   19.9620 N   0  0  0  0  0  0  0  0  0  0  0  0
  -26.9270  -12.1390   20.1780 N   0  0  0  0  0  0  0  0  0  0  0  0
  -24.8270  -11.1230   20.7700 C   0  0  0  0  0  0  0  0  0  0  0  0
  -25.1440  -10.1360   21.7250 C   0  0  0  0  0  3  0  0  0  0  0  0
  -24.3050   -9.0140   21.9050 C   0  0  0  0  0  3  0  0  0  0  0  0
  -23.1300   -8.8730   21.1280 C   0  0  0  0  0  0  0  0  0  0  0  0
  -22.8260   -9.8520   20.1650 C   0  0  0  0  0  3  0  0  0  0  0  0
  -23.6680  -10.9660   19.9850 C   0  0  0  0  0  3  0  0  0  0  0  0
  -22.2680   -7.8050   21.2150 O   0  0  0  0  0  0  0  0  0  0  0  0
  -22.0440   -7.1600   22.4040 C   0  0  0  0  0  0  0  0  0  0  0  0
  -21.5880   -7.8420   23.5540 C   0  0  0  0  0  3  0  0  0  0  0  0
  -21.3050   -7.1240   24.7310 C   0  0  0  0  0  3  0  0  0  0  0  0
  -21.4700   -5.7260   24.7630 C   0  0  0  0  0  0  0  0  0  0  0  0
  -21.9210   -5.0450   23.6170 C   0  0  0  0  0  3  0  0  0  0  0  0
  -22.2070   -5.7600   22.4420 C   0  0  0  0  0  0  0  0  0  0  0  0
  -22.6200   -5.0910   21.3390 F   0  0  0  0  0  0  0  0  0  0  0  0
  -21.1900   -5.0390   25.8950 F   0  0  0  0  0  0  0  0  0  0  0  0
  -24.0580  -14.3090   21.1040 C   0  0  0  0  0  0  0  0  0  0  0  0
  -23.3430  -13.6770   22.0310 N   0  0  0  0  0  0  0  0  0  0  0  0
  -23.6810  -15.3730   20.6250 O   0  0  0  0  0  0  0  0  0  0  0  0
  -23.6660  -12.8210   22.4500 H   0  0  0  0  0  0  0  0  0  0  0  0
  -22.4650  -14.0680   22.3340 H   0  0  0  0  0  0  0  0  0  0  0  0
  -26.7990  -15.7170   20.1760 N   0  0  0  0  0  0  0  0  0  0  0  0
  -26.1140  -16.4450   20.3630 H   0  0  0  0  0  0  0  0  0  0  0  0
  -27.6950  -16.0740   19.8620 H   0  0  0  0  0  0  0  0  0  0  0  0
  -30.0460  -24.4960   19.4920 C   0  0  0  0  0  0  0  0  0  0  0  0
  -30.2320  -23.2550   20.0240 N   0  0  0  0  0  0  0  0  0  0  0  0
  -31.0110  -25.2630   19.4530 O   0  0  0  0  0  0  0  0  0  0  0  0
  -31.1290  -23.1690   20.4900 H   0  0  0  0  0  0  0  0  0  0  0  0
  -28.6450  -25.0640   19.0730 C   0  0  0  0  0  2  0  0  0  0  0  0
  -28.6380  -26.5280   19.0430 O   0  0  0  0  0  0  0  0  0  0  0  0
  -24.7100  -31.1980   22.7400 C   0  0  0  0  0  0  0  0  0  0  0  0
  -27.4220  -27.1950   19.1320 C   0  0  0  0  0  0  0  0  0  0  0  0
  -23.4820  -29.8660   21.0540 C   0  0  0  0  0  3  0  0  0  0  0  0
  -24.9320  -28.5420   19.4200 C   0  0  0  0  0  0  0  0  0  0  0  0
  -25.9680  -30.3950   20.7360 C   0  0  0  0  0  2  0  0  0  0  0  0
  -26.0930  -29.0840   19.9810 C   0  0  0  0  0  0  0  0  0  0  0  0
  -27.3400  -28.4240   19.8400 C   0  0  0  0  0  3  0  0  0  0  0  0
  -26.2350  -26.6800   18.5590 C   0  0  0  0  0  3  0  0  0  0  0  0
  -25.0040  -27.3390   18.7050 C   0  0  0  0  0  3  0  0  0  0  0  0
  -23.6460  -29.3120   19.6130 C   0  0  0  0  0  2  0  0  0  0  0  0
  -24.7370  -30.5020   21.5630 N   0  0  0  0  0  0  0  0  0  0  0  0
  -23.6520  -31.3590   23.3650 O   0  0  0  0  0  0  0  0  0  0  0  0
  -22.9440  -28.7380   21.9610 C   0  0  0  0  0  0  0  0  0  0  0  0
  -21.6360  -28.4540   21.8810 N   0  0  0  0  0  0  0  0  0  0  0  0
  -23.7130  -28.1130   22.7000 O   0  0  0  0  0  0  0  0  0  0  0  0
  -21.0720  -29.0550   21.3020 H   0  0  0  0  0  0  0  0  0  0  0  0
  -18.4350  -26.8400   22.2670 C   0  0  0  0  0  0  0  0  0  0  0  0
  -20.9360  -27.3930   22.5910 C   0  0  0  0  0  3  0  0  0  0  0  0
  -21.2260  -26.0120   21.9630 C   0  0  0  0  0  2  0  0  0  0  0  0
  -20.1780  -25.5580   20.9350 C   0  0  0  0  0  2  0  0  0  0  0  0
  -18.7740  -25.5450   21.5500 C   0  0  0  0  0  2  0  0  0  0  0  0
  -19.4470  -27.7090   22.7470 C   0  0  0  0  0  0  0  0  0  0  0  0
  -19.0810  -28.8850   23.4260 C   0  0  0  0  0  3  0  0  0  0  0  0
  -17.7260  -29.2320   23.5880 C   0  0  0  0  0  3  0  0  0  0  0  0
  -16.7230  -28.3770   23.0980 C   0  0  0  0  0  3  0  0  0  0  0  0
  -17.0790  -27.1840   22.4430 C   0  0  0  0  0  3  0  0  0  0  0  0
  -25.9940  -31.8560   23.3330 C   0  0  0  0  0  3  0  0  0  0  0  0
  -26.6930  -30.9670   24.4370 C   0  0  1  0  0  0  0  0  0  0  0  0
  -25.7240  -30.4930   25.5440 C   0  0  0  0  0  1  0  0  0  0  0  0
  -27.3450  -29.7160   23.8020 C   0  0  0  0  0  1  0  0  0  0  0  0
  -27.8290  -31.7650   25.1170 C   0  0  0  0  0  1  0  0  0  0  0  0
  -25.6120  -33.1550   23.8840 N   0  0  0  0  0  0  0  0  0  0  0  0
  -25.8620  -34.3440   23.3030 C   0  0  0  0  0  0  0  0  0  0  0  0
  -26.5250  -34.4420   22.2610 O   0  0  0  0  0  0  0  0  0  0  0  0
  -25.0310  -33.1430   24.7110 H   0  0  0  0  0  0  0  0  0  0  0  0
  -24.0520  -36.0880   23.2250 C   0  0  0  0  0  1  0  0  0  0  0  0
  -25.2980  -35.6000   23.9800 C   0  0  0  0  0  3  0  0  0  0  0  0
  -27.3740  -36.4350   24.9970 C   0  0  0  0  0  1  0  0  0  0  0  0
  -26.2760  -36.7090   24.0720 N   0  0  0  0  0  0  0  0  0  0  0  0
  -25.8210  -37.5670   24.3690 H   0  0  0  0  0  0  0  0  0  0  0  0
  1 49  1  0
  3  2  1  0
  5  4  1  0
  5  2  1  0
  6  8  1  0
  6  3  1  0
  7  1  1  0
  7  6  1  0
  7  4  1  0
  8  9  1  0
  8  5  1  0
  9 18  1  0
 10 16  1  0
 10 18  1  0
 11 16  1  0
 12 13  1  0
 12 11  1  0
 14 13  1  0
 14 23  1  0
 14 15  1  0
 16 15  1  0
 17 10  2  0
 18 19  1  0
 20 21  2  0
 21 40  1  0
 22 21  1  0
 22 25  1  0
 23 24  1  0
 23 20  1  0
 24 22  2  0
 25 26  1  0
 26 27  2  0
 28 31  1  0
 28 27  1  0
 29 28  2  0
 30 29  1  0
 30 25  2  0
 31 32  1  0
 32 37  2  0
 32 33  1  0
 33 34  2  0
 34 35  1  0
 35 39  1  0
 36 35  2  0
 37 36  1  0
 38 37  1  0
 40 41  1  0
 41 44  1  0
 41 43  1  0
 42 40  2  0
 45 20  1  0
 45 46  1  0
 47 45  1  0
 48 49  1  0
 49 51  1  0
 50 48  2  0
 52 48  1  0
 53 52  1  0
 53 55  1  0
 54 65  2  0
 55 60  1  0
 56 64  1  0
 56 66  1  0
 57 63  1  0
 57 59  1  0
 58 64  1  0
 59 58  1  0
 60 59  2  0
 61 62  1  0
 61 55  2  0
 62 57  2  0
 63 56  1  0
 64 54  1  0
 66 68  2  0
 67 66  1  0
 69 67  1  0
 70 79  2  0
 70 75  1  0
 71 67  1  0
 71 75  1  0
 72 71  1  0
 73 74  1  0
 73 72  1  0
 74 70  1  0
 75 76  2  0
 76 77  1  0
 78 77  2  0
 79 78  1  0
 80 54  1  0
 80 85  1  0
 80 81  1  0
 81 84  1  1
 81 82  1  0
 83 81  1  0
 85 88  1  0
 86 85  1  0
 86 90  1  0
 87 86  2  0
 90 89  1  0
 90 92  1  0
 92 93  1  0
 92 91  1  0
M  ISO  4  10 100  18 100  52 101  53 101
M  END
>  <TORSDO>  (65) 
F 20

>  <SCORE>  (65) 
-9.594

>  <name>  (65) 
66

>  <ligand_id>  (65) 
66

>  <original_smiles>  (65) 
[H]c1c([H])c([H])c2c(c1[H])C([H])([H])C([H])([H])C([H])([H])C2([H])N([H])C(=O)C1([H])N(C(=O)C([H])(N([H])C(=O)C([H])(N([H])C([H])([H])[H])C([H])([H])[H])C(C([H])([H])[H])(C([H])([H])[H])C([H])([H])[H])C([H])([H])c2c([H])c(OC([H])([H])C(=O)N([H])C([H])([H])C3([H])C([H])([H])C4([H])C([H])([H])C([H])([H])C3([H])C4([H])C([H])([H])N([H])C(=O)N3C([H])([H])C([H])([H])C([H])([H])C([H])(n4nc(-c5c([H])c([H])c(Oc6c([H])c([H])c(F)c([H])c6F)c([H])c5[H])c(C(=O)N([H])[H])c4N([H])[H])C3([H])[H])c([H])c([H])c2C1([H])[H]

>  <smiles>  (65) 
[H]c1c([H])c([H])c2c(c1[H])C([H])([H])C([H])([H])C([H])([H])C2([H])N([H])C(=O)C1([H])N(C(=O)C([H])(N([H])C(=O)C([H])(N([H])C([H])([H])[H])C([H])([H])[H])C(C([H])([H])[H])(C([H])([H])[H])C([H])([H])[H])C([H])([H])c2c([H])c(OC([H])([H])C(=O)N([H])C([H])([H])C3([H])C([H])([H])C4([H])C([H])([H])C([H])([H])C3([H])C4([H])C([H])([H])N([H])C(=O)N3C([H])([H])C([H])([H])C([H])([H])C([H])(n4nc(-c5c([H])c([H])c(Oc6c([H])c([H])c(F)c([H])c6F)c([H])c5[H])c(C(=O)N([H])[H])c4N([H])[H])C3([H])[H])c([H])c([H])c2C1([H])[H]

$$$$
67:0:0
     RDKit          3D

 95 99  0  0  1  0  0  0  0  0999 V2000
  -20.5990  -24.3600   21.1990 C   0  0  0  0  0  2  0  0  0  0  0  0
  -23.1840  -22.3260   20.8350 C   0  0  0  0  0  2  0  0  0  0  0  0
  -24.1360  -24.2640   20.3900 C   0  0  0  0  0  2  0  0  0  0  0  0
  -20.5540  -26.0230   20.6310 C   0  0  0  0  0  3  0  0  0  0  0  0
  -21.8640  -23.4700   20.4930 C   0  0  0  0  0  3  0  0  0  0  0  0
  -22.3210  -24.8380   20.2140 C   0  0  0  0  0  2  0  0  0  0  0  0
  -24.7290  -22.6310   20.4450 N   0  0  0  0  0  0  0  0  0  0  0  0
  -25.1410  -22.6430   21.3670 H   0  0  0  0  0  0  0  0  0  0  0  0
  -19.6480  -27.5060   18.2590 C   0  0  0  0  0  3  0  0  0  0  0  0
  -20.6560  -27.7120   17.1540 N   0  0  0  0  0  0  0  0  0  0  0  0
  -18.5340  -27.9030   17.8700 O   0  0  0  0  0  0  0  0  0  0  0  0
  -20.1530  -28.1150   16.3690 H   0  0  0  0  0  0  0  0  0  0  0  0
  -22.2770  -27.3550   16.7900 C   0  0  0  0  0  3  0  0  0  0  0  0
  -23.7060  -26.6670   17.7380 C   0  0  0  0  0  3  0  0  0  0  0  0
  -25.3150  -26.3740   17.6900 O   0  0  0  0  0  0  0  0  0  0  0  0
  -25.3570  -30.5720   22.6910 C   0  0  0  0  0  0  0  0  0  0  0  0
  -26.2250  -27.3810   17.6740 C   0  0  0  0  0  3  0  0  0  0  0  0
  -23.7440  -30.2350   20.8750 C   0  0  0  0  0  3  0  0  0  0  0  0
  -24.7370  -29.4490   18.6160 C   0  0  0  0  0  3  0  0  0  0  0  0
  -26.2520  -29.9780   20.4760 C   0  0  0  0  0  2  0  0  0  0  0  0
  -25.8770  -29.0960   19.3210 C   0  0  0  0  0  0  0  0  0  0  0  0
  -26.6540  -28.0150   18.8670 C   0  0  0  0  0  3  0  0  0  0  0  0
  -25.5470  -28.1190   16.7480 C   0  0  0  0  0  3  0  0  0  0  0  0
  -24.6920  -29.1050   17.2540 C   0  0  0  0  0  3  0  0  0  0  0  0
  -23.7370  -30.3390   19.3090 C   0  0  0  0  0  2  0  0  0  0  0  0
  -25.1380  -30.3050   21.3840 N   0  0  0  0  0  0  0  0  0  0  0  0
  -24.4170  -30.8330   23.4570 O   0  0  0  0  0  0  0  0  0  0  0  0
  -23.1000  -28.9530   21.4610 C   0  0  0  0  0  0  0  0  0  0  0  0
  -21.9300  -28.9930   22.0610 N   0  0  0  0  0  0  0  0  0  0  0  0
  -23.6610  -27.8610   21.3820 O   0  0  0  0  0  0  0  0  0  0  0  0
  -21.4420  -29.8790   22.0980 H   0  0  0  0  0  0  0  0  0  0  0  0
  -18.2440  -28.5170   22.4650 C   0  0  0  0  0  0  0  0  0  0  0  0
  -21.0730  -27.7670   22.2070 C   0  0  0  0  0  2  0  0  0  0  0  0
  -21.1690  -26.8680   20.4230 C   0  0  0  0  0  2  0  0  0  0  0  0
  -18.8290  -27.0100   19.3120 C   0  0  0  0  0  2  0  0  0  0  0  0
  -17.6560  -27.7650   20.9050 C   0  0  0  0  0  1  0  0  0  0  0  0
  -19.6890  -28.5330   22.9700 C   0  0  0  0  0  0  0  0  0  0  0  0
  -20.0090  -29.5270   24.0130 C   0  0  0  0  0  3  0  0  0  0  0  0
  -19.1110  -30.4310   24.6410 C   0  0  0  0  0  3  0  0  0  0  0  0
  -17.7690  -30.3680   24.2540 C   0  0  0  0  0  3  0  0  0  0  0  0
  -17.3790  -29.4530   23.2130 C   0  0  0  0  0  3  0  0  0  0  0  0
  -26.8010  -30.5740   23.2670 C   0  0  0  0  0  3  0  0  0  0  0  0
  -26.8900  -31.7400   24.1500 N   0  0  0  0  0  0  0  0  0  0  0  0
  -27.5060  -32.8840   23.8370 C   0  0  0  0  0  0  0  0  0  0  0  0
  -28.1390  -33.0440   22.7920 O   0  0  0  0  0  0  0  0  0  0  0  0
  -26.3670  -31.6950   25.0120 H   0  0  0  0  0  0  0  0  0  0  0  0
  -26.3810  -35.0660   24.3560 C   0  0  0  0  0  1  0  0  0  0  0  0
  -27.4070  -34.0350   24.8540 C   0  0  0  0  0  3  0  0  0  0  0  0
  -29.6510  -33.8470   25.8250 C   0  0  0  0  0  1  0  0  0  0  0  0
  -28.7000  -34.7010   25.1150 N   0  0  0  0  0  0  0  0  0  0  0  0
  -28.5690  -35.5500   25.6570 H   0  0  0  0  0  0  0  0  0  0  0  0
  -27.1650  -29.2480   24.0450 C   0  0  1  0  0  0  0  0  0  0  0  0
  -26.1120  -28.8620   25.1100 C   0  0  0  0  0  1  0  0  0  0  0  0
  -27.3470  -28.0380   23.0970 C   0  0  0  0  0  1  0  0  0  0  0  0
  -28.5270  -29.4320   24.7480 C   0  0  0  0  0  1  0  0  0  0  0  0
  -26.0880  -21.4130   19.7330 C   0  0  0  0  0 15  0  0  0  0  0  0
  -28.0360  -20.4390   19.9330 C   0  0  0  0  0 15  0  0  0  0  0  0
  -30.5840  -17.8880   19.8350 C   0  0  0  0  0  0  0  0  0  0  0  0
  -31.8410  -15.3850   19.4930 C   0  0  0  0  0  2  0  0  0  0  0  0
  -31.2880  -14.3840   18.4080 C   0  0  0  0  0  2  0  0  0  0  0  0
  -29.8970  -13.8590   18.7940 C   0  0  0  0  0  2  0  0  0  0  0  0
  -29.1210  -15.0020   19.4660 C   0  0  0  0  0  3  0  0  0  0  0  0
  -29.8520  -15.5730   20.6670 C   0  0  0  0  0  2  0  0  0  0  0  0
  -30.7720  -16.4240   19.9910 N   0  0  0  0  0  0  0  0  0  0  0  0
  -31.8110  -18.2000   19.6610 O   0  0  0  0  0  0  0  0  0  0  0  0
  -29.1570  -18.8110   19.7950 N   0  0  0  0  0  2  0  0  0  0  0  0
  -28.4520  -18.0790   19.8030 H   0  0  0  0  0  0  0  0  0  0  0  0
  -26.8280  -15.6480   20.1820 C   0  0  0  0  0  0  0  0  0  0  0  0
  -25.7450  -14.8970   20.5300 C   0  0  0  0  0  0  0  0  0  0  0  0
  -26.1670  -13.5370   20.4540 C   0  0  0  0  0  0  0  0  0  0  0  0
  -27.8000  -14.7200   19.8780 N   0  0  0  0  0  0  0  0  0  0  0  0
  -27.4430  -13.4490   20.1270 N   0  0  0  0  0  0  0  0  0  0  0  0
  -25.4150  -12.2970   20.5890 C   0  0  0  0  0  0  0  0  0  0  0  0
  -25.6770  -11.3830   21.6310 C   0  0  0  0  0  3  0  0  0  0  0  0
  -24.9200  -10.1990   21.7390 C   0  0  0  0  0  3  0  0  0  0  0  0
  -23.8930   -9.9290   20.8030 C   0  0  0  0  0  0  0  0  0  0  0  0
  -23.6610  -10.8320   19.7500 C   0  0  0  0  0  3  0  0  0  0  0  0
  -24.4200  -12.0060   19.6400 C   0  0  0  0  0  3  0  0  0  0  0  0
  -23.1190   -8.7970   20.8160 O   0  0  0  0  0  0  0  0  0  0  0  0
  -22.6590   -8.2600   21.9900 C   0  0  0  0  0  0  0  0  0  0  0  0
  -21.8820   -9.0100   22.9000 C   0  0  0  0  0  3  0  0  0  0  0  0
  -21.3710   -8.3950   24.0600 C   0  0  0  0  0  3  0  0  0  0  0  0
  -21.6280   -7.0330   24.3060 C   0  0  0  0  0  0  0  0  0  0  0  0
  -22.3980   -6.2850   23.3990 C   0  0  0  0  0  3  0  0  0  0  0  0
  -22.9100   -6.8970   22.2420 C   0  0  0  0  0  0  0  0  0  0  0  0
  -23.6350   -6.1690   21.3590 F   0  0  0  0  0  0  0  0  0  0  0  0
  -21.1300   -6.4390   25.4150 F   0  0  0  0  0  0  0  0  0  0  0  0
  -24.3720  -15.4270   20.7900 C   0  0  0  0  0  0  0  0  0  0  0  0
  -23.6190  -14.7620   21.6600 N   0  0  0  0  0  0  0  0  0  0  0  0
  -23.9810  -16.4620   20.2570 O   0  0  0  0  0  0  0  0  0  0  0  0
  -23.9500  -13.9230   22.1100 H   0  0  0  0  0  0  0  0  0  0  0  0
  -22.6940  -15.1050   21.8800 H   0  0  0  0  0  0  0  0  0  0  0  0
  -27.0490  -17.0190   20.0640 N   0  0  0  0  0  0  0  0  0  0  0  0
  -26.1810  -17.5450   20.0930 H   0  0  0  0  0  0  0  0  0  0  0  0
  -27.6140  -17.3140   19.2770 H   0  0  0  0  0  0  0  0  0  0  0  0
  3  7  1  0
  4  1  1  0
  5  2  1  0
  5  1  1  0
  6  3  1  0
  6  5  1  0
  7  2  1  0
  7  8  1  0
  9 10  1  0
  9 35  1  0
 11  9  1  0
 11 35  1  0
 12 10  1  0
 13 10  1  0
 13 14  2  0
 15 14  1  0
 16 27  2  0
 17 15  1  0
 17 22  1  0
 18 26  1  0
 18 28  1  0
 19 24  1  0
 19 25  1  0
 19 21  1  0
 20 26  1  0
 21 20  1  0
 22 21  2  0
 23 24  2  0
 23 17  1  0
 25 18  1  0
 26 16  1  0
 28 29  1  0
 29 31  1  0
 29 33  1  0
 30 28  2  0
 32 37  2  0
 32 41  1  0
 33 37  1  0
 34  4  2  0
 36 32  1  0
 37 38  1  0
 38 39  2  0
 40 39  1  0
 41 40  2  0
 42 16  1  0
 42 52  1  0
 42 43  1  0
 43 46  1  0
 44 43  1  0
 44 48  1  0
 45 44  2  0
 48 47  1  0
 48 50  1  0
 50 51  1  0
 50 49  1  0
 52 55  1  1
 52 53  1  0
 54 52  1  0
 58 64  1  0
 59 64  1  0
 60 61  1  0
 60 59  1  0
 62 61  1  0
 62 71  1  0
 62 63  1  0
 64 63  1  0
 65 58  2  0
 66 67  1  0
 66 58  1  0
 68 69  2  0
 69 88  1  0
 70 69  1  0
 70 73  1  0
 71 72  1  0
 71 68  1  0
 72 70  2  0
 73 74  1  0
 74 75  2  0
 76 79  1  0
 76 75  1  0
 77 76  2  0
 78 77  1  0
 78 73  2  0
 79 80  1  0
 80 85  2  0
 80 81  1  0
 81 82  2  0
 82 83  1  0
 83 87  1  0
 84 83  2  0
 85 84  1  0
 86 85  1  0
 88 89  1  0
 89 92  1  0
 89 91  1  0
 90 88  2  0
 93 94  1  0
 93 68  1  0
 95 93  1  0
M  ISO  4  14 101  15 101  58 100  66 100
M  END
>  <TORSDO>  (66) 
F 21

>  <SCORE>  (66) 
-3.563

>  <name>  (66) 
67

>  <ligand_id>  (66) 
67

>  <original_smiles>  (66) 
[H]c1c([H])c([H])c2c(c1[H])C([H])([H])C([H])([H])C([H])([H])C2([H])N([H])C(=O)C1([H])N(C(=O)C([H])(N([H])C(=O)C([H])(N([H])C([H])([H])[H])C([H])([H])[H])C(C([H])([H])[H])(C([H])([H])[H])C([H])([H])[H])C([H])([H])c2c([H])c(OC([H])([H])C([H])([H])N([H])C(=O)C3([H])C([H])([H])C4([H])C3([H])C([H])([H])[N+]([H])(C([H])([H])C([H])([H])N([H])C(=O)N3C([H])([H])C([H])([H])C([H])([H])C([H])(n5nc(-c6c([H])c([H])c(Oc7c([H])c([H])c(F)c([H])c7F)c([H])c6[H])c(C(=O)N([H])[H])c5N([H])[H])C3([H])[H])C4([H])[H])c([H])c([H])c2C1([H])[H]

>  <smiles>  (66) 
[H]c1c([H])c([H])c2c(c1[H])C([H])([H])C([H])([H])C([H])([H])C2([H])N([H])C(=O)C1([H])N(C(=O)C([H])(N([H])C(=O)C([H])(N([H])C([H])([H])[H])C([H])([H])[H])C(C([H])([H])[H])(C([H])([H])[H])C([H])([H])[H])C([H])([H])c2c([H])c(OC([H])([H])C([H])([H])N([H])C(=O)C3([H])C([H])([H])C4([H])C3([H])C([H])([H])[N+]([H])(C([H])([H])C([H])([H])N([H])C(=O)N3C([H])([H])C([H])([H])C([H])([H])C([H])(n5nc(-c6c([H])c([H])c(Oc7c([H])c([H])c(F)c([H])c7F)c([H])c6[H])c(C(=O)N([H])[H])c5N([H])[H])C3([H])[H])C4([H])[H])c([H])c([H])c2C1([H])[H]

$$$$
68:0:0
     RDKit          3D

 99106  0  0  1  0  0  0  0  0999 V2000
  -29.7610  -19.0080   18.9880 C   0  0  0  0  0  3  0  0  0  0  0  0
  -28.7200  -19.4480   18.0130 N   0  0  0  0  0  4  0  0  0  0  0  0
  -27.7970  -19.3780   18.4080 H   0  0  0  0  0  0  0  0  0  0  0  0
  -28.7260  -18.9210   17.1570 H   0  0  0  0  0  0  0  0  0  0  0  0
  -28.8490  -20.4070   17.7400 H   0  0  0  0  0  0  0  0  0  0  0  0
  -29.7600  -19.9690   20.2170 C   0  0  0  0  0  2  0  0  0  0  0  0
  -30.3620  -21.3460   19.8420 C   0  0  0  0  0  2  0  0  0  0  0  0
  -29.9750  -22.4840   20.7080 N   0  0  0  0  0  4  0  0  0  0  0  0
  -28.9710  -22.5220   20.7990 H   0  0  0  0  0  0  0  0  0  0  0  0
  -30.3600  -22.3530   21.6320 H   0  0  0  0  0  0  0  0  0  0  0  0
  -30.4790  -23.7610   20.1330 C   0  0  0  0  0  2  0  0  0  0  0  0
  -29.8110  -25.0490   20.6500 C   0  0  0  0  0  2  0  0  0  0  0  0
  -28.5130  -25.4730   19.9300 C   0  0  0  0  0  2  0  0  0  0  0  0
  -28.4030  -26.8660   20.1990 O   0  0  0  0  0  0  0  0  0  0  0  0
  -24.5420  -31.9290   23.2630 C   0  0  0  0  0  0  0  0  0  0  0  0
  -27.1860  -27.5040   20.1840 C   0  0  0  0  0  0  0  0  0  0  0  0
  -23.3270  -30.5280   21.6250 C   0  0  0  0  0  3  0  0  0  0  0  0
  -24.7760  -28.9770   20.2020 C   0  0  0  0  0  0  0  0  0  0  0  0
  -25.8440  -30.8910   21.4090 C   0  0  0  0  0  2  0  0  0  0  0  0
  -25.9270  -29.5140   20.7870 C   0  0  0  0  0  0  0  0  0  0  0  0
  -27.1320  -28.7820   20.7760 C   0  0  0  0  0  3  0  0  0  0  0  0
  -26.0190  -26.9700   19.5910 C   0  0  0  0  0  3  0  0  0  0  0  0
  -24.8130  -27.7030   19.6060 C   0  0  0  0  0  3  0  0  0  0  0  0
  -23.5290  -29.8320   20.2500 C   0  0  0  0  0  2  0  0  0  0  0  0
  -24.5900  -31.1310   22.1600 N   0  0  0  0  0  0  0  0  0  0  0  0
  -23.4630  -32.2050   23.8060 O   0  0  0  0  0  0  0  0  0  0  0  0
  -22.6740  -29.5140   22.5900 C   0  0  0  0  0  0  0  0  0  0  0  0
  -21.3480  -29.3370   22.4640 N   0  0  0  0  0  0  0  0  0  0  0  0
  -23.3560  -28.8870   23.4050 O   0  0  0  0  0  0  0  0  0  0  0  0
  -20.8600  -29.8990   21.7810 H   0  0  0  0  0  0  0  0  0  0  0  0
  -17.9720  -28.1600   22.9540 C   0  0  0  0  0  0  0  0  0  0  0  0
  -20.5280  -28.4010   23.2340 C   0  0  0  0  0  3  0  0  0  0  0  0
  -20.6260  -26.9710   22.6540 C   0  0  0  0  0  2  0  0  0  0  0  0
  -19.5230  -26.6550   21.6400 C   0  0  0  0  0  2  0  0  0  0  0  0
  -18.1410  -26.8090   22.2810 C   0  0  0  0  0  2  0  0  0  0  0  0
  -19.0940  -28.9160   23.3870 C   0  0  0  0  0  0  0  0  0  0  0  0
  -18.8810  -30.1810   23.9770 C   0  0  0  0  0  3  0  0  0  0  0  0
  -17.5800  -30.6900   24.1380 C   0  0  0  0  0  3  0  0  0  0  0  0
  -16.4720  -29.9310   23.7220 C   0  0  0  0  0  3  0  0  0  0  0  0
  -16.6690  -28.6670   23.1380 C   0  0  0  0  0  3  0  0  0  0  0  0
  -25.8310  -32.5560   23.8810 C   0  0  0  0  0  3  0  0  0  0  0  0
  -25.5320  -33.9590   24.2000 N   0  0  0  0  0  0  0  0  0  0  0  0
  -25.8830  -35.0030   23.4360 C   0  0  0  0  0  0  0  0  0  0  0  0
  -26.5640  -34.8840   22.4120 O   0  0  0  0  0  0  0  0  0  0  0  0
  -24.9290  -34.1250   24.9930 H   0  0  0  0  0  0  0  0  0  0  0  0
  -24.1820  -36.8130   23.0440 C   0  0  0  0  0  1  0  0  0  0  0  0
  -25.4060  -36.4000   23.8770 C   0  0  0  0  0  3  0  0  0  0  0  0
  -27.5380  -37.2640   24.7300 C   0  0  0  0  0  1  0  0  0  0  0  0
  -26.4500  -37.4400   23.7720 N   0  0  0  0  0  0  0  0  0  0  0  0
  -26.0540  -38.3640   23.9120 H   0  0  0  0  0  0  0  0  0  0  0  0
  -26.3420  -31.7900   25.1640 C   0  0  1  0  0  0  0  0  0  0  0  0
  -25.2490  -31.5720   26.2360 C   0  0  0  0  0  1  0  0  0  0  0  0
  -26.9100  -30.4060   24.7740 C   0  0  0  0  0  1  0  0  0  0  0  0
  -27.5000  -32.5790   25.8210 C   0  0  0  0  0  1  0  0  0  0  0  0
  -29.6270  -17.4670   19.2920 C   0  0  0  0  0  3  0  0  0  0  0  0
  -30.0990  -16.9840   20.7120 C   0  0  0  0  0  2  0  0  0  0  0  0
  -30.7520  -14.5220   20.7150 C   0  0  0  0  0  0  0  0  0  0  0  0
  -30.5660  -12.3230   19.6200 C   0  0  0  0  0  2  0  0  0  0  0  0
  -29.6780  -12.4480   18.3630 C   0  0  0  0  0  2  0  0  0  0  0  0
  -28.1820  -12.3490   18.7220 C   0  0  0  0  0  2  0  0  0  0  0  0
  -27.7770  -13.2320   19.9340 C   0  0  0  0  0  3  0  0  0  0  0  0
  -28.7690  -13.0350   21.1040 C   0  0  0  0  0  2  0  0  0  0  0  0
  -30.1230  -13.3250   20.6020 N   0  0  0  0  0  0  0  0  0  0  0  0
  -31.8980  -14.7390   20.3130 O   0  0  0  0  0  0  0  0  0  0  0  0
  -29.9180  -15.5420   20.9810 N   0  0  0  0  0  0  0  0  0  0  0  0
  -29.0200  -15.2670   21.3530 H   0  0  0  0  0  0  0  0  0  0  0  0
  -25.3460  -13.8610   20.5080 C   0  0  0  0  0  0  0  0  0  0  0  0
  -24.2620  -13.0920   20.8450 C   0  0  0  0  0  0  0  0  0  0  0  0
  -24.7290  -11.7420   20.8720 C   0  0  0  0  0  0  0  0  0  0  0  0
  -26.4040  -12.9760   20.3510 N   0  0  0  0  0  0  0  0  0  0  0  0
  -26.0320  -11.6990   20.6290 N   0  0  0  0  0  0  0  0  0  0  0  0
  -23.9990  -10.4820   21.0590 C   0  0  0  0  0  0  0  0  0  0  0  0
  -24.4000   -9.5320   22.0230 C   0  0  0  0  0  3  0  0  0  0  0  0
  -23.6700   -8.3340   22.1890 C   0  0  0  0  0  3  0  0  0  0  0  0
  -22.5260   -8.0820   21.3920 C   0  0  0  0  0  0  0  0  0  0  0  0
  -22.1480   -9.0210   20.4170 C   0  0  0  0  0  3  0  0  0  0  0  0
  -22.8800  -10.2090   20.2490 C   0  0  0  0  0  3  0  0  0  0  0  0
  -21.7690   -6.9380   21.4690 O   0  0  0  0  0  0  0  0  0  0  0  0
  -21.6860   -6.2090   22.6290 C   0  0  0  0  0  0  0  0  0  0  0  0
  -21.2290   -6.7750   23.8380 C   0  0  0  0  0  3  0  0  0  0  0  0
  -21.0960   -5.9700   24.9870 C   0  0  0  0  0  3  0  0  0  0  0  0
  -21.4060   -4.5980   24.9270 C   0  0  0  0  0  0  0  0  0  0  0  0
  -21.8560   -4.0310   23.7210 C   0  0  0  0  0  3  0  0  0  0  0  0
  -21.9920   -4.8340   22.5740 C   0  0  0  0  0  0  0  0  0  0  0  0
  -22.4050   -4.2790   21.4090 F   0  0  0  0  0  0  0  0  0  0  0  0
  -21.2700   -3.8210   26.0270 F   0  0  0  0  0  0  0  0  0  0  0  0
  -22.8520  -13.5680   21.0440 C   0  0  0  0  0  0  0  0  0  0  0  0
  -22.0920  -12.8820   21.8920 N   0  0  0  0  0  0  0  0  0  0  0  0
  -22.4320  -14.5780   20.4830 O   0  0  0  0  0  0  0  0  0  0  0  0
  -22.4410  -12.0590   22.3600 H   0  0  0  0  0  0  0  0  0  0  0  0
  -21.1470  -13.1810   22.0770 H   0  0  0  0  0  0  0  0  0  0  0  0
  -25.5110  -15.2280   20.3060 N   0  0  0  0  0  0  0  0  0  0  0  0
  -24.7290  -15.8710   20.3580 H   0  0  0  0  0  0  0  0  0  0  0  0
  -26.3680  -15.6790   20.0170 H   0  0  0  0  0  0  0  0  0  0  0  0
  -30.1960  -16.6130   18.1090 C   0  0  0  0  0  2  0  0  0  0  0  0
  -31.6750  -16.5500   18.0180 N   0  0  0  0  0  4  0  0  0  0  0  0
  -32.1150  -17.4480   17.9320 H   0  0  0  0  0  0  0  0  0  0  0  0
  -31.9550  -16.0080   17.2160 H   0  0  0  0  0  0  0  0  0  0  0  0
  -32.0440  -16.0680   18.8380 H   0  0  0  0  0  0  0  0  0  0  0  0
  1 55  1  0
  1  6  1  0
  2  3  1  0
  2  1  1  0
  4  2  1  0
  5  2  1  0
  7  6  1  0
  7  8  1  0
  8  9  1  0
  8 10  1  0
 11 12  1  0
 11  8  1  0
 13 14  1  0
 13 12  1  0
 15 26  2  0
 16 14  1  0
 16 21  1  0
 17 25  1  0
 17 27  1  0
 18 24  1  0
 18 20  1  0
 19 25  1  0
 20 19  1  0
 21 20  2  0
 22 23  1  0
 22 16  2  0
 23 18  2  0
 24 17  1  0
 25 15  1  0
 27 29  2  0
 28 27  1  0
 30 28  1  0
 31 40  2  0
 31 36  1  0
 32 28  1  0
 32 36  1  0
 33 32  1  0
 34 35  1  0
 34 33  1  0
 35 31  1  0
 36 37  2  0
 37 38  1  0
 39 38  2  0
 40 39  1  0
 41 15  1  0
 41 42  1  0
 41 51  1  0
 42 45  1  0
 43 47  1  0
 43 42  1  0
 44 43  2  0
 47 46  1  0
 49 47  1  0
 49 50  1  0
 49 48  1  0
 51 54  1  1
 51 52  1  0
 53 51  1  0
 55 95  1  0
 55 56  1  0
 56 65  1  0
 57 65  1  0
 58 63  1  0
 59 60  1  0
 59 58  1  0
 61 60  1  0
 61 70  1  0
 61 62  1  0
 63 57  1  0
 63 62  1  0
 64 57  2  0
 65 66  1  0
 67 68  2  0
 68 69  1  0
 68 87  1  0
 69 72  1  0
 70 67  1  0
 70 71  1  0
 71 69  2  0
 72 73  1  0
 73 74  2  0
 75 78  1  0
 75 74  1  0
 76 75  2  0
 77 76  1  0
 77 72  2  0
 78 79  1  0
 79 80  1  0
 80 81  2  0
 82 81  1  0
 82 86  1  0
 83 82  2  0
 84 79  2  0
 84 83  1  0
 85 84  1  0
 87 88  1  0
 88 91  1  0
 88 90  1  0
 89 87  2  0
 92 93  1  0
 92 67  1  0
 94 92  1  0
 96 95  1  0
 96 99  1  0
 97 96  1  0
 98 96  1  0
M  ISO  4  13 101  14 101  57 100  65 100
M  END
>  <TORSDO>  (67) 
F 27

>  <SCORE>  (67) 
-11.487

>  <name>  (67) 
68

>  <ligand_id>  (67) 
68

>  <original_smiles>  (67) 
[H]c1c([H])c([H])c2c(c1[H])C([H])([H])C([H])([H])C([H])([H])C2([H])N([H])C(=O)C1([H])N(C(=O)C([H])(N([H])C(=O)C([H])(N([H])C([H])([H])[H])C([H])([H])[H])C(C([H])([H])[H])(C([H])([H])[H])C([H])([H])[H])C([H])([H])c2c([H])c(OC([H])([H])C([H])([H])C([H])([H])[N+]([H])([H])C([H])([H])C([H])([H])C([H])(C([H])(C([H])([H])N([H])C(=O)N3C([H])([H])C([H])([H])C([H])([H])C([H])(n4nc(-c5c([H])c([H])c(Oc6c([H])c([H])c(F)c([H])c6F)c([H])c5[H])c(C(=O)N([H])[H])c4N([H])[H])C3([H])[H])C([H])([H])[N+]([H])([H])[H])[N+]([H])([H])[H])c([H])c([H])c2C1([H])[H]

>  <smiles>  (67) 
[H]c1c([H])c([H])c2c(c1[H])C([H])([H])C([H])([H])C([H])([H])C2([H])N([H])C(=O)C1([H])N(C(=O)C([H])(N([H])C(=O)C([H])(N([H])C([H])([H])[H])C([H])([H])[H])C(C([H])([H])[H])(C([H])([H])[H])C([H])([H])[H])C([H])([H])c2c([H])c(OC([H])([H])C([H])([H])C([H])([H])[N+]([H])([H])C([H])([H])C([H])([H])C([H])(C([H])(C([H])([H])N([H])C(=O)N3C([H])([H])C([H])([H])C([H])([H])C([H])(n4nc(-c5c([H])c([H])c(Oc6c([H])c([H])c(F)c([H])c6F)c([H])c5[H])c(C(=O)N([H])[H])c4N([H])[H])C3([H])[H])C([H])([H])[N+]([H])([H])[H])[N+]([H])([H])[H])c([H])c([H])c2C1([H])[H]

$$$$
69:0:0
     RDKit          3D

 96105  0  0  1  0  0  0  0  0999 V2000
  -27.7380  -21.1920   18.5620 C   0  0  0  0  0  2  0  0  0  0  0  0
  -28.7990  -20.3420   17.8340 C   0  0  0  0  0  2  0  0  0  0  0  0
  -30.4820  -19.4120   19.4340 C   0  0  0  0  0  0  0  0  0  0  0  0
  -29.3750  -19.3090   18.6910 N   0  0  0  0  0  0  0  0  0  0  0  0
  -31.1320  -20.4550   19.5230 O   0  0  0  0  0  0  0  0  0  0  0  0
  -28.9180  -18.4080   18.6780 H   0  0  0  0  0  0  0  0  0  0  0  0
  -30.7460  -14.3810   20.1920 C   0  0  0  0  0  0  0  0  0  0  0  0
  -30.2890  -12.3270   18.9030 C   0  0  0  0  0  2  0  0  0  0  0  0
  -29.2910  -12.6080   17.7650 C   0  0  0  0  0  2  0  0  0  0  0  0
  -27.8410  -12.4620   18.2670 C   0  0  0  0  0  2  0  0  0  0  0  0
  -27.5850  -13.2560   19.5740 C   0  0  0  0  0  3  0  0  0  0  0  0
  -28.6900  -12.9690   20.6170 C   0  0  0  0  0  2  0  0  0  0  0  0
  -29.9970  -13.2610   20.0010 N   0  0  0  0  0  0  0  0  0  0  0  0
  -31.7770  -14.6090   19.5480 O   0  0  0  0  0  0  0  0  0  0  0  0
  -31.8990  -18.3160   21.3300 C   0  0  0  0  0  2  0  0  0  0  0  0
  -31.3430  -15.8140   22.0920 C   0  0  0  0  0  2  0  0  0  0  0  0
  -29.2890  -16.1980   20.8820 C   0  0  0  0  0  2  0  0  0  0  0  0
  -30.9290  -18.1340   20.1560 C   0  0  0  0  0  3  0  0  0  0  0  0
  -31.0560  -17.3090   22.1270 C   0  0  0  0  0  3  0  0  0  0  0  0
  -29.9130  -17.5490   21.1650 C   0  0  0  0  0  3  0  0  0  0  0  0
  -30.3460  -15.2100   21.1810 N   0  0  0  0  0  0  0  0  0  0  0  0
  -25.2330  -13.8790   20.4150 C   0  0  0  0  0  0  0  0  0  0  0  0
  -24.1750  -13.1100   20.8200 C   0  0  0  0  0  0  0  0  0  0  0  0
  -24.6170  -11.7550   20.7330 C   0  0  0  0  0  0  0  0  0  0  0  0
  -26.2530  -12.9900   20.1110 N   0  0  0  0  0  0  0  0  0  0  0  0
  -25.8880  -11.7060   20.3570 N   0  0  0  0  0  0  0  0  0  0  0  0
  -23.8860  -10.4960   20.9290 C   0  0  0  0  0  0  0  0  0  0  0  0
  -24.3210   -9.5260   21.8590 C   0  0  0  0  0  3  0  0  0  0  0  0
  -23.5910   -8.3330   22.0420 C   0  0  0  0  0  3  0  0  0  0  0  0
  -22.4130   -8.1000   21.2950 C   0  0  0  0  0  0  0  0  0  0  0  0
  -21.9960   -9.0580   20.3540 C   0  0  0  0  0  3  0  0  0  0  0  0
  -22.7270  -10.2440   20.1690 C   0  0  0  0  0  3  0  0  0  0  0  0
  -21.6540   -6.9590   21.3880 O   0  0  0  0  0  0  0  0  0  0  0  0
  -21.5870   -6.2310   22.5490 C   0  0  0  0  0  0  0  0  0  0  0  0
  -21.1300   -6.7980   23.7600 C   0  0  0  0  0  3  0  0  0  0  0  0
  -21.0130   -5.9960   24.9120 C   0  0  0  0  0  3  0  0  0  0  0  0
  -21.3420   -4.6290   24.8560 C   0  0  0  0  0  0  0  0  0  0  0  0
  -21.7920   -4.0620   23.6510 C   0  0  0  0  0  3  0  0  0  0  0  0
  -21.9110   -4.8610   22.5010 C   0  0  0  0  0  0  0  0  0  0  0  0
  -22.3260   -4.3040   21.3370 F   0  0  0  0  0  0  0  0  0  0  0  0
  -21.2210   -3.8560   25.9610 F   0  0  0  0  0  0  0  0  0  0  0  0
  -22.8000  -13.5970   21.1750 C   0  0  0  0  0  0  0  0  0  0  0  0
  -22.1070  -12.8840   22.0570 N   0  0  0  0  0  0  0  0  0  0  0  0
  -22.3500  -14.6420   20.7080 O   0  0  0  0  0  0  0  0  0  0  0  0
  -22.4820  -12.0350   22.4550 H   0  0  0  0  0  0  0  0  0  0  0  0
  -21.1860  -13.1890   22.3360 H   0  0  0  0  0  0  0  0  0  0  0  0
  -25.4060  -15.2510   20.2620 N   0  0  0  0  0  0  0  0  0  0  0  0
  -24.6530  -15.9110   20.4240 H   0  0  0  0  0  0  0  0  0  0  0  0
  -26.2400  -15.6880   19.8930 H   0  0  0  0  0  0  0  0  0  0  0  0
  -28.3190  -22.3950   19.3370 C   0  0  0  0  0  2  0  0  0  0  0  0
  -25.9930  -23.3530   19.5040 C   0  0  0  0  0  1  0  0  0  0  0  0
  -27.3240  -23.1650   20.1380 N   0  0  2  0  0  4  0  0  0  0  0  0
  -27.1280  -22.5800   20.9370 H   0  0  0  0  0  0  0  0  0  0  0  0
  -27.8790  -24.4240   20.7190 C   0  0  0  0  0  2  0  0  0  0  0  0
  -28.4120  -25.4410   19.6780 C   0  0  0  0  0  2  0  0  0  0  0  0
  -28.3590  -26.7790   20.1800 O   0  0  0  0  0  0  0  0  0  0  0  0
  -24.4940  -31.8780   23.2600 C   0  0  0  0  0  0  0  0  0  0  0  0
  -27.1570  -27.4580   20.1700 C   0  0  0  0  0  0  0  0  0  0  0  0
  -23.2920  -30.4800   21.6120 C   0  0  0  0  0  3  0  0  0  0  0  0
  -24.7500  -28.9510   20.1890 C   0  0  0  0  0  0  0  0  0  0  0  0
  -25.8200  -30.8360   21.4300 C   0  0  0  0  0  2  0  0  0  0  0  0
  -25.9050  -29.4690   20.7890 C   0  0  0  0  0  0  0  0  0  0  0  0
  -27.1050  -28.7260   20.7860 C   0  0  0  0  0  3  0  0  0  0  0  0
  -25.9770  -26.9520   19.5690 C   0  0  0  0  0  3  0  0  0  0  0  0
  -24.7800  -27.6860   19.5850 C   0  0  0  0  0  3  0  0  0  0  0  0
  -23.5070  -29.8090   20.2310 C   0  0  0  0  0  2  0  0  0  0  0  0
  -24.5530  -31.0790   22.1580 N   0  0  0  0  0  0  0  0  0  0  0  0
  -23.4100  -32.1550   23.7930 O   0  0  0  0  0  0  0  0  0  0  0  0
  -22.6410  -29.4530   22.5640 C   0  0  0  0  0  0  0  0  0  0  0  0
  -21.3150  -29.2790   22.4370 N   0  0  0  0  0  0  0  0  0  0  0  0
  -23.3240  -28.8150   23.3690 O   0  0  0  0  0  0  0  0  0  0  0  0
  -20.8280  -29.8500   21.7620 H   0  0  0  0  0  0  0  0  0  0  0  0
  -17.9320  -28.1140   22.9330 C   0  0  0  0  0  0  0  0  0  0  0  0
  -20.4930  -28.3410   23.1990 C   0  0  0  0  0  3  0  0  0  0  0  0
  -20.5790  -26.9160   22.6060 C   0  0  0  0  0  2  0  0  0  0  0  0
  -19.4710  -26.6150   21.5920 C   0  0  0  0  0  2  0  0  0  0  0  0
  -18.0920  -26.7690   22.2440 C   0  0  0  0  0  2  0  0  0  0  0  0
  -19.0600  -28.8590   23.3670 C   0  0  0  0  0  0  0  0  0  0  0  0
  -18.8600  -30.1200   23.9680 C   0  0  0  0  0  3  0  0  0  0  0  0
  -17.5620  -30.6350   24.1430 C   0  0  0  0  0  3  0  0  0  0  0  0
  -16.4470  -29.8860   23.7280 C   0  0  0  0  0  3  0  0  0  0  0  0
  -16.6330  -28.6280   23.1270 C   0  0  0  0  0  3  0  0  0  0  0  0
  -25.7780  -32.5030   23.8880 C   0  0  0  0  0  3  0  0  0  0  0  0
  -25.4770  -33.9040   24.2040 N   0  0  0  0  0  0  0  0  0  0  0  0
  -25.8150  -34.9480   23.4340 C   0  0  0  0  0  0  0  0  0  0  0  0
  -26.4880  -34.8320   22.4060 O   0  0  0  0  0  0  0  0  0  0  0  0
  -24.8810  -34.0720   25.0010 H   0  0  0  0  0  0  0  0  0  0  0  0
  -24.0950  -36.7410   23.0490 C   0  0  0  0  0  1  0  0  0  0  0  0
  -25.3290  -36.3410   23.8740 C   0  0  0  0  0  3  0  0  0  0  0  0
  -27.4590  -37.2260   24.7140 C   0  0  0  0  0  1  0  0  0  0  0  0
  -26.3650  -37.3890   23.7600 N   0  0  0  0  0  0  0  0  0  0  0  0
  -25.9600  -38.3120   23.8890 H   0  0  0  0  0  0  0  0  0  0  0  0
  -26.2840  -31.7340   25.1690 C   0  0  1  0  0  0  0  0  0  0  0  0
  -25.1810  -31.4980   26.2290 C   0  0  0  0  0  1  0  0  0  0  0  0
  -26.8670  -30.3540   24.7840 C   0  0  0  0  0  1  0  0  0  0  0  0
  -27.4330  -32.5260   25.8380 C   0  0  0  0  0  1  0  0  0  0  0  0
  1 50  1  0
  2  1  1  0
  2  4  1  0
  3  5  2  0
  4  3  1  0
  6  4  1  0
  7 21  1  0
  8 13  1  0
  9 10  1  0
  9  8  1  0
 11 10  1  0
 11 25  1  0
 11 12  1  0
 13  7  1  0
 13 12  1  0
 14  7  2  0
 16 19  1  0
 17 21  1  0
 18  3  1  0
 18 20  1  0
 18 15  1  0
 19 15  1  0
 20 17  1  0
 20 19  1  0
 21 16  1  0
 22 23  2  0
 23 42  1  0
 24 23  1  0
 24 27  1  0
 25 26  1  0
 25 22  1  0
 26 24  2  0
 27 28  1  0
 28 29  2  0
 30 33  1  0
 30 29  1  0
 31 30  2  0
 32 31  1  0
 32 27  2  0
 33 34  1  0
 34 35  1  0
 35 36  2  0
 37 36  1  0
 37 41  1  0
 38 37  2  0
 39 34  2  0
 39 38  1  0
 40 39  1  0
 42 43  1  0
 43 46  1  0
 43 45  1  0
 44 42  2  0
 47 22  1  0
 47 48  1  0
 49 47  1  0
 50 52  1  0
 51 52  1  0
 52 54  1  0
 52 53  1  1
 55 56  1  0
 55 54  1  0
 57 68  2  0
 58 56  1  0
 58 63  1  0
 59 67  1  0
 59 69  1  0
 60 66  1  0
 60 62  1  0
 61 67  1  0
 62 61  1  0
 63 62  2  0
 64 65  1  0
 64 58  2  0
 65 60  2  0
 66 59  1  0
 67 57  1  0
 69 71  2  0
 70 69  1  0
 72 70  1  0
 73 82  2  0
 73 78  1  0
 74 70  1  0
 74 78  1  0
 75 74  1  0
 76 77  1  0
 76 75  1  0
 77 73  1  0
 78 79  2  0
 79 80  1  0
 81 80  2  0
 82 81  1  0
 83 57  1  0
 83 84  1  0
 83 93  1  0
 84 87  1  0
 85 89  1  0
 85 84  1  0
 86 85  2  0
 89 88  1  0
 91 89  1  0
 91 92  1  0
 91 90  1  0
 93 96  1  1
 93 94  1  0
 95 93  1  0
M  ISO  4   7 100  21 100  55 101  56 101
M  END
>  <TORSDO>  (68) 
F 22

>  <SCORE>  (68) 
-13.087

>  <name>  (68) 
69

>  <ligand_id>  (68) 
69

>  <original_smiles>  (68) 
[H]c1c([H])c([H])c2c(c1[H])C([H])([H])C([H])([H])C([H])([H])C2([H])N([H])C(=O)C1([H])N(C(=O)C([H])(N([H])C(=O)C([H])(N([H])C([H])([H])[H])C([H])([H])[H])C(C([H])([H])[H])(C([H])([H])[H])C([H])([H])[H])C([H])([H])c2c([H])c(OC([H])([H])C([H])([H])[N+]([H])(C([H])([H])[H])C([H])([H])C([H])([H])C([H])([H])N([H])C(=O)C3([H])C([H])([H])C4([H])C([H])([H])N(C(=O)N5C([H])([H])C([H])([H])C([H])([H])C([H])(n6nc(-c7c([H])c([H])c(Oc8c([H])c([H])c(F)c([H])c8F)c([H])c7[H])c(C(=O)N([H])[H])c6N([H])[H])C5([H])[H])C([H])([H])C34[H])c([H])c([H])c2C1([H])[H]

>  <smiles>  (68) 
[H]c1c([H])c([H])c2c(c1[H])C([H])([H])C([H])([H])C([H])([H])C2([H])N([H])C(=O)C1([H])N(C(=O)C([H])(N([H])C(=O)C([H])(N([H])C([H])([H])[H])C([H])([H])[H])C(C([H])([H])[H])(C([H])([H])[H])C([H])([H])[H])C([H])([H])c2c([H])c(OC([H])([H])C([H])([H])[N+]([H])(C([H])([H])[H])C([H])([H])C([H])([H])C([H])([H])N([H])C(=O)C3([H])C([H])([H])C4([H])C([H])([H])N(C(=O)N5C([H])([H])C([H])([H])C([H])([H])C([H])(n6nc(-c7c([H])c([H])c(Oc8c([H])c([H])c(F)c([H])c8F)c([H])c7[H])c(C(=O)N([H])[H])c6N([H])[H])C5([H])[H])C([H])([H])C34[H])c([H])c([H])c2C1([H])[H]

$$$$
70:0:0
     RDKit          3D

 98107  0  0  1  0  0  0  0  0999 V2000
  -28.7650  -23.9390   20.2970 C   0  0  0  0  0  2  0  0  0  0  0  0
  -28.6490  -24.5830   18.9020 C   0  0  0  0  0  2  0  0  0  0  0  0
  -31.1740  -24.6140   20.4260 C   0  0  0  0  0  2  0  0  0  0  0  0
  -30.1940  -23.4380   20.5780 C   0  0  0  0  0  3  0  0  0  0  0  0
  -29.6810  -25.7120   18.6520 C   0  0  0  0  0  3  0  0  0  0  0  0
  -31.1170  -25.2350   19.0130 C   0  0  0  0  0  3  0  0  0  0  0  0
  -32.1020  -26.3300   18.9170 N   0  0  0  0  0  4  0  0  0  0  0  0
  -31.9070  -27.0610   19.5810 H   0  0  0  0  0  0  0  0  0  0  0  0
  -32.1040  -26.7330   17.9970 H   0  0  0  0  0  0  0  0  0  0  0  0
  -33.0270  -25.9810   19.0930 H   0  0  0  0  0  0  0  0  0  0  0  0
  -29.5970  -26.1930   17.1780 C   0  0  0  0  0  2  0  0  0  0  0  0
  -27.7560  -26.2980   15.4320 C   0  0  0  0  0  3  0  0  0  0  0  0
  -27.3760  -27.3730   17.5840 C   0  0  0  0  0  3  0  0  0  0  0  0
  -26.4900  -26.7280   14.9930 C   0  0  0  0  0  3  0  0  0  0  0  0
  -26.0990  -27.7880   17.1530 C   0  0  0  0  0  3  0  0  0  0  0  0
  -28.2060  -26.6170   16.7280 C   0  0  0  0  0  0  0  0  0  0  0  0
  -25.6480  -27.4670   15.8550 C   0  0  0  0  0  0  0  0  0  0  0  0
  -24.2680  -27.9150   15.3950 C   0  0  0  0  0  2  0  0  0  0  0  0
  -22.6590  -27.2500   13.6720 C   0  0  0  0  0  0  0  0  0  0  0  0
  -22.0840  -27.3120   11.2820 C   0  0  0  0  0  2  0  0  0  0  0  0
  -22.5430  -25.9980   10.6170 C   0  0  0  0  0  2  0  0  0  0  0  0
  -24.0130  -26.0990   10.1650 C   0  0  0  0  0  2  0  0  0  0  0  0
  -24.9490  -26.6440   11.2770 C   0  0  0  0  0  3  0  0  0  0  0  0
  -24.3500  -27.9110   11.9210 C   0  0  0  0  0  2  0  0  0  0  0  0
  -22.9950  -27.5870   12.4010 N   0  0  0  0  0  0  0  0  0  0  0  0
  -21.5140  -26.9500   14.0210 O   0  0  0  0  0  0  0  0  0  0  0  0
  -23.6780  -26.9520   14.4760 N   0  0  0  0  0  0  0  0  0  0  0  0
  -23.4840  -26.0990   14.9780 H   0  0  0  0  0  0  0  0  0  0  0  0
  -27.4740  -26.1980   11.0300 C   0  0  0  0  0  0  0  0  0  0  0  0
  -28.4380  -26.7920   10.2590 C   0  0  0  0  0  0  0  0  0  0  0  0
  -27.7770  -27.8360    9.5420 C   0  0  0  0  0  0  0  0  0  0  0  0
  -26.3000  -26.8870   10.7700 N   0  0  0  0  0  0  0  0  0  0  0  0
  -26.5040  -27.9110    9.9030 N   0  0  0  0  0  0  0  0  0  0  0  0
  -28.2720  -28.7310    8.4860 C   0  0  0  0  0  0  0  0  0  0  0  0
  -28.6100  -30.0750    8.7530 C   0  0  0  0  0  3  0  0  0  0  0  0
  -29.0960  -30.9090    7.7210 C   0  0  0  0  0  3  0  0  0  0  0  0
  -29.2520  -30.3980    6.4110 C   0  0  0  0  0  0  0  0  0  0  0  0
  -28.8900  -29.0660    6.1460 C   0  0  0  0  0  3  0  0  0  0  0  0
  -28.4010  -28.2410    7.1720 C   0  0  0  0  0  3  0  0  0  0  0  0
  -29.6930  -31.1410    5.3440 O   0  0  0  0  0  0  0  0  0  0  0  0
  -30.5780  -32.1770    5.5040 C   0  0  0  0  0  0  0  0  0  0  0  0
  -31.9300  -31.9560    5.8470 C   0  0  0  0  0  3  0  0  0  0  0  0
  -32.8200  -33.0430    5.9320 C   0  0  0  0  0  3  0  0  0  0  0  0
  -32.3660  -34.3500    5.6680 C   0  0  0  0  0  0  0  0  0  0  0  0
  -31.0220  -34.5710    5.3220 C   0  0  0  0  0  3  0  0  0  0  0  0
  -30.1320  -33.4870    5.2370 C   0  0  0  0  0  0  0  0  0  0  0  0
  -28.8410  -33.7030    4.8830 F   0  0  0  0  0  0  0  0  0  0  0  0
  -33.2230  -35.3940    5.7420 F   0  0  0  0  0  0  0  0  0  0  0  0
  -29.8670  -26.3530   10.1180 C   0  0  0  0  0  0  0  0  0  0  0  0
  -30.8120  -27.2730   10.2820 N   0  0  0  0  0  0  0  0  0  0  0  0
  -30.1560  -25.1770    9.9030 O   0  0  0  0  0  0  0  0  0  0  0  0
  -30.5780  -28.2350   10.4750 H   0  0  0  0  0  0  0  0  0  0  0  0
  -31.7830  -27.0120   10.2070 H   0  0  0  0  0  0  0  0  0  0  0  0
  -27.4930  -25.1210   11.9090 N   0  0  0  0  0  0  0  0  0  0  0  0
  -28.3280  -24.5680   12.0660 H   0  0  0  0  0  0  0  0  0  0  0  0
  -26.6740  -24.7520   12.3730 H   0  0  0  0  0  0  0  0  0  0  0  0
  -30.3190  -22.7590   21.9630 C   0  0  0  0  0  2  0  0  0  0  0  0
  -29.9500  -21.3820   21.8820 O   0  0  0  0  0  0  0  0  0  0  0  0
  -36.8260  -20.0840   20.5150 C   0  0  0  0  0  0  0  0  0  0  0  0
  -30.8980  -20.5630   21.3140 C   0  0  0  0  0  0  0  0  0  0  0  0
  -35.1910  -18.6730   19.3040 C   0  0  0  0  0  3  0  0  0  0  0  0
  -32.7760  -18.8330   20.1160 C   0  0  0  0  0  0  0  0  0  0  0  0
  -34.6180  -19.6660   21.5890 C   0  0  0  0  0  2  0  0  0  0  0  0
  -33.1740  -19.6980   21.1440 C   0  0  0  0  0  0  0  0  0  0  0  0
  -32.2410  -20.5670   21.7450 C   0  0  0  0  0  3  0  0  0  0  0  0
  -30.5010  -19.6810   20.2900 C   0  0  0  0  0  3  0  0  0  0  0  0
  -31.4380  -18.8230   19.6800 C   0  0  0  0  0  3  0  0  0  0  0  0
  -33.8420  -17.9360   19.5270 C   0  0  0  0  0  2  0  0  0  0  0  0
  -35.5840  -19.5230   20.4750 N   0  0  0  0  0  0  0  0  0  0  0  0
  -37.6540  -19.8680   19.6200 O   0  0  0  0  0  0  0  0  0  0  0  0
  -35.1040  -19.4600   17.9770 C   0  0  0  0  0  0  0  0  0  0  0  0
  -35.3450  -18.7670   16.8510 N   0  0  0  0  0  0  0  0  0  0  0  0
  -34.7990  -20.6550   17.9710 O   0  0  0  0  0  0  0  0  0  0  0  0
  -35.6010  -17.7950   16.9390 H   0  0  0  0  0  0  0  0  0  0  0  0
  -36.1350  -18.0160   13.4110 C   0  0  0  0  0  0  0  0  0  0  0  0
  -35.2810  -19.2920   15.4890 C   0  0  0  0  0  3  0  0  0  0  0  0
  -33.8650  -19.1150   14.8910 C   0  0  0  0  0  2  0  0  0  0  0  0
  -33.7080  -17.8160   14.0930 C   0  0  0  0  0  2  0  0  0  0  0  0
  -34.7130  -17.7670   12.9400 C   0  0  0  0  0  2  0  0  0  0  0  0
  -36.4020  -18.7180   14.6160 C   0  0  0  0  0  0  0  0  0  0  0  0
  -37.7420  -18.8860   15.0270 C   0  0  0  0  0  3  0  0  0  0  0  0
  -38.8020  -18.3760   14.2530 C   0  0  0  0  0  3  0  0  0  0  0  0
  -38.5320  -17.6960   13.0540 C   0  0  0  0  0  3  0  0  0  0  0  0
  -37.2020  -17.5200   12.6330 C   0  0  0  0  0  3  0  0  0  0  0  0
  -37.2740  -21.0030   21.6940 C   0  0  0  0  0  3  0  0  0  0  0  0
  -38.5330  -20.4630   22.2240 N   0  0  0  0  0  0  0  0  0  0  0  0
  -38.6420  -19.7730   23.3670 C   0  0  0  0  0  0  0  0  0  0  0  0
  -37.6900  -19.5850   24.1320 O   0  0  0  0  0  0  0  0  0  0  0  0
  -39.3470  -20.5360   21.6310 H   0  0  0  0  0  0  0  0  0  0  0  0
  -39.9470  -17.6640   23.7880 C   0  0  0  0  0  1  0  0  0  0  0  0
  -40.0290  -19.1990   23.7200 C   0  0  0  0  0  3  0  0  0  0  0  0
  -41.1430  -21.0680   24.8580 C   0  0  0  0  0  1  0  0  0  0  0  0
  -40.5800  -19.7250   24.9880 N   0  0  0  0  0  0  0  0  0  0  0  0
  -41.3040  -19.1100   25.3490 H   0  0  0  0  0  0  0  0  0  0  0  0
  -37.4460  -22.5150   21.2770 C   0  0  1  0  0  0  0  0  0  0  0  0
  -38.7650  -22.8060   20.5230 C   0  0  0  0  0  1  0  0  0  0  0  0
  -36.2750  -22.9650   20.3730 C   0  0  0  0  0  1  0  0  0  0  0  0
  -37.4090  -23.4140   22.5350 C   0  0  0  0  0  1  0  0  0  0  0  0
  1  4  1  0
  2  1  1  0
  3  4  1  0
  4 57  1  0
  5 11  1  0
  5  2  1  0
  5  6  1  0
  6  7  1  0
  6  3  1  0
  7 10  1  0
  7  8  1  0
  9  7  1  0
 12 16  1  0
 14 12  2  0
 14 17  1  0
 15 13  1  0
 16 11  1  0
 16 13  2  0
 17 15  2  0
 18 17  1  0
 19 26  2  0
 19 27  1  0
 20 25  1  0
 21 20  1  0
 22 21  1  0
 23 22  1  0
 23 24  1  0
 24 25  1  0
 25 19  1  0
 27 28  1  0
 27 18  1  0
 29 54  1  0
 30 29  2  0
 31 33  2  0
 31 30  1  0
 32 29  1  0
 32 23  1  0
 33 32  1  0
 34 35  1  0
 34 31  1  0
 36 35  2  0
 37 36  1  0
 38 37  2  0
 38 39  1  0
 39 34  2  0
 40 41  1  0
 40 37  1  0
 41 42  1  0
 42 43  2  0
 44 48  1  0
 44 43  1  0
 45 44  2  0
 46 45  1  0
 46 41  2  0
 47 46  1  0
 49 30  1  0
 49 50  1  0
 50 52  1  0
 51 49  2  0
 53 50  1  0
 54 55  1  0
 54 56  1  0
 58 57  1  0
 60 65  1  0
 60 58  1  0
 61 71  1  0
 61 68  1  0
 61 69  1  0
 62 64  1  0
 64 63  1  0
 64 65  2  0
 66 60  2  0
 67 62  2  0
 67 66  1  0
 68 62  1  0
 69 59  1  0
 69 63  1  0
 70 59  2  0
 72 74  1  0
 72 71  1  0
 73 71  2  0
 75 80  1  0
 76 72  1  0
 77 76  1  0
 78 77  1  0
 79 75  1  0
 79 78  1  0
 80 81  2  0
 80 76  1  0
 82 81  1  0
 83 82  2  0
 84 83  1  0
 84 75  2  0
 85 59  1  0
 85 86  1  0
 86 87  1  0
 87 91  1  0
 87 88  2  0
 89 86  1  0
 91 90  1  0
 91 93  1  0
 92 93  1  0
 93 94  1  0
 95 85  1  0
 95 98  1  1
 96 95  1  0
 97 95  1  0
M  ISO  4  19 100  27 100  57 101  58 101
M  END
>  <TORSDO>  (69) 
F 21

>  <SCORE>  (69) 
-5.198

>  <name>  (69) 
70

>  <ligand_id>  (69) 
70

>  <original_smiles>  (69) 
[H]c1c([H])c([H])c2c(c1[H])C([H])([H])C([H])([H])C([H])([H])C2([H])N([H])C(=O)C1([H])N(C(=O)C([H])(N([H])C(=O)C([H])(N([H])C([H])([H])[H])C([H])([H])[H])C(C([H])([H])[H])(C([H])([H])[H])C([H])([H])[H])C([H])([H])c2c([H])c(OC([H])([H])C3([H])C([H])([H])C([H])([H])C([H])(C([H])([H])c4c([H])c([H])c(C([H])([H])N([H])C(=O)N5C([H])([H])C([H])([H])C([H])([H])C([H])(n6nc(-c7c([H])c([H])c(Oc8c([H])c([H])c(F)c([H])c8F)c([H])c7[H])c(C(=O)N([H])[H])c6N([H])[H])C5([H])[H])c([H])c4[H])C([H])([N+]([H])([H])[H])C3([H])[H])c([H])c([H])c2C1([H])[H]

>  <smiles>  (69) 
[H]c1c([H])c([H])c2c(c1[H])C([H])([H])C([H])([H])C([H])([H])C2([H])N([H])C(=O)C1([H])N(C(=O)C([H])(N([H])C(=O)C([H])(N([H])C([H])([H])[H])C([H])([H])[H])C(C([H])([H])[H])(C([H])([H])[H])C([H])([H])[H])C([H])([H])c2c([H])c(OC([H])([H])C3([H])C([H])([H])C([H])([H])C([H])(C([H])([H])c4c([H])c([H])c(C([H])([H])N([H])C(=O)N5C([H])([H])C([H])([H])C([H])([H])C([H])(n6nc(-c7c([H])c([H])c(Oc8c([H])c([H])c(F)c([H])c8F)c([H])c7[H])c(C(=O)N([H])[H])c6N([H])[H])C5([H])[H])c([H])c4[H])C([H])([N+]([H])([H])[H])C3([H])[H])c([H])c([H])c2C1([H])[H]

$$$$
71:0:0
     RDKit          3D

 92100  0  0  1  0  0  0  0  0999 V2000
  -29.8270  -21.4520   22.2310 C   0  0  0  0  0  3  0  0  0  0  0  0
  -29.3340  -22.6160   21.5750 C   0  0  0  0  0  3  0  0  0  0  0  0
  -29.2990  -21.2470   19.5950 C   0  0  0  0  0  3  0  0  0  0  0  0
  -30.0570  -20.1760   21.6290 C   0  0  0  0  0  0  0  0  0  0  0  0
  -29.0010  -22.6500   20.2080 C   0  0  0  0  0  0  0  0  0  0  0  0
  -29.8470  -19.9350   20.2410 C   0  0  0  0  0  0  0  0  0  0  0  0
  -30.5550  -19.0840   22.5260 C   0  0  0  0  0  0  0  0  0  0  0  0
  -29.8390  -17.9700   22.5130 N   0  0  0  0  0  0  0  0  0  0  0  0
  -31.5320  -19.2410   23.2570 O   0  0  0  0  0  0  0  0  0  0  0  0
  -29.0130  -17.9180   21.9340 H   0  0  0  0  0  0  0  0  0  0  0  0
  -30.0810  -17.2000   23.1170 H   0  0  0  0  0  0  0  0  0  0  0  0
  -30.3680  -18.3720   19.5720 C   0  0  0  0  0  2  0  0  0  0  0  0
  -30.9590  -15.4310   19.7000 C   0  0  0  0  0  0  0  0  0  0  0  0
  -30.8220  -13.0010   18.7590 C   0  0  0  0  0  2  0  0  0  0  0  0
  -29.8150  -12.8460   17.5880 C   0  0  0  0  0  2  0  0  0  0  0  0
  -28.3980  -12.5810   18.1220 C   0  0  0  0  0  2  0  0  0  0  0  0
  -28.0490  -13.5100   19.3120 C   0  0  0  0  0  3  0  0  0  0  0  0
  -29.1780  -13.6090   20.3630 C   0  0  0  0  0  2  0  0  0  0  0  0
  -30.3680  -14.1260   19.6660 N   0  0  0  0  0  0  0  0  0  0  0  0
  -32.1390  -15.4080   19.3200 O   0  0  0  0  0  0  0  0  0  0  0  0
  -30.2470  -16.7250   19.9550 N   0  0  0  0  0  0  0  0  0  0  0  0
  -29.3320  -16.5260   20.3290 H   0  0  0  0  0  0  0  0  0  0  0  0
  -25.7480  -14.0800   20.2400 C   0  0  0  0  0  0  0  0  0  0  0  0
  -24.7020  -13.3100   20.6660 C   0  0  0  0  0  0  0  0  0  0  0  0
  -25.1430  -11.9540   20.5710 C   0  0  0  0  0  0  0  0  0  0  0  0
  -26.7560  -13.1970   19.9050 N   0  0  0  0  0  0  0  0  0  0  0  0
  -26.4100  -11.9100   20.1710 N   0  0  0  0  0  0  0  0  0  0  0  0
  -24.4100  -10.6990   20.7830 C   0  0  0  0  0  0  0  0  0  0  0  0
  -24.8030   -9.7680   21.7680 C   0  0  0  0  0  3  0  0  0  0  0  0
  -24.0660   -8.5800   21.9670 C   0  0  0  0  0  3  0  0  0  0  0  0
  -22.9220   -8.3150   21.1780 C   0  0  0  0  0  0  0  0  0  0  0  0
  -22.5480   -9.2330   20.1820 C   0  0  0  0  0  3  0  0  0  0  0  0
  -23.2850  -10.4130   19.9820 C   0  0  0  0  0  3  0  0  0  0  0  0
  -22.1610   -7.1750   21.2820 O   0  0  0  0  0  0  0  0  0  0  0  0
  -21.9300   -6.5720   22.4930 C   0  0  0  0  0  0  0  0  0  0  0  0
  -21.3060   -7.2550   23.5590 C   0  0  0  0  0  3  0  0  0  0  0  0
  -21.0240   -6.5770   24.7620 C   0  0  0  0  0  3  0  0  0  0  0  0
  -21.3570   -5.2170   24.8980 C   0  0  0  0  0  0  0  0  0  0  0  0
  -21.9730   -4.5320   23.8350 C   0  0  0  0  0  3  0  0  0  0  0  0
  -22.2550   -5.2080   22.6350 C   0  0  0  0  0  0  0  0  0  0  0  0
  -22.8300   -4.5380   21.6070 F   0  0  0  0  0  0  0  0  0  0  0  0
  -21.0800   -4.5620   26.0500 F   0  0  0  0  0  0  0  0  0  0  0  0
  -23.3340  -13.8030   21.0380 C   0  0  0  0  0  0  0  0  0  0  0  0
  -22.6710  -13.1260   21.9680 N   0  0  0  0  0  0  0  0  0  0  0  0
  -22.8660  -14.8250   20.5370 O   0  0  0  0  0  0  0  0  0  0  0  0
  -23.0660  -12.2990   22.3930 H   0  0  0  0  0  0  0  0  0  0  0  0
  -21.7560  -13.4380   22.2610 H   0  0  0  0  0  0  0  0  0  0  0  0
  -25.9170  -15.4530   20.0800 N   0  0  0  0  0  0  0  0  0  0  0  0
  -25.1630  -16.1090   20.2500 H   0  0  0  0  0  0  0  0  0  0  0  0
  -26.7270  -15.8830   19.6530 H   0  0  0  0  0  0  0  0  0  0  0  0
  -28.2220  -24.1300   19.6260 C   0  0  0  0  0  2  0  0  0  0  0  0
  -28.3610  -25.7590   19.9740 O   0  0  0  0  0  0  0  0  0  0  0  0
  -24.7230  -31.6920   22.9800 C   0  0  0  0  0  0  0  0  0  0  0  0
  -27.3400  -26.8630   19.8820 C   0  0  0  0  0  0  0  0  0  0  0  0
  -23.5330  -30.2710   21.3600 C   0  0  0  0  0  3  0  0  0  0  0  0
  -24.9950  -28.7100   19.8920 C   0  0  0  0  0  0  0  0  0  0  0  0
  -26.0920  -30.5390   21.1650 C   0  0  0  0  0  2  0  0  0  0  0  0
  -26.1840  -29.1320   20.4980 C   0  0  0  0  0  0  0  0  0  0  0  0
  -27.3440  -28.2290   20.4720 C   0  0  0  0  0  3  0  0  0  0  0  0
  -26.1200  -26.6100   19.2130 C   0  0  0  0  0  3  0  0  0  0  0  0
  -24.9890  -27.4710   19.2290 C   0  0  0  0  0  3  0  0  0  0  0  0
  -23.7520  -29.6000   19.9750 C   0  0  0  0  0  2  0  0  0  0  0  0
  -24.8060  -30.8630   21.8880 N   0  0  0  0  0  0  0  0  0  0  0  0
  -23.6390  -31.9510   23.5240 O   0  0  0  0  0  0  0  0  0  0  0  0
  -22.8850  -29.2550   22.3360 C   0  0  0  0  0  0  0  0  0  0  0  0
  -21.5590  -29.0420   22.2270 N   0  0  0  0  0  0  0  0  0  0  0  0
  -23.5800  -28.6600   23.1630 O   0  0  0  0  0  0  0  0  0  0  0  0
  -21.0480  -29.5760   21.5380 H   0  0  0  0  0  0  0  0  0  0  0  0
  -18.2350  -27.6890   22.7620 C   0  0  0  0  0  0  0  0  0  0  0  0
  -20.7810  -28.0760   23.0110 C   0  0  0  0  0  3  0  0  0  0  0  0
  -20.9450  -26.6440   22.4480 C   0  0  0  0  0  2  0  0  0  0  0  0
  -19.8540  -26.2620   21.4420 C   0  0  0  0  0  2  0  0  0  0  0  0
  -18.4710  -26.3460   22.0920 C   0  0  0  0  0  2  0  0  0  0  0  0
  -19.3180  -28.5080   23.1790 C   0  0  0  0  0  0  0  0  0  0  0  0
  -19.0410  -29.7590   23.7700 C   0  0  0  0  0  3  0  0  0  0  0  0
  -17.7130  -30.1960   23.9460 C   0  0  0  0  0  3  0  0  0  0  0  0
  -16.6450  -29.3750   23.5420 C   0  0  0  0  0  3  0  0  0  0  0  0
  -16.9070  -28.1250   22.9570 C   0  0  0  0  0  3  0  0  0  0  0  0
  -25.9900  -32.3670   23.5890 C   0  0  0  0  0  3  0  0  0  0  0  0
  -26.5910  -31.5660   24.8100 C   0  0  1  0  0  0  0  0  0  0  0  0
  -25.5490  -31.2070   25.8950 C   0  0  0  0  0  1  0  0  0  0  0  0
  -27.2460  -30.2480   24.3390 C   0  0  0  0  0  1  0  0  0  0  0  0
  -27.7110  -32.3970   25.4800 C   0  0  0  0  0  1  0  0  0  0  0  0
  -25.6180  -33.7290   24.0140 N   0  0  0  0  0  0  0  0  0  0  0  0
  -25.9000  -34.8510   23.3360 C   0  0  0  0  0  0  0  0  0  0  0  0
  -26.5600  -34.8480   22.2940 O   0  0  0  0  0  0  0  0  0  0  0  0
  -25.0260  -33.8000   24.8280 H   0  0  0  0  0  0  0  0  0  0  0  0
  -24.1020  -36.6020   23.1350 C   0  0  0  0  0  1  0  0  0  0  0  0
  -25.3680  -36.1840   23.8990 C   0  0  0  0  0  3  0  0  0  0  0  0
  -27.4740  -37.0960   24.7740 C   0  0  0  0  0  1  0  0  0  0  0  0
  -26.3580  -37.2830   23.8520 N   0  0  0  0  0  0  0  0  0  0  0  0
  -25.9170  -38.1750   24.0610 H   0  0  0  0  0  0  0  0  0  0  0  0
  2  1  2  0
  3  5  2  0
  3  6  1  0
  4  1  1  0
  4  7  1  0
  5  2  1  0
  6  4  2  0
  7  9  2  0
  8  7  1  0
  8 11  1  0
 10  8  1  0
 12 21  1  0
 12  6  1  0
 13 21  1  0
 14 19  1  0
 15 16  1  0
 15 14  1  0
 17 16  1  0
 17 26  1  0
 17 18  1  0
 19 13  1  0
 19 18  1  0
 20 13  2  0
 21 22  1  0
 23 24  2  0
 24 43  1  0
 25 24  1  0
 25 28  1  0
 26 27  1  0
 26 23  1  0
 27 25  2  0
 28 29  1  0
 29 30  2  0
 31 34  1  0
 31 30  1  0
 32 31  2  0
 33 32  1  0
 33 28  2  0
 34 35  1  0
 35 40  2  0
 35 36  1  0
 36 37  2  0
 37 38  1  0
 38 42  1  0
 39 38  2  0
 40 39  1  0
 41 40  1  0
 43 44  1  0
 44 47  1  0
 44 46  1  0
 45 43  2  0
 48 23  1  0
 48 49  1  0
 50 48  1  0
 51 52  1  0
 51  5  1  0
 53 64  2  0
 54 52  1  0
 54 59  1  0
 55 63  1  0
 55 65  1  0
 56 62  1  0
 56 58  1  0
 57 63  1  0
 58 57  1  0
 59 58  2  0
 60 61  1  0
 60 54  2  0
 61 56  2  0
 62 55  1  0
 63 53  1  0
 65 67  2  0
 66 65  1  0
 68 66  1  0
 69 78  2  0
 69 74  1  0
 70 66  1  0
 70 74  1  0
 71 70  1  0
 72 73  1  0
 72 71  1  0
 73 69  1  0
 74 75  2  0
 75 76  1  0
 77 76  2  0
 78 77  1  0
 79 53  1  0
 79 84  1  0
 79 80  1  0
 80 83  1  1
 80 81  1  0
 82 80  1  0
 84 87  1  0
 85 89  1  0
 85 84  1  0
 86 85  2  0
 89 88  1  0
 91 89  1  0
 91 92  1  0
 91 90  1  0
M  ISO  4  13 100  21 100  51 101  52 101
M  END
>  <TORSDO>  (70) 
F 19

>  <SCORE>  (70) 
-14.005

>  <name>  (70) 
71

>  <ligand_id>  (70) 
71

>  <original_smiles>  (70) 
[H]c1c([H])c([H])c2c(c1[H])C([H])([H])C([H])([H])C([H])([H])C2([H])N([H])C(=O)C1([H])N(C(=O)C([H])(N([H])C(=O)C([H])(N([H])C([H])([H])[H])C([H])([H])[H])C(C([H])([H])[H])(C([H])([H])[H])C([H])([H])[H])C([H])([H])c2c([H])c(OC([H])([H])c3c([H])c([H])c(C(=O)N([H])[H])c(C([H])([H])N([H])C(=O)N4C([H])([H])C([H])([H])C([H])([H])C([H])(n5nc(-c6c([H])c([H])c(Oc7c([H])c([H])c(F)c([H])c7F)c([H])c6[H])c(C(=O)N([H])[H])c5N([H])[H])C4([H])[H])c3[H])c([H])c([H])c2C1([H])[H]

>  <smiles>  (70) 
[H]c1c([H])c([H])c2c(c1[H])C([H])([H])C([H])([H])C([H])([H])C2([H])N([H])C(=O)C1([H])N(C(=O)C([H])(N([H])C(=O)C([H])(N([H])C([H])([H])[H])C([H])([H])[H])C(C([H])([H])[H])(C([H])([H])[H])C([H])([H])[H])C([H])([H])c2c([H])c(OC([H])([H])c3c([H])c([H])c(C(=O)N([H])[H])c(C([H])([H])N([H])C(=O)N4C([H])([H])C([H])([H])C([H])([H])C([H])(n5nc(-c6c([H])c([H])c(Oc7c([H])c([H])c(F)c([H])c7F)c([H])c6[H])c(C(=O)N([H])[H])c5N([H])[H])C4([H])[H])c3[H])c([H])c([H])c2C1([H])[H]

$$$$
72:0:0
     RDKit          3D

 92100  0  0  1  0  0  0  0  0999 V2000
  -28.1910  -19.8450   21.0040 C   0  0  0  0  0  3  0  0  0  0  0  0
  -30.3300  -20.0670   19.2740 C   0  0  0  0  0  3  0  0  0  0  0  0
  -28.6000  -21.1350   20.6010 C   0  0  0  0  0  0  0  0  0  0  0  0
  -28.8440  -18.6610   20.5920 C   0  0  0  0  0  0  0  0  0  0  0  0
  -29.6920  -21.2940   19.7150 C   0  0  0  0  0  0  0  0  0  0  0  0
  -29.9420  -18.7260   19.6890 C   0  0  0  0  0  0  0  0  0  0  0  0
  -27.8780  -22.3270   21.2090 C   0  0  0  0  0  1  0  0  0  0  0  0
  -28.3550  -17.3590   21.2020 C   0  0  0  0  0  1  0  0  0  0  0  0
  -30.2830  -22.7420   19.4140 C   0  0  0  0  0  2  0  0  0  0  0  0
  -30.0270  -24.5490   17.6000 C   0  0  0  0  0  1  0  0  0  0  0  0
  -29.4250  -24.0330   18.9180 C   0  0  0  0  0  3  0  0  0  0  0  0
  -29.2540  -25.2870   19.9240 C   0  0  0  0  0  2  0  0  0  0  0  0
  -29.1030  -26.6950   19.4580 O   0  0  0  0  0  0  0  0  0  0  0  0
  -24.7520  -31.2980   22.9840 C   0  0  0  0  0  0  0  0  0  0  0  0
  -27.8770  -27.3670   19.5590 C   0  0  0  0  0  0  0  0  0  0  0  0
  -23.7190  -29.9510   21.1880 C   0  0  0  0  0  3  0  0  0  0  0  0
  -25.3470  -28.7010   19.6530 C   0  0  0  0  0  0  0  0  0  0  0  0
  -26.2100  -30.5540   21.0860 C   0  0  0  0  0  2  0  0  0  0  0  0
  -26.4470  -29.2600   20.3150 C   0  0  0  0  0  0  0  0  0  0  0  0
  -27.7170  -28.6090   20.2490 C   0  0  0  0  0  3  0  0  0  0  0  0
  -26.7470  -26.8480   18.8940 C   0  0  0  0  0  3  0  0  0  0  0  0
  -25.4980  -27.5050   18.9330 C   0  0  0  0  0  3  0  0  0  0  0  0
  -24.0210  -29.4310   19.7560 C   0  0  0  0  0  2  0  0  0  0  0  0
  -24.9100  -30.6160   21.8140 N   0  0  0  0  0  0  0  0  0  0  0  0
  -23.6400  -31.4040   23.5230 O   0  0  0  0  0  0  0  0  0  0  0  0
  -23.1580  -28.7840   22.0340 C   0  0  0  0  0  0  0  0  0  0  0  0
  -21.8630  -28.4740   21.8570 N   0  0  0  0  0  0  0  0  0  0  0  0
  -23.8890  -28.1610   22.8070 O   0  0  0  0  0  0  0  0  0  0  0  0
  -21.3250  -29.0340   21.2080 H   0  0  0  0  0  0  0  0  0  0  0  0
  -18.6330  -26.8710   22.1490 C   0  0  0  0  0  0  0  0  0  0  0  0
  -21.1420  -27.3830   22.5140 C   0  0  0  0  0  3  0  0  0  0  0  0
  -21.4160  -26.0350   21.8070 C   0  0  0  0  0  2  0  0  0  0  0  0
  -20.3740  -25.6950   20.7370 C   0  0  0  0  0  2  0  0  0  0  0  0
  -18.9730  -25.6220   21.3530 C   0  0  0  0  0  2  0  0  0  0  0  0
  -19.6530  -27.7060   22.6790 C   0  0  0  0  0  0  0  0  0  0  0  0
  -19.2820  -28.8730   23.3830 C   0  0  0  0  0  3  0  0  0  0  0  0
  -17.9260  -29.2130   23.5540 C   0  0  0  0  0  3  0  0  0  0  0  0
  -16.9220  -28.3750   23.0380 C   0  0  0  0  0  3  0  0  0  0  0  0
  -17.2760  -27.2030   22.3460 C   0  0  0  0  0  3  0  0  0  0  0  0
  -25.9530  -31.9960   23.6920 C   0  0  0  0  0  3  0  0  0  0  0  0
  -26.4760  -31.2040   24.9520 C   0  0  1  0  0  0  0  0  0  0  0  0
  -25.3610  -30.8310   25.9560 C   0  0  0  0  0  1  0  0  0  0  0  0
  -27.1820  -29.8970   24.5220 C   0  0  0  0  0  1  0  0  0  0  0  0
  -27.5360  -32.0490   25.6990 C   0  0  0  0  0  1  0  0  0  0  0  0
  -25.5200  -33.3480   24.0730 N   0  0  0  0  0  0  0  0  0  0  0  0
  -25.8080  -34.4630   23.3850 C   0  0  0  0  0  0  0  0  0  0  0  0
  -26.5310  -34.4630   22.3850 O   0  0  0  0  0  0  0  0  0  0  0  0
  -24.8660  -33.4140   24.8380 H   0  0  0  0  0  0  0  0  0  0  0  0
  -23.9630  -36.1380   23.0400 C   0  0  0  0  0  1  0  0  0  0  0  0
  -25.1980  -35.7850   23.8840 C   0  0  0  0  0  3  0  0  0  0  0  0
  -27.2220  -36.7900   24.8470 C   0  0  0  0  0  1  0  0  0  0  0  0
  -26.1500  -36.9180   23.8630 N   0  0  0  0  0  0  0  0  0  0  0  0
  -25.6690  -37.7970   24.0330 H   0  0  0  0  0  0  0  0  0  0  0  0
  -30.7600  -17.4340   19.2180 C   0  0  0  0  0  2  0  0  0  0  0  0
  -31.1610  -14.8610   19.3970 C   0  0  0  0  0  0  0  0  0  0  0  0
  -30.8970  -12.5040   18.6280 C   0  0  0  0  0  2  0  0  0  0  0  0
  -29.8490  -12.4470   17.4940 C   0  0  0  0  0  2  0  0  0  0  0  0
  -28.4300  -12.3040   18.0760 C   0  0  0  0  0  2  0  0  0  0  0  0
  -28.1510  -13.3160   19.2180 C   0  0  0  0  0  3  0  0  0  0  0  0
  -29.3050  -13.3450   20.2450 C   0  0  0  0  0  2  0  0  0  0  0  0
  -30.5410  -13.6390   19.5090 N   0  0  0  0  0  0  0  0  0  0  0  0
  -32.2970  -14.9380   18.9210 O   0  0  0  0  0  0  0  0  0  0  0  0
  -30.4150  -16.0030   19.6140 N   0  0  0  0  0  0  0  0  0  0  0  0
  -29.4860  -15.8610   19.9760 H   0  0  0  0  0  0  0  0  0  0  0  0
  -25.9010  -13.9790   20.2610 C   0  0  0  0  0  0  0  0  0  0  0  0
  -24.8490  -13.2370   20.7250 C   0  0  0  0  0  0  0  0  0  0  0  0
  -25.2310  -11.8700   20.5660 C   0  0  0  0  0  0  0  0  0  0  0  0
  -26.8600  -13.0680   19.8550 N   0  0  0  0  0  0  0  0  0  0  0  0
  -26.4700  -11.7890   20.0990 N   0  0  0  0  0  0  0  0  0  0  0  0
  -24.4660  -10.6330   20.7740 C   0  0  0  0  0  0  0  0  0  0  0  0
  -24.8750   -9.6620   21.7140 C   0  0  0  0  0  3  0  0  0  0  0  0
  -24.1110   -8.4920   21.9110 C   0  0  0  0  0  3  0  0  0  0  0  0
  -22.9250   -8.2840   21.1660 C   0  0  0  0  0  0  0  0  0  0  0  0
  -22.5350   -9.2450   20.2160 C   0  0  0  0  0  3  0  0  0  0  0  0
  -23.3010  -10.4070   20.0170 C   0  0  0  0  0  3  0  0  0  0  0  0
  -22.1340   -7.1670   21.2720 O   0  0  0  0  0  0  0  0  0  0  0  0
  -21.9510   -6.5250   22.4710 C   0  0  0  0  0  0  0  0  0  0  0  0
  -21.4000   -7.1830   23.5920 C   0  0  0  0  0  3  0  0  0  0  0  0
  -21.1660   -6.4690   24.7830 C   0  0  0  0  0  3  0  0  0  0  0  0
  -21.4730   -5.0960   24.8550 C   0  0  0  0  0  0  0  0  0  0  0  0
  -22.0180   -4.4380   23.7370 C   0  0  0  0  0  3  0  0  0  0  0  0
  -22.2540   -5.1510   22.5490 C   0  0  0  0  0  0  0  0  0  0  0  0
  -22.7580   -4.5060   21.4690 F   0  0  0  0  0  0  0  0  0  0  0  0
  -21.2410   -4.4070   25.9960 F   0  0  0  0  0  0  0  0  0  0  0  0
  -23.5230  -13.7620   21.1920 C   0  0  0  0  0  0  0  0  0  0  0  0
  -22.8850  -13.0660   22.1260 N   0  0  0  0  0  0  0  0  0  0  0  0
  -23.0690  -14.8220   20.7630 O   0  0  0  0  0  0  0  0  0  0  0  0
  -23.2660  -12.2050   22.4870 H   0  0  0  0  0  0  0  0  0  0  0  0
  -21.9990  -13.3980   22.4830 H   0  0  0  0  0  0  0  0  0  0  0  0
  -26.1100  -15.3480   20.1260 N   0  0  0  0  0  0  0  0  0  0  0  0
  -25.3900  -16.0260   20.3540 H   0  0  0  0  0  0  0  0  0  0  0  0
  -26.8980  -15.7610   19.6470 H   0  0  0  0  0  0  0  0  0  0  0  0
  2  6  2  0
  2  5  1  0
  3  1  1  0
  3  7  1  0
  4  1  2  0
  4  8  1  0
  5  3  2  0
  6  4  1  0
  9  5  1  0
 11 10  1  0
 11  9  1  0
 11 12  1  0
 13 15  1  0
 13 12  1  0
 14 25  2  0
 15 20  1  0
 16 24  1  0
 16 26  1  0
 17 23  1  0
 17 19  1  0
 18 24  1  0
 19 18  1  0
 20 19  2  0
 21 22  1  0
 21 15  2  0
 22 17  2  0
 23 16  1  0
 24 14  1  0
 26 28  2  0
 27 26  1  0
 29 27  1  0
 30 39  2  0
 30 35  1  0
 31 27  1  0
 31 35  1  0
 32 31  1  0
 33 34  1  0
 33 32  1  0
 34 30  1  0
 35 36  2  0
 36 37  1  0
 38 37  2  0
 39 38  1  0
 40 14  1  0
 40 45  1  0
 40 41  1  0
 41 44  1  1
 41 42  1  0
 43 41  1  0
 45 48  1  0
 46 50  1  0
 46 45  1  0
 47 46  2  0
 50 49  1  0
 52 50  1  0
 52 53  1  0
 52 51  1  0
 54 63  1  0
 54  6  1  0
 55 61  1  0
 55 63  1  0
 56 61  1  0
 57 58  1  0
 57 56  1  0
 59 58  1  0
 59 68  1  0
 59 60  1  0
 61 60  1  0
 62 55  2  0
 63 64  1  0
 65 66  2  0
 66 85  1  0
 67 66  1  0
 67 70  1  0
 68 69  1  0
 68 65  1  0
 69 67  2  0
 70 71  1  0
 71 72  2  0
 73 76  1  0
 73 72  1  0
 74 73  2  0
 75 74  1  0
 75 70  2  0
 76 77  1  0
 77 82  2  0
 77 78  1  0
 78 79  2  0
 79 80  1  0
 80 84  1  0
 81 80  2  0
 82 81  1  0
 83 82  1  0
 85 86  1  0
 86 89  1  0
 86 88  1  0
 87 85  2  0
 90 65  1  0
 90 91  1  0
 92 90  1  0
M  ISO  4  12 101  13 101  55 100  63 100
M  END
>  <TORSDO>  (71) 
F 20

>  <SCORE>  (71) 
-10.231

>  <name>  (71) 
72

>  <ligand_id>  (71) 
72

>  <original_smiles>  (71) 
[H]c1c([H])c([H])c2c(c1[H])C([H])([H])C([H])([H])C([H])([H])C2([H])N([H])C(=O)C1([H])N(C(=O)C([H])(N([H])C(=O)C([H])(N([H])C([H])([H])[H])C([H])([H])[H])C(C([H])([H])[H])(C([H])([H])[H])C([H])([H])[H])C([H])([H])c2c([H])c(OC([H])([H])C([H])(C([H])([H])[H])C([H])([H])c3c([H])c(C([H])([H])N([H])C(=O)N4C([H])([H])C([H])([H])C([H])([H])C([H])(n5nc(-c6c([H])c([H])c(Oc7c([H])c([H])c(F)c([H])c7F)c([H])c6[H])c(C(=O)N([H])[H])c5N([H])[H])C4([H])[H])c(C([H])([H])[H])c([H])c3C([H])([H])[H])c([H])c([H])c2C1([H])[H]

>  <smiles>  (71) 
[H]c1c([H])c([H])c2c(c1[H])C([H])([H])C([H])([H])C([H])([H])C2([H])N([H])C(=O)C1([H])N(C(=O)C([H])(N([H])C(=O)C([H])(N([H])C([H])([H])[H])C([H])([H])[H])C(C([H])([H])[H])(C([H])([H])[H])C([H])([H])[H])C([H])([H])c2c([H])c(OC([H])([H])C([H])(C([H])([H])[H])C([H])([H])c3c([H])c(C([H])([H])N([H])C(=O)N4C([H])([H])C([H])([H])C([H])([H])C([H])(n5nc(-c6c([H])c([H])c(Oc7c([H])c([H])c(F)c([H])c7F)c([H])c6[H])c(C(=O)N([H])[H])c5N([H])[H])C4([H])[H])c(C([H])([H])[H])c([H])c3C([H])([H])[H])c([H])c([H])c2C1([H])[H]

$$$$
73:0:0
     RDKit          3D

 93101  0  0  1  0  0  0  0  0999 V2000
  -29.6080  -20.8450   20.1650 C   0  0  0  0  0  0  0  0  0  0  0  0
  -29.1510  -21.9530   19.4020 N   0  0  0  0  0  0  0  0  0  0  0  0
  -30.0880  -21.0720   21.2740 O   0  0  0  0  0  0  0  0  0  0  0  0
  -29.0240  -21.6560   18.4420 H   0  0  0  0  0  0  0  0  0  0  0  0
  -30.7600  -15.1140   19.8650 C   0  0  0  0  0  0  0  0  0  0  0  0
  -30.6480  -12.7670   18.8380 C   0  0  0  0  0  2  0  0  0  0  0  0
  -29.6170  -12.6800   17.6830 C   0  0  0  0  0  2  0  0  0  0  0  0
  -28.1820  -12.4550   18.2040 C   0  0  0  0  0  2  0  0  0  0  0  0
  -27.8600  -13.3350   19.4410 C   0  0  0  0  0  3  0  0  0  0  0  0
  -29.0060  -13.2310   20.4720 C   0  0  0  0  0  2  0  0  0  0  0  0
  -30.1860  -13.8200   19.8050 N   0  0  0  0  0  0  0  0  0  0  0  0
  -31.9330  -15.1630   19.4630 O   0  0  0  0  0  0  0  0  0  0  0  0
  -27.7730  -17.3610   20.5120 C   0  0  0  0  0  2  0  0  0  0  0  0
  -28.8930  -16.4500   21.0260 C   0  0  0  0  0  2  0  0  0  0  0  0
  -30.4530  -17.9020   19.9080 C   0  0  0  0  0  2  0  0  0  0  0  0
  -29.3600  -19.2270   19.7680 C   0  0  0  0  0  3  0  0  0  0  0  0
  -28.0910  -18.8510   20.5860 C   0  0  0  0  0  3  0  0  0  0  0  0
  -30.0290  -16.3630   20.1000 N   0  0  0  0  0  0  0  0  0  0  0  0
  -25.5150  -13.9080   20.2970 C   0  0  0  0  0  0  0  0  0  0  0  0
  -24.4760  -13.1430   20.7320 C   0  0  0  0  0  0  0  0  0  0  0  0
  -24.9280  -11.7920   20.6430 C   0  0  0  0  0  0  0  0  0  0  0  0
  -26.5490  -13.0360   20.0020 N   0  0  0  0  0  0  0  0  0  0  0  0
  -26.2000  -11.7510   20.2630 N   0  0  0  0  0  0  0  0  0  0  0  0
  -24.1990  -10.5380   20.8410 C   0  0  0  0  0  0  0  0  0  0  0  0
  -24.6130   -9.5880   21.8000 C   0  0  0  0  0  3  0  0  0  0  0  0
  -23.8800   -8.3980   21.9860 C   0  0  0  0  0  3  0  0  0  0  0  0
  -22.7200   -8.1500   21.2150 C   0  0  0  0  0  0  0  0  0  0  0  0
  -22.3250   -9.0880   20.2460 C   0  0  0  0  0  3  0  0  0  0  0  0
  -23.0580  -10.2700   20.0560 C   0  0  0  0  0  3  0  0  0  0  0  0
  -21.9590   -7.0110   21.3130 O   0  0  0  0  0  0  0  0  0  0  0  0
  -21.7860   -6.3640   22.5100 C   0  0  0  0  0  0  0  0  0  0  0  0
  -21.1960   -7.0020   23.6230 C   0  0  0  0  0  3  0  0  0  0  0  0
  -20.9740   -6.2800   24.8120 C   0  0  0  0  0  3  0  0  0  0  0  0
  -21.3290   -4.9190   24.8870 C   0  0  0  0  0  0  0  0  0  0  0  0
  -21.9110   -4.2810   23.7780 C   0  0  0  0  0  3  0  0  0  0  0  0
  -22.1360   -5.0020   22.5910 C   0  0  0  0  0  0  0  0  0  0  0  0
  -22.6780   -4.3770   21.5170 F   0  0  0  0  0  0  0  0  0  0  0  0
  -21.1080   -4.2220   26.0250 F   0  0  0  0  0  0  0  0  0  0  0  0
  -23.1050  -13.6340   21.0980 C   0  0  0  0  0  0  0  0  0  0  0  0
  -22.4410  -12.9540   22.0250 N   0  0  0  0  0  0  0  0  0  0  0  0
  -22.6390  -14.6590   20.6010 O   0  0  0  0  0  0  0  0  0  0  0  0
  -22.8350  -12.1270   22.4480 H   0  0  0  0  0  0  0  0  0  0  0  0
  -21.5260  -13.2650   22.3180 H   0  0  0  0  0  0  0  0  0  0  0  0
  -25.6400  -15.2700   20.0900 N   0  0  0  0  0  0  0  0  0  0  0  0
  -24.8310  -15.8770   20.1610 H   0  0  0  0  0  0  0  0  0  0  0  0
  -26.4080  -15.6760   19.5750 H   0  0  0  0  0  0  0  0  0  0  0  0
  -26.8810  -19.6230   20.2120 N   0  0  0  0  0  4  0  0  0  0  0  0
  -26.6330  -19.4860   19.2470 H   0  0  0  0  0  0  0  0  0  0  0  0
  -27.0060  -20.6050   20.3800 H   0  0  0  0  0  0  0  0  0  0  0  0
  -26.0990  -19.3280   20.7730 H   0  0  0  0  0  0  0  0  0  0  0  0
  -28.4160  -23.3690   19.5780 C   0  0  0  0  0  2  0  0  0  0  0  0
  -28.8870  -24.8400   20.2460 C   0  0  0  0  0  2  0  0  0  0  0  0
  -28.6460  -26.3250   19.8120 O   0  0  0  0  0  0  0  0  0  0  0  0
  -24.6790  -31.6280   23.1380 C   0  0  0  0  0  0  0  0  0  0  0  0
  -27.4790  -27.1620   19.9340 C   0  0  0  0  0  0  0  0  0  0  0  0
  -23.5450  -30.2620   21.4230 C   0  0  0  0  0  3  0  0  0  0  0  0
  -25.0650  -28.7940   19.9570 C   0  0  0  0  0  0  0  0  0  0  0  0
  -26.0850  -30.6370   21.2900 C   0  0  0  0  0  2  0  0  0  0  0  0
  -26.2200  -29.2740   20.5870 C   0  0  0  0  0  0  0  0  0  0  0  0
  -27.4260  -28.4790   20.5480 C   0  0  0  0  0  3  0  0  0  0  0  0
  -26.2880  -26.7660   19.2900 C   0  0  0  0  0  3  0  0  0  0  0  0
  -25.1090  -27.5540   19.2960 C   0  0  0  0  0  3  0  0  0  0  0  0
  -23.8040  -29.6440   20.0220 C   0  0  0  0  0  2  0  0  0  0  0  0
  -24.7890  -30.8630   22.0070 N   0  0  0  0  0  0  0  0  0  0  0  0
  -23.5790  -31.8440   23.6690 O   0  0  0  0  0  0  0  0  0  0  0  0
  -22.8970  -29.1910   22.3360 C   0  0  0  0  0  0  0  0  0  0  0  0
  -21.5760  -28.9810   22.1940 N   0  0  0  0  0  0  0  0  0  0  0  0
  -23.5860  -28.5510   23.1340 O   0  0  0  0  0  0  0  0  0  0  0  0
  -21.0750  -29.5510   21.5260 H   0  0  0  0  0  0  0  0  0  0  0  0
  -18.2360  -27.6510   22.6300 C   0  0  0  0  0  0  0  0  0  0  0  0
  -20.7850  -27.9790   22.9130 C   0  0  0  0  0  3  0  0  0  0  0  0
  -20.9310  -26.5830   22.2640 C   0  0  0  0  0  2  0  0  0  0  0  0
  -19.8400  -26.2790   21.2330 C   0  0  0  0  0  2  0  0  0  0  0  0
  -18.4560  -26.3450   21.8840 C   0  0  0  0  0  2  0  0  0  0  0  0
  -19.3300  -28.4250   23.1000 C   0  0  0  0  0  0  0  0  0  0  0  0
  -19.0710  -29.6450   23.7610 C   0  0  0  0  0  3  0  0  0  0  0  0
  -17.7500  -30.0920   23.9540 C   0  0  0  0  0  3  0  0  0  0  0  0
  -16.6700  -29.3150   23.4980 C   0  0  0  0  0  3  0  0  0  0  0  0
  -16.9140  -28.0960   22.8410 C   0  0  0  0  0  3  0  0  0  0  0  0
  -25.9270  -32.2810   23.8060 C   0  0  0  0  0  3  0  0  0  0  0  0
  -26.4160  -31.5100   25.0940 C   0  0  1  0  0  0  0  0  0  0  0  0
  -25.2930  -31.2450   26.1240 C   0  0  0  0  0  1  0  0  0  0  0  0
  -27.0370  -30.1460   24.7170 C   0  0  0  0  0  1  0  0  0  0  0  0
  -27.5290  -32.3210   25.7990 C   0  0  0  0  0  1  0  0  0  0  0  0
  -25.5810  -33.6710   24.1430 N   0  0  0  0  0  0  0  0  0  0  0  0
  -25.8910  -34.7390   23.3950 C   0  0  0  0  0  0  0  0  0  0  0  0
  -26.5660  -34.6590   22.3650 O   0  0  0  0  0  0  0  0  0  0  0  0
  -24.9800  -33.8050   24.9420 H   0  0  0  0  0  0  0  0  0  0  0  0
  -24.1260  -36.5010   23.0510 C   0  0  0  0  0  1  0  0  0  0  0  0
  -25.3730  -36.1140   23.8630 C   0  0  0  0  0  3  0  0  0  0  0  0
  -27.4770  -37.0480   24.7220 C   0  0  0  0  0  1  0  0  0  0  0  0
  -26.3840  -37.1890   23.7620 N   0  0  0  0  0  0  0  0  0  0  0  0
  -25.9550  -38.1010   23.9030 H   0  0  0  0  0  0  0  0  0  0  0  0
  1  3  2  0
  2 51  1  0
  2  1  1  0
  4  2  1  0
  5 18  1  0
  6 11  1  0
  7  8  1  0
  7  6  1  0
  9  8  1  0
  9 22  1  0
  9 10  1  0
 11  5  1  0
 11 10  1  0
 12  5  2  0
 13 17  1  0
 13 14  1  0
 15 18  1  0
 16 15  1  0
 16  1  1  0
 16 17  1  0
 17 47  1  0
 18 14  1  0
 19 20  2  0
 20 39  1  0
 21 20  1  0
 21 24  1  0
 22 23  1  0
 22 19  1  0
 23 21  2  0
 24 25  1  0
 25 26  2  0
 27 30  1  0
 27 26  1  0
 28 27  2  0
 29 28  1  0
 29 24  2  0
 30 31  1  0
 31 36  2  0
 31 32  1  0
 32 33  2  0
 33 34  1  0
 34 38  1  0
 35 34  2  0
 36 35  1  0
 37 36  1  0
 39 40  1  0
 40 43  1  0
 40 42  1  0
 41 39  2  0
 44 45  1  0
 44 19  1  0
 46 44  1  0
 47 49  1  0
 47 50  1  0
 48 47  1  0
 51 52  1  0
 53 55  1  0
 53 52  1  0
 54 65  2  0
 55 60  1  0
 56 64  1  0
 56 66  1  0
 57 63  1  0
 57 59  1  0
 58 64  1  0
 59 58  1  0
 60 59  2  0
 61 62  1  0
 61 55  2  0
 62 57  2  0
 63 56  1  0
 64 54  1  0
 66 68  2  0
 67 66  1  0
 69 67  1  0
 70 79  2  0
 70 75  1  0
 71 67  1  0
 71 75  1  0
 72 71  1  0
 73 74  1  0
 73 72  1  0
 74 70  1  0
 75 76  2  0
 76 77  1  0
 78 77  2  0
 79 78  1  0
 80 54  1  0
 80 85  1  0
 80 81  1  0
 81 84  1  1
 81 82  1  0
 83 81  1  0
 85 88  1  0
 86 90  1  0
 86 85  1  0
 87 86  2  0
 90 89  1  0
 92 90  1  0
 92 93  1  0
 92 91  1  0
M  ISO  4   5 100  18 100  52 101  53 101
M  END
>  <TORSDO>  (72) 
F 19

>  <SCORE>  (72) 
-12.957

>  <name>  (72) 
73

>  <ligand_id>  (72) 
73

>  <original_smiles>  (72) 
[H]c1c([H])c([H])c2c(c1[H])C([H])([H])C([H])([H])C([H])([H])C2([H])N([H])C(=O)C1([H])N(C(=O)C([H])(N([H])C(=O)C([H])(N([H])C([H])([H])[H])C([H])([H])[H])C(C([H])([H])[H])(C([H])([H])[H])C([H])([H])[H])C([H])([H])c2c([H])c(OC([H])([H])C([H])([H])N([H])C(=O)C3([H])C([H])([H])N(C(=O)N4C([H])([H])C([H])([H])C([H])([H])C([H])(n5nc(-c6c([H])c([H])c(Oc7c([H])c([H])c(F)c([H])c7F)c([H])c6[H])c(C(=O)N([H])[H])c5N([H])[H])C4([H])[H])C([H])([H])C([H])([H])C3([H])[N+]([H])([H])[H])c([H])c([H])c2C1([H])[H]

>  <smiles>  (72) 
[H]c1c([H])c([H])c2c(c1[H])C([H])([H])C([H])([H])C([H])([H])C2([H])N([H])C(=O)C1([H])N(C(=O)C([H])(N([H])C(=O)C([H])(N([H])C([H])([H])[H])C([H])([H])[H])C(C([H])([H])[H])(C([H])([H])[H])C([H])([H])[H])C([H])([H])c2c([H])c(OC([H])([H])C([H])([H])N([H])C(=O)C3([H])C([H])([H])N(C(=O)N4C([H])([H])C([H])([H])C([H])([H])C([H])(n5nc(-c6c([H])c([H])c(Oc7c([H])c([H])c(F)c([H])c7F)c([H])c6[H])c(C(=O)N([H])[H])c5N([H])[H])C4([H])[H])C([H])([H])C([H])([H])C3([H])[N+]([H])([H])[H])c([H])c([H])c2C1([H])[H]

$$$$
74:0:0
     RDKit          3D

 90 98  0  0  1  0  0  0  0  0999 V2000
  -29.4060  -23.4890   21.5150 C   0  0  0  0  0  2  0  0  0  0  0  0
  -29.5990  -21.9450   21.7080 C   0  0  0  0  0  2  0  0  0  0  0  0
  -28.6240  -22.3880   19.5640 C   0  0  0  0  0  2  0  0  0  0  0  0
  -28.3900  -23.7310   20.3800 C   0  0  0  0  0  3  0  0  0  0  0  0
  -28.8530  -21.1900   20.5780 C   0  0  0  0  0  3  0  0  0  0  0  0
  -29.5590  -19.9200   20.0700 N   0  0  0  0  0  4  0  0  0  0  0  0
  -30.5510  -20.0790   20.1190 H   0  0  0  0  0  0  0  0  0  0  0  0
  -29.3320  -19.8390   19.0920 H   0  0  0  0  0  0  0  0  0  0  0  0
  -29.2580  -18.5400   20.6780 C   0  0  0  0  0  3  0  0  0  0  0  0
  -30.1630  -17.2930   20.1800 C   0  0  0  0  0  3  0  0  0  0  0  0
  -30.5820  -14.7260   20.3450 C   0  0  0  0  0  0  0  0  0  0  0  0
  -30.3560  -12.4620   19.3310 C   0  0  0  0  0  2  0  0  0  0  0  0
  -29.4170  -12.5630   18.1100 C   0  0  0  0  0  2  0  0  0  0  0  0
  -27.9470  -12.4020   18.5420 C   0  0  0  0  0  2  0  0  0  0  0  0
  -27.5850  -13.2800   19.7710 C   0  0  0  0  0  3  0  0  0  0  0  0
  -28.6470  -13.1710   20.8880 C   0  0  0  0  0  2  0  0  0  0  0  0
  -29.9470  -13.5070   20.2950 N   0  0  0  0  0  0  0  0  0  0  0  0
  -31.7530  -14.8320   19.9740 O   0  0  0  0  0  0  0  0  0  0  0  0
  -29.8220  -15.8580   20.5770 N   0  0  0  0  0  0  0  0  0  0  0  0
  -28.8730  -15.6910   20.8780 H   0  0  0  0  0  0  0  0  0  0  0  0
  -25.1980  -13.8750   20.4950 C   0  0  0  0  0  0  0  0  0  0  0  0
  -24.1320  -13.1030   20.8730 C   0  0  0  0  0  0  0  0  0  0  0  0
  -24.5960  -11.7510   20.8500 C   0  0  0  0  0  0  0  0  0  0  0  0
  -26.2410  -12.9940   20.2640 N   0  0  0  0  0  0  0  0  0  0  0  0
  -25.8870  -11.7130   20.5400 N   0  0  0  0  0  0  0  0  0  0  0  0
  -23.8710  -10.4900   21.0480 C   0  0  0  0  0  0  0  0  0  0  0  0
  -24.3170   -9.5190   21.9720 C   0  0  0  0  0  3  0  0  0  0  0  0
  -23.5910   -8.3220   22.1580 C   0  0  0  0  0  3  0  0  0  0  0  0
  -22.4050   -8.0890   21.4220 C   0  0  0  0  0  0  0  0  0  0  0  0
  -21.9780   -9.0500   20.4880 C   0  0  0  0  0  3  0  0  0  0  0  0
  -22.7050  -10.2360   20.2990 C   0  0  0  0  0  3  0  0  0  0  0  0
  -21.6490   -6.9460   21.5190 O   0  0  0  0  0  0  0  0  0  0  0  0
  -21.6310   -6.1900   22.6640 C   0  0  0  0  0  0  0  0  0  0  0  0
  -21.2600   -6.7350   23.9110 C   0  0  0  0  0  3  0  0  0  0  0  0
  -21.1880   -5.9060   25.0490 C   0  0  0  0  0  3  0  0  0  0  0  0
  -21.4780   -4.5330   24.9400 C   0  0  0  0  0  0  0  0  0  0  0  0
  -21.8450   -3.9870   23.6970 C   0  0  0  0  0  3  0  0  0  0  0  0
  -21.9180   -4.8130   22.5620 C   0  0  0  0  0  0  0  0  0  0  0  0
  -22.2500   -4.2780   21.3620 F   0  0  0  0  0  0  0  0  0  0  0  0
  -21.4030   -3.7350   26.0310 F   0  0  0  0  0  0  0  0  0  0  0  0
  -22.7360  -13.5800   21.1430 C   0  0  0  0  0  0  0  0  0  0  0  0
  -22.0100  -12.8920   22.0160 N   0  0  0  0  0  0  0  0  0  0  0  0
  -22.2970  -14.6020   20.6150 O   0  0  0  0  0  0  0  0  0  0  0  0
  -22.3780  -12.0660   22.4650 H   0  0  0  0  0  0  0  0  0  0  0  0
  -21.0720  -13.1950   22.2390 H   0  0  0  0  0  0  0  0  0  0  0  0
  -25.3580  -15.2450   20.3060 N   0  0  0  0  0  0  0  0  0  0  0  0
  -24.5840  -15.8930   20.4020 H   0  0  0  0  0  0  0  0  0  0  0  0
  -26.1900  -15.6770   19.9250 H   0  0  0  0  0  0  0  0  0  0  0  0
  -28.4930  -25.1390   19.5900 C   0  0  0  0  0  2  0  0  0  0  0  0
  -28.3590  -26.4800   20.2340 O   0  0  0  0  0  0  0  0  0  0  0  0
  -24.6160  -31.8870   23.2200 C   0  0  0  0  0  0  0  0  0  0  0  0
  -27.2180  -27.3050   20.1570 C   0  0  0  0  0  0  0  0  0  0  0  0
  -23.4050  -30.4840   21.5890 C   0  0  0  0  0  3  0  0  0  0  0  0
  -24.8470  -28.9270   20.1550 C   0  0  0  0  0  0  0  0  0  0  0  0
  -25.9420  -30.8000   21.3890 C   0  0  0  0  0  2  0  0  0  0  0  0
  -26.0180  -29.4180   20.7440 C   0  0  0  0  0  0  0  0  0  0  0  0
  -27.2000  -28.6160   20.7360 C   0  0  0  0  0  3  0  0  0  0  0  0
  -26.0170  -26.8650   19.5540 C   0  0  0  0  0  3  0  0  0  0  0  0
  -24.8500  -27.6580   19.5520 C   0  0  0  0  0  3  0  0  0  0  0  0
  -23.6100  -29.8030   20.2090 C   0  0  0  0  0  2  0  0  0  0  0  0
  -24.6740  -31.0760   22.1230 N   0  0  0  0  0  0  0  0  0  0  0  0
  -23.5360  -32.1650   23.7610 O   0  0  0  0  0  0  0  0  0  0  0  0
  -22.7470  -29.4710   22.5560 C   0  0  0  0  0  0  0  0  0  0  0  0
  -21.4200  -29.2940   22.4390 N   0  0  0  0  0  0  0  0  0  0  0  0
  -23.4310  -28.8470   23.3730 O   0  0  0  0  0  0  0  0  0  0  0  0
  -20.9270  -29.8500   21.7540 H   0  0  0  0  0  0  0  0  0  0  0  0
  -18.0480  -28.0900   22.9540 C   0  0  0  0  0  0  0  0  0  0  0  0
  -20.6060  -28.3580   23.2170 C   0  0  0  0  0  3  0  0  0  0  0  0
  -20.7100  -26.9240   22.6480 C   0  0  0  0  0  2  0  0  0  0  0  0
  -19.6070  -26.5930   21.6380 C   0  0  0  0  0  2  0  0  0  0  0  0
  -18.2270  -26.7380   22.2850 C   0  0  0  0  0  2  0  0  0  0  0  0
  -19.1650  -28.8580   23.3780 C   0  0  0  0  0  0  0  0  0  0  0  0
  -18.9440  -30.1230   23.9630 C   0  0  0  0  0  3  0  0  0  0  0  0
  -17.6380  -30.6210   24.1310 C   0  0  0  0  0  3  0  0  0  0  0  0
  -16.5350  -29.8490   23.7230 C   0  0  0  0  0  3  0  0  0  0  0  0
  -16.7410  -28.5860   23.1410 C   0  0  0  0  0  3  0  0  0  0  0  0
  -25.9020  -32.5230   23.8330 C   0  0  0  0  0  3  0  0  0  0  0  0
  -26.4340  -31.7480   25.1010 C   0  0  1  0  0  0  0  0  0  0  0  0
  -25.3510  -31.5040   26.1800 C   0  0  0  0  0  1  0  0  0  0  0  0
  -27.0140  -30.3720   24.6990 C   0  0  0  0  0  1  0  0  0  0  0  0
  -27.5890  -32.5410   25.7550 C   0  0  0  0  0  1  0  0  0  0  0  0
  -25.5890  -33.9180   24.1760 N   0  0  0  0  0  0  0  0  0  0  0  0
  -25.9080  -34.9770   23.4200 C   0  0  0  0  0  0  0  0  0  0  0  0
  -26.5640  -34.8840   22.3790 O   0  0  0  0  0  0  0  0  0  0  0  0
  -25.0050  -34.0640   24.9850 H   0  0  0  0  0  0  0  0  0  0  0  0
  -24.1630  -36.7630   23.1050 C   0  0  0  0  0  1  0  0  0  0  0  0
  -25.4210  -36.3610   23.8930 C   0  0  0  0  0  3  0  0  0  0  0  0
  -27.5660  -37.2530   24.6890 C   0  0  0  0  0  1  0  0  0  0  0  0
  -26.4450  -37.4210   23.7680 N   0  0  0  0  0  0  0  0  0  0  0  0
  -26.0370  -38.3370   23.9290 H   0  0  0  0  0  0  0  0  0  0  0  0
  1  2  1  0
  3  4  1  0
  3  5  1  0
  4 49  1  0
  4  1  1  0
  5  6  1  0
  5  2  1  0
  6  7  1  0
  6  9  1  0
  8  6  1  0
 10 19  1  0
 10  9  2  0
 11 19  1  0
 12 17  1  0
 13 14  1  0
 13 12  1  0
 15 14  1  0
 15 24  1  0
 15 16  1  0
 17 11  1  0
 17 16  1  0
 18 11  2  0
 19 20  1  0
 21 22  2  0
 22 41  1  0
 23 22  1  0
 23 26  1  0
 24 21  1  0
 24 25  1  0
 25 23  2  0
 26 27  1  0
 27 28  2  0
 29 32  1  0
 29 28  1  0
 30 29  2  0
 31 30  1  0
 31 26  2  0
 32 33  1  0
 33 34  1  0
 34 35  2  0
 36 35  1  0
 36 40  1  0
 37 36  2  0
 38 33  2  0
 38 37  1  0
 39 38  1  0
 41 42  1  0
 42 45  1  0
 42 44  1  0
 43 41  2  0
 46 47  1  0
 46 21  1  0
 48 46  1  0
 49 50  1  0
 51 62  2  0
 52 50  1  0
 52 57  1  0
 53 61  1  0
 53 63  1  0
 54 60  1  0
 54 56  1  0
 55 61  1  0
 56 55  1  0
 57 56  2  0
 58 52  2  0
 59 58  1  0
 59 54  2  0
 60 53  1  0
 61 51  1  0
 63 65  2  0
 64 63  1  0
 66 64  1  0
 67 76  2  0
 67 72  1  0
 68 64  1  0
 68 72  1  0
 69 68  1  0
 70 71  1  0
 70 69  1  0
 71 67  1  0
 72 73  2  0
 73 74  1  0
 75 74  2  0
 76 75  1  0
 77 51  1  0
 77 82  1  0
 77 78  1  0
 78 81  1  1
 78 79  1  0
 80 78  1  0
 82 85  1  0
 83 87  1  0
 83 82  1  0
 84 83  2  0
 87 86  1  0
 89 87  1  0
 89 90  1  0
 89 88  1  0
M  ISO  4  11 100  19 100  49 101  50 101
M  END
>  <TORSDO>  (73) 
F 20

>  <SCORE>  (73) 
-13.713

>  <name>  (73) 
74

>  <ligand_id>  (73) 
74

>  <original_smiles>  (73) 
[H]c1c([H])c([H])c2c(c1[H])C([H])([H])C([H])([H])C([H])([H])C2([H])N([H])C(=O)C1([H])N(C(=O)C([H])(N([H])C(=O)C([H])(N([H])C([H])([H])[H])C([H])([H])[H])C(C([H])([H])[H])(C([H])([H])[H])C([H])([H])[H])C([H])([H])c2c([H])c(OC([H])([H])C3([H])C([H])([H])C([H])([H])C([H])([N+]([H])([H])C([H])([H])C([H])([H])N([H])C(=O)N4C([H])([H])C([H])([H])C([H])([H])C([H])(n5nc(-c6c([H])c([H])c(Oc7c([H])c([H])c(F)c([H])c7F)c([H])c6[H])c(C(=O)N([H])[H])c5N([H])[H])C4([H])[H])C3([H])[H])c([H])c([H])c2C1([H])[H]

>  <smiles>  (73) 
[H]c1c([H])c([H])c2c(c1[H])C([H])([H])C([H])([H])C([H])([H])C2([H])N([H])C(=O)C1([H])N(C(=O)C([H])(N([H])C(=O)C([H])(N([H])C([H])([H])[H])C([H])([H])[H])C(C([H])([H])[H])(C([H])([H])[H])C([H])([H])[H])C([H])([H])c2c([H])c(OC([H])([H])C3([H])C([H])([H])C([H])([H])C([H])([N+]([H])([H])C([H])([H])C([H])([H])N([H])C(=O)N4C([H])([H])C([H])([H])C([H])([H])C([H])(n5nc(-c6c([H])c([H])c(Oc7c([H])c([H])c(F)c([H])c7F)c([H])c6[H])c(C(=O)N([H])[H])c5N([H])[H])C4([H])[H])C3([H])[H])c([H])c([H])c2C1([H])[H]

$$$$
75:0:0
     RDKit          3D

 97106  0  0  1  0  0  0  0  0999 V2000
  -26.0090  -21.8490   19.8760 C   0  0  0  0  0  2  0  0  0  0  0  0
  -26.7380  -21.6660   21.2090 C   0  0  0  0  0  2  0  0  0  0  0  0
  -26.4650  -23.2490   19.4410 C   0  0  0  0  0  2  0  0  0  0  0  0
  -28.1080  -22.3100   20.9410 C   0  0  0  0  0  3  0  0  0  0  0  0
  -27.8090  -23.4900   20.0530 N   0  0  2  0  0  4  0  0  0  0  0  0
  -28.5080  -23.3720   19.3260 H   0  0  0  0  0  0  0  0  0  0  0  0
  -29.0780  -21.3200   20.2260 C   0  0  0  0  0  0  0  0  0  0  0  0
  -29.3790  -20.1310   20.8000 N   0  0  0  0  0  0  0  0  0  0  0  0
  -29.5730  -21.6750   19.1530 O   0  0  0  0  0  0  0  0  0  0  0  0
  -28.9110  -19.9020   21.6670 H   0  0  0  0  0  0  0  0  0  0  0  0
  -30.4420  -19.1970   20.3450 C   0  0  0  0  0  3  0  0  0  0  0  0
  -31.0130  -14.6880   19.7760 C   0  0  0  0  0  0  0  0  0  0  0  0
  -30.6510  -12.4630   18.7140 C   0  0  0  0  0  2  0  0  0  0  0  0
  -29.6070  -12.5540   17.5810 C   0  0  0  0  0  2  0  0  0  0  0  0
  -28.1780  -12.4040   18.1400 C   0  0  0  0  0  2  0  0  0  0  0  0
  -27.9310  -13.2940   19.3880 C   0  0  0  0  0  3  0  0  0  0  0  0
  -29.0850  -13.1440   20.4110 C   0  0  0  0  0  2  0  0  0  0  0  0
  -30.3380  -13.4920   19.7350 N   0  0  0  0  0  0  0  0  0  0  0  0
  -32.0280  -14.8370   19.0850 O   0  0  0  0  0  0  0  0  0  0  0  0
  -31.5760  -16.7950   20.9510 C   0  0  0  0  0  2  0  0  0  0  0  0
  -30.4150  -17.7910   21.0410 C   0  0  0  0  0  3  0  0  0  0  0  0
  -29.4980  -16.6420   20.5860 C   0  0  0  0  0  3  0  0  0  0  0  0
  -28.3830  -16.3150   21.5730 C   0  0  0  0  0  1  0  0  0  0  0  0
  -30.6410  -15.6770   20.6650 N   0  0  0  0  0  0  0  0  0  0  0  0
  -25.6230  -13.9120   20.3610 C   0  0  0  0  0  0  0  0  0  0  0  0
  -24.5830  -13.1430   20.8010 C   0  0  0  0  0  0  0  0  0  0  0  0
  -24.9910  -11.7860   20.6300 C   0  0  0  0  0  0  0  0  0  0  0  0
  -26.6220  -13.0230   19.9830 N   0  0  0  0  0  0  0  0  0  0  0  0
  -26.2430  -11.7350   20.1910 N   0  0  0  0  0  0  0  0  0  0  0  0
  -24.2440  -10.5360   20.8120 C   0  0  0  0  0  0  0  0  0  0  0  0
  -24.6740   -9.5470   21.7210 C   0  0  0  0  0  3  0  0  0  0  0  0
  -23.9260   -8.3610   21.8940 C   0  0  0  0  0  3  0  0  0  0  0  0
  -22.7370   -8.1580   21.1580 C   0  0  0  0  0  0  0  0  0  0  0  0
  -22.3240   -9.1390   20.2370 C   0  0  0  0  0  3  0  0  0  0  0  0
  -23.0700  -10.3140   20.0620 C   0  0  0  0  0  3  0  0  0  0  0  0
  -21.9600   -7.0280   21.2380 O   0  0  0  0  0  0  0  0  0  0  0  0
  -21.8320   -6.3230   22.4070 C   0  0  0  0  0  0  0  0  0  0  0  0
  -21.3510   -6.9260   23.5910 C   0  0  0  0  0  3  0  0  0  0  0  0
  -21.1640   -6.1490   24.7510 C   0  0  0  0  0  3  0  0  0  0  0  0
  -21.4540   -4.7700   24.7310 C   0  0  0  0  0  0  0  0  0  0  0  0
  -21.9300   -4.1680   23.5530 C   0  0  0  0  0  3  0  0  0  0  0  0
  -22.1140   -4.9430   22.3940 C   0  0  0  0  0  0  0  0  0  0  0  0
  -22.5510   -4.3520   21.2550 F   0  0  0  0  0  0  0  0  0  0  0  0
  -21.2700   -4.0240   25.8440 F   0  0  0  0  0  0  0  0  0  0  0  0
  -23.2440  -13.6390   21.2630 C   0  0  0  0  0  0  0  0  0  0  0  0
  -22.5990  -12.9100   22.1650 N   0  0  0  0  0  0  0  0  0  0  0  0
  -22.7850  -14.7100   20.8620 O   0  0  0  0  0  0  0  0  0  0  0  0
  -22.9880  -12.0420   22.5030 H   0  0  0  0  0  0  0  0  0  0  0  0
  -21.7080  -13.2230   22.5230 H   0  0  0  0  0  0  0  0  0  0  0  0
  -25.7870  -15.2870   20.2250 N   0  0  0  0  0  0  0  0  0  0  0  0
  -25.0660  -15.9470   20.4950 H   0  0  0  0  0  0  0  0  0  0  0  0
  -26.6160  -15.7360   19.8570 H   0  0  0  0  0  0  0  0  0  0  0  0
  -32.1260  -20.4570   21.8970 C   0  0  0  0  0  1  0  0  0  0  0  0
  -31.8210  -19.8920   20.4990 C   0  0  0  0  0  2  0  0  0  0  0  0
  -27.9470  -24.8640   20.6670 C   0  0  0  0  0  2  0  0  0  0  0  0
  -28.9600  -25.8520   19.9990 C   0  0  0  0  0  2  0  0  0  0  0  0
  -28.5190  -26.7500   18.9560 O   0  0  0  0  0  0  0  0  0  0  0  0
  -24.8160  -31.5200   22.8490 C   0  0  0  0  0  0  0  0  0  0  0  0
  -27.3710  -27.4760   19.1840 C   0  0  0  0  0  0  0  0  0  0  0  0
  -23.5570  -30.2460   21.1440 C   0  0  0  0  0  3  0  0  0  0  0  0
  -24.9610  -28.9200   19.4790 C   0  0  0  0  0  0  0  0  0  0  0  0
  -26.0580  -30.7010   20.8420 C   0  0  0  0  0  2  0  0  0  0  0  0
  -26.1420  -29.4060   20.0620 C   0  0  0  0  0  0  0  0  0  0  0  0
  -27.3580  -28.6890   19.9140 C   0  0  0  0  0  3  0  0  0  0  0  0
  -26.1800  -27.0200   18.5880 C   0  0  0  0  0  3  0  0  0  0  0  0
  -24.9770  -27.7290   18.7390 C   0  0  0  0  0  3  0  0  0  0  0  0
  -23.7060  -29.7350   19.6880 C   0  0  0  0  0  2  0  0  0  0  0  0
  -24.8330  -30.8320   21.6710 N   0  0  0  0  0  0  0  0  0  0  0  0
  -23.7590  -31.7020   23.4690 O   0  0  0  0  0  0  0  0  0  0  0  0
  -22.9980  -29.1030   22.0230 C   0  0  0  0  0  0  0  0  0  0  0  0
  -21.6700  -28.9090   21.9740 N   0  0  0  0  0  0  0  0  0  0  0  0
  -23.7490  -28.4020   22.7080 O   0  0  0  0  0  0  0  0  0  0  0  0
  -21.1240  -29.5210   21.3830 H   0  0  0  0  0  0  0  0  0  0  0  0
  -18.3600  -27.6140   22.5800 C   0  0  0  0  0  0  0  0  0  0  0  0
  -20.9250  -27.8730   22.6850 C   0  0  0  0  0  3  0  0  0  0  0  0
  -20.9910  -26.5140   21.9510 C   0  0  0  0  0  2  0  0  0  0  0  0
  -19.8220  -26.2970   20.9840 C   0  0  0  0  0  2  0  0  0  0  0  0
  -18.4880  -26.3530   21.7370 C   0  0  0  0  0  2  0  0  0  0  0  0
  -19.5030  -28.3330   23.0080 C   0  0  0  0  0  0  0  0  0  0  0  0
  -19.3320  -29.5170   23.7600 C   0  0  0  0  0  3  0  0  0  0  0  0
  -18.0440  -29.9830   24.0820 C   0  0  0  0  0  3  0  0  0  0  0  0
  -16.9150  -29.2550   23.6720 C   0  0  0  0  0  3  0  0  0  0  0  0
  -17.0720  -28.0650   22.9330 C   0  0  0  0  0  3  0  0  0  0  0  0
  -26.1170  -32.1310   23.4530 C   0  0  0  0  0  3  0  0  0  0  0  0
  -25.7760  -33.4560   23.9880 N   0  0  0  0  0  0  0  0  0  0  0  0
  -26.0090  -34.6150   23.3580 C   0  0  0  0  0  0  0  0  0  0  0  0
  -26.6110  -34.6830   22.2820 O   0  0  0  0  0  0  0  0  0  0  0  0
  -25.2380  -33.4670   24.8430 H   0  0  0  0  0  0  0  0  0  0  0  0
  -24.1870  -36.3480   23.3690 C   0  0  0  0  0  1  0  0  0  0  0  0
  -25.5000  -35.9030   24.0330 C   0  0  0  0  0  3  0  0  0  0  0  0
  -27.6470  -36.7820   24.8380 C   0  0  0  0  0  1  0  0  0  0  0  0
  -26.4750  -37.0130   23.9960 N   0  0  0  0  0  0  0  0  0  0  0  0
  -26.0440  -37.8840   24.2910 H   0  0  0  0  0  0  0  0  0  0  0  0
  -26.7640  -31.2220   24.5710 C   0  0  1  0  0  0  0  0  0  0  0  0
  -25.7640  -30.8020   25.6750 C   0  0  0  0  0  1  0  0  0  0  0  0
  -27.3680  -29.9350   23.9560 C   0  0  0  0  0  1  0  0  0  0  0  0
  -27.9370  -31.9700   25.2450 C   0  0  0  0  0  1  0  0  0  0  0  0
  1  2  1  0
  3  1  1  0
  3  5  1  0
  4  7  1  0
  4  2  1  0
  5 55  1  0
  5  4  1  0
  5  6  1  6
  7  8  1  0
  8 10  1  0
  9  7  2  0
 11 54  1  0
 11  8  1  0
 12 24  1  0
 13 18  1  0
 14 15  1  0
 14 13  1  0
 16 15  1  0
 16 28  1  0
 16 17  1  0
 18 12  1  0
 18 17  1  0
 19 12  2  0
 20 21  1  0
 21 11  1  0
 22 24  1  0
 22 21  1  0
 22 23  1  0
 24 20  1  0
 25 26  2  0
 26 45  1  0
 27 26  1  0
 27 30  1  0
 28 29  1  0
 28 25  1  0
 29 27  2  0
 30 31  1  0
 31 32  2  0
 33 36  1  0
 33 32  1  0
 34 33  2  0
 35 34  1  0
 35 30  2  0
 36 37  1  0
 37 38  1  0
 38 39  2  0
 40 39  1  0
 40 44  1  0
 41 40  2  0
 42 37  2  0
 42 41  1  0
 43 42  1  0
 45 46  1  0
 46 48  1  0
 46 49  1  0
 47 45  2  0
 50 25  1  0
 50 51  1  0
 52 50  1  0
 54 53  1  0
 56 55  1  0
 57 59  1  0
 57 56  1  0
 58 69  2  0
 59 64  1  0
 60 68  1  0
 60 70  1  0
 61 67  1  0
 61 63  1  0
 62 68  1  0
 63 62  1  0
 64 63  2  0
 65 66  1  0
 65 59  2  0
 66 61  2  0
 67 60  1  0
 68 58  1  0
 70 72  2  0
 71 70  1  0
 73 71  1  0
 74 83  2  0
 74 79  1  0
 75 71  1  0
 75 79  1  0
 76 75  1  0
 77 78  1  0
 77 76  1  0
 78 74  1  0
 79 80  2  0
 80 81  1  0
 82 81  2  0
 83 82  1  0
 84 58  1  0
 84 85  1  0
 84 94  1  0
 85 88  1  0
 86 85  1  0
 86 90  1  0
 87 86  2  0
 90 89  1  0
 92 90  1  0
 92 93  1  0
 92 91  1  0
 94 97  1  1
 94 95  1  0
 96 94  1  0
M  ISO  4  12 100  24 100  56 101  57 101
M  END
>  <TORSDO>  (74) 
F 21

>  <SCORE>  (74) 
-9.172

>  <name>  (74) 
75

>  <ligand_id>  (74) 
75

>  <original_smiles>  (74) 
[H]c1c([H])c([H])c2c(c1[H])C([H])([H])C([H])([H])C([H])([H])C2([H])N([H])C(=O)C1([H])N(C(=O)C([H])(N([H])C(=O)C([H])(N([H])C([H])([H])[H])C([H])([H])[H])C(C([H])([H])[H])(C([H])([H])[H])C([H])([H])[H])C([H])([H])c2c([H])c(OC([H])([H])C([H])([H])[N+]3([H])C([H])([H])C([H])([H])C([H])([H])C3([H])C(=O)N([H])C([H])(C([H])([H])C([H])([H])[H])C3([H])C([H])([H])N(C(=O)N4C([H])([H])C([H])([H])C([H])([H])C([H])(n5nc(-c6c([H])c([H])c(Oc7c([H])c([H])c(F)c([H])c7F)c([H])c6[H])c(C(=O)N([H])[H])c5N([H])[H])C4([H])[H])C3([H])C([H])([H])[H])c([H])c([H])c2C1([H])[H]

>  <smiles>  (74) 
[H]c1c([H])c([H])c2c(c1[H])C([H])([H])C([H])([H])C([H])([H])C2([H])N([H])C(=O)C1([H])N(C(=O)C([H])(N([H])C(=O)C([H])(N([H])C([H])([H])[H])C([H])([H])[H])C(C([H])([H])[H])(C([H])([H])[H])C([H])([H])[H])C([H])([H])c2c([H])c(OC([H])([H])C([H])([H])[N+]3([H])C([H])([H])C([H])([H])C([H])([H])C3([H])C(=O)N([H])C([H])(C([H])([H])C([H])([H])[H])C3([H])C([H])([H])N(C(=O)N4C([H])([H])C([H])([H])C([H])([H])C([H])(n5nc(-c6c([H])c([H])c(Oc7c([H])c([H])c(F)c([H])c7F)c([H])c6[H])c(C(=O)N([H])[H])c5N([H])[H])C4([H])[H])C3([H])C([H])([H])[H])c([H])c([H])c2C1([H])[H]

$$$$
76:0:0
     RDKit          3D

 94103  0  0  1  0  0  0  0  0999 V2000
  -28.7140  -21.3660   19.4480 C   0  0  0  0  0  2  0  0  0  0  0  0
  -30.1900  -21.0780   19.6220 C   0  0  0  0  0  3  0  0  0  0  0  0
  -29.6120  -22.3910   20.1470 C   0  0  0  0  0  3  0  0  0  0  0  0
  -32.5550  -19.5980   22.2370 C   0  0  0  0  0  3  0  0  0  0  0  0
  -31.9170  -20.4970   21.3610 C   0  0  0  0  0  3  0  0  0  0  0  0
  -32.0890  -18.2760   22.3710 C   0  0  0  0  0  3  0  0  0  0  0  0
  -30.3280  -18.7590   20.7490 C   0  0  0  0  0  3  0  0  0  0  0  0
  -30.7940  -20.0890   20.5980 C   0  0  0  0  0  0  0  0  0  0  0  0
  -30.9520  -17.8510   21.6400 C   0  0  0  0  0  0  0  0  0  0  0  0
  -30.3840  -16.4520   21.8980 C   0  0  0  0  0  2  0  0  0  0  0  0
  -30.6330  -14.6740   20.2400 C   0  0  0  0  0  0  0  0  0  0  0  0
  -30.3370  -12.5280   19.0460 C   0  0  0  0  0  2  0  0  0  0  0  0
  -29.3620  -12.7600   17.8740 C   0  0  0  0  0  2  0  0  0  0  0  0
  -27.8890  -12.6200   18.3350 C   0  0  0  0  0  2  0  0  0  0  0  0
  -27.5850  -13.3860   19.6540 C   0  0  0  0  0  3  0  0  0  0  0  0
  -28.6880  -13.1380   20.7050 C   0  0  0  0  0  2  0  0  0  0  0  0
  -29.9690  -13.4980   20.0810 N   0  0  0  0  0  0  0  0  0  0  0  0
  -31.7970  -14.8390   19.8680 O   0  0  0  0  0  0  0  0  0  0  0  0
  -29.9110  -15.6660   20.7750 N   0  0  0  0  0  0  0  0  0  0  0  0
  -28.9260  -15.5660   20.7110 H   0  0  0  0  0  0  0  0  0  0  0  0
  -25.2230  -13.9430   20.5050 C   0  0  0  0  0  0  0  0  0  0  0  0
  -24.1810  -13.1480   20.9070 C   0  0  0  0  0  0  0  0  0  0  0  0
  -24.6530  -11.8040   20.8140 C   0  0  0  0  0  0  0  0  0  0  0  0
  -26.2620  -13.0770   20.1920 N   0  0  0  0  0  0  0  0  0  0  0  0
  -25.9260  -11.7860   20.4350 N   0  0  0  0  0  0  0  0  0  0  0  0
  -23.9570  -10.5300   21.0060 C   0  0  0  0  0  0  0  0  0  0  0  0
  -24.4200   -9.5680   21.9320 C   0  0  0  0  0  3  0  0  0  0  0  0
  -23.7240   -8.3540   22.1100 C   0  0  0  0  0  3  0  0  0  0  0  0
  -22.5510   -8.0990   21.3630 C   0  0  0  0  0  0  0  0  0  0  0  0
  -22.1060   -9.0500   20.4290 C   0  0  0  0  0  3  0  0  0  0  0  0
  -22.8030  -10.2550   20.2490 C   0  0  0  0  0  3  0  0  0  0  0  0
  -21.8190   -6.9420   21.4590 O   0  0  0  0  0  0  0  0  0  0  0  0
  -21.7600   -6.2180   22.6230 C   0  0  0  0  0  0  0  0  0  0  0  0
  -21.2480   -6.7690   23.8210 C   0  0  0  0  0  3  0  0  0  0  0  0
  -21.1330   -5.9630   24.9740 C   0  0  0  0  0  3  0  0  0  0  0  0
  -21.5230   -4.6110   24.9290 C   0  0  0  0  0  0  0  0  0  0  0  0
  -22.0300   -4.0620   23.7390 C   0  0  0  0  0  3  0  0  0  0  0  0
  -22.1420   -4.8620   22.5890 C   0  0  0  0  0  0  0  0  0  0  0  0
  -22.6080   -4.3190   21.4390 F   0  0  0  0  0  0  0  0  0  0  0  0
  -21.4090   -3.8370   26.0340 F   0  0  0  0  0  0  0  0  0  0  0  0
  -22.7940  -13.6000   21.2640 C   0  0  0  0  0  0  0  0  0  0  0  0
  -22.1140  -12.8680   22.1370 N   0  0  0  0  0  0  0  0  0  0  0  0
  -22.3220  -14.6430   20.8140 O   0  0  0  0  0  0  0  0  0  0  0  0
  -22.5110  -12.0310   22.5440 H   0  0  0  0  0  0  0  0  0  0  0  0
  -21.1790  -13.1430   22.4080 H   0  0  0  0  0  0  0  0  0  0  0  0
  -25.3630  -15.3250   20.3590 N   0  0  0  0  0  0  0  0  0  0  0  0
  -24.5860  -15.9640   20.5100 H   0  0  0  0  0  0  0  0  0  0  0  0
  -26.2020  -15.7820   20.0330 H   0  0  0  0  0  0  0  0  0  0  0  0
  -30.1030  -23.5970   19.4150 N   0  0  0  0  0  4  0  0  0  0  0  0
  -29.9960  -23.5600   18.4120 H   0  0  0  0  0  0  0  0  0  0  0  0
  -31.0970  -23.5650   19.5720 H   0  0  0  0  0  0  0  0  0  0  0  0
  -29.7410  -24.9510   19.9710 C   0  0  0  0  0  2  0  0  0  0  0  0
  -28.3360  -25.5040   19.6280 C   0  0  0  0  0  2  0  0  0  0  0  0
  -28.2670  -26.8850   20.0460 O   0  0  0  0  0  0  0  0  0  0  0  0
  -24.4860  -31.9860   23.2470 C   0  0  0  0  0  0  0  0  0  0  0  0
  -27.0710  -27.5780   20.0640 C   0  0  0  0  0  0  0  0  0  0  0  0
  -23.2320  -30.5870   21.6420 C   0  0  0  0  0  3  0  0  0  0  0  0
  -24.6510  -29.0610   20.1540 C   0  0  0  0  0  0  0  0  0  0  0  0
  -25.7270  -30.9950   21.3110 C   0  0  0  0  0  2  0  0  0  0  0  0
  -25.8220  -29.6010   20.7010 C   0  0  0  0  0  0  0  0  0  0  0  0
  -27.0280  -28.8660   20.6570 C   0  0  0  0  0  3  0  0  0  0  0  0
  -25.8770  -27.0580   19.5130 C   0  0  0  0  0  3  0  0  0  0  0  0
  -24.6780  -27.7910   19.5600 C   0  0  0  0  0  3  0  0  0  0  0  0
  -23.3970  -29.9020   20.2510 C   0  0  0  0  0  2  0  0  0  0  0  0
  -24.5100  -31.1970   22.1320 N   0  0  0  0  0  0  0  0  0  0  0  0
  -23.4230  -32.2440   23.8240 O   0  0  0  0  0  0  0  0  0  0  0  0
  -22.6150  -29.5620   22.6240 C   0  0  0  0  0  0  0  0  0  0  0  0
  -21.2970  -29.3430   22.5040 N   0  0  0  0  0  0  0  0  0  0  0  0
  -23.3220  -28.9520   23.4310 O   0  0  0  0  0  0  0  0  0  0  0  0
  -20.7880  -29.8910   21.8230 H   0  0  0  0  0  0  0  0  0  0  0  0
  -17.9540  -28.0580   22.9800 C   0  0  0  0  0  0  0  0  0  0  0  0
  -20.5000  -28.3950   23.2790 C   0  0  0  0  0  3  0  0  0  0  0  0
  -20.6510  -26.9630   22.7180 C   0  0  0  0  0  2  0  0  0  0  0  0
  -19.5660  -26.5960   21.6990 C   0  0  0  0  0  2  0  0  0  0  0  0
  -18.1770  -26.7030   22.3280 C   0  0  0  0  0  2  0  0  0  0  0  0
  -19.0460  -28.8550   23.4110 C   0  0  0  0  0  0  0  0  0  0  0  0
  -18.7830  -30.1200   23.9800 C   0  0  0  0  0  3  0  0  0  0  0  0
  -17.4620  -30.5850   24.1240 C   0  0  0  0  0  3  0  0  0  0  0  0
  -16.3850  -29.7850   23.7030 C   0  0  0  0  0  3  0  0  0  0  0  0
  -16.6320  -28.5240   23.1350 C   0  0  0  0  0  3  0  0  0  0  0  0
  -25.7840  -32.6130   23.8400 C   0  0  0  0  0  3  0  0  0  0  0  0
  -25.4930  -34.0130   24.1690 N   0  0  0  0  0  0  0  0  0  0  0  0
  -25.8550  -35.0540   23.4090 C   0  0  0  0  0  0  0  0  0  0  0  0
  -26.5300  -34.9360   22.3850 O   0  0  0  0  0  0  0  0  0  0  0  0
  -24.8740  -34.1800   24.9500 H   0  0  0  0  0  0  0  0  0  0  0  0
  -24.1750  -36.8840   23.0130 C   0  0  0  0  0  1  0  0  0  0  0  0
  -25.3900  -36.4560   23.8530 C   0  0  0  0  0  3  0  0  0  0  0  0
  -27.5300  -37.2980   24.7230 C   0  0  0  0  0  1  0  0  0  0  0  0
  -26.4540  -37.4830   23.7530 N   0  0  0  0  0  0  0  0  0  0  0  0
  -26.0710  -38.4150   23.8790 H   0  0  0  0  0  0  0  0  0  0  0  0
  -26.3140  -31.8300   25.1000 C   0  0  1  0  0  0  0  0  0  0  0  0
  -25.2260  -31.5930   26.1800 C   0  0  0  0  0  1  0  0  0  0  0  0
  -26.8740  -30.4510   24.6670 C   0  0  0  0  0  1  0  0  0  0  0  0
  -27.4820  -32.6060   25.7400 C   0  0  0  0  0  1  0  0  0  0  0  0
  1  2  1  0
  1  3  1  0
  2  3  1  0
  2  8  1  0
  3 49  1  0
  4  6  1  0
  5  4  2  0
  7  9  1  0
  8  7  2  0
  8  5  1  0
  9 10  1  0
  9  6  2  0
 11 19  1  0
 12 17  1  0
 13 14  1  0
 13 12  1  0
 15 14  1  0
 15 24  1  0
 15 16  1  0
 17 11  1  0
 17 16  1  0
 18 11  2  0
 19 10  1  0
 20 19  1  0
 21 22  2  0
 22 41  1  0
 23 22  1  0
 23 26  1  0
 24 25  1  0
 24 21  1  0
 25 23  2  0
 26 27  1  0
 27 28  2  0
 29 32  1  0
 29 28  1  0
 30 29  2  0
 31 30  1  0
 31 26  2  0
 32 33  1  0
 33 34  1  0
 34 35  2  0
 36 35  1  0
 36 40  1  0
 37 36  2  0
 38 33  2  0
 38 37  1  0
 39 38  1  0
 41 42  1  0
 42 45  1  0
 42 44  1  0
 43 41  2  0
 46 21  1  0
 46 47  1  0
 48 46  1  0
 49 51  1  0
 49 52  1  0
 50 49  1  0
 53 52  1  0
 53 54  1  0
 54 56  1  0
 55 66  2  0
 56 61  1  0
 57 65  1  0
 57 67  1  0
 58 64  1  0
 58 60  1  0
 59 65  1  0
 60 59  1  0
 61 60  2  0
 62 63  1  0
 62 56  2  0
 63 58  2  0
 64 57  1  0
 65 55  1  0
 67 69  2  0
 68 67  1  0
 70 68  1  0
 71 80  2  0
 71 76  1  0
 72 68  1  0
 72 76  1  0
 73 72  1  0
 74 75  1  0
 74 73  1  0
 75 71  1  0
 76 77  2  0
 77 78  1  0
 79 78  2  0
 80 79  1  0
 81 55  1  0
 81 82  1  0
 81 91  1  0
 82 85  1  0
 83 87  1  0
 83 82  1  0
 84 83  2  0
 87 86  1  0
 89 87  1  0
 89 90  1  0
 89 88  1  0
 91 94  1  1
 91 92  1  0
 93 91  1  0
M  ISO  4  11 100  19 100  53 101  54 101
M  END
>  <TORSDO>  (75) 
F 21

>  <SCORE>  (75) 
-12.927

>  <name>  (75) 
76

>  <ligand_id>  (75) 
76

>  <original_smiles>  (75) 
[H]c1c([H])c([H])c2c(c1[H])C([H])([H])C([H])([H])C([H])([H])C2([H])N([H])C(=O)C1([H])N(C(=O)C([H])(N([H])C(=O)C([H])(N([H])C([H])([H])[H])C([H])([H])[H])C(C([H])([H])[H])(C([H])([H])[H])C([H])([H])[H])C([H])([H])c2c([H])c(OC([H])([H])C([H])([H])[N+]([H])([H])C3([H])C([H])([H])C3([H])c3c([H])c([H])c([H])c(C([H])([H])N([H])C(=O)N4C([H])([H])C([H])([H])C([H])([H])C([H])(n5nc(-c6c([H])c([H])c(Oc7c([H])c([H])c(F)c([H])c7F)c([H])c6[H])c(C(=O)N([H])[H])c5N([H])[H])C4([H])[H])c3[H])c([H])c([H])c2C1([H])[H]

>  <smiles>  (75) 
[H]c1c([H])c([H])c2c(c1[H])C([H])([H])C([H])([H])C([H])([H])C2([H])N([H])C(=O)C1([H])N(C(=O)C([H])(N([H])C(=O)C([H])(N([H])C([H])([H])[H])C([H])([H])[H])C(C([H])([H])[H])(C([H])([H])[H])C([H])([H])[H])C([H])([H])c2c([H])c(OC([H])([H])C([H])([H])[N+]([H])([H])C3([H])C([H])([H])C3([H])c3c([H])c([H])c([H])c(C([H])([H])N([H])C(=O)N4C([H])([H])C([H])([H])C([H])([H])C([H])(n5nc(-c6c([H])c([H])c(Oc7c([H])c([H])c(F)c([H])c7F)c([H])c6[H])c(C(=O)N([H])[H])c5N([H])[H])C4([H])[H])c3[H])c([H])c([H])c2C1([H])[H]

$$$$
77:0:0
     RDKit          3D

 95104  0  0  1  0  0  0  0  0999 V2000
  -27.2730  -19.2050   18.6760 C   0  0  0  0  0  2  0  0  0  0  0  0
  -26.7440  -18.5750   20.0080 C   0  0  0  0  0  2  0  0  0  0  0  0
  -28.6100  -19.4460   21.3490 C   0  0  0  0  0  2  0  0  0  0  0  0
  -28.8650  -17.8630   19.6230 C   0  0  0  0  0  3  0  0  0  0  0  0
  -28.7900  -19.3040   18.9940 C   0  0  0  0  0  3  0  0  0  0  0  0
  -28.8010  -20.3910   20.1340 C   0  0  0  0  0  3  0  0  0  0  0  0
  -27.9920  -18.2130   20.7500 N   0  0  2  0  0  4  0  0  0  0  0  0
  -27.8550  -17.4720   21.4250 H   0  0  0  0  0  0  0  0  0  0  0  0
  -30.7690  -14.6020   19.9020 C   0  0  0  0  0  0  0  0  0  0  0  0
  -30.4710  -12.3720   18.8690 C   0  0  0  0  0  2  0  0  0  0  0  0
  -29.4380  -12.4880   17.7240 C   0  0  0  0  0  2  0  0  0  0  0  0
  -27.9940  -12.3760   18.2570 C   0  0  0  0  0  2  0  0  0  0  0  0
  -27.7330  -13.2610   19.5060 C   0  0  0  0  0  3  0  0  0  0  0  0
  -28.8610  -13.0840   20.5460 C   0  0  0  0  0  2  0  0  0  0  0  0
  -30.1350  -13.3940   19.8770 N   0  0  0  0  0  0  0  0  0  0  0  0
  -31.9370  -14.7240   19.5300 O   0  0  0  0  0  0  0  0  0  0  0  0
  -30.1360  -17.0080   19.9570 C   0  0  0  0  0  0  0  0  0  0  0  0
  -29.9270  -15.6610   20.0770 N   0  0  0  0  0  0  0  0  0  0  0  0
  -31.2420  -17.5510   20.0310 O   0  0  0  0  0  0  0  0  0  0  0  0
  -28.9670  -15.3660   20.1320 H   0  0  0  0  0  0  0  0  0  0  0  0
  -25.4200  -13.9080   20.4250 C   0  0  0  0  0  0  0  0  0  0  0  0
  -24.3620  -13.1570   20.8490 C   0  0  0  0  0  0  0  0  0  0  0  0
  -24.7760  -11.7940   20.7350 C   0  0  0  0  0  0  0  0  0  0  0  0
  -26.4150  -13.0090   20.0800 N   0  0  0  0  0  0  0  0  0  0  0  0
  -26.0360  -11.7290   20.3280 N   0  0  0  0  0  0  0  0  0  0  0  0
  -24.0270  -10.5520   20.9280 C   0  0  0  0  0  0  0  0  0  0  0  0
  -24.4360   -9.5880   21.8750 C   0  0  0  0  0  3  0  0  0  0  0  0
  -23.6940   -8.4050   22.0610 C   0  0  0  0  0  3  0  0  0  0  0  0
  -22.5260   -8.1740   21.2960 C   0  0  0  0  0  0  0  0  0  0  0  0
  -22.1320   -9.1250   20.3380 C   0  0  0  0  0  3  0  0  0  0  0  0
  -22.8760  -10.3020   20.1520 C   0  0  0  0  0  3  0  0  0  0  0  0
  -21.7530   -7.0410   21.3890 O   0  0  0  0  0  0  0  0  0  0  0  0
  -21.5950   -6.3750   22.5780 C   0  0  0  0  0  0  0  0  0  0  0  0
  -21.0470   -7.0040   23.7190 C   0  0  0  0  0  3  0  0  0  0  0  0
  -20.8410   -6.2630   24.8990 C   0  0  0  0  0  3  0  0  0  0  0  0
  -21.1670   -4.8940   24.9370 C   0  0  0  0  0  0  0  0  0  0  0  0
  -21.7080   -4.2650   23.8010 C   0  0  0  0  0  3  0  0  0  0  0  0
  -21.9190   -5.0050   22.6250 C   0  0  0  0  0  0  0  0  0  0  0  0
  -22.4210   -4.3910   21.5250 F   0  0  0  0  0  0  0  0  0  0  0  0
  -20.9620   -4.1790   26.0670 F   0  0  0  0  0  0  0  0  0  0  0  0
  -23.0030  -13.6630   21.2360 C   0  0  0  0  0  0  0  0  0  0  0  0
  -22.3160  -12.9700   22.1360 N   0  0  0  0  0  0  0  0  0  0  0  0
  -22.5650  -14.7140   20.7730 O   0  0  0  0  0  0  0  0  0  0  0  0
  -22.6760  -12.1150   22.5350 H   0  0  0  0  0  0  0  0  0  0  0  0
  -21.4090  -13.3000   22.4380 H   0  0  0  0  0  0  0  0  0  0  0  0
  -25.6090  -15.2760   20.2610 N   0  0  0  0  0  0  0  0  0  0  0  0
  -24.7460  -15.8100   20.3330 H   0  0  0  0  0  0  0  0  0  0  0  0
  -26.1280  -15.5330   19.4340 H   0  0  0  0  0  0  0  0  0  0  0  0
  -29.7990  -21.6110   20.1240 C   0  0  0  0  0  2  0  0  0  0  0  0
  -29.3390  -24.1590   20.0680 C   0  0  0  0  0  0  0  0  0  0  0  0
  -29.1400  -22.8950   20.5290 N   0  0  0  0  0  0  0  0  0  0  0  0
  -30.1970  -24.4180   19.2190 O   0  0  0  0  0  0  0  0  0  0  0  0
  -28.4020  -22.8170   21.2180 H   0  0  0  0  0  0  0  0  0  0  0  0
  -28.4240  -25.2890   20.6450 C   0  0  0  0  0  2  0  0  0  0  0  0
  -28.5870  -26.6080   20.0280 O   0  0  0  0  0  0  0  0  0  0  0  0
  -24.5400  -31.6610   23.1280 C   0  0  0  0  0  0  0  0  0  0  0  0
  -27.4260  -27.3760   19.9960 C   0  0  0  0  0  0  0  0  0  0  0  0
  -23.4300  -30.2490   21.4300 C   0  0  0  0  0  3  0  0  0  0  0  0
  -24.9790  -28.8180   19.9920 C   0  0  0  0  0  0  0  0  0  0  0  0
  -25.9470  -30.7170   21.2940 C   0  0  0  0  0  2  0  0  0  0  0  0
  -26.1080  -29.3660   20.6180 C   0  0  0  0  0  0  0  0  0  0  0  0
  -27.3380  -28.6550   20.6120 C   0  0  0  0  0  3  0  0  0  0  0  0
  -26.2850  -26.8730   19.3350 C   0  0  0  0  0  3  0  0  0  0  0  0
  -25.0650  -27.5740   19.3440 C   0  0  0  0  0  3  0  0  0  0  0  0
  -23.6980  -29.6210   20.0360 C   0  0  0  0  0  2  0  0  0  0  0  0
  -24.6560  -30.8920   22.0080 N   0  0  0  0  0  0  0  0  0  0  0  0
  -23.4390  -31.8690   23.6520 O   0  0  0  0  0  0  0  0  0  0  0  0
  -22.8020  -29.1760   22.3510 C   0  0  0  0  0  0  0  0  0  0  0  0
  -21.4820  -28.9620   22.2200 N   0  0  0  0  0  0  0  0  0  0  0  0
  -23.5030  -28.5440   23.1480 O   0  0  0  0  0  0  0  0  0  0  0  0
  -20.9760  -29.5340   21.5560 H   0  0  0  0  0  0  0  0  0  0  0  0
  -18.1490  -27.6320   22.6740 C   0  0  0  0  0  0  0  0  0  0  0  0
  -20.6970  -27.9630   22.9480 C   0  0  0  0  0  3  0  0  0  0  0  0
  -20.8430  -26.5640   22.3060 C   0  0  0  0  0  2  0  0  0  0  0  0
  -19.7440  -26.2570   21.2830 C   0  0  0  0  0  2  0  0  0  0  0  0
  -18.3730  -26.3110   21.9550 C   0  0  0  0  0  2  0  0  0  0  0  0
  -19.2440  -28.4140   23.1300 C   0  0  0  0  0  0  0  0  0  0  0  0
  -18.9870  -29.6500   23.7610 C   0  0  0  0  0  3  0  0  0  0  0  0
  -17.6660  -30.1030   23.9430 C   0  0  0  0  0  3  0  0  0  0  0  0
  -16.5880  -29.3180   23.5020 C   0  0  0  0  0  3  0  0  0  0  0  0
  -16.8310  -28.0830   22.8720 C   0  0  0  0  0  3  0  0  0  0  0  0
  -25.7850  -32.3350   23.7900 C   0  0  0  0  0  3  0  0  0  0  0  0
  -26.3070  -31.5640   25.0650 C   0  0  1  0  0  0  0  0  0  0  0  0
  -25.2040  -31.2660   26.1070 C   0  0  0  0  0  1  0  0  0  0  0  0
  -26.9490  -30.2170   24.6610 C   0  0  0  0  0  1  0  0  0  0  0  0
  -27.4130  -32.3900   25.7590 C   0  0  0  0  0  1  0  0  0  0  0  0
  -25.4110  -33.7140   24.1330 N   0  0  0  0  0  0  0  0  0  0  0  0
  -25.6980  -34.7880   23.3860 C   0  0  0  0  0  0  0  0  0  0  0  0
  -26.3750  -34.7240   22.3550 O   0  0  0  0  0  0  0  0  0  0  0  0
  -24.8150  -33.8360   24.9390 H   0  0  0  0  0  0  0  0  0  0  0  0
  -23.8870  -36.4990   23.0530 C   0  0  0  0  0  1  0  0  0  0  0  0
  -25.1500  -36.1480   23.8560 C   0  0  0  0  0  3  0  0  0  0  0  0
  -27.2420  -37.1290   24.6860 C   0  0  0  0  0  1  0  0  0  0  0  0
  -26.1310  -37.2490   23.7450 N   0  0  0  0  0  0  0  0  0  0  0  0
  -25.6850  -38.1480   23.8960 H   0  0  0  0  0  0  0  0  0  0  0  0
  1  2  1  0
  2  7  1  0
  4 17  1  0
  4  7  1  0
  5  1  1  0
  5  4  1  0
  5  6  1  0
  6 49  1  0
  6  3  1  0
  7  3  1  0
  7  8  1  1
  9 18  1  0
 10 15  1  0
 11 12  1  0
 11 10  1  0
 13 12  1  0
 13 24  1  0
 13 14  1  0
 15  9  1  0
 15 14  1  0
 16  9  2  0
 17 19  2  0
 17 18  1  0
 18 20  1  0
 21 22  2  0
 22 41  1  0
 23 22  1  0
 23 26  1  0
 24 25  1  0
 24 21  1  0
 25 23  2  0
 26 27  1  0
 27 28  2  0
 29 32  1  0
 29 28  1  0
 30 29  2  0
 31 30  1  0
 31 26  2  0
 32 33  1  0
 33 38  2  0
 33 34  1  0
 34 35  2  0
 35 36  1  0
 36 40  1  0
 37 36  2  0
 38 37  1  0
 39 38  1  0
 41 42  1  0
 42 45  1  0
 42 44  1  0
 43 41  2  0
 46 47  1  0
 46 21  1  0
 48 46  1  0
 49 51  1  0
 50 51  1  0
 50 54  1  0
 51 53  1  0
 52 50  2  0
 55 54  1  0
 56 67  2  0
 57 55  1  0
 57 62  1  0
 58 66  1  0
 58 68  1  0
 59 65  1  0
 59 61  1  0
 60 66  1  0
 61 60  1  0
 62 61  2  0
 63 64  1  0
 63 57  2  0
 64 59  2  0
 65 58  1  0
 66 56  1  0
 68 70  2  0
 69 68  1  0
 71 69  1  0
 72 81  2  0
 72 77  1  0
 73 69  1  0
 73 77  1  0
 74 73  1  0
 75 76  1  0
 75 74  1  0
 76 72  1  0
 77 78  2  0
 78 79  1  0
 80 79  2  0
 81 80  1  0
 82 56  1  0
 82 87  1  0
 82 83  1  0
 83 86  1  1
 83 84  1  0
 85 83  1  0
 87 90  1  0
 88 92  1  0
 88 87  1  0
 89 88  2  0
 92 91  1  0
 94 92  1  0
 94 95  1  0
 94 93  1  0
M  ISO  4   9 100  18 100  54 101  55 101
M  END
>  <TORSDO>  (76) 
F 19

>  <SCORE>  (76) 
-12.842

>  <name>  (76) 
77

>  <ligand_id>  (76) 
77

>  <original_smiles>  (76) 
[H]c1c([H])c([H])c2c(c1[H])C([H])([H])C([H])([H])C([H])([H])C2([H])N([H])C(=O)C1([H])N(C(=O)C([H])(N([H])C(=O)C([H])(N([H])C([H])([H])[H])C([H])([H])[H])C(C([H])([H])[H])(C([H])([H])[H])C([H])([H])[H])C([H])([H])c2c([H])c(OC([H])([H])C(=O)N([H])C([H])([H])C3([H])C4([H])C([H])([H])C([H])([H])[N+]([H])(C3([H])[H])C4([H])C(=O)N([H])C(=O)N3C([H])([H])C([H])([H])C([H])([H])C([H])(n4nc(-c5c([H])c([H])c(Oc6c([H])c([H])c(F)c([H])c6F)c([H])c5[H])c(C(=O)N([H])[H])c4N([H])[H])C3([H])[H])c([H])c([H])c2C1([H])[H]

>  <smiles>  (76) 
[H]c1c([H])c([H])c2c(c1[H])C([H])([H])C([H])([H])C([H])([H])C2([H])N([H])C(=O)C1([H])N(C(=O)C([H])(N([H])C(=O)C([H])(N([H])C([H])([H])[H])C([H])([H])[H])C(C([H])([H])[H])(C([H])([H])[H])C([H])([H])[H])C([H])([H])c2c([H])c(OC([H])([H])C(=O)N([H])C([H])([H])C3([H])C4([H])C([H])([H])C([H])([H])[N+]([H])(C3([H])[H])C4([H])C(=O)N([H])C(=O)N3C([H])([H])C([H])([H])C([H])([H])C([H])(n4nc(-c5c([H])c([H])c(Oc6c([H])c([H])c(F)c([H])c6F)c([H])c5[H])c(C(=O)N([H])[H])c4N([H])[H])C3([H])[H])c([H])c([H])c2C1([H])[H]

$$$$
78:0:0
     RDKit          3D

 92101  0  0  1  0  0  0  0  0999 V2000
  -29.7490  -20.8540   20.3820 C   0  0  0  0  0  2  0  0  0  0  0  0
  -27.8560  -19.0480   19.7300 C   0  0  0  0  0  2  0  0  0  0  0  0
  -28.2570  -18.8040   21.1440 C   0  0  0  0  0  2  0  0  0  0  0  0
  -29.3150  -19.2500   20.1440 C   0  0  2  0  0  0  0  0  0  0  0  0
  -30.8060  -15.2690   20.1700 C   0  0  0  0  0  0  0  0  0  0  0  0
  -30.7700  -12.8450   19.4340 C   0  0  0  0  0  2  0  0  0  0  0  0
  -29.8370  -12.5510   18.2330 C   0  0  0  0  0  2  0  0  0  0  0  0
  -28.3810  -12.3500   18.6890 C   0  0  0  0  0  2  0  0  0  0  0  0
  -27.9090  -13.3820   19.7460 C   0  0  0  0  0  3  0  0  0  0  0  0
  -28.9610  -13.5880   20.8520 C   0  0  0  0  0  2  0  0  0  0  0  0
  -30.2160  -13.9990   20.1940 N   0  0  0  0  0  0  0  0  0  0  0  0
  -32.0440  -15.2980   20.1840 O   0  0  0  0  0  0  0  0  0  0  0  0
  -29.8570  -17.4200   17.5770 C   0  0  0  0  0  2  0  0  0  0  0  0
  -29.3290  -16.3400   18.5460 C   0  0  0  0  0  2  0  0  0  0  0  0
  -30.9690  -18.1080   18.3500 C   0  0  0  0  0  3  0  0  0  0  0  0
  -30.4180  -18.0150   19.8050 C   0  0  0  0  0  3  0  0  0  0  0  0
  -31.4080  -19.4570   17.7300 C   0  0  0  0  0  1  0  0  0  0  0  0
  -30.0510  -16.4570   19.8390 N   0  0  0  0  0  0  0  0  0  0  0  0
  -25.5340  -13.9500   20.5170 C   0  0  0  0  0  0  0  0  0  0  0  0
  -24.4680  -13.1610   20.8700 C   0  0  0  0  0  0  0  0  0  0  0  0
  -24.9450  -11.8160   20.8310 C   0  0  0  0  0  0  0  0  0  0  0  0
  -26.5800  -13.0760   20.2670 N   0  0  0  0  0  0  0  0  0  0  0  0
  -26.2360  -11.7900   20.5250 N   0  0  0  0  0  0  0  0  0  0  0  0
  -24.2280  -10.5450   21.0020 C   0  0  0  0  0  0  0  0  0  0  0  0
  -24.6190   -9.5980   21.9760 C   0  0  0  0  0  3  0  0  0  0  0  0
  -23.9000   -8.3930   22.1320 C   0  0  0  0  0  3  0  0  0  0  0  0
  -22.7750   -8.1300   21.3150 C   0  0  0  0  0  0  0  0  0  0  0  0
  -22.4060   -9.0630   20.3290 C   0  0  0  0  0  3  0  0  0  0  0  0
  -23.1260  -10.2590   20.1700 C   0  0  0  0  0  3  0  0  0  0  0  0
  -22.0280   -6.9780   21.3790 O   0  0  0  0  0  0  0  0  0  0  0  0
  -21.8500   -6.3040   22.5610 C   0  0  0  0  0  0  0  0  0  0  0  0
  -21.2280   -6.9060   23.6780 C   0  0  0  0  0  3  0  0  0  0  0  0
  -21.0000   -6.1540   24.8470 C   0  0  0  0  0  3  0  0  0  0  0  0
  -21.3860   -4.8010   24.9010 C   0  0  0  0  0  0  0  0  0  0  0  0
  -22.0010   -4.1980   23.7910 C   0  0  0  0  0  3  0  0  0  0  0  0
  -22.2300   -4.9480   22.6220 C   0  0  0  0  0  0  0  0  0  0  0  0
  -22.8040   -4.3560   21.5480 F   0  0  0  0  0  0  0  0  0  0  0  0
  -21.1590   -4.0770   26.0230 F   0  0  0  0  0  0  0  0  0  0  0  0
  -23.0650  -13.6280   21.1370 C   0  0  0  0  0  0  0  0  0  0  0  0
  -22.3410  -12.9190   21.9990 N   0  0  0  0  0  0  0  0  0  0  0  0
  -22.6170  -14.6480   20.6190 O   0  0  0  0  0  0  0  0  0  0  0  0
  -22.7200  -12.0870   22.4280 H   0  0  0  0  0  0  0  0  0  0  0  0
  -21.3990  -13.2010   22.2310 H   0  0  0  0  0  0  0  0  0  0  0  0
  -25.6880  -15.3210   20.3530 N   0  0  0  0  0  0  0  0  0  0  0  0
  -24.9270  -15.9820   20.4490 H   0  0  0  0  0  0  0  0  0  0  0  0
  -26.5620  -15.7530   20.0800 H   0  0  0  0  0  0  0  0  0  0  0  0
  -28.7300  -22.0660   20.3130 N   0  0  0  0  0  4  0  0  0  0  0  0
  -28.0530  -21.8850   21.0360 H   0  0  0  0  0  0  0  0  0  0  0  0
  -28.2320  -21.9810   19.4410 H   0  0  0  0  0  0  0  0  0  0  0  0
  -29.1590  -23.5880   20.4380 C   0  0  0  0  0  3  0  0  0  0  0  0
  -28.0610  -24.8540   20.5520 C   0  0  0  0  0  3  0  0  0  0  0  0
  -28.3610  -26.3780   20.4290 O   0  0  0  0  0  0  0  0  0  0  0  0
  -24.6830  -32.0140   23.3630 C   0  0  0  0  0  0  0  0  0  0  0  0
  -27.3040  -27.3500   20.3510 C   0  0  0  0  0  0  0  0  0  0  0  0
  -23.5000  -30.6310   21.6940 C   0  0  0  0  0  3  0  0  0  0  0  0
  -24.9760  -29.0810   20.2730 C   0  0  0  0  0  0  0  0  0  0  0  0
  -26.0560  -30.9160   21.5650 C   0  0  0  0  0  2  0  0  0  0  0  0
  -26.1430  -29.5290   20.9110 C   0  0  0  0  0  0  0  0  0  0  0  0
  -27.3050  -28.6770   20.9390 C   0  0  0  0  0  3  0  0  0  0  0  0
  -26.1190  -27.0100   19.6570 C   0  0  0  0  0  3  0  0  0  0  0  0
  -24.9800  -27.8350   19.6300 C   0  0  0  0  0  3  0  0  0  0  0  0
  -23.7400  -29.9650   20.3110 C   0  0  0  0  0  2  0  0  0  0  0  0
  -24.7650  -31.2060   22.2620 N   0  0  0  0  0  0  0  0  0  0  0  0
  -23.5920  -32.2950   23.8830 O   0  0  0  0  0  0  0  0  0  0  0  0
  -22.8160  -29.6130   22.6410 C   0  0  0  0  0  0  0  0  0  0  0  0
  -21.4940  -29.4220   22.4870 N   0  0  0  0  0  0  0  0  0  0  0  0
  -23.4790  -28.9960   23.4780 O   0  0  0  0  0  0  0  0  0  0  0  0
  -21.0160  -29.9630   21.7800 H   0  0  0  0  0  0  0  0  0  0  0  0
  -18.1200  -28.1950   22.9380 C   0  0  0  0  0  0  0  0  0  0  0  0
  -20.6710  -28.4740   23.2430 C   0  0  0  0  0  3  0  0  0  0  0  0
  -20.7910  -27.0460   22.6600 C   0  0  0  0  0  2  0  0  0  0  0  0
  -19.7080  -26.7230   21.6260 C   0  0  0  0  0  2  0  0  0  0  0  0
  -18.3160  -26.8540   22.2510 C   0  0  0  0  0  2  0  0  0  0  0  0
  -19.2250  -28.9640   23.3900 C   0  0  0  0  0  0  0  0  0  0  0  0
  -18.9860  -30.2180   23.9940 C   0  0  0  0  0  3  0  0  0  0  0  0
  -17.6750  -30.7060   24.1440 C   0  0  0  0  0  3  0  0  0  0  0  0
  -16.5840  -29.9360   23.7050 C   0  0  0  0  0  3  0  0  0  0  0  0
  -16.8080  -28.6810   23.1100 C   0  0  0  0  0  3  0  0  0  0  0  0
  -25.9570  -32.6390   24.0120 C   0  0  0  0  0  3  0  0  0  0  0  0
  -26.4350  -31.8790   25.3110 C   0  0  1  0  0  0  0  0  0  0  0  0
  -25.3060  -31.6630   26.3450 C   0  0  0  0  0  1  0  0  0  0  0  0
  -27.0230  -30.4920   24.9570 C   0  0  0  0  0  1  0  0  0  0  0  0
  -27.5690  -32.6740   25.9980 C   0  0  0  0  0  1  0  0  0  0  0  0
  -25.6540  -34.0460   24.3180 N   0  0  0  0  0  0  0  0  0  0  0  0
  -25.9670  -35.0860   23.5310 C   0  0  0  0  0  0  0  0  0  0  0  0
  -26.6060  -34.9610   22.4840 O   0  0  0  0  0  0  0  0  0  0  0  0
  -25.0730  -34.2200   25.1270 H   0  0  0  0  0  0  0  0  0  0  0  0
  -24.2070  -36.8590   23.2200 C   0  0  0  0  0  1  0  0  0  0  0  0
  -25.4920  -36.4820   23.9760 C   0  0  0  0  0  3  0  0  0  0  0  0
  -27.6520  -37.4170   24.6760 C   0  0  0  0  0  1  0  0  0  0  0  0
  -26.5070  -37.5380   23.7780 N   0  0  0  0  0  0  0  0  0  0  0  0
  -26.0970  -38.4570   23.9040 H   0  0  0  0  0  0  0  0  0  0  0  0
  2  4  1  0
  2  3  1  0
  4  1  1  1
  4  3  1  0
  5 12  2  0
  5 11  1  0
  6 11  1  0
  7  8  1  0
  7  6  1  0
  9  8  1  0
  9 22  1  0
  9 10  1  0
 11 10  1  0
 13 15  1  0
 13 14  1  0
 14 18  1  0
 15 17  1  0
 15 16  1  0
 16 18  1  0
 16  4  1  0
 18  5  1  0
 19 20  2  0
 20 39  1  0
 21 20  1  0
 21 24  1  0
 22 19  1  0
 22 23  1  0
 23 21  2  0
 24 25  1  0
 25 26  2  0
 27 30  1  0
 27 26  1  0
 28 27  2  0
 29 28  1  0
 29 24  2  0
 30 31  1  0
 31 36  2  0
 31 32  1  0
 32 33  2  0
 33 34  1  0
 34 38  1  0
 35 34  2  0
 36 35  1  0
 37 36  1  0
 39 40  1  0
 40 43  1  0
 40 42  1  0
 41 39  2  0
 44 45  1  0
 44 19  1  0
 46 44  1  0
 47  1  1  0
 47 50  1  0
 47 48  1  0
 49 47  1  0
 50 51  2  0
 52 51  1  0
 53 64  2  0
 54 52  1  0
 54 59  1  0
 55 63  1  0
 55 65  1  0
 56 62  1  0
 56 58  1  0
 57 63  1  0
 58 59  2  0
 58 57  1  0
 60 54  2  0
 61 60  1  0
 61 56  2  0
 62 55  1  0
 63 53  1  0
 65 67  2  0
 66 65  1  0
 68 66  1  0
 69 78  2  0
 69 74  1  0
 70 66  1  0
 70 74  1  0
 71 70  1  0
 72 73  1  0
 72 71  1  0
 73 69  1  0
 74 75  2  0
 75 76  1  0
 77 76  2  0
 78 77  1  0
 79 53  1  0
 79 84  1  0
 79 80  1  0
 80 83  1  1
 80 81  1  0
 82 80  1  0
 84 87  1  0
 85 89  1  0
 85 84  1  0
 86 85  2  0
 89 88  1  0
 91 92  1  0
 91 89  1  0
 91 90  1  0
M  ISO  4   5 100  18 100  51 101  52 101
M  END
>  <TORSDO>  (77) 
F 20

>  <SCORE>  (77) 
-12.101

>  <name>  (77) 
78

>  <ligand_id>  (77) 
78

>  <original_smiles>  (77) 
[H]c1c([H])c([H])c2c(c1[H])C([H])([H])C([H])([H])C([H])([H])C2([H])N([H])C(=O)C1([H])N(C(=O)C([H])(N([H])C(=O)C([H])(N([H])C([H])([H])[H])C([H])([H])[H])C(C([H])([H])[H])(C([H])([H])[H])C([H])([H])[H])C([H])([H])c2c([H])c(OC([H])([H])C([H])([H])[N+]([H])([H])C([H])([H])C3(C4([H])N(C(=O)N5C([H])([H])C([H])([H])C([H])([H])C([H])(n6nc(-c7c([H])c([H])c(Oc8c([H])c([H])c(F)c([H])c8F)c([H])c7[H])c(C(=O)N([H])[H])c6N([H])[H])C5([H])[H])C([H])([H])C([H])([H])C4([H])C([H])([H])[H])C([H])([H])C3([H])[H])c([H])c([H])c2C1([H])[H]

>  <smiles>  (77) 
[H]c1c([H])c([H])c2c(c1[H])C([H])([H])C([H])([H])C([H])([H])C2([H])N([H])C(=O)C1([H])N(C(=O)C([H])(N([H])C(=O)C([H])(N([H])C([H])([H])[H])C([H])([H])[H])C(C([H])([H])[H])(C([H])([H])[H])C([H])([H])[H])C([H])([H])c2c([H])c(OC([H])([H])C([H])([H])[N+]([H])([H])C([H])([H])C3(C4([H])N(C(=O)N5C([H])([H])C([H])([H])C([H])([H])C([H])(n6nc(-c7c([H])c([H])c(Oc8c([H])c([H])c(F)c([H])c8F)c([H])c7[H])c(C(=O)N([H])[H])c6N([H])[H])C5([H])[H])C([H])([H])C([H])([H])C4([H])C([H])([H])[H])C([H])([H])C3([H])[H])c([H])c([H])c2C1([H])[H]

$$$$
79:0:0
     RDKit          3D

 95103  0  0  1  0  0  0  0  0999 V2000
  -27.1740  -20.7160   19.6970 C   0  0  0  0  0  2  0  0  0  0  0  0
  -30.0320  -18.4340   18.4330 C   0  0  0  0  0  3  0  0  0  0  0  0
  -28.6060  -18.9520   20.7820 C   0  0  0  0  0  3  0  0  0  0  0  0
  -28.9870  -19.3820   18.4090 C   0  0  0  0  0  0  0  0  0  0  0  0
  -29.6390  -17.9910   20.8000 C   0  0  0  0  0  0  0  0  0  0  0  0
  -30.3800  -17.7500   19.6170 C   0  0  0  0  0  0  0  0  0  0  0  0
  -28.2800  -19.6670   19.6080 C   0  0  0  0  0  0  0  0  0  0  0  0
  -28.6810  -20.0570   17.0780 C   0  0  0  0  0  1  0  0  0  0  0  0
  -29.9110  -17.2360   22.0930 C   0  0  0  0  0  1  0  0  0  0  0  0
  -31.5410  -16.7640   19.5760 C   0  0  0  0  0  2  0  0  0  0  0  0
  -31.6220  -14.2930   19.2910 C   0  0  0  0  0  0  0  0  0  0  0  0
  -31.2700  -11.8890   18.8750 C   0  0  0  0  0  2  0  0  0  0  0  0
  -30.2750  -11.6880   17.7150 C   0  0  0  0  0  2  0  0  0  0  0  0
  -28.8240  -11.7080   18.2320 C   0  0  0  0  0  2  0  0  0  0  0  0
  -28.5310  -12.9240   19.1490 C   0  0  0  0  0  3  0  0  0  0  0  0
  -29.6270  -13.0660   20.2290 C   0  0  0  0  0  2  0  0  0  0  0  0
  -30.9340  -13.1510   19.5490 N   0  0  0  0  0  0  0  0  0  0  0  0
  -32.6380  -14.3280   18.5930 O   0  0  0  0  0  0  0  0  0  0  0  0
  -31.0960  -15.3980   19.8260 N   0  0  0  0  0  0  0  0  0  0  0  0
  -30.2760  -15.2790   20.3990 H   0  0  0  0  0  0  0  0  0  0  0  0
  -26.2970  -13.8430   20.0420 C   0  0  0  0  0  0  0  0  0  0  0  0
  -25.1740  -13.2150   20.5160 C   0  0  0  0  0  0  0  0  0  0  0  0
  -25.4590  -11.8160   20.4780 C   0  0  0  0  0  0  0  0  0  0  0  0
  -27.1990  -12.8320   19.7440 N   0  0  0  0  0  0  0  0  0  0  0  0
  -26.7020  -11.6090   20.0600 N   0  0  0  0  0  0  0  0  0  0  0  0
  -24.6010  -10.6580   20.7610 C   0  0  0  0  0  0  0  0  0  0  0  0
  -24.9200   -9.7360   21.7820 C   0  0  0  0  0  3  0  0  0  0  0  0
  -24.0720   -8.6390   22.0470 C   0  0  0  0  0  3  0  0  0  0  0  0
  -22.8880   -8.4580   21.2910 C   0  0  0  0  0  0  0  0  0  0  0  0
  -22.5860   -9.3680   20.2630 C   0  0  0  0  0  3  0  0  0  0  0  0
  -23.4340  -10.4560   19.9960 C   0  0  0  0  0  3  0  0  0  0  0  0
  -22.0170   -7.4080   21.4600 O   0  0  0  0  0  0  0  0  0  0  0  0
  -21.7940   -6.8500   22.6940 C   0  0  0  0  0  0  0  0  0  0  0  0
  -21.2980   -7.6100   23.7760 C   0  0  0  0  0  3  0  0  0  0  0  0
  -21.0160   -6.9820   25.0050 C   0  0  0  0  0  3  0  0  0  0  0  0
  -21.2190   -5.5970   25.1530 C   0  0  0  0  0  0  0  0  0  0  0  0
  -21.7060   -4.8370   24.0740 C   0  0  0  0  0  3  0  0  0  0  0  0
  -21.9890   -5.4630   22.8470 C   0  0  0  0  0  0  0  0  0  0  0  0
  -22.4390   -4.7230   21.8060 F   0  0  0  0  0  0  0  0  0  0  0  0
  -20.9400   -4.9930   26.3320 F   0  0  0  0  0  0  0  0  0  0  0  0
  -23.8770  -13.8690   20.8970 C   0  0  0  0  0  0  0  0  0  0  0  0
  -23.1630  -13.2980   21.8610 N   0  0  0  0  0  0  0  0  0  0  0  0
  -23.5140  -14.9180   20.3720 O   0  0  0  0  0  0  0  0  0  0  0  0
  -23.4750  -12.4490   22.3070 H   0  0  0  0  0  0  0  0  0  0  0  0
  -22.2940  -13.7200   22.1580 H   0  0  0  0  0  0  0  0  0  0  0  0
  -26.6200  -15.1780   19.8280 N   0  0  0  0  0  0  0  0  0  0  0  0
  -25.9670  -15.9320   20.0150 H   0  0  0  0  0  0  0  0  0  0  0  0
  -27.5160  -15.5040   19.4840 H   0  0  0  0  0  0  0  0  0  0  0  0
  -27.6700  -21.9770   20.2850 N   0  0  0  0  0  4  0  0  0  0  0  0
  -28.4690  -21.7590   20.8560 H   0  0  0  0  0  0  0  0  0  0  0  0
  -26.9470  -22.3220   20.8970 H   0  0  0  0  0  0  0  0  0  0  0  0
  -28.0100  -23.0480   19.3240 C   0  0  0  0  0  2  0  0  0  0  0  0
  -28.2120  -24.4010   20.0310 C   0  0  0  0  0  2  0  0  0  0  0  0
  -28.6030  -25.5370   19.0640 C   0  0  0  0  0  2  0  0  0  0  0  0
  -28.5000  -26.8160   19.6980 O   0  0  0  0  0  0  0  0  0  0  0  0
  -24.6080  -31.7250   23.0520 C   0  0  0  0  0  0  0  0  0  0  0  0
  -27.2780  -27.4590   19.7500 C   0  0  0  0  0  0  0  0  0  0  0  0
  -23.3910  -30.3480   21.3950 C   0  0  0  0  0  3  0  0  0  0  0  0
  -24.8410  -28.8920   19.8900 C   0  0  0  0  0  0  0  0  0  0  0  0
  -25.9030  -30.7740   21.1480 C   0  0  0  0  0  2  0  0  0  0  0  0
  -26.0010  -29.4250   20.4660 C   0  0  0  0  0  0  0  0  0  0  0  0
  -27.2170  -28.7120   20.4010 C   0  0  0  0  0  3  0  0  0  0  0  0
  -26.0940  -26.9360   19.1770 C   0  0  0  0  0  3  0  0  0  0  0  0
  -24.8820  -27.6440   19.2490 C   0  0  0  0  0  3  0  0  0  0  0  0
  -23.5780  -29.7150   19.9900 C   0  0  0  0  0  2  0  0  0  0  0  0
  -24.6540  -30.9610   21.9230 N   0  0  0  0  0  0  0  0  0  0  0  0
  -23.5320  -31.9550   23.6260 O   0  0  0  0  0  0  0  0  0  0  0  0
  -22.7870  -29.2820   22.3380 C   0  0  0  0  0  0  0  0  0  0  0  0
  -21.4650  -29.0710   22.2340 N   0  0  0  0  0  0  0  0  0  0  0  0
  -23.5040  -28.6480   23.1160 O   0  0  0  0  0  0  0  0  0  0  0  0
  -20.9460  -29.6380   21.5790 H   0  0  0  0  0  0  0  0  0  0  0  0
  -18.1360  -27.7700   22.7470 C   0  0  0  0  0  0  0  0  0  0  0  0
  -20.6880  -28.0870   22.9890 C   0  0  0  0  0  3  0  0  0  0  0  0
  -20.8210  -26.6780   22.3660 C   0  0  0  0  0  2  0  0  0  0  0  0
  -19.7150  -26.3580   21.3580 C   0  0  0  0  0  2  0  0  0  0  0  0
  -18.3400  -26.4470   22.0240 C   0  0  0  0  0  2  0  0  0  0  0  0
  -19.2390  -28.5480   23.1840 C   0  0  0  0  0  0  0  0  0  0  0  0
  -18.9960  -29.7890   23.8110 C   0  0  0  0  0  3  0  0  0  0  0  0
  -17.6810  -30.2530   24.0060 C   0  0  0  0  0  3  0  0  0  0  0  0
  -16.5920  -29.4680   23.5880 C   0  0  0  0  0  3  0  0  0  0  0  0
  -16.8190  -28.2270   22.9660 C   0  0  0  0  0  3  0  0  0  0  0  0
  -25.8950  -32.3650   23.6590 C   0  0  0  0  0  3  0  0  0  0  0  0
  -25.5650  -33.7470   24.0360 N   0  0  0  0  0  0  0  0  0  0  0  0
  -25.8630  -34.8270   23.3000 C   0  0  0  0  0  0  0  0  0  0  0  0
  -26.5150  -34.7650   22.2540 O   0  0  0  0  0  0  0  0  0  0  0  0
  -24.9840  -33.8630   24.8530 H   0  0  0  0  0  0  0  0  0  0  0  0
  -24.0890  -36.5880   23.0320 C   0  0  0  0  0  1  0  0  0  0  0  0
  -25.3560  -36.1930   23.8050 C   0  0  0  0  0  3  0  0  0  0  0  0
  -27.4900  -37.1020   24.6070 C   0  0  0  0  0  1  0  0  0  0  0  0
  -26.3640  -37.2700   23.6930 N   0  0  0  0  0  0  0  0  0  0  0  0
  -25.9430  -38.1770   23.8720 H   0  0  0  0  0  0  0  0  0  0  0  0
  -26.4590  -31.5690   24.8990 C   0  0  1  0  0  0  0  0  0  0  0  0
  -25.3990  -31.2740   25.9860 C   0  0  0  0  0  1  0  0  0  0  0  0
  -27.0600  -30.2190   24.4460 C   0  0  0  0  0  1  0  0  0  0  0  0
  -27.6090  -32.3660   25.5560 C   0  0  0  0  0  1  0  0  0  0  0  0
  1 49  1  0
  2  6  1  0
  3  5  1  0
  4  2  2  0
  4  7  1  0
  5  9  1  0
  6  5  2  0
  7  1  1  0
  7  3  2  0
  8  4  1  0
 10  6  1  0
 10 19  1  0
 11 17  1  0
 11 19  1  0
 12 17  1  0
 13 14  1  0
 13 12  1  0
 15 14  1  0
 15 24  1  0
 15 16  1  0
 17 16  1  0
 18 11  2  0
 19 20  1  0
 21 22  2  0
 22 41  1  0
 23 22  1  0
 23 26  1  0
 24 21  1  0
 24 25  1  0
 25 23  2  0
 26 27  1  0
 27 28  2  0
 29 32  1  0
 29 28  1  0
 30 29  2  0
 31 30  1  0
 31 26  2  0
 32 33  1  0
 33 38  2  0
 33 34  1  0
 34 35  2  0
 35 36  1  0
 36 40  1  0
 37 36  2  0
 38 37  1  0
 39 38  1  0
 41 42  1  0
 42 45  1  0
 42 44  1  0
 43 41  2  0
 46 47  1  0
 46 21  1  0
 48 46  1  0
 49 50  1  0
 49 51  1  0
 52 53  1  0
 52 49  1  0
 54 55  1  0
 54 53  1  0
 55 57  1  0
 56 67  2  0
 57 62  1  0
 58 66  1  0
 58 68  1  0
 59 65  1  0
 59 61  1  0
 60 66  1  0
 61 60  1  0
 62 61  2  0
 63 64  1  0
 63 57  2  0
 64 59  2  0
 65 58  1  0
 66 56  1  0
 68 70  2  0
 69 68  1  0
 71 69  1  0
 72 81  2  0
 72 77  1  0
 73 69  1  0
 73 77  1  0
 74 73  1  0
 75 76  1  0
 75 74  1  0
 76 72  1  0
 77 78  2  0
 78 79  1  0
 80 79  2  0
 81 80  1  0
 82 56  1  0
 82 83  1  0
 82 92  1  0
 83 86  1  0
 84 88  1  0
 84 83  1  0
 85 84  2  0
 88 87  1  0
 90 88  1  0
 90 91  1  0
 90 89  1  0
 92 95  1  1
 92 93  1  0
 94 92  1  0
M  ISO  4  11 100  19 100  54 101  55 101
M  END
>  <TORSDO>  (78) 
F 22

>  <SCORE>  (78) 
-11.101

>  <name>  (78) 
79

>  <ligand_id>  (78) 
79

>  <original_smiles>  (78) 
[H]c1c([H])c([H])c2c(c1[H])C([H])([H])C([H])([H])C([H])([H])C2([H])N([H])C(=O)C1([H])N(C(=O)C([H])(N([H])C(=O)C([H])(N([H])C([H])([H])[H])C([H])([H])[H])C(C([H])([H])[H])(C([H])([H])[H])C([H])([H])[H])C([H])([H])c2c([H])c(OC([H])([H])C([H])([H])C([H])([H])[N+]([H])([H])C([H])([H])c3c([H])c(C([H])([H])[H])c(C([H])([H])N([H])C(=O)N4C([H])([H])C([H])([H])C([H])([H])C([H])(n5nc(-c6c([H])c([H])c(Oc7c([H])c([H])c(F)c([H])c7F)c([H])c6[H])c(C(=O)N([H])[H])c5N([H])[H])C4([H])[H])c([H])c3C([H])([H])[H])c([H])c([H])c2C1([H])[H]

>  <smiles>  (78) 
[H]c1c([H])c([H])c2c(c1[H])C([H])([H])C([H])([H])C([H])([H])C2([H])N([H])C(=O)C1([H])N(C(=O)C([H])(N([H])C(=O)C([H])(N([H])C([H])([H])[H])C([H])([H])[H])C(C([H])([H])[H])(C([H])([H])[H])C([H])([H])[H])C([H])([H])c2c([H])c(OC([H])([H])C([H])([H])C([H])([H])[N+]([H])([H])C([H])([H])c3c([H])c(C([H])([H])[H])c(C([H])([H])N([H])C(=O)N4C([H])([H])C([H])([H])C([H])([H])C([H])(n5nc(-c6c([H])c([H])c(Oc7c([H])c([H])c(F)c([H])c7F)c([H])c6[H])c(C(=O)N([H])[H])c5N([H])[H])C4([H])[H])c([H])c3C([H])([H])[H])c([H])c([H])c2C1([H])[H]

$$$$
80:0:0
     RDKit          3D

 95103  0  0  1  0  0  0  0  0999 V2000
  -27.2320  -20.6750   19.5940 C   0  0  0  0  0  2  0  0  0  0  0  0
  -27.2530  -22.0750   20.0650 N   0  0  0  0  0  4  0  0  0  0  0  0
  -27.7330  -22.0950   20.9460 H   0  0  0  0  0  0  0  0  0  0  0  0
  -26.2940  -22.3400   20.2400 H   0  0  0  0  0  0  0  0  0  0  0  0
  -27.8650  -23.0710   19.1650 C   0  0  0  0  0  2  0  0  0  0  0  0
  -27.8680  -24.4690   19.8180 C   0  0  0  0  0  2  0  0  0  0  0  0
  -28.4180  -25.5730   18.8950 C   0  0  0  0  0  2  0  0  0  0  0  0
  -28.3780  -26.8570   19.5270 O   0  0  0  0  0  0  0  0  0  0  0  0
  -24.4630  -31.6240   23.0750 C   0  0  0  0  0  0  0  0  0  0  0  0
  -27.1670  -27.5160   19.6030 C   0  0  0  0  0  0  0  0  0  0  0  0
  -23.2650  -30.2870   21.3730 C   0  0  0  0  0  3  0  0  0  0  0  0
  -24.7250  -28.9230   19.8050 C   0  0  0  0  0  0  0  0  0  0  0  0
  -25.7700  -30.7520   21.1440 C   0  0  0  0  0  2  0  0  0  0  0  0
  -25.8790  -29.4330   20.4110 C   0  0  0  0  0  0  0  0  0  0  0  0
  -27.0950  -28.7220   20.3310 C   0  0  0  0  0  3  0  0  0  0  0  0
  -25.9920  -27.0410   18.9700 C   0  0  0  0  0  3  0  0  0  0  0  0
  -24.7750  -27.7240   19.0860 C   0  0  0  0  0  3  0  0  0  0  0  0
  -23.4550  -29.7200   19.9400 C   0  0  0  0  0  2  0  0  0  0  0  0
  -24.5150  -30.9060   21.9190 N   0  0  0  0  0  0  0  0  0  0  0  0
  -23.3910  -31.8160   23.6650 O   0  0  0  0  0  0  0  0  0  0  0  0
  -22.6800  -29.1830   22.2810 C   0  0  0  0  0  0  0  0  0  0  0  0
  -21.3640  -28.9400   22.1460 N   0  0  0  0  0  0  0  0  0  0  0  0
  -23.4010  -28.5560   23.0610 O   0  0  0  0  0  0  0  0  0  0  0  0
  -20.8540  -29.4440   21.4340 H   0  0  0  0  0  0  0  0  0  0  0  0
  -18.0610  -27.5560   22.6320 C   0  0  0  0  0  0  0  0  0  0  0  0
  -20.6050  -27.9330   22.8900 C   0  0  0  0  0  3  0  0  0  0  0  0
  -20.7760  -26.5410   22.2490 C   0  0  0  0  0  2  0  0  0  0  0  0
  -19.6840  -26.2100   21.2300 C   0  0  0  0  0  2  0  0  0  0  0  0
  -18.3070  -26.2530   21.8920 C   0  0  0  0  0  2  0  0  0  0  0  0
  -19.1460  -28.3530   23.0900 C   0  0  0  0  0  0  0  0  0  0  0  0
  -18.8720  -29.5610   23.7660 C   0  0  0  0  0  3  0  0  0  0  0  0
  -17.5410  -29.9800   23.9770 C   0  0  0  0  0  3  0  0  0  0  0  0
  -16.4690  -29.1860   23.5230 C   0  0  0  0  0  3  0  0  0  0  0  0
  -16.7340  -27.9710   22.8600 C   0  0  0  0  0  3  0  0  0  0  0  0
  -25.7460  -32.2570   23.7010 C   0  0  0  0  0  3  0  0  0  0  0  0
  -25.4220  -33.6360   24.0870 N   0  0  0  0  0  0  0  0  0  0  0  0
  -25.7200  -34.7170   23.3520 C   0  0  0  0  0  0  0  0  0  0  0  0
  -26.3760  -34.6590   22.3070 O   0  0  0  0  0  0  0  0  0  0  0  0
  -24.8220  -33.7590   24.8910 H   0  0  0  0  0  0  0  0  0  0  0  0
  -23.9550  -36.4880   23.0680 C   0  0  0  0  0  1  0  0  0  0  0  0
  -25.2090  -36.0810   23.8560 C   0  0  0  0  0  3  0  0  0  0  0  0
  -27.3290  -36.9780   24.7060 C   0  0  0  0  0  1  0  0  0  0  0  0
  -26.2220  -37.1550   23.7710 N   0  0  0  0  0  0  0  0  0  0  0  0
  -25.7950  -38.0580   23.9560 H   0  0  0  0  0  0  0  0  0  0  0  0
  -26.3050  -31.4530   24.9400 C   0  0  1  0  0  0  0  0  0  0  0  0
  -25.2410  -31.1620   26.0240 C   0  0  0  0  0  1  0  0  0  0  0  0
  -26.9090  -30.1000   24.4960 C   0  0  0  0  0  1  0  0  0  0  0  0
  -27.4510  -32.2500   25.6100 C   0  0  0  0  0  1  0  0  0  0  0  0
  -27.9020  -19.7310   20.6210 C   0  0  0  0  0  2  0  0  0  0  0  0
  -31.5260  -20.2030   19.4200 C   0  0  0  0  0  3  0  0  0  0  0  0
  -30.1590  -20.3970   19.6640 C   0  0  0  0  0  3  0  0  0  0  0  0
  -32.1350  -19.0020   19.8070 C   0  0  0  0  0  3  0  0  0  0  0  0
  -29.3890  -19.4340   20.3600 C   0  0  0  0  0  0  0  0  0  0  0  0
  -31.3960  -18.0080   20.4660 C   0  0  0  0  0  0  0  0  0  0  0  0
  -30.0350  -18.2400   20.8100 C   0  0  0  0  0  0  0  0  0  0  0  0
  -29.3430  -17.2370   21.7230 C   0  0  0  0  0  1  0  0  0  0  0  0
  -32.0880  -16.6680   20.7200 C   0  0  0  0  0  2  0  0  0  0  0  0
  -32.6080  -14.6870   19.3520 C   0  0  0  0  0  0  0  0  0  0  0  0
  -32.1510  -12.3260   18.8040 C   0  0  0  0  0  2  0  0  0  0  0  0
  -31.1390  -12.2670   17.6420 C   0  0  0  0  0  2  0  0  0  0  0  0
  -29.6950  -12.3200   18.1850 C   0  0  0  0  0  2  0  0  0  0  0  0
  -29.4790  -13.4830   19.1930 C   0  0  0  0  0  3  0  0  0  0  0  0
  -30.5940  -13.5000   20.2640 C   0  0  0  0  0  2  0  0  0  0  0  0
  -31.8880  -13.5600   19.5650 N   0  0  0  0  0  0  0  0  0  0  0  0
  -33.6930  -14.7020   18.7700 O   0  0  0  0  0  0  0  0  0  0  0  0
  -31.9480  -15.8330   19.5380 N   0  0  0  0  0  0  0  0  0  0  0  0
  -32.1060  -16.4290   18.7400 H   0  0  0  0  0  0  0  0  0  0  0  0
  -27.2990  -14.4410   20.1730 C   0  0  0  0  0  0  0  0  0  0  0  0
  -26.1610  -13.8390   20.6440 C   0  0  0  0  0  0  0  0  0  0  0  0
  -26.3700  -12.4370   20.4890 C   0  0  0  0  0  0  0  0  0  0  0  0
  -28.1500  -13.4110   19.8050 N   0  0  0  0  0  0  0  0  0  0  0  0
  -27.5980  -12.1960   20.0490 N   0  0  0  0  0  0  0  0  0  0  0  0
  -25.4470  -11.3110   20.6830 C   0  0  0  0  0  0  0  0  0  0  0  0
  -25.7220  -10.2910   21.6180 C   0  0  0  0  0  3  0  0  0  0  0  0
  -24.8140   -9.2270   21.8000 C   0  0  0  0  0  3  0  0  0  0  0  0
  -23.6180   -9.1780   21.0470 C   0  0  0  0  0  0  0  0  0  0  0  0
  -23.3610  -10.1820   20.0990 C   0  0  0  0  0  3  0  0  0  0  0  0
  -24.2670  -11.2380   19.9140 C   0  0  0  0  0  3  0  0  0  0  0  0
  -22.6940   -8.1650   21.1340 O   0  0  0  0  0  0  0  0  0  0  0  0
  -22.4280   -7.5390   22.3240 C   0  0  0  0  0  0  0  0  0  0  0  0
  -21.9590   -8.2470   23.4520 C   0  0  0  0  0  3  0  0  0  0  0  0
  -21.6370   -7.5530   24.6350 C   0  0  0  0  0  3  0  0  0  0  0  0
  -21.7680   -6.1530   24.6880 C   0  0  0  0  0  0  0  0  0  0  0  0
  -22.2280   -5.4450   23.5630 C   0  0  0  0  0  3  0  0  0  0  0  0
  -22.5530   -6.1370   22.3830 C   0  0  0  0  0  0  0  0  0  0  0  0
  -22.9770   -5.4490   21.2960 F   0  0  0  0  0  0  0  0  0  0  0  0
  -21.4490   -5.4810   25.8190 F   0  0  0  0  0  0  0  0  0  0  0  0
  -24.9070  -14.5360   21.0840 C   0  0  0  0  0  0  0  0  0  0  0  0
  -24.2020  -13.9580   22.0510 N   0  0  0  0  0  0  0  0  0  0  0  0
  -24.5730  -15.6230   20.6190 O   0  0  0  0  0  0  0  0  0  0  0  0
  -24.4760  -13.0680   22.4430 H   0  0  0  0  0  0  0  0  0  0  0  0
  -23.3600  -14.4020   22.3890 H   0  0  0  0  0  0  0  0  0  0  0  0
  -27.6530  -15.7670   19.9880 N   0  0  0  0  0  0  0  0  0  0  0  0
  -26.9490  -16.4950   20.0510 H   0  0  0  0  0  0  0  0  0  0  0  0
  -28.4390  -16.0110   19.4020 H   0  0  0  0  0  0  0  0  0  0  0  0
  1  2  1  0
  1 49  1  0
  2  4  1  0
  2  3  1  0
  5  6  1  0
  5  2  1  0
  7  8  1  0
  7  6  1  0
  8 10  1  0
  9 20  2  0
 10 15  1  0
 11 19  1  0
 11 21  1  0
 12 18  1  0
 12 14  1  0
 13 19  1  0
 14 13  1  0
 15 14  2  0
 16 17  1  0
 16 10  2  0
 17 12  2  0
 18 11  1  0
 19  9  1  0
 21 23  2  0
 22 21  1  0
 24 22  1  0
 25 34  2  0
 25 30  1  0
 26 22  1  0
 26 30  1  0
 27 26  1  0
 28 29  1  0
 28 27  1  0
 29 25  1  0
 30 31  2  0
 31 32  1  0
 33 32  2  0
 34 33  1  0
 35  9  1  0
 35 36  1  0
 35 45  1  0
 36 39  1  0
 37 41  1  0
 37 36  1  0
 38 37  2  0
 41 40  1  0
 43 41  1  0
 43 44  1  0
 43 42  1  0
 45 48  1  1
 45 46  1  0
 47 45  1  0
 50 51  2  0
 50 52  1  0
 51 53  1  0
 52 54  2  0
 53 49  1  0
 53 55  2  0
 54 57  1  0
 54 55  1  0
 55 56  1  0
 58 66  1  0
 58 64  1  0
 59 64  1  0
 60 61  1  0
 60 59  1  0
 62 61  1  0
 62 71  1  0
 62 63  1  0
 64 63  1  0
 65 58  2  0
 66 57  1  0
 67 66  1  0
 68 69  2  0
 69 88  1  0
 70 69  1  0
 70 73  1  0
 71 72  1  0
 71 68  1  0
 72 70  2  0
 73 74  1  0
 74 75  2  0
 76 79  1  0
 76 75  1  0
 77 76  2  0
 78 77  1  0
 78 73  2  0
 79 80  1  0
 80 85  2  0
 80 81  1  0
 81 82  2  0
 82 83  1  0
 83 87  1  0
 84 83  2  0
 85 84  1  0
 86 85  1  0
 88 89  1  0
 89 92  1  0
 89 91  1  0
 90 88  2  0
 93 94  1  0
 93 68  1  0
 95 93  1  0
M  ISO  4   7 101   8 101  58 100  66 100
M  END
>  <TORSDO>  (79) 
F 23

>  <SCORE>  (79) 
-9.630

>  <name>  (79) 
80

>  <ligand_id>  (79) 
80

>  <original_smiles>  (79) 
[H]c1c([H])c([H])c2c(c1[H])C([H])([H])C([H])([H])C([H])([H])C2([H])N([H])C(=O)C1([H])N(C(=O)C([H])(N([H])C(=O)C([H])(N([H])C([H])([H])[H])C([H])([H])[H])C(C([H])([H])[H])(C([H])([H])[H])C([H])([H])[H])C([H])([H])c2c([H])c(OC([H])([H])C([H])([H])C([H])([H])[N+]([H])([H])C([H])([H])C([H])([H])c3c([H])c([H])c([H])c(C([H])([H])N([H])C(=O)N4C([H])([H])C([H])([H])C([H])([H])C([H])(n5nc(-c6c([H])c([H])c(Oc7c([H])c([H])c(F)c([H])c7F)c([H])c6[H])c(C(=O)N([H])[H])c5N([H])[H])C4([H])[H])c3C([H])([H])[H])c([H])c([H])c2C1([H])[H]

>  <smiles>  (79) 
[H]c1c([H])c([H])c2c(c1[H])C([H])([H])C([H])([H])C([H])([H])C2([H])N([H])C(=O)C1([H])N(C(=O)C([H])(N([H])C(=O)C([H])(N([H])C([H])([H])[H])C([H])([H])[H])C(C([H])([H])[H])(C([H])([H])[H])C([H])([H])[H])C([H])([H])c2c([H])c(OC([H])([H])C([H])([H])C([H])([H])[N+]([H])([H])C([H])([H])C([H])([H])c3c([H])c([H])c([H])c(C([H])([H])N([H])C(=O)N4C([H])([H])C([H])([H])C([H])([H])C([H])(n5nc(-c6c([H])c([H])c(Oc7c([H])c([H])c(F)c([H])c7F)c([H])c6[H])c(C(=O)N([H])[H])c5N([H])[H])C4([H])[H])c3C([H])([H])[H])c([H])c([H])c2C1([H])[H]

$$$$
81:0:0
     RDKit          3D

 96105  0  0  1  0  0  0  0  0999 V2000
  -27.9010  -20.4330   20.6090 C   0  0  0  0  0  3  0  0  0  0  0  0
  -30.2840  -20.6360   20.3560 C   0  0  0  0  0  3  0  0  0  0  0  0
  -27.7540  -21.8360   20.4450 C   0  0  0  0  0  3  0  0  0  0  0  0
  -30.1370  -22.0520   20.2010 C   0  0  0  0  0  3  0  0  0  0  0  0
  -29.1560  -19.7840   20.5080 C   0  0  0  0  0  0  0  0  0  0  0  0
  -28.8580  -22.6830   20.1800 C   0  0  0  0  0  0  0  0  0  0  0  0
  -30.7460  -14.7770   20.6180 C   0  0  0  0  0  0  0  0  0  0  0  0
  -30.5470  -12.5240   19.6120 C   0  0  0  0  0  2  0  0  0  0  0  0
  -29.6600  -12.6270   18.3540 C   0  0  0  0  0  2  0  0  0  0  0  0
  -28.1680  -12.4740   18.7260 C   0  0  0  0  0  2  0  0  0  0  0  0
  -27.7520  -13.3530   19.9370 C   0  0  0  0  0  3  0  0  0  0  0  0
  -28.7750  -13.2650   21.0910 C   0  0  0  0  0  2  0  0  0  0  0  0
  -30.0990  -13.5740   20.5400 N   0  0  0  0  0  0  0  0  0  0  0  0
  -31.9700  -14.8600   20.4870 O   0  0  0  0  0  0  0  0  0  0  0  0
  -30.0230  -17.2000   21.1500 C   0  0  0  0  0  2  0  0  0  0  0  0
  -29.7360  -16.2820   18.9960 C   0  0  0  0  0  2  0  0  0  0  0  0
  -29.1880  -18.2230   20.3080 C   0  0  0  0  0  3  0  0  0  0  0  0
  -29.5870  -17.8100   18.9040 C   0  0  0  0  0  3  0  0  0  0  0  0
  -28.6070  -18.2790   17.8170 C   0  0  0  0  0  1  0  0  0  0  0  0
  -29.9680  -15.8950   20.4070 N   0  0  0  0  0  0  0  0  0  0  0  0
  -25.3410  -13.9660   20.5590 C   0  0  0  0  0  0  0  0  0  0  0  0
  -24.2580  -13.1980   20.8840 C   0  0  0  0  0  0  0  0  0  0  0  0
  -24.7220  -11.8460   20.8880 C   0  0  0  0  0  0  0  0  0  0  0  0
  -26.3940  -13.0800   20.3780 N   0  0  0  0  0  0  0  0  0  0  0  0
  -26.0250  -11.8020   20.6430 N   0  0  0  0  0  0  0  0  0  0  0  0
  -23.9930  -10.5870   21.0580 C   0  0  0  0  0  0  0  0  0  0  0  0
  -24.3790   -9.6350   22.0280 C   0  0  0  0  0  3  0  0  0  0  0  0
  -23.6490   -8.4380   22.1860 C   0  0  0  0  0  3  0  0  0  0  0  0
  -22.5190   -8.1840   21.3730 C   0  0  0  0  0  0  0  0  0  0  0  0
  -22.1540   -9.1230   20.3920 C   0  0  0  0  0  3  0  0  0  0  0  0
  -22.8860  -10.3120   20.2310 C   0  0  0  0  0  3  0  0  0  0  0  0
  -21.7650   -7.0380   21.4380 O   0  0  0  0  0  0  0  0  0  0  0  0
  -21.6440   -6.3210   22.6030 C   0  0  0  0  0  0  0  0  0  0  0  0
  -21.0940   -6.8890   23.7730 C   0  0  0  0  0  3  0  0  0  0  0  0
  -20.9210   -6.0960   24.9240 C   0  0  0  0  0  3  0  0  0  0  0  0
  -21.2890   -4.7370   24.9060 C   0  0  0  0  0  0  0  0  0  0  0  0
  -21.8350   -4.1710   23.7400 C   0  0  0  0  0  3  0  0  0  0  0  0
  -22.0070   -4.9600   22.5910 C   0  0  0  0  0  0  0  0  0  0  0  0
  -22.5100   -4.4030   21.4620 F   0  0  0  0  0  0  0  0  0  0  0  0
  -21.1170   -3.9720   26.0100 F   0  0  0  0  0  0  0  0  0  0  0  0
  -22.8480  -13.6760   21.0800 C   0  0  0  0  0  0  0  0  0  0  0  0
  -22.0760  -12.9920   21.9180 N   0  0  0  0  0  0  0  0  0  0  0  0
  -22.4360  -14.6940   20.5220 O   0  0  0  0  0  0  0  0  0  0  0  0
  -22.4130  -12.1720   22.3980 H   0  0  0  0  0  0  0  0  0  0  0  0
  -21.1270  -13.2930   22.0830 H   0  0  0  0  0  0  0  0  0  0  0  0
  -25.5160  -15.3350   20.3790 N   0  0  0  0  0  0  0  0  0  0  0  0
  -24.7470  -15.9910   20.4550 H   0  0  0  0  0  0  0  0  0  0  0  0
  -26.3930  -15.7740   20.1310 H   0  0  0  0  0  0  0  0  0  0  0  0
  -28.6090  -24.1730   19.7140 C   0  0  0  0  0  3  0  0  0  0  0  0
  -29.4520  -24.5400   18.4640 C   0  0  0  0  0  2  0  0  0  0  0  0
  -29.1990  -23.6410   17.3170 N   0  0  0  0  0  4  0  0  0  0  0  0
  -29.4640  -22.6990   17.5390 H   0  0  0  0  0  0  0  0  0  0  0  0
  -29.7360  -23.9360   16.5190 H   0  0  0  0  0  0  0  0  0  0  0  0
  -28.2300  -23.6470   17.0540 H   0  0  0  0  0  0  0  0  0  0  0  0
  -28.6330  -25.3250   20.8010 C   0  0  0  0  0  2  0  0  0  0  0  0
  -28.5980  -26.7340   20.3720 O   0  0  0  0  0  0  0  0  0  0  0  0
  -24.6370  -31.9660   23.3330 C   0  0  0  0  0  0  0  0  0  0  0  0
  -27.4120  -27.4680   20.3790 C   0  0  0  0  0  0  0  0  0  0  0  0
  -23.4930  -30.5280   21.6800 C   0  0  0  0  0  3  0  0  0  0  0  0
  -25.0000  -28.9890   20.3050 C   0  0  0  0  0  0  0  0  0  0  0  0
  -26.0230  -30.9060   21.5400 C   0  0  0  0  0  2  0  0  0  0  0  0
  -26.1430  -29.5250   20.9130 C   0  0  0  0  0  0  0  0  0  0  0  0
  -27.3520  -28.7780   20.9340 C   0  0  0  0  0  3  0  0  0  0  0  0
  -26.2470  -26.9550   19.7770 C   0  0  0  0  0  3  0  0  0  0  0  0
  -25.0520  -27.7050   19.7300 C   0  0  0  0  0  3  0  0  0  0  0  0
  -23.7480  -29.8420   20.3110 C   0  0  0  0  0  2  0  0  0  0  0  0
  -24.7350  -31.1520   22.2410 N   0  0  0  0  0  0  0  0  0  0  0  0
  -23.5390  -32.2250   23.8460 O   0  0  0  0  0  0  0  0  0  0  0  0
  -22.8320  -29.5090   22.6360 C   0  0  0  0  0  0  0  0  0  0  0  0
  -21.5140  -29.3020   22.4820 N   0  0  0  0  0  0  0  0  0  0  0  0
  -23.5040  -28.9050   23.4750 O   0  0  0  0  0  0  0  0  0  0  0  0
  -21.0280  -29.8370   21.7750 H   0  0  0  0  0  0  0  0  0  0  0  0
  -18.1460  -28.0720   22.9530 C   0  0  0  0  0  0  0  0  0  0  0  0
  -20.6980  -28.3570   23.2480 C   0  0  0  0  0  3  0  0  0  0  0  0
  -20.8220  -26.9280   22.6720 C   0  0  0  0  0  2  0  0  0  0  0  0
  -19.7340  -26.5930   21.6480 C   0  0  0  0  0  2  0  0  0  0  0  0
  -18.3430  -26.7250   22.2760 C   0  0  0  0  0  2  0  0  0  0  0  0
  -19.2530  -28.8460   23.3930 C   0  0  0  0  0  0  0  0  0  0  0  0
  -19.0160  -30.1050   23.9830 C   0  0  0  0  0  3  0  0  0  0  0  0
  -17.7050  -30.5920   24.1430 C   0  0  0  0  0  3  0  0  0  0  0  0
  -16.6130  -29.8190   23.7130 C   0  0  0  0  0  3  0  0  0  0  0  0
  -16.8340  -28.5610   23.1240 C   0  0  0  0  0  3  0  0  0  0  0  0
  -25.8960  -32.6260   23.9760 C   0  0  0  0  0  3  0  0  0  0  0  0
  -26.3840  -31.8950   25.2870 C   0  0  1  0  0  0  0  0  0  0  0  0
  -25.2590  -31.6620   26.3220 C   0  0  0  0  0  1  0  0  0  0  0  0
  -27.0110  -30.5240   24.9500 C   0  0  0  0  0  1  0  0  0  0  0  0
  -27.4930  -32.7300   25.9700 C   0  0  0  0  0  1  0  0  0  0  0  0
  -25.5680  -34.0300   24.2580 N   0  0  0  0  0  0  0  0  0  0  0  0
  -25.9140  -35.0650   23.4800 C   0  0  0  0  0  0  0  0  0  0  0  0
  -26.6160  -34.9410   22.4710 O   0  0  0  0  0  0  0  0  0  0  0  0
  -24.9560  -34.2060   25.0410 H   0  0  0  0  0  0  0  0  0  0  0  0
  -24.1890  -36.8360   23.0160 C   0  0  0  0  0  1  0  0  0  0  0  0
  -25.4020  -36.4610   23.8830 C   0  0  0  0  0  3  0  0  0  0  0  0
  -27.4900  -37.3860   24.7840 C   0  0  0  0  0  1  0  0  0  0  0  0
  -26.4320  -37.5180   23.7850 N   0  0  0  0  0  0  0  0  0  0  0  0
  -26.0130  -38.4380   23.8860 H   0  0  0  0  0  0  0  0  0  0  0  0
  2  5  2  0
  3  1  2  0
  4  2  1  0
  5  1  1  0
  6  4  2  0
  6  3  1  0
  8 13  1  0
  9 10  1  0
  9  8  1  0
 11 10  1  0
 11 24  1  0
 11 12  1  0
 13  7  1  0
 13 12  1  0
 14  7  2  0
 16 20  1  0
 17  5  1  0
 17 15  1  0
 18 19  1  0
 18 16  1  0
 18 17  1  0
 20  7  1  0
 20 15  1  0
 21 22  2  0
 22 23  1  0
 22 41  1  0
 23 26  1  0
 24 21  1  0
 24 25  1  0
 25 23  2  0
 26 27  1  0
 27 28  2  0
 29 32  1  0
 29 28  1  0
 30 29  2  0
 31 30  1  0
 31 26  2  0
 32 33  1  0
 33 34  1  0
 34 35  2  0
 36 35  1  0
 36 40  1  0
 37 36  2  0
 38 33  2  0
 38 37  1  0
 39 38  1  0
 41 42  1  0
 42 45  1  0
 42 44  1  0
 43 41  2  0
 46 47  1  0
 46 21  1  0
 48 46  1  0
 49 50  1  0
 49  6  1  0
 49 55  1  0
 51 52  1  0
 51 50  1  0
 53 51  1  0
 54 51  1  0
 56 58  1  0
 56 55  1  0
 57 68  2  0
 58 63  1  0
 59 67  1  0
 59 69  1  0
 60 66  1  0
 60 62  1  0
 61 67  1  0
 62 63  2  0
 62 61  1  0
 64 58  2  0
 65 64  1  0
 65 60  2  0
 66 59  1  0
 67 57  1  0
 69 71  2  0
 70 69  1  0
 72 70  1  0
 73 82  2  0
 73 78  1  0
 74 70  1  0
 74 78  1  0
 75 74  1  0
 76 77  1  0
 76 75  1  0
 77 73  1  0
 78 79  2  0
 79 80  1  0
 81 80  2  0
 82 81  1  0
 83 57  1  0
 83 88  1  0
 83 84  1  0
 84 87  1  1
 84 85  1  0
 86 84  1  0
 88 91  1  0
 89 93  1  0
 89 88  1  0
 90 89  2  0
 93 92  1  0
 95 93  1  0
 95 96  1  0
 95 94  1  0
M  ISO  4   7 100  20 100  55 101  56 101
M  END
>  <TORSDO>  (80) 
F 20

>  <SCORE>  (80) 
-14.058

>  <name>  (80) 
81

>  <ligand_id>  (80) 
81

>  <original_smiles>  (80) 
[H]c1c([H])c([H])c2c(c1[H])C([H])([H])C([H])([H])C([H])([H])C2([H])N([H])C(=O)C1([H])N(C(=O)C([H])(N([H])C(=O)C([H])(N([H])C([H])([H])[H])C([H])([H])[H])C(C([H])([H])[H])(C([H])([H])[H])C([H])([H])[H])C([H])([H])c2c([H])c(OC([H])([H])C([H])(c3c([H])c([H])c(C4([H])C([H])([H])N(C(=O)N5C([H])([H])C([H])([H])C([H])([H])C([H])(n6nc(-c7c([H])c([H])c(Oc8c([H])c([H])c(F)c([H])c8F)c([H])c7[H])c(C(=O)N([H])[H])c6N([H])[H])C5([H])[H])C([H])([H])C4([H])C([H])([H])[H])c([H])c3[H])C([H])([H])[N+]([H])([H])[H])c([H])c([H])c2C1([H])[H]

>  <smiles>  (80) 
[H]c1c([H])c([H])c2c(c1[H])C([H])([H])C([H])([H])C([H])([H])C2([H])N([H])C(=O)C1([H])N(C(=O)C([H])(N([H])C(=O)C([H])(N([H])C([H])([H])[H])C([H])([H])[H])C(C([H])([H])[H])(C([H])([H])[H])C([H])([H])[H])C([H])([H])c2c([H])c(OC([H])([H])C([H])(c3c([H])c([H])c(C4([H])C([H])([H])N(C(=O)N5C([H])([H])C([H])([H])C([H])([H])C([H])(n6nc(-c7c([H])c([H])c(Oc8c([H])c([H])c(F)c([H])c8F)c([H])c7[H])c(C(=O)N([H])[H])c6N([H])[H])C5([H])[H])C([H])([H])C4([H])C([H])([H])[H])c([H])c3[H])C([H])([H])[N+]([H])([H])[H])c([H])c([H])c2C1([H])[H]

$$$$
82:0:0
     RDKit          3D

 92101  0  0  1  0  0  0  0  0999 V2000
  -31.3130  -20.2290   21.7980 C   0  0  0  0  0  0  0  0  0  0  0  0
  -29.2240  -20.7720   20.7270 C   0  0  0  0  0  0  0  0  0  0  0  0
  -30.7180  -18.9580   23.9280 C   0  0  0  0  0  2  0  0  0  0  0  0
  -31.7070  -19.2300   22.8190 C   0  0  0  0  0  3  0  0  0  0  0  0
  -30.7580  -18.0850   22.6940 C   0  0  0  0  0  3  0  0  0  0  0  0
  -30.0050  -18.3420   21.4040 C   0  0  0  0  0  3  0  0  0  0  0  0
  -30.1780  -19.8500   21.1630 N   0  0  0  0  0  0  0  0  0  0  0  0
  -31.9600  -21.2630   21.6040 O   0  0  0  0  0  0  0  0  0  0  0  0
  -28.3250  -20.3970   19.9680 O   0  0  0  0  0  0  0  0  0  0  0  0
  -29.1220  -22.2880   21.2730 C   0  0  0  0  0  3  0  0  0  0  0  0
  -28.5520  -23.5210   20.3970 C   0  0  0  0  0  3  0  0  0  0  0  0
  -28.2610  -24.9070   21.1700 C   0  0  0  0  0  2  0  0  0  0  0  0
  -28.4460  -26.2540   20.5550 O   0  0  0  0  0  0  0  0  0  0  0  0
  -24.7070  -31.8210   23.3420 C   0  0  0  0  0  0  0  0  0  0  0  0
  -27.3490  -27.1290   20.5040 C   0  0  0  0  0  0  0  0  0  0  0  0
  -23.5400  -30.3910   21.7020 C   0  0  0  0  0  3  0  0  0  0  0  0
  -25.0140  -28.7770   20.3680 C   0  0  0  0  0  0  0  0  0  0  0  0
  -26.0890  -30.6690   21.5970 C   0  0  0  0  0  2  0  0  0  0  0  0
  -26.1710  -29.2700   20.9890 C   0  0  0  0  0  0  0  0  0  0  0  0
  -27.3480  -28.4600   21.0390 C   0  0  0  0  0  3  0  0  0  0  0  0
  -26.1740  -26.6900   19.8630 C   0  0  0  0  0  3  0  0  0  0  0  0
  -25.0190  -27.4940   19.7950 C   0  0  0  0  0  3  0  0  0  0  0  0
  -23.7900  -29.6720   20.3510 C   0  0  0  0  0  2  0  0  0  0  0  0
  -24.7960  -30.9800   22.2700 N   0  0  0  0  0  0  0  0  0  0  0  0
  -23.6110  -32.1270   23.8350 O   0  0  0  0  0  0  0  0  0  0  0  0
  -22.8330  -29.4110   22.6700 C   0  0  0  0  0  0  0  0  0  0  0  0
  -21.5150  -29.2240   22.4840 N   0  0  0  0  0  0  0  0  0  0  0  0
  -23.4710  -28.8190   23.5450 O   0  0  0  0  0  0  0  0  0  0  0  0
  -21.0630  -29.7510   21.7510 H   0  0  0  0  0  0  0  0  0  0  0  0
  -18.1240  -28.0140   22.8390 C   0  0  0  0  0  0  0  0  0  0  0  0
  -20.6590  -28.3140   23.2470 C   0  0  0  0  0  3  0  0  0  0  0  0
  -20.8060  -26.8580   22.7460 C   0  0  0  0  0  2  0  0  0  0  0  0
  -19.7680  -26.4770   21.6850 C   0  0  0  0  0  2  0  0  0  0  0  0
  -18.3490  -26.6370   22.2400 C   0  0  0  0  0  2  0  0  0  0  0  0
  -19.2090  -28.8080   23.2970 C   0  0  0  0  0  0  0  0  0  0  0  0
  -18.9450  -30.0940   23.8150 C   0  0  0  0  0  3  0  0  0  0  0  0
  -17.6280  -30.5880   23.8820 C   0  0  0  0  0  3  0  0  0  0  0  0
  -16.5560  -29.7920   23.4420 C   0  0  0  0  0  3  0  0  0  0  0  0
  -16.8040  -28.5070   22.9250 C   0  0  0  0  0  3  0  0  0  0  0  0
  -25.9770  -32.4550   23.9890 C   0  0  0  0  0  3  0  0  0  0  0  0
  -26.4520  -31.7000   25.2910 C   0  0  1  0  0  0  0  0  0  0  0  0
  -25.3210  -31.4630   26.3200 C   0  0  0  0  0  1  0  0  0  0  0  0
  -27.0570  -30.3230   24.9370 C   0  0  0  0  0  1  0  0  0  0  0  0
  -27.5750  -32.5070   25.9820 C   0  0  0  0  0  1  0  0  0  0  0  0
  -25.6720  -33.8610   24.2880 N   0  0  0  0  0  0  0  0  0  0  0  0
  -26.0170  -34.8970   23.5130 C   0  0  0  0  0  0  0  0  0  0  0  0
  -26.6950  -34.7700   22.4920 O   0  0  0  0  0  0  0  0  0  0  0  0
  -25.0650  -34.0320   25.0770 H   0  0  0  0  0  0  0  0  0  0  0  0
  -24.2930  -36.6860   23.1170 C   0  0  0  0  0  1  0  0  0  0  0  0
  -25.5340  -36.2980   23.9390 C   0  0  0  0  0  3  0  0  0  0  0  0
  -27.6670  -37.2010   24.7560 C   0  0  0  0  0  1  0  0  0  0  0  0
  -26.5700  -37.3440   23.8020 N   0  0  0  0  0  0  0  0  0  0  0  0
  -26.1670  -38.2700   23.9170 H   0  0  0  0  0  0  0  0  0  0  0  0
  -30.5850  -17.2770   20.3420 C   0  0  0  0  0  2  0  0  0  0  0  0
  -30.9650  -14.6710   20.2230 C   0  0  0  0  0  0  0  0  0  0  0  0
  -30.6320  -12.4890   19.0690 C   0  0  0  0  0  2  0  0  0  0  0  0
  -29.6450  -12.6960   17.9010 C   0  0  0  0  0  2  0  0  0  0  0  0
  -28.1900  -12.5360   18.3840 C   0  0  0  0  0  2  0  0  0  0  0  0
  -27.9020  -13.3440   19.6760 C   0  0  0  0  0  3  0  0  0  0  0  0
  -29.0040  -13.1410   20.7390 C   0  0  0  0  0  2  0  0  0  0  0  0
  -30.2920  -13.4780   20.1160 N   0  0  0  0  0  0  0  0  0  0  0  0
  -32.1320  -14.7680   19.8340 O   0  0  0  0  0  0  0  0  0  0  0  0
  -30.2390  -15.8000   20.5470 N   0  0  0  0  0  0  0  0  0  0  0  0
  -29.2880  -15.6190   20.8330 H   0  0  0  0  0  0  0  0  0  0  0  0
  -25.5520  -13.9520   20.5120 C   0  0  0  0  0  0  0  0  0  0  0  0
  -24.4870  -13.1840   20.8940 C   0  0  0  0  0  0  0  0  0  0  0  0
  -24.9270  -11.8260   20.8070 C   0  0  0  0  0  0  0  0  0  0  0  0
  -26.5720  -13.0640   20.2090 N   0  0  0  0  0  0  0  0  0  0  0  0
  -26.2060  -11.7790   20.4490 N   0  0  0  0  0  0  0  0  0  0  0  0
  -24.1890  -10.5690   20.9820 C   0  0  0  0  0  0  0  0  0  0  0  0
  -24.5990   -9.5930   21.9170 C   0  0  0  0  0  3  0  0  0  0  0  0
  -23.8590   -8.4020   22.0820 C   0  0  0  0  0  3  0  0  0  0  0  0
  -22.6950   -8.1770   21.3090 C   0  0  0  0  0  0  0  0  0  0  0  0
  -22.3030   -9.1400   20.3610 C   0  0  0  0  0  3  0  0  0  0  0  0
  -23.0440  -10.3230   20.1950 C   0  0  0  0  0  3  0  0  0  0  0  0
  -21.9300   -7.0380   21.3810 O   0  0  0  0  0  0  0  0  0  0  0  0
  -21.8000   -6.3300   22.5480 C   0  0  0  0  0  0  0  0  0  0  0  0
  -21.2750   -6.9160   23.7200 C   0  0  0  0  0  3  0  0  0  0  0  0
  -21.0950   -6.1350   24.8790 C   0  0  0  0  0  3  0  0  0  0  0  0
  -21.4300   -4.7680   24.8650 C   0  0  0  0  0  0  0  0  0  0  0  0
  -21.9490   -4.1810   23.6970 C   0  0  0  0  0  3  0  0  0  0  0  0
  -22.1300   -4.9600   22.5410 C   0  0  0  0  0  0  0  0  0  0  0  0
  -22.6100   -4.3850   21.4120 F   0  0  0  0  0  0  0  0  0  0  0  0
  -21.2510   -4.0140   25.9750 F   0  0  0  0  0  0  0  0  0  0  0  0
  -23.1080  -13.6710   21.2280 C   0  0  0  0  0  0  0  0  0  0  0  0
  -22.4020  -12.9630   22.1030 N   0  0  0  0  0  0  0  0  0  0  0  0
  -22.6640  -14.7130   20.7470 O   0  0  0  0  0  0  0  0  0  0  0  0
  -22.7730  -12.1190   22.5130 H   0  0  0  0  0  0  0  0  0  0  0  0
  -21.4730  -13.2670   22.3650 H   0  0  0  0  0  0  0  0  0  0  0  0
  -25.7340  -15.3240   20.3680 N   0  0  0  0  0  0  0  0  0  0  0  0
  -24.9830  -15.9890   20.5190 H   0  0  0  0  0  0  0  0  0  0  0  0
  -26.5720  -15.7550   20.0010 H   0  0  0  0  0  0  0  0  0  0  0  0
  1  4  1  0
  2  7  1  0
  2 10  1  0
  4  3  1  0
  5  4  1  0
  5  3  1  0
  6 54  1  0
  6  5  1  0
  7  6  1  0
  7  1  1  0
  8  1  2  0
  9  2  2  0
 11 12  1  0
 11 10  2  0
 13 12  1  0
 14 25  2  0
 15 13  1  0
 15 20  1  0
 16 24  1  0
 16 26  1  0
 17 19  1  0
 18 24  1  0
 19 20  2  0
 19 18  1  0
 21 15  2  0
 22 21  1  0
 22 17  2  0
 23 17  1  0
 23 16  1  0
 24 14  1  0
 26 28  2  0
 27 26  1  0
 29 27  1  0
 30 39  2  0
 30 35  1  0
 31 27  1  0
 31 35  1  0
 32 31  1  0
 33 34  1  0
 33 32  1  0
 34 30  1  0
 35 36  2  0
 36 37  1  0
 38 37  2  0
 39 38  1  0
 40 14  1  0
 40 45  1  0
 40 41  1  0
 41 44  1  1
 41 42  1  0
 43 41  1  0
 45 48  1  0
 46 50  1  0
 46 45  1  0
 47 46  2  0
 50 49  1  0
 52 53  1  0
 52 50  1  0
 52 51  1  0
 54 63  1  0
 55 63  1  0
 56 61  1  0
 57 58  1  0
 57 56  1  0
 59 58  1  0
 59 68  1  0
 59 60  1  0
 61 55  1  0
 61 60  1  0
 62 55  2  0
 63 64  1  0
 65 66  2  0
 66 85  1  0
 67 66  1  0
 67 70  1  0
 68 69  1  0
 68 65  1  0
 69 67  2  0
 70 71  1  0
 71 72  2  0
 73 76  1  0
 73 72  1  0
 74 73  2  0
 75 74  1  0
 75 70  2  0
 76 77  1  0
 77 78  1  0
 78 79  2  0
 80 79  1  0
 80 84  1  0
 81 80  2  0
 82 77  2  0
 82 81  1  0
 83 82  1  0
 85 86  1  0
 86 89  1  0
 86 88  1  0
 87 85  2  0
 90 65  1  0
 90 91  1  0
 92 90  1  0
M  ISO  4  12 101  13 101  55 100  63 100
M  END
>  <TORSDO>  (81) 
F 20

>  <SCORE>  (81) 
-12.922

>  <name>  (81) 
82

>  <ligand_id>  (81) 
82

>  <original_smiles>  (81) 
[H]c1c([H])c([H])c2c(c1[H])C([H])([H])C([H])([H])C([H])([H])C2([H])N([H])C(=O)C1([H])N(C(=O)C([H])(N([H])C(=O)C([H])(N([H])C([H])([H])[H])C([H])([H])[H])C(C([H])([H])[H])(C([H])([H])[H])C([H])([H])[H])C([H])([H])c2c([H])c(OC([H])([H])C([H])([H])C([H])([H])C(=O)N3C(=O)C4([H])C([H])([H])C4([H])C3([H])C([H])([H])N([H])C(=O)N3C([H])([H])C([H])([H])C([H])([H])C([H])(n4nc(-c5c([H])c([H])c(Oc6c([H])c([H])c(F)c([H])c6F)c([H])c5[H])c(C(=O)N([H])[H])c4N([H])[H])C3([H])[H])c([H])c([H])c2C1([H])[H]

>  <smiles>  (81) 
[H]c1c([H])c([H])c2c(c1[H])C([H])([H])C([H])([H])C([H])([H])C2([H])N([H])C(=O)C1([H])N(C(=O)C([H])(N([H])C(=O)C([H])(N([H])C([H])([H])[H])C([H])([H])[H])C(C([H])([H])[H])(C([H])([H])[H])C([H])([H])[H])C([H])([H])c2c([H])c(OC([H])([H])C([H])([H])C([H])([H])C(=O)N3C(=O)C4([H])C([H])([H])C4([H])C3([H])C([H])([H])N([H])C(=O)N3C([H])([H])C([H])([H])C([H])([H])C([H])(n4nc(-c5c([H])c([H])c(Oc6c([H])c([H])c(F)c([H])c6F)c([H])c5[H])c(C(=O)N([H])[H])c4N([H])[H])C3([H])[H])c([H])c([H])c2C1([H])[H]

$$$$
83:0:0
     RDKit          3D

 90 98  0  0  1  0  0  0  0  0999 V2000
  -30.1350  -19.9880   20.9580 C   0  0  0  0  0  3  0  0  0  0  0  0
  -30.3570  -18.5540   21.1190 C   0  0  0  0  0  3  0  0  0  0  0  0
  -28.5120  -19.5190   19.3110 C   0  0  0  0  0  3  0  0  0  0  0  0
  -29.1750  -20.5510   20.0500 C   0  0  0  0  0  0  0  0  0  0  0  0
  -28.7360  -18.0990   19.4490 C   0  0  0  0  0  0  0  0  0  0  0  0
  -29.6700  -17.5300   20.3750 C   0  0  0  0  0  0  0  0  0  0  0  0
  -27.9190  -17.1850   18.5500 C   0  0  0  0  0  1  0  0  0  0  0  0
  -30.5270  -14.9380   20.4280 C   0  0  0  0  0  0  0  0  0  0  0  0
  -30.4290  -12.6070   19.4680 C   0  0  0  0  0  2  0  0  0  0  0  0
  -29.5020  -12.6170   18.2300 C   0  0  0  0  0  2  0  0  0  0  0  0
  -28.0300  -12.4120   18.6430 C   0  0  0  0  0  2  0  0  0  0  0  0
  -27.6210  -13.3100   19.8400 C   0  0  0  0  0  3  0  0  0  0  0  0
  -28.6690  -13.2700   20.9740 C   0  0  0  0  0  2  0  0  0  0  0  0
  -29.9590  -13.6710   20.3920 N   0  0  0  0  0  0  0  0  0  0  0  0
  -31.7160  -15.0620   20.1150 O   0  0  0  0  0  0  0  0  0  0  0  0
  -29.6810  -16.0370   20.6630 N   0  0  0  0  0  0  0  0  0  0  0  0
  -28.7600  -15.6950   20.8890 H   0  0  0  0  0  0  0  0  0  0  0  0
  -25.2230  -13.8840   20.5450 C   0  0  0  0  0  0  0  0  0  0  0  0
  -24.1560  -13.1060   20.9000 C   0  0  0  0  0  0  0  0  0  0  0  0
  -24.6280  -11.7580   20.8770 C   0  0  0  0  0  0  0  0  0  0  0  0
  -26.2740  -13.0110   20.3190 N   0  0  0  0  0  0  0  0  0  0  0  0
  -25.9220  -11.7260   20.5830 N   0  0  0  0  0  0  0  0  0  0  0  0
  -23.9040  -10.4940   21.0620 C   0  0  0  0  0  0  0  0  0  0  0  0
  -24.3310   -9.5280   21.9990 C   0  0  0  0  0  3  0  0  0  0  0  0
  -23.6070   -8.3290   22.1710 C   0  0  0  0  0  3  0  0  0  0  0  0
  -22.4410   -8.0860   21.4060 C   0  0  0  0  0  0  0  0  0  0  0  0
  -22.0340   -9.0420   20.4580 C   0  0  0  0  0  3  0  0  0  0  0  0
  -22.7580  -10.2330   20.2840 C   0  0  0  0  0  3  0  0  0  0  0  0
  -21.6880   -6.9400   21.4880 O   0  0  0  0  0  0  0  0  0  0  0  0
  -21.6330   -6.1970   22.6390 C   0  0  0  0  0  0  0  0  0  0  0  0
  -21.1890   -6.7470   23.8620 C   0  0  0  0  0  3  0  0  0  0  0  0
  -21.0810   -5.9290   25.0030 C   0  0  0  0  0  3  0  0  0  0  0  0
  -21.4070   -4.5610   24.9250 C   0  0  0  0  0  0  0  0  0  0  0  0
  -21.8450   -4.0110   23.7070 C   0  0  0  0  0  3  0  0  0  0  0  0
  -21.9540   -4.8260   22.5670 C   0  0  0  0  0  0  0  0  0  0  0  0
  -22.3550   -4.2850   21.3920 F   0  0  0  0  0  0  0  0  0  0  0  0
  -21.2970   -3.7730   26.0200 F   0  0  0  0  0  0  0  0  0  0  0  0
  -22.7530  -13.5790   21.1500 C   0  0  0  0  0  0  0  0  0  0  0  0
  -22.0150  -12.8810   22.0040 N   0  0  0  0  0  0  0  0  0  0  0  0
  -22.3220  -14.6040   20.6240 O   0  0  0  0  0  0  0  0  0  0  0  0
  -22.3760  -12.0520   22.4540 H   0  0  0  0  0  0  0  0  0  0  0  0
  -21.0730  -13.1800   22.2150 H   0  0  0  0  0  0  0  0  0  0  0  0
  -25.3780  -15.2560   20.3730 N   0  0  0  0  0  0  0  0  0  0  0  0
  -24.6010  -15.8990   20.4830 H   0  0  0  0  0  0  0  0  0  0  0  0
  -26.2270  -15.7080   20.0670 H   0  0  0  0  0  0  0  0  0  0  0  0
  -28.8680  -22.1150   19.6450 C   0  0  0  0  0  2  0  0  0  0  0  0
  -28.8610  -23.5210   20.4790 C   0  0  0  0  0  0  0  0  0  0  0  0
  -29.5070  -23.6130   21.5280 O   0  0  0  0  0  0  0  0  0  0  0  0
  -28.0060  -24.8110   19.9310 C   0  0  0  0  0  2  0  0  0  0  0  0
  -28.2500  -26.2690   20.3720 O   0  0  0  0  0  0  0  0  0  0  0  0
  -24.6240  -31.9410   23.2990 C   0  0  0  0  0  0  0  0  0  0  0  0
  -27.1940  -27.2390   20.2780 C   0  0  0  0  0  0  0  0  0  0  0  0
  -23.4200  -30.5450   21.6620 C   0  0  0  0  0  3  0  0  0  0  0  0
  -24.8650  -28.9690   20.2420 C   0  0  0  0  0  0  0  0  0  0  0  0
  -25.9740  -30.8060   21.5030 C   0  0  0  0  0  2  0  0  0  0  0  0
  -26.0420  -29.4160   20.8550 C   0  0  0  0  0  0  0  0  0  0  0  0
  -27.2050  -28.5640   20.8640 C   0  0  0  0  0  3  0  0  0  0  0  0
  -25.9950  -26.8940   19.6120 C   0  0  0  0  0  3  0  0  0  0  0  0
  -24.8520  -27.7200   19.6060 C   0  0  0  0  0  3  0  0  0  0  0  0
  -23.6390  -29.8650   20.2860 C   0  0  0  0  0  2  0  0  0  0  0  0
  -24.6920  -31.1180   22.2090 N   0  0  0  0  0  0  0  0  0  0  0  0
  -23.5390  -32.2320   23.8260 O   0  0  0  0  0  0  0  0  0  0  0  0
  -22.7370  -29.5420   22.6260 C   0  0  0  0  0  0  0  0  0  0  0  0
  -21.4100  -29.3660   22.4870 N   0  0  0  0  0  0  0  0  0  0  0  0
  -23.4030  -28.9240   23.4610 O   0  0  0  0  0  0  0  0  0  0  0  0
  -20.9310  -29.9180   21.7890 H   0  0  0  0  0  0  0  0  0  0  0  0
  -18.0270  -28.1630   22.9590 C   0  0  0  0  0  0  0  0  0  0  0  0
  -20.5810  -28.4360   23.2570 C   0  0  0  0  0  3  0  0  0  0  0  0
  -20.6940  -26.9980   22.7020 C   0  0  0  0  0  2  0  0  0  0  0  0
  -19.6080  -26.6590   21.6770 C   0  0  0  0  0  2  0  0  0  0  0  0
  -18.2170  -26.8070   22.3000 C   0  0  0  0  0  2  0  0  0  0  0  0
  -19.1370  -28.9350   23.3930 C   0  0  0  0  0  0  0  0  0  0  0  0
  -18.9050  -30.2030   23.9690 C   0  0  0  0  0  3  0  0  0  0  0  0
  -17.5960  -30.7000   24.1140 C   0  0  0  0  0  3  0  0  0  0  0  0
  -16.5000  -29.9250   23.6950 C   0  0  0  0  0  3  0  0  0  0  0  0
  -16.7160  -28.6590   23.1230 C   0  0  0  0  0  3  0  0  0  0  0  0
  -25.9070  -32.5700   23.9260 C   0  0  0  0  0  3  0  0  0  0  0  0
  -26.3970  -31.8150   25.2240 C   0  0  1  0  0  0  0  0  0  0  0  0
  -25.2880  -31.6100   26.2820 C   0  0  0  0  0  1  0  0  0  0  0  0
  -26.9680  -30.4230   24.8680 C   0  0  0  0  0  1  0  0  0  0  0  0
  -27.5510  -32.6070   25.8840 C   0  0  0  0  0  1  0  0  0  0  0  0
  -25.6080  -33.9770   24.2340 N   0  0  0  0  0  0  0  0  0  0  0  0
  -25.9520  -35.0170   23.4620 C   0  0  0  0  0  0  0  0  0  0  0  0
  -26.6210  -34.8930   22.4330 O   0  0  0  0  0  0  0  0  0  0  0  0
  -25.0170  -34.1480   25.0340 H   0  0  0  0  0  0  0  0  0  0  0  0
  -24.2430  -36.8250   23.0850 C   0  0  0  0  0  1  0  0  0  0  0  0
  -25.4800  -36.4180   23.9010 C   0  0  0  0  0  3  0  0  0  0  0  0
  -27.6220  -37.2940   24.7200 C   0  0  0  0  0  1  0  0  0  0  0  0
  -26.5220  -37.4590   23.7720 N   0  0  0  0  0  0  0  0  0  0  0  0
  -26.1260  -38.3850   23.9020 H   0  0  0  0  0  0  0  0  0  0  0  0
  1  2  1  0
  3  5  2  0
  3  4  1  0
  4  1  2  0
  5  6  1  0
  6 16  1  0
  6  2  2  0
  7  5  1  0
  8 16  1  0
  9 14  1  0
 10 11  1  0
 10  9  1  0
 12 11  1  0
 12 21  1  0
 12 13  1  0
 14  8  1  0
 14 13  1  0
 15  8  2  0
 16 17  1  0
 18 19  2  0
 19 38  1  0
 20 19  1  0
 20 23  1  0
 21 18  1  0
 21 22  1  0
 22 20  2  0
 23 24  1  0
 24 25  2  0
 26 29  1  0
 26 25  1  0
 27 26  2  0
 28 27  1  0
 28 23  2  0
 29 30  1  0
 30 31  1  0
 31 32  2  0
 33 32  1  0
 33 37  1  0
 34 33  2  0
 35 30  2  0
 35 34  1  0
 36 35  1  0
 38 39  1  0
 39 42  1  0
 39 41  1  0
 40 38  2  0
 43 44  1  0
 43 18  1  0
 45 43  1  0
 46  4  1  0
 46 47  1  0
 47 48  2  0
 49 50  1  0
 49 47  1  0
 51 62  2  0
 52 50  1  0
 52 57  1  0
 53 61  1  0
 53 63  1  0
 54 60  1  0
 54 56  1  0
 55 61  1  0
 56 57  2  0
 56 55  1  0
 58 52  2  0
 59 58  1  0
 59 54  2  0
 60 53  1  0
 61 51  1  0
 63 65  2  0
 64 63  1  0
 66 64  1  0
 67 76  2  0
 67 72  1  0
 68 64  1  0
 68 72  1  0
 69 68  1  0
 70 71  1  0
 70 69  1  0
 71 67  1  0
 72 73  2  0
 73 74  1  0
 75 74  2  0
 76 75  1  0
 77 51  1  0
 77 82  1  0
 77 78  1  0
 78 81  1  1
 78 79  1  0
 80 78  1  0
 82 85  1  0
 83 87  1  0
 83 82  1  0
 84 83  2  0
 87 86  1  0
 89 87  1  0
 89 90  1  0
 89 88  1  0
M  ISO  4   8 100  16 100  49 101  50 101
M  END
>  <TORSDO>  (82) 
F 19

>  <SCORE>  (82) 
-14.334

>  <name>  (82) 
83

>  <ligand_id>  (82) 
83

>  <original_smiles>  (82) 
[H]c1c([H])c([H])c2c(c1[H])C([H])([H])C([H])([H])C([H])([H])C2([H])N([H])C(=O)C1([H])N(C(=O)C([H])(N([H])C(=O)C([H])(N([H])C([H])([H])[H])C([H])([H])[H])C(C([H])([H])[H])(C([H])([H])[H])C([H])([H])[H])C([H])([H])c2c([H])c(OC([H])([H])C(=O)C([H])([H])c3c([H])c([H])c(N([H])C(=O)N4C([H])([H])C([H])([H])C([H])([H])C([H])(n5nc(-c6c([H])c([H])c(Oc7c([H])c([H])c(F)c([H])c7F)c([H])c6[H])c(C(=O)N([H])[H])c5N([H])[H])C4([H])[H])c(C([H])([H])[H])c3[H])c([H])c([H])c2C1([H])[H]

>  <smiles>  (82) 
[H]c1c([H])c([H])c2c(c1[H])C([H])([H])C([H])([H])C([H])([H])C2([H])N([H])C(=O)C1([H])N(C(=O)C([H])(N([H])C(=O)C([H])(N([H])C([H])([H])[H])C([H])([H])[H])C(C([H])([H])[H])(C([H])([H])[H])C([H])([H])[H])C([H])([H])c2c([H])c(OC([H])([H])C(=O)C([H])([H])c3c([H])c([H])c(N([H])C(=O)N4C([H])([H])C([H])([H])C([H])([H])C([H])(n5nc(-c6c([H])c([H])c(Oc7c([H])c([H])c(F)c([H])c7F)c([H])c6[H])c(C(=O)N([H])[H])c5N([H])[H])C4([H])[H])c(C([H])([H])[H])c3[H])c([H])c([H])c2C1([H])[H]

$$$$
84:0:0
     RDKit          3D

 95 93  0  0  1  0  0  0  0  0999 V2000
  -26.4530  -24.7280   21.0670 N   0  0  0  0  0  2  0  0  0  0  0  0
  -27.1860  -25.2850   20.6390 H   0  0  0  0  0  0  0  0  0  0  0  0
  -24.2780  -30.2610   20.6420 C   0  0  0  0  0  3  0  0  0  0  0  0
  -23.5250  -29.8520   20.5820 C   0  0  0  0  0  3  0  0  0  0  0  0
  -25.1890  -27.7430   23.4700 C   0  0  0  0  0  1  0  0  0  0  0  0
  -25.3230  -28.0930   22.0530 C   0  0  0  0  0  2  0  0  0  0  0  0
  -24.4780  -27.7360   22.0720 C   0  0  0  0  0  2  0  0  0  0  0  0
  -25.4720  -26.1940   21.9260 C   0  0  0  0  0  1  0  0  0  0  0  0
  -24.5640  -31.3830   20.1660 O   0  0  0  0  0  0  0  0  0  0  0  0
  -24.2810  -24.2080   19.6890 C   0  0  0  0  0  1  0  0  0  0  0  0
  -25.8170  -24.1090   19.8680 C   0  0  0  0  0  3  0  0  0  0  0  0
  -26.8060  -24.1510   18.6490 C   0  0  0  0  0  2  0  0  0  0  0  0
  -28.1080  -25.0580   18.7480 C   0  0  0  0  0  2  0  0  0  0  0  0
  -28.1730  -26.2720   19.5610 O   0  0  0  0  0  0  0  0  0  0  0  0
  -24.5190  -31.8710   23.4580 C   0  0  0  0  0  0  0  0  0  0  0  0
  -27.2860  -27.2650   19.3340 C   0  0  0  0  0  3  0  0  0  0  0  0
  -22.9560  -30.0990   22.0370 C   0  0  0  0  0  2  0  0  0  0  0  0
  -24.8780  -28.5130   19.3650 C   0  0  0  0  0  2  0  0  0  0  0  0
  -26.5120  -30.4100   21.8750 C   0  0  0  0  0 15  0  0  0  0  0  0
  -26.4610  -29.1990   20.0490 C   0  0  0  0  0  2  0  0  0  0  0  0
  -27.5270  -28.4220   20.0270 C   0  0  0  0  0  2  0  0  0  0  0  0
  -26.2030  -27.0550   18.4470 C   0  0  0  0  0  2  0  0  0  0  0  0
  -24.9530  -27.5900   18.4690 C   0  0  0  0  0  2  0  0  0  0  0  0
  -22.8260  -28.7520   20.0900 C   0  0  0  0  0  1  0  0  0  0  0  0
  -24.6880  -30.7540   22.7130 N   0  0  0  0  0  1  0  0  0  0  0  0
  -23.4050  -32.3010   23.7880 O   0  0  0  0  0  0  0  0  0  0  0  0
  -22.1270  -29.5770   23.0490 C   0  0  0  0  0  0  0  0  0  0  0  0
  -20.9280  -29.3240   22.6250 N   0  0  0  0  0  0  0  0  0  0  0  0
  -22.5940  -29.2560   24.1180 O   0  0  0  0  0  0  0  0  0  0  0  0
  -20.6120  -29.6210   21.7120 H   0  0  0  0  0  0  0  0  0  0  0  0
  -17.6700  -28.2350   22.9660 C   0  0  0  0  0  0  0  0  0  0  0  0
  -20.1500  -28.4010   23.3610 C   0  0  0  0  0  3  0  0  0  0  0  0
  -20.3150  -27.0080   22.7280 C   0  0  0  0  0  2  0  0  0  0  0  0
  -19.2650  -26.7470   21.6590 C   0  0  0  0  0  2  0  0  0  0  0  0
  -17.8670  -26.8950   22.2750 C   0  0  0  0  0  2  0  0  0  0  0  0
  -18.7680  -28.9690   23.4490 C   0  0  0  0  0  0  0  0  0  0  0  0
  -18.5890  -30.2490   24.0190 C   0  0  0  0  0  3  0  0  0  0  0  0
  -17.3000  -30.7850   24.1440 C   0  0  0  0  0  3  0  0  0  0  0  0
  -16.1930  -30.0330   23.7130 C   0  0  0  0  0  3  0  0  0  0  0  0
  -16.3780  -28.7660   23.1270 C   0  0  0  0  0  3  0  0  0  0  0  0
  -25.7790  -32.5900   23.9690 C   0  0  0  0  0  3  0  0  0  0  0  0
  -25.4650  -34.0100   24.2080 N   0  0  0  0  0  0  0  0  0  0  0  0
  -25.8370  -35.0420   23.4380 C   0  0  0  0  0  0  0  0  0  0  0  0
  -26.5100  -34.9070   22.4130 O   0  0  0  0  0  0  0  0  0  0  0  0
  -24.8520  -34.2010   24.9860 H   0  0  0  0  0  0  0  0  0  0  0  0
  -24.1700  -36.9010   23.0800 C   0  0  0  0  0  1  0  0  0  0  0  0
  -25.4000  -36.4540   23.8860 C   0  0  0  0  0  3  0  0  0  0  0  0
  -27.5680  -37.2710   24.7070 C   0  0  0  0  0  1  0  0  0  0  0  0
  -26.4680  -37.4720   23.7670 N   0  0  0  0  0  0  0  0  0  0  0  0
  -26.0940  -38.4060   23.9090 H   0  0  0  0  0  0  0  0  0  0  0  0
  -26.2860  -31.8990   25.2900 C   0  0  1  0  0  0  0  0  0  0  0  0
  -25.1500  -31.6150   26.3020 C   0  0  0  0  0  1  0  0  0  0  0  0
  -27.0370  -30.5730   25.0740 C   0  0  0  0  0  1  0  0  0  0  0  0
  -27.3470  -32.7940   25.9550 C   0  0  0  0  0  1  0  0  0  0  0  0
  -27.4100  -23.1040   21.4690 C   0  0  0  0  0 15  0  0  0  0  0  0
  -27.9290  -21.1620   20.6710 C   0  0  0  0  0 15  0  0  0  0  0  0
  -29.0330  -19.3170   20.7890 C   0  0  0  0  0 15  0  0  0  0  0  0
  -30.0620  -16.0130   20.1730 C   0  0  0  0  0  0  0  0  0  0  0  0
  -30.4210  -13.3950   19.2640 C   0  0  0  0  0  2  0  0  0  0  0  0
  -29.5930  -12.7850   18.0760 C   0  0  0  0  0  2  0  0  0  0  0  0
  -28.1960  -12.3380   18.5310 C   0  0  0  0  0  2  0  0  0  0  0  0
  -27.6380  -13.3530   19.5480 C   0  0  0  0  0  3  0  0  0  0  0  0
  -28.6220  -13.7590   20.6710 C   0  0  0  0  0  2  0  0  0  0  0  0
  -29.6830  -14.5600   20.0150 N   0  0  0  0  0  0  0  0  0  0  0  0
  -31.3080  -15.9550   19.9860 O   0  0  0  0  0  0  0  0  0  0  0  0
  -29.1870  -17.4220   20.3740 N   0  0  0  0  0  2  0  0  0  0  0  0
  -28.2350  -17.0830   20.3450 H   0  0  0  0  0  0  0  0  0  0  0  0
  -25.3130  -13.8940   20.3430 C   0  0  0  0  0  0  0  0  0  0  0  0
  -24.2570  -13.1260   20.7350 C   0  0  0  0  0  0  0  0  0  0  0  0
  -24.7130  -11.7720   20.6920 C   0  0  0  0  0  0  0  0  0  0  0  0
  -26.3350  -13.0090   20.0720 N   0  0  0  0  0  0  0  0  0  0  0  0
  -25.9960  -11.7240   20.3470 N   0  0  0  0  0  0  0  0  0  0  0  0
  -23.9740  -10.5190   20.8930 C   0  0  0  0  0  0  0  0  0  0  0  0
  -24.3780   -9.5660   21.8530 C   0  0  0  0  0  3  0  0  0  0  0  0
  -23.6340   -8.3830   22.0450 C   0  0  0  0  0  3  0  0  0  0  0  0
  -22.4690   -8.1450   21.2750 C   0  0  0  0  0  0  0  0  0  0  0  0
  -22.0840   -9.0850   20.3030 C   0  0  0  0  0  3  0  0  0  0  0  0
  -22.8310  -10.2600   20.1090 C   0  0  0  0  0  3  0  0  0  0  0  0
  -21.6970   -7.0120   21.3750 O   0  0  0  0  0  0  0  0  0  0  0  0
  -21.5820   -6.3210   22.5550 C   0  0  0  0  0  0  0  0  0  0  0  0
  -21.1090   -6.9330   23.7350 C   0  0  0  0  0  3  0  0  0  0  0  0
  -20.9420   -6.1680   24.9070 C   0  0  0  0  0  3  0  0  0  0  0  0
  -21.2370   -4.7920   24.8990 C   0  0  0  0  0  0  0  0  0  0  0  0
  -21.7030   -4.1790   23.7230 C   0  0  0  0  0  3  0  0  0  0  0  0
  -21.8720   -4.9410   22.5530 C   0  0  0  0  0  0  0  0  0  0  0  0
  -22.3000   -4.3410   21.4160 F   0  0  0  0  0  0  0  0  0  0  0  0
  -21.0700   -4.0560   26.0220 F   0  0  0  0  0  0  0  0  0  0  0  0
  -22.8750  -13.6250   21.0270 C   0  0  0  0  0  0  0  0  0  0  0  0
  -22.1560  -12.9500   21.9160 N   0  0  0  0  0  0  0  0  0  0  0  0
  -22.4450  -14.6520   20.5020 O   0  0  0  0  0  0  0  0  0  0  0  0
  -22.5230  -12.1220   22.3590 H   0  0  0  0  0  0  0  0  0  0  0  0
  -21.2280  -13.2680   22.1570 H   0  0  0  0  0  0  0  0  0  0  0  0
  -25.4890  -15.2630   20.1580 N   0  0  0  0  0  0  0  0  0  0  0  0
  -24.7180  -15.9150   20.2620 H   0  0  0  0  0  0  0  0  0  0  0  0
  -26.2760  -15.6590   19.6660 H   0  0  0  0  0  0  0  0  0  0  0  0
  2  1  1  0
  4 24  1  0
  4  3  1  0
  4 17  1  0
  6  7  1  0
  6  5  1  0
  8  7  1  0
  9  3  2  0
 11 10  1  0
 11  1  1  0
 12 13  1  0
 12 11  1  0
 13 14  1  0
 15 26  2  0
 16 14  1  0
 16 21  1  0
 17 27  1  0
 18 20  1  0
 21 20  1  0
 22 23  1  0
 22 16  1  0
 23 18  1  0
 25 15  1  0
 27 29  2  0
 28 27  1  0
 30 28  1  0
 31 40  2  0
 31 36  1  0
 32 28  1  0
 32 36  1  0
 33 32  1  0
 34 35  1  0
 34 33  1  0
 35 31  1  0
 36 37  2  0
 37 38  1  0
 39 38  2  0
 40 39  1  0
 41 15  1  0
 41 42  1  0
 41 51  1  0
 42 45  1  0
 43 47  1  0
 43 42  1  0
 44 43  2  0
 47 46  1  0
 49 47  1  0
 49 50  1  0
 49 48  1  0
 51 54  1  1
 51 52  1  0
 53 51  1  0
 58 66  1  0
 59 64  1  0
 60 61  1  0
 60 59  1  0
 62 61  1  0
 62 71  1  0
 62 63  1  0
 64 58  1  0
 64 63  1  0
 65 58  2  0
 67 66  1  0
 68 69  2  0
 69 88  1  0
 70 69  1  0
 70 73  1  0
 71 68  1  0
 71 72  1  0
 72 70  2  0
 73 74  1  0
 74 75  2  0
 76 79  1  0
 76 75  1  0
 77 76  2  0
 78 77  1  0
 78 73  2  0
 79 80  1  0
 80 81  1  0
 81 82  2  0
 83 82  1  0
 83 87  1  0
 84 83  2  0
 85 80  2  0
 85 84  1  0
 86 85  1  0
 88 89  1  0
 89 92  1  0
 89 91  1  0
 90 88  2  0
 93 94  1  0
 93 68  1  0
 95 93  1  0
M  ISO  4  13 101  14 101  58 100  66 100
M  END
>  <TORSDO>  (83) 
F 23

>  <SCORE>  (83) 
-14.807

>  <name>  (83) 
84

>  <ligand_id>  (83) 
84

>  <original_smiles>  (83) 
[H]c1c([H])c([H])c2c(c1[H])C([H])([H])C([H])([H])C([H])([H])C2([H])N([H])C(=O)C1([H])N(C(=O)C([H])(N([H])C(=O)C([H])(N([H])C([H])([H])[H])C([H])([H])[H])C(C([H])([H])[H])(C([H])([H])[H])C([H])([H])[H])C([H])([H])c2c([H])c(OC([H])([H])C([H])([H])C([H])(C([H])([H])[H])[N+]([H])(C([H])([H])C([H])([H])C([H])([H])N([H])C(=O)N3C([H])([H])C([H])([H])C([H])([H])C([H])(n4nc(-c5c([H])c([H])c(Oc6c([H])c([H])c(F)c([H])c6F)c([H])c5[H])c(C(=O)N([H])[H])c4N([H])[H])C3([H])[H])C3([H])C4([H])C(=O)C([H])([H])C3([H])C4([H])[H])c([H])c([H])c2C1([H])[H]

>  <smiles>  (83) 
[H]c1c([H])c([H])c2c(c1[H])C([H])([H])C([H])([H])C([H])([H])C2([H])N([H])C(=O)C1([H])N(C(=O)C([H])(N([H])C(=O)C([H])(N([H])C([H])([H])[H])C([H])([H])[H])C(C([H])([H])[H])(C([H])([H])[H])C([H])([H])[H])C([H])([H])c2c([H])c(OC([H])([H])C([H])([H])C([H])(C([H])([H])[H])[N+]([H])(C([H])([H])C([H])([H])C([H])([H])N([H])C(=O)N3C([H])([H])C([H])([H])C([H])([H])C([H])(n4nc(-c5c([H])c([H])c(Oc6c([H])c([H])c(F)c([H])c6F)c([H])c5[H])c(C(=O)N([H])[H])c4N([H])[H])C3([H])[H])C3([H])C4([H])C(=O)C([H])([H])C3([H])C4([H])[H])c([H])c([H])c2C1([H])[H]

$$$$
85:0:0
     RDKit          3D

100111  0  0  1  0  0  0  0  0999 V2000
  -28.8520  -20.2880   22.2570 C   0  0  0  0  0  2  0  0  0  0  0  0
  -27.4500  -20.7300   20.3820 C   0  0  0  0  0  2  0  0  0  0  0  0
  -28.9830  -18.7840   18.9220 C   0  0  0  0  0  2  0  0  0  0  0  0
  -29.3490  -21.7430   22.3060 C   0  0  0  0  0  2  0  0  0  0  0  0
  -27.8820  -22.2100   20.3420 C   0  0  0  0  0  2  0  0  0  0  0  0
  -28.7790  -18.3270   20.3760 C   0  0  2  0  0  0  0  0  0  0  0  0
  -29.8500  -19.7200   19.7990 C   0  0  1  0  0  0  0  0  0  0  0  0
  -30.3270  -18.4490   20.5340 C   0  0  0  0  0  3  0  0  0  0  0  0
  -28.6470  -19.8310   20.7880 C   0  0  2  0  0  0  0  0  0  0  0  0
  -28.4180  -22.7030   21.6460 N   0  0  2  0  0  4  0  0  0  0  0  0
  -27.6240  -22.7900   22.2630 H   0  0  0  0  0  0  0  0  0  0  0  0
  -29.0580  -24.0480   21.5600 C   0  0  0  0  0  2  0  0  0  0  0  0
  -28.3270  -25.0730   20.6730 C   0  0  0  0  0  2  0  0  0  0  0  0
  -29.0920  -26.4050   20.5870 C   0  0  0  0  0  2  0  0  0  0  0  0
  -28.6490  -27.1420   19.4550 O   0  0  0  0  0  0  0  0  0  0  0  0
  -24.7100  -31.7110   23.2170 C   0  0  0  0  0  0  0  0  0  0  0  0
  -27.4460  -27.7700   19.6250 C   0  0  0  0  0  0  0  0  0  0  0  0
  -23.5020  -30.3960   21.5020 C   0  0  0  0  0  3  0  0  0  0  0  0
  -24.9700  -29.0820   19.8820 C   0  0  0  0  0  0  0  0  0  0  0  0
  -25.9860  -30.9310   21.2290 C   0  0  0  0  0  2  0  0  0  0  0  0
  -26.1170  -29.6290   20.4710 C   0  0  0  0  0  0  0  0  0  0  0  0
  -27.3600  -28.9740   20.3490 C   0  0  0  0  0  3  0  0  0  0  0  0
  -26.2910  -27.2260   19.0300 C   0  0  0  0  0  3  0  0  0  0  0  0
  -25.0470  -27.8740   19.1630 C   0  0  0  0  0  3  0  0  0  0  0  0
  -23.6820  -29.8540   20.0580 C   0  0  0  0  0  2  0  0  0  0  0  0
  -24.7530  -31.0220   22.0430 N   0  0  0  0  0  0  0  0  0  0  0  0
  -23.6440  -31.8680   23.8270 O   0  0  0  0  0  0  0  0  0  0  0  0
  -22.9570  -29.2560   22.3900 C   0  0  0  0  0  0  0  0  0  0  0  0
  -21.6640  -28.9370   22.2230 N   0  0  0  0  0  0  0  0  0  0  0  0
  -23.6950  -28.6610   23.1810 O   0  0  0  0  0  0  0  0  0  0  0  0
  -21.1260  -29.4770   21.5610 H   0  0  0  0  0  0  0  0  0  0  0  0
  -18.4610  -27.2890   22.4970 C   0  0  0  0  0  0  0  0  0  0  0  0
  -20.9440  -27.8720   22.9200 C   0  0  0  0  0  3  0  0  0  0  0  0
  -21.2680  -26.4890   22.3080 C   0  0  0  0  0  2  0  0  0  0  0  0
  -20.2710  -26.0610   21.2260 C   0  0  0  0  0  2  0  0  0  0  0  0
  -18.8510  -25.9990   21.7960 C   0  0  0  0  0  2  0  0  0  0  0  0
  -19.4440  -28.1760   23.0100 C   0  0  0  0  0  0  0  0  0  0  0  0
  -19.0290  -29.3790   23.6220 C   0  0  0  0  0  3  0  0  0  0  0  0
  -17.6630  -29.6990   23.7260 C   0  0  0  0  0  3  0  0  0  0  0  0
  -16.6930  -28.8110   23.2320 C   0  0  0  0  0  3  0  0  0  0  0  0
  -17.0920  -27.6070   22.6220 C   0  0  0  0  0  3  0  0  0  0  0  0
  -25.9910  -32.3550   23.8370 C   0  0  0  0  0  3  0  0  0  0  0  0
  -26.5670  -31.5390   25.0580 C   0  0  1  0  0  0  0  0  0  0  0  0
  -25.5070  -31.1850   26.1270 C   0  0  0  0  0  1  0  0  0  0  0  0
  -27.2100  -30.2190   24.5730 C   0  0  0  0  0  1  0  0  0  0  0  0
  -27.6890  -32.3510   25.7480 C   0  0  0  0  0  1  0  0  0  0  0  0
  -25.6440  -33.7230   24.2400 N   0  0  0  0  0  0  0  0  0  0  0  0
  -25.9270  -34.8200   23.5250 C   0  0  0  0  0  0  0  0  0  0  0  0
  -26.5780  -34.7880   22.4770 O   0  0  0  0  0  0  0  0  0  0  0  0
  -25.0610  -33.8190   25.0580 H   0  0  0  0  0  0  0  0  0  0  0  0
  -24.1310  -36.5630   23.2920 C   0  0  0  0  0  1  0  0  0  0  0  0
  -25.4040  -36.1680   24.0570 C   0  0  0  0  0  3  0  0  0  0  0  0
  -27.5270  -37.0880   24.8770 C   0  0  0  0  0  1  0  0  0  0  0  0
  -26.3970  -37.2610   23.9680 N   0  0  0  0  0  0  0  0  0  0  0  0
  -25.9640  -38.1580   24.1660 H   0  0  0  0  0  0  0  0  0  0  0  0
  -31.4040  -17.5130   19.9320 C   0  0  0  0  0  3  0  0  0  0  0  0
  -31.5760  -16.2300   20.7830 C   0  0  0  0  0  2  0  0  0  0  0  0
  -30.8800  -14.2620   19.4390 C   0  0  0  0  0  0  0  0  0  0  0  0
  -30.4930  -11.9500   18.6870 C   0  0  0  0  0  2  0  0  0  0  0  0
  -29.4270  -11.8470   17.5850 C   0  0  0  0  0  2  0  0  0  0  0  0
  -28.0220  -11.7380   18.2010 C   0  0  0  0  0  2  0  0  0  0  0  0
  -27.7550  -12.8360   19.2640 C   0  0  0  0  0  3  0  0  0  0  0  0
  -28.9170  -12.9190   20.2780 C   0  0  0  0  0  2  0  0  0  0  0  0
  -30.1770  -13.1070   19.5370 N   0  0  0  0  0  0  0  0  0  0  0  0
  -31.7650  -14.4510   18.5990 O   0  0  0  0  0  0  0  0  0  0  0  0
  -30.6650  -15.1410   20.4260 N   0  0  0  0  0  0  0  0  0  0  0  0
  -29.9330  -14.9150   21.0820 H   0  0  0  0  0  0  0  0  0  0  0  0
  -25.5480  -13.5590   20.3760 C   0  0  0  0  0  0  0  0  0  0  0  0
  -24.4890  -12.8380   20.8620 C   0  0  0  0  0  0  0  0  0  0  0  0
  -24.8290  -11.4630   20.6750 C   0  0  0  0  0  0  0  0  0  0  0  0
  -26.4720  -12.6250   19.9310 N   0  0  0  0  0  0  0  0  0  0  0  0
  -26.0490  -11.3560   20.1650 N   0  0  0  0  0  0  0  0  0  0  0  0
  -24.0410  -10.2450   20.9000 C   0  0  0  0  0  0  0  0  0  0  0  0
  -24.4790   -9.2340   21.7850 C   0  0  0  0  0  3  0  0  0  0  0  0
  -23.6950   -8.0800   21.9980 C   0  0  0  0  0  3  0  0  0  0  0  0
  -22.4580   -7.9280   21.3280 C   0  0  0  0  0  0  0  0  0  0  0  0
  -22.0370   -8.9260   20.4310 C   0  0  0  0  0  3  0  0  0  0  0  0
  -22.8210  -10.0720   20.2160 C   0  0  0  0  0  3  0  0  0  0  0  0
  -21.6430   -6.8300   21.4540 O   0  0  0  0  0  0  0  0  0  0  0  0
  -21.5630   -6.1230   22.6270 C   0  0  0  0  0  0  0  0  0  0  0  0
  -21.1630   -6.7300   23.8370 C   0  0  0  0  0  3  0  0  0  0  0  0
  -21.0280   -5.9510   25.0050 C   0  0  0  0  0  3  0  0  0  0  0  0
  -21.2830   -4.5680   24.9620 C   0  0  0  0  0  0  0  0  0  0  0  0
  -21.6770   -3.9610   23.7560 C   0  0  0  0  0  3  0  0  0  0  0  0
  -21.8130   -4.7360   22.5920 C   0  0  0  0  0  0  0  0  0  0  0  0
  -22.1720   -4.1420   21.4280 F   0  0  0  0  0  0  0  0  0  0  0  0
  -21.1460   -3.8180   26.0810 F   0  0  0  0  0  0  0  0  0  0  0  0
  -23.1940  -13.3920   21.3820 C   0  0  0  0  0  0  0  0  0  0  0  0
  -22.5620  -12.6940   22.3200 N   0  0  0  0  0  0  0  0  0  0  0  0
  -22.7570  -14.4740   20.9910 O   0  0  0  0  0  0  0  0  0  0  0  0
  -22.9300  -11.8160   22.6560 H   0  0  0  0  0  0  0  0  0  0  0  0
  -21.6980  -13.0430   22.7090 H   0  0  0  0  0  0  0  0  0  0  0  0
  -25.7940  -14.9230   20.2590 N   0  0  0  0  0  0  0  0  0  0  0  0
  -25.1100  -15.6220   20.5280 H   0  0  0  0  0  0  0  0  0  0  0  0
  -26.6270  -15.3220   19.8440 H   0  0  0  0  0  0  0  0  0  0  0  0
  -32.7410  -18.2860   19.8050 C   0  0  0  0  0  2  0  0  0  0  0  0
  -33.6250  -17.7590   18.7460 N   0  0  0  0  0  4  0  0  0  0  0  0
  -33.9220  -16.8210   18.9440 H   0  0  0  0  0  0  0  0  0  0  0  0
  -34.4470  -18.3320   18.6750 H   0  0  0  0  0  0  0  0  0  0  0  0
  -33.1620  -17.7720   17.8530 H   0  0  0  0  0  0  0  0  0  0  0  0
  1  4  1  0
  5  2  1  0
  5 10  1  0
  6  3  1  1
  6  8  1  0
  6  9  1  0
  7  3  1  6
  7  6  1  0
  7  8  1  0
  7  9  1  0
  8 56  1  0
  9  2  1  6
  9  1  1  0
 10 11  1  1
 10  4  1  0
 12 10  1  0
 13 12  1  0
 14 13  1  0
 15 17  1  0
 15 14  1  0
 16 27  2  0
 17 22  1  0
 18 26  1  0
 18 28  1  0
 19 25  1  0
 19 21  1  0
 20 26  1  0
 21 20  1  0
 22 21  2  0
 23 24  1  0
 23 17  2  0
 24 19  2  0
 25 18  1  0
 26 16  1  0
 28 30  2  0
 29 28  1  0
 31 29  1  0
 32 41  2  0
 32 37  1  0
 33 29  1  0
 33 37  1  0
 34 33  1  0
 35 36  1  0
 35 34  1  0
 36 32  1  0
 37 38  2  0
 38 39  1  0
 40 39  2  0
 41 40  1  0
 42 16  1  0
 42 47  1  0
 42 43  1  0
 43 46  1  1
 43 44  1  0
 45 43  1  0
 47 50  1  0
 48 52  1  0
 48 47  1  0
 49 48  2  0
 52 51  1  0
 54 52  1  0
 54 55  1  0
 54 53  1  0
 56 96  1  0
 56 57  1  0
 58 64  1  0
 58 66  1  0
 59 64  1  0
 60 61  1  0
 60 59  1  0
 62 61  1  0
 62 71  1  0
 62 63  1  0
 64 63  1  0
 65 58  2  0
 66 57  1  0
 66 67  1  0
 68 69  2  0
 69 88  1  0
 70 69  1  0
 70 73  1  0
 71 72  1  0
 71 68  1  0
 72 70  2  0
 73 74  1  0
 74 75  2  0
 76 79  1  0
 76 75  1  0
 77 76  2  0
 78 77  1  0
 78 73  2  0
 79 80  1  0
 80 81  1  0
 81 82  2  0
 83 82  1  0
 83 87  1  0
 84 83  2  0
 85 80  2  0
 85 84  1  0
 86 85  1  0
 88 89  1  0
 89 91  1  0
 89 92  1  0
 90 88  2  0
 93 68  1  0
 93 94  1  0
 95 93  1  0
 97 98  1  0
 97 96  1  0
 99 97  1  0
100 97  1  0
M  ISO  4  14 101  15 101  58 100  66 100
M  END
>  <TORSDO>  (84) 
F 23

>  <SCORE>  (84) 
-10.216

>  <name>  (84) 
85

>  <ligand_id>  (84) 
85

>  <original_smiles>  (84) 
[H]c1c([H])c([H])c2c(c1[H])C([H])([H])C([H])([H])C([H])([H])C2([H])N([H])C(=O)C1([H])N(C(=O)C([H])(N([H])C(=O)C([H])(N([H])C([H])([H])[H])C([H])([H])[H])C(C([H])([H])[H])(C([H])([H])[H])C([H])([H])[H])C([H])([H])c2c([H])c(OC([H])([H])C([H])([H])C([H])([H])[N+]3([H])C([H])([H])C([H])([H])C4(C([H])([H])C3([H])[H])C3([H])C([H])([H])C4([H])C3([H])C([H])(C([H])([H])N([H])C(=O)N3C([H])([H])C([H])([H])C([H])([H])C([H])(n4nc(-c5c([H])c([H])c(Oc6c([H])c([H])c(F)c([H])c6F)c([H])c5[H])c(C(=O)N([H])[H])c4N([H])[H])C3([H])[H])C([H])([H])[N+]([H])([H])[H])c([H])c([H])c2C1([H])[H]

>  <smiles>  (84) 
[H]c1c([H])c([H])c2c(c1[H])C([H])([H])C([H])([H])C([H])([H])C2([H])N([H])C(=O)C1([H])N(C(=O)C([H])(N([H])C(=O)C([H])(N([H])C([H])([H])[H])C([H])([H])[H])C(C([H])([H])[H])(C([H])([H])[H])C([H])([H])[H])C([H])([H])c2c([H])c(OC([H])([H])C([H])([H])C([H])([H])[N+]3([H])C([H])([H])C([H])([H])C4(C([H])([H])C3([H])[H])C3([H])C([H])([H])C4([H])C3([H])C([H])(C([H])([H])N([H])C(=O)N3C([H])([H])C([H])([H])C([H])([H])C([H])(n4nc(-c5c([H])c([H])c(Oc6c([H])c([H])c(F)c([H])c6F)c([H])c5[H])c(C(=O)N([H])[H])c4N([H])[H])C3([H])[H])C([H])([H])[N+]([H])([H])[H])c([H])c([H])c2C1([H])[H]

$$$$
86:0:0
     RDKit          3D

 92101  0  0  1  0  0  0  0  0999 V2000
  -29.7960  -20.8930   20.5020 C   0  0  0  0  0  0  0  0  0  0  0  0
  -28.8820  -21.9770   20.3820 N   0  0  0  0  0  0  0  0  0  0  0  0
  -30.9970  -21.1630   20.5850 O   0  0  0  0  0  0  0  0  0  0  0  0
  -27.9110  -21.6990   20.3240 H   0  0  0  0  0  0  0  0  0  0  0  0
  -29.3500  -19.2340   20.5690 C   0  0  0  0  0  0  0  0  0  0  0  0
  -28.1530  -18.9760   20.7280 O   0  0  0  0  0  0  0  0  0  0  0  0
  -30.7110  -15.2180   20.8390 C   0  0  0  0  0  0  0  0  0  0  0  0
  -30.7300  -12.7650   20.1860 C   0  0  0  0  0  2  0  0  0  0  0  0
  -29.9450  -12.4800   18.8850 C   0  0  0  0  0  2  0  0  0  0  0  0
  -28.4350  -12.3160   19.1680 C   0  0  0  0  0  2  0  0  0  0  0  0
  -27.8680  -13.3410   20.1880 C   0  0  0  0  0  3  0  0  0  0  0  0
  -28.8070  -13.5630   21.3910 C   0  0  0  0  0  2  0  0  0  0  0  0
  -30.1140  -13.9520   20.8400 N   0  0  0  0  0  0  0  0  0  0  0  0
  -31.9310  -15.2350   21.0300 O   0  0  0  0  0  0  0  0  0  0  0  0
  -31.9000  -17.0800   18.3210 C   0  0  0  0  0  2  0  0  0  0  0  0
  -30.4040  -18.3530   17.8250 C   0  0  0  0  0  2  0  0  0  0  0  0
  -29.4950  -16.1920   18.9710 C   0  0  0  0  0  2  0  0  0  0  0  0
  -30.4550  -17.9470   20.4120 C   0  0  0  0  0  3  0  0  0  0  0  0
  -30.4340  -16.8210   17.9090 C   0  0  0  0  0  3  0  0  0  0  0  0
  -31.2670  -18.2500   19.1060 C   0  0  0  0  0  3  0  0  0  0  0  0
  -30.0360  -16.3960   20.3420 N   0  0  0  0  0  0  0  0  0  0  0  0
  -25.4320  -13.9270   20.6840 C   0  0  0  0  0  0  0  0  0  0  0  0
  -24.3380  -13.1540   20.9550 C   0  0  0  0  0  0  0  0  0  0  0  0
  -24.8110  -11.8070   21.0100 C   0  0  0  0  0  0  0  0  0  0  0  0
  -26.4970  -13.0480   20.5780 N   0  0  0  0  0  0  0  0  0  0  0  0
  -26.1280  -11.7700   20.8440 N   0  0  0  0  0  0  0  0  0  0  0  0
  -24.0780  -10.5440   21.1530 C   0  0  0  0  0  0  0  0  0  0  0  0
  -24.4420   -9.5850   22.1220 C   0  0  0  0  0  3  0  0  0  0  0  0
  -23.7080   -8.3860   22.2540 C   0  0  0  0  0  3  0  0  0  0  0  0
  -22.5970   -8.1400   21.4140 C   0  0  0  0  0  0  0  0  0  0  0  0
  -22.2530   -9.0870   20.4340 C   0  0  0  0  0  3  0  0  0  0  0  0
  -22.9890  -10.2770   20.3000 C   0  0  0  0  0  3  0  0  0  0  0  0
  -21.8400   -6.9940   21.4540 O   0  0  0  0  0  0  0  0  0  0  0  0
  -21.7270   -6.2470   22.5990 C   0  0  0  0  0  0  0  0  0  0  0  0
  -21.1990   -6.7870   23.7920 C   0  0  0  0  0  3  0  0  0  0  0  0
  -21.0360   -5.9650   24.9240 C   0  0  0  0  0  3  0  0  0  0  0  0
  -21.3900   -4.6040   24.8650 C   0  0  0  0  0  0  0  0  0  0  0  0
  -21.9110   -4.0640   23.6760 C   0  0  0  0  0  3  0  0  0  0  0  0
  -22.0770   -4.8820   22.5450 C   0  0  0  0  0  0  0  0  0  0  0  0
  -22.5600   -4.3520   21.3960 F   0  0  0  0  0  0  0  0  0  0  0  0
  -21.2260   -3.8120   25.9500 F   0  0  0  0  0  0  0  0  0  0  0  0
  -22.9180  -13.6260   21.0590 C   0  0  0  0  0  0  0  0  0  0  0  0
  -22.1110  -12.9630   21.8800 N   0  0  0  0  0  0  0  0  0  0  0  0
  -22.5290  -14.6210   20.4480 O   0  0  0  0  0  0  0  0  0  0  0  0
  -22.4370  -12.1600   22.3960 H   0  0  0  0  0  0  0  0  0  0  0  0
  -21.1540  -13.2630   21.9930 H   0  0  0  0  0  0  0  0  0  0  0  0
  -25.6050  -15.2960   20.4930 N   0  0  0  0  0  0  0  0  0  0  0  0
  -24.8300  -15.9490   20.5270 H   0  0  0  0  0  0  0  0  0  0  0  0
  -26.4930  -15.7450   20.3060 H   0  0  0  0  0  0  0  0  0  0  0  0
  -29.1600  -23.5420   20.3960 C   0  0  0  0  0  3  0  0  0  0  0  0
  -28.0400  -24.7780   20.1320 C   0  0  0  0  0  3  0  0  0  0  0  0
  -28.2810  -26.3190   20.2430 O   0  0  0  0  0  0  0  0  0  0  0  0
  -24.5960  -31.9560   23.2500 C   0  0  0  0  0  0  0  0  0  0  0  0
  -27.2080  -27.2840   20.1870 C   0  0  0  0  0  0  0  0  0  0  0  0
  -23.4030  -30.5590   21.6090 C   0  0  0  0  0  3  0  0  0  0  0  0
  -24.8600  -29.0060   20.1690 C   0  0  0  0  0  0  0  0  0  0  0  0
  -25.9530  -30.8490   21.4340 C   0  0  0  0  0  2  0  0  0  0  0  0
  -26.0380  -29.4620   20.7750 C   0  0  0  0  0  0  0  0  0  0  0  0
  -27.2120  -28.6190   20.7630 C   0  0  0  0  0  3  0  0  0  0  0  0
  -26.0010  -26.9280   19.5470 C   0  0  0  0  0  3  0  0  0  0  0  0
  -24.8540  -27.7520   19.5390 C   0  0  0  0  0  3  0  0  0  0  0  0
  -23.6250  -29.8910   20.2260 C   0  0  0  0  0  2  0  0  0  0  0  0
  -24.6710  -31.1430   22.1530 N   0  0  0  0  0  0  0  0  0  0  0  0
  -23.5100  -32.2280   23.7840 O   0  0  0  0  0  0  0  0  0  0  0  0
  -22.7370  -29.5400   22.5680 C   0  0  0  0  0  0  0  0  0  0  0  0
  -21.4110  -29.3530   22.4410 N   0  0  0  0  0  0  0  0  0  0  0  0
  -23.4160  -28.9200   23.3910 O   0  0  0  0  0  0  0  0  0  0  0  0
  -20.9180  -29.9040   21.7520 H   0  0  0  0  0  0  0  0  0  0  0  0
  -18.0440  -28.1100   22.9360 C   0  0  0  0  0  0  0  0  0  0  0  0
  -20.6000  -28.4050   23.2100 C   0  0  0  0  0  3  0  0  0  0  0  0
  -20.7210  -26.9750   22.6350 C   0  0  0  0  0  2  0  0  0  0  0  0
  -19.6260  -26.6380   21.6170 C   0  0  0  0  0  2  0  0  0  0  0  0
  -18.2410  -26.7640   22.2590 C   0  0  0  0  0  2  0  0  0  0  0  0
  -19.1520  -28.8870   23.3690 C   0  0  0  0  0  0  0  0  0  0  0  0
  -18.9140  -30.1450   23.9640 C   0  0  0  0  0  3  0  0  0  0  0  0
  -17.6010  -30.6250   24.1320 C   0  0  0  0  0  3  0  0  0  0  0  0
  -16.5080  -29.8460   23.7150 C   0  0  0  0  0  3  0  0  0  0  0  0
  -16.7310  -28.5900   23.1230 C   0  0  0  0  0  3  0  0  0  0  0  0
  -25.8710  -32.6000   23.8760 C   0  0  0  0  0  3  0  0  0  0  0  0
  -26.3750  -31.8470   25.1680 C   0  0  1  0  0  0  0  0  0  0  0  0
  -25.2720  -31.6250   26.2300 C   0  0  0  0  0  1  0  0  0  0  0  0
  -26.9620  -30.4640   24.8060 C   0  0  0  0  0  1  0  0  0  0  0  0
  -27.5190  -32.6510   25.8310 C   0  0  0  0  0  1  0  0  0  0  0  0
  -25.5560  -34.0030   24.1910 N   0  0  0  0  0  0  0  0  0  0  0  0
  -25.8940  -35.0520   23.4290 C   0  0  0  0  0  0  0  0  0  0  0  0
  -26.5690  -34.9410   22.4030 O   0  0  0  0  0  0  0  0  0  0  0  0
  -24.9570  -34.1630   24.9880 H   0  0  0  0  0  0  0  0  0  0  0  0
  -24.1810  -36.8550   23.0450 C   0  0  0  0  0  1  0  0  0  0  0  0
  -25.4070  -36.4450   23.8760 C   0  0  0  0  0  3  0  0  0  0  0  0
  -27.5280  -37.3280   24.7430 C   0  0  0  0  0  1  0  0  0  0  0  0
  -26.4460  -37.4930   23.7760 N   0  0  0  0  0  0  0  0  0  0  0  0
  -26.0410  -38.4160   23.9080 H   0  0  0  0  0  0  0  0  0  0  0  0
  1  5  1  0
  1  3  2  0
  2 50  1  0
  2  1  1  0
  4  2  1  0
  5  6  2  0
  7 13  1  0
  7 14  2  0
  8 13  1  0
  9 10  1  0
  9  8  1  0
 11 10  1  0
 11 25  1  0
 11 12  1  0
 13 12  1  0
 15 20  1  0
 17 21  1  0
 18  5  1  0
 19 16  1  0
 19 15  1  0
 19 17  1  0
 20 16  1  0
 20 18  1  0
 21 18  1  0
 21  7  1  0
 22 23  2  0
 23 24  1  0
 23 42  1  0
 24 27  1  0
 25 22  1  0
 25 26  1  0
 26 24  2  0
 27 28  1  0
 28 29  2  0
 30 33  1  0
 30 29  1  0
 31 30  2  0
 32 31  1  0
 32 27  2  0
 33 34  1  0
 34 35  1  0
 35 36  2  0
 37 36  1  0
 37 41  1  0
 38 37  2  0
 39 34  2  0
 39 38  1  0
 40 39  1  0
 42 43  1  0
 43 46  1  0
 43 45  1  0
 44 42  2  0
 47 48  1  0
 47 22  1  0
 49 47  1  0
 51 52  1  0
 51 50  2  0
 53 64  2  0
 54 52  1  0
 54 59  1  0
 55 63  1  0
 55 65  1  0
 56 62  1  0
 56 58  1  0
 57 63  1  0
 58 57  1  0
 59 58  2  0
 60 54  2  0
 61 60  1  0
 61 56  2  0
 62 55  1  0
 63 53  1  0
 65 67  2  0
 66 65  1  0
 68 66  1  0
 69 78  2  0
 69 74  1  0
 70 66  1  0
 70 74  1  0
 71 70  1  0
 72 73  1  0
 72 71  1  0
 73 69  1  0
 74 75  2  0
 75 76  1  0
 77 76  2  0
 78 77  1  0
 79 53  1  0
 79 84  1  0
 79 80  1  0
 80 83  1  1
 80 81  1  0
 82 80  1  0
 84 87  1  0
 85 89  1  0
 85 84  1  0
 86 85  2  0
 89 88  1  0
 91 89  1  0
 91 92  1  0
 91 90  1  0
M  ISO  4   7 100  21 100  51 101  52 101
M  END
>  <TORSDO>  (85) 
F 19

>  <SCORE>  (85) 
-14.337

>  <name>  (85) 
86

>  <ligand_id>  (85) 
86

>  <original_smiles>  (85) 
[H]c1c([H])c([H])c2c(c1[H])C([H])([H])C([H])([H])C([H])([H])C2([H])N([H])C(=O)C1([H])N(C(=O)C([H])(N([H])C(=O)C([H])(N([H])C([H])([H])[H])C([H])([H])[H])C(C([H])([H])[H])(C([H])([H])[H])C([H])([H])[H])C([H])([H])c2c([H])c(OC([H])([H])C([H])([H])N([H])C(=O)C(=O)C3([H])N(C(=O)N4C([H])([H])C([H])([H])C([H])([H])C([H])(n5nc(-c6c([H])c([H])c(Oc7c([H])c([H])c(F)c([H])c7F)c([H])c6[H])c(C(=O)N([H])[H])c5N([H])[H])C4([H])[H])C([H])([H])C4([H])C([H])([H])C3([H])C4([H])[H])c([H])c([H])c2C1([H])[H]

>  <smiles>  (85) 
[H]c1c([H])c([H])c2c(c1[H])C([H])([H])C([H])([H])C([H])([H])C2([H])N([H])C(=O)C1([H])N(C(=O)C([H])(N([H])C(=O)C([H])(N([H])C([H])([H])[H])C([H])([H])[H])C(C([H])([H])[H])(C([H])([H])[H])C([H])([H])[H])C([H])([H])c2c([H])c(OC([H])([H])C([H])([H])N([H])C(=O)C(=O)C3([H])N(C(=O)N4C([H])([H])C([H])([H])C([H])([H])C([H])(n5nc(-c6c([H])c([H])c(Oc7c([H])c([H])c(F)c([H])c7F)c([H])c6[H])c(C(=O)N([H])[H])c5N([H])[H])C4([H])[H])C([H])([H])C4([H])C([H])([H])C3([H])C4([H])[H])c([H])c([H])c2C1([H])[H]

$$$$
87:0:0
     RDKit          3D

 91 99  0  0  1  0  0  0  0  0999 V2000
  -28.7860  -21.8870   20.4020 N   0  0  0  0  0  4  0  0  0  0  0  0
  -28.7250  -21.8390   21.4070 H   0  0  0  0  0  0  0  0  0  0  0  0
  -27.8480  -21.7400   20.0620 H   0  0  0  0  0  0  0  0  0  0  0  0
  -30.5950  -23.6980   20.5110 C   0  0  0  0  0  1  0  0  0  0  0  0
  -29.1640  -23.3940   20.0310 C   0  0  0  0  0  3  0  0  0  0  0  0
  -28.1710  -24.7020   20.4410 C   0  0  0  0  0  2  0  0  0  0  0  0
  -28.4300  -26.2280   20.2120 O   0  0  0  0  0  0  0  0  0  0  0  0
  -24.8090  -31.9210   23.2180 C   0  0  0  0  0  0  0  0  0  0  0  0
  -27.3640  -27.2020   20.1860 C   0  0  0  0  0  0  0  0  0  0  0  0
  -23.6010  -30.5340   21.5770 C   0  0  0  0  0  3  0  0  0  0  0  0
  -25.0410  -28.9510   20.1540 C   0  0  0  0  0  0  0  0  0  0  0  0
  -26.1550  -30.7880   21.4100 C   0  0  0  0  0  2  0  0  0  0  0  0
  -26.2230  -29.3950   20.7600 C   0  0  0  0  0  0  0  0  0  0  0  0
  -27.3870  -28.5390   20.7550 C   0  0  0  0  0  3  0  0  0  0  0  0
  -26.1590  -26.8610   19.5350 C   0  0  0  0  0  3  0  0  0  0  0  0
  -25.0220  -27.6980   19.5250 C   0  0  0  0  0  3  0  0  0  0  0  0
  -23.8180  -29.8540   20.1980 C   0  0  0  0  0  2  0  0  0  0  0  0
  -24.8750  -31.1040   22.1230 N   0  0  0  0  0  0  0  0  0  0  0  0
  -23.7250  -32.2090   23.7460 O   0  0  0  0  0  0  0  0  0  0  0  0
  -22.9180  -29.5300   22.5380 C   0  0  0  0  0  0  0  0  0  0  0  0
  -21.5870  -29.3710   22.4150 N   0  0  0  0  0  0  0  0  0  0  0  0
  -23.5870  -28.8930   23.3570 O   0  0  0  0  0  0  0  0  0  0  0  0
  -21.1050  -29.9350   21.7310 H   0  0  0  0  0  0  0  0  0  0  0  0
  -18.1960  -28.2020   22.9260 C   0  0  0  0  0  0  0  0  0  0  0  0
  -20.7590  -28.4390   23.1840 C   0  0  0  0  0  3  0  0  0  0  0  0
  -20.8430  -27.0070   22.6040 C   0  0  0  0  0  2  0  0  0  0  0  0
  -19.7350  -26.6980   21.5930 C   0  0  0  0  0  2  0  0  0  0  0  0
  -18.3580  -26.8540   22.2430 C   0  0  0  0  0  2  0  0  0  0  0  0
  -19.3240  -28.9530   23.3530 C   0  0  0  0  0  0  0  0  0  0  0  0
  -19.1170  -30.2130   23.9540 C   0  0  0  0  0  3  0  0  0  0  0  0
  -17.8180  -30.7240   24.1310 C   0  0  0  0  0  3  0  0  0  0  0  0
  -16.7050  -29.9700   23.7180 C   0  0  0  0  0  3  0  0  0  0  0  0
  -16.8950  -28.7110   23.1220 C   0  0  0  0  0  3  0  0  0  0  0  0
  -26.0890  -32.5490   23.8470 C   0  0  0  0  0  3  0  0  0  0  0  0
  -25.7860  -33.9510   24.1770 N   0  0  0  0  0  0  0  0  0  0  0  0
  -26.1270  -35.0050   23.4260 C   0  0  0  0  0  0  0  0  0  0  0  0
  -26.7980  -34.9020   22.3960 O   0  0  0  0  0  0  0  0  0  0  0  0
  -25.1900  -34.1060   24.9780 H   0  0  0  0  0  0  0  0  0  0  0  0
  -24.4120  -36.8150   23.0850 C   0  0  0  0  0  1  0  0  0  0  0  0
  -25.6510  -36.3960   23.8910 C   0  0  0  0  0  3  0  0  0  0  0  0
  -27.7940  -37.2650   24.7210 C   0  0  0  0  0  1  0  0  0  0  0  0
  -26.6910  -37.4430   23.7800 N   0  0  0  0  0  0  0  0  0  0  0  0
  -26.2910  -38.3660   23.9320 H   0  0  0  0  0  0  0  0  0  0  0  0
  -26.5930  -31.7790   25.1290 C   0  0  1  0  0  0  0  0  0  0  0  0
  -25.4930  -31.5560   26.1930 C   0  0  0  0  0  1  0  0  0  0  0  0
  -27.1660  -30.3950   24.7480 C   0  0  0  0  0  1  0  0  0  0  0  0
  -27.7470  -32.5670   25.7930 C   0  0  0  0  0  1  0  0  0  0  0  0
  -29.6090  -20.6020   19.9430 C   0  0  0  0  0  2  0  0  0  0  0  0
  -27.6650  -18.7500   20.2120 C   0  0  0  0  0  2  0  0  0  0  0  0
  -28.3840  -18.7940   21.5330 C   0  0  0  0  0  2  0  0  0  0  0  0
  -29.1560  -19.0140   20.2480 C   0  0  2  0  0  0  0  0  0  0  0  0
  -30.4000  -17.8320   18.2940 C   0  0  0  0  0  1  0  0  0  0  0  0
  -30.1200  -17.7190   19.8020 C   0  0  0  0  0  3  0  0  0  0  0  0
  -30.5850  -14.9900   19.9020 C   0  0  0  0  0  0  0  0  0  0  0  0
  -30.4150  -12.6480   18.9540 C   0  0  0  0  0  2  0  0  0  0  0  0
  -29.4240  -12.6120   17.7680 C   0  0  0  0  0  2  0  0  0  0  0  0
  -27.9830  -12.3960   18.2660 C   0  0  0  0  0  2  0  0  0  0  0  0
  -27.6310  -13.3050   19.4740 C   0  0  0  0  0  3  0  0  0  0  0  0
  -28.7430  -13.3160   20.5450 C   0  0  0  0  0  2  0  0  0  0  0  0
  -29.9820  -13.7340   19.8800 N   0  0  0  0  0  0  0  0  0  0  0  0
  -31.7670  -15.0500   19.5440 O   0  0  0  0  0  0  0  0  0  0  0  0
  -29.8300  -16.1830   20.1040 N   0  0  0  0  0  0  0  0  0  0  0  0
  -28.8870  -16.0000   20.4160 H   0  0  0  0  0  0  0  0  0  0  0  0
  -25.2890  -13.8550   20.3440 C   0  0  0  0  0  0  0  0  0  0  0  0
  -24.2530  -13.0670   20.7650 C   0  0  0  0  0  0  0  0  0  0  0  0
  -24.7250  -11.7200   20.6950 C   0  0  0  0  0  0  0  0  0  0  0  0
  -26.3240  -12.9870   20.0380 N   0  0  0  0  0  0  0  0  0  0  0  0
  -25.9980  -11.6990   20.3160 N   0  0  0  0  0  0  0  0  0  0  0  0
  -24.0170  -10.4510   20.9090 C   0  0  0  0  0  0  0  0  0  0  0  0
  -24.4740   -9.4980   21.8450 C   0  0  0  0  0  3  0  0  0  0  0  0
  -23.7650   -8.2950   22.0470 C   0  0  0  0  0  3  0  0  0  0  0  0
  -22.5840   -8.0350   21.3130 C   0  0  0  0  0  0  0  0  0  0  0  0
  -22.1460   -8.9750   20.3640 C   0  0  0  0  0  3  0  0  0  0  0  0
  -22.8560  -10.1700   20.1600 C   0  0  0  0  0  3  0  0  0  0  0  0
  -21.8420   -6.8830   21.4260 O   0  0  0  0  0  0  0  0  0  0  0  0
  -21.7800   -6.1780   22.6000 C   0  0  0  0  0  0  0  0  0  0  0  0
  -21.3330   -6.7700   23.8020 C   0  0  0  0  0  3  0  0  0  0  0  0
  -21.2200   -5.9910   24.9710 C   0  0  0  0  0  3  0  0  0  0  0  0
  -21.5440   -4.6210   24.9400 C   0  0  0  0  0  0  0  0  0  0  0  0
  -21.9840   -4.0280   23.7430 C   0  0  0  0  0  3  0  0  0  0  0  0
  -22.0990   -4.8040   22.5760 C   0  0  0  0  0  0  0  0  0  0  0  0
  -22.5040   -4.2250   21.4200 F   0  0  0  0  0  0  0  0  0  0  0  0
  -21.4260   -3.8700   26.0600 F   0  0  0  0  0  0  0  0  0  0  0  0
  -22.8690  -13.5300   21.1100 C   0  0  0  0  0  0  0  0  0  0  0  0
  -22.1910  -12.8290   22.0100 N   0  0  0  0  0  0  0  0  0  0  0  0
  -22.3970  -14.5530   20.6130 O   0  0  0  0  0  0  0  0  0  0  0  0
  -22.5870  -12.0030   22.4370 H   0  0  0  0  0  0  0  0  0  0  0  0
  -21.2630  -13.1220   22.2790 H   0  0  0  0  0  0  0  0  0  0  0  0
  -25.4300  -15.2290   20.1700 N   0  0  0  0  0  0  0  0  0  0  0  0
  -24.6560  -15.8660   20.3210 H   0  0  0  0  0  0  0  0  0  0  0  0
  -26.2290  -15.6730   19.7400 H   0  0  0  0  0  0  0  0  0  0  0  0
  1  2  1  0
  3  1  1  0
  5  1  1  0
  5  6  1  0
  5  4  1  0
  7  6  1  0
  8 19  2  0
  9  7  1  0
  9 14  1  0
 10 18  1  0
 10 20  1  0
 11 17  1  0
 11 13  1  0
 12 18  1  0
 13 12  1  0
 14 13  2  0
 15  9  2  0
 16 15  1  0
 16 11  2  0
 17 10  1  0
 18  8  1  0
 20 22  2  0
 21 20  1  0
 23 21  1  0
 24 33  2  0
 24 29  1  0
 25 21  1  0
 25 29  1  0
 26 25  1  0
 27 28  1  0
 27 26  1  0
 28 24  1  0
 29 30  2  0
 30 31  1  0
 32 31  2  0
 33 32  1  0
 34  8  1  0
 34 35  1  0
 34 44  1  0
 35 38  1  0
 36 40  1  0
 36 35  1  0
 37 36  2  0
 40 39  1  0
 42 40  1  0
 42 43  1  0
 42 41  1  0
 44 47  1  1
 44 45  1  0
 46 44  1  0
 51 48  1  1
 48  1  1  0
 49 51  1  0
 49 50  1  0
 51 50  1  0
 53 52  1  0
 53 62  1  0
 53 51  1  0
 54 62  1  0
 55 60  1  0
 56 57  1  0
 56 55  1  0
 58 57  1  0
 58 67  1  0
 58 59  1  0
 60 54  1  0
 60 59  1  0
 61 54  2  0
 62 63  1  0
 64 65  2  0
 65 84  1  0
 66 65  1  0
 66 69  1  0
 67 68  1  0
 67 64  1  0
 68 66  2  0
 69 70  1  0
 70 71  2  0
 72 75  1  0
 72 71  1  0
 73 72  2  0
 74 73  1  0
 74 69  2  0
 75 76  1  0
 76 77  1  0
 77 78  2  0
 79 78  1  0
 79 83  1  0
 80 79  2  0
 81 76  2  0
 81 80  1  0
 82 81  1  0
 84 85  1  0
 85 88  1  0
 85 87  1  0
 86 84  2  0
 89 90  1  0
 89 64  1  0
 91 89  1  0
M  ISO  4   6 101   7 101  54 100  62 100
M  END
>  <TORSDO>  (86) 
F 21

>  <SCORE>  (86) 
-11.695

>  <name>  (86) 
87

>  <ligand_id>  (86) 
87

>  <original_smiles>  (86) 
[H]c1c([H])c([H])c2c(c1[H])C([H])([H])C([H])([H])C([H])([H])C2([H])N([H])C(=O)C1([H])N(C(=O)C([H])(N([H])C(=O)C([H])(N([H])C([H])([H])[H])C([H])([H])[H])C(C([H])([H])[H])(C([H])([H])[H])C([H])([H])[H])C([H])([H])c2c([H])c(OC([H])([H])C([H])(C([H])([H])[H])[N+]([H])([H])C([H])([H])C3(C([H])(N([H])C(=O)N4C([H])([H])C([H])([H])C([H])([H])C([H])(n5nc(-c6c([H])c([H])c(Oc7c([H])c([H])c(F)c([H])c7F)c([H])c6[H])c(C(=O)N([H])[H])c5N([H])[H])C4([H])[H])C([H])([H])[H])C([H])([H])C3([H])[H])c([H])c([H])c2C1([H])[H]

>  <smiles>  (86) 
[H]c1c([H])c([H])c2c(c1[H])C([H])([H])C([H])([H])C([H])([H])C2([H])N([H])C(=O)C1([H])N(C(=O)C([H])(N([H])C(=O)C([H])(N([H])C([H])([H])[H])C([H])([H])[H])C(C([H])([H])[H])(C([H])([H])[H])C([H])([H])[H])C([H])([H])c2c([H])c(OC([H])([H])C([H])(C([H])([H])[H])[N+]([H])([H])C([H])([H])C3(C([H])(N([H])C(=O)N4C([H])([H])C([H])([H])C([H])([H])C([H])(n5nc(-c6c([H])c([H])c(Oc7c([H])c([H])c(F)c([H])c7F)c([H])c6[H])c(C(=O)N([H])[H])c5N([H])[H])C4([H])[H])C([H])([H])[H])C([H])([H])C3([H])[H])c([H])c([H])c2C1([H])[H]

$$$$
88:0:0
     RDKit          3D

 94102  0  0  1  0  0  0  0  0999 V2000
  -28.9020  -22.9430   20.3590 C   0  0  0  0  0  3  0  0  0  0  0  0
  -29.3040  -21.0580   18.4390 C   0  0  0  0  0  3  0  0  0  0  0  0
  -29.8390  -18.5980   18.5780 C   0  0  0  0  0  3  0  0  0  0  0  0
  -29.4160  -19.9040   20.5580 C   0  0  0  0  0  3  0  0  0  0  0  0
  -29.6010  -19.7970   17.8440 C   0  0  0  0  0  0  0  0  0  0  0  0
  -29.1880  -21.2680   19.8320 C   0  0  0  0  0  0  0  0  0  0  0  0
  -29.7570  -18.4940   19.9830 C   0  0  0  0  0  0  0  0  0  0  0  0
  -29.6340  -19.7270   16.3290 C   0  0  0  0  0  1  0  0  0  0  0  0
  -30.6240  -15.6910   20.3600 C   0  0  0  0  0  0  0  0  0  0  0  0
  -30.7020  -13.1750   19.6480 C   0  0  0  0  0  2  0  0  0  0  0  0
  -29.8630  -12.8700   18.3780 C   0  0  0  0  0  2  0  0  0  0  0  0
  -28.4020  -12.5870   18.7630 C   0  0  0  0  0  2  0  0  0  0  0  0
  -27.8690  -13.6120   19.7900 C   0  0  0  0  0  3  0  0  0  0  0  0
  -28.8410  -13.8620   20.9630 C   0  0  0  0  0  2  0  0  0  0  0  0
  -30.1000  -14.3580   20.3900 N   0  0  0  0  0  0  0  0  0  0  0  0
  -31.8350  -15.6980   20.0960 O   0  0  0  0  0  0  0  0  0  0  0  0
  -29.8510  -16.9600   20.5570 N   0  0  0  0  0  0  0  0  0  0  0  0
  -29.0040  -16.7230   21.0520 H   0  0  0  0  0  0  0  0  0  0  0  0
  -25.4680  -14.1590   20.4380 C   0  0  0  0  0  0  0  0  0  0  0  0
  -24.3980  -13.3800   20.7690 C   0  0  0  0  0  0  0  0  0  0  0  0
  -24.8730  -12.0310   20.7710 C   0  0  0  0  0  0  0  0  0  0  0  0
  -26.5250  -13.2880   20.2440 N   0  0  0  0  0  0  0  0  0  0  0  0
  -26.1760  -12.0020   20.5100 N   0  0  0  0  0  0  0  0  0  0  0  0
  -24.1430  -10.7670   20.9450 C   0  0  0  0  0  0  0  0  0  0  0  0
  -24.5290   -9.8180   21.9180 C   0  0  0  0  0  3  0  0  0  0  0  0
  -23.7980   -8.6210   22.0780 C   0  0  0  0  0  3  0  0  0  0  0  0
  -22.6650   -8.3650   21.2680 C   0  0  0  0  0  0  0  0  0  0  0  0
  -22.2980   -9.3040   20.2880 C   0  0  0  0  0  3  0  0  0  0  0  0
  -23.0280  -10.4920   20.1250 C   0  0  0  0  0  3  0  0  0  0  0  0
  -21.9110   -7.2170   21.3380 O   0  0  0  0  0  0  0  0  0  0  0  0
  -21.8080   -6.4950   22.5010 C   0  0  0  0  0  0  0  0  0  0  0  0
  -21.3120   -7.0670   23.6920 C   0  0  0  0  0  3  0  0  0  0  0  0
  -21.1550   -6.2680   24.8430 C   0  0  0  0  0  3  0  0  0  0  0  0
  -21.4850   -4.9000   24.8030 C   0  0  0  0  0  0  0  0  0  0  0  0
  -21.9750   -4.3290   23.6150 C   0  0  0  0  0  3  0  0  0  0  0  0
  -22.1330   -5.1240   22.4670 C   0  0  0  0  0  0  0  0  0  0  0  0
  -22.5840   -4.5630   21.3180 F   0  0  0  0  0  0  0  0  0  0  0  0
  -21.3270   -4.1320   25.9050 F   0  0  0  0  0  0  0  0  0  0  0  0
  -22.9880  -13.8500   20.9730 C   0  0  0  0  0  0  0  0  0  0  0  0
  -22.2270  -13.1620   21.8140 N   0  0  0  0  0  0  0  0  0  0  0  0
  -22.5710  -14.8640   20.4130 O   0  0  0  0  0  0  0  0  0  0  0  0
  -22.5750  -12.3380   22.2830 H   0  0  0  0  0  0  0  0  0  0  0  0
  -21.2840  -13.4710   21.9980 H   0  0  0  0  0  0  0  0  0  0  0  0
  -25.6340  -15.5300   20.2560 N   0  0  0  0  0  0  0  0  0  0  0  0
  -24.8700  -16.1890   20.3430 H   0  0  0  0  0  0  0  0  0  0  0  0
  -26.4910  -15.9590   19.9260 H   0  0  0  0  0  0  0  0  0  0  0  0
  -27.9020  -22.9050   21.5340 C   0  0  0  0  0  2  0  0  0  0  0  0
  -26.4330  -22.9620   21.0670 C   0  0  0  0  0  2  0  0  0  0  0  0
  -25.5000  -23.3930   22.1230 N   0  0  0  0  0  4  0  0  0  0  0  0
  -25.5680  -22.7960   22.9270 H   0  0  0  0  0  0  0  0  0  0  0  0
  -24.5590  -23.3380   21.7730 H   0  0  0  0  0  0  0  0  0  0  0  0
  -25.6690  -24.3410   22.4100 H   0  0  0  0  0  0  0  0  0  0  0  0
  -28.5560  -24.5290   19.5070 C   0  0  0  0  0  2  0  0  0  0  0  0
  -28.5420  -26.1530   19.9240 O   0  0  0  0  0  0  0  0  0  0  0  0
  -24.6350  -31.8590   23.0270 C   0  0  0  0  0  0  0  0  0  0  0  0
  -27.4710  -27.2070   19.8540 C   0  0  0  0  0  0  0  0  0  0  0  0
  -23.5310  -30.4560   21.3350 C   0  0  0  0  0  3  0  0  0  0  0  0
  -25.0740  -28.9850   19.8550 C   0  0  0  0  0  0  0  0  0  0  0  0
  -26.0830  -30.8020   21.2170 C   0  0  0  0  0  2  0  0  0  0  0  0
  -26.2320  -29.4190   20.5080 C   0  0  0  0  0  0  0  0  0  0  0  0
  -27.4170  -28.5520   20.4880 C   0  0  0  0  0  3  0  0  0  0  0  0
  -26.2780  -26.9360   19.1490 C   0  0  0  0  0  3  0  0  0  0  0  0
  -25.1220  -27.7640   19.1560 C   0  0  0  0  0  3  0  0  0  0  0  0
  -23.8070  -29.8380   19.9350 C   0  0  0  0  0  2  0  0  0  0  0  0
  -24.7710  -31.0690   21.9140 N   0  0  0  0  0  0  0  0  0  0  0  0
  -23.5270  -32.0730   23.5460 O   0  0  0  0  0  0  0  0  0  0  0  0
  -22.8870  -29.3930   22.2610 C   0  0  0  0  0  0  0  0  0  0  0  0
  -21.5630  -29.1790   22.1410 N   0  0  0  0  0  0  0  0  0  0  0  0
  -23.5880  -28.7650   23.0600 O   0  0  0  0  0  0  0  0  0  0  0  0
  -21.0540  -29.7410   21.4740 H   0  0  0  0  0  0  0  0  0  0  0  0
  -18.2240  -27.8530   22.6590 C   0  0  0  0  0  0  0  0  0  0  0  0
  -20.7830  -28.1760   22.8730 C   0  0  0  0  0  3  0  0  0  0  0  0
  -20.9080  -26.7870   22.2040 C   0  0  0  0  0  2  0  0  0  0  0  0
  -19.7850  -26.4960   21.2050 C   0  0  0  0  0  2  0  0  0  0  0  0
  -18.4180  -26.5580   21.8900 C   0  0  0  0  0  2  0  0  0  0  0  0
  -19.3320  -28.6230   23.1050 C   0  0  0  0  0  0  0  0  0  0  0  0
  -19.0880  -29.8370   23.7850 C   0  0  0  0  0  3  0  0  0  0  0  0
  -17.7730  -30.2790   24.0220 C   0  0  0  0  0  3  0  0  0  0  0  0
  -16.6810  -29.5060   23.5890 C   0  0  0  0  0  3  0  0  0  0  0  0
  -16.9090  -28.2950   22.9140 C   0  0  0  0  0  3  0  0  0  0  0  0
  -25.8670  -32.5450   23.6960 C   0  0  0  0  0  3  0  0  0  0  0  0
  -25.4780  -33.9160   24.0720 N   0  0  0  0  0  0  0  0  0  0  0  0
  -25.7650  -35.0180   23.3660 C   0  0  0  0  0  0  0  0  0  0  0  0
  -26.4500  -34.9910   22.3410 O   0  0  0  0  0  0  0  0  0  0  0  0
  -24.8680  -34.0090   24.8700 H   0  0  0  0  0  0  0  0  0  0  0  0
  -23.9510  -36.7380   23.0770 C   0  0  0  0  0  1  0  0  0  0  0  0
  -25.2090  -36.3650   23.8740 C   0  0  0  0  0  3  0  0  0  0  0  0
  -27.2940  -37.3260   24.7500 C   0  0  0  0  0  1  0  0  0  0  0  0
  -26.1890  -37.4740   23.8060 N   0  0  0  0  0  0  0  0  0  0  0  0
  -25.7360  -38.3680   23.9790 H   0  0  0  0  0  0  0  0  0  0  0  0
  -26.3960  -31.7650   24.9630 C   0  0  1  0  0  0  0  0  0  0  0  0
  -25.2940  -31.4500   26.0030 C   0  0  0  0  0  1  0  0  0  0  0  0
  -27.0470  -30.4270   24.5520 C   0  0  0  0  0  1  0  0  0  0  0  0
  -27.5040  -32.5920   25.6590 C   0  0  0  0  0  1  0  0  0  0  0  0
  1 53  1  0
  1 47  1  0
  2  6  1  0
  3  7  2  0
  5  2  2  0
  5  3  1  0
  6  1  1  0
  6  4  2  0
  7 17  1  0
  7  4  1  0
  8  5  1  0
  9 15  1  0
  9 17  1  0
 10 15  1  0
 11 12  1  0
 11 10  1  0
 13 12  1  0
 13 22  1  0
 13 14  1  0
 15 14  1  0
 16  9  2  0
 17 18  1  0
 19 20  2  0
 20 21  1  0
 20 39  1  0
 21 24  1  0
 22 19  1  0
 22 23  1  0
 23 21  2  0
 24 25  1  0
 25 26  2  0
 27 30  1  0
 27 26  1  0
 28 27  2  0
 29 28  1  0
 29 24  2  0
 30 31  1  0
 31 32  1  0
 32 33  2  0
 34 33  1  0
 34 38  1  0
 35 34  2  0
 36 31  2  0
 36 35  1  0
 37 36  1  0
 39 40  1  0
 40 43  1  0
 40 42  1  0
 41 39  2  0
 44 45  1  0
 44 19  1  0
 46 44  1  0
 48 47  1  0
 48 49  1  0
 49 52  1  0
 49 50  1  0
 51 49  1  0
 53 54  1  0
 55 66  2  0
 56 54  1  0
 56 61  1  0
 57 65  1  0
 57 67  1  0
 58 64  1  0
 58 60  1  0
 59 65  1  0
 60 59  1  0
 61 60  2  0
 62 63  1  0
 62 56  2  0
 63 58  2  0
 64 57  1  0
 65 55  1  0
 67 69  2  0
 68 67  1  0
 70 68  1  0
 71 80  2  0
 71 76  1  0
 72 68  1  0
 72 76  1  0
 73 72  1  0
 74 75  1  0
 74 73  1  0
 75 71  1  0
 76 77  2  0
 77 78  1  0
 79 78  2  0
 80 79  1  0
 81 55  1  0
 81 82  1  0
 81 91  1  0
 82 85  1  0
 83 87  1  0
 83 82  1  0
 84 83  2  0
 87 86  1  0
 89 87  1  0
 89 90  1  0
 89 88  1  0
 91 94  1  1
 91 92  1  0
 93 91  1  0
M  ISO  4   9 100  17 100  53 101  54 101
M  END
>  <TORSDO>  (87) 
F 21

>  <SCORE>  (87) 
-15.201

>  <name>  (87) 
88

>  <ligand_id>  (87) 
88

>  <original_smiles>  (87) 
[H]c1c([H])c([H])c2c(c1[H])C([H])([H])C([H])([H])C([H])([H])C2([H])N([H])C(=O)C1([H])N(C(=O)C([H])(N([H])C(=O)C([H])(N([H])C([H])([H])[H])C([H])([H])[H])C(C([H])([H])[H])(C([H])([H])[H])C([H])([H])[H])C([H])([H])c2c([H])c(OC([H])([H])C([H])(c3c([H])c(N([H])C(=O)N4C([H])([H])C([H])([H])C([H])([H])C([H])(n5nc(-c6c([H])c([H])c(Oc7c([H])c([H])c(F)c([H])c7F)c([H])c6[H])c(C(=O)N([H])[H])c5N([H])[H])C4([H])[H])c([H])c(C([H])([H])[H])c3[H])C([H])([H])C([H])([H])[N+]([H])([H])[H])c([H])c([H])c2C1([H])[H]

>  <smiles>  (87) 
[H]c1c([H])c([H])c2c(c1[H])C([H])([H])C([H])([H])C([H])([H])C2([H])N([H])C(=O)C1([H])N(C(=O)C([H])(N([H])C(=O)C([H])(N([H])C([H])([H])[H])C([H])([H])[H])C(C([H])([H])[H])(C([H])([H])[H])C([H])([H])[H])C([H])([H])c2c([H])c(OC([H])([H])C([H])(c3c([H])c(N([H])C(=O)N4C([H])([H])C([H])([H])C([H])([H])C([H])(n5nc(-c6c([H])c([H])c(Oc7c([H])c([H])c(F)c([H])c7F)c([H])c6[H])c(C(=O)N([H])[H])c5N([H])[H])C4([H])[H])c([H])c(C([H])([H])[H])c3[H])C([H])([H])C([H])([H])[N+]([H])([H])[H])c([H])c([H])c2C1([H])[H]

$$$$
89:0:0
     RDKit          3D

 93101  0  0  1  0  0  0  0  0999 V2000
  -28.1420  -21.5410   22.0430 C   0  0  0  0  0  2  0  0  0  0  0  0
  -29.4440  -22.3010   21.8710 C   0  0  0  0  0  2  0  0  0  0  0  0
  -28.3910  -20.2580   21.2540 C   0  0  0  0  0  2  0  0  0  0  0  0
  -29.6800  -22.2530   20.3570 C   0  0  0  0  0  3  0  0  0  0  0  0
  -29.2410  -20.6440   20.0090 C   0  0  2  0  0  0  0  0  0  0  0  0
  -28.3290  -20.7220   18.8520 N   0  0  0  0  0  4  0  0  0  0  0  0
  -27.5700  -21.3520   19.0420 H   0  0  0  0  0  0  0  0  0  0  0  0
  -27.9380  -19.8200   18.6440 H   0  0  0  0  0  0  0  0  0  0  0  0
  -28.8160  -21.0470   18.0360 H   0  0  0  0  0  0  0  0  0  0  0  0
  -29.6790  -23.9360   18.3520 C   0  0  0  0  0  1  0  0  0  0  0  0
  -28.9910  -23.6590   19.6930 C   0  0  0  0  0  3  0  0  0  0  0  0
  -28.8100  -25.1380   20.4840 C   0  0  0  0  0  2  0  0  0  0  0  0
  -28.7330  -26.5800   19.9240 O   0  0  0  0  0  0  0  0  0  0  0  0
  -24.7340  -31.7850   23.2730 C   0  0  0  0  0  0  0  0  0  0  0  0
  -27.5910  -27.4410   20.0040 C   0  0  0  0  0  0  0  0  0  0  0  0
  -23.6290  -30.4540   21.5140 C   0  0  0  0  0  3  0  0  0  0  0  0
  -25.1760  -29.0450   20.0270 C   0  0  0  0  0  0  0  0  0  0  0  0
  -26.1660  -30.8610   21.4170 C   0  0  0  0  0  2  0  0  0  0  0  0
  -26.3200  -29.5210   20.6810 C   0  0  0  0  0  0  0  0  0  0  0  0
  -27.5320  -28.7410   20.6430 C   0  0  0  0  0  3  0  0  0  0  0  0
  -26.4160  -27.0440   19.3350 C   0  0  0  0  0  3  0  0  0  0  0  0
  -25.2350  -27.8210   19.3410 C   0  0  0  0  0  3  0  0  0  0  0  0
  -23.9060  -29.8810   20.0980 C   0  0  0  0  0  2  0  0  0  0  0  0
  -24.8610  -31.0520   22.1250 N   0  0  0  0  0  0  0  0  0  0  0  0
  -23.6270  -31.9800   23.7990 O   0  0  0  0  0  0  0  0  0  0  0  0
  -22.9860  -29.3510   22.3910 C   0  0  0  0  0  0  0  0  0  0  0  0
  -21.6680  -29.1330   22.2310 N   0  0  0  0  0  0  0  0  0  0  0  0
  -23.6740  -28.6960   23.1770 O   0  0  0  0  0  0  0  0  0  0  0  0
  -21.1710  -29.7160   21.5730 H   0  0  0  0  0  0  0  0  0  0  0  0
  -18.3380  -27.7620   22.5900 C   0  0  0  0  0  0  0  0  0  0  0  0
  -20.8790  -28.1080   22.9180 C   0  0  0  0  0  3  0  0  0  0  0  0
  -21.0470  -26.7280   22.2410 C   0  0  0  0  0  2  0  0  0  0  0  0
  -19.9730  -26.4360   21.1890 C   0  0  0  0  0  2  0  0  0  0  0  0
  -18.5780  -26.4750   21.8180 C   0  0  0  0  0  2  0  0  0  0  0  0
  -19.4160  -28.5350   23.0930 C   0  0  0  0  0  0  0  0  0  0  0  0
  -19.1360  -29.7400   23.7760 C   0  0  0  0  0  3  0  0  0  0  0  0
  -17.8090  -30.1700   23.9600 C   0  0  0  0  0  3  0  0  0  0  0  0
  -16.7440  -29.3930   23.4740 C   0  0  0  0  0  3  0  0  0  0  0  0
  -17.0080  -28.1910   22.7960 C   0  0  0  0  0  3  0  0  0  0  0  0
  -25.9710  -32.4310   23.9710 C   0  0  0  0  0  3  0  0  0  0  0  0
  -25.6090  -33.8130   24.3260 N   0  0  0  0  0  0  0  0  0  0  0  0
  -25.9450  -34.8980   23.6160 C   0  0  0  0  0  0  0  0  0  0  0  0
  -26.6560  -34.8450   22.6100 O   0  0  0  0  0  0  0  0  0  0  0  0
  -24.9850  -33.9300   25.1090 H   0  0  0  0  0  0  0  0  0  0  0  0
  -24.1830  -36.6590   23.2610 C   0  0  0  0  0  1  0  0  0  0  0  0
  -25.4070  -36.2590   24.1000 C   0  0  0  0  0  3  0  0  0  0  0  0
  -27.4850  -37.1730   25.0370 C   0  0  0  0  0  1  0  0  0  0  0  0
  -26.4140  -37.3410   24.0580 N   0  0  0  0  0  0  0  0  0  0  0  0
  -25.9750  -38.2440   24.2240 H   0  0  0  0  0  0  0  0  0  0  0  0
  -26.4460  -31.6420   25.2520 C   0  0  1  0  0  0  0  0  0  0  0  0
  -25.3070  -31.3290   26.2510 C   0  0  0  0  0  1  0  0  0  0  0  0
  -27.1050  -30.3010   24.8550 C   0  0  0  0  0  1  0  0  0  0  0  0
  -27.5250  -32.4620   26.0010 C   0  0  0  0  0  1  0  0  0  0  0  0
  -30.3130  -19.3700   19.6600 C   0  0  0  0  0  2  0  0  0  0  0  0
  -30.7540  -17.9770   20.5110 C   0  0  0  0  0  2  0  0  0  0  0  0
  -31.2240  -15.2950   20.0730 C   0  0  0  0  0  0  0  0  0  0  0  0
  -31.0780  -12.9220   19.1960 C   0  0  0  0  0  2  0  0  0  0  0  0
  -30.1280  -12.8360   17.9800 C   0  0  0  0  0  2  0  0  0  0  0  0
  -28.6660  -12.6630   18.4330 C   0  0  0  0  0  2  0  0  0  0  0  0
  -28.2800  -13.6390   19.5750 C   0  0  0  0  0  3  0  0  0  0  0  0
  -29.3450  -13.6760   20.6900 C   0  0  0  0  0  2  0  0  0  0  0  0
  -30.6140  -14.0460   20.0510 N   0  0  0  0  0  0  0  0  0  0  0  0
  -32.4330  -15.3510   19.8290 O   0  0  0  0  0  0  0  0  0  0  0  0
  -30.4370  -16.4690   20.1780 N   0  0  0  0  0  0  0  0  0  0  0  0
  -29.4540  -16.2540   20.2310 H   0  0  0  0  0  0  0  0  0  0  0  0
  -25.9360  -14.2810   20.3830 C   0  0  0  0  0  0  0  0  0  0  0  0
  -24.8540  -13.5320   20.7580 C   0  0  0  0  0  0  0  0  0  0  0  0
  -25.2720  -12.1690   20.6830 C   0  0  0  0  0  0  0  0  0  0  0  0
  -26.9440  -13.3750   20.0970 N   0  0  0  0  0  0  0  0  0  0  0  0
  -26.5560  -12.0980   20.3440 N   0  0  0  0  0  0  0  0  0  0  0  0
  -24.5090  -10.9260   20.8560 C   0  0  0  0  0  0  0  0  0  0  0  0
  -24.8700   -9.9640   21.8250 C   0  0  0  0  0  3  0  0  0  0  0  0
  -24.1070   -8.7860   21.9840 C   0  0  0  0  0  3  0  0  0  0  0  0
  -22.9680   -8.5640   21.1740 C   0  0  0  0  0  0  0  0  0  0  0  0
  -22.6250   -9.5150   20.1960 C   0  0  0  0  0  3  0  0  0  0  0  0
  -23.3890  -10.6830   20.0340 C   0  0  0  0  0  3  0  0  0  0  0  0
  -22.1820   -7.4390   21.2420 O   0  0  0  0  0  0  0  0  0  0  0  0
  -21.9710   -6.7790   22.4250 C   0  0  0  0  0  0  0  0  0  0  0  0
  -21.3690   -7.4120   23.5340 C   0  0  0  0  0  3  0  0  0  0  0  0
  -21.1090   -6.6770   24.7070 C   0  0  0  0  0  3  0  0  0  0  0  0
  -21.4390   -5.3090   24.7710 C   0  0  0  0  0  0  0  0  0  0  0  0
  -22.0310   -4.6760   23.6640 C   0  0  0  0  0  3  0  0  0  0  0  0
  -22.2940   -5.4090   22.4940 C   0  0  0  0  0  0  0  0  0  0  0  0
  -22.8460   -4.7890   21.4240 F   0  0  0  0  0  0  0  0  0  0  0  0
  -21.1800   -4.6010   25.8950 F   0  0  0  0  0  0  0  0  0  0  0  0
  -23.4800  -14.0500   21.0690 C   0  0  0  0  0  0  0  0  0  0  0  0
  -22.7490  -13.3600   21.9390 N   0  0  0  0  0  0  0  0  0  0  0  0
  -23.0640  -15.0980   20.5780 O   0  0  0  0  0  0  0  0  0  0  0  0
  -23.0980  -12.5100   22.3580 H   0  0  0  0  0  0  0  0  0  0  0  0
  -21.8270  -13.6870   22.1910 H   0  0  0  0  0  0  0  0  0  0  0  0
  -26.1390  -15.6510   20.2340 N   0  0  0  0  0  0  0  0  0  0  0  0
  -25.3930  -16.3220   20.3760 H   0  0  0  0  0  0  0  0  0  0  0  0
  -26.9760  -16.0680   19.8530 H   0  0  0  0  0  0  0  0  0  0  0  0
  2  1  1  0
  3  1  1  0
  4 11  1  0
  4  2  1  0
  5 54  1  6
  5  4  1  0
  5  3  1  0
  6  7  1  0
  6  5  1  0
  8  6  1  0
  9  6  1  0
 11 10  1  0
 11 12  1  0
 13 15  1  0
 13 12  1  0
 14 25  2  0
 15 20  1  0
 16 24  1  0
 16 26  1  0
 17 23  1  0
 17 19  1  0
 18 24  1  0
 19 18  1  0
 20 19  2  0
 21 22  1  0
 21 15  2  0
 22 17  2  0
 23 16  1  0
 24 14  1  0
 26 28  2  0
 27 26  1  0
 29 27  1  0
 30 39  2  0
 30 35  1  0
 31 27  1  0
 31 35  1  0
 32 31  1  0
 33 34  1  0
 33 32  1  0
 34 30  1  0
 35 36  2  0
 36 37  1  0
 38 37  2  0
 39 38  1  0
 40 14  1  0
 40 41  1  0
 40 50  1  0
 41 44  1  0
 42 46  1  0
 42 41  1  0
 43 42  2  0
 46 45  1  0
 48 46  1  0
 48 49  1  0
 48 47  1  0
 50 53  1  1
 50 51  1  0
 52 50  1  0
 54 55  1  0
 56 64  1  0
 57 62  1  0
 58 59  1  0
 58 57  1  0
 60 59  1  0
 60 69  1  0
 60 61  1  0
 62 56  1  0
 62 61  1  0
 63 56  2  0
 64 65  1  0
 64 55  1  0
 66 67  2  0
 67 86  1  0
 68 67  1  0
 68 71  1  0
 69 70  1  0
 69 66  1  0
 70 68  2  0
 71 72  1  0
 72 73  2  0
 74 77  1  0
 74 73  1  0
 75 74  2  0
 76 75  1  0
 76 71  2  0
 77 78  1  0
 78 83  2  0
 78 79  1  0
 79 80  2  0
 80 81  1  0
 81 85  1  0
 82 81  2  0
 83 82  1  0
 84 83  1  0
 86 87  1  0
 87 90  1  0
 87 89  1  0
 88 86  2  0
 91 92  1  0
 91 66  1  0
 93 91  1  0
M  ISO  4  12 101  13 101  56 100  64 100
M  END
>  <TORSDO>  (88) 
F 21

>  <SCORE>  (88) 
-12.619

>  <name>  (88) 
89

>  <ligand_id>  (88) 
89

>  <original_smiles>  (88) 
[H]c1c([H])c([H])c2c(c1[H])C([H])([H])C([H])([H])C([H])([H])C2([H])N([H])C(=O)C1([H])N(C(=O)C([H])(N([H])C(=O)C([H])(N([H])C([H])([H])[H])C([H])([H])[H])C(C([H])([H])[H])(C([H])([H])[H])C([H])([H])[H])C([H])([H])c2c([H])c(OC([H])([H])C([H])(C([H])([H])[H])C3([H])C([H])([H])C([H])([H])C([H])([H])C3(C([H])([H])C([H])([H])N([H])C(=O)N3C([H])([H])C([H])([H])C([H])([H])C([H])(n4nc(-c5c([H])c([H])c(Oc6c([H])c([H])c(F)c([H])c6F)c([H])c5[H])c(C(=O)N([H])[H])c4N([H])[H])C3([H])[H])[N+]([H])([H])[H])c([H])c([H])c2C1([H])[H]

>  <smiles>  (88) 
[H]c1c([H])c([H])c2c(c1[H])C([H])([H])C([H])([H])C([H])([H])C2([H])N([H])C(=O)C1([H])N(C(=O)C([H])(N([H])C(=O)C([H])(N([H])C([H])([H])[H])C([H])([H])[H])C(C([H])([H])[H])(C([H])([H])[H])C([H])([H])[H])C([H])([H])c2c([H])c(OC([H])([H])C([H])(C([H])([H])[H])C3([H])C([H])([H])C([H])([H])C([H])([H])C3(C([H])([H])C([H])([H])N([H])C(=O)N3C([H])([H])C([H])([H])C([H])([H])C([H])(n4nc(-c5c([H])c([H])c(Oc6c([H])c([H])c(F)c([H])c6F)c([H])c5[H])c(C(=O)N([H])[H])c4N([H])[H])C3([H])[H])[N+]([H])([H])[H])c([H])c([H])c2C1([H])[H]

$$$$
90:0:0
     RDKit          3D

 96105  0  0  1  0  0  0  0  0999 V2000
  -30.6210  -14.7290   20.4550 C   0  0  0  0  0  0  0  0  0  0  0  0
  -30.3580  -12.4970   19.3870 C   0  0  0  0  0  2  0  0  0  0  0  0
  -29.4210  -12.6260   18.1670 C   0  0  0  0  0  2  0  0  0  0  0  0
  -27.9490  -12.4660   18.5960 C   0  0  0  0  0  2  0  0  0  0  0  0
  -27.5880  -13.3300   19.8360 C   0  0  0  0  0  3  0  0  0  0  0  0
  -28.6490  -13.2120   20.9500 C   0  0  0  0  0  2  0  0  0  0  0  0
  -29.9500  -13.5360   20.3540 N   0  0  0  0  0  0  0  0  0  0  0  0
  -31.8350  -14.7730   20.2280 O   0  0  0  0  0  0  0  0  0  0  0  0
  -29.9830  -16.6160   19.0130 C   0  0  0  0  0  2  0  0  0  0  0  0
  -29.6590  -17.0250   21.2620 C   0  0  0  0  0  2  0  0  0  0  0  0
  -30.6720  -17.9680   19.2920 C   0  0  0  0  0  3  0  0  0  0  0  0
  -30.1690  -18.4250   20.6790 C   0  0  0  0  0  3  0  0  0  0  0  0
  -29.8770  -15.8900   20.2900 N   0  0  0  0  0  0  0  0  0  0  0  0
  -25.1970  -13.9180   20.5600 C   0  0  0  0  0  0  0  0  0  0  0  0
  -24.1290  -13.1420   20.9210 C   0  0  0  0  0  0  0  0  0  0  0  0
  -24.5940  -11.7910   20.8890 C   0  0  0  0  0  0  0  0  0  0  0  0
  -26.2420  -13.0410   20.3250 N   0  0  0  0  0  0  0  0  0  0  0  0
  -25.8860  -11.7560   20.5890 N   0  0  0  0  0  0  0  0  0  0  0  0
  -23.8680  -10.5270   21.0700 C   0  0  0  0  0  0  0  0  0  0  0  0
  -24.2950   -9.5530   21.9980 C   0  0  0  0  0  3  0  0  0  0  0  0
  -23.5680   -8.3560   22.1680 C   0  0  0  0  0  3  0  0  0  0  0  0
  -22.3980   -8.1220   21.4090 C   0  0  0  0  0  0  0  0  0  0  0  0
  -21.9900   -9.0840   20.4670 C   0  0  0  0  0  3  0  0  0  0  0  0
  -22.7190  -10.2720   20.2950 C   0  0  0  0  0  3  0  0  0  0  0  0
  -21.6420   -6.9760   21.4870 O   0  0  0  0  0  0  0  0  0  0  0  0
  -21.5820   -6.2310   22.6380 C   0  0  0  0  0  0  0  0  0  0  0  0
  -21.1560   -6.7870   23.8640 C   0  0  0  0  0  3  0  0  0  0  0  0
  -21.0430   -5.9690   25.0060 C   0  0  0  0  0  3  0  0  0  0  0  0
  -21.3460   -4.5960   24.9220 C   0  0  0  0  0  0  0  0  0  0  0  0
  -21.7660   -4.0400   23.7010 C   0  0  0  0  0  3  0  0  0  0  0  0
  -21.8810   -4.8560   22.5620 C   0  0  0  0  0  0  0  0  0  0  0  0
  -22.2640   -4.3110   21.3820 F   0  0  0  0  0  0  0  0  0  0  0  0
  -21.2310   -3.8080   26.0170 F   0  0  0  0  0  0  0  0  0  0  0  0
  -22.7300  -13.6160   21.1830 C   0  0  0  0  0  0  0  0  0  0  0  0
  -21.9970  -12.9230   22.0480 N   0  0  0  0  0  0  0  0  0  0  0  0
  -22.2940  -14.6390   20.6560 O   0  0  0  0  0  0  0  0  0  0  0  0
  -22.3610  -12.0970   22.4970 H   0  0  0  0  0  0  0  0  0  0  0  0
  -21.0570  -13.2270   22.2630 H   0  0  0  0  0  0  0  0  0  0  0  0
  -25.3630  -15.2890   20.3870 N   0  0  0  0  0  0  0  0  0  0  0  0
  -24.5950  -15.9440   20.4970 H   0  0  0  0  0  0  0  0  0  0  0  0
  -26.2150  -15.7280   20.0660 H   0  0  0  0  0  0  0  0  0  0  0  0
  -29.2140  -19.6300   20.7560 N   0  0  0  0  0  4  0  0  0  0  0  0
  -28.7580  -19.5680   21.6520 H   0  0  0  0  0  0  0  0  0  0  0  0
  -28.4890  -19.5060   20.0700 H   0  0  0  0  0  0  0  0  0  0  0  0
  -29.7490  -21.0680   20.6590 C   0  0  0  0  0  3  0  0  0  0  0  0
  -28.7120  -22.2910   20.8380 C   0  0  0  0  0  3  0  0  0  0  0  0
  -29.1850  -23.8210   20.6110 C   0  0  0  0  0  3  0  0  0  0  0  0
  -28.1120  -24.9950   20.8260 C   0  0  0  0  0  3  0  0  0  0  0  0
  -28.4060  -26.4350   20.5200 O   0  0  0  0  0  0  0  0  0  0  0  0
  -24.6510  -31.9810   23.3090 C   0  0  0  0  0  0  0  0  0  0  0  0
  -27.3120  -27.3220   20.4310 C   0  0  0  0  0  0  0  0  0  0  0  0
  -23.4820  -30.5440   21.6780 C   0  0  0  0  0  3  0  0  0  0  0  0
  -24.9630  -28.9600   20.3230 C   0  0  0  0  0  0  0  0  0  0  0  0
  -26.0300  -30.8480   21.5490 C   0  0  0  0  0  2  0  0  0  0  0  0
  -26.1200  -29.4540   20.9370 C   0  0  0  0  0  0  0  0  0  0  0  0
  -27.3010  -28.6450   20.9820 C   0  0  0  0  0  3  0  0  0  0  0  0
  -26.1370  -26.9050   19.7660 C   0  0  0  0  0  3  0  0  0  0  0  0
  -24.9750  -27.6920   19.7280 C   0  0  0  0  0  3  0  0  0  0  0  0
  -23.7280  -29.8380   20.3190 C   0  0  0  0  0  2  0  0  0  0  0  0
  -24.7390  -31.1440   22.2350 N   0  0  0  0  0  0  0  0  0  0  0  0
  -23.5560  -32.2730   23.8100 O   0  0  0  0  0  0  0  0  0  0  0  0
  -22.7970  -29.5520   22.6470 C   0  0  0  0  0  0  0  0  0  0  0  0
  -21.4720  -29.3780   22.5000 N   0  0  0  0  0  0  0  0  0  0  0  0
  -23.4570  -28.9400   23.4910 O   0  0  0  0  0  0  0  0  0  0  0  0
  -21.0000  -29.9230   21.7930 H   0  0  0  0  0  0  0  0  0  0  0  0
  -18.0770  -28.2190   22.9740 C   0  0  0  0  0  0  0  0  0  0  0  0
  -20.6340  -28.4620   23.2740 C   0  0  0  0  0  3  0  0  0  0  0  0
  -20.7300  -27.0180   22.7290 C   0  0  0  0  0  2  0  0  0  0  0  0
  -19.6400  -26.6860   21.7050 C   0  0  0  0  0  2  0  0  0  0  0  0
  -18.2510  -26.8560   22.3260 C   0  0  0  0  0  2  0  0  0  0  0  0
  -19.1960  -28.9790   23.4040 C   0  0  0  0  0  0  0  0  0  0  0  0
  -18.9810  -30.2550   23.9680 C   0  0  0  0  0  3  0  0  0  0  0  0
  -17.6770  -30.7700   24.1080 C   0  0  0  0  0  3  0  0  0  0  0  0
  -16.5720  -30.0070   23.6930 C   0  0  0  0  0  3  0  0  0  0  0  0
  -16.7730  -28.7340   23.1310 C   0  0  0  0  0  3  0  0  0  0  0  0
  -25.9200  -32.6280   23.9430 C   0  0  0  0  0  3  0  0  0  0  0  0
  -25.6000  -34.0300   24.2470 N   0  0  0  0  0  0  0  0  0  0  0  0
  -25.9300  -35.0730   23.4730 C   0  0  0  0  0  0  0  0  0  0  0  0
  -26.6090  -34.9580   22.4490 O   0  0  0  0  0  0  0  0  0  0  0  0
  -25.0050  -34.1950   25.0470 H   0  0  0  0  0  0  0  0  0  0  0  0
  -24.1880  -36.8450   23.0860 C   0  0  0  0  0  1  0  0  0  0  0  0
  -25.4310  -36.4650   23.9060 C   0  0  0  0  0  3  0  0  0  0  0  0
  -27.5590  -37.3800   24.7220 C   0  0  0  0  0  1  0  0  0  0  0  0
  -26.4560  -37.5250   23.7750 N   0  0  0  0  0  0  0  0  0  0  0  0
  -26.0410  -38.4440   23.9080 H   0  0  0  0  0  0  0  0  0  0  0  0
  -26.4190  -31.8790   25.2410 C   0  0  1  0  0  0  0  0  0  0  0  0
  -25.3080  -31.6510   26.2930 C   0  0  0  0  0  1  0  0  0  0  0  0
  -27.0160  -30.4980   24.8820 C   0  0  0  0  0  1  0  0  0  0  0  0
  -27.5540  -32.6890   25.9090 C   0  0  0  0  0  1  0  0  0  0  0  0
  -31.8000  -19.9010   17.9030 C   0  0  0  0  0  2  0  0  0  0  0  0
  -30.6270  -18.9630   18.1420 C   0  0  0  0  0  3  0  0  0  0  0  0
  -31.5230  -18.7760   16.9330 C   0  0  0  0  0  3  0  0  0  0  0  0
  -30.9460  -19.2180   15.6450 N   0  0  0  0  0  4  0  0  0  0  0  0
  -31.6750  -19.4480   14.9950 H   0  0  0  0  0  0  0  0  0  0  0  0
  -30.3590  -20.0270   15.7450 H   0  0  0  0  0  0  0  0  0  0  0  0
  -30.4030  -18.4810   15.2350 H   0  0  0  0  0  0  0  0  0  0  0  0
  2  7  1  0
  3  4  1  0
  3  2  1  0
  5  4  1  0
  5 17  1  0
  5  6  1  0
  7  1  1  0
  7  6  1  0
  8  1  2  0
  9 13  1  0
 11  9  1  0
 11 12  1  0
 12 42  1  0
 12 10  1  0
 13  1  1  0
 13 10  1  0
 14 15  2  0
 15 34  1  0
 16 15  1  0
 16 19  1  0
 17 14  1  0
 17 18  1  0
 18 16  2  0
 19 20  1  0
 20 21  2  0
 22 25  1  0
 22 21  1  0
 23 22  2  0
 24 23  1  0
 24 19  2  0
 25 26  1  0
 26 27  1  0
 27 28  2  0
 29 28  1  0
 29 33  1  0
 30 29  2  0
 31 26  2  0
 31 30  1  0
 32 31  1  0
 34 35  1  0
 35 38  1  0
 35 37  1  0
 36 34  2  0
 39 40  1  0
 39 14  1  0
 41 39  1  0
 42 43  1  0
 44 42  1  0
 45 42  1  0
 45 46  2  0
 47 48  2  0
 47 46  1  0
 49 48  1  0
 50 61  2  0
 51 49  1  0
 51 56  1  0
 52 60  1  0
 52 62  1  0
 53 55  1  0
 54 60  1  0
 55 56  2  0
 55 54  1  0
 57 51  2  0
 58 57  1  0
 58 53  2  0
 59 53  1  0
 59 52  1  0
 60 50  1  0
 62 64  2  0
 63 62  1  0
 65 63  1  0
 66 75  2  0
 66 71  1  0
 67 63  1  0
 67 71  1  0
 68 67  1  0
 69 70  1  0
 69 68  1  0
 70 66  1  0
 71 72  2  0
 72 73  1  0
 74 73  2  0
 75 74  1  0
 76 50  1  0
 76 77  1  0
 76 86  1  0
 77 80  1  0
 78 82  1  0
 78 77  1  0
 79 78  2  0
 82 81  1  0
 84 82  1  0
 84 85  1  0
 84 83  1  0
 86 89  1  1
 86 87  1  0
 88 86  1  0
 91 90  1  0
 91 11  1  0
 92 93  1  0
 92 90  1  0
 92 91  1  0
 93 95  1  0
 94 93  1  0
 96 93  1  0
M  ISO  4   1 100  13 100  48 101  49 101
M  END
>  <TORSDO>  (89) 
F 22

>  <SCORE>  (89) 
-13.493

>  <name>  (89) 
90

>  <ligand_id>  (89) 
90

>  <original_smiles>  (89) 
[H]c1c([H])c([H])c2c(c1[H])C([H])([H])C([H])([H])C([H])([H])C2([H])N([H])C(=O)C1([H])N(C(=O)C([H])(N([H])C(=O)C([H])(N([H])C([H])([H])[H])C([H])([H])[H])C(C([H])([H])[H])(C([H])([H])[H])C([H])([H])[H])C([H])([H])c2c([H])c(OC([H])([H])C([H])([H])C([H])([H])C([H])([H])[N+]([H])([H])C3([H])C([H])([H])N(C(=O)N4C([H])([H])C([H])([H])C([H])([H])C([H])(n5nc(-c6c([H])c([H])c(Oc7c([H])c([H])c(F)c([H])c7F)c([H])c6[H])c(C(=O)N([H])[H])c5N([H])[H])C4([H])[H])C([H])([H])C3([H])C3([H])C([H])([H])C3([H])[N+]([H])([H])[H])c([H])c([H])c2C1([H])[H]

>  <smiles>  (89) 
[H]c1c([H])c([H])c2c(c1[H])C([H])([H])C([H])([H])C([H])([H])C2([H])N([H])C(=O)C1([H])N(C(=O)C([H])(N([H])C(=O)C([H])(N([H])C([H])([H])[H])C([H])([H])[H])C(C([H])([H])[H])(C([H])([H])[H])C([H])([H])[H])C([H])([H])c2c([H])c(OC([H])([H])C([H])([H])C([H])([H])C([H])([H])[N+]([H])([H])C3([H])C([H])([H])N(C(=O)N4C([H])([H])C([H])([H])C([H])([H])C([H])(n5nc(-c6c([H])c([H])c(Oc7c([H])c([H])c(F)c([H])c7F)c([H])c6[H])c(C(=O)N([H])[H])c5N([H])[H])C4([H])[H])C([H])([H])C3([H])C3([H])C([H])([H])C3([H])[N+]([H])([H])[H])c([H])c([H])c2C1([H])[H]

$$$$
91:0:0
     RDKit          3D

 95104  0  0  1  0  0  0  0  0999 V2000
  -28.2310  -23.8030   19.9720 C   0  0  0  0  0  3  0  0  0  0  0  0
  -28.4560  -22.4220   20.1450 C   0  0  0  0  0  3  0  0  0  0  0  0
  -29.9820  -23.8740   18.2970 C   0  0  0  0  0  3  0  0  0  0  0  0
  -29.0090  -24.5460   19.0660 C   0  0  0  0  0  0  0  0  0  0  0  0
  -30.2170  -22.4880   18.4610 C   0  0  0  0  0  0  0  0  0  0  0  0
  -29.4710  -21.7550   19.4220 C   0  0  0  0  0  0  0  0  0  0  0  0
  -31.2850  -21.8220   17.6020 C   0  0  0  0  0  1  0  0  0  0  0  0
  -29.7370  -19.6620   20.7660 C   0  0  0  0  0  0  0  0  0  0  0  0
  -29.7290  -20.3620   19.6120 N   0  0  0  0  0  0  0  0  0  0  0  0
  -29.5100  -20.1590   21.8720 O   0  0  0  0  0  0  0  0  0  0  0  0
  -30.0350  -19.8500   18.7960 H   0  0  0  0  0  0  0  0  0  0  0  0
  -30.8150  -14.4710   19.6790 C   0  0  0  0  0  0  0  0  0  0  0  0
  -30.2350  -12.4130   18.4440 C   0  0  0  0  0  2  0  0  0  0  0  0
  -29.1550  -12.6980   17.3790 C   0  0  0  0  0  2  0  0  0  0  0  0
  -27.7470  -12.5400   17.9830 C   0  0  0  0  0  2  0  0  0  0  0  0
  -27.5980  -13.2970   19.3260 C   0  0  0  0  0  3  0  0  0  0  0  0
  -28.7860  -12.9710   20.2710 C   0  0  0  0  0  2  0  0  0  0  0  0
  -30.0360  -13.3410   19.5810 N   0  0  0  0  0  0  0  0  0  0  0  0
  -31.7610  -14.6140   18.8980 O   0  0  0  0  0  0  0  0  0  0  0  0
  -31.4200  -17.8040   21.2720 C   0  0  0  0  0  2  0  0  0  0  0  0
  -29.0710  -17.2930   21.4610 C   0  0  0  0  0  2  0  0  0  0  0  0
  -31.7860  -16.3330   20.9740 C   0  0  0  0  0  2  0  0  0  0  0  0
  -29.3380  -15.7850   21.2720 C   0  0  0  0  0  2  0  0  0  0  0  0
  -30.0580  -18.1620   20.6750 C   0  0  0  0  0  3  0  0  0  0  0  0
  -30.6420  -15.4090   20.6690 N   0  0  0  0  0  0  0  0  0  0  0  0
  -25.3320  -13.9170   20.3800 C   0  0  0  0  0  0  0  0  0  0  0  0
  -24.2950  -13.1490   20.8300 C   0  0  0  0  0  0  0  0  0  0  0  0
  -24.6990  -11.7910   20.6380 C   0  0  0  0  0  0  0  0  0  0  0  0
  -26.3090  -13.0300   19.9550 N   0  0  0  0  0  0  0  0  0  0  0  0
  -25.9350  -11.7410   20.1590 N   0  0  0  0  0  0  0  0  0  0  0  0
  -23.9620  -10.5370   20.8300 C   0  0  0  0  0  0  0  0  0  0  0  0
  -24.4700   -9.5000   21.6430 C   0  0  0  0  0  3  0  0  0  0  0  0
  -23.7360   -8.3080   21.8250 C   0  0  0  0  0  3  0  0  0  0  0  0
  -22.4780   -8.1470   21.1950 C   0  0  0  0  0  0  0  0  0  0  0  0
  -21.9890   -9.1730   20.3690 C   0  0  0  0  0  3  0  0  0  0  0  0
  -22.7250  -10.3550   20.1820 C   0  0  0  0  0  3  0  0  0  0  0  0
  -21.7050   -7.0150   21.2950 O   0  0  0  0  0  0  0  0  0  0  0  0
  -21.7510   -6.2100   22.4040 C   0  0  0  0  0  0  0  0  0  0  0  0
  -21.4790   -6.7070   23.6970 C   0  0  0  0  0  3  0  0  0  0  0  0
  -21.4650   -5.8290   24.8000 C   0  0  0  0  0  3  0  0  0  0  0  0
  -21.7150   -4.4560   24.6100 C   0  0  0  0  0  0  0  0  0  0  0  0
  -21.9830   -3.9600   23.3210 C   0  0  0  0  0  3  0  0  0  0  0  0
  -21.9980   -4.8350   22.2210 C   0  0  0  0  0  0  0  0  0  0  0  0
  -22.2360   -4.3490   20.9790 F   0  0  0  0  0  0  0  0  0  0  0  0
  -21.6920   -3.6100   25.6660 F   0  0  0  0  0  0  0  0  0  0  0  0
  -22.9630  -13.6390   21.3210 C   0  0  0  0  0  0  0  0  0  0  0  0
  -22.3450  -12.9120   22.2420 N   0  0  0  0  0  0  0  0  0  0  0  0
  -22.4880  -14.7050   20.9250 O   0  0  0  0  0  0  0  0  0  0  0  0
  -22.7420  -12.0480   22.5820 H   0  0  0  0  0  0  0  0  0  0  0  0
  -21.4570  -13.2180   22.6080 H   0  0  0  0  0  0  0  0  0  0  0  0
  -25.5160  -15.2940   20.2850 N   0  0  0  0  0  0  0  0  0  0  0  0
  -24.7860  -15.9420   20.5550 H   0  0  0  0  0  0  0  0  0  0  0  0
  -26.3290  -15.7510   19.8920 H   0  0  0  0  0  0  0  0  0  0  0  0
  -28.7700  -26.0430   18.8680 C   0  0  0  0  0  2  0  0  0  0  0  0
  -28.3620  -26.7410   20.0540 O   0  0  0  0  0  0  0  0  0  0  0  0
  -24.5500  -31.8900   23.1710 C   0  0  0  0  0  0  0  0  0  0  0  0
  -27.1730  -27.4450   20.0500 C   0  0  0  0  0  0  0  0  0  0  0  0
  -23.3280  -30.4860   21.5420 C   0  0  0  0  0  3  0  0  0  0  0  0
  -24.7670  -28.9410   20.1040 C   0  0  0  0  0  0  0  0  0  0  0  0
  -25.8520  -30.8390   21.3210 C   0  0  0  0  0  2  0  0  0  0  0  0
  -25.9300  -29.4630   20.6850 C   0  0  0  0  0  0  0  0  0  0  0  0
  -27.1290  -28.7160   20.6650 C   0  0  0  0  0  3  0  0  0  0  0  0
  -25.9860  -26.9230   19.4860 C   0  0  0  0  0  3  0  0  0  0  0  0
  -24.7900  -27.6680   19.5050 C   0  0  0  0  0  3  0  0  0  0  0  0
  -23.5230  -29.7990   20.1620 C   0  0  0  0  0  2  0  0  0  0  0  0
  -24.5960  -31.0880   22.0690 N   0  0  0  0  0  0  0  0  0  0  0  0
  -23.4750  -32.1650   23.7210 O   0  0  0  0  0  0  0  0  0  0  0  0
  -22.6830  -29.4710   22.5110 C   0  0  0  0  0  0  0  0  0  0  0  0
  -21.3600  -29.2790   22.3840 N   0  0  0  0  0  0  0  0  0  0  0  0
  -23.3700  -28.8580   23.3320 O   0  0  0  0  0  0  0  0  0  0  0  0
  -20.8660  -29.8260   21.6930 H   0  0  0  0  0  0  0  0  0  0  0  0
  -17.9990  -28.0400   22.8570 C   0  0  0  0  0  0  0  0  0  0  0  0
  -20.5470  -28.3420   23.1610 C   0  0  0  0  0  3  0  0  0  0  0  0
  -20.6790  -26.9010   22.6110 C   0  0  0  0  0  2  0  0  0  0  0  0
  -19.5980  -26.5450   21.5870 C   0  0  0  0  0  2  0  0  0  0  0  0
  -18.2060  -26.6810   22.2090 C   0  0  0  0  0  2  0  0  0  0  0  0
  -19.0980  -28.8270   23.2900 C   0  0  0  0  0  0  0  0  0  0  0  0
  -18.8510  -30.0970   23.8540 C   0  0  0  0  0  3  0  0  0  0  0  0
  -17.5350  -30.5810   23.9890 C   0  0  0  0  0  3  0  0  0  0  0  0
  -16.4500  -29.7890   23.5740 C   0  0  0  0  0  3  0  0  0  0  0  0
  -16.6820  -28.5210   23.0140 C   0  0  0  0  0  3  0  0  0  0  0  0
  -25.8420  -32.5210   23.7810 C   0  0  0  0  0  3  0  0  0  0  0  0
  -25.5410  -33.9200   24.1090 N   0  0  0  0  0  0  0  0  0  0  0  0
  -25.8610  -34.9680   23.3380 C   0  0  0  0  0  0  0  0  0  0  0  0
  -26.5120  -34.8570   22.2950 O   0  0  0  0  0  0  0  0  0  0  0  0
  -24.9630  -34.0780   24.9220 H   0  0  0  0  0  0  0  0  0  0  0  0
  -24.1260  -36.7560   23.0030 C   0  0  0  0  0  1  0  0  0  0  0  0
  -25.3820  -36.3600   23.7950 C   0  0  0  0  0  3  0  0  0  0  0  0
  -27.5380  -37.2450   24.5710 C   0  0  0  0  0  1  0  0  0  0  0  0
  -26.4130  -37.4110   23.6530 N   0  0  0  0  0  0  0  0  0  0  0  0
  -26.0120  -38.3320   23.8070 H   0  0  0  0  0  0  0  0  0  0  0  0
  -26.3680  -31.7520   25.0540 C   0  0  1  0  0  0  0  0  0  0  0  0
  -25.2840  -31.5200   26.1330 C   0  0  0  0  0  1  0  0  0  0  0  0
  -26.9440  -30.3730   24.6580 C   0  0  0  0  0  1  0  0  0  0  0  0
  -27.5290  -32.5450   25.7040 C   0  0  0  0  0  1  0  0  0  0  0  0
  1  2  1  0
  3  5  2  0
  3  4  1  0
  4  1  2  0
  5  6  1  0
  6  9  1  0
  6  2  2  0
  7  5  1  0
  8 10  2  0
  9  8  1  0
 11  9  1  0
 12 25  1  0
 13 18  1  0
 14 15  1  0
 14 13  1  0
 16 15  1  0
 16 29  1  0
 16 17  1  0
 18 12  1  0
 18 17  1  0
 19 12  2  0
 22 20  1  0
 23 21  1  0
 24  8  1  0
 24 20  1  0
 24 21  1  0
 25 22  1  0
 25 23  1  0
 26 27  2  0
 27 46  1  0
 28 31  1  0
 28 27  1  0
 29 30  1  0
 29 26  1  0
 30 28  2  0
 31 32  1  0
 32 33  2  0
 34 37  1  0
 34 33  1  0
 35 34  2  0
 36 35  1  0
 36 31  2  0
 37 38  1  0
 38 39  1  0
 39 40  2  0
 41 40  1  0
 41 45  1  0
 42 41  2  0
 43 38  2  0
 43 42  1  0
 44 43  1  0
 46 47  1  0
 47 49  1  0
 47 50  1  0
 48 46  2  0
 51 26  1  0
 51 52  1  0
 53 51  1  0
 54  4  1  0
 54 55  1  0
 56 67  2  0
 57 55  1  0
 57 62  1  0
 58 66  1  0
 58 68  1  0
 59 65  1  0
 59 61  1  0
 60 66  1  0
 61 60  1  0
 62 61  2  0
 63 64  1  0
 63 57  2  0
 64 59  2  0
 65 58  1  0
 66 56  1  0
 68 70  2  0
 69 68  1  0
 71 69  1  0
 72 81  2  0
 72 77  1  0
 73 69  1  0
 73 77  1  0
 74 73  1  0
 75 76  1  0
 75 74  1  0
 76 72  1  0
 77 78  2  0
 78 79  1  0
 80 79  2  0
 81 80  1  0
 82 56  1  0
 82 83  1  0
 82 92  1  0
 83 86  1  0
 84 88  1  0
 84 83  1  0
 85 84  2  0
 88 87  1  0
 90 88  1  0
 90 91  1  0
 90 89  1  0
 92 95  1  1
 92 93  1  0
 94 92  1  0
M  ISO  4  12 100  25 100  54 101  55 101
M  END
>  <TORSDO>  (90) 
F 18

>  <SCORE>  (90) 
-12.991

>  <name>  (90) 
91

>  <ligand_id>  (90) 
91

>  <original_smiles>  (90) 
[H]c1c([H])c([H])c2c(c1[H])C([H])([H])C([H])([H])C([H])([H])C2([H])N([H])C(=O)C1([H])N(C(=O)C([H])(N([H])C(=O)C([H])(N([H])C([H])([H])[H])C([H])([H])[H])C(C([H])([H])[H])(C([H])([H])[H])C([H])([H])[H])C([H])([H])c2c([H])c(OC([H])([H])c3c([H])c([H])c(N([H])C(=O)C4([H])C([H])([H])C([H])([H])N(C(=O)N5C([H])([H])C([H])([H])C([H])([H])C([H])(n6nc(-c7c([H])c([H])c(Oc8c([H])c([H])c(F)c([H])c8F)c([H])c7[H])c(C(=O)N([H])[H])c6N([H])[H])C5([H])[H])C([H])([H])C4([H])[H])c(C([H])([H])[H])c3[H])c([H])c([H])c2C1([H])[H]

>  <smiles>  (90) 
[H]c1c([H])c([H])c2c(c1[H])C([H])([H])C([H])([H])C([H])([H])C2([H])N([H])C(=O)C1([H])N(C(=O)C([H])(N([H])C(=O)C([H])(N([H])C([H])([H])[H])C([H])([H])[H])C(C([H])([H])[H])(C([H])([H])[H])C([H])([H])[H])C([H])([H])c2c([H])c(OC([H])([H])c3c([H])c([H])c(N([H])C(=O)C4([H])C([H])([H])C([H])([H])N(C(=O)N5C([H])([H])C([H])([H])C([H])([H])C([H])(n6nc(-c7c([H])c([H])c(Oc8c([H])c([H])c(F)c([H])c8F)c([H])c7[H])c(C(=O)N([H])[H])c6N([H])[H])C5([H])[H])C([H])([H])C4([H])[H])c(C([H])([H])[H])c3[H])c([H])c([H])c2C1([H])[H]

$$$$
92:0:0
     RDKit          3D

 94105  0  0  1  0  0  0  0  0999 V2000
  -29.0760  -23.3870   20.1730 C   0  0  0  0  0  0  0  0  0  0  0  0
  -28.7670  -21.8590   20.7840 C   0  0  0  0  0  3  0  0  0  0  0  0
  -32.1920  -20.1900   21.2900 C   0  0  0  0  0  2  0  0  0  0  0  0
  -32.9070  -21.0870   18.8120 C   0  0  0  0  0  2  0  0  0  0  0  0
  -30.5970  -18.2850   21.7300 C   0  0  0  0  0  2  0  0  0  0  0  0
  -31.2490  -22.7420   19.6830 C   0  0  0  0  0  2  0  0  0  0  0  0
  -29.5560  -20.3240   20.7780 C   0  0  0  0  0  3  0  0  0  0  0  0
  -32.4280  -19.9880   19.7680 C   0  0  0  0  0  3  0  0  0  0  0  0
  -30.7170  -19.8610   21.7460 C   0  0  0  0  0  3  0  0  0  0  0  0
  -31.4370  -21.5410   18.7060 C   0  0  0  0  0  3  0  0  0  0  0  0
  -31.1480  -19.9830   18.9200 C   0  0  0  0  0  3  0  0  0  0  0  0
  -29.9370  -19.2850   19.6060 C   0  0  0  0  0  3  0  0  0  0  0  0
  -30.4940  -17.8210   20.2500 C   0  0  0  0  0  3  0  0  0  0  0  0
  -30.1190  -23.6110   19.4840 N   0  0  0  0  0  2  0  0  0  0  0  0
  -30.7400  -15.0910   19.8840 C   0  0  0  0  0  0  0  0  0  0  0  0
  -30.5420  -12.7260   18.9690 C   0  0  0  0  0  2  0  0  0  0  0  0
  -29.5350  -12.6390   17.8000 C   0  0  0  0  0  2  0  0  0  0  0  0
  -28.1050  -12.4280   18.3310 C   0  0  0  0  0  2  0  0  0  0  0  0
  -27.7650  -13.3770   19.5090 C   0  0  0  0  0  3  0  0  0  0  0  0
  -28.8890  -13.4350   20.5650 C   0  0  0  0  0  2  0  0  0  0  0  0
  -30.1130  -13.8430   19.8610 N   0  0  0  0  0  0  0  0  0  0  0  0
  -31.9330  -15.1120   19.5660 O   0  0  0  0  0  0  0  0  0  0  0  0
  -30.0160  -16.3120   20.0700 N   0  0  0  0  0  0  0  0  0  0  0  0
  -29.0280  -16.1720   20.2170 H   0  0  0  0  0  0  0  0  0  0  0  0
  -25.4570  -13.9600   20.4430 C   0  0  0  0  0  0  0  0  0  0  0  0
  -24.4080  -13.1880   20.8580 C   0  0  0  0  0  0  0  0  0  0  0  0
  -24.8450  -11.8330   20.7450 C   0  0  0  0  0  0  0  0  0  0  0  0
  -26.4640  -13.0760   20.0950 N   0  0  0  0  0  0  0  0  0  0  0  0
  -26.1100  -11.7890   20.3440 N   0  0  0  0  0  0  0  0  0  0  0  0
  -24.1090  -10.5750   20.9390 C   0  0  0  0  0  0  0  0  0  0  0  0
  -24.5400   -9.6020   21.8660 C   0  0  0  0  0  3  0  0  0  0  0  0
  -23.8030   -8.4120   22.0500 C   0  0  0  0  0  3  0  0  0  0  0  0
  -22.6200   -8.1870   21.3060 C   0  0  0  0  0  0  0  0  0  0  0  0
  -22.2080   -9.1500   20.3680 C   0  0  0  0  0  3  0  0  0  0  0  0
  -22.9450  -10.3300   20.1820 C   0  0  0  0  0  3  0  0  0  0  0  0
  -21.8550   -7.0500   21.3990 O   0  0  0  0  0  0  0  0  0  0  0  0
  -21.7410   -6.3530   22.5750 C   0  0  0  0  0  0  0  0  0  0  0  0
  -21.2030   -6.9400   23.7410 C   0  0  0  0  0  3  0  0  0  0  0  0
  -21.0400   -6.1680   24.9070 C   0  0  0  0  0  3  0  0  0  0  0  0
  -21.4060   -4.8090   24.9100 C   0  0  0  0  0  0  0  0  0  0  0  0
  -21.9380   -4.2210   23.7490 C   0  0  0  0  0  3  0  0  0  0  0  0
  -22.1020   -4.9910   22.5840 C   0  0  0  0  0  0  0  0  0  0  0  0
  -22.5960   -4.4130   21.4620 F   0  0  0  0  0  0  0  0  0  0  0  0
  -21.2440   -4.0640   26.0290 F   0  0  0  0  0  0  0  0  0  0  0  0
  -23.0420  -13.6770   21.2420 C   0  0  0  0  0  0  0  0  0  0  0  0
  -22.3670  -12.9660   22.1380 N   0  0  0  0  0  0  0  0  0  0  0  0
  -22.5870  -14.7250   20.7840 O   0  0  0  0  0  0  0  0  0  0  0  0
  -22.7490  -12.1170   22.5250 H   0  0  0  0  0  0  0  0  0  0  0  0
  -21.4540  -13.2750   22.4400 H   0  0  0  0  0  0  0  0  0  0  0  0
  -25.6310  -15.3340   20.3040 N   0  0  0  0  0  0  0  0  0  0  0  0
  -24.8820  -15.9920   20.4950 H   0  0  0  0  0  0  0  0  0  0  0  0
  -26.4500  -15.7750   19.9080 H   0  0  0  0  0  0  0  0  0  0  0  0
  -27.9910  -24.6600   20.3390 C   0  0  0  0  0  2  0  0  0  0  0  0
  -28.3240  -26.1970   20.3790 O   0  0  0  0  0  0  0  0  0  0  0  0
  -24.6670  -31.9310   23.3010 C   0  0  0  0  0  0  0  0  0  0  0  0
  -27.2750  -27.1970   20.3070 C   0  0  0  0  0  0  0  0  0  0  0  0
  -23.4830  -30.5310   21.6570 C   0  0  0  0  0  3  0  0  0  0  0  0
  -24.9450  -28.9560   20.2470 C   0  0  0  0  0  0  0  0  0  0  0  0
  -26.0400  -30.7930   21.5120 C   0  0  0  0  0  2  0  0  0  0  0  0
  -26.1220  -29.3990   20.8650 C   0  0  0  0  0  0  0  0  0  0  0  0
  -27.2860  -28.5380   20.8770 C   0  0  0  0  0  3  0  0  0  0  0  0
  -26.0700  -26.8650   19.6490 C   0  0  0  0  0  3  0  0  0  0  0  0
  -24.9350  -27.7020   19.6210 C   0  0  0  0  0  3  0  0  0  0  0  0
  -23.7160  -29.8530   20.2810 C   0  0  0  0  0  2  0  0  0  0  0  0
  -24.7500  -31.1090   22.2110 N   0  0  0  0  0  0  0  0  0  0  0  0
  -23.5750  -32.2160   23.8190 O   0  0  0  0  0  0  0  0  0  0  0  0
  -22.7960  -29.5250   22.6150 C   0  0  0  0  0  0  0  0  0  0  0  0
  -21.4810  -29.3060   22.4380 N   0  0  0  0  0  0  0  0  0  0  0  0
  -23.4510  -28.9410   23.4820 O   0  0  0  0  0  0  0  0  0  0  0  0
  -21.0080  -29.8290   21.7140 H   0  0  0  0  0  0  0  0  0  0  0  0
  -18.1320  -27.9620   22.7910 C   0  0  0  0  0  0  0  0  0  0  0  0
  -20.6560  -28.3600   23.1970 C   0  0  0  0  0  3  0  0  0  0  0  0
  -20.8590  -26.9130   22.6900 C   0  0  0  0  0  2  0  0  0  0  0  0
  -19.8360  -26.4980   21.6260 C   0  0  0  0  0  2  0  0  0  0  0  0
  -18.4130  -26.5990   22.1810 C   0  0  0  0  0  2  0  0  0  0  0  0
  -19.1860  -28.7960   23.2520 C   0  0  0  0  0  0  0  0  0  0  0  0
  -18.8720  -30.0660   23.7790 C   0  0  0  0  0  3  0  0  0  0  0  0
  -17.5370  -30.5070   23.8520 C   0  0  0  0  0  3  0  0  0  0  0  0
  -16.4970  -29.6730   23.4050 C   0  0  0  0  0  3  0  0  0  0  0  0
  -16.7950  -28.4020   22.8810 C   0  0  0  0  0  3  0  0  0  0  0  0
  -25.9370  -32.5700   23.9390 C   0  0  0  0  0  3  0  0  0  0  0  0
  -25.6200  -33.9710   24.2600 N   0  0  0  0  0  0  0  0  0  0  0  0
  -25.9300  -35.0220   23.4870 C   0  0  0  0  0  0  0  0  0  0  0  0
  -26.5780  -34.9140   22.4430 O   0  0  0  0  0  0  0  0  0  0  0  0
  -25.0410  -34.1290   25.0710 H   0  0  0  0  0  0  0  0  0  0  0  0
  -24.1760  -36.8010   23.1680 C   0  0  0  0  0  1  0  0  0  0  0  0
  -25.4450  -36.4120   23.9450 C   0  0  0  0  0  3  0  0  0  0  0  0
  -27.5880  -37.3340   24.7110 C   0  0  0  0  0  1  0  0  0  0  0  0
  -26.4650  -37.4730   23.7890 N   0  0  0  0  0  0  0  0  0  0  0  0
  -26.0530  -38.3920   23.9270 H   0  0  0  0  0  0  0  0  0  0  0  0
  -26.4300  -31.8110   25.2310 C   0  0  1  0  0  0  0  0  0  0  0  0
  -25.3170  -31.5750   26.2790 C   0  0  0  0  0  1  0  0  0  0  0  0
  -27.0280  -30.4330   24.8630 C   0  0  0  0  0  1  0  0  0  0  0  0
  -27.5660  -32.6140   25.9090 C   0  0  0  0  0  1  0  0  0  0  0  0
  1 53  1  0
  1  2  2  0
  5  9  1  0
  7  2  1  0
  7  9  1  0
  8  4  1  0
  8  3  1  0
  9  3  1  0
 10  4  1  0
 10 11  1  0
 10  6  1  0
 11 12  1  0
 11  8  1  0
 12 13  1  0
 12  7  1  0
 13  5  1  0
 14  6  1  0
 14  1  1  0
 15 23  1  0
 16 21  1  0
 17 18  1  0
 17 16  1  0
 18 19  1  0
 19 28  1  0
 19 20  1  0
 21 15  1  0
 21 20  1  0
 22 15  2  0
 23 24  1  0
 23 13  1  0
 25 26  2  0
 26 45  1  0
 27 26  1  0
 27 30  1  0
 28 29  1  0
 28 25  1  0
 29 27  2  0
 30 31  1  0
 31 32  2  0
 33 36  1  0
 33 32  1  0
 34 33  2  0
 35 34  1  0
 35 30  2  0
 36 37  1  0
 37 42  2  0
 37 38  1  0
 38 39  2  0
 39 40  1  0
 40 44  1  0
 41 40  2  0
 42 41  1  0
 43 42  1  0
 45 46  1  0
 46 49  1  0
 46 48  1  0
 47 45  2  0
 50 25  1  0
 50 51  1  0
 52 50  1  0
 53 54  1  0
 55 66  2  0
 55 81  1  0
 56 54  1  0
 56 61  1  0
 57 65  1  0
 57 67  1  0
 58 64  1  0
 58 60  1  0
 59 65  1  0
 60 61  2  0
 60 59  1  0
 62 56  2  0
 63 62  1  0
 63 58  2  0
 64 57  1  0
 65 55  1  0
 67 69  2  0
 68 67  1  0
 68 72  1  0
 70 68  1  0
 71 80  2  0
 71 76  1  0
 72 76  1  0
 73 72  1  0
 74 75  1  0
 74 73  1  0
 75 71  1  0
 76 77  2  0
 77 78  1  0
 79 78  2  0
 80 79  1  0
 81 82  1  0
 81 91  1  0
 82 85  1  0
 83 87  1  0
 83 82  1  0
 84 83  2  0
 86 87  1  0
 89 90  1  0
 89 87  1  0
 89 88  1  0
 91 94  1  1
 91 92  1  0
 93 91  1  0
M  ISO  4  15 100  23 100  53 101  54 101
M  END
>  <TORSDO>  (91) 
F 17

>  <SCORE>  (91) 
-15.061

>  <name>  (91) 
92

>  <ligand_id>  (91) 
92

>  <original_smiles>  (91) 
[H]c1c([H])c([H])c2c(c1[H])C([H])([H])C([H])([H])C([H])([H])C2([H])N([H])C(=O)C1([H])N(C(=O)C([H])(N([H])C(=O)C([H])(N([H])C([H])([H])[H])C([H])([H])[H])C(C([H])([H])[H])(C([H])([H])[H])C([H])([H])[H])C([H])([H])c2c([H])c(OC([H])([H])C3=NC([H])([H])C4([H])C([H])([H])C5([H])C([H])([H])C6([H])C([H])([H])C([H])(N([H])C(=O)N7C([H])([H])C([H])([H])C([H])([H])C([H])(n8nc(-c9c([H])c([H])c(Oc%10c([H])c([H])c(F)c([H])c%10F)c([H])c9[H])c(C(=O)N([H])[H])c8N([H])[H])C7([H])[H])C([H])(C6([H])C3([H])[H])C45[H])c([H])c([H])c2C1([H])[H]

>  <smiles>  (91) 
[H]c1c([H])c([H])c2c(c1[H])C([H])([H])C([H])([H])C([H])([H])C2([H])N([H])C(=O)C1([H])N(C(=O)C([H])(N([H])C(=O)C([H])(N([H])C([H])([H])[H])C([H])([H])[H])C(C([H])([H])[H])(C([H])([H])[H])C([H])([H])[H])C([H])([H])c2c([H])c(OC([H])([H])C3=NC([H])([H])C4([H])C([H])([H])C5([H])C([H])([H])C6([H])C([H])([H])C([H])(N([H])C(=O)N7C([H])([H])C([H])([H])C([H])([H])C([H])(n8nc(-c9c([H])c([H])c(Oc%10c([H])c([H])c(F)c([H])c%10F)c([H])c9[H])c(C(=O)N([H])[H])c8N([H])[H])C7([H])[H])C([H])(C6([H])C3([H])[H])C45[H])c([H])c([H])c2C1([H])[H]

$$$$
93:0:0
     RDKit          3D

 94104  0  0  1  0  0  0  0  0999 V2000
  -27.3030  -20.0690   19.4380 C   0  0  0  0  0  3  0  0  0  0  0  0
  -27.1650  -18.6900   19.1710 C   0  0  0  0  0  3  0  0  0  0  0  0
  -29.6060  -19.6880   20.0180 C   0  0  0  0  0  3  0  0  0  0  0  0
  -28.5100  -20.6520   19.8940 C   0  0  0  0  0  0  0  0  0  0  0  0
  -29.4990  -18.2350   19.7660 C   0  0  0  0  0  0  0  0  0  0  0  0
  -28.2100  -17.7750   19.4020 C   0  0  0  0  0  0  0  0  0  0  0  0
  -28.0480  -16.4670   19.1110 F   0  0  0  0  0  0  0  0  0  0  0  0
  -27.1890  -22.8680   19.7230 C   0  0  0  0  0  2  0  0  0  0  0  0
  -28.4340  -22.2120   20.3340 C   0  0  0  0  0  3  0  0  0  0  0  0
  -28.3540  -23.7570   19.7530 C   0  0  0  0  0  3  0  0  0  0  0  0
  -28.1490  -25.0820   20.6360 C   0  0  0  0  0  2  0  0  0  0  0  0
  -28.1810  -26.5030   20.1580 O   0  0  0  0  0  0  0  0  0  0  0  0
  -24.6470  -31.9730   23.3970 C   0  0  0  0  0  0  0  0  0  0  0  0
  -27.0640  -27.3550   20.2490 C   0  0  0  0  0  0  0  0  0  0  0  0
  -23.3580  -30.6010   21.7970 C   0  0  0  0  0  3  0  0  0  0  0  0
  -24.7320  -29.0100   20.3240 C   0  0  0  0  0  0  0  0  0  0  0  0
  -25.8930  -30.8780   21.5300 C   0  0  0  0  0  2  0  0  0  0  0  0
  -25.9260  -29.4990   20.8690 C   0  0  0  0  0  0  0  0  0  0  0  0
  -27.1040  -28.6850   20.7960 C   0  0  0  0  0  3  0  0  0  0  0  0
  -25.8330  -26.9040   19.7440 C   0  0  0  0  0  3  0  0  0  0  0  0
  -24.6790  -27.7180   19.7710 C   0  0  0  0  0  3  0  0  0  0  0  0
  -23.5130  -29.9070   20.4170 C   0  0  0  0  0  2  0  0  0  0  0  0
  -24.6500  -31.1670   22.3000 N   0  0  0  0  0  0  0  0  0  0  0  0
  -23.5870  -32.2700   23.9650 O   0  0  0  0  0  0  0  0  0  0  0  0
  -22.7060  -29.6100   22.7810 C   0  0  0  0  0  0  0  0  0  0  0  0
  -21.4070  -29.3280   22.5860 N   0  0  0  0  0  0  0  0  0  0  0  0
  -23.3690  -29.0850   23.6770 O   0  0  0  0  0  0  0  0  0  0  0  0
  -20.9240  -29.7980   21.8340 H   0  0  0  0  0  0  0  0  0  0  0  0
  -18.1360  -27.8030   22.8680 C   0  0  0  0  0  0  0  0  0  0  0  0
  -20.6100  -28.3800   23.3630 C   0  0  0  0  0  3  0  0  0  0  0  0
  -20.9220  -26.9240   22.9480 C   0  0  0  0  0  2  0  0  0  0  0  0
  -19.9780  -26.3870   21.8650 C   0  0  0  0  0  2  0  0  0  0  0  0
  -18.5270  -26.4280   22.3520 C   0  0  0  0  0  2  0  0  0  0  0  0
  -19.1160  -28.7230   23.3300 C   0  0  0  0  0  0  0  0  0  0  0  0
  -18.7040  -30.0000   23.7680 C   0  0  0  0  0  3  0  0  0  0  0  0
  -17.3420  -30.3620   23.7540 C   0  0  0  0  0  3  0  0  0  0  0  0
  -16.3770  -29.4440   23.3110 C   0  0  0  0  0  3  0  0  0  0  0  0
  -16.7730  -28.1670   22.8740 C   0  0  0  0  0  3  0  0  0  0  0  0
  -25.9600  -32.5780   23.9810 C   0  0  0  0  0  3  0  0  0  0  0  0
  -26.4790  -31.8120   25.2580 C   0  0  1  0  0  0  0  0  0  0  0  0
  -25.3840  -31.5670   26.3210 C   0  0  0  0  0  1  0  0  0  0  0  0
  -27.0760  -30.4380   24.8770 C   0  0  0  0  0  1  0  0  0  0  0  0
  -27.6210  -32.6160   25.9210 C   0  0  0  0  0  1  0  0  0  0  0  0
  -25.6970  -33.9900   24.2960 N   0  0  0  0  0  0  0  0  0  0  0  0
  -26.0700  -35.0240   23.5330 C   0  0  0  0  0  0  0  0  0  0  0  0
  -26.7360  -34.8870   22.5030 O   0  0  0  0  0  0  0  0  0  0  0  0
  -25.0990  -34.1700   25.0880 H   0  0  0  0  0  0  0  0  0  0  0  0
  -24.4000  -36.8710   23.1700 C   0  0  0  0  0  1  0  0  0  0  0  0
  -25.6340  -36.4340   23.9760 C   0  0  0  0  0  3  0  0  0  0  0  0
  -27.8040  -37.2540   24.7790 C   0  0  0  0  0  1  0  0  0  0  0  0
  -26.7000  -37.4500   23.8430 N   0  0  0  0  0  0  0  0  0  0  0  0
  -26.3270  -38.3860   23.9830 H   0  0  0  0  0  0  0  0  0  0  0  0
  -30.7450  -17.3020   19.3910 C   0  0  0  0  0  3  0  0  0  0  0  0
  -31.2120  -14.8900   20.7900 C   0  0  0  0  0  3  0  0  0  0  0  0
  -30.9600  -12.6330   19.7540 C   0  0  0  0  0  2  0  0  0  0  0  0
  -30.0580  -12.6840   18.4950 C   0  0  0  0  0  2  0  0  0  0  0  0
  -28.5780  -12.5570   18.8720 C   0  0  0  0  0  2  0  0  0  0  0  0
  -28.1510  -13.5250   19.9990 C   0  0  0  0  0  3  0  0  0  0  0  0
  -29.1510  -13.4180   21.1700 C   0  0  0  0  0  2  0  0  0  0  0  0
  -30.4800  -13.7290   20.6200 N   0  0  0  0  0  0  0  0  0  0  0  0
  -32.3930  -14.7750   21.1280 O   0  0  0  0  0  1  0  0  0  0  0  0
  -31.1150  -15.8610   19.8010 N   0  0  0  0  0  0  0  0  0  0  0  0
  -32.1390  -15.9770   19.7600 H   0  0  0  0  0  0  0  0  0  0  0  0
  -25.7430  -14.2000   20.5880 C   0  0  0  0  0  0  0  0  0  0  0  0
  -24.6160  -13.4610   20.8270 C   0  0  0  0  0  0  0  0  0  0  0  0
  -25.0410  -12.1050   20.8330 C   0  0  0  0  0  0  0  0  0  0  0  0
  -26.7660  -13.2890   20.4080 N   0  0  0  0  0  0  0  0  0  0  0  0
  -26.3500  -12.0150   20.6490 N   0  0  0  0  0  0  0  0  0  0  0  0
  -24.2640  -10.8710   20.9770 C   0  0  0  0  0  0  0  0  0  0  0  0
  -24.6160   -9.9110   21.9440 C   0  0  0  0  0  3  0  0  0  0  0  0
  -23.8620   -8.7230   22.0860 C   0  0  0  0  0  3  0  0  0  0  0  0
  -22.7250   -8.5190   21.2580 C   0  0  0  0  0  0  0  0  0  0  0  0
  -22.3850   -9.4900   20.2920 C   0  0  0  0  0  3  0  0  0  0  0  0
  -23.1500  -10.6580   20.1550 C   0  0  0  0  0  3  0  0  0  0  0  0
  -21.9340   -7.4020   21.3040 O   0  0  0  0  0  0  0  0  0  0  0  0
  -21.7940   -6.6590   22.4420 C   0  0  0  0  0  0  0  0  0  0  0  0
  -21.3420   -7.2270   23.6530 C   0  0  0  0  0  3  0  0  0  0  0  0
  -21.1360   -6.4040   24.7840 C   0  0  0  0  0  3  0  0  0  0  0  0
  -21.3870   -5.0240   24.7000 C   0  0  0  0  0  0  0  0  0  0  0  0
  -21.8210   -4.4600   23.4880 C   0  0  0  0  0  3  0  0  0  0  0  0
  -22.0230   -5.2770   22.3660 C   0  0  0  0  0  0  0  0  0  0  0  0
  -22.4240   -4.7160   21.1950 F   0  0  0  0  0  0  0  0  0  0  0  0
  -21.1710   -4.2310   25.7810 F   0  0  0  0  0  0  0  0  0  0  0  0
  -23.2160  -13.9920   20.9400 C   0  0  0  0  0  0  0  0  0  0  0  0
  -22.3870  -13.3670   21.7640 N   0  0  0  0  0  0  0  0  0  0  0  0
  -22.8570  -14.9880   20.3290 O   0  0  0  0  0  0  0  0  0  0  0  0
  -22.7120  -12.5920   22.3100 H   0  0  0  0  0  0  0  0  0  0  0  0
  -21.4400  -13.7040   21.8640 H   0  0  0  0  0  0  0  0  0  0  0  0
  -25.9250  -15.5710   20.4940 N   0  0  0  0  0  0  0  0  0  0  0  0
  -25.4600  -16.1160   21.2190 H   0  0  0  0  0  0  0  0  0  0  0  0
  -26.7760  -16.0130   20.1660 H   0  0  0  0  0  0  0  0  0  0  0  0
  -31.5360  -16.5540   16.8530 C   0  0  0  0  0  2  0  0  0  0  0  0
  -32.2080  -17.8420   17.2010 C   0  0  0  0  0  2  0  0  0  0  0  0
  -30.8960  -17.5100   17.8550 C   0  0  0  0  0  3  0  0  0  0  0  0
  1  4  1  0
  2  6  1  0
  2  1  2  0
  4  3  2  0
  5  3  1  0
  6  5  2  0
  7  6  1  0
  8 10  1  0
  8  9  1  0
  9  4  1  0
 10  9  1  0
 10 11  1  0
 12 14  1  0
 12 11  1  0
 13 24  2  0
 14 19  1  0
 15 23  1  0
 15 25  1  0
 16 22  1  0
 16 18  1  0
 17 23  1  0
 18 17  1  0
 19 18  2  0
 20 21  1  0
 20 14  2  0
 21 16  2  0
 22 15  1  0
 23 13  1  0
 25 27  2  0
 26 25  1  0
 28 26  1  0
 29 38  2  0
 29 34  1  0
 30 26  1  0
 31 30  1  0
 32 33  1  0
 32 31  1  0
 33 29  1  0
 34 30  1  0
 34 35  2  0
 36 35  1  0
 37 36  2  0
 38 37  1  0
 39 13  1  0
 39 44  1  0
 39 40  1  0
 40 43  1  1
 40 41  1  0
 42 40  1  0
 44 47  1  0
 45 49  1  0
 45 44  1  0
 46 45  2  0
 49 48  1  0
 51 49  1  0
 51 52  1  0
 51 50  1  0
 53  5  1  0
 53 62  1  0
 54 61  1  0
 55 60  1  0
 56 57  1  0
 56 55  1  0
 58 57  1  0
 58 67  1  0
 58 59  1  0
 60 54  1  0
 60 59  1  0
 62 54  1  0
 63 62  1  0
 64 65  2  0
 65 66  1  0
 65 84  1  0
 66 69  1  0
 67 64  1  0
 67 68  1  0
 68 66  2  0
 69 70  1  0
 70 71  2  0
 72 75  1  0
 72 71  1  0
 73 72  2  0
 74 73  1  0
 74 69  2  0
 75 76  1  0
 76 77  1  0
 77 78  2  0
 79 78  1  0
 79 83  1  0
 80 79  2  0
 81 76  2  0
 81 80  1  0
 82 81  1  0
 84 85  1  0
 85 88  1  0
 85 87  1  0
 86 84  2  0
 89 64  1  0
 89 90  1  0
 91 89  1  0
 92 93  1  0
 92 94  1  0
 93 94  1  0
 94 53  1  0
M  ISO  4  11 101  12 101  54 100  62 100
M  END
>  <TORSDO>  (92) 
F 20

>  <SCORE>  (92) 
-12.940

>  <name>  (92) 
93

>  <ligand_id>  (92) 
93

>  <original_smiles>  (92) 
[H]c1c([H])c([H])c2c(c1[H])C([H])([H])C([H])([H])C([H])([H])C2([H])N([H])C(=O)C1([H])N(C(=O)C([H])(N([H])C(=O)C([H])(N([H])C([H])([H])[H])C([H])([H])[H])C(C([H])([H])[H])(C([H])([H])[H])C([H])([H])[H])C([H])([H])c2c([H])c(OC([H])([H])C3([H])C([H])([H])C3([H])c3c([H])c([H])c(F)c(C([H])(N([H])C(=O)N4C([H])([H])C([H])([H])C([H])([H])C([H])(n5nc(-c6c([H])c([H])c(Oc7c([H])c([H])c(F)c([H])c7F)c([H])c6[H])c(C(=O)N([H])[H])c5N([H])[H])C4([H])[H])C4([H])C([H])([H])C4([H])[H])c3[H])c([H])c([H])c2C1([H])[H]

>  <smiles>  (92) 
[H]c1c([H])c([H])c2c(c1[H])C([H])([H])C([H])([H])C([H])([H])C2([H])N([H])C(=O)C1([H])N(C(=O)C([H])(N([H])C(=O)C([H])(N([H])C([H])([H])[H])C([H])([H])[H])C(C([H])([H])[H])(C([H])([H])[H])C([H])([H])[H])C([H])([H])c2c([H])c(OC([H])([H])C3([H])C([H])([H])C3([H])c3c([H])c([H])c(F)c(C([H])(N([H])C(=O)N4C([H])([H])C([H])([H])C([H])([H])C([H])(n5nc(-c6c([H])c([H])c(Oc7c([H])c([H])c(F)c([H])c7F)c([H])c6[H])c(C(=O)N([H])[H])c5N([H])[H])C4([H])[H])C4([H])C([H])([H])C4([H])[H])c3[H])c([H])c([H])c2C1([H])[H]

$$$$
94:0:0
     RDKit          3D

 93101  0  0  1  0  0  0  0  0999 V2000
  -29.2930  -23.5960   19.7500 C   0  0  0  0  0  3  0  0  0  0  0  0
  -28.4200  -19.0250   20.7660 C   0  0  0  0  0  3  0  0  0  0  0  0
  -29.5160  -19.1630   19.9980 C   0  0  0  0  0  0  0  0  0  0  0  0
  -27.5640  -20.1880   21.2940 C   0  0  0  0  0  2  0  0  0  0  0  0
  -29.9110  -20.6940   19.6250 C   0  0  0  0  0  2  0  0  0  0  0  0
  -27.6940  -21.5420   20.5310 C   0  0  0  0  0  2  0  0  0  0  0  0
  -29.1500  -22.0030   20.3260 C   0  0  0  0  0  3  0  0  0  0  0  0
  -30.3850  -17.8550   19.5060 C   0  0  0  0  0  2  0  0  0  0  0  0
  -30.8630  -15.1700   19.5450 C   0  0  0  0  0  0  0  0  0  0  0  0
  -30.6940  -12.8060   18.6510 C   0  0  0  0  0  2  0  0  0  0  0  0
  -29.6230  -12.7030   17.5400 C   0  0  0  0  0  2  0  0  0  0  0  0
  -28.2290  -12.4610   18.1440 C   0  0  0  0  0  2  0  0  0  0  0  0
  -27.9390  -13.3960   19.3490 C   0  0  0  0  0  3  0  0  0  0  0  0
  -29.1190  -13.4590   20.3440 C   0  0  0  0  0  2  0  0  0  0  0  0
  -30.2990  -13.8980   19.5890 N   0  0  0  0  0  0  0  0  0  0  0  0
  -31.9930  -15.2710   19.0600 O   0  0  0  0  0  0  0  0  0  0  0  0
  -30.1100  -16.3380   19.8440 N   0  0  0  0  0  0  0  0  0  0  0  0
  -29.2010  -16.1560   20.2380 H   0  0  0  0  0  0  0  0  0  0  0  0
  -25.7140  -13.9110   20.5040 C   0  0  0  0  0  0  0  0  0  0  0  0
  -24.6940  -13.1090   20.9350 C   0  0  0  0  0  0  0  0  0  0  0  0
  -25.1050  -11.7680   20.6730 C   0  0  0  0  0  0  0  0  0  0  0  0
  -26.6820  -13.0570   20.0050 N   0  0  0  0  0  0  0  0  0  0  0  0
  -26.3340  -11.7530   20.1710 N   0  0  0  0  0  0  0  0  0  0  0  0
  -24.3740  -10.5020   20.8220 C   0  0  0  0  0  0  0  0  0  0  0  0
  -24.8080   -9.4970   21.7150 C   0  0  0  0  0  3  0  0  0  0  0  0
  -24.0760   -8.2970   21.8530 C   0  0  0  0  0  3  0  0  0  0  0  0
  -22.8950   -8.0940   21.0980 C   0  0  0  0  0  0  0  0  0  0  0  0
  -22.4800   -9.0910   20.1950 C   0  0  0  0  0  3  0  0  0  0  0  0
  -23.2120  -10.2810   20.0560 C   0  0  0  0  0  3  0  0  0  0  0  0
  -22.1340   -6.9510   21.1500 O   0  0  0  0  0  0  0  0  0  0  0  0
  -21.9500   -6.2620   22.3210 C   0  0  0  0  0  0  0  0  0  0  0  0
  -21.3620   -6.8670   23.4550 C   0  0  0  0  0  3  0  0  0  0  0  0
  -21.1220   -6.1030   24.6140 C   0  0  0  0  0  3  0  0  0  0  0  0
  -21.4640   -4.7370   24.6410 C   0  0  0  0  0  0  0  0  0  0  0  0
  -22.0440   -4.1330   23.5130 C   0  0  0  0  0  3  0  0  0  0  0  0
  -22.2820   -4.8940   22.3540 C   0  0  0  0  0  0  0  0  0  0  0  0
  -22.8220   -4.3020   21.2610 F   0  0  0  0  0  0  0  0  0  0  0  0
  -21.2280   -4.0000   25.7530 F   0  0  0  0  0  0  0  0  0  0  0  0
  -23.3690  -13.5700   21.4680 C   0  0  0  0  0  0  0  0  0  0  0  0
  -22.7690  -12.7970   22.3670 N   0  0  0  0  0  0  0  0  0  0  0  0
  -22.8810  -14.6450   21.1240 O   0  0  0  0  0  0  0  0  0  0  0  0
  -23.1860  -11.9250   22.6620 H   0  0  0  0  0  0  0  0  0  0  0  0
  -21.8870  -13.0830   22.7660 H   0  0  0  0  0  0  0  0  0  0  0  0
  -25.8900  -15.2910   20.4670 N   0  0  0  0  0  0  0  0  0  0  0  0
  -25.1630  -15.9260   20.7780 H   0  0  0  0  0  0  0  0  0  0  0  0
  -26.6760  -15.7670   20.0460 H   0  0  0  0  0  0  0  0  0  0  0  0
  -30.7980  -23.9480   19.6070 C   0  0  0  0  0  2  0  0  0  0  0  0
  -31.4840  -24.2200   20.8870 N   0  0  0  0  0  4  0  0  0  0  0  0
  -31.1570  -25.0770   21.2980 H   0  0  0  0  0  0  0  0  0  0  0  0
  -32.4690  -24.3280   20.7190 H   0  0  0  0  0  0  0  0  0  0  0  0
  -31.3670  -23.4740   21.5490 H   0  0  0  0  0  0  0  0  0  0  0  0
  -28.4320  -24.9440   20.3010 C   0  0  0  0  0  2  0  0  0  0  0  0
  -28.6300  -26.4420   19.9250 O   0  0  0  0  0  0  0  0  0  0  0  0
  -24.9910  -31.8730   23.3140 C   0  0  0  0  0  0  0  0  0  0  0  0
  -27.5560  -27.3990   19.9670 C   0  0  0  0  0  0  0  0  0  0  0  0
  -23.7840  -30.6040   21.5770 C   0  0  0  0  0  3  0  0  0  0  0  0
  -25.2280  -29.1340   20.0410 C   0  0  0  0  0  0  0  0  0  0  0  0
  -26.3370  -30.8790   21.4350 C   0  0  0  0  0  2  0  0  0  0  0  0
  -26.4060  -29.5370   20.6850 C   0  0  0  0  0  0  0  0  0  0  0  0
  -27.5680  -28.6870   20.6310 C   0  0  0  0  0  3  0  0  0  0  0  0
  -26.3610  -27.0950   19.2840 C   0  0  0  0  0  3  0  0  0  0  0  0
  -25.2180  -27.9270   19.3220 C   0  0  0  0  0  3  0  0  0  0  0  0
  -24.0050  -30.0310   20.1490 C   0  0  0  0  0  2  0  0  0  0  0  0
  -25.0560  -31.1390   22.1630 N   0  0  0  0  0  0  0  0  0  0  0  0
  -23.9070  -32.1200   23.8630 O   0  0  0  0  0  0  0  0  0  0  0  0
  -23.1030  -29.5310   22.4610 C   0  0  0  0  0  0  0  0  0  0  0  0
  -21.7710  -29.3940   22.3420 N   0  0  0  0  0  0  0  0  0  0  0  0
  -23.7770  -28.8310   23.2230 O   0  0  0  0  0  0  0  0  0  0  0  0
  -21.2840  -30.0140   21.7090 H   0  0  0  0  0  0  0  0  0  0  0  0
  -18.3730  -28.2300   22.8250 C   0  0  0  0  0  0  0  0  0  0  0  0
  -20.9430  -28.4110   23.0440 C   0  0  0  0  0  3  0  0  0  0  0  0
  -20.9960  -27.0350   22.3410 C   0  0  0  0  0  2  0  0  0  0  0  0
  -19.8650  -26.8290   21.3310 C   0  0  0  0  0  2  0  0  0  0  0  0
  -18.5020  -26.9460   22.0210 C   0  0  0  0  0  2  0  0  0  0  0  0
  -19.5210  -28.9260   23.2910 C   0  0  0  0  0  0  0  0  0  0  0  0
  -19.3490  -30.1310   24.0050 C   0  0  0  0  0  3  0  0  0  0  0  0
  -18.0620  -30.6450   24.2510 C   0  0  0  0  0  3  0  0  0  0  0  0
  -16.9290  -29.9450   23.8000 C   0  0  0  0  0  3  0  0  0  0  0  0
  -17.0850  -28.7390   23.0950 C   0  0  0  0  0  3  0  0  0  0  0  0
  -26.2740  -32.4530   23.9810 C   0  0  0  0  0  3  0  0  0  0  0  0
  -25.9500  -33.8070   24.4610 N   0  0  0  0  0  0  0  0  0  0  0  0
  -26.2450  -34.9410   23.8120 C   0  0  0  0  0  0  0  0  0  0  0  0
  -26.8810  -34.9580   22.7550 O   0  0  0  0  0  0  0  0  0  0  0  0
  -25.3640  -33.8630   25.2810 H   0  0  0  0  0  0  0  0  0  0  0  0
  -24.4680  -36.7260   23.7350 C   0  0  0  0  0  1  0  0  0  0  0  0
  -25.7590  -36.2660   24.4340 C   0  0  0  0  0  3  0  0  0  0  0  0
  -27.9170  -37.1150   25.2530 C   0  0  0  0  0  1  0  0  0  0  0  0
  -26.7690  -37.3480   24.3790 N   0  0  0  0  0  0  0  0  0  0  0  0
  -26.3520  -38.2400   24.6320 H   0  0  0  0  0  0  0  0  0  0  0  0
  -26.8190  -31.5590   25.1620 C   0  0  1  0  0  0  0  0  0  0  0  0
  -25.7450  -31.1940   26.2100 C   0  0  0  0  0  1  0  0  0  0  0  0
  -27.4190  -30.2380   24.6330 C   0  0  0  0  0  1  0  0  0  0  0  0
  -27.9670  -32.3000   25.8880 C   0  0  0  0  0  1  0  0  0  0  0  0
  1 47  1  0
  1 52  1  0
  2  4  1  0
  3  2  2  0
  5  3  1  0
  5  7  1  0
  6  4  1  0
  7  1  1  0
  7  6  1  0
  8 17  1  0
  8  3  1  0
  9 15  1  0
  9 17  1  0
 10 15  1  0
 11 12  1  0
 11 10  1  0
 13 12  1  0
 13 22  1  0
 13 14  1  0
 15 14  1  0
 16  9  2  0
 17 18  1  0
 19 20  2  0
 20 39  1  0
 21 24  1  0
 21 20  1  0
 22 23  1  0
 22 19  1  0
 23 21  2  0
 24 25  1  0
 25 26  2  0
 27 30  1  0
 27 26  1  0
 28 27  2  0
 29 28  1  0
 29 24  2  0
 30 31  1  0
 31 36  2  0
 31 32  1  0
 32 33  2  0
 33 34  1  0
 34 38  1  0
 35 34  2  0
 36 35  1  0
 37 36  1  0
 39 40  1  0
 40 42  1  0
 40 43  1  0
 41 39  2  0
 44 19  1  0
 44 45  1  0
 46 44  1  0
 47 48  1  0
 48 49  1  0
 48 51  1  0
 50 48  1  0
 53 55  1  0
 53 52  1  0
 54 65  2  0
 55 60  1  0
 56 64  1  0
 56 66  1  0
 57 63  1  0
 57 59  1  0
 58 64  1  0
 59 58  1  0
 60 59  2  0
 61 62  1  0
 61 55  2  0
 62 57  2  0
 63 56  1  0
 64 54  1  0
 66 68  2  0
 67 66  1  0
 69 67  1  0
 70 79  2  0
 70 75  1  0
 71 67  1  0
 71 75  1  0
 72 71  1  0
 73 74  1  0
 73 72  1  0
 74 70  1  0
 75 76  2  0
 76 77  1  0
 78 77  2  0
 79 78  1  0
 80 54  1  0
 80 81  1  0
 80 90  1  0
 81 84  1  0
 82 86  1  0
 82 81  1  0
 83 82  2  0
 86 85  1  0
 88 86  1  0
 88 89  1  0
 88 87  1  0
 90 93  1  1
 90 91  1  0
 92 90  1  0
M  ISO  4   9 100  17 100  52 101  53 101
M  END
>  <TORSDO>  (93) 
F 21

>  <SCORE>  (93) 
-10.564

>  <name>  (93) 
94

>  <ligand_id>  (93) 
94

>  <original_smiles>  (93) 
[H]C1=C(C([H])([H])N([H])C(=O)N2C([H])([H])C([H])([H])C([H])([H])C([H])(n3nc(-c4c([H])c([H])c(Oc5c([H])c([H])c(F)c([H])c5F)c([H])c4[H])c(C(=O)N([H])[H])c3N([H])[H])C2([H])[H])C([H])([H])C([H])(C([H])(C([H])([H])Oc2c([H])c([H])c3c(c2[H])C([H])([H])N(C(=O)C([H])(N([H])C(=O)C([H])(N([H])C([H])([H])[H])C([H])([H])[H])C(C([H])([H])[H])(C([H])([H])[H])C([H])([H])[H])C([H])(C(=O)N([H])C2([H])c4c([H])c([H])c([H])c([H])c4C([H])([H])C([H])([H])C2([H])[H])C3([H])[H])C([H])([H])[N+]([H])([H])[H])C([H])([H])C1([H])[H]

>  <smiles>  (93) 
[H]C1=C(C([H])([H])N([H])C(=O)N2C([H])([H])C([H])([H])C([H])([H])C([H])(n3nc(-c4c([H])c([H])c(Oc5c([H])c([H])c(F)c([H])c5F)c([H])c4[H])c(C(=O)N([H])[H])c3N([H])[H])C2([H])[H])C([H])([H])C([H])(C([H])(C([H])([H])Oc2c([H])c([H])c3c(c2[H])C([H])([H])N(C(=O)C([H])(N([H])C(=O)C([H])(N([H])C([H])([H])[H])C([H])([H])[H])C(C([H])([H])[H])(C([H])([H])[H])C([H])([H])[H])C([H])(C(=O)N([H])C2([H])c4c([H])c([H])c([H])c([H])c4C([H])([H])C([H])([H])C2([H])[H])C3([H])[H])C([H])([H])[N+]([H])([H])[H])C([H])([H])C1([H])[H]

$$$$
95:0:0
     RDKit          3D

 96105  0  0  1  0  0  0  0  0999 V2000
  -30.8120  -20.0150   17.3000 C   0  0  0  0  0  2  0  0  0  0  0  0
  -29.5850  -17.9180   18.4430 C   0  0  0  0  0  2  0  0  0  0  0  0
  -29.5220  -20.0000   19.6140 C   0  0  0  0  0  3  0  0  0  0  0  0
  -30.8300  -18.6950   18.0370 C   0  0  0  0  0  3  0  0  0  0  0  0
  -30.8000  -19.9960   18.8070 C   0  0  0  0  0  3  0  0  0  0  0  0
  -29.2300  -18.4050   19.8780 C   0  0  1  0  0  0  0  0  0  0  0  0
  -29.4060  -21.2760   20.5620 C   0  0  0  0  0  0  0  0  0  0  0  0
  -29.0410  -22.4940   20.0120 N   0  0  0  0  0  0  0  0  0  0  0  0
  -29.6860  -21.1740   21.7570 O   0  0  0  0  0  0  0  0  0  0  0  0
  -28.7940  -22.4480   19.0310 H   0  0  0  0  0  0  0  0  0  0  0  0
  -29.1350  -23.9150   20.5550 C   0  0  0  0  0  3  0  0  0  0  0  0
  -28.1590  -25.0390   19.9400 C   0  0  0  0  0  3  0  0  0  0  0  0
  -28.3400  -26.5000   20.2320 O   0  0  0  0  0  0  0  0  0  0  0  0
  -24.6190  -31.9310   23.2480 C   0  0  0  0  0  0  0  0  0  0  0  0
  -27.2320  -27.3740   20.1590 C   0  0  0  0  0  0  0  0  0  0  0  0
  -23.4150  -30.5430   21.6000 C   0  0  0  0  0  3  0  0  0  0  0  0
  -24.8660  -29.0050   20.1580 C   0  0  0  0  0  0  0  0  0  0  0  0
  -25.9550  -30.8600   21.4170 C   0  0  0  0  0  2  0  0  0  0  0  0
  -26.0350  -29.4830   20.7610 C   0  0  0  0  0  0  0  0  0  0  0  0
  -27.2180  -28.6790   20.7550 C   0  0  0  0  0  3  0  0  0  0  0  0
  -26.0410  -26.9690   19.5090 C   0  0  0  0  0  3  0  0  0  0  0  0
  -24.8730  -27.7540   19.5220 C   0  0  0  0  0  3  0  0  0  0  0  0
  -23.6280  -29.8770   20.2150 C   0  0  0  0  0  2  0  0  0  0  0  0
  -24.6820  -31.1290   22.1450 N   0  0  0  0  0  0  0  0  0  0  0  0
  -23.5360  -32.2030   23.7870 O   0  0  0  0  0  0  0  0  0  0  0  0
  -22.7560  -29.5190   22.5560 C   0  0  0  0  0  0  0  0  0  0  0  0
  -21.4330  -29.3220   22.4130 N   0  0  0  0  0  0  0  0  0  0  0  0
  -23.4320  -28.9030   23.3820 O   0  0  0  0  0  0  0  0  0  0  0  0
  -20.9460  -29.8730   21.7190 H   0  0  0  0  0  0  0  0  0  0  0  0
  -18.0720  -28.0570   22.8500 C   0  0  0  0  0  0  0  0  0  0  0  0
  -20.6170  -28.3750   23.1750 C   0  0  0  0  0  3  0  0  0  0  0  0
  -20.7630  -26.9410   22.6160 C   0  0  0  0  0  2  0  0  0  0  0  0
  -19.6930  -26.5840   21.5800 C   0  0  0  0  0  2  0  0  0  0  0  0
  -18.2940  -26.7040   22.1930 C   0  0  0  0  0  2  0  0  0  0  0  0
  -19.1640  -28.8480   23.2970 C   0  0  0  0  0  0  0  0  0  0  0  0
  -18.9070  -30.1100   23.8720 C   0  0  0  0  0  3  0  0  0  0  0  0
  -17.5890  -30.5840   24.0080 C   0  0  0  0  0  3  0  0  0  0  0  0
  -16.5100  -29.7920   23.5790 C   0  0  0  0  0  3  0  0  0  0  0  0
  -16.7510  -28.5300   23.0050 C   0  0  0  0  0  3  0  0  0  0  0  0
  -25.9010  -32.5630   23.8720 C   0  0  0  0  0  3  0  0  0  0  0  0
  -25.5940  -33.9650   24.1920 N   0  0  0  0  0  0  0  0  0  0  0  0
  -25.9340  -35.0120   23.4290 C   0  0  0  0  0  0  0  0  0  0  0  0
  -26.6070  -34.9010   22.4010 O   0  0  0  0  0  0  0  0  0  0  0  0
  -24.9890  -34.1240   24.9830 H   0  0  0  0  0  0  0  0  0  0  0  0
  -24.2140  -36.8150   23.0640 C   0  0  0  0  0  1  0  0  0  0  0  0
  -25.4510  -36.4060   23.8800 C   0  0  0  0  0  3  0  0  0  0  0  0
  -27.5860  -37.2890   24.7140 C   0  0  0  0  0  1  0  0  0  0  0  0
  -26.4880  -37.4540   23.7650 N   0  0  0  0  0  0  0  0  0  0  0  0
  -26.0860  -38.3770   23.9040 H   0  0  0  0  0  0  0  0  0  0  0  0
  -26.4040  -31.8000   25.1590 C   0  0  1  0  0  0  0  0  0  0  0  0
  -25.3030  -31.5770   26.2220 C   0  0  0  0  0  1  0  0  0  0  0  0
  -26.9820  -30.4150   24.7840 C   0  0  0  0  0  1  0  0  0  0  0  0
  -27.5540  -32.5920   25.8230 C   0  0  0  0  0  1  0  0  0  0  0  0
  -27.7990  -18.1840   20.1770 N   0  0  0  0  0  4  0  0  0  0  0  0
  -27.2040  -18.6670   19.5270 H   0  0  0  0  0  0  0  0  0  0  0  0
  -27.5790  -18.5130   21.1010 H   0  0  0  0  0  0  0  0  0  0  0  0
  -27.5690  -17.2110   20.1350 H   0  0  0  0  0  0  0  0  0  0  0  0
  -30.1050  -17.4230   20.8250 C   0  0  0  0  0  2  0  0  0  0  0  0
  -30.5660  -14.8200   20.5180 C   0  0  0  0  0  0  0  0  0  0  0  0
  -30.3940  -12.5570   19.4740 C   0  0  0  0  0  2  0  0  0  0  0  0
  -29.4800  -12.6490   18.2330 C   0  0  0  0  0  2  0  0  0  0  0  0
  -28.0040  -12.4630   18.6310 C   0  0  0  0  0  2  0  0  0  0  0  0
  -27.6030  -13.3310   19.8530 C   0  0  0  0  0  3  0  0  0  0  0  0
  -28.6400  -13.2300   20.9950 C   0  0  0  0  0  2  0  0  0  0  0  0
  -29.9490  -13.5930   20.4340 N   0  0  0  0  0  0  0  0  0  0  0  0
  -31.7410  -14.9530   20.1710 O   0  0  0  0  0  0  0  0  0  0  0  0
  -29.7790  -15.9200   20.8080 N   0  0  0  0  0  0  0  0  0  0  0  0
  -28.8560  -15.6620   21.1200 H   0  0  0  0  0  0  0  0  0  0  0  0
  -25.1900  -13.9030   20.5120 C   0  0  0  0  0  0  0  0  0  0  0  0
  -24.1270  -13.1240   20.8800 C   0  0  0  0  0  0  0  0  0  0  0  0
  -24.6020  -11.7770   20.8680 C   0  0  0  0  0  0  0  0  0  0  0  0
  -26.2490  -13.0330   20.3110 N   0  0  0  0  0  0  0  0  0  0  0  0
  -25.9000  -11.7490   20.5840 N   0  0  0  0  0  0  0  0  0  0  0  0
  -23.8830  -10.5080   21.0470 C   0  0  0  0  0  0  0  0  0  0  0  0
  -24.3020   -9.5500   21.9970 C   0  0  0  0  0  3  0  0  0  0  0  0
  -23.5850   -8.3460   22.1640 C   0  0  0  0  0  3  0  0  0  0  0  0
  -22.4350   -8.0900   21.3820 C   0  0  0  0  0  0  0  0  0  0  0  0
  -22.0360   -9.0360   20.4190 C   0  0  0  0  0  3  0  0  0  0  0  0
  -22.7550  -10.2310   20.2500 C   0  0  0  0  0  3  0  0  0  0  0  0
  -21.6900   -6.9380   21.4590 O   0  0  0  0  0  0  0  0  0  0  0  0
  -21.6120   -6.2080   22.6180 C   0  0  0  0  0  0  0  0  0  0  0  0
  -21.1250   -6.7700   23.8200 C   0  0  0  0  0  3  0  0  0  0  0  0
  -20.9970   -5.9650   24.9700 C   0  0  0  0  0  3  0  0  0  0  0  0
  -21.3430   -4.6010   24.9200 C   0  0  0  0  0  0  0  0  0  0  0  0
  -21.8220   -4.0410   23.7230 C   0  0  0  0  0  3  0  0  0  0  0  0
  -21.9530   -4.8420   22.5750 C   0  0  0  0  0  0  0  0  0  0  0  0
  -22.3950   -4.2910   21.4190 F   0  0  0  0  0  0  0  0  0  0  0  0
  -21.2120   -3.8270   26.0220 F   0  0  0  0  0  0  0  0  0  0  0  0
  -22.7170  -13.5870   21.1110 C   0  0  0  0  0  0  0  0  0  0  0  0
  -21.9710  -12.8870   21.9560 N   0  0  0  0  0  0  0  0  0  0  0  0
  -22.2880  -14.6080   20.5740 O   0  0  0  0  0  0  0  0  0  0  0  0
  -22.3300  -12.0600   22.4130 H   0  0  0  0  0  0  0  0  0  0  0  0
  -21.0260  -13.1830   22.1550 H   0  0  0  0  0  0  0  0  0  0  0  0
  -25.3470  -15.2680   20.2860 N   0  0  0  0  0  0  0  0  0  0  0  0
  -24.4670  -15.7720   20.2470 H   0  0  0  0  0  0  0  0  0  0  0  0
  -25.8890  -15.4410   19.4500 H   0  0  0  0  0  0  0  0  0  0  0  0
  2  6  1  0
  3  6  1  0
  3  7  1  0
  4  1  1  0
  4  2  1  0
  4  5  1  0
  5  1  1  0
  5  3  1  0
  6 54  1  0
  6 58  1  1
  7  9  2  0
  8 11  1  0
  8  7  1  0
 10  8  1  0
 12 13  1  0
 12 11  2  0
 14 25  2  0
 15 13  1  0
 15 20  1  0
 16 24  1  0
 16 26  1  0
 17 23  1  0
 17 19  1  0
 18 24  1  0
 19 18  1  0
 20 19  2  0
 21 22  1  0
 21 15  2  0
 22 17  2  0
 23 16  1  0
 24 14  1  0
 26 28  2  0
 27 26  1  0
 29 27  1  0
 30 39  2  0
 30 35  1  0
 31 27  1  0
 31 35  1  0
 32 31  1  0
 33 34  1  0
 33 32  1  0
 34 30  1  0
 35 36  2  0
 36 37  1  0
 38 37  2  0
 39 38  1  0
 40 14  1  0
 40 41  1  0
 40 50  1  0
 41 44  1  0
 42 46  1  0
 42 41  1  0
 43 42  2  0
 46 45  1  0
 48 46  1  0
 48 49  1  0
 48 47  1  0
 50 53  1  1
 50 51  1  0
 52 50  1  0
 54 56  1  0
 55 54  1  0
 57 54  1  0
 59 67  1  0
 60 65  1  0
 61 62  1  0
 61 60  1  0
 63 62  1  0
 63 72  1  0
 63 64  1  0
 65 59  1  0
 65 64  1  0
 66 59  2  0
 67 58  1  0
 67 68  1  0
 69 70  2  0
 70 89  1  0
 71 70  1  0
 71 74  1  0
 72 69  1  0
 72 73  1  0
 73 71  2  0
 74 75  1  0
 75 76  2  0
 77 80  1  0
 77 76  1  0
 78 77  2  0
 79 78  1  0
 79 74  2  0
 80 81  1  0
 81 82  1  0
 82 83  2  0
 84 83  1  0
 84 88  1  0
 85 84  2  0
 86 81  2  0
 86 85  1  0
 87 86  1  0
 89 90  1  0
 90 93  1  0
 90 92  1  0
 91 89  2  0
 94 69  1  0
 95 94  1  0
 96 94  1  0
M  ISO  4  12 101  13 101  59 100  67 100
M  END
>  <TORSDO>  (94) 
F 21

>  <SCORE>  (94) 
-13.928

>  <name>  (94) 
95

>  <ligand_id>  (94) 
95

>  <original_smiles>  (94) 
[H]c1c([H])c([H])c2c(c1[H])C([H])([H])C([H])([H])C([H])([H])C2([H])N([H])C(=O)C1([H])N(C(=O)C([H])(N([H])C(=O)C([H])(N([H])C([H])([H])[H])C([H])([H])[H])C(C([H])([H])[H])(C([H])([H])[H])C([H])([H])[H])C([H])([H])c2c([H])c(OC([H])([H])C([H])([H])N([H])C(=O)C3([H])C4([H])C([H])([H])C4([H])C([H])([H])C3(C([H])([H])N([H])C(=O)N3C([H])([H])C([H])([H])C([H])([H])C([H])(n4nc(-c5c([H])c([H])c(Oc6c([H])c([H])c(F)c([H])c6F)c([H])c5[H])c(C(=O)N([H])[H])c4N([H])[H])C3([H])[H])[N+]([H])([H])[H])c([H])c([H])c2C1([H])[H]

>  <smiles>  (94) 
[H]c1c([H])c([H])c2c(c1[H])C([H])([H])C([H])([H])C([H])([H])C2([H])N([H])C(=O)C1([H])N(C(=O)C([H])(N([H])C(=O)C([H])(N([H])C([H])([H])[H])C([H])([H])[H])C(C([H])([H])[H])(C([H])([H])[H])C([H])([H])[H])C([H])([H])c2c([H])c(OC([H])([H])C([H])([H])N([H])C(=O)C3([H])C4([H])C([H])([H])C4([H])C([H])([H])C3(C([H])([H])N([H])C(=O)N3C([H])([H])C([H])([H])C([H])([H])C([H])(n4nc(-c5c([H])c([H])c(Oc6c([H])c([H])c(F)c([H])c6F)c([H])c5[H])c(C(=O)N([H])[H])c4N([H])[H])C3([H])[H])[N+]([H])([H])[H])c([H])c([H])c2C1([H])[H]

$$$$
96:0:0
     RDKit          3D

 97106  0  0  1  0  0  0  0  0999 V2000
  -29.7230  -20.0340   20.1970 C   0  0  0  0  0  2  0  0  0  0  0  0
  -29.3050  -20.3950   21.5500 C   0  0  0  0  0  3  0  0  0  0  0  0
  -30.0470  -18.9710   21.2470 C   0  0  0  0  0  3  0  0  0  0  0  0
  -29.7890  -21.8820   21.8450 C   0  0  0  0  0  2  0  0  0  0  0  0
  -28.8660  -22.9740   21.3090 N   0  0  0  0  0  4  0  0  0  0  0  0
  -28.0340  -22.9520   21.8820 H   0  0  0  0  0  0  0  0  0  0  0  0
  -28.5820  -22.6850   20.3840 H   0  0  0  0  0  0  0  0  0  0  0  0
  -29.3480  -24.4270   21.2020 C   0  0  0  0  0  3  0  0  0  0  0  0
  -28.2510  -25.4870   20.7090 C   0  0  0  0  0  3  0  0  0  0  0  0
  -28.5680  -26.9330   20.5060 O   0  0  0  0  0  0  0  0  0  0  0  0
  -24.8430  -32.2140   23.6430 C   0  0  0  0  0  0  0  0  0  0  0  0
  -27.4730  -27.8150   20.4120 C   0  0  0  0  0  0  0  0  0  0  0  0
  -23.6470  -30.9070   21.9170 C   0  0  0  0  0  3  0  0  0  0  0  0
  -25.1140  -29.4370   20.4180 C   0  0  0  0  0  0  0  0  0  0  0  0
  -26.1860  -31.2420   21.7670 C   0  0  0  0  0  2  0  0  0  0  0  0
  -26.2740  -29.8960   21.0540 C   0  0  0  0  0  0  0  0  0  0  0  0
  -27.4600  -29.1010   21.0360 C   0  0  0  0  0  3  0  0  0  0  0  0
  -26.2960  -27.4240   19.7290 C   0  0  0  0  0  3  0  0  0  0  0  0
  -25.1290  -28.2120   19.7340 C   0  0  0  0  0  3  0  0  0  0  0  0
  -23.8770  -30.3090   20.5030 C   0  0  0  0  0  2  0  0  0  0  0  0
  -24.9090  -31.4670   22.5000 N   0  0  0  0  0  0  0  0  0  0  0  0
  -23.7570  -32.4620   24.1890 O   0  0  0  0  0  0  0  0  0  0  0  0
  -22.9750  -29.8420   22.8170 C   0  0  0  0  0  0  0  0  0  0  0  0
  -21.6610  -29.6250   22.6240 N   0  0  0  0  0  0  0  0  0  0  0  0
  -23.6380  -29.2080   23.6420 O   0  0  0  0  0  0  0  0  0  0  0  0
  -21.1870  -30.1940   21.9350 H   0  0  0  0  0  0  0  0  0  0  0  0
  -18.3220  -28.2610   22.8850 C   0  0  0  0  0  0  0  0  0  0  0  0
  -20.8410  -28.6390   23.3290 C   0  0  0  0  0  3  0  0  0  0  0  0
  -21.0510  -27.2220   22.7470 C   0  0  0  0  0  2  0  0  0  0  0  0
  -20.0410  -26.8610   21.6550 C   0  0  0  0  0  2  0  0  0  0  0  0
  -18.6140  -26.9300   22.2060 C   0  0  0  0  0  2  0  0  0  0  0  0
  -19.3720  -29.0680   23.3990 C   0  0  0  0  0  0  0  0  0  0  0  0
  -19.0540  -30.3100   23.9920 C   0  0  0  0  0  3  0  0  0  0  0  0
  -17.7210  -30.7500   24.0720 C   0  0  0  0  0  3  0  0  0  0  0  0
  -16.6840  -29.9410   23.5780 C   0  0  0  0  0  3  0  0  0  0  0  0
  -16.9840  -28.6950   22.9940 C   0  0  0  0  0  3  0  0  0  0  0  0
  -26.1250  -32.8050   24.3060 C   0  0  0  0  0  3  0  0  0  0  0  0
  -25.8410  -34.2030   24.6550 N   0  0  0  0  0  0  0  0  0  0  0  0
  -26.2110  -35.2590   23.9200 C   0  0  0  0  0  0  0  0  0  0  0  0
  -26.9030  -35.1580   22.9040 O   0  0  0  0  0  0  0  0  0  0  0  0
  -25.2380  -34.3570   25.4480 H   0  0  0  0  0  0  0  0  0  0  0  0
  -24.5340  -37.0960   23.5580 C   0  0  0  0  0  1  0  0  0  0  0  0
  -25.7460  -36.6500   24.3910 C   0  0  0  0  0  3  0  0  0  0  0  0
  -27.8790  -37.4770   25.2860 C   0  0  0  0  0  1  0  0  0  0  0  0
  -26.8040  -37.6800   24.3180 N   0  0  0  0  0  0  0  0  0  0  0  0
  -26.4170  -38.6070   24.4750 H   0  0  0  0  0  0  0  0  0  0  0  0
  -26.5960  -32.0000   25.5800 C   0  0  1  0  0  0  0  0  0  0  0  0
  -25.4710  -31.7580   26.6120 C   0  0  0  0  0  1  0  0  0  0  0  0
  -27.1770  -30.6220   25.1790 C   0  0  0  0  0  1  0  0  0  0  0  0
  -27.7380  -32.7650   26.2950 C   0  0  0  0  0  1  0  0  0  0  0  0
  -29.5530  -17.5240   20.7410 C   0  0  0  0  0  0  0  0  0  0  0  0
  -30.7410  -15.2070   21.4170 C   0  0  0  0  0  0  0  0  0  0  0  0
  -30.8620  -12.8740   20.4890 C   0  0  0  0  0  2  0  0  0  0  0  0
  -30.0830  -12.7560   19.1580 C   0  0  0  0  0  2  0  0  0  0  0  0
  -28.5440  -12.7110   19.3320 C   0  0  0  0  0  2  0  0  0  0  0  0
  -27.9870  -13.5490   20.5230 C   0  0  0  0  0  3  0  0  0  0  0  0
  -28.9110  -13.4960   21.7590 C   0  0  0  0  0  2  0  0  0  0  0  0
  -30.2500  -13.9290   21.3280 N   0  0  0  0  0  0  0  0  0  0  0  0
  -31.9300  -15.4520   21.1850 O   0  0  0  0  0  0  0  0  0  0  0  0
  -29.7830  -16.1990   21.4700 N   0  0  0  0  0  4  0  0  0  0  0  0
  -28.8920  -15.7710   21.6710 H   0  0  0  0  0  0  0  0  0  0  0  0
  -25.5040  -14.0600   20.9190 C   0  0  0  0  0  0  0  0  0  0  0  0
  -24.4270  -13.2440   21.1460 C   0  0  0  0  0  0  0  0  0  0  0  0
  -24.9420  -11.9140   21.1570 C   0  0  0  0  0  0  0  0  0  0  0  0
  -26.6030  -13.2120   20.8240 N   0  0  0  0  0  0  0  0  0  0  0  0
  -26.2600  -11.9200   21.0220 N   0  0  0  0  0  0  0  0  0  0  0  0
  -24.2500  -10.6260   21.2420 C   0  0  0  0  0  0  0  0  0  0  0  0
  -24.5960   -9.6690   22.2170 C   0  0  0  0  0  3  0  0  0  0  0  0
  -23.9120   -8.4380   22.2880 C   0  0  0  0  0  3  0  0  0  0  0  0
  -22.8510   -8.1670   21.3900 C   0  0  0  0  0  0  0  0  0  0  0  0
  -22.5230   -9.1140   20.4030 C   0  0  0  0  0  3  0  0  0  0  0  0
  -23.2200  -10.3370   20.3260 C   0  0  0  0  0  3  0  0  0  0  0  0
  -22.1350   -6.9970   21.3770 O   0  0  0  0  0  0  0  0  0  0  0  0
  -21.9540   -6.2440   22.5090 C   0  0  0  0  0  0  0  0  0  0  0  0
  -21.3140   -6.7610   23.6580 C   0  0  0  0  0  3  0  0  0  0  0  0
  -21.1030   -5.9320   24.7780 C   0  0  0  0  0  3  0  0  0  0  0  0
  -21.5090   -4.5860   24.7410 C   0  0  0  0  0  0  0  0  0  0  0  0
  -22.1400   -4.0670   23.5940 C   0  0  0  0  0  3  0  0  0  0  0  0
  -22.3590   -4.8970   22.4810 C   0  0  0  0  0  0  0  0  0  0  0  0
  -22.9480   -4.3880   21.3740 F   0  0  0  0  0  0  0  0  0  0  0  0
  -21.2910   -3.7860   25.8110 F   0  0  0  0  0  0  0  0  0  0  0  0
  -22.9910  -13.6660   21.2360 C   0  0  0  0  0  0  0  0  0  0  0  0
  -22.1760  -12.9290   21.9860 N   0  0  0  0  0  0  0  0  0  0  0  0
  -22.5890  -14.6870   20.6800 O   0  0  0  0  0  0  0  0  0  0  0  0
  -22.5040  -12.0990   22.4570 H   0  0  0  0  0  0  0  0  0  0  0  0
  -21.2010  -13.1950   22.0730 H   0  0  0  0  0  0  0  0  0  0  0  0
  -25.6330  -15.4330   20.7600 N   0  0  0  0  0  0  0  0  0  0  0  0
  -24.8230  -16.0440   20.7390 H   0  0  0  0  0  0  0  0  0  0  0  0
  -26.4870  -15.9060   20.5070 H   0  0  0  0  0  0  0  0  0  0  0  0
  -28.4930  -17.2580   17.3600 C   0  0  0  0  0  2  0  0  0  0  0  0
  -28.9790  -18.3650   18.2820 C   0  0  0  0  0  2  0  0  0  0  0  0
  -28.9800  -16.2580   18.3990 C   0  0  0  0  0  2  0  0  0  0  0  0
  -29.7320  -17.3480   19.1900 C   0  0  2  0  0  0  0  0  0  0  0  0
  -31.1810  -17.2680   18.8680 N   0  0  0  0  0  4  0  0  0  0  0  0
  -31.3610  -17.2380   17.8820 H   0  0  0  0  0  0  0  0  0  0  0  0
  -31.5890  -16.4470   19.2920 H   0  0  0  0  0  0  0  0  0  0  0  0
  -31.6490  -18.0700   19.2490 H   0  0  0  0  0  0  0  0  0  0  0  0
  1  3  1  0
  1  2  1  0
  2  4  1  0
  3 51  1  0
  3  2  1  0
  5  4  1  0
  5  6  1  0
  7  5  1  0
  8  5  1  0
  9  8  2  0
 10  9  1  0
 11 22  2  0
 12 10  1  0
 12 17  1  0
 13 21  1  0
 13 23  1  0
 14 20  1  0
 14 16  1  0
 15 21  1  0
 16 15  1  0
 17 16  2  0
 18 19  1  0
 18 12  2  0
 19 14  2  0
 20 13  1  0
 21 11  1  0
 23 25  2  0
 24 23  1  0
 26 24  1  0
 27 36  2  0
 27 32  1  0
 28 24  1  0
 28 32  1  0
 29 28  1  0
 30 31  1  0
 30 29  1  0
 31 27  1  0
 32 33  2  0
 33 34  1  0
 35 34  2  0
 36 35  1  0
 37 11  1  0
 37 38  1  0
 37 47  1  0
 38 41  1  0
 39 43  1  0
 39 38  1  0
 40 39  2  0
 43 42  1  0
 45 43  1  0
 45 46  1  0
 45 44  1  0
 47 50  1  1
 47 48  1  0
 49 47  1  0
 51 60  2  3
 52 60  1  0
 53 58  1  0
 54 55  1  0
 54 53  1  0
 56 55  1  0
 56 65  1  0
 56 57  1  0
 58 52  1  0
 58 57  1  0
 59 52  2  0
 60 61  1  0
 62 63  2  0
 63 64  1  0
 63 82  1  0
 64 67  1  0
 65 62  1  0
 65 66  1  0
 66 64  2  0
 67 68  1  0
 68 69  2  0
 70 69  1  0
 71 70  2  0
 72 71  1  0
 72 67  2  0
 73 70  1  0
 73 74  1  0
 74 75  1  0
 75 76  2  0
 77 76  1  0
 77 81  1  0
 78 77  2  0
 79 74  2  0
 79 78  1  0
 80 79  1  0
 82 83  1  0
 83 86  1  0
 83 85  1  0
 84 82  2  0
 87 62  1  0
 88 87  1  0
 89 87  1  0
 90 91  1  0
 90 92  1  0
 91 93  1  0
 92 93  1  0
 93 51  1  0
 93 94  1  1
 94 97  1  0
 94 96  1  0
 95 94  1  0
M  ISO  4   9 101  10 101  52 100  60 100
M  END
>  <TORSDO>  (95) 
F 23

>  <SCORE>  (95) 
-10.041

>  <name>  (95) 
96

>  <ligand_id>  (95) 
96

>  <original_smiles>  (95) 
[H]c1c([H])c([H])c2c(c1[H])C([H])([H])C([H])([H])C([H])([H])C2([H])N([H])C(=O)C1([H])N(C(=O)C([H])(N([H])C(=O)C([H])(N([H])C([H])([H])[H])C([H])([H])[H])C(C([H])([H])[H])(C([H])([H])[H])C([H])([H])[H])C([H])([H])c2c([H])c(OC([H])([H])C([H])([H])[N+]([H])([H])C([H])([H])C3([H])C([H])([H])C3([H])C([H])(N([H])C(=O)N3C([H])([H])C([H])([H])C([H])([H])C([H])(n4nc(-c5c([H])c([H])c(Oc6c([H])c([H])c(F)c([H])c6F)c([H])c5[H])c(C(=O)N([H])[H])c4N([H])[H])C3([H])[H])C3([N+]([H])([H])[H])C([H])([H])C([H])([H])C3([H])[H])c([H])c([H])c2C1([H])[H]

>  <smiles>  (95) 
[H]c1c([H])c([H])c2c(c1[H])C([H])([H])C([H])([H])C([H])([H])C2([H])N([H])C(=O)C1([H])N(C(=O)C([H])(N([H])C(=O)C([H])(N([H])C([H])([H])[H])C([H])([H])[H])C(C([H])([H])[H])(C([H])([H])[H])C([H])([H])[H])C([H])([H])c2c([H])c(OC([H])([H])C([H])([H])[N+]([H])([H])C([H])([H])C3([H])C([H])([H])C3([H])C([H])(N([H])C(=O)N3C([H])([H])C([H])([H])C([H])([H])C([H])(n4nc(-c5c([H])c([H])c(Oc6c([H])c([H])c(F)c([H])c6F)c([H])c5[H])c(C(=O)N([H])[H])c4N([H])[H])C3([H])[H])C3([N+]([H])([H])[H])C([H])([H])C([H])([H])C3([H])[H])c([H])c([H])c2C1([H])[H]

$$$$
97:0:0
     RDKit          3D

 95104  0  0  1  0  0  0  0  0999 V2000
  -30.0430  -19.1860   19.1500 C   0  0  0  0  0  2  0  0  0  0  0  0
  -30.9610  -20.2460   21.7290 C   0  0  0  0  0  2  0  0  0  0  0  0
  -29.4880  -18.5720   20.4540 C   0  0  0  0  0  3  0  0  0  0  0  0
  -30.3380  -20.6920   19.4810 C   0  0  0  0  0  3  0  0  0  0  0  0
  -29.5090  -19.9240   21.3000 C   0  0  0  0  0  3  0  0  0  0  0  0
  -31.5490  -20.8320   20.4380 C   0  0  0  0  0  3  0  0  0  0  0  0
  -29.1970  -21.0380   20.3400 N   0  0  0  0  0  0  0  0  0  0  0  0
  -32.7780  -20.1600   19.9700 N   0  0  0  0  0  4  0  0  0  0  0  0
  -32.6320  -19.1810   19.8040 H   0  0  0  0  0  0  0  0  0  0  0  0
  -33.5130  -20.2650   20.6480 H   0  0  0  0  0  0  0  0  0  0  0  0
  -33.0940  -20.5800   19.1140 H   0  0  0  0  0  0  0  0  0  0  0  0
  -30.2590  -17.2600   21.0200 C   0  0  0  0  0  2  0  0  0  0  0  0
  -30.6040  -14.7380   20.3650 C   0  0  0  0  0  0  0  0  0  0  0  0
  -30.3870  -12.5000   19.2810 C   0  0  0  0  0  2  0  0  0  0  0  0
  -29.4350  -12.6050   18.0690 C   0  0  0  0  0  2  0  0  0  0  0  0
  -27.9670  -12.4340   18.5090 C   0  0  0  0  0  2  0  0  0  0  0  0
  -27.6080  -13.3010   19.7440 C   0  0  0  0  0  3  0  0  0  0  0  0
  -28.6740  -13.1720   20.8550 C   0  0  0  0  0  2  0  0  0  0  0  0
  -29.9680  -13.5250   20.2590 N   0  0  0  0  0  0  0  0  0  0  0  0
  -31.7890  -14.8560   20.0430 O   0  0  0  0  0  0  0  0  0  0  0  0
  -29.8330  -15.8450   20.6590 N   0  0  0  0  0  0  0  0  0  0  0  0
  -28.8560  -15.6390   20.8070 H   0  0  0  0  0  0  0  0  0  0  0  0
  -25.2190  -13.8940   20.4730 C   0  0  0  0  0  0  0  0  0  0  0  0
  -24.1560  -13.1190   20.8450 C   0  0  0  0  0  0  0  0  0  0  0  0
  -24.6210  -11.7690   20.8190 C   0  0  0  0  0  0  0  0  0  0  0  0
  -26.2650  -13.0150   20.2380 N   0  0  0  0  0  0  0  0  0  0  0  0
  -25.9110  -11.7330   20.5090 N   0  0  0  0  0  0  0  0  0  0  0  0
  -23.8980  -10.5050   21.0120 C   0  0  0  0  0  0  0  0  0  0  0  0
  -24.3300   -9.5420   21.9510 C   0  0  0  0  0  3  0  0  0  0  0  0
  -23.6060   -8.3450   22.1320 C   0  0  0  0  0  3  0  0  0  0  0  0
  -22.4360   -8.1000   21.3740 C   0  0  0  0  0  0  0  0  0  0  0  0
  -22.0230   -9.0510   20.4250 C   0  0  0  0  0  3  0  0  0  0  0  0
  -22.7470  -10.2410   20.2420 C   0  0  0  0  0  3  0  0  0  0  0  0
  -21.6840   -6.9540   21.4650 O   0  0  0  0  0  0  0  0  0  0  0  0
  -21.6290   -6.2190   22.6220 C   0  0  0  0  0  0  0  0  0  0  0  0
  -21.1880   -6.7810   23.8410 C   0  0  0  0  0  3  0  0  0  0  0  0
  -21.0790   -5.9720   24.9900 C   0  0  0  0  0  3  0  0  0  0  0  0
  -21.4010   -4.6030   24.9220 C   0  0  0  0  0  0  0  0  0  0  0  0
  -21.8360   -4.0410   23.7090 C   0  0  0  0  0  3  0  0  0  0  0  0
  -21.9470   -4.8470   22.5620 C   0  0  0  0  0  0  0  0  0  0  0  0
  -22.3450   -4.2960   21.3900 F   0  0  0  0  0  0  0  0  0  0  0  0
  -21.2910   -3.8250   26.0240 F   0  0  0  0  0  0  0  0  0  0  0  0
  -22.7560  -13.5930   21.1150 C   0  0  0  0  0  0  0  0  0  0  0  0
  -22.0300  -12.8960   21.9810 N   0  0  0  0  0  0  0  0  0  0  0  0
  -22.3180  -14.6180   20.5950 O   0  0  0  0  0  0  0  0  0  0  0  0
  -22.3980  -12.0670   22.4230 H   0  0  0  0  0  0  0  0  0  0  0  0
  -21.0900  -13.1940   22.2050 H   0  0  0  0  0  0  0  0  0  0  0  0
  -25.3800  -15.2640   20.2900 N   0  0  0  0  0  0  0  0  0  0  0  0
  -24.6080  -15.9150   20.3930 H   0  0  0  0  0  0  0  0  0  0  0  0
  -26.2150  -15.7020   19.9250 H   0  0  0  0  0  0  0  0  0  0  0  0
  -29.0640  -22.4500   20.9140 C   0  0  0  0  0  2  0  0  0  0  0  0
  -30.2760  -24.2210   19.4530 C   0  0  0  0  0  1  0  0  0  0  0  0
  -28.9110  -23.7940   20.0160 C   0  0  0  0  0  3  0  0  0  0  0  0
  -28.2570  -25.0810   20.7470 C   0  0  0  0  0  2  0  0  0  0  0  0
  -28.4150  -26.4750   20.2250 O   0  0  0  0  0  0  0  0  0  0  0  0
  -24.6290  -31.8900   23.2230 C   0  0  0  0  0  0  0  0  0  0  0  0
  -27.2980  -27.3290   20.2100 C   0  0  0  0  0  0  0  0  0  0  0  0
  -23.4520  -30.4810   21.5710 C   0  0  0  0  0  3  0  0  0  0  0  0
  -24.9270  -28.9330   20.1650 C   0  0  0  0  0  0  0  0  0  0  0  0
  -25.9920  -30.8130   21.4140 C   0  0  0  0  0  2  0  0  0  0  0  0
  -26.0890  -29.4320   20.7710 C   0  0  0  0  0  0  0  0  0  0  0  0
  -27.2800  -28.6440   20.7770 C   0  0  0  0  0  3  0  0  0  0  0  0
  -26.1170  -26.8840   19.5830 C   0  0  0  0  0  3  0  0  0  0  0  0
  -24.9440  -27.6660   19.5610 C   0  0  0  0  0  3  0  0  0  0  0  0
  -23.6860  -29.8030   20.1950 C   0  0  0  0  0  2  0  0  0  0  0  0
  -24.7100  -31.0800   22.1270 N   0  0  0  0  0  0  0  0  0  0  0  0
  -23.5380  -32.1610   23.7450 O   0  0  0  0  0  0  0  0  0  0  0  0
  -22.7840  -29.4640   22.5270 C   0  0  0  0  0  0  0  0  0  0  0  0
  -21.4590  -29.2840   22.3920 N   0  0  0  0  0  0  0  0  0  0  0  0
  -23.4590  -28.8370   23.3490 O   0  0  0  0  0  0  0  0  0  0  0  0
  -20.9750  -29.8430   21.7030 H   0  0  0  0  0  0  0  0  0  0  0  0
  -18.0800  -28.0850   22.8740 C   0  0  0  0  0  0  0  0  0  0  0  0
  -20.6370  -28.3440   23.1560 C   0  0  0  0  0  3  0  0  0  0  0  0
  -20.7410  -26.9160   22.5750 C   0  0  0  0  0  2  0  0  0  0  0  0
  -19.6440  -26.5960   21.5560 C   0  0  0  0  0  2  0  0  0  0  0  0
  -18.2600  -26.7390   22.1940 C   0  0  0  0  0  2  0  0  0  0  0  0
  -19.1960  -28.8470   23.3110 C   0  0  0  0  0  0  0  0  0  0  0  0
  -18.9750  -30.1060   23.9070 C   0  0  0  0  0  3  0  0  0  0  0  0
  -17.6700  -30.6060   24.0700 C   0  0  0  0  0  3  0  0  0  0  0  0
  -16.5670  -29.8430   23.6490 C   0  0  0  0  0  3  0  0  0  0  0  0
  -16.7730  -28.5840   23.0580 C   0  0  0  0  0  3  0  0  0  0  0  0
  -25.9010  -32.5310   23.8590 C   0  0  0  0  0  3  0  0  0  0  0  0
  -25.5790  -33.9300   24.1810 N   0  0  0  0  0  0  0  0  0  0  0  0
  -25.9130  -34.9830   23.4230 C   0  0  0  0  0  0  0  0  0  0  0  0
  -26.5940  -34.8800   22.3990 O   0  0  0  0  0  0  0  0  0  0  0  0
  -24.9770  -34.0840   24.9770 H   0  0  0  0  0  0  0  0  0  0  0  0
  -24.1830  -36.7690   23.0460 C   0  0  0  0  0  1  0  0  0  0  0  0
  -25.4150  -36.3700   23.8740 C   0  0  0  0  0  3  0  0  0  0  0  0
  -27.5340  -37.2660   24.7320 C   0  0  0  0  0  1  0  0  0  0  0  0
  -26.4450  -37.4270   23.7720 N   0  0  0  0  0  0  0  0  0  0  0  0
  -26.0330  -38.3460   23.9100 H   0  0  0  0  0  0  0  0  0  0  0  0
  -26.4040  -31.7690   25.1460 C   0  0  1  0  0  0  0  0  0  0  0  0
  -25.2980  -31.5330   26.2010 C   0  0  0  0  0  1  0  0  0  0  0  0
  -26.9970  -30.3920   24.7700 C   0  0  0  0  0  1  0  0  0  0  0  0
  -27.5410  -32.5720   25.8190 C   0  0  0  0  0  1  0  0  0  0  0  0
  1  3  1  0
  3 12  1  0
  3  5  1  0
  4  1  1  0
  4  7  1  0
  4  6  1  0
  5  2  1  0
  6  8  1  0
  6  2  1  0
  7 51  1  0
  7  5  1  0
  8 10  1  0
  9  8  1  0
 11  8  1  0
 13 21  1  0
 14 19  1  0
 15 16  1  0
 15 14  1  0
 17 16  1  0
 17 26  1  0
 17 18  1  0
 19 13  1  0
 19 18  1  0
 20 13  2  0
 21 22  1  0
 21 12  1  0
 23 24  2  0
 24 43  1  0
 25 24  1  0
 25 28  1  0
 26 23  1  0
 26 27  1  0
 27 25  2  0
 28 29  1  0
 29 30  2  0
 31 34  1  0
 31 30  1  0
 32 31  2  0
 33 32  1  0
 33 28  2  0
 34 35  1  0
 35 36  1  0
 36 37  2  0
 38 37  1  0
 38 42  1  0
 39 38  2  0
 40 35  2  0
 40 39  1  0
 41 40  1  0
 43 44  1  0
 44 47  1  0
 44 46  1  0
 45 43  2  0
 48 49  1  0
 48 23  1  0
 50 48  1  0
 53 52  1  0
 53 54  1  0
 53 51  1  0
 55 54  1  0
 56 67  2  0
 57 55  1  0
 57 62  1  0
 58 66  1  0
 58 68  1  0
 59 65  1  0
 59 61  1  0
 60 66  1  0
 61 62  2  0
 61 60  1  0
 63 57  2  0
 64 63  1  0
 64 59  2  0
 65 58  1  0
 66 56  1  0
 68 70  2  0
 69 68  1  0
 71 69  1  0
 72 81  2  0
 72 77  1  0
 73 69  1  0
 73 77  1  0
 74 73  1  0
 75 76  1  0
 75 74  1  0
 76 72  1  0
 77 78  2  0
 78 79  1  0
 80 79  2  0
 81 80  1  0
 82 56  1  0
 82 83  1  0
 82 92  1  0
 83 86  1  0
 84 88  1  0
 84 83  1  0
 85 84  2  0
 88 87  1  0
 90 88  1  0
 90 91  1  0
 90 89  1  0
 92 95  1  1
 92 93  1  0
 94 92  1  0
M  ISO  4  13 100  21 100  54 101  55 101
M  END
>  <TORSDO>  (96) 
F 21

>  <SCORE>  (96) 
-13.740

>  <name>  (96) 
97

>  <ligand_id>  (96) 
97

>  <original_smiles>  (96) 
[H]c1c([H])c([H])c2c(c1[H])C([H])([H])C([H])([H])C([H])([H])C2([H])N([H])C(=O)C1([H])N(C(=O)C([H])(N([H])C(=O)C([H])(N([H])C([H])([H])[H])C([H])([H])[H])C(C([H])([H])[H])(C([H])([H])[H])C([H])([H])[H])C([H])([H])c2c([H])c(OC([H])([H])C([H])(C([H])([H])[H])C([H])([H])N3C4([H])C([H])([H])C([H])([N+]([H])([H])[H])C3([H])C([H])([H])C4([H])C([H])([H])N([H])C(=O)N3C([H])([H])C([H])([H])C([H])([H])C([H])(n4nc(-c5c([H])c([H])c(Oc6c([H])c([H])c(F)c([H])c6F)c([H])c5[H])c(C(=O)N([H])[H])c4N([H])[H])C3([H])[H])c([H])c([H])c2C1([H])[H]

>  <smiles>  (96) 
[H]c1c([H])c([H])c2c(c1[H])C([H])([H])C([H])([H])C([H])([H])C2([H])N([H])C(=O)C1([H])N(C(=O)C([H])(N([H])C(=O)C([H])(N([H])C([H])([H])[H])C([H])([H])[H])C(C([H])([H])[H])(C([H])([H])[H])C([H])([H])[H])C([H])([H])c2c([H])c(OC([H])([H])C([H])(C([H])([H])[H])C([H])([H])N3C4([H])C([H])([H])C([H])([N+]([H])([H])[H])C3([H])C([H])([H])C4([H])C([H])([H])N([H])C(=O)N3C([H])([H])C([H])([H])C([H])([H])C([H])(n4nc(-c5c([H])c([H])c(Oc6c([H])c([H])c(F)c([H])c6F)c([H])c5[H])c(C(=O)N([H])[H])c4N([H])[H])C3([H])[H])c([H])c([H])c2C1([H])[H]

$$$$
