0:0:0
     RDKit          3D

 98107  0  0  1  0  0  0  0  0999 V2000
  -31.3800  -19.5470   18.9250 C   0  0  0  0  0  0  0  0  0  0  0  0
  -30.0170  -19.5970   21.8470 C   0  0  0  0  0  2  0  0  0  0  0  0
  -30.3440  -18.4130   20.9010 C   0  0  0  0  0  2  0  0  0  0  0  0
  -29.7300  -20.9280   21.1260 C   0  0  0  0  0  2  0  0  0  0  0  0
  -30.5140  -21.8570   18.3300 C   0  0  0  0  0  2  0  0  0  0  0  0
  -31.6870  -18.6170   20.1450 C   0  0  0  0  0  3  0  0  0  0  0  0
  -30.9260  -21.5690   20.4130 C   0  0  0  0  0  3  0  0  0  0  0  0
  -30.7280  -22.8370   19.5170 C   0  0  0  0  0  3  0  0  0  0  0  0
  -31.3000  -20.9350   19.1490 N   0  0  0  0  0  0  0  0  0  0  0  0
  -31.1060  -19.0750   17.8130 O   0  0  0  0  0  0  0  0  0  0  0  0
  -29.3180  -24.9710   19.3910 C   0  0  0  0  0  0  0  0  0  0  0  0
  -29.5560  -23.7020   19.8100 N   0  0  0  0  0  0  0  0  0  0  0  0
  -30.1760  -25.6250   18.7820 O   0  0  0  0  0  0  0  0  0  0  0  0
  -28.8020  -23.2590   20.3080 H   0  0  0  0  0  0  0  0  0  0  0  0
  -27.8990  -25.5930   19.6300 C   0  0  0  0  0  2  0  0  0  0  0  0
  -27.8950  -27.0390   19.4860 O   0  0  0  0  0  0  0  0  0  0  0  0
  -24.5810  -32.0800   23.3250 C   0  0  0  0  0  0  0  0  0  0  0  0
  -26.7180  -27.7650   19.6810 C   0  0  0  0  0  0  0  0  0  0  0  0
  -23.1350  -30.7940   21.7840 C   0  0  0  0  0  3  0  0  0  0  0  0
  -24.3580  -29.3200   20.0750 C   0  0  0  0  0  0  0  0  0  0  0  0
  -25.6250  -31.1210   21.2690 C   0  0  0  0  0  2  0  0  0  0  0  0
  -25.5930  -29.7860   20.5490 C   0  0  0  0  0  0  0  0  0  0  0  0
  -26.7710  -29.0180   20.3480 C   0  0  0  0  0  3  0  0  0  0  0  0
  -25.4590  -27.3120   19.2160 C   0  0  0  0  0  3  0  0  0  0  0  0
  -24.2910  -28.0840   19.4040 C   0  0  0  0  0  3  0  0  0  0  0  0
  -23.1500  -30.2030   20.3470 C   0  0  0  0  0  2  0  0  0  0  0  0
  -24.4730  -31.3420   22.1860 N   0  0  0  0  0  0  0  0  0  0  0  0
  -23.5830  -32.3330   24.0140 O   0  0  0  0  0  0  0  0  0  0  0  0
  -22.6010  -29.7230   22.7590 C   0  0  0  0  0  0  0  0  0  0  0  0
  -21.3220  -29.3440   22.5920 N   0  0  0  0  0  0  0  0  0  0  0  0
  -23.3280  -29.2350   23.6270 O   0  0  0  0  0  0  0  0  0  0  0  0
  -20.7810  -29.8000   21.8700 H   0  0  0  0  0  0  0  0  0  0  0  0
  -18.2100  -27.5200   22.8720 C   0  0  0  0  0  0  0  0  0  0  0  0
  -20.6210  -28.3190   23.3680 C   0  0  0  0  0  3  0  0  0  0  0  0
  -21.0670  -26.8960   22.9540 C   0  0  0  0  0  2  0  0  0  0  0  0
  -20.1740  -26.2750   21.8740 C   0  0  0  0  0  2  0  0  0  0  0  0
  -18.7260  -26.1850   22.3600 C   0  0  0  0  0  2  0  0  0  0  0  0
  -19.1000  -28.5240   23.3320 C   0  0  0  0  0  0  0  0  0  0  0  0
  -18.5750  -29.7620   23.7650 C   0  0  0  0  0  3  0  0  0  0  0  0
  -17.1870  -29.9980   23.7490 C   0  0  0  0  0  3  0  0  0  0  0  0
  -16.3080  -28.9940   23.3120 C   0  0  0  0  0  3  0  0  0  0  0  0
  -16.8190  -27.7580   22.8770 C   0  0  0  0  0  3  0  0  0  0  0  0
  -25.9470  -32.6660   23.7950 C   0  0  0  0  0  3  0  0  0  0  0  0
  -26.5850  -31.8580   24.9900 C   0  0  1  0  0  0  0  0  0  0  0  0
  -25.5910  -31.5380   26.1300 C   0  0  0  0  0  1  0  0  0  0  0  0
  -27.1800  -30.5220   24.4900 C   0  0  0  0  0  1  0  0  0  0  0  0
  -27.7580  -32.6610   25.5990 C   0  0  0  0  0  1  0  0  0  0  0  0
  -25.7210  -34.0650   24.1830 N   0  0  0  0  0  0  0  0  0  0  0  0
  -25.9590  -35.1210   23.3920 C   0  0  0  0  0  0  0  0  0  0  0  0
  -26.4650  -35.0190   22.2730 O   0  0  0  0  0  0  0  0  0  0  0  0
  -25.2640  -34.2240   25.0690 H   0  0  0  0  0  0  0  0  0  0  0  0
  -24.2340  -36.9560   23.3210 C   0  0  0  0  0  1  0  0  0  0  0  0
  -25.5760  -36.5150   23.9300 C   0  0  0  0  0  3  0  0  0  0  0  0
  -27.8260  -37.3550   24.4450 C   0  0  0  0  0  1  0  0  0  0  0  0
  -26.6020  -37.5500   23.6710 N   0  0  0  0  0  0  0  0  0  0  0  0
  -26.2370  -38.4760   23.8830 H   0  0  0  0  0  0  0  0  0  0  0  0
  -33.3170  -16.9400   21.2810 C   0  0  0  0  0  1  0  0  0  0  0  0
  -33.7770  -17.9140   18.9830 C   0  0  0  0  0  1  0  0  0  0  0  0
  -32.6640  -17.3720   19.9480 C   0  0  2  0  0  0  0  0  0  0  0  0
  -32.1780  -16.0360   19.2920 C   0  0  0  0  0  2  0  0  0  0  0  0
  -30.3900  -14.3560   19.0680 C   0  0  0  0  0  0  0  0  0  0  0  0
  -29.8610  -12.0610   18.4240 C   0  0  0  0  0  2  0  0  0  0  0  0
  -28.7190  -12.1000   17.3720 C   0  0  0  0  0  2  0  0  0  0  0  0
  -27.3910  -11.8630   18.0970 C   0  0  0  0  0  2  0  0  0  0  0  0
  -27.1900  -12.8670   19.2650 C   0  0  0  0  0  3  0  0  0  0  0  0
  -28.4830  -12.9930   20.1780 C   0  0  0  0  0  2  0  0  0  0  0  0
  -29.7320  -13.1850   19.3980 N   0  0  0  0  0  0  0  0  0  0  0  0
  -30.5960  -14.5710   17.8900 O   0  0  0  0  0  0  0  0  0  0  0  0
  -31.1390  -15.1260   19.9270 N   0  0  0  0  0  0  0  0  0  0  0  0
  -31.2370  -14.8930   20.9150 H   0  0  0  0  0  0  0  0  0  0  0  0
  -24.9540  -13.3340   20.4980 C   0  0  0  0  0  0  0  0  0  0  0  0
  -23.9980  -12.5070   21.0100 C   0  0  0  0  0  0  0  0  0  0  0  0
  -24.4620  -11.1730   20.7810 C   0  0  0  0  0  0  0  0  0  0  0  0
  -25.9580  -12.5160   19.9930 N   0  0  0  0  0  0  0  0  0  0  0  0
  -25.6700  -11.2030   20.2250 N   0  0  0  0  0  0  0  0  0  0  0  0
  -23.8020   -9.8720   21.0220 C   0  0  0  0  0  0  0  0  0  0  0  0
  -24.2990   -8.9510   21.9760 C   0  0  0  0  0  3  0  0  0  0  0  0
  -23.6260   -7.7280   22.2000 C   0  0  0  0  0  3  0  0  0  0  0  0
  -22.4590   -7.4120   21.4700 C   0  0  0  0  0  0  0  0  0  0  0  0
  -21.9840   -8.3130   20.5100 C   0  0  0  0  0  3  0  0  0  0  0  0
  -22.6550   -9.5310   20.2770 C   0  0  0  0  0  3  0  0  0  0  0  0
  -21.7700   -6.2290   21.5960 O   0  0  0  0  0  0  0  0  0  0  0  0
  -21.6300   -5.6130   22.8170 C   0  0  0  0  0  0  0  0  0  0  0  0
  -20.9760   -6.2390   23.8930 C   0  0  0  0  0  3  0  0  0  0  0  0
  -20.7880   -5.5510   25.1090 C   0  0  0  0  0  3  0  0  0  0  0  0
  -21.2580   -4.2250   25.2450 C   0  0  0  0  0  0  0  0  0  0  0  0
  -21.9030   -3.5960   24.1680 C   0  0  0  0  0  3  0  0  0  0  0  0
  -22.0880   -4.2880   22.9570 C   0  0  0  0  0  0  0  0  0  0  0  0
  -22.6990   -3.6640   21.9230 F   0  0  0  0  0  0  0  0  0  0  0  0
  -21.0630   -3.5590   26.4070 F   0  0  0  0  0  0  0  0  0  0  0  0
  -22.6730  -12.9060   21.6120 C   0  0  0  0  0  0  0  0  0  0  0  0
  -22.1800  -12.1200   22.5650 N   0  0  0  0  0  0  0  0  0  0  0  0
  -22.1020  -13.9530   21.2770 O   0  0  0  0  0  0  0  0  0  0  0  0
  -22.6590  -11.2700   22.8330 H   0  0  0  0  0  0  0  0  0  0  0  0
  -21.3240  -12.3600   23.0450 H   0  0  0  0  0  0  0  0  0  0  0  0
  -25.0460  -14.7240   20.3980 N   0  0  0  0  0  0  0  0  0  0  0  0
  -24.3380  -15.3130   20.8280 H   0  0  0  0  0  0  0  0  0  0  0  0
  -25.7560  -15.2370   19.9010 H   0  0  0  0  0  0  0  0  0  0  0  0
  1  9  1  0
  1  6  1  0
  3  2  1  0
  4  2  1  0
  5  9  1  0
  5  8  1  0
  6 59  1  0
  6  3  1  0
  7  4  1  0
  8 12  1  0
  8  7  1  0
  9  7  1  0
 10  1  2  0
 11 15  1  0
 11 12  1  0
 12 14  1  0
 13 11  2  0
 16 15  1  0
 16 18  1  0
 17 28  2  0
 18 23  1  0
 19 27  1  0
 19 29  1  0
 20 26  1  0
 20 22  1  0
 21 27  1  0
 22 21  1  0
 23 22  2  0
 24 25  1  0
 24 18  2  0
 25 20  2  0
 26 19  1  0
 27 17  1  0
 29 31  2  0
 30 29  1  0
 32 30  1  0
 33 42  2  0
 33 38  1  0
 34 30  1  0
 35 34  1  0
 36 37  1  0
 36 35  1  0
 37 33  1  0
 38 34  1  0
 38 39  2  0
 40 39  1  0
 41 40  2  0
 42 41  1  0
 43 17  1  0
 43 48  1  0
 43 44  1  0
 44 47  1  1
 44 45  1  0
 46 44  1  0
 48 51  1  0
 49 53  1  0
 49 48  1  0
 50 49  2  0
 53 52  1  0
 55 56  1  0
 55 53  1  0
 55 54  1  0
 59 58  1  6
 59 57  1  0
 60 69  1  0
 60 59  1  0
 61 67  1  0
 61 69  1  0
 62 67  1  0
 63 64  1  0
 63 62  1  0
 65 64  1  0
 65 74  1  0
 65 66  1  0
 67 66  1  0
 68 61  2  0
 69 70  1  0
 71 72  2  0
 72 91  1  0
 73 72  1  0
 73 76  1  0
 74 75  1  0
 74 71  1  0
 75 73  2  0
 76 77  1  0
 77 78  2  0
 79 82  1  0
 79 78  1  0
 80 79  2  0
 81 80  1  0
 81 76  2  0
 82 83  1  0
 83 88  2  0
 83 84  1  0
 84 85  2  0
 85 86  1  0
 86 90  1  0
 87 86  2  0
 88 87  1  0
 89 88  1  0
 91 92  1  0
 92 94  1  0
 92 95  1  0
 93 91  2  0
 96 71  1  0
 96 97  1  0
 98 96  1  0
M  ISO  4  15 101  16 101  61 100  69 100
M  END
>  <TORSDO>  (1) 
F 20

>  <SCORE>  (1) 
-8.577

>  <name>  (1) 
0

>  <ligand_id>  (1) 
0

>  <original_smiles>  (1) 
[H]c1c([H])c([H])c2c(c1[H])C([H])([H])C([H])([H])C([H])([H])C2([H])N([H])C(=O)C1([H])N(C(=O)C([H])(N([H])C(=O)C([H])(N([H])C([H])([H])[H])C([H])([H])[H])C(C([H])([H])[H])(C([H])([H])[H])C([H])([H])[H])C([H])([H])c2c([H])c(OC([H])([H])C(=O)N([H])C3([H])C([H])([H])N4C(=O)C([H])(C(C([H])([H])[H])(C([H])([H])[H])C([H])([H])N([H])C(=O)N5C([H])([H])C([H])([H])C([H])([H])C([H])(n6nc(-c7c([H])c([H])c(Oc8c([H])c([H])c(F)c([H])c8F)c([H])c7[H])c(C(=O)N([H])[H])c6N([H])[H])C5([H])[H])C([H])([H])C([H])([H])C([H])([H])C43[H])c([H])c([H])c2C1([H])[H]

>  <smiles>  (1) 
[H]c1c([H])c([H])c2c(c1[H])C([H])([H])C([H])([H])C([H])([H])C2([H])N([H])C(=O)C1([H])N(C(=O)C([H])(N([H])C(=O)C([H])(N([H])C([H])([H])[H])C([H])([H])[H])C(C([H])([H])[H])(C([H])([H])[H])C([H])([H])[H])C([H])([H])c2c([H])c(OC([H])([H])C(=O)N([H])C3([H])C([H])([H])N4C(=O)C([H])(C(C([H])([H])[H])(C([H])([H])[H])C([H])([H])N([H])C(=O)N5C([H])([H])C([H])([H])C([H])([H])C([H])(n6nc(-c7c([H])c([H])c(Oc8c([H])c([H])c(F)c([H])c8F)c([H])c7[H])c(C(=O)N([H])[H])c6N([H])[H])C5([H])[H])C([H])([H])C([H])([H])C([H])([H])C43[H])c([H])c([H])c2C1([H])[H]

$$$$
1:0:0
     RDKit          3D

 96106  0  0  1  0  0  0  0  0999 V2000
  -29.2520  -20.4280   21.3880 C   0  0  0  0  0  2  0  0  0  0  0  0
  -29.8300  -18.9770   21.3370 C   0  0  0  0  0  2  0  0  0  0  0  0
  -28.0650  -17.6350   18.8790 C   0  0  0  0  0  2  0  0  0  0  0  0
  -28.9930  -18.8630   18.8820 C   0  0  2  0  0  0  0  0  0  0  0  0
  -29.3750  -17.0950   18.2890 C   0  0  1  0  0  0  0  0  0  0  0  0
  -30.1360  -18.5890   19.8640 C   0  0  0  0  0  3  0  0  0  0  0  0
  -30.4220  -17.1310   19.4080 C   0  0  0  0  0  3  0  0  0  0  0  0
  -29.3540  -18.4050   17.4430 C   0  0  2  0  0  0  0  0  0  0  0  0
  -30.6840  -18.8720   16.8320 C   0  0  0  0  0  1  0  0  0  0  0  0
  -28.3040  -18.5950   16.3120 C   0  0  0  0  0  1  0  0  0  0  0  0
  -30.9350  -14.8720   20.1800 C   0  0  0  0  0  0  0  0  0  0  0  0
  -30.6090  -12.6900   19.1030 C   0  0  0  0  0  2  0  0  0  0  0  0
  -29.6630  -12.8780   17.8980 C   0  0  0  0  0  2  0  0  0  0  0  0
  -28.1880  -12.7530   18.3370 C   0  0  0  0  0  2  0  0  0  0  0  0
  -27.8530  -13.6090   19.5890 C   0  0  0  0  0  3  0  0  0  0  0  0
  -28.9200  -13.4380   20.6960 C   0  0  0  0  0  2  0  0  0  0  0  0
  -30.2420  -13.7040   20.1120 N   0  0  0  0  0  0  0  0  0  0  0  0
  -32.1100  -14.9620   19.8210 O   0  0  0  0  0  0  0  0  0  0  0  0
  -30.1880  -15.9850   20.3140 N   0  0  0  0  0  0  0  0  0  0  0  0
  -29.2340  -15.8400   20.6080 H   0  0  0  0  0  0  0  0  0  0  0  0
  -25.4620  -14.1950   20.3530 C   0  0  0  0  0  0  0  0  0  0  0  0
  -24.4060  -13.4130   20.7300 C   0  0  0  0  0  0  0  0  0  0  0  0
  -24.8740  -12.0650   20.6850 C   0  0  0  0  0  0  0  0  0  0  0  0
  -26.5090  -13.3250   20.0930 N   0  0  0  0  0  0  0  0  0  0  0  0
  -26.1600  -12.0380   20.3590 N   0  0  0  0  0  0  0  0  0  0  0  0
  -24.1570  -10.7950   20.8750 C   0  0  0  0  0  0  0  0  0  0  0  0
  -24.5570   -9.8560   21.8510 C   0  0  0  0  0  3  0  0  0  0  0  0
  -23.8390   -8.6540   22.0280 C   0  0  0  0  0  3  0  0  0  0  0  0
  -22.7070   -8.3830   21.2250 C   0  0  0  0  0  0  0  0  0  0  0  0
  -22.3230   -9.3090   20.2390 C   0  0  0  0  0  3  0  0  0  0  0  0
  -23.0420  -10.5050   20.0630 C   0  0  0  0  0  3  0  0  0  0  0  0
  -21.9610   -7.2320   21.3030 O   0  0  0  0  0  0  0  0  0  0  0  0
  -21.8070   -6.5530   22.4870 C   0  0  0  0  0  0  0  0  0  0  0  0
  -21.2430   -7.1610   23.6280 C   0  0  0  0  0  3  0  0  0  0  0  0
  -21.0510   -6.4100   24.8030 C   0  0  0  0  0  3  0  0  0  0  0  0
  -21.4080   -5.0470   24.8350 C   0  0  0  0  0  0  0  0  0  0  0  0
  -21.9670   -4.4390   23.6980 C   0  0  0  0  0  3  0  0  0  0  0  0
  -22.1620   -5.1900   22.5260 C   0  0  0  0  0  0  0  0  0  0  0  0
  -22.6840   -4.5930   21.4270 F   0  0  0  0  0  0  0  0  0  0  0  0
  -21.2080   -4.3220   25.9610 F   0  0  0  0  0  0  0  0  0  0  0  0
  -23.0090  -13.8800   21.0160 C   0  0  0  0  0  0  0  0  0  0  0  0
  -22.2970  -13.1920   21.9020 N   0  0  0  0  0  0  0  0  0  0  0  0
  -22.5610  -14.9000   20.4900 O   0  0  0  0  0  0  0  0  0  0  0  0
  -22.6720  -12.3720   22.3540 H   0  0  0  0  0  0  0  0  0  0  0  0
  -21.3590  -13.4890   22.1310 H   0  0  0  0  0  0  0  0  0  0  0  0
  -25.6030  -15.5690   20.1840 N   0  0  0  0  0  0  0  0  0  0  0  0
  -24.8000  -16.1830   20.2720 H   0  0  0  0  0  0  0  0  0  0  0  0
  -26.3940  -16.0160   19.7480 H   0  0  0  0  0  0  0  0  0  0  0  0
  -29.5420  -21.3160   22.6280 C   0  0  0  0  0  2  0  0  0  0  0  0
  -28.9410  -22.6900   22.5590 N   0  0  0  0  0  4  0  0  0  0  0  0
  -29.3480  -23.2190   23.3150 H   0  0  0  0  0  0  0  0  0  0  0  0
  -27.9550  -22.6080   22.7580 H   0  0  0  0  0  0  0  0  0  0  0  0
  -29.1210  -23.4600   21.2890 C   0  0  0  0  0  2  0  0  0  0  0  0
  -28.5080  -24.9000   21.2820 C   0  0  0  0  0  2  0  0  0  0  0  0
  -28.7220  -25.6240   19.9190 C   0  0  0  0  0  2  0  0  0  0  0  0
  -28.6210  -27.0590   19.9520 O   0  0  0  0  0  0  0  0  0  0  0  0
  -24.6670  -31.9380   23.2060 C   0  0  0  0  0  0  0  0  0  0  0  0
  -27.3970  -27.6980   19.9500 C   0  0  0  0  0  0  0  0  0  0  0  0
  -23.4740  -30.5590   21.5320 C   0  0  0  0  0  3  0  0  0  0  0  0
  -24.9510  -29.1230   20.0280 C   0  0  0  0  0  0  0  0  0  0  0  0
  -25.9780  -31.0170   21.2990 C   0  0  0  0  0  2  0  0  0  0  0  0
  -26.0970  -29.6720   20.6120 C   0  0  0  0  0  0  0  0  0  0  0  0
  -27.3200  -28.9690   20.5660 C   0  0  0  0  0  3  0  0  0  0  0  0
  -26.2330  -27.1610   19.3550 C   0  0  0  0  0  3  0  0  0  0  0  0
  -25.0140  -27.8680   19.3950 C   0  0  0  0  0  3  0  0  0  0  0  0
  -23.6790  -29.9350   20.1240 C   0  0  0  0  0  2  0  0  0  0  0  0
  -24.7240  -31.1850   22.0710 N   0  0  0  0  0  0  0  0  0  0  0  0
  -23.5890  -32.1530   23.7780 O   0  0  0  0  0  0  0  0  0  0  0  0
  -22.8780  -29.4820   22.4660 C   0  0  0  0  0  0  0  0  0  0  0  0
  -21.5580  -29.2610   22.3540 N   0  0  0  0  0  0  0  0  0  0  0  0
  -23.5970  -28.8510   23.2430 O   0  0  0  0  0  0  0  0  0  0  0  0
  -21.0360  -29.8290   21.7020 H   0  0  0  0  0  0  0  0  0  0  0  0
  -18.2290  -27.9500   22.8700 C   0  0  0  0  0  0  0  0  0  0  0  0
  -20.7850  -28.2660   23.0990 C   0  0  0  0  0  3  0  0  0  0  0  0
  -20.9140  -26.8670   22.4560 C   0  0  0  0  0  2  0  0  0  0  0  0
  -19.7980  -26.5580   21.4530 C   0  0  0  0  0  2  0  0  0  0  0  0
  -18.4280  -26.6360   22.1340 C   0  0  0  0  0  2  0  0  0  0  0  0
  -19.3370  -28.7230   23.3090 C   0  0  0  0  0  0  0  0  0  0  0  0
  -19.0990  -29.9540   23.9570 C   0  0  0  0  0  3  0  0  0  0  0  0
  -17.7860  -30.4130   24.1710 C   0  0  0  0  0  3  0  0  0  0  0  0
  -16.6930  -29.6350   23.7510 C   0  0  0  0  0  3  0  0  0  0  0  0
  -16.9160  -28.4050   23.1070 C   0  0  0  0  0  3  0  0  0  0  0  0
  -25.9450  -32.5860   23.8250 C   0  0  0  0  0  3  0  0  0  0  0  0
  -25.6160  -33.9760   24.1660 N   0  0  0  0  0  0  0  0  0  0  0  0
  -25.9400  -35.0390   23.4190 C   0  0  0  0  0  0  0  0  0  0  0  0
  -26.6200  -34.9550   22.3930 O   0  0  0  0  0  0  0  0  0  0  0  0
  -25.0130  -34.1160   24.9640 H   0  0  0  0  0  0  0  0  0  0  0  0
  -24.1950  -36.8140   23.0600 C   0  0  0  0  0  1  0  0  0  0  0  0
  -25.4300  -36.4180   23.8850 C   0  0  0  0  0  3  0  0  0  0  0  0
  -27.5390  -37.3190   24.7610 C   0  0  0  0  0  1  0  0  0  0  0  0
  -26.4510  -37.4840   23.7990 N   0  0  0  0  0  0  0  0  0  0  0  0
  -26.0320  -38.3970   23.9490 H   0  0  0  0  0  0  0  0  0  0  0  0
  -26.4820  -31.8150   25.0940 C   0  0  1  0  0  0  0  0  0  0  0  0
  -25.3940  -31.5370   26.1570 C   0  0  0  0  0  1  0  0  0  0  0  0
  -27.1050  -30.4600   24.6860 C   0  0  0  0  0  1  0  0  0  0  0  0
  -27.6060  -32.6340   25.7700 C   0  0  0  0  0  1  0  0  0  0  0  0
  1 49  1  0
  2  1  1  0
  4  3  1  6
  4  6  1  0
  5  3  1  6
  5  4  1  0
  5  7  1  0
  6  2  1  0
  7  6  1  0
  7 19  1  0
  8  5  1  0
  8  4  1  0
  8  9  1  6
 10  8  1  0
 11 19  1  0
 12 17  1  0
 13 14  1  0
 13 12  1  0
 15 14  1  0
 15 24  1  0
 15 16  1  0
 17 11  1  0
 17 16  1  0
 18 11  2  0
 19 20  1  0
 21 22  2  0
 22 41  1  0
 23 22  1  0
 23 26  1  0
 24 21  1  0
 24 25  1  0
 25 23  2  0
 26 27  1  0
 27 28  2  0
 29 32  1  0
 29 28  1  0
 30 29  2  0
 31 30  1  0
 31 26  2  0
 32 33  1  0
 33 38  2  0
 33 34  1  0
 34 35  2  0
 35 36  1  0
 36 40  1  0
 37 36  2  0
 38 37  1  0
 39 38  1  0
 41 42  1  0
 42 45  1  0
 42 44  1  0
 43 41  2  0
 46 47  1  0
 46 21  1  0
 48 46  1  0
 50 49  1  0
 50 52  1  0
 50 51  1  0
 53 50  1  0
 54 53  1  0
 55 56  1  0
 55 54  1  0
 57 68  2  0
 58 56  1  0
 58 63  1  0
 59 67  1  0
 59 69  1  0
 60 66  1  0
 60 62  1  0
 61 67  1  0
 62 61  1  0
 63 62  2  0
 64 65  1  0
 64 58  2  0
 65 60  2  0
 66 59  1  0
 67 57  1  0
 69 71  2  0
 70 69  1  0
 72 70  1  0
 73 82  2  0
 73 78  1  0
 74 70  1  0
 74 78  1  0
 75 74  1  0
 76 77  1  0
 76 75  1  0
 77 73  1  0
 78 79  2  0
 79 80  1  0
 81 80  2  0
 82 81  1  0
 83 57  1  0
 83 84  1  0
 83 93  1  0
 84 87  1  0
 85 89  1  0
 85 84  1  0
 86 85  2  0
 89 88  1  0
 91 89  1  0
 91 92  1  0
 91 90  1  0
 93 96  1  1
 93 94  1  0
 95 93  1  0
M  ISO  4  11 100  19 100  55 101  56 101
M  END
>  <TORSDO>  (2) 
F 23

>  <SCORE>  (2) 
-12.241

>  <name>  (2) 
1

>  <ligand_id>  (2) 
1

>  <original_smiles>  (2) 
[H]c1c([H])c([H])c2c(c1[H])C([H])([H])C([H])([H])C([H])([H])C2([H])N([H])C(=O)C1([H])N(C(=O)C([H])(N([H])C(=O)C([H])(N([H])C([H])([H])[H])C([H])([H])[H])C(C([H])([H])[H])(C([H])([H])[H])C([H])([H])[H])C([H])([H])c2c([H])c(OC([H])([H])C([H])([H])C([H])([H])[N+]([H])([H])C([H])([H])C([H])([H])C([H])([H])C3([H])C([H])(N([H])C(=O)N4C([H])([H])C([H])([H])C([H])([H])C([H])(n5nc(-c6c([H])c([H])c(Oc7c([H])c([H])c(F)c([H])c7F)c([H])c6[H])c(C(=O)N([H])[H])c5N([H])[H])C4([H])[H])C4([H])C([H])([H])C3([H])C4(C([H])([H])[H])C([H])([H])[H])c([H])c([H])c2C1([H])[H]

>  <smiles>  (2) 
[H]c1c([H])c([H])c2c(c1[H])C([H])([H])C([H])([H])C([H])([H])C2([H])N([H])C(=O)C1([H])N(C(=O)C([H])(N([H])C(=O)C([H])(N([H])C([H])([H])[H])C([H])([H])[H])C(C([H])([H])[H])(C([H])([H])[H])C([H])([H])[H])C([H])([H])c2c([H])c(OC([H])([H])C([H])([H])C([H])([H])[N+]([H])([H])C([H])([H])C([H])([H])C([H])([H])C3([H])C([H])(N([H])C(=O)N4C([H])([H])C([H])([H])C([H])([H])C([H])(n5nc(-c6c([H])c([H])c(Oc7c([H])c([H])c(F)c([H])c7F)c([H])c6[H])c(C(=O)N([H])[H])c5N([H])[H])C4([H])[H])C4([H])C([H])([H])C3([H])C4(C([H])([H])[H])C([H])([H])[H])c([H])c([H])c2C1([H])[H]

$$$$
2:0:0
     RDKit          3D

 97105  0  0  1  0  0  0  0  0999 V2000
  -29.2770  -21.2050   20.7950 C   0  0  0  0  0  0  0  0  0  0  0  0
  -28.8050  -22.3720   20.2100 N   0  0  0  0  0  0  0  0  0  0  0  0
  -29.7460  -21.2440   21.9340 O   0  0  0  0  0  0  0  0  0  0  0  0
  -28.3830  -22.2640   19.3000 H   0  0  0  0  0  0  0  0  0  0  0  0
  -29.0210  -18.4300   20.8900 C   0  0  0  0  0  2  0  0  0  0  0  0
  -30.7370  -17.8730   19.3030 C   0  0  0  0  0  2  0  0  0  0  0  0
  -29.2590  -19.7790   20.0470 C   0  0  0  0  0  3  0  0  0  0  0  0
  -30.1560  -17.3350   20.6140 C   0  0  0  0  0  3  0  0  0  0  0  0
  -30.6070  -19.4230   19.3490 C   0  0  0  0  0  3  0  0  0  0  0  0
  -30.5750  -14.7540   20.2210 C   0  0  0  0  0  0  0  0  0  0  0  0
  -30.3510  -12.5250   19.1130 C   0  0  0  0  0  2  0  0  0  0  0  0
  -29.3800  -12.6550   17.9200 C   0  0  0  0  0  2  0  0  0  0  0  0
  -27.9170  -12.4840   18.3740 C   0  0  0  0  0  2  0  0  0  0  0  0
  -27.5850  -13.3160   19.6440 C   0  0  0  0  0  3  0  0  0  0  0  0
  -28.6710  -13.1600   20.7280 C   0  0  0  0  0  2  0  0  0  0  0  0
  -29.9520  -13.5330   20.1210 N   0  0  0  0  0  0  0  0  0  0  0  0
  -31.7420  -14.8870   19.8440 O   0  0  0  0  0  0  0  0  0  0  0  0
  -29.8010  -15.8480   20.5670 N   0  0  0  0  0  0  0  0  0  0  0  0
  -28.8680  -15.6080   20.8670 H   0  0  0  0  0  0  0  0  0  0  0  0
  -25.2130  -13.8900   20.4360 C   0  0  0  0  0  0  0  0  0  0  0  0
  -24.1660  -13.1030   20.8340 C   0  0  0  0  0  0  0  0  0  0  0  0
  -24.6390  -11.7570   20.7790 C   0  0  0  0  0  0  0  0  0  0  0  0
  -26.2560  -13.0210   20.1680 N   0  0  0  0  0  0  0  0  0  0  0  0
  -25.9190  -11.7320   20.4320 N   0  0  0  0  0  0  0  0  0  0  0  0
  -23.9260  -10.4880   20.9800 C   0  0  0  0  0  0  0  0  0  0  0  0
  -24.3790   -9.5260   21.9080 C   0  0  0  0  0  3  0  0  0  0  0  0
  -23.6670   -8.3240   22.1020 C   0  0  0  0  0  3  0  0  0  0  0  0
  -22.4870   -8.0730   21.3620 C   0  0  0  0  0  0  0  0  0  0  0  0
  -22.0530   -9.0210   20.4190 C   0  0  0  0  0  3  0  0  0  0  0  0
  -22.7670  -10.2170   20.2260 C   0  0  0  0  0  3  0  0  0  0  0  0
  -21.7440   -6.9220   21.4620 O   0  0  0  0  0  0  0  0  0  0  0  0
  -21.7010   -6.1890   22.6200 C   0  0  0  0  0  0  0  0  0  0  0  0
  -21.2430   -6.7440   23.8360 C   0  0  0  0  0  3  0  0  0  0  0  0
  -21.1510   -5.9380   24.9870 C   0  0  0  0  0  3  0  0  0  0  0  0
  -21.5050   -4.5770   24.9250 C   0  0  0  0  0  0  0  0  0  0  0  0
  -21.9510   -4.0210   23.7130 C   0  0  0  0  0  3  0  0  0  0  0  0
  -22.0450   -4.8240   22.5640 C   0  0  0  0  0  0  0  0  0  0  0  0
  -22.4580   -4.2780   21.3930 F   0  0  0  0  0  0  0  0  0  0  0  0
  -21.4060   -3.7990   26.0270 F   0  0  0  0  0  0  0  0  0  0  0  0
  -22.7710  -13.5660   21.1440 C   0  0  0  0  0  0  0  0  0  0  0  0
  -22.0730  -12.8530   22.0220 N   0  0  0  0  0  0  0  0  0  0  0  0
  -22.3100  -14.5930   20.6440 O   0  0  0  0  0  0  0  0  0  0  0  0
  -22.4670  -12.0270   22.4500 H   0  0  0  0  0  0  0  0  0  0  0  0
  -21.1320  -13.1300   22.2630 H   0  0  0  0  0  0  0  0  0  0  0  0
  -25.3580  -15.2620   20.2600 N   0  0  0  0  0  0  0  0  0  0  0  0
  -24.5810  -15.9010   20.3890 H   0  0  0  0  0  0  0  0  0  0  0  0
  -26.1720  -15.7080   19.8590 H   0  0  0  0  0  0  0  0  0  0  0  0
  -30.7780  -20.0200   18.0080 N   0  0  0  0  0  4  0  0  0  0  0  0
  -30.0760  -19.7030   17.3590 H   0  0  0  0  0  0  0  0  0  0  0  0
  -31.6790  -19.7600   17.6440 H   0  0  0  0  0  0  0  0  0  0  0  0
  -30.7510  -21.0220   18.0480 H   0  0  0  0  0  0  0  0  0  0  0  0
  -27.7100  -23.9410   21.8480 C   0  0  0  0  0  1  0  0  0  0  0  0
  -28.7620  -23.8170   20.7350 C   0  0  0  0  0  3  0  0  0  0  0  0
  -27.5700  -24.4860   18.5770 C   0  0  0  0  0  1  0  0  0  0  0  0
  -29.8780  -25.1710   18.8740 C   0  0  0  0  0  1  0  0  0  0  0  0
  -28.5550  -25.0140   19.6530 C   0  0  2  0  0  0  0  0  0  0  0  0
  -28.3830  -26.4420   20.1840 O   0  0  0  0  0  0  0  0  0  0  0  0
  -24.6210  -31.9090   23.2420 C   0  0  0  0  0  0  0  0  0  0  0  0
  -27.2410  -27.2970   20.1670 C   0  0  0  0  0  0  0  0  0  0  0  0
  -23.4340  -30.5150   21.5990 C   0  0  0  0  0  3  0  0  0  0  0  0
  -24.8890  -28.9800   20.1810 C   0  0  0  0  0  0  0  0  0  0  0  0
  -25.9880  -30.8240   21.4310 C   0  0  0  0  0  2  0  0  0  0  0  0
  -26.0700  -29.4440   20.7700 C   0  0  0  0  0  0  0  0  0  0  0  0
  -27.2470  -28.6200   20.7470 C   0  0  0  0  0  3  0  0  0  0  0  0
  -26.0030  -26.9010   19.6120 C   0  0  0  0  0  3  0  0  0  0  0  0
  -24.8600  -27.7130   19.6010 C   0  0  0  0  0  3  0  0  0  0  0  0
  -23.6600  -29.8630   20.2160 C   0  0  0  0  0  2  0  0  0  0  0  0
  -24.7020  -31.1020   22.1460 N   0  0  0  0  0  0  0  0  0  0  0  0
  -23.5300  -32.1810   23.7680 O   0  0  0  0  0  0  0  0  0  0  0  0
  -22.7690  -29.4820   22.5460 C   0  0  0  0  0  0  0  0  0  0  0  0
  -21.4440  -29.2990   22.4120 N   0  0  0  0  0  0  0  0  0  0  0  0
  -23.4450  -28.8530   23.3620 O   0  0  0  0  0  0  0  0  0  0  0  0
  -20.9600  -29.8650   21.7320 H   0  0  0  0  0  0  0  0  0  0  0  0
  -18.0580  -28.1070   22.9060 C   0  0  0  0  0  0  0  0  0  0  0  0
  -20.6200  -28.3550   23.1720 C   0  0  0  0  0  3  0  0  0  0  0  0
  -20.7120  -26.9290   22.5800 C   0  0  0  0  0  2  0  0  0  0  0  0
  -19.6020  -26.6200   21.5690 C   0  0  0  0  0  2  0  0  0  0  0  0
  -18.2240  -26.7640   22.2190 C   0  0  0  0  0  2  0  0  0  0  0  0
  -19.1810  -28.8620   23.3390 C   0  0  0  0  0  0  0  0  0  0  0  0
  -18.9700  -30.1220   23.9410 C   0  0  0  0  0  3  0  0  0  0  0  0
  -17.6650  -30.6250   24.1170 C   0  0  0  0  0  3  0  0  0  0  0  0
  -16.5570  -29.8660   23.7030 C   0  0  0  0  0  3  0  0  0  0  0  0
  -16.7530  -28.6090   23.1020 C   0  0  0  0  0  3  0  0  0  0  0  0
  -25.8920  -32.5500   23.8750 C   0  0  0  0  0  3  0  0  0  0  0  0
  -26.3910  -31.7850   25.1630 C   0  0  1  0  0  0  0  0  0  0  0  0
  -25.2840  -31.5500   26.2170 C   0  0  0  0  0  1  0  0  0  0  0  0
  -26.9860  -30.4080   24.7850 C   0  0  0  0  0  1  0  0  0  0  0  0
  -27.5280  -32.5880   25.8370 C   0  0  0  0  0  1  0  0  0  0  0  0
  -25.5750  -33.9490   24.1950 N   0  0  0  0  0  0  0  0  0  0  0  0
  -25.9030  -34.9980   23.4290 C   0  0  0  0  0  0  0  0  0  0  0  0
  -26.5790  -34.8890   22.4030 O   0  0  0  0  0  0  0  0  0  0  0  0
  -24.9870  -34.1090   25.0010 H   0  0  0  0  0  0  0  0  0  0  0  0
  -24.1760  -36.7820   23.0360 C   0  0  0  0  0  1  0  0  0  0  0  0
  -25.4050  -36.3880   23.8710 C   0  0  0  0  0  3  0  0  0  0  0  0
  -27.5210  -37.2810   24.7400 C   0  0  0  0  0  1  0  0  0  0  0  0
  -26.4370  -37.4430   23.7720 N   0  0  0  0  0  0  0  0  0  0  0  0
  -26.0260  -38.3630   23.9070 H   0  0  0  0  0  0  0  0  0  0  0  0
  1  3  2  0
  2 53  1  0
  2  1  1  0
  4  2  1  0
  6  9  1  0
  6  8  1  0
  7  1  1  0
  7  5  1  0
  8 18  1  0
  8  5  1  0
  9 48  1  0
  9  7  1  0
 10 18  1  0
 11 16  1  0
 12 13  1  0
 12 11  1  0
 14 13  1  0
 14 23  1  0
 14 15  1  0
 16 10  1  0
 16 15  1  0
 17 10  2  0
 18 19  1  0
 20 21  2  0
 21 40  1  0
 22 21  1  0
 22 25  1  0
 23 24  1  0
 23 20  1  0
 24 22  2  0
 25 26  1  0
 26 27  2  0
 28 31  1  0
 28 27  1  0
 29 28  2  0
 30 29  1  0
 30 25  2  0
 31 32  1  0
 32 33  1  0
 33 34  2  0
 35 34  1  0
 35 39  1  0
 36 35  2  0
 37 32  2  0
 37 36  1  0
 38 37  1  0
 40 41  1  0
 41 44  1  0
 41 43  1  0
 42 40  2  0
 45 46  1  0
 45 20  1  0
 47 45  1  0
 48 51  1  0
 49 48  1  0
 50 48  1  0
 53 52  1  0
 56 54  1  6
 55 56  1  0
 56 57  1  0
 56 53  1  0
 58 69  2  0
 59 57  1  0
 59 64  1  0
 60 68  1  0
 60 70  1  0
 61 67  1  0
 61 63  1  0
 62 68  1  0
 63 62  1  0
 64 63  2  0
 65 59  2  0
 66 65  1  0
 66 61  2  0
 67 60  1  0
 68 58  1  0
 70 72  2  0
 71 70  1  0
 73 71  1  0
 74 83  2  0
 74 79  1  0
 75 71  1  0
 75 79  1  0
 76 75  1  0
 77 78  1  0
 77 76  1  0
 78 74  1  0
 79 80  2  0
 80 81  1  0
 82 81  2  0
 83 82  1  0
 84 58  1  0
 84 89  1  0
 84 85  1  0
 85 88  1  1
 85 86  1  0
 87 85  1  0
 89 92  1  0
 90 94  1  0
 90 89  1  0
 91 90  2  0
 94 93  1  0
 96 94  1  0
 96 97  1  0
 96 95  1  0
M  ISO  4  10 100  18 100  56 101  57 101
M  END
>  <TORSDO>  (3) 
F 20

>  <SCORE>  (3) 
-14.115

>  <name>  (3) 
2

>  <ligand_id>  (3) 
2

>  <original_smiles>  (3) 
[H]c1c([H])c([H])c2c(c1[H])C([H])([H])C([H])([H])C([H])([H])C2([H])N([H])C(=O)C1([H])N(C(=O)C([H])(N([H])C(=O)C([H])(N([H])C([H])([H])[H])C([H])([H])[H])C(C([H])([H])[H])(C([H])([H])[H])C([H])([H])[H])C([H])([H])c2c([H])c(OC(C([H])([H])[H])(C([H])([H])[H])C([H])(N([H])C(=O)C3([H])C([H])([H])C([H])(N([H])C(=O)N4C([H])([H])C([H])([H])C([H])([H])C([H])(n5nc(-c6c([H])c([H])c(Oc7c([H])c([H])c(F)c([H])c7F)c([H])c6[H])c(C(=O)N([H])[H])c5N([H])[H])C4([H])[H])C([H])([H])C3([H])[N+]([H])([H])[H])C([H])([H])[H])c([H])c([H])c2C1([H])[H]

>  <smiles>  (3) 
[H]c1c([H])c([H])c2c(c1[H])C([H])([H])C([H])([H])C([H])([H])C2([H])N([H])C(=O)C1([H])N(C(=O)C([H])(N([H])C(=O)C([H])(N([H])C([H])([H])[H])C([H])([H])[H])C(C([H])([H])[H])(C([H])([H])[H])C([H])([H])[H])C([H])([H])c2c([H])c(OC(C([H])([H])[H])(C([H])([H])[H])C([H])(N([H])C(=O)C3([H])C([H])([H])C([H])(N([H])C(=O)N4C([H])([H])C([H])([H])C([H])([H])C([H])(n5nc(-c6c([H])c([H])c(Oc7c([H])c([H])c(F)c([H])c7F)c([H])c6[H])c(C(=O)N([H])[H])c5N([H])[H])C4([H])[H])C([H])([H])C3([H])[N+]([H])([H])[H])C([H])([H])[H])c([H])c([H])c2C1([H])[H]

$$$$
3:0:0
     RDKit          3D

 97105  0  0  1  0  0  0  0  0999 V2000
  -29.7710  -22.7540   21.6540 C   0  0  0  0  0  3  0  0  0  0  0  0
  -30.4840  -21.6100   22.1210 C   0  0  0  0  0  3  0  0  0  0  0  0
  -28.8310  -21.2720   20.0170 C   0  0  0  0  0  3  0  0  0  0  0  0
  -28.8790  -22.7320   20.5580 C   0  0  0  0  0  0  0  0  0  0  0  0
  -30.4210  -20.2920   21.5760 C   0  0  0  0  0  0  0  0  0  0  0  0
  -29.5730  -19.9770   20.4770 C   0  0  0  0  0  0  0  0  0  0  0  0
  -31.3760  -19.2490   22.1680 C   0  0  0  0  0  2  0  0  0  0  0  0
  -30.9350  -18.7260   23.4700 N   0  0  0  0  0  4  0  0  0  0  0  0
  -30.8320  -19.4590   24.1470 H   0  0  0  0  0  0  0  0  0  0  0  0
  -31.6270  -18.0830   23.8090 H   0  0  0  0  0  0  0  0  0  0  0  0
  -30.0630  -18.2390   23.3860 H   0  0  0  0  0  0  0  0  0  0  0  0
  -28.0690  -24.2650   20.1580 C   0  0  0  0  0  2  0  0  0  0  0  0
  -28.2110  -25.9100   20.4100 O   0  0  0  0  0  0  0  0  0  0  0  0
  -24.5410  -31.9200   23.1960 C   0  0  0  0  0  0  0  0  0  0  0  0
  -27.1900  -27.0070   20.2850 C   0  0  0  0  0  0  0  0  0  0  0  0
  -23.3830  -30.4860   21.5630 C   0  0  0  0  0  3  0  0  0  0  0  0
  -24.8720  -28.8790   20.1760 C   0  0  0  0  0  0  0  0  0  0  0  0
  -25.9500  -30.7170   21.4530 C   0  0  0  0  0  2  0  0  0  0  0  0
  -26.0460  -29.2980   20.8120 C   0  0  0  0  0  0  0  0  0  0  0  0
  -27.1950  -28.3850   20.8420 C   0  0  0  0  0  3  0  0  0  0  0  0
  -25.9860  -26.7430   19.5930 C   0  0  0  0  0  3  0  0  0  0  0  0
  -24.8690  -27.6210   19.5480 C   0  0  0  0  0  3  0  0  0  0  0  0
  -23.6360  -29.7820   20.2010 C   0  0  0  0  0  2  0  0  0  0  0  0
  -24.6450  -31.0710   22.1220 N   0  0  0  0  0  0  0  0  0  0  0  0
  -23.4420  -32.2070   23.6990 O   0  0  0  0  0  0  0  0  0  0  0  0
  -22.6880  -29.4980   22.5320 C   0  0  0  0  0  0  0  0  0  0  0  0
  -21.3560  -29.3350   22.4120 N   0  0  0  0  0  0  0  0  0  0  0  0
  -23.3540  -28.8770   23.3660 O   0  0  0  0  0  0  0  0  0  0  0  0
  -20.8720  -29.8820   21.7120 H   0  0  0  0  0  0  0  0  0  0  0  0
  -17.9690  -28.1540   22.9430 C   0  0  0  0  0  0  0  0  0  0  0  0
  -20.5330  -28.4040   23.1910 C   0  0  0  0  0  3  0  0  0  0  0  0
  -20.6240  -26.9710   22.6150 C   0  0  0  0  0  2  0  0  0  0  0  0
  -19.5130  -26.6540   21.6080 C   0  0  0  0  0  2  0  0  0  0  0  0
  -18.1360  -26.8060   22.2590 C   0  0  0  0  0  2  0  0  0  0  0  0
  -19.0950  -28.9110   23.3650 C   0  0  0  0  0  0  0  0  0  0  0  0
  -18.8840  -30.1720   23.9620 C   0  0  0  0  0  3  0  0  0  0  0  0
  -17.5810  -30.6730   24.1460 C   0  0  0  0  0  3  0  0  0  0  0  0
  -16.4710  -29.9100   23.7450 C   0  0  0  0  0  3  0  0  0  0  0  0
  -16.6670  -28.6530   23.1470 C   0  0  0  0  0  3  0  0  0  0  0  0
  -25.7980  -32.5850   23.8340 C   0  0  0  0  0  3  0  0  0  0  0  0
  -25.4600  -33.9850   24.1500 N   0  0  0  0  0  0  0  0  0  0  0  0
  -25.8020  -35.0440   23.4060 C   0  0  0  0  0  0  0  0  0  0  0  0
  -26.4970  -34.9490   22.3910 O   0  0  0  0  0  0  0  0  0  0  0  0
  -24.8460  -34.1350   24.9380 H   0  0  0  0  0  0  0  0  0  0  0  0
  -24.0800  -36.8390   23.0060 C   0  0  0  0  0  1  0  0  0  0  0  0
  -25.2960  -36.4310   23.8550 C   0  0  0  0  0  3  0  0  0  0  0  0
  -27.3920  -37.3260   24.7720 C   0  0  0  0  0  1  0  0  0  0  0  0
  -26.3270  -37.4890   23.7840 N   0  0  0  0  0  0  0  0  0  0  0  0
  -25.9100  -38.4060   23.9170 H   0  0  0  0  0  0  0  0  0  0  0  0
  -26.2990  -31.8440   25.1360 C   0  0  1  0  0  0  0  0  0  0  0  0
  -25.1880  -31.6130   26.1860 C   0  0  0  0  0  1  0  0  0  0  0  0
  -26.9080  -30.4650   24.7940 C   0  0  0  0  0  1  0  0  0  0  0  0
  -27.4270  -32.6660   25.8070 C   0  0  0  0  0  1  0  0  0  0  0  0
  -29.6390  -18.3460   19.7960 C   0  0  0  0  0  0  0  0  0  0  0  0
  -30.5870  -15.4830   20.1780 C   0  0  0  0  0  0  0  0  0  0  0  0
  -30.5790  -13.0260   19.3300 C   0  0  0  0  0  2  0  0  0  0  0  0
  -29.6560  -12.8000   18.1030 C   0  0  0  0  0  2  0  0  0  0  0  0
  -28.1980  -12.5560   18.5320 C   0  0  0  0  0  2  0  0  0  0  0  0
  -27.7590  -13.5150   19.6640 C   0  0  0  0  0  3  0  0  0  0  0  0
  -28.8030  -13.6450   20.7940 C   0  0  0  0  0  2  0  0  0  0  0  0
  -30.0410  -14.1620   20.1790 N   0  0  0  0  0  0  0  0  0  0  0  0
  -31.7670  -15.4940   19.8070 O   0  0  0  0  0  0  0  0  0  0  0  0
  -29.8190  -16.7530   20.3670 N   0  0  0  0  0  4  0  0  0  0  0  0
  -28.9800  -16.5140   20.8770 H   0  0  0  0  0  0  0  0  0  0  0  0
  -25.4030  -14.0920   20.4300 C   0  0  0  0  0  0  0  0  0  0  0  0
  -24.3310  -13.3230   20.7930 C   0  0  0  0  0  0  0  0  0  0  0  0
  -24.7840  -11.9710   20.7640 C   0  0  0  0  0  0  0  0  0  0  0  0
  -26.4300  -13.2060   20.1710 N   0  0  0  0  0  0  0  0  0  0  0  0
  -26.0720  -11.9230   20.4410 N   0  0  0  0  0  0  0  0  0  0  0  0
  -24.0480  -10.7120   20.9630 C   0  0  0  0  0  0  0  0  0  0  0  0
  -24.4640   -9.7460   21.9060 C   0  0  0  0  0  3  0  0  0  0  0  0
  -23.7210   -8.5590   22.0880 C   0  0  0  0  0  3  0  0  0  0  0  0
  -22.5490   -8.3310   21.3310 C   0  0  0  0  0  0  0  0  0  0  0  0
  -22.1510   -9.2870   20.3770 C   0  0  0  0  0  3  0  0  0  0  0  0
  -22.8950  -10.4640   20.1920 C   0  0  0  0  0  3  0  0  0  0  0  0
  -21.7800   -7.1970   21.4230 O   0  0  0  0  0  0  0  0  0  0  0  0
  -21.7110   -6.4660   22.5820 C   0  0  0  0  0  0  0  0  0  0  0  0
  -21.2650   -7.0350   23.7960 C   0  0  0  0  0  3  0  0  0  0  0  0
  -21.1490   -6.2340   24.9490 C   0  0  0  0  0  3  0  0  0  0  0  0
  -21.4600   -4.8630   24.8880 C   0  0  0  0  0  0  0  0  0  0  0  0
  -21.8950   -4.2910   23.6780 C   0  0  0  0  0  3  0  0  0  0  0  0
  -22.0160   -5.0900   22.5280 C   0  0  0  0  0  0  0  0  0  0  0  0
  -22.4170   -4.5330   21.3610 F   0  0  0  0  0  0  0  0  0  0  0  0
  -21.3390   -4.0880   25.9920 F   0  0  0  0  0  0  0  0  0  0  0  0
  -22.9370  -13.8150   21.0490 C   0  0  0  0  0  0  0  0  0  0  0  0
  -22.2020  -13.1410   21.9240 N   0  0  0  0  0  0  0  0  0  0  0  0
  -22.5120  -14.8340   20.5080 O   0  0  0  0  0  0  0  0  0  0  0  0
  -22.5680  -12.3160   22.3770 H   0  0  0  0  0  0  0  0  0  0  0  0
  -21.2640  -13.4520   22.1410 H   0  0  0  0  0  0  0  0  0  0  0  0
  -25.5750  -15.4630   20.2670 N   0  0  0  0  0  0  0  0  0  0  0  0
  -24.8240  -16.1130   20.4780 H   0  0  0  0  0  0  0  0  0  0  0  0
  -26.3780  -15.9110   19.8400 H   0  0  0  0  0  0  0  0  0  0  0  0
  -30.3120  -18.4860   18.4080 C   0  0  0  0  0  2  0  0  0  0  0  0
  -30.2100  -17.2900   17.5520 N   0  0  0  0  0  4  0  0  0  0  0  0
  -30.4810  -17.5450   16.6170 H   0  0  0  0  0  0  0  0  0  0  0  0
  -29.2690  -16.9410   17.5170 H   0  0  0  0  0  0  0  0  0  0  0  0
  -30.8250  -16.5680   17.8690 H   0  0  0  0  0  0  0  0  0  0  0  0
  1  2  1  0
  3  6  2  0
  3  4  1  0
  4  1  2  0
  5  2  2  0
  5  7  1  0
  6  5  1  0
  7  8  1  0
  8 10  1  0
  8  9  1  0
 11  8  1  0
 12 13  1  0
 12  4  1  0
 14 25  2  0
 15 13  1  0
 15 20  1  0
 16 24  1  0
 16 26  1  0
 17 23  1  0
 17 19  1  0
 18 24  1  0
 19 20  2  0
 19 18  1  0
 21 15  2  0
 22 21  1  0
 22 17  2  0
 23 16  1  0
 24 14  1  0
 26 28  2  0
 27 26  1  0
 29 27  1  0
 30 39  2  0
 30 35  1  0
 31 27  1  0
 31 35  1  0
 32 31  1  0
 33 34  1  0
 33 32  1  0
 34 30  1  0
 35 36  2  0
 36 37  1  0
 38 37  2  0
 39 38  1  0
 40 14  1  0
 40 41  1  0
 40 50  1  0
 41 44  1  0
 42 46  1  0
 42 41  1  0
 43 42  2  0
 46 45  1  0
 48 46  1  0
 48 49  1  0
 48 47  1  0
 50 53  1  1
 50 51  1  0
 52 50  1  0
 54 63  2  0
 54  6  1  0
 55 61  1  0
 55 63  1  0
 56 61  1  0
 57 58  1  0
 57 56  1  0
 59 58  1  0
 59 68  1  0
 59 60  1  0
 61 60  1  0
 62 55  2  0
 63 64  1  0
 65 66  2  0
 66 85  1  0
 67 66  1  0
 67 70  1  0
 68 65  1  0
 68 69  1  0
 69 67  2  0
 70 71  1  0
 71 72  2  0
 73 76  1  0
 73 72  1  0
 74 73  2  0
 75 74  1  0
 75 70  2  0
 76 77  1  0
 77 78  1  0
 78 79  2  0
 80 79  1  0
 80 84  1  0
 81 80  2  0
 82 77  2  0
 82 81  1  0
 83 82  1  0
 85 86  1  0
 86 89  1  0
 86 88  1  0
 87 85  2  0
 90 65  1  0
 90 91  1  0
 92 90  1  0
 93 54  1  0
 94 97  1  0
 94 93  1  0
 95 94  1  0
 96 94  1  0
M  ISO  4  12 101  13 101  55 100  63 100
M  END
>  <TORSDO>  (4) 
F 22

>  <SCORE>  (4) 
-15.643

>  <name>  (4) 
3

>  <ligand_id>  (4) 
3

>  <original_smiles>  (4) 
[H]c1c([H])c([H])c2c(c1[H])C([H])([H])C([H])([H])C([H])([H])C2([H])N([H])C(=O)C1([H])N(C(=O)C([H])(N([H])C(=O)C([H])(N([H])C([H])([H])[H])C([H])([H])[H])C(C([H])([H])[H])(C([H])([H])[H])C([H])([H])[H])C([H])([H])c2c([H])c(OC([H])([H])c3c([H])c([H])c(C([H])([H])[N+]([H])([H])[H])c(C([H])(N([H])C(=O)N4C([H])([H])C([H])([H])C([H])([H])C([H])(n5nc(-c6c([H])c([H])c(Oc7c([H])c([H])c(F)c([H])c7F)c([H])c6[H])c(C(=O)N([H])[H])c5N([H])[H])C4([H])[H])C([H])([H])[N+]([H])([H])[H])c3[H])c([H])c([H])c2C1([H])[H]

>  <smiles>  (4) 
[H]c1c([H])c([H])c2c(c1[H])C([H])([H])C([H])([H])C([H])([H])C2([H])N([H])C(=O)C1([H])N(C(=O)C([H])(N([H])C(=O)C([H])(N([H])C([H])([H])[H])C([H])([H])[H])C(C([H])([H])[H])(C([H])([H])[H])C([H])([H])[H])C([H])([H])c2c([H])c(OC([H])([H])c3c([H])c([H])c(C([H])([H])[N+]([H])([H])[H])c(C([H])(N([H])C(=O)N4C([H])([H])C([H])([H])C([H])([H])C([H])(n5nc(-c6c([H])c([H])c(Oc7c([H])c([H])c(F)c([H])c7F)c([H])c6[H])c(C(=O)N([H])[H])c5N([H])[H])C4([H])[H])C([H])([H])[N+]([H])([H])[H])c3[H])c([H])c([H])c2C1([H])[H]

$$$$
4:0:0
     RDKit          3D

 93101  0  0  1  0  0  0  0  0999 V2000
  -27.6790  -21.5880   19.9820 C   0  0  0  0  0  3  0  0  0  0  0  0
  -29.8050  -22.2940   20.5070 C   0  0  0  0  0  3  0  0  0  0  0  0
  -28.1080  -20.1680   19.9830 C   0  0  0  0  0  3  0  0  0  0  0  0
  -30.2360  -20.8670   20.5160 C   0  0  0  0  0  3  0  0  0  0  0  0
  -28.4710  -22.7930   20.2190 C   0  0  0  0  0  0  0  0  0  0  0  0
  -29.4420  -19.6630   20.2390 C   0  0  0  0  0  0  0  0  0  0  0  0
  -27.7770  -24.3780   20.0350 C   0  0  0  0  0  2  0  0  0  0  0  0
  -28.1690  -25.9290   20.3130 O   0  0  0  0  0  0  0  0  0  0  0  0
  -24.6270  -31.9030   23.2030 C   0  0  0  0  0  0  0  0  0  0  0  0
  -27.1790  -27.0330   20.2210 C   0  0  0  0  0  0  0  0  0  0  0  0
  -23.4300  -30.4930   21.5790 C   0  0  0  0  0  3  0  0  0  0  0  0
  -24.8800  -28.8910   20.1610 C   0  0  0  0  0  0  0  0  0  0  0  0
  -25.9940  -30.7170   21.4220 C   0  0  0  0  0  2  0  0  0  0  0  0
  -26.0670  -29.3050   20.7810 C   0  0  0  0  0  0  0  0  0  0  0  0
  -27.2130  -28.3950   20.7910 C   0  0  0  0  0  3  0  0  0  0  0  0
  -25.9650  -26.7720   19.5450 C   0  0  0  0  0  3  0  0  0  0  0  0
  -24.8520  -27.6450   19.5230 C   0  0  0  0  0  3  0  0  0  0  0  0
  -23.6560  -29.8030   20.2050 C   0  0  0  0  0  2  0  0  0  0  0  0
  -24.7060  -31.0640   22.1220 N   0  0  0  0  0  0  0  0  0  0  0  0
  -23.5390  -32.1930   23.7250 O   0  0  0  0  0  0  0  0  0  0  0  0
  -22.7430  -29.4980   22.5500 C   0  0  0  0  0  0  0  0  0  0  0  0
  -21.4130  -29.3340   22.4310 N   0  0  0  0  0  0  0  0  0  0  0  0
  -23.4110  -28.8770   23.3800 O   0  0  0  0  0  0  0  0  0  0  0  0
  -20.9280  -29.8840   21.7360 H   0  0  0  0  0  0  0  0  0  0  0  0
  -18.0270  -28.1460   22.9600 C   0  0  0  0  0  0  0  0  0  0  0  0
  -20.5900  -28.4050   23.2120 C   0  0  0  0  0  3  0  0  0  0  0  0
  -20.6850  -26.9690   22.6440 C   0  0  0  0  0  2  0  0  0  0  0  0
  -19.5760  -26.6460   21.6370 C   0  0  0  0  0  2  0  0  0  0  0  0
  -18.1980  -26.7940   22.2890 C   0  0  0  0  0  2  0  0  0  0  0  0
  -19.1500  -28.9090   23.3790 C   0  0  0  0  0  0  0  0  0  0  0  0
  -18.9330  -30.1730   23.9710 C   0  0  0  0  0  3  0  0  0  0  0  0
  -17.6280  -30.6720   24.1460 C   0  0  0  0  0  3  0  0  0  0  0  0
  -16.5210  -29.9050   23.7420 C   0  0  0  0  0  3  0  0  0  0  0  0
  -16.7230  -28.6440   23.1530 C   0  0  0  0  0  3  0  0  0  0  0  0
  -25.9000  -32.5480   23.8280 C   0  0  0  0  0  3  0  0  0  0  0  0
  -25.5830  -33.9500   24.1520 N   0  0  0  0  0  0  0  0  0  0  0  0
  -25.9120  -35.0060   23.3950 C   0  0  0  0  0  0  0  0  0  0  0  0
  -26.5810  -34.9020   22.3630 O   0  0  0  0  0  0  0  0  0  0  0  0
  -24.9910  -34.1040   24.9550 H   0  0  0  0  0  0  0  0  0  0  0  0
  -24.1920  -36.8080   23.0370 C   0  0  0  0  0  1  0  0  0  0  0  0
  -25.4280  -36.3960   23.8540 C   0  0  0  0  0  3  0  0  0  0  0  0
  -27.5610  -37.2780   24.6950 C   0  0  0  0  0  1  0  0  0  0  0  0
  -26.4640  -37.4480   23.7460 N   0  0  0  0  0  0  0  0  0  0  0  0
  -26.0580  -38.3680   23.8900 H   0  0  0  0  0  0  0  0  0  0  0  0
  -26.4050  -31.7920   25.1180 C   0  0  1  0  0  0  0  0  0  0  0  0
  -25.3050  -31.5740   26.1830 C   0  0  0  0  0  1  0  0  0  0  0  0
  -26.9890  -30.4080   24.7560 C   0  0  0  0  0  1  0  0  0  0  0  0
  -27.5550  -32.5930   25.7770 C   0  0  0  0  0  1  0  0  0  0  0  0
  -30.0980  -18.0830   19.9130 C   0  0  0  0  0  3  0  0  0  0  0  0
  -30.5220  -15.2620   20.2460 C   0  0  0  0  0  0  0  0  0  0  0  0
  -30.4510  -12.8510   19.3380 C   0  0  0  0  0  2  0  0  0  0  0  0
  -29.5180  -12.7030   18.1120 C   0  0  0  0  0  2  0  0  0  0  0  0
  -28.0660  -12.4510   18.5580 C   0  0  0  0  0  2  0  0  0  0  0  0
  -27.6400  -13.3850   19.7180 C   0  0  0  0  0  3  0  0  0  0  0  0
  -28.7030  -13.4860   20.8340 C   0  0  0  0  0  2  0  0  0  0  0  0
  -29.9370  -13.9710   20.2040 N   0  0  0  0  0  0  0  0  0  0  0  0
  -31.7270  -15.2650   19.9570 O   0  0  0  0  0  0  0  0  0  0  0  0
  -29.7880  -16.5320   20.3770 N   0  0  0  0  0  0  0  0  0  0  0  0
  -28.8290  -16.3900   20.6580 H   0  0  0  0  0  0  0  0  0  0  0  0
  -25.2730  -13.9300   20.4950 C   0  0  0  0  0  0  0  0  0  0  0  0
  -24.2190  -13.1450   20.8710 C   0  0  0  0  0  0  0  0  0  0  0  0
  -24.6920  -11.7970   20.8280 C   0  0  0  0  0  0  0  0  0  0  0  0
  -26.3170  -13.0610   20.2350 N   0  0  0  0  0  0  0  0  0  0  0  0
  -25.9820  -11.7720   20.5050 N   0  0  0  0  0  0  0  0  0  0  0  0
  -23.9740  -10.5290   21.0180 C   0  0  0  0  0  0  0  0  0  0  0  0
  -24.4120   -9.5620   21.9480 C   0  0  0  0  0  3  0  0  0  0  0  0
  -23.6900   -8.3610   22.1260 C   0  0  0  0  0  3  0  0  0  0  0  0
  -22.5160   -8.1200   21.3740 C   0  0  0  0  0  0  0  0  0  0  0  0
  -22.0970   -9.0770   20.4320 C   0  0  0  0  0  3  0  0  0  0  0  0
  -22.8200  -10.2690   20.2510 C   0  0  0  0  0  3  0  0  0  0  0  0
  -21.7650   -6.9740   21.4620 O   0  0  0  0  0  0  0  0  0  0  0  0
  -21.7100   -6.2360   22.6180 C   0  0  0  0  0  0  0  0  0  0  0  0
  -21.2640   -6.7920   23.8360 C   0  0  0  0  0  3  0  0  0  0  0  0
  -21.1560   -5.9790   24.9830 C   0  0  0  0  0  3  0  0  0  0  0  0
  -21.4870   -4.6130   24.9120 C   0  0  0  0  0  0  0  0  0  0  0  0
  -21.9280   -4.0560   23.6980 C   0  0  0  0  0  3  0  0  0  0  0  0
  -22.0370   -4.8660   22.5540 C   0  0  0  0  0  0  0  0  0  0  0  0
  -22.4400   -4.3200   21.3810 F   0  0  0  0  0  0  0  0  0  0  0  0
  -21.3770   -3.8310   26.0110 F   0  0  0  0  0  0  0  0  0  0  0  0
  -22.8210  -13.6130   21.1520 C   0  0  0  0  0  0  0  0  0  0  0  0
  -22.0970  -12.9040   22.0100 N   0  0  0  0  0  0  0  0  0  0  0  0
  -22.3790  -14.6430   20.6440 O   0  0  0  0  0  0  0  0  0  0  0  0
  -22.4680  -12.0720   22.4440 H   0  0  0  0  0  0  0  0  0  0  0  0
  -21.1580  -13.1990   22.2390 H   0  0  0  0  0  0  0  0  0  0  0  0
  -25.4260  -15.3040   20.3240 N   0  0  0  0  0  0  0  0  0  0  0  0
  -24.6560  -15.9500   20.4560 H   0  0  0  0  0  0  0  0  0  0  0  0
  -26.2540  -15.7470   19.9510 H   0  0  0  0  0  0  0  0  0  0  0  0
  -30.1440  -17.9670   18.3610 C   0  0  0  0  0  2  0  0  0  0  0  0
  -30.8390  -19.0910   17.5520 C   0  0  0  0  0  2  0  0  0  0  0  0
  -32.3100  -18.9840   17.5490 N   0  0  0  0  0  4  0  0  0  0  0  0
  -32.7010  -19.1960   18.4500 H   0  0  0  0  0  0  0  0  0  0  0  0
  -32.6930  -19.6380   16.8890 H   0  0  0  0  0  0  0  0  0  0  0  0
  -32.6040  -18.0640   17.2710 H   0  0  0  0  0  0  0  0  0  0  0  0
  1  3  2  0
  1  5  1  0
  2  4  1  0
  3  6  1  0
  5  2  2  0
  6  4  2  0
  7  5  1  0
  7  8  1  0
  9 20  2  0
 10  8  1  0
 10 15  1  0
 11 19  1  0
 11 21  1  0
 12 18  1  0
 12 14  1  0
 13 19  1  0
 14 15  2  0
 14 13  1  0
 16 10  2  0
 17 16  1  0
 17 12  2  0
 18 11  1  0
 19  9  1  0
 21 23  2  0
 22 21  1  0
 24 22  1  0
 25 34  2  0
 25 30  1  0
 26 22  1  0
 26 30  1  0
 27 26  1  0
 28 29  1  0
 28 27  1  0
 29 25  1  0
 30 31  2  0
 31 32  1  0
 33 32  2  0
 34 33  1  0
 35  9  1  0
 35 36  1  0
 35 45  1  0
 36 39  1  0
 37 41  1  0
 37 36  1  0
 38 37  2  0
 41 40  1  0
 43 41  1  0
 43 44  1  0
 43 42  1  0
 45 48  1  1
 45 46  1  0
 47 45  1  0
 49 88  1  0
 49  6  1  0
 49 58  1  0
 50 58  1  0
 51 56  1  0
 52 53  1  0
 52 51  1  0
 54 53  1  0
 54 63  1  0
 54 55  1  0
 56 50  1  0
 56 55  1  0
 57 50  2  0
 58 59  1  0
 60 61  2  0
 61 80  1  0
 62 61  1  0
 62 65  1  0
 63 60  1  0
 63 64  1  0
 64 62  2  0
 65 66  1  0
 66 67  2  0
 68 71  1  0
 68 67  1  0
 69 68  2  0
 70 69  1  0
 70 65  2  0
 71 72  1  0
 72 73  1  0
 73 74  2  0
 75 74  1  0
 75 79  1  0
 76 75  2  0
 77 72  2  0
 77 76  1  0
 78 77  1  0
 80 81  1  0
 81 84  1  0
 81 83  1  0
 82 80  2  0
 85 86  1  0
 85 60  1  0
 87 85  1  0
 89 88  1  0
 90 89  1  0
 90 91  1  0
 92 90  1  0
 93 90  1  0
M  ISO  4   7 101   8 101  50 100  58 100
M  END
>  <TORSDO>  (5) 
F 21

>  <SCORE>  (5) 
-14.615

>  <name>  (5) 
4

>  <ligand_id>  (5) 
4

>  <original_smiles>  (5) 
[H]c1c([H])c([H])c2c(c1[H])C([H])([H])C([H])([H])C([H])([H])C2([H])N([H])C(=O)C1([H])N(C(=O)C([H])(N([H])C(=O)C([H])(N([H])C([H])([H])[H])C([H])([H])[H])C(C([H])([H])[H])(C([H])([H])[H])C([H])([H])[H])C([H])([H])c2c([H])c(OC([H])([H])c3c([H])c([H])c(C([H])(N([H])C(=O)N4C([H])([H])C([H])([H])C([H])([H])C([H])(n5nc(-c6c([H])c([H])c(Oc7c([H])c([H])c(F)c([H])c7F)c([H])c6[H])c(C(=O)N([H])[H])c5N([H])[H])C4([H])[H])C([H])([H])C([H])([H])[N+]([H])([H])[H])c([H])c3[H])c([H])c([H])c2C1([H])[H]

>  <smiles>  (5) 
[H]c1c([H])c([H])c2c(c1[H])C([H])([H])C([H])([H])C([H])([H])C2([H])N([H])C(=O)C1([H])N(C(=O)C([H])(N([H])C(=O)C([H])(N([H])C([H])([H])[H])C([H])([H])[H])C(C([H])([H])[H])(C([H])([H])[H])C([H])([H])[H])C([H])([H])c2c([H])c(OC([H])([H])c3c([H])c([H])c(C([H])(N([H])C(=O)N4C([H])([H])C([H])([H])C([H])([H])C([H])(n5nc(-c6c([H])c([H])c(Oc7c([H])c([H])c(F)c([H])c7F)c([H])c6[H])c(C(=O)N([H])[H])c5N([H])[H])C4([H])[H])C([H])([H])C([H])([H])[N+]([H])([H])[H])c([H])c3[H])c([H])c([H])c2C1([H])[H]

$$$$
5:0:0
     RDKit          3D

 99109  0  0  1  0  0  0  0  0999 V2000
  -31.1330  -21.8530   25.0910 C   0  0  0  0  0  2  0  0  0  0  0  0
  -29.3900  -22.5470   23.3110 C   0  0  0  0  0  2  0  0  0  0  0  0
  -31.7350  -23.4260   23.1320 C   0  0  0  0  0  2  0  0  0  0  0  0
  -30.1280  -21.3960   24.0240 C   0  0  0  0  0  3  0  0  0  0  0  0
  -32.0300  -22.1070   23.8680 C   0  0  0  0  0  3  0  0  0  0  0  0
  -31.3740  -20.8240   23.3020 C   0  0  0  0  0  3  0  0  0  0  0  0
  -30.3500  -23.4250   22.5680 N   0  0  2  0  0  4  0  0  0  0  0  0
  -30.4380  -23.0070   21.6520 H   0  0  0  0  0  0  0  0  0  0  0  0
  -31.9620  -19.4440   23.6510 C   0  0  0  0  0  2  0  0  0  0  0  0
  -30.8430  -17.7680   22.1840 C   0  0  0  0  0  0  0  0  0  0  0  0
  -31.0250  -18.3620   23.3680 N   0  0  0  0  0  0  0  0  0  0  0  0
  -31.4370  -18.1290   21.1650 O   0  0  0  0  0  0  0  0  0  0  0  0
  -30.5060  -17.9960   24.1540 H   0  0  0  0  0  0  0  0  0  0  0  0
  -30.0920  -14.0370   20.0780 C   0  0  0  0  0  0  0  0  0  0  0  0
  -29.7140  -12.0020   18.7370 C   0  0  0  0  0  2  0  0  0  0  0  0
  -28.6630  -12.2640   17.6430 C   0  0  0  0  0  2  0  0  0  0  0  0
  -27.2420  -12.0260   18.1890 C   0  0  0  0  0  2  0  0  0  0  0  0
  -26.9890  -12.7630   19.5310 C   0  0  0  0  0  3  0  0  0  0  0  0
  -28.1420  -12.4990   20.5260 C   0  0  0  0  0  2  0  0  0  0  0  0
  -29.4110  -12.8790   19.8770 N   0  0  0  0  0  0  0  0  0  0  0  0
  -31.0680  -14.3750   19.4000 O   0  0  0  0  0  0  0  0  0  0  0  0
  -29.2760  -16.2280   20.7900 C   0  0  0  0  0  2  0  0  0  0  0  0
  -30.5020  -15.2320   22.1700 C   0  0  0  0  0  2  0  0  0  0  0  0
  -29.8360  -16.6040   22.1600 C   0  0  0  0  0  3  0  0  0  0  0  0
  -29.6230  -14.8230   21.0650 N   0  0  0  0  0  0  0  0  0  0  0  0
  -24.5950  -13.2090   20.3730 C   0  0  0  0  0  0  0  0  0  0  0  0
  -23.6150  -12.3680   20.8280 C   0  0  0  0  0  0  0  0  0  0  0  0
  -24.1770  -11.0550   20.7980 C   0  0  0  0  0  0  0  0  0  0  0  0
  -25.6910  -12.4040   20.0990 N   0  0  0  0  0  0  0  0  0  0  0  0
  -25.4440  -11.1050   20.4080 N   0  0  0  0  0  0  0  0  0  0  0  0
  -23.5640   -9.7470   21.0640 C   0  0  0  0  0  0  0  0  0  0  0  0
  -24.0970   -8.8640   22.0300 C   0  0  0  0  0  3  0  0  0  0  0  0
  -23.4810   -7.6200   22.2800 C   0  0  0  0  0  3  0  0  0  0  0  0
  -22.3180   -7.2470   21.5660 C   0  0  0  0  0  0  0  0  0  0  0  0
  -21.8050   -8.1190   20.5880 C   0  0  0  0  0  3  0  0  0  0  0  0
  -22.4230   -9.3550   20.3370 C   0  0  0  0  0  3  0  0  0  0  0  0
  -21.6660   -6.0480   21.7230 O   0  0  0  0  0  0  0  0  0  0  0  0
  -21.6780   -5.3750   22.9180 C   0  0  0  0  0  0  0  0  0  0  0  0
  -21.1830   -5.9550   24.1070 C   0  0  0  0  0  3  0  0  0  0  0  0
  -21.1510   -5.2030   25.2980 C   0  0  0  0  0  3  0  0  0  0  0  0
  -21.6020   -3.8690   25.3010 C   0  0  0  0  0  0  0  0  0  0  0  0
  -22.0900   -3.2880   24.1180 C   0  0  0  0  0  3  0  0  0  0  0  0
  -22.1240   -4.0380   22.9300 C   0  0  0  0  0  0  0  0  0  0  0  0
  -22.5760   -3.4650   21.7870 F   0  0  0  0  0  0  0  0  0  0  0  0
  -21.5640   -3.1430   26.4430 F   0  0  0  0  0  0  0  0  0  0  0  0
  -22.2040  -12.7440   21.1800 C   0  0  0  0  0  0  0  0  0  0  0  0
  -21.5880  -12.0170   22.1070 N   0  0  0  0  0  0  0  0  0  0  0  0
  -21.6560  -13.7190   20.6690 O   0  0  0  0  0  0  0  0  0  0  0  0
  -22.0450  -11.2290   22.5430 H   0  0  0  0  0  0  0  0  0  0  0  0
  -20.6460  -12.2510   22.3850 H   0  0  0  0  0  0  0  0  0  0  0  0
  -24.6420  -14.5820   20.1530 N   0  0  0  0  0  0  0  0  0  0  0  0
  -23.8370  -15.1830   20.3000 H   0  0  0  0  0  0  0  0  0  0  0  0
  -25.4440  -15.0760   19.7810 H   0  0  0  0  0  0  0  0  0  0  0  0
  -29.8410  -24.7870   22.2750 C   0  0  0  0  0  2  0  0  0  0  0  0
  -28.8940  -24.7980   21.0570 C   0  0  0  0  0  3  0  0  0  0  0  0
  -29.5490  -24.1130   20.0010 O   0  0  0  0  0  0  0  0  0  0  0  0
  -29.0050  -24.2240   19.2250 H   0  0  0  0  0  0  0  0  0  0  0  0
  -28.5440  -26.2250   20.5880 C   0  0  0  0  0  2  0  0  0  0  0  0
  -27.4480  -26.1250   19.6790 O   0  0  0  0  0  0  0  0  0  0  0  0
  -24.4360  -31.6370   23.0960 C   0  0  0  0  0  0  0  0  0  0  0  0
  -26.4040  -27.0100   19.8170 C   0  0  0  0  0  0  0  0  0  0  0  0
  -22.9720  -30.3700   21.5540 C   0  0  0  0  0  3  0  0  0  0  0  0
  -24.1570  -28.7140   20.0170 C   0  0  0  0  0  0  0  0  0  0  0  0
  -25.4940  -30.4970   21.1550 C   0  0  0  0  0  2  0  0  0  0  0  0
  -25.3990  -29.1290   20.5130 C   0  0  0  0  0  0  0  0  0  0  0  0
  -26.5250  -28.2870   20.4160 C   0  0  0  0  0  3  0  0  0  0  0  0
  -25.1510  -26.6100   19.3110 C   0  0  0  0  0  3  0  0  0  0  0  0
  -24.0250  -27.4500   19.4150 C   0  0  0  0  0  3  0  0  0  0  0  0
  -23.0050  -29.6810   20.1620 C   0  0  0  0  0  2  0  0  0  0  0  0
  -24.3240  -30.8460   21.9920 N   0  0  0  0  0  0  0  0  0  0  0  0
  -23.4340  -32.0070   23.7230 O   0  0  0  0  0  0  0  0  0  0  0  0
  -22.3060  -29.4090   22.5650 C   0  0  0  0  0  0  0  0  0  0  0  0
  -20.9790  -29.2380   22.4410 N   0  0  0  0  0  0  0  0  0  0  0  0
  -22.9790  -28.8180   23.4130 O   0  0  0  0  0  0  0  0  0  0  0  0
  -20.5000  -29.7650   21.7240 H   0  0  0  0  0  0  0  0  0  0  0  0
  -17.6140  -27.9980   22.8760 C   0  0  0  0  0  0  0  0  0  0  0  0
  -20.1460  -28.3540   23.2540 C   0  0  0  0  0  3  0  0  0  0  0  0
  -20.3140  -26.8780   22.8230 C   0  0  0  0  0  2  0  0  0  0  0  0
  -19.2780  -26.4300   21.7880 C   0  0  0  0  0  2  0  0  0  0  0  0
  -17.8600  -26.5960   22.3430 C   0  0  0  0  0  2  0  0  0  0  0  0
  -18.6890  -28.8280   23.2880 C   0  0  0  0  0  0  0  0  0  0  0  0
  -18.4090  -30.1350   23.7430 C   0  0  0  0  0  3  0  0  0  0  0  0
  -17.0870  -30.6140   23.7890 C   0  0  0  0  0  3  0  0  0  0  0  0
  -16.0250  -29.7820   23.3950 C   0  0  0  0  0  3  0  0  0  0  0  0
  -16.2900  -28.4770   22.9440 C   0  0  0  0  0  3  0  0  0  0  0  0
  -25.8260  -32.1320   23.6090 C   0  0  0  0  0  3  0  0  0  0  0  0
  -25.6580  -33.5190   24.0630 N   0  0  0  0  0  0  0  0  0  0  0  0
  -26.0440  -34.5970   23.3700 C   0  0  0  0  0  0  0  0  0  0  0  0
  -26.6510  -34.5240   22.2970 O   0  0  0  0  0  0  0  0  0  0  0  0
  -25.1170  -33.6570   24.9040 H   0  0  0  0  0  0  0  0  0  0  0  0
  -24.4720  -36.5540   23.2420 C   0  0  0  0  0  1  0  0  0  0  0  0
  -25.7030  -35.9790   23.9590 C   0  0  0  0  0  3  0  0  0  0  0  0
  -27.9410  -36.6010   24.7560 C   0  0  0  0  0  1  0  0  0  0  0  0
  -26.8210  -36.9440   23.8820 N   0  0  0  0  0  0  0  0  0  0  0  0
  -26.5060  -37.8800   24.1220 H   0  0  0  0  0  0  0  0  0  0  0  0
  -26.4210  -31.2340   24.7620 C   0  0  1  0  0  0  0  0  0  0  0  0
  -25.4270  -30.9680   25.9160 C   0  0  0  0  0  1  0  0  0  0  0  0
  -26.8760  -29.8640   24.2060 C   0  0  0  0  0  1  0  0  0  0  0  0
  -27.6790  -31.9100   25.3570 C   0  0  0  0  0  1  0  0  0  0  0  0
  4  2  1  0
  4  1  1  0
  5  3  1  0
  5  1  1  0
  6  9  1  0
  6  5  1  0
  6  4  1  0
  7  3  1  0
  7  2  1  0
  7  8  1  6
 10 11  1  0
 11  9  1  0
 11 13  1  0
 12 10  2  0
 14 25  1  0
 15 20  1  0
 16 17  1  0
 16 15  1  0
 18 17  1  0
 18 29  1  0
 18 19  1  0
 20 14  1  0
 20 19  1  0
 21 14  2  0
 22 25  1  0
 22 24  1  0
 24 23  1  0
 24 10  1  0
 25 23  1  0
 26 27  2  0
 27 46  1  0
 28 27  1  0
 28 31  1  0
 29 26  1  0
 29 30  1  0
 30 28  2  0
 31 32  1  0
 32 33  2  0
 34 37  1  0
 34 33  1  0
 35 34  2  0
 36 35  1  0
 36 31  2  0
 37 38  1  0
 38 43  2  0
 38 39  1  0
 39 40  2  0
 40 41  1  0
 41 45  1  0
 42 41  2  0
 43 42  1  0
 44 43  1  0
 46 47  1  0
 47 50  1  0
 47 49  1  0
 48 46  2  0
 51 52  1  0
 51 26  1  0
 53 51  1  0
 54  7  1  0
 55 58  1  0
 55 54  1  0
 56 55  1  0
 57 56  1  0
 59 61  1  0
 59 58  1  0
 60 71  2  0
 61 66  1  0
 62 70  1  0
 62 72  1  0
 63 69  1  0
 63 65  1  0
 64 70  1  0
 65 64  1  0
 66 65  2  0
 67 68  1  0
 67 61  2  0
 68 63  2  0
 69 62  1  0
 70 60  1  0
 72 74  2  0
 73 72  1  0
 75 73  1  0
 76 85  2  0
 76 81  1  0
 77 73  1  0
 77 81  1  0
 78 77  1  0
 79 80  1  0
 79 78  1  0
 80 76  1  0
 81 82  2  0
 82 83  1  0
 84 83  2  0
 85 84  1  0
 86 60  1  0
 86 87  1  0
 86 96  1  0
 87 90  1  0
 88 92  1  0
 88 87  1  0
 89 88  2  0
 92 91  1  0
 94 92  1  0
 94 95  1  0
 94 93  1  0
 96 99  1  1
 96 97  1  0
 98 96  1  0
M  ISO  4  14 100  25 100  58 101  59 101
M  END
>  <TORSDO>  (6) 
F 22

>  <SCORE>  (6) 
-6.062

>  <name>  (6) 
5

>  <ligand_id>  (6) 
5

>  <original_smiles>  (6) 
[H]OC([H])(C([H])([H])Oc1c([H])c([H])c2c(c1[H])C([H])([H])N(C(=O)C([H])(N([H])C(=O)C([H])(N([H])C([H])([H])[H])C([H])([H])[H])C(C([H])([H])[H])(C([H])([H])[H])C([H])([H])[H])C([H])(C(=O)N([H])C1([H])c3c([H])c([H])c([H])c([H])c3C([H])([H])C([H])([H])C1([H])[H])C2([H])[H])C([H])([H])[N+]1([H])C([H])([H])C2([H])C([H])([H])C([H])(C2([H])C([H])([H])N([H])C(=O)C2([H])C([H])([H])N(C(=O)N3C([H])([H])C([H])([H])C([H])([H])C([H])(n4nc(-c5c([H])c([H])c(Oc6c([H])c([H])c(F)c([H])c6F)c([H])c5[H])c(C(=O)N([H])[H])c4N([H])[H])C3([H])[H])C2([H])[H])C1([H])[H]

>  <smiles>  (6) 
[H]OC([H])(C([H])([H])Oc1c([H])c([H])c2c(c1[H])C([H])([H])N(C(=O)C([H])(N([H])C(=O)C([H])(N([H])C([H])([H])[H])C([H])([H])[H])C(C([H])([H])[H])(C([H])([H])[H])C([H])([H])[H])C([H])(C(=O)N([H])C1([H])c3c([H])c([H])c([H])c([H])c3C([H])([H])C([H])([H])C1([H])[H])C2([H])[H])C([H])([H])[N+]1([H])C([H])([H])C2([H])C([H])([H])C([H])(C2([H])C([H])([H])N([H])C(=O)C2([H])C([H])([H])N(C(=O)N3C([H])([H])C([H])([H])C([H])([H])C([H])(n4nc(-c5c([H])c([H])c(Oc6c([H])c([H])c(F)c([H])c6F)c([H])c5[H])c(C(=O)N([H])[H])c4N([H])[H])C3([H])[H])C2([H])[H])C1([H])[H]

$$$$
6:0:0
     RDKit          3D

100109  0  0  1  0  0  0  0  0999 V2000
  -28.8870  -21.2620   19.1010 C   0  0  0  0  0  3  0  0  0  0  0  0
  -29.4510  -21.7200   21.3680 C   0  0  0  0  0  3  0  0  0  0  0  0
  -28.5210  -22.6290   18.9120 C   0  0  0  0  0  0  0  0  0  0  0  0
  -29.0710  -23.1040   21.2160 C   0  0  0  0  0  0  0  0  0  0  0  0
  -29.3500  -20.7460   20.3300 C   0  0  0  0  0  0  0  0  0  0  0  0
  -28.6030  -23.6180   19.9610 C   0  0  0  0  0  0  0  0  0  0  0  0
  -30.7560  -14.7950   20.0340 C   0  0  0  0  0  0  0  0  0  0  0  0
  -30.3690  -12.5720   18.9720 C   0  0  0  0  0  2  0  0  0  0  0  0
  -29.3680  -12.6560   17.8040 C   0  0  0  0  0  2  0  0  0  0  0  0
  -27.9310  -12.4790   18.3240 C   0  0  0  0  0  2  0  0  0  0  0  0
  -27.6320  -13.3550   19.5710 C   0  0  0  0  0  3  0  0  0  0  0  0
  -28.7620  -13.2750   20.6220 C   0  0  0  0  0  2  0  0  0  0  0  0
  -30.0020  -13.6440   19.9320 N   0  0  0  0  0  0  0  0  0  0  0  0
  -31.9450  -14.7110   19.7130 O   0  0  0  0  0  0  0  0  0  0  0  0
  -28.6850  -18.1520   20.8080 C   0  0  0  0  0  2  0  0  0  0  0  0
  -30.4920  -18.6100   19.2870 C   0  0  0  0  0  2  0  0  0  0  0  0
  -29.1630  -16.6360   20.9850 C   0  0  0  0  0  2  0  0  0  0  0  0
  -31.0820  -17.1840   19.5320 C   0  0  0  0  0  2  0  0  0  0  0  0
  -29.7820  -19.2220   20.5080 C   0  0  0  0  0  3  0  0  0  0  0  0
  -30.1960  -16.0880   20.0510 N   0  0  0  0  0  0  0  0  0  0  0  0
  -25.2980  -13.9220   20.4630 C   0  0  0  0  0  0  0  0  0  0  0  0
  -24.2530  -13.1380   20.8660 C   0  0  0  0  0  0  0  0  0  0  0  0
  -24.7090  -11.7880   20.7650 C   0  0  0  0  0  0  0  0  0  0  0  0
  -26.3240  -13.0490   20.1390 N   0  0  0  0  0  0  0  0  0  0  0  0
  -25.9800  -11.7590   20.3840 N   0  0  0  0  0  0  0  0  0  0  0  0
  -23.9890  -10.5210   20.9540 C   0  0  0  0  0  0  0  0  0  0  0  0
  -24.4290   -9.5520   21.8820 C   0  0  0  0  0  3  0  0  0  0  0  0
  -23.7080   -8.3510   22.0590 C   0  0  0  0  0  3  0  0  0  0  0  0
  -22.5320   -8.1110   21.3080 C   0  0  0  0  0  0  0  0  0  0  0  0
  -22.1120   -9.0680   20.3680 C   0  0  0  0  0  3  0  0  0  0  0  0
  -22.8340  -10.2600   20.1880 C   0  0  0  0  0  3  0  0  0  0  0  0
  -21.7820   -6.9630   21.3950 O   0  0  0  0  0  0  0  0  0  0  0  0
  -21.6780   -6.2590   22.5680 C   0  0  0  0  0  0  0  0  0  0  0  0
  -21.1230   -6.8310   23.7350 C   0  0  0  0  0  3  0  0  0  0  0  0
  -20.9710   -6.0500   24.8980 C   0  0  0  0  0  3  0  0  0  0  0  0
  -21.3630   -4.6980   24.8960 C   0  0  0  0  0  0  0  0  0  0  0  0
  -21.9110   -4.1260   23.7340 C   0  0  0  0  0  3  0  0  0  0  0  0
  -22.0640   -4.9040   22.5720 C   0  0  0  0  0  0  0  0  0  0  0  0
  -22.5730   -4.3410   21.4500 F   0  0  0  0  0  0  0  0  0  0  0  0
  -21.2110   -3.9460   26.0100 F   0  0  0  0  0  0  0  0  0  0  0  0
  -22.8760  -13.6100   21.2320 C   0  0  0  0  0  0  0  0  0  0  0  0
  -22.1980  -12.8930   22.1230 N   0  0  0  0  0  0  0  0  0  0  0  0
  -22.4120  -14.6480   20.7640 O   0  0  0  0  0  0  0  0  0  0  0  0
  -22.5880  -12.0540   22.5220 H   0  0  0  0  0  0  0  0  0  0  0  0
  -21.2770  -13.1920   22.4100 H   0  0  0  0  0  0  0  0  0  0  0  0
  -25.4580  -15.2970   20.3230 N   0  0  0  0  0  0  0  0  0  0  0  0
  -24.7060  -15.9500   20.5150 H   0  0  0  0  0  0  0  0  0  0  0  0
  -26.2920  -15.7460   19.9690 H   0  0  0  0  0  0  0  0  0  0  0  0
  -29.1690  -23.9910   22.4240 C   0  0  0  0  0  0  0  0  0  0  0  0
  -28.0840  -24.6870   22.7380 N   0  0  0  0  0  0  0  0  0  0  0  0
  -30.1820  -24.0160   23.1220 O   0  0  0  0  0  0  0  0  0  0  0  0
  -27.2540  -24.6110   22.1720 H   0  0  0  0  0  0  0  0  0  0  0  0
  -28.0860  -25.2950   23.5420 H   0  0  0  0  0  0  0  0  0  0  0  0
  -27.9700  -22.9710   17.5600 C   0  0  0  0  0  0  0  0  0  0  0  0
  -26.6450  -23.0000   17.4810 N   0  0  0  0  0  0  0  0  0  0  0  0
  -28.7020  -23.1970   16.6000 O   0  0  0  0  0  0  0  0  0  0  0  0
  -26.0910  -22.7610   18.2890 H   0  0  0  0  0  0  0  0  0  0  0  0
  -26.1900  -23.2060   16.6050 H   0  0  0  0  0  0  0  0  0  0  0  0
  -27.9370  -25.0540   19.7150 C   0  0  0  0  0  2  0  0  0  0  0  0
  -28.2480  -26.3890   20.3200 O   0  0  0  0  0  0  0  0  0  0  0  0
  -24.6360  -31.9460   23.3230 C   0  0  0  0  0  0  0  0  0  0  0  0
  -27.1990  -27.3490   20.2300 C   0  0  0  0  0  0  0  0  0  0  0  0
  -23.4270  -30.5670   21.6790 C   0  0  0  0  0  3  0  0  0  0  0  0
  -24.8670  -29.0350   20.2330 C   0  0  0  0  0  0  0  0  0  0  0  0
  -25.9750  -30.8520   21.5100 C   0  0  0  0  0  2  0  0  0  0  0  0
  -26.0430  -29.4780   20.8510 C   0  0  0  0  0  0  0  0  0  0  0  0
  -27.2100  -28.6430   20.8560 C   0  0  0  0  0  3  0  0  0  0  0  0
  -26.0060  -27.0190   19.5330 C   0  0  0  0  0  3  0  0  0  0  0  0
  -24.8530  -27.8110   19.5640 C   0  0  0  0  0  3  0  0  0  0  0  0
  -23.6380  -29.9160   20.2910 C   0  0  0  0  0  2  0  0  0  0  0  0
  -24.6990  -31.1390   22.2260 N   0  0  0  0  0  0  0  0  0  0  0  0
  -23.5520  -32.2280   23.8560 O   0  0  0  0  0  0  0  0  0  0  0  0
  -22.7570  -29.5410   22.6260 C   0  0  0  0  0  0  0  0  0  0  0  0
  -21.4340  -29.3550   22.4830 N   0  0  0  0  0  0  0  0  0  0  0  0
  -23.4290  -28.9190   23.4550 O   0  0  0  0  0  0  0  0  0  0  0  0
  -20.9510  -29.9100   21.7910 H   0  0  0  0  0  0  0  0  0  0  0  0
  -18.0530  -28.1560   22.9630 C   0  0  0  0  0  0  0  0  0  0  0  0
  -20.6100  -28.4150   23.2460 C   0  0  0  0  0  3  0  0  0  0  0  0
  -20.7140  -26.9850   22.6680 C   0  0  0  0  0  2  0  0  0  0  0  0
  -19.6180  -26.6640   21.6470 C   0  0  0  0  0  2  0  0  0  0  0  0
  -18.2330  -26.8090   22.2850 C   0  0  0  0  0  2  0  0  0  0  0  0
  -19.1690  -28.9180   23.4000 C   0  0  0  0  0  0  0  0  0  0  0  0
  -18.9460  -30.1790   23.9940 C   0  0  0  0  0  3  0  0  0  0  0  0
  -17.6410  -30.6790   24.1560 C   0  0  0  0  0  3  0  0  0  0  0  0
  -16.5390  -29.9150   23.7360 C   0  0  0  0  0  3  0  0  0  0  0  0
  -16.7460  -28.6550   23.1440 C   0  0  0  0  0  3  0  0  0  0  0  0
  -25.9210  -32.5680   23.9480 C   0  0  0  0  0  3  0  0  0  0  0  0
  -26.4240  -31.7960   25.2280 C   0  0  1  0  0  0  0  0  0  0  0  0
  -25.3210  -31.5620   26.2870 C   0  0  0  0  0  1  0  0  0  0  0  0
  -27.0080  -30.4160   24.8460 C   0  0  0  0  0  1  0  0  0  0  0  0
  -27.5710  -32.5880   25.8990 C   0  0  0  0  0  1  0  0  0  0  0  0
  -25.6210  -33.9700   24.2730 N   0  0  0  0  0  0  0  0  0  0  0  0
  -25.9180  -35.0150   23.4880 C   0  0  0  0  0  0  0  0  0  0  0  0
  -26.5460  -34.9020   22.4310 O   0  0  0  0  0  0  0  0  0  0  0  0
  -25.0580  -34.1320   25.0950 H   0  0  0  0  0  0  0  0  0  0  0  0
  -24.1620  -36.7930   23.1970 C   0  0  0  0  0  1  0  0  0  0  0  0
  -25.4460  -36.4080   23.9500 C   0  0  0  0  0  3  0  0  0  0  0  0
  -27.6060  -37.3260   24.6680 C   0  0  0  0  0  1  0  0  0  0  0  0
  -26.4640  -37.4650   23.7690 N   0  0  0  0  0  0  0  0  0  0  0  0
  -26.0570  -38.3850   23.9120 H   0  0  0  0  0  0  0  0  0  0  0  0
  1  5  1  0
  3  1  2  0
  3  6  1  0
  4  2  1  0
  4 49  1  0
  5  2  2  0
  6  4  2  0
  7 20  1  0
  8 13  1  0
  9 10  1  0
  9  8  1  0
 11 10  1  0
 11 24  1  0
 11 12  1  0
 13  7  1  0
 13 12  1  0
 14  7  2  0
 15 17  1  0
 16 18  1  0
 16 19  1  0
 18 20  1  0
 19  5  1  0
 19 15  1  0
 20 17  1  0
 21 22  2  0
 22 41  1  0
 23 22  1  0
 23 26  1  0
 24 25  1  0
 24 21  1  0
 25 23  2  0
 26 27  1  0
 27 28  2  0
 29 32  1  0
 29 28  1  0
 30 29  2  0
 31 30  1  0
 31 26  2  0
 32 33  1  0
 33 38  2  0
 33 34  1  0
 34 35  2  0
 36 35  1  0
 36 40  1  0
 37 36  2  0
 38 37  1  0
 39 38  1  0
 41 42  1  0
 42 45  1  0
 42 44  1  0
 43 41  2  0
 46 21  1  0
 46 47  1  0
 48 46  1  0
 49 50  1  0
 49 51  2  0
 50 53  1  0
 52 50  1  0
 54  3  1  0
 55 54  1  0
 55 57  1  0
 56 54  2  0
 58 55  1  0
 59  6  1  0
 59 60  1  0
 61 72  2  0
 62 60  1  0
 62 67  1  0
 63 71  1  0
 63 73  1  0
 64 70  1  0
 64 66  1  0
 65 71  1  0
 66 67  2  0
 66 65  1  0
 68 69  1  0
 68 62  2  0
 69 64  2  0
 70 63  1  0
 71 61  1  0
 73 75  2  0
 74 73  1  0
 76 74  1  0
 77 86  2  0
 77 82  1  0
 78 74  1  0
 78 82  1  0
 79 78  1  0
 80 81  1  0
 80 79  1  0
 81 77  1  0
 82 83  2  0
 83 84  1  0
 85 84  2  0
 86 85  1  0
 87 61  1  0
 87 92  1  0
 87 88  1  0
 88 91  1  1
 88 89  1  0
 90 88  1  0
 92 95  1  0
 93 97  1  0
 93 92  1  0
 94 93  2  0
 97 96  1  0
 99100  1  0
 99 97  1  0
 99 98  1  0
M  ISO  4   7 100  20 100  59 101  60 101
M  END
>  <TORSDO>  (7) 
F 19

>  <SCORE>  (7) 
-14.168

>  <name>  (7) 
6

>  <ligand_id>  (7) 
6

>  <original_smiles>  (7) 
[H]c1c([H])c([H])c2c(c1[H])C([H])([H])C([H])([H])C([H])([H])C2([H])N([H])C(=O)C1([H])N(C(=O)C([H])(N([H])C(=O)C([H])(N([H])C([H])([H])[H])C([H])([H])[H])C(C([H])([H])[H])(C([H])([H])[H])C([H])([H])[H])C([H])([H])c2c([H])c(OC([H])([H])c3c(C(=O)N([H])[H])c([H])c(C4([H])C([H])([H])C([H])([H])N(C(=O)N5C([H])([H])C([H])([H])C([H])([H])C([H])(n6nc(-c7c([H])c([H])c(Oc8c([H])c([H])c(F)c([H])c8F)c([H])c7[H])c(C(=O)N([H])[H])c6N([H])[H])C5([H])[H])C([H])([H])C4([H])[H])c([H])c3C(=O)N([H])[H])c([H])c([H])c2C1([H])[H]

>  <smiles>  (7) 
[H]c1c([H])c([H])c2c(c1[H])C([H])([H])C([H])([H])C([H])([H])C2([H])N([H])C(=O)C1([H])N(C(=O)C([H])(N([H])C(=O)C([H])(N([H])C([H])([H])[H])C([H])([H])[H])C(C([H])([H])[H])(C([H])([H])[H])C([H])([H])[H])C([H])([H])c2c([H])c(OC([H])([H])c3c(C(=O)N([H])[H])c([H])c(C4([H])C([H])([H])C([H])([H])N(C(=O)N5C([H])([H])C([H])([H])C([H])([H])C([H])(n6nc(-c7c([H])c([H])c(Oc8c([H])c([H])c(F)c([H])c8F)c([H])c7[H])c(C(=O)N([H])[H])c6N([H])[H])C5([H])[H])C([H])([H])C4([H])[H])c([H])c3C(=O)N([H])[H])c([H])c([H])c2C1([H])[H]

$$$$
7:0:0
     RDKit          3D

 93101  0  0  1  0  0  0  0  0999 V2000
  -29.3990  -23.0820   20.6660 C   0  0  0  0  0  0  0  0  0  0  0  0
  -30.5300  -22.3770   20.5100 N   0  0  0  0  0  0  0  0  0  0  0  0
  -28.2980  -22.5290   20.7240 O   0  0  0  0  0  0  0  0  0  0  0  0
  -31.4080  -22.8790   20.4590 H   0  0  0  0  0  0  0  0  0  0  0  0
  -29.5040  -24.6130   20.7560 C   0  0  0  0  0  2  0  0  0  0  0  0
  -28.2580  -25.3130   20.1740 C   0  0  0  0  0  2  0  0  0  0  0  0
  -28.3790  -26.7400   20.1990 O   0  0  0  0  0  0  0  0  0  0  0  0
  -24.5590  -31.8850   23.2440 C   0  0  0  0  0  0  0  0  0  0  0  0
  -27.1990  -27.4560   20.1580 C   0  0  0  0  0  0  0  0  0  0  0  0
  -23.3470  -30.4800   21.6050 C   0  0  0  0  0  3  0  0  0  0  0  0
  -24.7970  -28.9500   20.1720 C   0  0  0  0  0  0  0  0  0  0  0  0
  -25.8660  -30.8530   21.3880 C   0  0  0  0  0  2  0  0  0  0  0  0
  -25.9550  -29.4800   20.7550 C   0  0  0  0  0  0  0  0  0  0  0  0
  -27.1580  -28.7410   20.7440 C   0  0  0  0  0  3  0  0  0  0  0  0
  -26.0240  -26.9440   19.5580 C   0  0  0  0  0  3  0  0  0  0  0  0
  -24.8250  -27.6800   19.5720 C   0  0  0  0  0  3  0  0  0  0  0  0
  -23.5490  -29.7980   20.2270 C   0  0  0  0  0  2  0  0  0  0  0  0
  -24.6100  -31.0870   22.1390 N   0  0  0  0  0  0  0  0  0  0  0  0
  -23.4800  -32.1520   23.7900 O   0  0  0  0  0  0  0  0  0  0  0  0
  -22.7020  -29.4560   22.5680 C   0  0  0  0  0  0  0  0  0  0  0  0
  -21.3790  -29.2700   22.4410 N   0  0  0  0  0  0  0  0  0  0  0  0
  -23.3910  -28.8320   23.3780 O   0  0  0  0  0  0  0  0  0  0  0  0
  -20.8840  -29.8270   21.7570 H   0  0  0  0  0  0  0  0  0  0  0  0
  -18.0120  -28.0640   22.9400 C   0  0  0  0  0  0  0  0  0  0  0  0
  -20.5680  -28.3280   23.2120 C   0  0  0  0  0  3  0  0  0  0  0  0
  -20.6750  -26.8980   22.6340 C   0  0  0  0  0  2  0  0  0  0  0  0
  -19.5740  -26.5720   21.6210 C   0  0  0  0  0  2  0  0  0  0  0  0
  -18.1920  -26.7150   22.2650 C   0  0  0  0  0  2  0  0  0  0  0  0
  -19.1280  -28.8290   23.3700 C   0  0  0  0  0  0  0  0  0  0  0  0
  -18.9080  -30.0940   23.9570 C   0  0  0  0  0  3  0  0  0  0  0  0
  -17.6020  -30.5940   24.1200 C   0  0  0  0  0  3  0  0  0  0  0  0
  -16.5000  -29.8260   23.7080 C   0  0  0  0  0  3  0  0  0  0  0  0
  -16.7060  -28.5640   23.1240 C   0  0  0  0  0  3  0  0  0  0  0  0
  -25.8460  -32.5180   23.8590 C   0  0  0  0  0  3  0  0  0  0  0  0
  -25.5380  -33.9160   24.1880 N   0  0  0  0  0  0  0  0  0  0  0  0
  -25.8770  -34.9660   23.4290 C   0  0  0  0  0  0  0  0  0  0  0  0
  -26.5540  -34.8610   22.4020 O   0  0  0  0  0  0  0  0  0  0  0  0
  -24.9480  -34.0720   24.9900 H   0  0  0  0  0  0  0  0  0  0  0  0
  -24.1610  -36.7650   23.0490 C   0  0  0  0  0  1  0  0  0  0  0  0
  -25.3880  -36.3550   23.8800 C   0  0  0  0  0  3  0  0  0  0  0  0
  -27.5110  -37.2290   24.7460 C   0  0  0  0  0  1  0  0  0  0  0  0
  -26.4250  -37.4050   23.7880 N   0  0  0  0  0  0  0  0  0  0  0  0
  -26.0200  -38.3270   23.9360 H   0  0  0  0  0  0  0  0  0  0  0  0
  -26.3700  -31.7470   25.1320 C   0  0  1  0  0  0  0  0  0  0  0  0
  -25.2850  -31.5080   26.2060 C   0  0  0  0  0  1  0  0  0  0  0  0
  -26.9510  -30.3700   24.7310 C   0  0  0  0  0  1  0  0  0  0  0  0
  -27.5230  -32.5410   25.7930 C   0  0  0  0  0  1  0  0  0  0  0  0
  -30.5790  -20.9290   20.3050 C   0  0  0  0  0  2  0  0  0  0  0  0
  -30.4440  -20.1260   21.6260 C   0  0  0  0  0  2  0  0  0  0  0  0
  -30.2070  -17.6650   21.2460 C   0  0  0  0  0  0  0  0  0  0  0  0
  -29.6950  -18.8920   21.4050 N   0  0  0  0  0  0  0  0  0  0  0  0
  -31.3710  -17.3800   21.5300 O   0  0  0  0  0  0  0  0  0  0  0  0
  -28.7100  -19.0020   21.1980 H   0  0  0  0  0  0  0  0  0  0  0  0
  -30.7190  -14.5220   20.2400 C   0  0  0  0  0  0  0  0  0  0  0  0
  -30.4130  -12.3180   19.2190 C   0  0  0  0  0  2  0  0  0  0  0  0
  -29.4670  -12.5080   18.0130 C   0  0  0  0  0  2  0  0  0  0  0  0
  -27.9900  -12.4270   18.4480 C   0  0  0  0  0  2  0  0  0  0  0  0
  -27.6700  -13.2810   19.7060 C   0  0  0  0  0  3  0  0  0  0  0  0
  -28.7400  -13.0870   20.8110 C   0  0  0  0  0  2  0  0  0  0  0  0
  -30.0640  -13.3340   20.2180 N   0  0  0  0  0  0  0  0  0  0  0  0
  -31.9170  -14.6330   19.9700 O   0  0  0  0  0  0  0  0  0  0  0  0
  -28.8280  -17.1070   19.1840 C   0  0  0  0  0  2  0  0  0  0  0  0
  -30.0080  -16.3110   18.6360 C   0  0  0  0  0  2  0  0  0  0  0  0
  -29.2640  -16.6360   20.5820 C   0  0  0  0  0  3  0  0  0  0  0  0
  -29.8870  -15.5100   19.8550 N   0  0  0  0  0  0  0  0  0  0  0  0
  -25.2870  -13.9310   20.4240 C   0  0  0  0  0  0  0  0  0  0  0  0
  -24.2090  -13.1750   20.8030 C   0  0  0  0  0  0  0  0  0  0  0  0
  -24.6540  -11.8180   20.7840 C   0  0  0  0  0  0  0  0  0  0  0  0
  -26.3190  -13.0310   20.2000 N   0  0  0  0  0  0  0  0  0  0  0  0
  -25.9430  -11.7580   20.4760 N   0  0  0  0  0  0  0  0  0  0  0  0
  -23.9140  -10.5680   20.9880 C   0  0  0  0  0  0  0  0  0  0  0  0
  -24.3420   -9.6020   21.9250 C   0  0  0  0  0  3  0  0  0  0  0  0
  -23.6050   -8.4140   22.1170 C   0  0  0  0  0  3  0  0  0  0  0  0
  -22.4260   -8.1830   21.3690 C   0  0  0  0  0  0  0  0  0  0  0  0
  -22.0180   -9.1370   20.4200 C   0  0  0  0  0  3  0  0  0  0  0  0
  -22.7560  -10.3160   20.2270 C   0  0  0  0  0  3  0  0  0  0  0  0
  -21.6630   -7.0450   21.4690 O   0  0  0  0  0  0  0  0  0  0  0  0
  -21.6130   -6.3110   22.6260 C   0  0  0  0  0  0  0  0  0  0  0  0
  -21.2090   -6.8810   23.8530 C   0  0  0  0  0  3  0  0  0  0  0  0
  -21.1040   -6.0740   25.0030 C   0  0  0  0  0  3  0  0  0  0  0  0
  -21.3950   -4.6990   24.9290 C   0  0  0  0  0  0  0  0  0  0  0  0
  -21.7970   -4.1300   23.7090 C   0  0  0  0  0  3  0  0  0  0  0  0
  -21.9020   -4.9330   22.5600 C   0  0  0  0  0  0  0  0  0  0  0  0
  -22.2660   -4.3740   21.3810 F   0  0  0  0  0  0  0  0  0  0  0  0
  -21.2890   -3.9230   26.0320 F   0  0  0  0  0  0  0  0  0  0  0  0
  -22.8180  -13.6730   21.0710 C   0  0  0  0  0  0  0  0  0  0  0  0
  -22.0840  -12.9950   21.9470 N   0  0  0  0  0  0  0  0  0  0  0  0
  -22.3910  -14.6980   20.5420 O   0  0  0  0  0  0  0  0  0  0  0  0
  -22.4410  -12.1670   22.4010 H   0  0  0  0  0  0  0  0  0  0  0  0
  -21.1500  -13.3090   22.1710 H   0  0  0  0  0  0  0  0  0  0  0  0
  -25.4620  -15.2970   20.2300 N   0  0  0  0  0  0  0  0  0  0  0  0
  -24.6860  -15.9460   20.3180 H   0  0  0  0  0  0  0  0  0  0  0  0
  -26.2990  -15.7330   19.8710 H   0  0  0  0  0  0  0  0  0  0  0  0
  1  3  2  0
  1  5  1  0
  2  1  1  0
  4  2  1  0
  6  7  1  0
  6  5  1  0
  8 19  2  0
  9  7  1  0
  9 14  1  0
 10 18  1  0
 10 20  1  0
 11 17  1  0
 11 13  1  0
 12 18  1  0
 13 12  1  0
 14 13  2  0
 15 16  1  0
 15  9  2  0
 16 11  2  0
 17 10  1  0
 18  8  1  0
 20 22  2  0
 21 20  1  0
 23 21  1  0
 24 33  2  0
 24 29  1  0
 25 21  1  0
 25 29  1  0
 26 25  1  0
 27 28  1  0
 27 26  1  0
 28 24  1  0
 29 30  2  0
 30 31  1  0
 32 31  2  0
 33 32  1  0
 34  8  1  0
 34 35  1  0
 34 44  1  0
 35 38  1  0
 36 40  1  0
 36 35  1  0
 37 36  2  0
 40 39  1  0
 42 40  1  0
 42 43  1  0
 42 41  1  0
 44 47  1  1
 44 45  1  0
 46 44  1  0
 48  2  1  0
 48 49  1  0
 50 51  1  0
 50 52  2  0
 51 49  1  0
 53 51  1  0
 55 60  1  0
 56 57  1  0
 56 55  1  0
 58 57  1  0
 58 69  1  0
 58 59  1  0
 60 54  1  0
 60 59  1  0
 61 54  2  0
 62 64  1  0
 63 62  1  0
 63 65  1  0
 64 50  1  0
 65 54  1  0
 65 64  1  0
 66 67  2  0
 67 86  1  0
 68 67  1  0
 68 71  1  0
 69 66  1  0
 69 70  1  0
 70 68  2  0
 71 72  1  0
 72 73  2  0
 74 77  1  0
 74 73  1  0
 75 74  2  0
 76 75  1  0
 76 71  2  0
 77 78  1  0
 78 79  1  0
 79 80  2  0
 81 80  1  0
 81 85  1  0
 82 81  2  0
 83 78  2  0
 83 82  1  0
 84 83  1  0
 86 87  1  0
 87 90  1  0
 87 89  1  0
 88 86  2  0
 91 92  1  0
 91 66  1  0
 93 91  1  0
M  ISO  4   6 101   7 101  54 100  65 100
M  END
>  <TORSDO>  (8) 
F 21

>  <SCORE>  (8) 
-13.507

>  <name>  (8) 
7

>  <ligand_id>  (8) 
7

>  <original_smiles>  (8) 
[H]c1c([H])c([H])c2c(c1[H])C([H])([H])C([H])([H])C([H])([H])C2([H])N([H])C(=O)C1([H])N(C(=O)C([H])(N([H])C(=O)C([H])(N([H])C([H])([H])[H])C([H])([H])[H])C(C([H])([H])[H])(C([H])([H])[H])C([H])([H])[H])C([H])([H])c2c([H])c(OC([H])([H])C([H])([H])C(=O)N([H])C([H])([H])C([H])([H])N([H])C(=O)C3([H])N(C(=O)N4C([H])([H])C([H])([H])C([H])([H])C([H])(n5nc(-c6c([H])c([H])c(Oc7c([H])c([H])c(F)c([H])c7F)c([H])c6[H])c(C(=O)N([H])[H])c5N([H])[H])C4([H])[H])C([H])([H])C3([H])[H])c([H])c([H])c2C1([H])[H]

>  <smiles>  (8) 
[H]c1c([H])c([H])c2c(c1[H])C([H])([H])C([H])([H])C([H])([H])C2([H])N([H])C(=O)C1([H])N(C(=O)C([H])(N([H])C(=O)C([H])(N([H])C([H])([H])[H])C([H])([H])[H])C(C([H])([H])[H])(C([H])([H])[H])C([H])([H])[H])C([H])([H])c2c([H])c(OC([H])([H])C([H])([H])C(=O)N([H])C([H])([H])C([H])([H])N([H])C(=O)C3([H])N(C(=O)N4C([H])([H])C([H])([H])C([H])([H])C([H])(n5nc(-c6c([H])c([H])c(Oc7c([H])c([H])c(F)c([H])c7F)c([H])c6[H])c(C(=O)N([H])[H])c5N([H])[H])C4([H])[H])C([H])([H])C3([H])[H])c([H])c([H])c2C1([H])[H]

$$$$
8:0:0
     RDKit          3D

 97105  0  0  1  0  0  0  0  0999 V2000
  -28.9650  -19.3880   19.3680 C   0  0  0  0  0  3  0  0  0  0  0  0
  -29.6880  -20.2100   21.5270 C   0  0  0  0  0  3  0  0  0  0  0  0
  -28.8700  -20.3480   20.3910 C   0  0  0  0  0  0  0  0  0  0  0  0
  -29.9040  -18.3360   19.4370 C   0  0  0  0  0  0  0  0  0  0  0  0
  -30.6280  -19.1650   21.6270 C   0  0  0  0  0  0  0  0  0  0  0  0
  -30.7760  -18.2240   20.5640 C   0  0  0  0  0  0  0  0  0  0  0  0
  -29.9250  -17.3690   18.2620 C   0  0  0  0  0  1  0  0  0  0  0  0
  -31.4570  -19.1060   22.9030 C   0  0  0  0  0  1  0  0  0  0  0  0
  -27.8780  -21.4710   20.2970 C   0  0  0  0  0  0  0  0  0  0  0  0
  -28.1860  -22.5530   21.0180 N   0  0  0  0  0  0  0  0  0  0  0  0
  -26.8760  -21.3870   19.5840 O   0  0  0  0  0  0  0  0  0  0  0  0
  -29.0570  -22.5120   21.5300 H   0  0  0  0  0  0  0  0  0  0  0  0
  -27.3120  -23.6930   21.2680 C   0  0  0  0  0  2  0  0  0  0  0  0
  -28.0800  -25.0230   21.3600 C   0  0  0  0  0  2  0  0  0  0  0  0
  -28.5920  -25.5540   19.9960 C   0  0  0  0  0  2  0  0  0  0  0  0
  -28.6400  -26.9860   19.9460 O   0  0  0  0  0  0  0  0  0  0  0  0
  -24.6160  -31.8430   23.1750 C   0  0  0  0  0  0  0  0  0  0  0  0
  -27.4330  -27.6530   19.9210 C   0  0  0  0  0  0  0  0  0  0  0  0
  -23.4590  -30.4390   21.5010 C   0  0  0  0  0  3  0  0  0  0  0  0
  -24.9670  -29.0270   20.0090 C   0  0  0  0  0  0  0  0  0  0  0  0
  -25.9630  -30.9290   21.2920 C   0  0  0  0  0  2  0  0  0  0  0  0
  -26.1050  -29.5910   20.6000 C   0  0  0  0  0  0  0  0  0  0  0  0
  -27.3410  -28.9120   20.5510 C   0  0  0  0  0  3  0  0  0  0  0  0
  -26.2760  -27.1040   19.3150 C   0  0  0  0  0  3  0  0  0  0  0  0
  -25.0480  -27.7850   19.3630 C   0  0  0  0  0  3  0  0  0  0  0  0
  -23.6830  -29.8170   20.0980 C   0  0  0  0  0  2  0  0  0  0  0  0
  -24.6980  -31.0840   22.0480 N   0  0  0  0  0  0  0  0  0  0  0  0
  -23.5290  -32.0470   23.7330 O   0  0  0  0  0  0  0  0  0  0  0  0
  -22.8730  -29.3550   22.4330 C   0  0  0  0  0  0  0  0  0  0  0  0
  -21.5630  -29.0910   22.2910 N   0  0  0  0  0  0  0  0  0  0  0  0
  -23.5880  -28.7560   23.2380 O   0  0  0  0  0  0  0  0  0  0  0  0
  -21.0410  -29.6300   21.6160 H   0  0  0  0  0  0  0  0  0  0  0  0
  -18.2740  -27.6610   22.7100 C   0  0  0  0  0  0  0  0  0  0  0  0
  -20.8030  -28.0870   23.0330 C   0  0  0  0  0  3  0  0  0  0  0  0
  -21.0130  -26.6770   22.4360 C   0  0  0  0  0  2  0  0  0  0  0  0
  -19.9520  -26.2950   21.3990 C   0  0  0  0  0  2  0  0  0  0  0  0
  -18.5530  -26.3360   22.0210 C   0  0  0  0  0  2  0  0  0  0  0  0
  -19.3300  -28.4910   23.1710 C   0  0  0  0  0  0  0  0  0  0  0  0
  -19.0150  -29.7290   23.7730 C   0  0  0  0  0  3  0  0  0  0  0  0
  -17.6770  -30.1390   23.9200 C   0  0  0  0  0  3  0  0  0  0  0  0
  -16.6350  -29.3070   23.4750 C   0  0  0  0  0  3  0  0  0  0  0  0
  -16.9330  -28.0690   22.8770 C   0  0  0  0  0  3  0  0  0  0  0  0
  -25.8790  -32.5130   23.8030 C   0  0  0  0  0  3  0  0  0  0  0  0
  -25.5190  -33.8930   24.1490 N   0  0  0  0  0  0  0  0  0  0  0  0
  -25.8290  -34.9670   23.4090 C   0  0  0  0  0  0  0  0  0  0  0  0
  -26.5180  -34.9010   22.3880 O   0  0  0  0  0  0  0  0  0  0  0  0
  -24.9100  -34.0190   24.9450 H   0  0  0  0  0  0  0  0  0  0  0  0
  -24.0480  -36.7030   23.0460 C   0  0  0  0  0  1  0  0  0  0  0  0
  -25.2870  -36.3310   23.8770 C   0  0  0  0  0  3  0  0  0  0  0  0
  -27.3750  -37.2740   24.7610 C   0  0  0  0  0  1  0  0  0  0  0  0
  -26.2850  -37.4180   23.7980 N   0  0  0  0  0  0  0  0  0  0  0  0
  -25.8450  -38.3230   23.9500 H   0  0  0  0  0  0  0  0  0  0  0  0
  -26.4290  -31.7440   25.0670 C   0  0  1  0  0  0  0  0  0  0  0  0
  -25.3470  -31.4530   26.1330 C   0  0  0  0  0  1  0  0  0  0  0  0
  -27.0610  -30.3940   24.6540 C   0  0  0  0  0  1  0  0  0  0  0  0
  -27.5500  -32.5710   25.7390 C   0  0  0  0  0  1  0  0  0  0  0  0
  -31.8900  -17.1540   20.6390 C   0  0  0  0  0  3  0  0  0  0  0  0
  -31.9440  -14.6950   19.9210 C   0  0  0  0  0  0  0  0  0  0  0  0
  -31.5530  -12.3720   19.2030 C   0  0  0  0  0  2  0  0  0  0  0  0
  -30.6150  -12.3480   17.9830 C   0  0  0  0  0  2  0  0  0  0  0  0
  -29.1420  -12.3290   18.4320 C   0  0  0  0  0  2  0  0  0  0  0  0
  -28.8230  -13.4210   19.4880 C   0  0  0  0  0  3  0  0  0  0  0  0
  -29.8750  -13.4170   20.6220 C   0  0  0  0  0  2  0  0  0  0  0  0
  -31.2120  -13.5540   20.0100 N   0  0  0  0  0  0  0  0  0  0  0  0
  -33.0120  -14.7470   19.3090 O   0  0  0  0  0  0  0  0  0  0  0  0
  -31.3980  -15.7730   20.5040 N   0  0  0  0  0  0  0  0  0  0  0  0
  -30.5100  -15.6000   20.9480 H   0  0  0  0  0  0  0  0  0  0  0  0
  -26.5340  -14.2570   20.3230 C   0  0  0  0  0  0  0  0  0  0  0  0
  -25.3990  -13.5910   20.7020 C   0  0  0  0  0  0  0  0  0  0  0  0
  -25.7040  -12.2000   20.5970 C   0  0  0  0  0  0  0  0  0  0  0  0
  -27.4660  -13.2770   20.0130 N   0  0  0  0  0  0  0  0  0  0  0  0
  -26.9690  -12.0320   20.2310 N   0  0  0  0  0  0  0  0  0  0  0  0
  -24.8480  -11.0190   20.7670 C   0  0  0  0  0  0  0  0  0  0  0  0
  -25.1570  -10.0130   21.7080 C   0  0  0  0  0  3  0  0  0  0  0  0
  -24.3100   -8.8940   21.8650 C   0  0  0  0  0  3  0  0  0  0  0  0
  -23.1380   -8.7760   21.0800 C   0  0  0  0  0  0  0  0  0  0  0  0
  -22.8460   -9.7700   20.1300 C   0  0  0  0  0  3  0  0  0  0  0  0
  -23.6930  -10.8790   19.9700 C   0  0  0  0  0  3  0  0  0  0  0  0
  -22.2700   -7.7140   21.1460 O   0  0  0  0  0  0  0  0  0  0  0  0
  -22.0380   -7.0460   22.3210 C   0  0  0  0  0  0  0  0  0  0  0  0
  -21.5360   -7.7030   23.4660 C   0  0  0  0  0  3  0  0  0  0  0  0
  -21.2450   -6.9650   24.6310 C   0  0  0  0  0  3  0  0  0  0  0  0
  -21.4460   -5.5710   24.6510 C   0  0  0  0  0  0  0  0  0  0  0  0
  -21.9410   -4.9150   23.5110 C   0  0  0  0  0  3  0  0  0  0  0  0
  -22.2320   -5.6500   22.3480 C   0  0  0  0  0  0  0  0  0  0  0  0
  -22.6880   -5.0090   21.2450 F   0  0  0  0  0  0  0  0  0  0  0  0
  -21.1600   -4.8620   25.7680 F   0  0  0  0  0  0  0  0  0  0  0  0
  -24.0760  -14.2090   21.0550 C   0  0  0  0  0  0  0  0  0  0  0  0
  -23.3220  -13.5780   21.9480 N   0  0  0  0  0  0  0  0  0  0  0  0
  -23.7240  -15.2840   20.5730 O   0  0  0  0  0  0  0  0  0  0  0  0
  -23.6200  -12.7050   22.3610 H   0  0  0  0  0  0  0  0  0  0  0  0
  -22.4360  -13.9740   22.2240 H   0  0  0  0  0  0  0  0  0  0  0  0
  -26.8470  -15.6080   20.2000 N   0  0  0  0  0  0  0  0  0  0  0  0
  -26.1720  -16.3400   20.3910 H   0  0  0  0  0  0  0  0  0  0  0  0
  -27.7410  -15.9670   19.8890 H   0  0  0  0  0  0  0  0  0  0  0  0
  -33.5870  -19.0040   19.9570 C   0  0  0  0  0  1  0  0  0  0  0  0
  -33.1600  -17.5340   19.8270 C   0  0  0  0  0  2  0  0  0  0  0  0
  1  4  2  0
  1  3  1  0
  2  5  1  0
  3  2  2  0
  4  6  1  0
  5  8  1  0
  6 57  1  0
  6  5  2  0
  7  4  1  0
  9  3  1  0
  9 10  1  0
 10 13  1  0
 10 12  1  0
 11  9  2  0
 13 14  1  0
 15 14  1  0
 16 15  1  0
 17 28  2  0
 18 16  1  0
 18 23  1  0
 19 27  1  0
 19 29  1  0
 20 26  1  0
 20 22  1  0
 21 27  1  0
 22 21  1  0
 23 22  2  0
 24 25  1  0
 24 18  2  0
 25 20  2  0
 26 19  1  0
 27 17  1  0
 29 31  2  0
 30 29  1  0
 32 30  1  0
 33 42  2  0
 33 38  1  0
 34 30  1  0
 34 38  1  0
 35 34  1  0
 36 37  1  0
 36 35  1  0
 37 33  1  0
 38 39  2  0
 39 40  1  0
 41 40  2  0
 42 41  1  0
 43 17  1  0
 43 44  1  0
 43 53  1  0
 44 47  1  0
 45 49  1  0
 45 44  1  0
 46 45  2  0
 49 48  1  0
 51 49  1  0
 51 52  1  0
 51 50  1  0
 53 56  1  1
 53 54  1  0
 55 53  1  0
 57 97  1  0
 58 64  1  0
 58 66  1  0
 59 64  1  0
 60 61  1  0
 60 59  1  0
 62 61  1  0
 62 71  1  0
 62 63  1  0
 64 63  1  0
 65 58  2  0
 66 57  1  0
 66 67  1  0
 68 69  2  0
 69 88  1  0
 70 69  1  0
 70 73  1  0
 71 72  1  0
 71 68  1  0
 72 70  2  0
 73 74  1  0
 74 75  2  0
 76 79  1  0
 76 75  1  0
 77 76  2  0
 78 77  1  0
 78 73  2  0
 79 80  1  0
 80 85  2  0
 80 81  1  0
 81 82  2  0
 82 83  1  0
 83 87  1  0
 84 83  2  0
 85 84  1  0
 86 85  1  0
 88 89  1  0
 89 92  1  0
 89 91  1  0
 90 88  2  0
 93 68  1  0
 93 94  1  0
 95 93  1  0
 97 96  1  0
M  ISO  4  15 101  16 101  58 100  66 100
M  END
>  <TORSDO>  (9) 
F 22

>  <SCORE>  (9) 
-11.582

>  <name>  (9) 
8

>  <ligand_id>  (9) 
8

>  <original_smiles>  (9) 
[H]c1c([H])c([H])c2c(c1[H])C([H])([H])C([H])([H])C([H])([H])C2([H])N([H])C(=O)C1([H])N(C(=O)C([H])(N([H])C(=O)C([H])(N([H])C([H])([H])[H])C([H])([H])[H])C(C([H])([H])[H])(C([H])([H])[H])C([H])([H])[H])C([H])([H])c2c([H])c(OC([H])([H])C([H])([H])C([H])([H])N([H])C(=O)c3c([H])c(C([H])([H])[H])c(C([H])(N([H])C(=O)N4C([H])([H])C([H])([H])C([H])([H])C([H])(n5nc(-c6c([H])c([H])c(Oc7c([H])c([H])c(F)c([H])c7F)c([H])c6[H])c(C(=O)N([H])[H])c5N([H])[H])C4([H])[H])C([H])([H])C([H])([H])[H])c(C([H])([H])[H])c3[H])c([H])c([H])c2C1([H])[H]

>  <smiles>  (9) 
[H]c1c([H])c([H])c2c(c1[H])C([H])([H])C([H])([H])C([H])([H])C2([H])N([H])C(=O)C1([H])N(C(=O)C([H])(N([H])C(=O)C([H])(N([H])C([H])([H])[H])C([H])([H])[H])C(C([H])([H])[H])(C([H])([H])[H])C([H])([H])[H])C([H])([H])c2c([H])c(OC([H])([H])C([H])([H])C([H])([H])N([H])C(=O)c3c([H])c(C([H])([H])[H])c(C([H])(N([H])C(=O)N4C([H])([H])C([H])([H])C([H])([H])C([H])(n5nc(-c6c([H])c([H])c(Oc7c([H])c([H])c(F)c([H])c7F)c([H])c6[H])c(C(=O)N([H])[H])c5N([H])[H])C4([H])[H])C([H])([H])C([H])([H])[H])c(C([H])([H])[H])c3[H])c([H])c([H])c2C1([H])[H]

$$$$
9:0:0
     RDKit          3D

100108  0  0  1  0  0  0  0  0999 V2000
  -30.3260  -20.2700   22.1410 C   0  0  0  0  0  3  0  0  0  0  0  0
  -29.5920  -20.1080   19.4880 C   0  0  0  0  0  3  0  0  0  0  0  0
  -30.4720  -19.0270   21.4890 C   0  0  0  0  0  0  0  0  0  0  0  0
  -29.8440  -21.4380   21.5060 C   0  0  0  0  0  0  0  0  0  0  0  0
  -30.0520  -18.8870   20.1390 C   0  0  0  0  0  0  0  0  0  0  0  0
  -29.4950  -21.4160   20.1220 C   0  0  0  0  0  0  0  0  0  0  0  0
  -31.0880  -17.9050   22.2780 C   0  0  0  0  0  0  0  0  0  0  0  0
  -32.1290  -17.3050   21.7170 N   0  0  0  0  0  0  0  0  0  0  0  0
  -30.6840  -17.6130   23.4010 O   0  0  0  0  0  0  0  0  0  0  0  0
  -32.4550  -17.6070   20.8110 H   0  0  0  0  0  0  0  0  0  0  0  0
  -32.6080  -16.5630   22.2010 H   0  0  0  0  0  0  0  0  0  0  0  0
  -28.9550  -22.5830   19.4350 N   0  0  0  0  0  0  0  0  0  0  0  0
  -28.6540  -22.3650   18.4870 H   0  0  0  0  0  0  0  0  0  0  0  0
  -29.3280  -24.0580   19.5610 C   0  0  0  0  0  3  0  0  0  0  0  0
  -28.1610  -25.1640   19.3500 C   0  0  0  0  0  3  0  0  0  0  0  0
  -28.3530  -26.6310   19.6180 O   0  0  0  0  0  0  0  0  0  0  0  0
  -24.4650  -31.6760   23.1010 C   0  0  0  0  0  0  0  0  0  0  0  0
  -27.2140  -27.4730   19.6400 C   0  0  0  0  0  0  0  0  0  0  0  0
  -23.2950  -30.3700   21.3630 C   0  0  0  0  0  3  0  0  0  0  0  0
  -24.7860  -29.0080   19.7930 C   0  0  0  0  0  0  0  0  0  0  0  0
  -25.8180  -30.8060   21.1730 C   0  0  0  0  0  2  0  0  0  0  0  0
  -25.9470  -29.4860   20.4120 C   0  0  0  0  0  0  0  0  0  0  0  0
  -27.1630  -28.7340   20.3250 C   0  0  0  0  0  3  0  0  0  0  0  0
  -26.0230  -27.0650   18.9940 C   0  0  0  0  0  3  0  0  0  0  0  0
  -24.8290  -27.8060   19.0710 C   0  0  0  0  0  3  0  0  0  0  0  0
  -23.5160  -29.8240   19.9290 C   0  0  0  0  0  2  0  0  0  0  0  0
  -24.5460  -30.9640   21.9380 N   0  0  0  0  0  0  0  0  0  0  0  0
  -23.3790  -31.8600   23.6700 O   0  0  0  0  0  0  0  0  0  0  0  0
  -22.6890  -29.2500   22.2430 C   0  0  0  0  0  0  0  0  0  0  0  0
  -21.3680  -29.0320   22.1250 N   0  0  0  0  0  0  0  0  0  0  0  0
  -23.4060  -28.5830   22.9930 O   0  0  0  0  0  0  0  0  0  0  0  0
  -20.8430  -29.6330   21.5040 H   0  0  0  0  0  0  0  0  0  0  0  0
  -18.0470  -27.6700   22.5940 C   0  0  0  0  0  0  0  0  0  0  0  0
  -20.6000  -27.9990   22.8250 C   0  0  0  0  0  3  0  0  0  0  0  0
  -20.7350  -26.6290   22.1200 C   0  0  0  0  0  2  0  0  0  0  0  0
  -19.6190  -26.3610   21.1040 C   0  0  0  0  0  2  0  0  0  0  0  0
  -18.2510  -26.3960   21.7920 C   0  0  0  0  0  2  0  0  0  0  0  0
  -19.1500  -28.4310   23.0640 C   0  0  0  0  0  0  0  0  0  0  0  0
  -18.9040  -29.6250   23.7750 C   0  0  0  0  0  3  0  0  0  0  0  0
  -17.5890  -30.0630   24.0170 C   0  0  0  0  0  3  0  0  0  0  0  0
  -16.5000  -29.2990   23.5610 C   0  0  0  0  0  3  0  0  0  0  0  0
  -16.7300  -28.1040   22.8560 C   0  0  0  0  0  3  0  0  0  0  0  0
  -25.7290  -32.3110   23.7570 C   0  0  0  0  0  3  0  0  0  0  0  0
  -26.2320  -31.5200   25.0280 C   0  0  1  0  0  0  0  0  0  0  0  0
  -25.1250  -31.2470   26.0730 C   0  0  0  0  0  1  0  0  0  0  0  0
  -26.8380  -30.1570   24.6180 C   0  0  0  0  0  1  0  0  0  0  0  0
  -27.3630  -32.3120   25.7240 C   0  0  0  0  0  1  0  0  0  0  0  0
  -25.3970  -33.6990   24.1120 N   0  0  0  0  0  0  0  0  0  0  0  0
  -25.7160  -34.7720   23.3750 C   0  0  0  0  0  0  0  0  0  0  0  0
  -26.3940  -34.6970   22.3460 O   0  0  0  0  0  0  0  0  0  0  0  0
  -24.7940  -33.8300   24.9120 H   0  0  0  0  0  0  0  0  0  0  0  0
  -23.9640  -36.5480   23.0470 C   0  0  0  0  0  1  0  0  0  0  0  0
  -25.2080  -36.1450   23.8550 C   0  0  0  0  0  3  0  0  0  0  0  0
  -27.3160  -37.0610   24.7210 C   0  0  0  0  0  1  0  0  0  0  0  0
  -26.2250  -37.2160   23.7620 N   0  0  0  0  0  0  0  0  0  0  0  0
  -25.8020  -38.1280   23.9070 H   0  0  0  0  0  0  0  0  0  0  0  0
  -30.1750  -17.4960   19.3660 C   0  0  0  0  0  2  0  0  0  0  0  0
  -30.6990  -14.9930   19.8800 C   0  0  0  0  0  0  0  0  0  0  0  0
  -30.5050  -12.6300   19.1210 C   0  0  0  0  0  2  0  0  0  0  0  0
  -29.5310  -12.5670   17.9230 C   0  0  0  0  0  2  0  0  0  0  0  0
  -28.0820  -12.4080   18.4190 C   0  0  0  0  0  2  0  0  0  0  0  0
  -27.7230  -13.4070   19.5510 C   0  0  0  0  0  3  0  0  0  0  0  0
  -28.8170  -13.4590   20.6420 C   0  0  0  0  0  2  0  0  0  0  0  0
  -30.0910  -13.7640   19.9780 N   0  0  0  0  0  0  0  0  0  0  0  0
  -31.8590  -15.0750   19.4710 O   0  0  0  0  0  0  0  0  0  0  0  0
  -29.9220  -16.1290   20.0010 N   0  0  0  0  0  0  0  0  0  0  0  0
  -28.9860  -15.9750   20.3420 H   0  0  0  0  0  0  0  0  0  0  0  0
  -25.4030  -14.0330   20.4560 C   0  0  0  0  0  0  0  0  0  0  0  0
  -24.3340  -13.2750   20.8490 C   0  0  0  0  0  0  0  0  0  0  0  0
  -24.7460  -11.9130   20.7160 C   0  0  0  0  0  0  0  0  0  0  0  0
  -26.4000  -13.1360   20.1090 N   0  0  0  0  0  0  0  0  0  0  0  0
  -26.0150  -11.8510   20.3270 N   0  0  0  0  0  0  0  0  0  0  0  0
  -23.9870  -10.6660   20.8800 C   0  0  0  0  0  0  0  0  0  0  0  0
  -24.3680   -9.6890   21.8250 C   0  0  0  0  0  3  0  0  0  0  0  0
  -23.6110   -8.5070   21.9790 C   0  0  0  0  0  3  0  0  0  0  0  0
  -22.4580   -8.2950   21.1860 C   0  0  0  0  0  0  0  0  0  0  0  0
  -22.0950   -9.2610   20.2310 C   0  0  0  0  0  3  0  0  0  0  0  0
  -22.8530  -10.4330   20.0750 C   0  0  0  0  0  3  0  0  0  0  0  0
  -21.6750   -7.1670   21.2480 O   0  0  0  0  0  0  0  0  0  0  0  0
  -21.4740   -6.4940   22.4270 C   0  0  0  0  0  0  0  0  0  0  0  0
  -20.8590   -7.1100   23.5390 C   0  0  0  0  0  3  0  0  0  0  0  0
  -20.6090   -6.3620   24.7070 C   0  0  0  0  0  3  0  0  0  0  0  0
  -20.9620   -5.0010   24.7620 C   0  0  0  0  0  0  0  0  0  0  0  0
  -21.5700   -4.3850   23.6540 C   0  0  0  0  0  3  0  0  0  0  0  0
  -21.8220   -5.1300   22.4880 C   0  0  0  0  0  0  0  0  0  0  0  0
  -22.3880   -4.5270   21.4150 F   0  0  0  0  0  0  0  0  0  0  0  0
  -20.7150   -4.2800   25.8800 F   0  0  0  0  0  0  0  0  0  0  0  0
  -22.9740  -13.7810   21.2290 C   0  0  0  0  0  0  0  0  0  0  0  0
  -22.2780  -13.0690   22.1070 N   0  0  0  0  0  0  0  0  0  0  0  0
  -22.5390  -14.8420   20.7850 O   0  0  0  0  0  0  0  0  0  0  0  0
  -22.6410  -12.2070   22.4890 H   0  0  0  0  0  0  0  0  0  0  0  0
  -21.3650  -13.3880   22.4020 H   0  0  0  0  0  0  0  0  0  0  0  0
  -25.6030  -15.4050   20.3400 N   0  0  0  0  0  0  0  0  0  0  0  0
  -24.8640  -16.0740   20.5280 H   0  0  0  0  0  0  0  0  0  0  0  0
  -26.4330  -15.8340   19.9500 H   0  0  0  0  0  0  0  0  0  0  0  0
  -29.6650  -22.6600   22.3980 C   0  0  0  0  0  2  0  0  0  0  0  0
  -28.3510  -23.2740   22.1750 N   0  0  0  0  0  4  0  0  0  0  0  0
  -28.2590  -23.4050   21.1800 H   0  0  0  0  0  0  0  0  0  0  0  0
  -28.2800  -24.1490   22.6610 H   0  0  0  0  0  0  0  0  0  0  0  0
  -27.6210  -22.6600   22.4880 H   0  0  0  0  0  0  0  0  0  0  0  0
  2  6  1  0
  2  5  2  0
  3  1  2  0
  3  7  1  0
  4  1  1  0
  4 96  1  0
  5  3  1  0
  6  4  2  0
  7  9  2  0
  8 11  1  0
  8  7  1  0
 10  8  1  0
 12 14  1  0
 12  6  1  0
 13 12  1  0
 15 14  2  0
 15 16  1  0
 16 18  1  0
 17 28  2  0
 18 23  1  0
 19 27  1  0
 19 29  1  0
 20 26  1  0
 20 22  1  0
 21 27  1  0
 22 21  1  0
 23 22  2  0
 24 25  1  0
 24 18  2  0
 25 20  2  0
 26 19  1  0
 27 17  1  0
 29 31  2  0
 30 29  1  0
 32 30  1  0
 33 42  2  0
 33 38  1  0
 34 30  1  0
 34 38  1  0
 35 34  1  0
 36 37  1  0
 36 35  1  0
 37 33  1  0
 38 39  2  0
 39 40  1  0
 41 40  2  0
 42 41  1  0
 43 17  1  0
 43 48  1  0
 43 44  1  0
 44 47  1  1
 44 45  1  0
 46 44  1  0
 48 51  1  0
 49 53  1  0
 49 48  1  0
 50 49  2  0
 53 52  1  0
 55 53  1  0
 55 56  1  0
 55 54  1  0
 57 66  1  0
 57  5  1  0
 58 64  1  0
 58 66  1  0
 59 64  1  0
 60 61  1  0
 60 59  1  0
 62 61  1  0
 62 71  1  0
 62 63  1  0
 64 63  1  0
 65 58  2  0
 66 67  1  0
 68 69  2  0
 69 88  1  0
 70 69  1  0
 70 73  1  0
 71 72  1  0
 71 68  1  0
 72 70  2  0
 73 74  1  0
 74 75  2  0
 76 79  1  0
 76 75  1  0
 77 76  2  0
 78 77  1  0
 78 73  2  0
 79 80  1  0
 80 85  2  0
 80 81  1  0
 81 82  2  0
 82 83  1  0
 83 87  1  0
 84 83  2  0
 85 84  1  0
 86 85  1  0
 88 89  1  0
 89 92  1  0
 89 91  1  0
 90 88  2  0
 93 68  1  0
 93 94  1  0
 95 93  1  0
 97 96  1  0
 97100  1  0
 97 99  1  0
 98 97  1  0
M  ISO  4  15 101  16 101  58 100  66 100
M  END
>  <TORSDO>  (10) 
F 23

>  <SCORE>  (10) 
-11.726

>  <name>  (10) 
9

>  <ligand_id>  (10) 
9

>  <original_smiles>  (10) 
[H]c1c([H])c([H])c2c(c1[H])C([H])([H])C([H])([H])C([H])([H])C2([H])N([H])C(=O)C1([H])N(C(=O)C([H])(N([H])C(=O)C([H])(N([H])C([H])([H])[H])C([H])([H])[H])C(C([H])([H])[H])(C([H])([H])[H])C([H])([H])[H])C([H])([H])c2c([H])c(OC([H])([H])C([H])([H])N([H])c3c([H])c(C([H])([H])N([H])C(=O)N4C([H])([H])C([H])([H])C([H])([H])C([H])(n5nc(-c6c([H])c([H])c(Oc7c([H])c([H])c(F)c([H])c7F)c([H])c6[H])c(C(=O)N([H])[H])c5N([H])[H])C4([H])[H])c(C(=O)N([H])[H])c([H])c3C([H])([H])[N+]([H])([H])[H])c([H])c([H])c2C1([H])[H]

>  <smiles>  (10) 
[H]c1c([H])c([H])c2c(c1[H])C([H])([H])C([H])([H])C([H])([H])C2([H])N([H])C(=O)C1([H])N(C(=O)C([H])(N([H])C(=O)C([H])(N([H])C([H])([H])[H])C([H])([H])[H])C(C([H])([H])[H])(C([H])([H])[H])C([H])([H])[H])C([H])([H])c2c([H])c(OC([H])([H])C([H])([H])N([H])c3c([H])c(C([H])([H])N([H])C(=O)N4C([H])([H])C([H])([H])C([H])([H])C([H])(n5nc(-c6c([H])c([H])c(Oc7c([H])c([H])c(F)c([H])c7F)c([H])c6[H])c(C(=O)N([H])[H])c5N([H])[H])C4([H])[H])c(C(=O)N([H])[H])c([H])c3C([H])([H])[N+]([H])([H])[H])c([H])c([H])c2C1([H])[H]

$$$$
10:0:0
     RDKit          3D

 90 98  0  0  1  0  0  0  0  0999 V2000
  -29.6390  -21.2590   21.7230 C   0  0  0  0  0  2  0  0  0  0  0  0
  -28.9760  -22.6920   21.8480 C   0  0  0  0  0  2  0  0  0  0  0  0
  -28.9670  -20.5800   20.4960 C   0  0  0  0  0  3  0  0  0  0  0  0
  -28.6100  -23.1170   20.4000 C   0  0  0  0  0  3  0  0  0  0  0  0
  -28.8580  -21.8220   19.5720 N   0  0  0  0  0  4  0  0  0  0  0  0
  -28.1390  -21.6580   18.8860 H   0  0  0  0  0  0  0  0  0  0  0  0
  -29.7340  -21.9190   19.0820 H   0  0  0  0  0  0  0  0  0  0  0  0
  -29.5330  -19.0860   19.8760 C   0  0  0  0  0  0  0  0  0  0  0  0
  -29.6010  -18.9830   18.6430 O   0  0  0  0  0  0  0  0  0  0  0  0
  -29.9570  -17.7110   20.7120 C   0  0  0  0  0  2  0  0  0  0  0  0
  -30.4870  -15.0130   20.3050 C   0  0  0  0  0  0  0  0  0  0  0  0
  -30.3750  -12.6560   19.3530 C   0  0  0  0  0  2  0  0  0  0  0  0
  -29.4420  -12.6320   18.1220 C   0  0  0  0  0  2  0  0  0  0  0  0
  -27.9590  -12.4720   18.5390 C   0  0  0  0  0  2  0  0  0  0  0  0
  -27.5690  -13.3330   19.7690 C   0  0  0  0  0  3  0  0  0  0  0  0
  -28.6450  -13.3220   20.8690 C   0  0  0  0  0  2  0  0  0  0  0  0
  -29.8950  -13.7620   20.2280 N   0  0  0  0  0  0  0  0  0  0  0  0
  -31.7130  -15.0540   20.1820 O   0  0  0  0  0  0  0  0  0  0  0  0
  -29.7000  -16.1980   20.2830 N   0  0  0  0  0  0  0  0  0  0  0  0
  -28.7070  -16.0330   20.1080 H   0  0  0  0  0  0  0  0  0  0  0  0
  -25.1930  -13.8900   20.5320 C   0  0  0  0  0  0  0  0  0  0  0  0
  -24.1350  -13.1090   20.9110 C   0  0  0  0  0  0  0  0  0  0  0  0
  -24.6050  -11.7610   20.8720 C   0  0  0  0  0  0  0  0  0  0  0  0
  -26.2390  -13.0190   20.2830 N   0  0  0  0  0  0  0  0  0  0  0  0
  -25.8950  -11.7310   20.5500 N   0  0  0  0  0  0  0  0  0  0  0  0
  -23.8810  -10.4960   21.0660 C   0  0  0  0  0  0  0  0  0  0  0  0
  -24.3260   -9.5230   21.9860 C   0  0  0  0  0  3  0  0  0  0  0  0
  -23.6000   -8.3250   22.1690 C   0  0  0  0  0  3  0  0  0  0  0  0
  -22.4140   -8.0960   21.4310 C   0  0  0  0  0  0  0  0  0  0  0  0
  -21.9850   -9.0620   20.5030 C   0  0  0  0  0  3  0  0  0  0  0  0
  -22.7110  -10.2490   20.3200 C   0  0  0  0  0  3  0  0  0  0  0  0
  -21.6560   -6.9520   21.5260 O   0  0  0  0  0  0  0  0  0  0  0  0
  -21.6400   -6.1910   22.6670 C   0  0  0  0  0  0  0  0  0  0  0  0
  -21.2620   -6.7310   23.9160 C   0  0  0  0  0  3  0  0  0  0  0  0
  -21.1890   -5.8970   25.0500 C   0  0  0  0  0  3  0  0  0  0  0  0
  -21.4880   -4.5260   24.9370 C   0  0  0  0  0  0  0  0  0  0  0  0
  -21.8570   -3.9860   23.6920 C   0  0  0  0  0  3  0  0  0  0  0  0
  -21.9290   -4.8160   22.5610 C   0  0  0  0  0  0  0  0  0  0  0  0
  -22.2670   -4.2870   21.3590 F   0  0  0  0  0  0  0  0  0  0  0  0
  -21.4120   -3.7230   26.0240 F   0  0  0  0  0  0  0  0  0  0  0  0
  -22.7390  -13.5850   21.1900 C   0  0  0  0  0  0  0  0  0  0  0  0
  -22.0190  -12.8860   22.0610 N   0  0  0  0  0  0  0  0  0  0  0  0
  -22.2950  -14.6080   20.6700 O   0  0  0  0  0  0  0  0  0  0  0  0
  -22.3870  -12.0560   22.4970 H   0  0  0  0  0  0  0  0  0  0  0  0
  -21.0830  -13.1900   22.2930 H   0  0  0  0  0  0  0  0  0  0  0  0
  -25.3480  -15.2610   20.3510 N   0  0  0  0  0  0  0  0  0  0  0  0
  -24.5720  -15.9070   20.4510 H   0  0  0  0  0  0  0  0  0  0  0  0
  -26.1850  -15.7030   19.9990 H   0  0  0  0  0  0  0  0  0  0  0  0
  -27.9870  -24.6370   19.8770 C   0  0  0  0  0  2  0  0  0  0  0  0
  -28.2100  -26.1340   20.2980 O   0  0  0  0  0  0  0  0  0  0  0  0
  -24.6280  -31.9050   23.2550 C   0  0  0  0  0  0  0  0  0  0  0  0
  -27.1750  -27.1520   20.2040 C   0  0  0  0  0  0  0  0  0  0  0  0
  -23.4190  -30.5070   21.6290 C   0  0  0  0  0  3  0  0  0  0  0  0
  -24.8550  -28.9290   20.1890 C   0  0  0  0  0  0  0  0  0  0  0  0
  -25.9770  -30.7480   21.4610 C   0  0  0  0  0  2  0  0  0  0  0  0
  -26.0390  -29.3530   20.8090 C   0  0  0  0  0  0  0  0  0  0  0  0
  -27.1930  -28.4780   20.8080 C   0  0  0  0  0  3  0  0  0  0  0  0
  -25.9710  -26.8530   19.5210 C   0  0  0  0  0  3  0  0  0  0  0  0
  -24.8390  -27.6880   19.5350 C   0  0  0  0  0  3  0  0  0  0  0  0
  -23.6290  -29.8200   20.2510 C   0  0  0  0  0  2  0  0  0  0  0  0
  -24.6960  -31.0750   22.1670 N   0  0  0  0  0  0  0  0  0  0  0  0
  -23.5420  -32.2000   23.7780 O   0  0  0  0  0  0  0  0  0  0  0  0
  -22.7400  -29.5030   22.5910 C   0  0  0  0  0  0  0  0  0  0  0  0
  -21.4070  -29.3480   22.4750 N   0  0  0  0  0  0  0  0  0  0  0  0
  -23.4100  -28.8630   23.4040 O   0  0  0  0  0  0  0  0  0  0  0  0
  -20.9190  -29.9300   21.8090 H   0  0  0  0  0  0  0  0  0  0  0  0
  -18.0220  -28.1640   22.9630 C   0  0  0  0  0  0  0  0  0  0  0  0
  -20.5810  -28.4150   23.2460 C   0  0  0  0  0  3  0  0  0  0  0  0
  -20.6700  -26.9780   22.6750 C   0  0  0  0  0  2  0  0  0  0  0  0
  -19.5850  -26.6880   21.6320 C   0  0  0  0  0  2  0  0  0  0  0  0
  -18.1960  -26.8150   22.2800 C   0  0  0  0  0  2  0  0  0  0  0  0
  -19.1430  -28.9260   23.3930 C   0  0  0  0  0  0  0  0  0  0  0  0
  -18.9300  -30.1940   23.9720 C   0  0  0  0  0  3  0  0  0  0  0  0
  -17.6280  -30.7000   24.1300 C   0  0  0  0  0  3  0  0  0  0  0  0
  -16.5230  -29.9370   23.7270 C   0  0  0  0  0  3  0  0  0  0  0  0
  -16.7200  -28.6670   23.1490 C   0  0  0  0  0  3  0  0  0  0  0  0
  -25.9100  -32.5350   23.8790 C   0  0  0  0  0  3  0  0  0  0  0  0
  -26.4170  -31.7650   25.1610 C   0  0  1  0  0  0  0  0  0  0  0  0
  -25.3150  -31.5390   26.2260 C   0  0  0  0  0  1  0  0  0  0  0  0
  -26.9910  -30.3810   24.7810 C   0  0  0  0  0  1  0  0  0  0  0  0
  -27.5680  -32.5540   25.8270 C   0  0  0  0  0  1  0  0  0  0  0  0
  -25.6030  -33.9360   24.2100 N   0  0  0  0  0  0  0  0  0  0  0  0
  -25.9270  -34.9910   23.4530 C   0  0  0  0  0  0  0  0  0  0  0  0
  -26.5820  -34.8900   22.4090 O   0  0  0  0  0  0  0  0  0  0  0  0
  -25.0270  -34.0940   25.0270 H   0  0  0  0  0  0  0  0  0  0  0  0
  -24.1910  -36.7870   23.1350 C   0  0  0  0  0  1  0  0  0  0  0  0
  -25.4510  -36.3800   23.9200 C   0  0  0  0  0  3  0  0  0  0  0  0
  -27.6020  -37.2660   24.7070 C   0  0  0  0  0  1  0  0  0  0  0  0
  -26.4820  -37.4340   23.7840 N   0  0  0  0  0  0  0  0  0  0  0  0
  -26.0790  -38.3550   23.9380 H   0  0  0  0  0  0  0  0  0  0  0  0
  1  2  1  0
  3  8  1  0
  3  1  1  0
  4 49  1  0
  4  2  1  0
  5  4  1  0
  5  3  1  0
  6  5  1  0
  7  5  1  0
  8 10  1  0
  9  8  2  0
 12 17  1  0
 13 14  1  0
 13 12  1  0
 15 14  1  0
 15 24  1  0
 15 16  1  0
 17 11  1  0
 17 16  1  0
 18 11  2  0
 19 11  1  0
 19 10  1  0
 20 19  1  0
 21 22  2  0
 22 41  1  0
 23 22  1  0
 23 26  1  0
 24 21  1  0
 24 25  1  0
 25 23  2  0
 26 27  1  0
 27 28  2  0
 29 32  1  0
 29 28  1  0
 30 29  2  0
 31 30  1  0
 31 26  2  0
 32 33  1  0
 33 34  1  0
 34 35  2  0
 36 35  1  0
 36 40  1  0
 37 36  2  0
 38 33  2  0
 38 37  1  0
 39 38  1  0
 41 42  1  0
 42 45  1  0
 42 44  1  0
 43 41  2  0
 46 47  1  0
 46 21  1  0
 48 46  1  0
 49 50  1  0
 51 62  2  0
 52 50  1  0
 52 57  1  0
 53 61  1  0
 53 63  1  0
 54 60  1  0
 54 56  1  0
 55 61  1  0
 56 55  1  0
 57 56  2  0
 58 59  1  0
 58 52  2  0
 59 54  2  0
 60 53  1  0
 61 51  1  0
 63 65  2  0
 64 63  1  0
 66 64  1  0
 67 76  2  0
 67 72  1  0
 68 64  1  0
 68 72  1  0
 69 68  1  0
 70 71  1  0
 70 69  1  0
 71 67  1  0
 72 73  2  0
 73 74  1  0
 75 74  2  0
 76 75  1  0
 77 51  1  0
 77 82  1  0
 77 78  1  0
 78 81  1  1
 78 79  1  0
 80 78  1  0
 82 85  1  0
 83 87  1  0
 83 82  1  0
 84 83  2  0
 87 86  1  0
 89 87  1  0
 89 90  1  0
 89 88  1  0
M  ISO  4  11 100  19 100  49 101  50 101
M  END
>  <TORSDO>  (11) 
F 19

>  <SCORE>  (11) 
-15.302

>  <name>  (11) 
10

>  <ligand_id>  (11) 
10

>  <original_smiles>  (11) 
[H]c1c([H])c([H])c2c(c1[H])C([H])([H])C([H])([H])C([H])([H])C2([H])N([H])C(=O)C1([H])N(C(=O)C([H])(N([H])C(=O)C([H])(N([H])C([H])([H])[H])C([H])([H])[H])C(C([H])([H])[H])(C([H])([H])[H])C([H])([H])[H])C([H])([H])c2c([H])c(OC([H])([H])C3([H])C([H])([H])C([H])([H])C([H])(C(=O)C([H])([H])N([H])C(=O)N4C([H])([H])C([H])([H])C([H])([H])C([H])(n5nc(-c6c([H])c([H])c(Oc7c([H])c([H])c(F)c([H])c7F)c([H])c6[H])c(C(=O)N([H])[H])c5N([H])[H])C4([H])[H])[N+]3([H])[H])c([H])c([H])c2C1([H])[H]

>  <smiles>  (11) 
[H]c1c([H])c([H])c2c(c1[H])C([H])([H])C([H])([H])C([H])([H])C2([H])N([H])C(=O)C1([H])N(C(=O)C([H])(N([H])C(=O)C([H])(N([H])C([H])([H])[H])C([H])([H])[H])C(C([H])([H])[H])(C([H])([H])[H])C([H])([H])[H])C([H])([H])c2c([H])c(OC([H])([H])C3([H])C([H])([H])C([H])([H])C([H])(C(=O)C([H])([H])N([H])C(=O)N4C([H])([H])C([H])([H])C([H])([H])C([H])(n5nc(-c6c([H])c([H])c(Oc7c([H])c([H])c(F)c([H])c7F)c([H])c6[H])c(C(=O)N([H])[H])c5N([H])[H])C4([H])[H])[N+]3([H])[H])c([H])c([H])c2C1([H])[H]

$$$$
11:0:0
     RDKit          3D

 92101  0  0  1  0  0  0  0  0999 V2000
  -28.3040  -23.9960   19.5650 C   0  0  0  0  0  0  0  0  0  0  0  0
  -28.0760  -22.0740   21.7800 C   0  0  0  0  0  2  0  0  0  0  0  0
  -29.9500  -20.6380   20.5600 C   0  0  0  0  0  2  0  0  0  0  0  0
  -27.6300  -20.2490   19.9350 C   0  0  0  0  0  2  0  0  0  0  0  0
  -29.3780  -22.0650   20.9580 C   0  0  0  0  0  3  0  0  0  0  0  0
  -27.4590  -21.7380   20.4140 C   0  0  0  0  0  3  0  0  0  0  0  0
  -28.5330  -22.5960   19.8600 N   0  0  0  0  0  0  0  0  0  0  0  0
  -28.8530  -19.6080   20.5370 N   0  0  1  0  0  4  0  0  0  0  0  0
  -28.2380  -24.3160   18.3770 O   0  0  0  0  0  0  0  0  0  0  0  0
  -28.5980  -19.4840   21.5050 H   0  0  0  0  0  0  0  0  0  0  0  0
  -28.2160  -25.1480   20.6450 C   0  0  0  0  0  2  0  0  0  0  0  0
  -28.3760  -26.5340   20.1390 O   0  0  0  0  0  0  0  0  0  0  0  0
  -24.6160  -31.8760   23.2050 C   0  0  0  0  0  0  0  0  0  0  0  0
  -27.2540  -27.3640   20.1270 C   0  0  0  0  0  0  0  0  0  0  0  0
  -23.4250  -30.4830   21.5480 C   0  0  0  0  0  3  0  0  0  0  0  0
  -24.8870  -28.9500   20.1160 C   0  0  0  0  0  0  0  0  0  0  0  0
  -25.9610  -30.8170   21.3770 C   0  0  0  0  0  2  0  0  0  0  0  0
  -26.0500  -29.4460   20.7220 C   0  0  0  0  0  0  0  0  0  0  0  0
  -27.2400  -28.6640   20.7140 C   0  0  0  0  0  3  0  0  0  0  0  0
  -26.0740  -26.9140   19.5030 C   0  0  0  0  0  3  0  0  0  0  0  0
  -24.9000  -27.6900   19.4960 C   0  0  0  0  0  3  0  0  0  0  0  0
  -23.6470  -29.8180   20.1640 C   0  0  0  0  0  2  0  0  0  0  0  0
  -24.6860  -31.0770   22.1000 N   0  0  0  0  0  0  0  0  0  0  0  0
  -23.5290  -32.1440   23.7370 O   0  0  0  0  0  0  0  0  0  0  0  0
  -22.7670  -29.4560   22.4990 C   0  0  0  0  0  0  0  0  0  0  0  0
  -21.4400  -29.2830   22.3740 N   0  0  0  0  0  0  0  0  0  0  0  0
  -23.4470  -28.8190   23.3080 O   0  0  0  0  0  0  0  0  0  0  0  0
  -20.9520  -29.8500   21.6930 H   0  0  0  0  0  0  0  0  0  0  0  0
  -18.0580  -28.0990   22.8720 C   0  0  0  0  0  0  0  0  0  0  0  0
  -20.6190  -28.3380   23.1330 C   0  0  0  0  0  3  0  0  0  0  0  0
  -20.7100  -26.9150   22.5330 C   0  0  0  0  0  2  0  0  0  0  0  0
  -19.6000  -26.6150   21.5210 C   0  0  0  0  0  2  0  0  0  0  0  0
  -18.2210  -26.7610   22.1730 C   0  0  0  0  0  2  0  0  0  0  0  0
  -19.1840  -28.8470   23.3090 C   0  0  0  0  0  0  0  0  0  0  0  0
  -18.9780  -30.1020   23.9230 C   0  0  0  0  0  3  0  0  0  0  0  0
  -17.6780  -30.6100   24.1020 C   0  0  0  0  0  3  0  0  0  0  0  0
  -16.5660  -29.8580   23.6830 C   0  0  0  0  0  3  0  0  0  0  0  0
  -16.7570  -28.6030   23.0750 C   0  0  0  0  0  3  0  0  0  0  0  0
  -25.8940  -32.5090   23.8390 C   0  0  0  0  0  3  0  0  0  0  0  0
  -26.4070  -31.7310   25.1130 C   0  0  1  0  0  0  0  0  0  0  0  0
  -25.3080  -31.4810   26.1720 C   0  0  0  0  0  1  0  0  0  0  0  0
  -26.9960  -30.3590   24.7100 C   0  0  0  0  0  1  0  0  0  0  0  0
  -27.5530  -32.5230   25.7850 C   0  0  0  0  0  1  0  0  0  0  0  0
  -25.5780  -33.9030   24.1790 N   0  0  0  0  0  0  0  0  0  0  0  0
  -25.9070  -34.9640   23.4300 C   0  0  0  0  0  0  0  0  0  0  0  0
  -26.5810  -34.8720   22.4000 O   0  0  0  0  0  0  0  0  0  0  0  0
  -24.9870  -34.0500   24.9850 H   0  0  0  0  0  0  0  0  0  0  0  0
  -24.1740  -36.7530   23.0830 C   0  0  0  0  0  1  0  0  0  0  0  0
  -25.4100  -36.3460   23.8980 C   0  0  0  0  0  3  0  0  0  0  0  0
  -27.5350  -37.2300   24.7540 C   0  0  0  0  0  1  0  0  0  0  0  0
  -26.4400  -37.4030   23.8030 N   0  0  0  0  0  0  0  0  0  0  0  0
  -26.0290  -38.3200   23.9550 H   0  0  0  0  0  0  0  0  0  0  0  0
  -29.1420  -18.1990   20.0150 C   0  0  0  0  0  2  0  0  0  0  0  0
  -30.1000  -17.2310   20.8510 C   0  0  0  0  0  2  0  0  0  0  0  0
  -30.7410  -14.7050   20.3940 C   0  0  0  0  0  0  0  0  0  0  0  0
  -30.5800  -12.4530   19.3450 C   0  0  0  0  0  2  0  0  0  0  0  0
  -29.6430  -12.5610   18.1190 C   0  0  0  0  0  2  0  0  0  0  0  0
  -28.1650  -12.4110   18.5320 C   0  0  0  0  0  2  0  0  0  0  0  0
  -27.7940  -13.2930   19.7540 C   0  0  0  0  0  3  0  0  0  0  0  0
  -28.8360  -13.1320   20.8820 C   0  0  0  0  0  2  0  0  0  0  0  0
  -30.1490  -13.4750   20.3180 N   0  0  0  0  0  0  0  0  0  0  0  0
  -31.9210  -14.8790   20.0690 O   0  0  0  0  0  0  0  0  0  0  0  0
  -29.8920  -15.7460   20.6650 N   0  0  0  0  0  0  0  0  0  0  0  0
  -28.9510  -15.4350   20.8500 H   0  0  0  0  0  0  0  0  0  0  0  0
  -25.3980  -13.9270   20.4300 C   0  0  0  0  0  0  0  0  0  0  0  0
  -24.3220  -13.1660   20.7990 C   0  0  0  0  0  0  0  0  0  0  0  0
  -24.7770  -11.8110   20.7970 C   0  0  0  0  0  0  0  0  0  0  0  0
  -26.4400  -13.0340   20.2230 N   0  0  0  0  0  0  0  0  0  0  0  0
  -26.0710  -11.7590   20.5050 N   0  0  0  0  0  0  0  0  0  0  0  0
  -24.0410  -10.5560   20.9940 C   0  0  0  0  0  0  0  0  0  0  0  0
  -24.4560   -9.5980   21.9460 C   0  0  0  0  0  3  0  0  0  0  0  0
  -23.7210   -8.4080   22.1270 C   0  0  0  0  0  3  0  0  0  0  0  0
  -22.5580   -8.1670   21.3590 C   0  0  0  0  0  0  0  0  0  0  0  0
  -22.1640   -9.1120   20.3960 C   0  0  0  0  0  3  0  0  0  0  0  0
  -22.8980  -10.2940   20.2110 C   0  0  0  0  0  3  0  0  0  0  0  0
  -21.7960   -7.0280   21.4510 O   0  0  0  0  0  0  0  0  0  0  0  0
  -21.7260   -6.3020   22.6130 C   0  0  0  0  0  0  0  0  0  0  0  0
  -21.2750   -6.8730   23.8230 C   0  0  0  0  0  3  0  0  0  0  0  0
  -21.1530   -6.0730   24.9770 C   0  0  0  0  0  3  0  0  0  0  0  0
  -21.4700   -4.7040   24.9220 C   0  0  0  0  0  0  0  0  0  0  0  0
  -21.9140   -4.1310   23.7170 C   0  0  0  0  0  3  0  0  0  0  0  0
  -22.0390   -4.9280   22.5660 C   0  0  0  0  0  0  0  0  0  0  0  0
  -22.4470   -4.3670   21.4020 F   0  0  0  0  0  0  0  0  0  0  0  0
  -21.3470   -3.9340   26.0290 F   0  0  0  0  0  0  0  0  0  0  0  0
  -22.9240  -13.6540   21.0440 C   0  0  0  0  0  0  0  0  0  0  0  0
  -22.1800  -12.9730   21.9080 N   0  0  0  0  0  0  0  0  0  0  0  0
  -22.4990  -14.6750   20.5020 O   0  0  0  0  0  0  0  0  0  0  0  0
  -22.5350  -12.1450   22.3650 H   0  0  0  0  0  0  0  0  0  0  0  0
  -21.2400  -13.2790   22.1160 H   0  0  0  0  0  0  0  0  0  0  0  0
  -25.5730  -15.2930   20.2280 N   0  0  0  0  0  0  0  0  0  0  0  0
  -24.8000  -15.9450   20.2900 H   0  0  0  0  0  0  0  0  0  0  0  0
  -26.3990  -15.6990   19.8090 H   0  0  0  0  0  0  0  0  0  0  0  0
  1  7  1  0
  1 11  1  0
  4  8  1  0
  5  3  1  0
  5  2  1  0
  6  4  1  0
  6  2  1  0
  7  6  1  0
  7  5  1  0
  8  3  1  0
  8 10  1  1
  9  1  2  0
 12 11  1  0
 13 24  2  0
 14 12  1  0
 14 19  1  0
 15 23  1  0
 15 25  1  0
 16 22  1  0
 16 18  1  0
 17 23  1  0
 18 17  1  0
 19 18  2  0
 20 14  2  0
 21 20  1  0
 21 16  2  0
 22 15  1  0
 23 13  1  0
 25 27  2  0
 26 25  1  0
 28 26  1  0
 29 38  2  0
 29 34  1  0
 30 26  1  0
 30 34  1  0
 31 30  1  0
 32 33  1  0
 32 31  1  0
 33 29  1  0
 34 35  2  0
 35 36  1  0
 37 36  2  0
 38 37  1  0
 39 13  1  0
 39 44  1  0
 39 40  1  0
 40 43  1  1
 40 41  1  0
 42 40  1  0
 44 47  1  0
 45 49  1  0
 45 44  1  0
 46 45  2  0
 49 48  1  0
 51 49  1  0
 51 52  1  0
 51 50  1  0
 53  8  1  0
 53 54  1  0
 55 63  1  0
 56 61  1  0
 57 58  1  0
 57 56  1  0
 59 58  1  0
 59 68  1  0
 59 60  1  0
 61 55  1  0
 61 60  1  0
 62 55  2  0
 63 64  1  0
 63 54  1  0
 65 66  2  0
 66 85  1  0
 67 66  1  0
 67 70  1  0
 68 65  1  0
 68 69  1  0
 69 67  2  0
 70 71  1  0
 71 72  2  0
 73 76  1  0
 73 72  1  0
 74 73  2  0
 75 74  1  0
 75 70  2  0
 76 77  1  0
 77 78  1  0
 78 79  2  0
 80 79  1  0
 80 84  1  0
 81 80  2  0
 82 77  2  0
 82 81  1  0
 83 82  1  0
 85 86  1  0
 86 89  1  0
 86 88  1  0
 87 85  2  0
 90 91  1  0
 90 65  1  0
 92 90  1  0
M  ISO  4  11 101  12 101  55 100  63 100
M  END
>  <TORSDO>  (12) 
F 19

>  <SCORE>  (12) 
-14.128

>  <name>  (12) 
11

>  <ligand_id>  (12) 
11

>  <original_smiles>  (12) 
[H]c1c([H])c([H])c2c(c1[H])C([H])([H])C([H])([H])C([H])([H])C2([H])N([H])C(=O)C1([H])N(C(=O)C([H])(N([H])C(=O)C([H])(N([H])C([H])([H])[H])C([H])([H])[H])C(C([H])([H])[H])(C([H])([H])[H])C([H])([H])[H])C([H])([H])c2c([H])c(OC([H])([H])C(=O)N3C4([H])C([H])([H])C3([H])C([H])([H])[N+]([H])(C([H])([H])C([H])([H])N([H])C(=O)N3C([H])([H])C([H])([H])C([H])([H])C([H])(n5nc(-c6c([H])c([H])c(Oc7c([H])c([H])c(F)c([H])c7F)c([H])c6[H])c(C(=O)N([H])[H])c5N([H])[H])C3([H])[H])C4([H])[H])c([H])c([H])c2C1([H])[H]

>  <smiles>  (12) 
[H]c1c([H])c([H])c2c(c1[H])C([H])([H])C([H])([H])C([H])([H])C2([H])N([H])C(=O)C1([H])N(C(=O)C([H])(N([H])C(=O)C([H])(N([H])C([H])([H])[H])C([H])([H])[H])C(C([H])([H])[H])(C([H])([H])[H])C([H])([H])[H])C([H])([H])c2c([H])c(OC([H])([H])C(=O)N3C4([H])C([H])([H])C3([H])C([H])([H])[N+]([H])(C([H])([H])C([H])([H])N([H])C(=O)N3C([H])([H])C([H])([H])C([H])([H])C([H])(n5nc(-c6c([H])c([H])c(Oc7c([H])c([H])c(F)c([H])c7F)c([H])c6[H])c(C(=O)N([H])[H])c5N([H])[H])C3([H])[H])C4([H])[H])c([H])c([H])c2C1([H])[H]

$$$$
12:0:0
     RDKit          3D

101109  0  0  1  0  0  0  0  0999 V2000
  -29.1290  -23.6880   17.9390 C   0  0  0  0  0  0  0  0  0  0  0  0
  -28.6020  -22.4540   17.8060 N   0  0  0  0  0  0  0  0  0  0  0  0
  -30.3050  -23.9350   17.6760 O   0  0  0  0  0  0  0  0  0  0  0  0
  -27.6380  -22.3430   18.0910 H   0  0  0  0  0  0  0  0  0  0  0  0
  -29.5890  -21.4990   15.7160 C   0  0  0  0  0  1  0  0  0  0  0  0
  -29.2100  -21.2620   17.1890 C   0  0  0  0  0  3  0  0  0  0  0  0
  -30.3800  -20.6630   18.0120 C   0  0  0  0  0  2  0  0  0  0  0  0
  -28.8370  -18.0270   20.3860 C   0  0  0  0  0  2  0  0  0  0  0  0
  -29.3000  -18.6820   19.0660 C   0  0  0  0  0  2  0  0  0  0  0  0
  -31.0440  -19.9370   20.2750 C   0  0  0  0  0  2  0  0  0  0  0  0
  -29.9620  -17.9270   21.4400 C   0  0  0  0  0  3  0  0  0  0  0  0
  -30.5660  -19.3440   21.6210 C   0  0  0  0  0  3  0  0  0  0  0  0
  -31.6720  -19.4080   22.6900 C   0  0  0  0  0  1  0  0  0  0  0  0
  -29.9400  -20.0150   19.2810 N   0  0  1  0  0  4  0  0  0  0  0  0
  -29.2480  -20.6300   19.6800 H   0  0  0  0  0  0  0  0  0  0  0  0
  -31.0150  -16.8330   21.1210 C   0  0  0  0  0  2  0  0  0  0  0  0
  -31.0740  -14.4690   20.4180 C   0  0  0  0  0  0  0  0  0  0  0  0
  -30.7060  -12.3420   19.2450 C   0  0  0  0  0  2  0  0  0  0  0  0
  -29.7820  -12.5910   18.0350 C   0  0  0  0  0  2  0  0  0  0  0  0
  -28.3010  -12.4920   18.4530 C   0  0  0  0  0  2  0  0  0  0  0  0
  -27.9780  -13.3270   19.7210 C   0  0  0  0  0  3  0  0  0  0  0  0
  -29.0180  -13.0660   20.8360 C   0  0  0  0  0  2  0  0  0  0  0  0
  -30.3570  -13.3260   20.2790 N   0  0  0  0  0  0  0  0  0  0  0  0
  -32.1880  -14.6340   19.9110 O   0  0  0  0  0  0  0  0  0  0  0  0
  -30.4490  -15.4850   21.0290 N   0  0  0  0  0  0  0  0  0  0  0  0
  -29.5400  -15.3100   21.4300 H   0  0  0  0  0  0  0  0  0  0  0  0
  -25.5780  -13.9890   20.3830 C   0  0  0  0  0  0  0  0  0  0  0  0
  -24.4910  -13.2420   20.7530 C   0  0  0  0  0  0  0  0  0  0  0  0
  -24.9280  -11.8820   20.7480 C   0  0  0  0  0  0  0  0  0  0  0  0
  -26.6110  -13.0870   20.1820 N   0  0  0  0  0  0  0  0  0  0  0  0
  -26.2210  -11.8150   20.4590 N   0  0  0  0  0  0  0  0  0  0  0  0
  -24.1770  -10.6360   20.9510 C   0  0  0  0  0  0  0  0  0  0  0  0
  -24.5830   -9.6770   21.9060 C   0  0  0  0  0  3  0  0  0  0  0  0
  -23.8340   -8.4950   22.0940 C   0  0  0  0  0  3  0  0  0  0  0  0
  -22.6680   -8.2650   21.3280 C   0  0  0  0  0  0  0  0  0  0  0  0
  -22.2830   -9.2120   20.3620 C   0  0  0  0  0  3  0  0  0  0  0  0
  -23.0310  -10.3860   20.1720 C   0  0  0  0  0  3  0  0  0  0  0  0
  -21.8930   -7.1350   21.4250 O   0  0  0  0  0  0  0  0  0  0  0  0
  -21.8080   -6.4170   22.5920 C   0  0  0  0  0  0  0  0  0  0  0  0
  -21.3820   -7.0090   23.8010 C   0  0  0  0  0  3  0  0  0  0  0  0
  -21.2430   -6.2210   24.9610 C   0  0  0  0  0  3  0  0  0  0  0  0
  -21.5190   -4.8400   24.9110 C   0  0  0  0  0  0  0  0  0  0  0  0
  -21.9380   -4.2490   23.7060 C   0  0  0  0  0  3  0  0  0  0  0  0
  -22.0790   -5.0340   22.5490 C   0  0  0  0  0  0  0  0  0  0  0  0
  -22.4630   -4.4550   21.3860 F   0  0  0  0  0  0  0  0  0  0  0  0
  -21.3790   -4.0790   26.0210 F   0  0  0  0  0  0  0  0  0  0  0  0
  -23.1000  -13.7490   21.0010 C   0  0  0  0  0  0  0  0  0  0  0  0
  -22.3530  -13.0830   21.8760 N   0  0  0  0  0  0  0  0  0  0  0  0
  -22.6860  -14.7700   20.4560 O   0  0  0  0  0  0  0  0  0  0  0  0
  -22.7030  -12.2590   22.3390 H   0  0  0  0  0  0  0  0  0  0  0  0
  -21.4180  -13.4040   22.0850 H   0  0  0  0  0  0  0  0  0  0  0  0
  -25.7690  -15.3520   20.1840 N   0  0  0  0  0  0  0  0  0  0  0  0
  -25.0090  -16.0190   20.2680 H   0  0  0  0  0  0  0  0  0  0  0  0
  -26.6280  -15.7670   19.8440 H   0  0  0  0  0  0  0  0  0  0  0  0
  -28.1370  -24.8070   18.3080 C   0  0  0  0  0  3  0  0  0  0  0  0
  -27.2670  -25.0270   17.1270 N   0  0  0  0  0  4  0  0  0  0  0  0
  -27.8150  -25.3370   16.3410 H   0  0  0  0  0  0  0  0  0  0  0  0
  -26.5560  -25.7130   17.3100 H   0  0  0  0  0  0  0  0  0  0  0  0
  -26.8120  -24.1730   16.8560 H   0  0  0  0  0  0  0  0  0  0  0  0
  -28.7770  -26.1540   18.7950 C   0  0  0  0  0  2  0  0  0  0  0  0
  -28.3260  -26.6440   20.0720 O   0  0  0  0  0  0  0  0  0  0  0  0
  -24.5640  -31.8430   23.2200 C   0  0  0  0  0  0  0  0  0  0  0  0
  -27.1610  -27.3820   20.0980 C   0  0  0  0  0  0  0  0  0  0  0  0
  -23.3430  -30.4460   21.5900 C   0  0  0  0  0  3  0  0  0  0  0  0
  -24.7770  -28.9050   20.1580 C   0  0  0  0  0  0  0  0  0  0  0  0
  -25.8750  -30.7810   21.3860 C   0  0  0  0  0  2  0  0  0  0  0  0
  -25.9450  -29.4140   20.7390 C   0  0  0  0  0  0  0  0  0  0  0  0
  -27.1410  -28.6570   20.7130 C   0  0  0  0  0  3  0  0  0  0  0  0
  -25.9560  -26.8710   19.5680 C   0  0  0  0  0  3  0  0  0  0  0  0
  -24.7760  -27.6290   19.5790 C   0  0  0  0  0  3  0  0  0  0  0  0
  -23.5400  -29.7720   20.2090 C   0  0  0  0  0  2  0  0  0  0  0  0
  -24.6120  -31.0380   22.1220 N   0  0  0  0  0  0  0  0  0  0  0  0
  -23.4850  -32.1250   23.7620 O   0  0  0  0  0  0  0  0  0  0  0  0
  -22.6920  -29.4260   22.5520 C   0  0  0  0  0  0  0  0  0  0  0  0
  -21.3650  -29.2560   22.4380 N   0  0  0  0  0  0  0  0  0  0  0  0
  -23.3780  -28.7920   23.3570 O   0  0  0  0  0  0  0  0  0  0  0  0
  -20.8700  -29.8190   21.7570 H   0  0  0  0  0  0  0  0  0  0  0  0
  -17.9850  -28.0950   22.9660 C   0  0  0  0  0  0  0  0  0  0  0  0
  -20.5470  -28.3250   23.2140 C   0  0  0  0  0  3  0  0  0  0  0  0
  -20.6290  -26.8920   22.6360 C   0  0  0  0  0  2  0  0  0  0  0  0
  -19.5130  -26.5830   21.6310 C   0  0  0  0  0  2  0  0  0  0  0  0
  -18.1400  -26.7450   22.2870 C   0  0  0  0  0  2  0  0  0  0  0  0
  -19.1160  -28.8440   23.3870 C   0  0  0  0  0  0  0  0  0  0  0  0
  -18.9160  -30.1110   23.9780 C   0  0  0  0  0  3  0  0  0  0  0  0
  -17.6190  -30.6280   24.1550 C   0  0  0  0  0  3  0  0  0  0  0  0
  -16.5030  -29.8750   23.7510 C   0  0  0  0  0  3  0  0  0  0  0  0
  -16.6880  -28.6110   23.1630 C   0  0  0  0  0  3  0  0  0  0  0  0
  -25.8550  -32.4670   23.8310 C   0  0  0  0  0  3  0  0  0  0  0  0
  -26.3890  -31.6870   25.0960 C   0  0  1  0  0  0  0  0  0  0  0  0
  -25.3090  -31.4410   26.1740 C   0  0  0  0  0  1  0  0  0  0  0  0
  -26.9710  -30.3110   24.6940 C   0  0  0  0  0  1  0  0  0  0  0  0
  -27.5450  -32.4780   25.7500 C   0  0  0  0  0  1  0  0  0  0  0  0
  -25.5510  -33.8630   24.1710 N   0  0  0  0  0  0  0  0  0  0  0  0
  -25.8790  -34.9180   23.4140 C   0  0  0  0  0  0  0  0  0  0  0  0
  -26.5390  -34.8200   22.3760 O   0  0  0  0  0  0  0  0  0  0  0  0
  -24.9540  -34.0150   24.9710 H   0  0  0  0  0  0  0  0  0  0  0  0
  -24.1460  -36.7120   23.0810 C   0  0  0  0  0  1  0  0  0  0  0  0
  -25.3940  -36.3030   23.8810 C   0  0  0  0  0  3  0  0  0  0  0  0
  -27.5370  -37.1790   24.6970 C   0  0  0  0  0  1  0  0  0  0  0  0
  -26.4270  -37.3550   23.7650 N   0  0  0  0  0  0  0  0  0  0  0  0
  -26.0250  -38.2760   23.9220 H   0  0  0  0  0  0  0  0  0  0  0  0
  1 55  1  0
  2  1  1  0
  2  4  1  0
  3  1  2  0
  6  5  1  0
  6  2  1  0
  6  7  1  0
  7 14  1  0
  8 11  1  0
  9 14  1  0
  9  8  1  0
 10 12  1  0
 11 16  1  0
 11 12  1  0
 12 13  1  0
 14 15  1  1
 14 10  1  0
 17 25  1  0
 18 23  1  0
 19 20  1  0
 19 18  1  0
 21 20  1  0
 21 30  1  0
 21 22  1  0
 23 17  1  0
 23 22  1  0
 24 17  2  0
 25 16  1  0
 25 26  1  0
 27 28  2  0
 28 47  1  0
 29 28  1  0
 29 32  1  0
 30 27  1  0
 30 31  1  0
 31 29  2  0
 32 33  1  0
 33 34  2  0
 35 38  1  0
 35 34  1  0
 36 35  2  0
 37 36  1  0
 37 32  2  0
 38 39  1  0
 39 40  1  0
 40 41  2  0
 42 41  1  0
 42 46  1  0
 43 42  2  0
 44 39  2  0
 44 43  1  0
 45 44  1  0
 47 48  1  0
 48 51  1  0
 48 50  1  0
 49 47  2  0
 52 53  1  0
 52 27  1  0
 54 52  1  0
 55 60  1  0
 56 58  1  0
 56 55  1  0
 57 56  1  0
 59 56  1  0
 60 61  1  0
 61 63  1  0
 62 73  2  0
 63 68  1  0
 64 72  1  0
 64 74  1  0
 65 71  1  0
 65 67  1  0
 66 72  1  0
 67 66  1  0
 68 67  2  0
 69 70  1  0
 69 63  2  0
 70 65  2  0
 71 64  1  0
 72 62  1  0
 74 76  2  0
 75 74  1  0
 77 75  1  0
 78 87  2  0
 78 83  1  0
 79 75  1  0
 79 83  1  0
 80 79  1  0
 81 82  1  0
 81 80  1  0
 82 78  1  0
 83 84  2  0
 84 85  1  0
 86 85  2  0
 87 86  1  0
 88 62  1  0
 88 93  1  0
 88 89  1  0
 89 92  1  1
 89 90  1  0
 91 89  1  0
 93 96  1  0
 94 98  1  0
 94 93  1  0
 95 94  2  0
 98 97  1  0
100 98  1  0
100101  1  0
100 99  1  0
M  ISO  4  17 100  25 100  60 101  61 101
M  END
>  <TORSDO>  (13) 
F 23

>  <SCORE>  (13) 
-12.881

>  <name>  (13) 
12

>  <ligand_id>  (13) 
12

>  <original_smiles>  (13) 
[H]c1c([H])c([H])c2c(c1[H])C([H])([H])C([H])([H])C([H])([H])C2([H])N([H])C(=O)C1([H])N(C(=O)C([H])(N([H])C(=O)C([H])(N([H])C([H])([H])[H])C([H])([H])[H])C(C([H])([H])[H])(C([H])([H])[H])C([H])([H])[H])C([H])([H])c2c([H])c(OC([H])([H])C([H])(C(=O)N([H])C([H])(C([H])([H])[H])C([H])([H])[N+]3([H])C([H])([H])C([H])([H])C([H])(C([H])([H])N([H])C(=O)N4C([H])([H])C([H])([H])C([H])([H])C([H])(n5nc(-c6c([H])c([H])c(Oc7c([H])c([H])c(F)c([H])c7F)c([H])c6[H])c(C(=O)N([H])[H])c5N([H])[H])C4([H])[H])C([H])(C([H])([H])[H])C3([H])[H])[N+]([H])([H])[H])c([H])c([H])c2C1([H])[H]

>  <smiles>  (13) 
[H]c1c([H])c([H])c2c(c1[H])C([H])([H])C([H])([H])C([H])([H])C2([H])N([H])C(=O)C1([H])N(C(=O)C([H])(N([H])C(=O)C([H])(N([H])C([H])([H])[H])C([H])([H])[H])C(C([H])([H])[H])(C([H])([H])[H])C([H])([H])[H])C([H])([H])c2c([H])c(OC([H])([H])C([H])(C(=O)N([H])C([H])(C([H])([H])[H])C([H])([H])[N+]3([H])C([H])([H])C([H])([H])C([H])(C([H])([H])N([H])C(=O)N4C([H])([H])C([H])([H])C([H])([H])C([H])(n5nc(-c6c([H])c([H])c(Oc7c([H])c([H])c(F)c([H])c7F)c([H])c6[H])c(C(=O)N([H])[H])c5N([H])[H])C4([H])[H])C([H])(C([H])([H])[H])C3([H])[H])[N+]([H])([H])[H])c([H])c([H])c2C1([H])[H]

$$$$
13:0:0
     RDKit          3D

 95103  0  0  1  0  0  0  0  0999 V2000
  -28.2950  -23.7320   20.1710 C   0  0  0  0  0  3  0  0  0  0  0  0
  -29.6240  -22.8790   20.4060 C   0  0  0  0  0  2  0  0  0  0  0  0
  -31.0110  -19.4160   21.5470 C   0  0  0  0  0  2  0  0  0  0  0  0
  -28.8150  -18.9380   20.5130 C   0  0  0  0  0  2  0  0  0  0  0  0
  -30.9560  -20.8530   20.9580 C   0  0  0  0  0  2  0  0  0  0  0  0
  -28.7810  -20.4310   19.9800 C   0  0  0  0  0  2  0  0  0  0  0  0
  -30.2430  -18.3420   20.7340 C   0  0  0  0  0  3  0  0  0  0  0  0
  -29.5720  -21.4010   20.8110 N   0  0  2  0  0  4  0  0  0  0  0  0
  -29.1610  -21.3820   21.7320 H   0  0  0  0  0  0  0  0  0  0  0  0
  -30.3880  -16.9490   21.4930 C   0  0  0  0  0  2  0  0  0  0  0  0
  -30.6170  -14.6060   20.4750 C   0  0  0  0  0  0  0  0  0  0  0  0
  -30.3660  -12.4060   19.3450 C   0  0  0  0  0  2  0  0  0  0  0  0
  -29.4300  -12.5490   18.1270 C   0  0  0  0  0  2  0  0  0  0  0  0
  -27.9540  -12.4040   18.5460 C   0  0  0  0  0  2  0  0  0  0  0  0
  -27.5960  -13.2610   19.7890 C   0  0  0  0  0  3  0  0  0  0  0  0
  -28.6440  -13.0840   20.9090 C   0  0  0  0  0  2  0  0  0  0  0  0
  -29.9560  -13.4150   20.3380 N   0  0  0  0  0  0  0  0  0  0  0  0
  -31.7820  -14.7480   20.1000 O   0  0  0  0  0  0  0  0  0  0  0  0
  -29.8830  -15.6670   20.9190 N   0  0  0  0  0  0  0  0  0  0  0  0
  -28.9140  -15.4580   21.1110 H   0  0  0  0  0  0  0  0  0  0  0  0
  -25.1970  -13.8760   20.4750 C   0  0  0  0  0  0  0  0  0  0  0  0
  -24.1240  -13.1100   20.8400 C   0  0  0  0  0  0  0  0  0  0  0  0
  -24.5820  -11.7560   20.8240 C   0  0  0  0  0  0  0  0  0  0  0  0
  -26.2420  -12.9900   20.2600 N   0  0  0  0  0  0  0  0  0  0  0  0
  -25.8750  -11.7100   20.5310 N   0  0  0  0  0  0  0  0  0  0  0  0
  -23.8480  -10.4980   21.0160 C   0  0  0  0  0  0  0  0  0  0  0  0
  -24.2660   -9.5360   21.9630 C   0  0  0  0  0  3  0  0  0  0  0  0
  -23.5340   -8.3430   22.1410 C   0  0  0  0  0  3  0  0  0  0  0  0
  -22.3710   -8.1030   21.3710 C   0  0  0  0  0  0  0  0  0  0  0  0
  -21.9740   -9.0520   20.4130 C   0  0  0  0  0  3  0  0  0  0  0  0
  -22.7060  -10.2370   20.2330 C   0  0  0  0  0  3  0  0  0  0  0  0
  -21.6130   -6.9600   21.4580 O   0  0  0  0  0  0  0  0  0  0  0  0
  -21.5430   -6.2270   22.6150 C   0  0  0  0  0  0  0  0  0  0  0  0
  -21.0920   -6.7900   23.8280 C   0  0  0  0  0  3  0  0  0  0  0  0
  -20.9720   -5.9840   24.9780 C   0  0  0  0  0  3  0  0  0  0  0  0
  -21.2940   -4.6150   24.9140 C   0  0  0  0  0  0  0  0  0  0  0  0
  -21.7380   -4.0510   23.7050 C   0  0  0  0  0  3  0  0  0  0  0  0
  -21.8600   -4.8550   22.5580 C   0  0  0  0  0  0  0  0  0  0  0  0
  -22.2690   -4.3020   21.3910 F   0  0  0  0  0  0  0  0  0  0  0  0
  -21.1710   -3.8370   26.0150 F   0  0  0  0  0  0  0  0  0  0  0  0
  -22.7250  -13.5930   21.0920 C   0  0  0  0  0  0  0  0  0  0  0  0
  -21.9830  -12.9020   21.9500 N   0  0  0  0  0  0  0  0  0  0  0  0
  -22.2980  -14.6190   20.5620 O   0  0  0  0  0  0  0  0  0  0  0  0
  -22.3440  -12.0730   22.3980 H   0  0  0  0  0  0  0  0  0  0  0  0
  -21.0440  -13.2050   22.1620 H   0  0  0  0  0  0  0  0  0  0  0  0
  -25.3680  -15.2450   20.2890 N   0  0  0  0  0  0  0  0  0  0  0  0
  -24.5980  -15.8990   20.3800 H   0  0  0  0  0  0  0  0  0  0  0  0
  -26.2180  -15.6760   19.9480 H   0  0  0  0  0  0  0  0  0  0  0  0
  -27.8860  -23.7490   18.6780 C   0  0  0  0  0  2  0  0  0  0  0  0
  -28.6960  -24.6820   17.8650 N   0  0  0  0  0  4  0  0  0  0  0  0
  -28.6200  -25.6220   18.2170 H   0  0  0  0  0  0  0  0  0  0  0  0
  -28.3700  -24.6760   16.9150 H   0  0  0  0  0  0  0  0  0  0  0  0
  -29.6670  -24.4290   17.8510 H   0  0  0  0  0  0  0  0  0  0  0  0
  -28.1440  -25.1750   20.8740 C   0  0  0  0  0  2  0  0  0  0  0  0
  -28.3130  -26.4730   20.1740 O   0  0  0  0  0  0  0  0  0  0  0  0
  -24.5930  -31.8680   23.2300 C   0  0  0  0  0  0  0  0  0  0  0  0
  -27.2070  -27.3320   20.1680 C   0  0  0  0  0  0  0  0  0  0  0  0
  -23.3870  -30.4740   21.5900 C   0  0  0  0  0  3  0  0  0  0  0  0
  -24.8370  -28.9270   20.1610 C   0  0  0  0  0  0  0  0  0  0  0  0
  -25.9210  -30.8030   21.3940 C   0  0  0  0  0  2  0  0  0  0  0  0
  -26.0070  -29.4240   20.7520 C   0  0  0  0  0  0  0  0  0  0  0  0
  -27.2000  -28.6400   20.7430 C   0  0  0  0  0  3  0  0  0  0  0  0
  -26.0170  -26.8850   19.5580 C   0  0  0  0  0  3  0  0  0  0  0  0
  -24.8430  -27.6610   19.5550 C   0  0  0  0  0  3  0  0  0  0  0  0
  -23.5970  -29.7980   20.2100 C   0  0  0  0  0  2  0  0  0  0  0  0
  -24.6530  -31.0650   22.1280 N   0  0  0  0  0  0  0  0  0  0  0  0
  -23.5100  -32.1430   23.7670 O   0  0  0  0  0  0  0  0  0  0  0  0
  -22.7280  -29.4540   22.5490 C   0  0  0  0  0  0  0  0  0  0  0  0
  -21.4020  -29.2740   22.4220 N   0  0  0  0  0  0  0  0  0  0  0  0
  -23.4090  -28.8270   23.3650 O   0  0  0  0  0  0  0  0  0  0  0  0
  -20.9100  -29.8320   21.7390 H   0  0  0  0  0  0  0  0  0  0  0  0
  -18.0270  -28.0820   22.9380 C   0  0  0  0  0  0  0  0  0  0  0  0
  -20.5870  -28.3340   23.1950 C   0  0  0  0  0  3  0  0  0  0  0  0
  -20.6820  -26.9050   22.6130 C   0  0  0  0  0  2  0  0  0  0  0  0
  -19.5730  -26.5910   21.6020 C   0  0  0  0  0  2  0  0  0  0  0  0
  -18.1950  -26.7370   22.2530 C   0  0  0  0  0  2  0  0  0  0  0  0
  -19.1500  -28.8390   23.3660 C   0  0  0  0  0  0  0  0  0  0  0  0
  -18.9370  -30.1010   23.9630 C   0  0  0  0  0  3  0  0  0  0  0  0
  -17.6340  -30.6030   24.1410 C   0  0  0  0  0  3  0  0  0  0  0  0
  -16.5260  -29.8430   23.7270 C   0  0  0  0  0  3  0  0  0  0  0  0
  -16.7240  -28.5850   23.1320 C   0  0  0  0  0  3  0  0  0  0  0  0
  -25.8760  -32.4990   23.8510 C   0  0  0  0  0  3  0  0  0  0  0  0
  -25.5670  -33.8990   24.1790 N   0  0  0  0  0  0  0  0  0  0  0  0
  -25.9020  -34.9490   23.4200 C   0  0  0  0  0  0  0  0  0  0  0  0
  -26.5760  -34.8430   22.3910 O   0  0  0  0  0  0  0  0  0  0  0  0
  -24.9700  -34.0560   24.9780 H   0  0  0  0  0  0  0  0  0  0  0  0
  -24.1850  -36.7510   23.0530 C   0  0  0  0  0  1  0  0  0  0  0  0
  -25.4170  -36.3380   23.8730 C   0  0  0  0  0  3  0  0  0  0  0  0
  -27.5450  -37.2190   24.7260 C   0  0  0  0  0  1  0  0  0  0  0  0
  -26.4530  -37.3880   23.7700 N   0  0  0  0  0  0  0  0  0  0  0  0
  -26.0480  -38.3090   23.9120 H   0  0  0  0  0  0  0  0  0  0  0  0
  -26.3900  -31.7270   25.1280 C   0  0  1  0  0  0  0  0  0  0  0  0
  -25.2950  -31.4900   26.1950 C   0  0  0  0  0  1  0  0  0  0  0  0
  -26.9740  -30.3480   24.7370 C   0  0  0  0  0  1  0  0  0  0  0  0
  -27.5410  -32.5210   25.7910 C   0  0  0  0  0  1  0  0  0  0  0  0
  1 49  1  0
  1  2  1  0
  1 54  1  0
  2  8  1  0
  4  7  1  0
  5  3  1  0
  6  4  1  0
  6  8  1  0
  7 10  1  0
  7  3  1  0
  8  5  1  0
  8  9  1  1
 11 19  1  0
 12 17  1  0
 13 14  1  0
 13 12  1  0
 15 14  1  0
 15 24  1  0
 15 16  1  0
 17 11  1  0
 17 16  1  0
 18 11  2  0
 19 20  1  0
 19 10  1  0
 21 22  2  0
 22 41  1  0
 23 22  1  0
 23 26  1  0
 24 21  1  0
 24 25  1  0
 25 23  2  0
 26 27  1  0
 27 28  2  0
 29 32  1  0
 29 28  1  0
 30 29  2  0
 31 30  1  0
 31 26  2  0
 32 33  1  0
 33 34  1  0
 34 35  2  0
 36 35  1  0
 36 40  1  0
 37 36  2  0
 38 33  2  0
 38 37  1  0
 39 38  1  0
 41 42  1  0
 42 45  1  0
 42 44  1  0
 43 41  2  0
 46 47  1  0
 46 21  1  0
 48 46  1  0
 50 51  1  0
 50 49  1  0
 52 50  1  0
 53 50  1  0
 55 54  1  0
 56 67  2  0
 57 55  1  0
 57 62  1  0
 58 66  1  0
 58 68  1  0
 59 65  1  0
 59 61  1  0
 60 66  1  0
 61 60  1  0
 62 61  2  0
 63 57  2  0
 64 63  1  0
 64 59  2  0
 65 58  1  0
 66 56  1  0
 68 70  2  0
 69 68  1  0
 71 69  1  0
 72 81  2  0
 72 77  1  0
 73 69  1  0
 73 77  1  0
 74 73  1  0
 75 76  1  0
 75 74  1  0
 76 72  1  0
 77 78  2  0
 78 79  1  0
 80 79  2  0
 81 80  1  0
 82 56  1  0
 82 83  1  0
 82 92  1  0
 83 86  1  0
 84 88  1  0
 84 83  1  0
 85 84  2  0
 88 87  1  0
 90 88  1  0
 90 91  1  0
 90 89  1  0
 92 95  1  1
 92 93  1  0
 94 92  1  0
M  ISO  4  11 100  19 100  54 101  55 101
M  END
>  <TORSDO>  (14) 
F 22

>  <SCORE>  (14) 
-13.410

>  <name>  (14) 
13

>  <ligand_id>  (14) 
13

>  <original_smiles>  (14) 
[H]c1c([H])c([H])c2c(c1[H])C([H])([H])C([H])([H])C([H])([H])C2([H])N([H])C(=O)C1([H])N(C(=O)C([H])(N([H])C(=O)C([H])(N([H])C([H])([H])[H])C([H])([H])[H])C(C([H])([H])[H])(C([H])([H])[H])C([H])([H])[H])C([H])([H])c2c([H])c(OC([H])([H])C([H])(C([H])([H])[N+]([H])([H])[H])C([H])([H])[N+]3([H])C([H])([H])C([H])([H])C([H])(C([H])([H])N([H])C(=O)N4C([H])([H])C([H])([H])C([H])([H])C([H])(n5nc(-c6c([H])c([H])c(Oc7c([H])c([H])c(F)c([H])c7F)c([H])c6[H])c(C(=O)N([H])[H])c5N([H])[H])C4([H])[H])C([H])([H])C3([H])[H])c([H])c([H])c2C1([H])[H]

>  <smiles>  (14) 
[H]c1c([H])c([H])c2c(c1[H])C([H])([H])C([H])([H])C([H])([H])C2([H])N([H])C(=O)C1([H])N(C(=O)C([H])(N([H])C(=O)C([H])(N([H])C([H])([H])[H])C([H])([H])[H])C(C([H])([H])[H])(C([H])([H])[H])C([H])([H])[H])C([H])([H])c2c([H])c(OC([H])([H])C([H])(C([H])([H])[N+]([H])([H])[H])C([H])([H])[N+]3([H])C([H])([H])C([H])([H])C([H])(C([H])([H])N([H])C(=O)N4C([H])([H])C([H])([H])C([H])([H])C([H])(n5nc(-c6c([H])c([H])c(Oc7c([H])c([H])c(F)c([H])c7F)c([H])c6[H])c(C(=O)N([H])[H])c5N([H])[H])C4([H])[H])C([H])([H])C3([H])[H])c([H])c([H])c2C1([H])[H]

$$$$
14:0:0
     RDKit          3D

 97105  0  0  1  0  0  0  0  0999 V2000
  -29.3890  -22.5830   21.2990 C   0  0  0  0  0  3  0  0  0  0  0  0
  -30.2020  -22.8290   19.0320 C   0  0  0  0  0  3  0  0  0  0  0  0
  -29.7910  -23.4260   20.2430 C   0  0  0  0  0  0  0  0  0  0  0  0
  -29.3990  -21.1770   21.1680 C   0  0  0  0  0  0  0  0  0  0  0  0
  -30.2520  -21.4210   18.8960 C   0  0  0  0  0  0  0  0  0  0  0  0
  -29.8790  -20.5710   19.9720 C   0  0  0  0  0  0  0  0  0  0  0  0
  -28.8350  -20.3700   22.3270 C   0  0  0  0  0  1  0  0  0  0  0  0
  -30.7170  -20.8410   17.5710 C   0  0  0  0  0  1  0  0  0  0  0  0
  -29.9770  -19.1740   19.7910 N   0  0  0  0  0  0  0  0  0  0  0  0
  -30.2450  -18.8970   18.8520 H   0  0  0  0  0  0  0  0  0  0  0  0
  -30.5830  -18.3490   20.8390 C   0  0  0  0  0  2  0  0  0  0  0  0
  -31.4890  -17.2360   20.2760 C   0  0  0  0  0  2  0  0  0  0  0  0
  -31.5630  -14.7890   19.9600 C   0  0  0  0  0  0  0  0  0  0  0  0
  -31.2180  -12.5260   19.0530 C   0  0  0  0  0  2  0  0  0  0  0  0
  -30.2630  -12.6070   17.8450 C   0  0  0  0  0  2  0  0  0  0  0  0
  -28.7940  -12.5270   18.3060 C   0  0  0  0  0  2  0  0  0  0  0  0
  -28.4780  -13.4920   19.4800 C   0  0  0  0  0  3  0  0  0  0  0  0
  -29.5490  -13.3980   20.5900 C   0  0  0  0  0  2  0  0  0  0  0  0
  -30.8640  -13.6210   19.9700 N   0  0  0  0  0  0  0  0  0  0  0  0
  -32.6890  -14.8860   19.4690 O   0  0  0  0  0  0  0  0  0  0  0  0
  -30.9110  -15.8880   20.3770 N   0  0  0  0  0  0  0  0  0  0  0  0
  -29.9660  -15.7920   20.7170 H   0  0  0  0  0  0  0  0  0  0  0  0
  -26.1340  -14.1960   20.2770 C   0  0  0  0  0  0  0  0  0  0  0  0
  -25.0460  -13.4680   20.6770 C   0  0  0  0  0  0  0  0  0  0  0  0
  -25.4470  -12.0980   20.6220 C   0  0  0  0  0  0  0  0  0  0  0  0
  -27.1310  -13.2730   20.0040 N   0  0  0  0  0  0  0  0  0  0  0  0
  -26.7230  -12.0060   20.2710 N   0  0  0  0  0  0  0  0  0  0  0  0
  -24.6740  -10.8680   20.8320 C   0  0  0  0  0  0  0  0  0  0  0  0
  -25.0210   -9.9400   21.8370 C   0  0  0  0  0  3  0  0  0  0  0  0
  -24.2510   -8.7720   22.0290 C   0  0  0  0  0  3  0  0  0  0  0  0
  -23.1210   -8.5260   21.2140 C   0  0  0  0  0  0  0  0  0  0  0  0
  -22.7930   -9.4420   20.1990 C   0  0  0  0  0  3  0  0  0  0  0  0
  -23.5630  -10.6000   20.0070 C   0  0  0  0  0  3  0  0  0  0  0  0
  -22.3270   -7.4080   21.3130 O   0  0  0  0  0  0  0  0  0  0  0  0
  -22.0860   -6.8000   22.5190 C   0  0  0  0  0  0  0  0  0  0  0  0
  -21.4440   -7.4760   23.5790 C   0  0  0  0  0  3  0  0  0  0  0  0
  -21.1540   -6.7920   24.7760 C   0  0  0  0  0  3  0  0  0  0  0  0
  -21.4940   -5.4340   24.9120 C   0  0  0  0  0  0  0  0  0  0  0  0
  -22.1260   -4.7560   23.8540 C   0  0  0  0  0  3  0  0  0  0  0  0
  -22.4190   -5.4370   22.6600 C   0  0  0  0  0  0  0  0  0  0  0  0
  -23.0090   -4.7750   21.6370 F   0  0  0  0  0  0  0  0  0  0  0  0
  -21.2080   -4.7730   26.0590 F   0  0  0  0  0  0  0  0  0  0  0  0
  -23.6820  -14.0040   20.9990 C   0  0  0  0  0  0  0  0  0  0  0  0
  -22.9550  -13.3410   21.8930 N   0  0  0  0  0  0  0  0  0  0  0  0
  -23.2700  -15.0470   20.4930 O   0  0  0  0  0  0  0  0  0  0  0  0
  -23.3000  -12.4990   22.3280 H   0  0  0  0  0  0  0  0  0  0  0  0
  -22.0390  -13.6850   22.1440 H   0  0  0  0  0  0  0  0  0  0  0  0
  -26.3510  -15.5580   20.1020 N   0  0  0  0  0  0  0  0  0  0  0  0
  -25.6210  -16.2450   20.2550 H   0  0  0  0  0  0  0  0  0  0  0  0
  -27.2060  -15.9680   19.7460 H   0  0  0  0  0  0  0  0  0  0  0  0
  -29.7610  -24.9510   20.4280 C   0  0  0  0  0  3  0  0  0  0  0  0
  -31.0760  -25.5590   20.1460 N   0  0  0  0  0  4  0  0  0  0  0  0
  -31.3420  -25.4500   19.1840 H   0  0  0  0  0  0  0  0  0  0  0  0
  -31.7830  -25.1400   20.7230 H   0  0  0  0  0  0  0  0  0  0  0  0
  -31.0460  -26.5420   20.3540 H   0  0  0  0  0  0  0  0  0  0  0  0
  -28.6250  -25.6450   19.6420 C   0  0  0  0  0  2  0  0  0  0  0  0
  -28.6260  -27.0610   19.9030 O   0  0  0  0  0  0  0  0  0  0  0  0
  -24.6260  -31.9140   23.2350 C   0  0  0  0  0  0  0  0  0  0  0  0
  -27.4150  -27.7280   19.9160 C   0  0  0  0  0  0  0  0  0  0  0  0
  -23.4600  -30.5390   21.5420 C   0  0  0  0  0  3  0  0  0  0  0  0
  -24.9580  -29.1360   20.0290 C   0  0  0  0  0  0  0  0  0  0  0  0
  -25.9670  -31.0110   21.3370 C   0  0  0  0  0  2  0  0  0  0  0  0
  -26.1000  -29.6750   20.6330 C   0  0  0  0  0  0  0  0  0  0  0  0
  -27.3280  -28.9770   20.5760 C   0  0  0  0  0  3  0  0  0  0  0  0
  -26.2520  -27.2140   19.2940 C   0  0  0  0  0  3  0  0  0  0  0  0
  -25.0300  -27.9050   19.3570 C   0  0  0  0  0  3  0  0  0  0  0  0
  -23.6800  -29.9360   20.1290 C   0  0  0  0  0  2  0  0  0  0  0  0
  -24.7030  -31.1670   22.0970 N   0  0  0  0  0  0  0  0  0  0  0  0
  -23.5400  -32.1150   23.7980 O   0  0  0  0  0  0  0  0  0  0  0  0
  -22.8640  -29.4470   22.4590 C   0  0  0  0  0  0  0  0  0  0  0  0
  -21.5580  -29.1800   22.3020 N   0  0  0  0  0  0  0  0  0  0  0  0
  -23.5750  -28.8440   23.2670 O   0  0  0  0  0  0  0  0  0  0  0  0
  -21.0430  -29.7240   21.6240 H   0  0  0  0  0  0  0  0  0  0  0  0
  -18.2710  -27.7260   22.6690 C   0  0  0  0  0  0  0  0  0  0  0  0
  -20.7930  -28.1670   23.0280 C   0  0  0  0  0  3  0  0  0  0  0  0
  -21.0200  -26.7610   22.4260 C   0  0  0  0  0  2  0  0  0  0  0  0
  -19.9750  -26.3790   21.3730 C   0  0  0  0  0  2  0  0  0  0  0  0
  -18.5680  -26.4080   21.9760 C   0  0  0  0  0  2  0  0  0  0  0  0
  -19.3150  -28.5600   23.1490 C   0  0  0  0  0  0  0  0  0  0  0  0
  -18.9850  -29.7900   23.7560 C   0  0  0  0  0  3  0  0  0  0  0  0
  -17.6420  -30.1910   23.8880 C   0  0  0  0  0  3  0  0  0  0  0  0
  -16.6110  -29.3540   23.4260 C   0  0  0  0  0  3  0  0  0  0  0  0
  -16.9260  -28.1230   22.8220 C   0  0  0  0  0  3  0  0  0  0  0  0
  -25.8910  -32.5700   23.8710 C   0  0  0  0  0  3  0  0  0  0  0  0
  -25.5450  -33.9550   24.2170 N   0  0  0  0  0  0  0  0  0  0  0  0
  -25.8800  -35.0260   23.4880 C   0  0  0  0  0  0  0  0  0  0  0  0
  -26.5830  -34.9550   22.4760 O   0  0  0  0  0  0  0  0  0  0  0  0
  -24.9250  -34.0840   25.0030 H   0  0  0  0  0  0  0  0  0  0  0  0
  -24.1450  -36.8010   23.0910 C   0  0  0  0  0  1  0  0  0  0  0  0
  -25.3510  -36.3960   23.9530 C   0  0  0  0  0  3  0  0  0  0  0  0
  -27.4230  -37.2940   24.9160 C   0  0  0  0  0  1  0  0  0  0  0  0
  -26.3710  -37.4650   23.9160 N   0  0  0  0  0  0  0  0  0  0  0  0
  -25.9440  -38.3760   24.0580 H   0  0  0  0  0  0  0  0  0  0  0  0
  -26.4240  -31.7940   25.1360 C   0  0  1  0  0  0  0  0  0  0  0  0
  -25.3260  -31.4760   26.1800 C   0  0  0  0  0  1  0  0  0  0  0  0
  -27.0800  -30.4570   24.7190 C   0  0  0  0  0  1  0  0  0  0  0  0
  -27.5240  -32.6260   25.8370 C   0  0  0  0  0  1  0  0  0  0  0  0
  2  3  1  0
  3 51  1  0
  3  1  2  0
  4  1  1  0
  4  7  1  0
  5  2  2  0
  5  6  1  0
  6  4  2  0
  8  5  1  0
  9  6  1  0
  9 11  1  0
 10  9  1  0
 12 21  1  0
 12 11  1  0
 13 19  1  0
 13 21  1  0
 14 19  1  0
 15 16  1  0
 15 14  1  0
 17 16  1  0
 17 26  1  0
 17 18  1  0
 19 18  1  0
 20 13  2  0
 21 22  1  0
 23 24  2  0
 24 43  1  0
 25 24  1  0
 25 28  1  0
 26 27  1  0
 26 23  1  0
 27 25  2  0
 28 29  1  0
 29 30  2  0
 31 34  1  0
 31 30  1  0
 32 31  2  0
 33 32  1  0
 33 28  2  0
 34 35  1  0
 35 40  2  0
 35 36  1  0
 36 37  2  0
 37 38  1  0
 38 42  1  0
 39 38  2  0
 40 39  1  0
 41 40  1  0
 43 44  1  0
 44 47  1  0
 44 46  1  0
 45 43  2  0
 48 49  1  0
 48 23  1  0
 50 48  1  0
 51 56  1  0
 52 55  1  0
 52 51  1  0
 52 54  1  0
 53 52  1  0
 56 57  1  0
 57 59  1  0
 58 69  2  0
 59 64  1  0
 60 68  1  0
 60 70  1  0
 61 67  1  0
 61 63  1  0
 62 68  1  0
 63 62  1  0
 64 63  2  0
 65 66  1  0
 65 59  2  0
 66 61  2  0
 67 60  1  0
 68 58  1  0
 70 72  2  0
 71 70  1  0
 73 71  1  0
 74 83  2  0
 74 79  1  0
 75 71  1  0
 75 79  1  0
 76 75  1  0
 77 78  1  0
 77 76  1  0
 78 74  1  0
 79 80  2  0
 80 81  1  0
 82 81  2  0
 83 82  1  0
 84 58  1  0
 84 85  1  0
 84 94  1  0
 85 88  1  0
 86 90  1  0
 86 85  1  0
 87 86  2  0
 90 89  1  0
 92 90  1  0
 92 93  1  0
 92 91  1  0
 94 97  1  1
 94 95  1  0
 96 94  1  0
M  ISO  4  13 100  21 100  56 101  57 101
M  END
>  <TORSDO>  (15) 
F 22

>  <SCORE>  (15) 
-10.806

>  <name>  (15) 
14

>  <ligand_id>  (15) 
14

>  <original_smiles>  (15) 
[H]c1c([H])c([H])c2c(c1[H])C([H])([H])C([H])([H])C([H])([H])C2([H])N([H])C(=O)C1([H])N(C(=O)C([H])(N([H])C(=O)C([H])(N([H])C([H])([H])[H])C([H])([H])[H])C(C([H])([H])[H])(C([H])([H])[H])C([H])([H])[H])C([H])([H])c2c([H])c(OC([H])([H])C([H])(c3c([H])c(C([H])([H])[H])c(N([H])C([H])([H])C([H])([H])N([H])C(=O)N4C([H])([H])C([H])([H])C([H])([H])C([H])(n5nc(-c6c([H])c([H])c(Oc7c([H])c([H])c(F)c([H])c7F)c([H])c6[H])c(C(=O)N([H])[H])c5N([H])[H])C4([H])[H])c(C([H])([H])[H])c3[H])[N+]([H])([H])[H])c([H])c([H])c2C1([H])[H]

>  <smiles>  (15) 
[H]c1c([H])c([H])c2c(c1[H])C([H])([H])C([H])([H])C([H])([H])C2([H])N([H])C(=O)C1([H])N(C(=O)C([H])(N([H])C(=O)C([H])(N([H])C([H])([H])[H])C([H])([H])[H])C(C([H])([H])[H])(C([H])([H])[H])C([H])([H])[H])C([H])([H])c2c([H])c(OC([H])([H])C([H])(c3c([H])c(C([H])([H])[H])c(N([H])C([H])([H])C([H])([H])N([H])C(=O)N4C([H])([H])C([H])([H])C([H])([H])C([H])(n5nc(-c6c([H])c([H])c(Oc7c([H])c([H])c(F)c([H])c7F)c([H])c6[H])c(C(=O)N([H])[H])c5N([H])[H])C4([H])[H])c(C([H])([H])[H])c3[H])[N+]([H])([H])[H])c([H])c([H])c2C1([H])[H]

$$$$
15:0:0
     RDKit          3D

 96104  0  0  1  0  0  0  0  0999 V2000
  -29.6010  -20.2540   20.2280 C   0  0  0  0  0  3  0  0  0  0  0  0
  -30.5700  -17.8380   19.7520 C   0  0  0  0  0  0  0  0  0  0  0  0
  -31.2060  -17.5170   18.6040 C   0  0  0  0  0  0  0  0  0  0  0  0
  -31.9050  -18.6550   17.9360 C   0  0  0  0  0  2  0  0  0  0  0  0
  -31.6250  -19.7800   18.9260 C   0  0  0  0  0  2  0  0  0  0  0  0
  -30.6680  -19.2550   19.9130 N   0  0  0  0  0  0  0  0  0  0  0  0
  -30.5890  -14.5720   20.2890 C   0  0  0  0  0  0  0  0  0  0  0  0
  -30.3540  -12.3720   19.1840 C   0  0  0  0  0  2  0  0  0  0  0  0
  -29.3920  -12.5520   17.9870 C   0  0  0  0  0  2  0  0  0  0  0  0
  -27.9240  -12.3970   18.4340 C   0  0  0  0  0  2  0  0  0  0  0  0
  -27.5900  -13.2300   19.7000 C   0  0  0  0  0  3  0  0  0  0  0  0
  -28.6640  -13.0190   20.7940 C   0  0  0  0  0  2  0  0  0  0  0  0
  -29.9730  -13.3550   20.2100 N   0  0  0  0  0  0  0  0  0  0  0  0
  -31.7480  -14.7310   19.9080 O   0  0  0  0  0  0  0  0  0  0  0  0
  -29.7620  -16.9550   20.6580 C   0  0  0  0  0  0  0  0  0  0  0  0
  -29.7570  -15.5850   20.6440 N   0  0  0  0  0  0  0  0  0  0  0  0
  -28.9710  -17.4540   21.4610 O   0  0  0  0  0  0  0  0  0  0  0  0
  -28.9400  -15.2270   21.1050 H   0  0  0  0  0  0  0  0  0  0  0  0
  -25.1970  -13.8270   20.4320 C   0  0  0  0  0  0  0  0  0  0  0  0
  -24.1380  -13.0500   20.8140 C   0  0  0  0  0  0  0  0  0  0  0  0
  -24.6070  -11.7000   20.7880 C   0  0  0  0  0  0  0  0  0  0  0  0
  -26.2460  -12.9490   20.1950 N   0  0  0  0  0  0  0  0  0  0  0  0
  -25.8950  -11.6670   20.4670 N   0  0  0  0  0  0  0  0  0  0  0  0
  -23.8910  -10.4360   20.9890 C   0  0  0  0  0  0  0  0  0  0  0  0
  -24.3360   -9.4740   21.9220 C   0  0  0  0  0  3  0  0  0  0  0  0
  -23.6180   -8.2730   22.1110 C   0  0  0  0  0  3  0  0  0  0  0  0
  -22.4390   -8.0270   21.3670 C   0  0  0  0  0  0  0  0  0  0  0  0
  -22.0120   -8.9780   20.4240 C   0  0  0  0  0  3  0  0  0  0  0  0
  -22.7320  -10.1700   20.2330 C   0  0  0  0  0  3  0  0  0  0  0  0
  -21.6910   -6.8790   21.4660 O   0  0  0  0  0  0  0  0  0  0  0  0
  -21.6570   -6.1400   22.6210 C   0  0  0  0  0  0  0  0  0  0  0  0
  -21.2280   -6.6940   23.8470 C   0  0  0  0  0  3  0  0  0  0  0  0
  -21.1410   -5.8810   24.9950 C   0  0  0  0  0  3  0  0  0  0  0  0
  -21.4720   -4.5160   24.9180 C   0  0  0  0  0  0  0  0  0  0  0  0
  -21.8940   -3.9600   23.6970 C   0  0  0  0  0  3  0  0  0  0  0  0
  -21.9840   -4.7700   22.5520 C   0  0  0  0  0  0  0  0  0  0  0  0
  -22.3700   -4.2250   21.3740 F   0  0  0  0  0  0  0  0  0  0  0  0
  -21.3820   -3.7320   26.0190 F   0  0  0  0  0  0  0  0  0  0  0  0
  -22.7410  -13.5210   21.0960 C   0  0  0  0  0  0  0  0  0  0  0  0
  -22.0270  -12.8280   21.9760 N   0  0  0  0  0  0  0  0  0  0  0  0
  -22.2920  -14.5410   20.5750 O   0  0  0  0  0  0  0  0  0  0  0  0
  -22.4030  -12.0030   22.4210 H   0  0  0  0  0  0  0  0  0  0  0  0
  -21.0910  -13.1270   22.2100 H   0  0  0  0  0  0  0  0  0  0  0  0
  -25.3520  -15.1970   20.2470 N   0  0  0  0  0  0  0  0  0  0  0  0
  -24.5830  -15.8470   20.3700 H   0  0  0  0  0  0  0  0  0  0  0  0
  -26.1960  -15.6450   19.9100 H   0  0  0  0  0  0  0  0  0  0  0  0
  -31.3240  -16.3840   17.9010 O   0  0  0  0  0  0  0  0  0  0  0  0
  -31.2400  -15.6550   18.5100 H   0  0  0  0  0  0  0  0  0  0  0  0
  -30.1030  -21.6840   20.6910 C   0  0  0  0  0  3  0  0  0  0  0  0
  -29.0640  -22.7690   20.7060 N   0  0  0  0  0  4  0  0  0  0  0  0
  -29.3790  -22.8920   19.7550 H   0  0  0  0  0  0  0  0  0  0  0  0
  -29.5310  -22.8370   21.5980 H   0  0  0  0  0  0  0  0  0  0  0  0
  -29.3650  -24.6320   22.3320 C   0  0  0  0  0  1  0  0  0  0  0  0
  -29.3120  -24.2530   20.8380 C   0  0  0  0  0  3  0  0  0  0  0  0
  -28.2350  -25.1370   20.1140 C   0  0  0  0  0  2  0  0  0  0  0  0
  -28.4000  -26.5840   20.2610 O   0  0  0  0  0  0  0  0  0  0  0  0
  -24.6110  -31.8740   23.2380 C   0  0  0  0  0  0  0  0  0  0  0  0
  -27.2580  -27.3790   20.1890 C   0  0  0  0  0  0  0  0  0  0  0  0
  -23.4190  -30.4820   21.5800 C   0  0  0  0  0  3  0  0  0  0  0  0
  -24.8820  -28.9460   20.1610 C   0  0  0  0  0  0  0  0  0  0  0  0
  -25.9530  -30.8180   21.4180 C   0  0  0  0  0  2  0  0  0  0  0  0
  -26.0400  -29.4480   20.7690 C   0  0  0  0  0  0  0  0  0  0  0  0
  -27.2300  -28.6740   20.7760 C   0  0  0  0  0  3  0  0  0  0  0  0
  -26.0810  -26.9210   19.5490 C   0  0  0  0  0  3  0  0  0  0  0  0
  -24.9030  -27.6860   19.5430 C   0  0  0  0  0  3  0  0  0  0  0  0
  -23.6420  -29.8120   20.1990 C   0  0  0  0  0  2  0  0  0  0  0  0
  -24.6790  -31.0750   22.1350 N   0  0  0  0  0  0  0  0  0  0  0  0
  -23.5250  -32.1480   23.7670 O   0  0  0  0  0  0  0  0  0  0  0  0
  -22.7530  -29.4600   22.5300 C   0  0  0  0  0  0  0  0  0  0  0  0
  -21.4300  -29.2770   22.3880 N   0  0  0  0  0  0  0  0  0  0  0  0
  -23.4250  -28.8340   23.3550 O   0  0  0  0  0  0  0  0  0  0  0  0
  -20.9470  -29.8340   21.6970 H   0  0  0  0  0  0  0  0  0  0  0  0
  -18.0510  -28.0790   22.8410 C   0  0  0  0  0  0  0  0  0  0  0  0
  -20.6040  -28.3390   23.1480 C   0  0  0  0  0  3  0  0  0  0  0  0
  -20.7160  -26.9080   22.5720 C   0  0  0  0  0  2  0  0  0  0  0  0
  -19.6290  -26.5840   21.5420 C   0  0  0  0  0  2  0  0  0  0  0  0
  -18.2390  -26.7290   22.1680 C   0  0  0  0  0  2  0  0  0  0  0  0
  -19.1630  -28.8410   23.2870 C   0  0  0  0  0  0  0  0  0  0  0  0
  -18.9350  -30.1050   23.8740 C   0  0  0  0  0  3  0  0  0  0  0  0
  -17.6290  -30.6050   24.0240 C   0  0  0  0  0  3  0  0  0  0  0  0
  -16.5310  -29.8390   23.5960 C   0  0  0  0  0  3  0  0  0  0  0  0
  -16.7430  -28.5780   23.0090 C   0  0  0  0  0  3  0  0  0  0  0  0
  -25.8930  -32.5020   23.8710 C   0  0  0  0  0  3  0  0  0  0  0  0
  -25.5840  -33.9010   24.1970 N   0  0  0  0  0  0  0  0  0  0  0  0
  -25.9150  -34.9500   23.4320 C   0  0  0  0  0  0  0  0  0  0  0  0
  -26.5810  -34.8430   22.4000 O   0  0  0  0  0  0  0  0  0  0  0  0
  -24.9890  -34.0570   24.9970 H   0  0  0  0  0  0  0  0  0  0  0  0
  -24.1800  -36.7400   23.0860 C   0  0  0  0  0  1  0  0  0  0  0  0
  -25.4290  -36.3410   23.8870 C   0  0  0  0  0  3  0  0  0  0  0  0
  -27.5670  -37.2380   24.6950 C   0  0  0  0  0  1  0  0  0  0  0  0
  -26.4580  -37.3950   23.7590 N   0  0  0  0  0  0  0  0  0  0  0  0
  -26.0490  -38.3150   23.9020 H   0  0  0  0  0  0  0  0  0  0  0  0
  -26.3960  -31.7290   25.1530 C   0  0  1  0  0  0  0  0  0  0  0  0
  -25.2930  -31.4940   26.2100 C   0  0  0  0  0  1  0  0  0  0  0  0
  -26.9820  -30.3500   24.7690 C   0  0  0  0  0  1  0  0  0  0  0  0
  -27.5410  -32.5220   25.8260 C   0  0  0  0  0  1  0  0  0  0  0  0
  1 49  2  0
  2  6  1  0
  2 15  1  0
  3  2  2  0
  4  3  1  0
  4  5  1  0
  5  6  1  0
  6  1  1  0
  7 16  1  0
  8 13  1  0
  9 10  1  0
  9  8  1  0
 11 10  1  0
 11 22  1  0
 11 12  1  0
 13  7  1  0
 13 12  1  0
 14  7  2  0
 15 17  2  0
 16 15  1  0
 16 18  1  0
 19 20  2  0
 20 39  1  0
 21 20  1  0
 21 24  1  0
 22 19  1  0
 22 23  1  0
 23 21  2  0
 24 25  1  0
 25 26  2  0
 27 30  1  0
 27 26  1  0
 28 27  2  0
 29 28  1  0
 29 24  2  0
 30 31  1  0
 31 32  1  0
 32 33  2  0
 34 33  1  0
 34 38  1  0
 35 34  2  0
 36 31  2  0
 36 35  1  0
 37 36  1  0
 39 40  1  0
 40 43  1  0
 40 42  1  0
 41 39  2  0
 44 45  1  0
 44 19  1  0
 46 44  1  0
 47 48  1  0
 47  3  1  0
 49 50  1  0
 50 54  1  0
 50 52  1  0
 51 50  1  0
 54 53  1  0
 55 56  1  0
 55 54  1  0
 57 68  2  0
 58 56  1  0
 58 63  1  0
 59 67  1  0
 59 69  1  0
 60 66  1  0
 60 62  1  0
 61 67  1  0
 62 63  2  0
 62 61  1  0
 64 58  2  0
 65 64  1  0
 65 60  2  0
 66 59  1  0
 67 57  1  0
 69 71  2  0
 70 69  1  0
 72 70  1  0
 73 82  2  0
 73 78  1  0
 74 70  1  0
 74 78  1  0
 75 74  1  0
 76 77  1  0
 76 75  1  0
 77 73  1  0
 78 79  2  0
 79 80  1  0
 81 80  2  0
 82 81  1  0
 83 57  1  0
 83 84  1  0
 83 93  1  0
 84 87  1  0
 85 89  1  0
 85 84  1  0
 86 85  2  0
 89 88  1  0
 91 89  1  0
 91 92  1  0
 91 90  1  0
 93 96  1  1
 93 94  1  0
 95 93  1  0
M  ISO  4   7 100  16 100  55 101  56 101
M  END
>  <TORSDO>  (16) 
F 22

>  <SCORE>  (16) 
-13.447

>  <name>  (16) 
15

>  <ligand_id>  (16) 
15

>  <original_smiles>  (16) 
[H]OC1=C(C(=O)N([H])C(=O)N2C([H])([H])C([H])([H])C([H])([H])C([H])(n3nc(-c4c([H])c([H])c(Oc5c([H])c([H])c(F)c([H])c5F)c([H])c4[H])c(C(=O)N([H])[H])c3N([H])[H])C2([H])[H])N(C([H])([H])C([H])([H])[N+]([H])([H])C([H])(C([H])([H])[H])C([H])([H])Oc2c([H])c([H])c3c(c2[H])C([H])([H])N(C(=O)C([H])(N([H])C(=O)C([H])(N([H])C([H])([H])[H])C([H])([H])[H])C(C([H])([H])[H])(C([H])([H])[H])C([H])([H])[H])C([H])(C(=O)N([H])C2([H])c4c([H])c([H])c([H])c([H])c4C([H])([H])C([H])([H])C2([H])[H])C3([H])[H])C([H])([H])C1([H])[H]

>  <smiles>  (16) 
[H]OC1=C(C(=O)N([H])C(=O)N2C([H])([H])C([H])([H])C([H])([H])C([H])(n3nc(-c4c([H])c([H])c(Oc5c([H])c([H])c(F)c([H])c5F)c([H])c4[H])c(C(=O)N([H])[H])c3N([H])[H])C2([H])[H])N(C([H])([H])C([H])([H])[N+]([H])([H])C([H])(C([H])([H])[H])C([H])([H])Oc2c([H])c([H])c3c(c2[H])C([H])([H])N(C(=O)C([H])(N([H])C(=O)C([H])(N([H])C([H])([H])[H])C([H])([H])[H])C(C([H])([H])[H])(C([H])([H])[H])C([H])([H])[H])C([H])(C(=O)N([H])C2([H])c4c([H])c([H])c([H])c([H])c4C([H])([H])C([H])([H])C2([H])[H])C3([H])[H])C([H])([H])C1([H])[H]

$$$$
16:0:0
     RDKit          3D

 94102  0  0  1  0  0  0  0  0999 V2000
  -29.7850  -21.9470   23.6000 C   0  0  0  0  0  2  0  0  0  0  0  0
  -30.8930  -18.1940   23.3540 C   0  0  0  0  0  2  0  0  0  0  0  0
  -30.1200  -18.9580   21.0500 C   0  0  0  0  0  2  0  0  0  0  0  0
  -30.2640  -19.4670   23.9490 C   0  0  0  0  0  2  0  0  0  0  0  0
  -29.5020  -20.2080   21.6940 C   0  0  0  0  0  2  0  0  0  0  0  0
  -30.2370  -17.7580   22.0190 C   0  0  0  0  0  3  0  0  0  0  0  0
  -30.2960  -20.6400   22.9440 C   0  0  0  0  0  3  0  0  0  0  0  0
  -30.8610  -14.6850   19.9810 C   0  0  0  0  0  0  0  0  0  0  0  0
  -30.3600  -12.6330   18.7090 C   0  0  0  0  0  2  0  0  0  0  0  0
  -29.3010  -12.8880   17.6210 C   0  0  0  0  0  2  0  0  0  0  0  0
  -27.8850  -12.7120   18.2010 C   0  0  0  0  0  2  0  0  0  0  0  0
  -27.6810  -13.4940   19.5260 C   0  0  0  0  0  3  0  0  0  0  0  0
  -28.8460  -13.2410   20.5090 C   0  0  0  0  0  2  0  0  0  0  0  0
  -30.1080  -13.5640   19.8200 N   0  0  0  0  0  0  0  0  0  0  0  0
  -31.8460  -14.9070   19.2690 O   0  0  0  0  0  0  0  0  0  0  0  0
  -31.0710  -16.6630   21.3280 C   0  0  0  0  0  0  0  0  0  0  0  0
  -30.4280  -15.5540   20.9120 N   0  0  0  0  0  0  0  0  0  0  0  0
  -32.2810  -16.8680   21.1690 O   0  0  0  0  0  0  0  0  0  0  0  0
  -29.5050  -15.3910   21.2790 H   0  0  0  0  0  0  0  0  0  0  0  0
  -25.3800  -14.0410   20.5440 C   0  0  0  0  0  0  0  0  0  0  0  0
  -24.3540  -13.2390   20.9690 C   0  0  0  0  0  0  0  0  0  0  0  0
  -24.7990  -11.8950   20.7810 C   0  0  0  0  0  0  0  0  0  0  0  0
  -26.3870  -13.1820   20.1300 N   0  0  0  0  0  0  0  0  0  0  0  0
  -26.0460  -11.8830   20.3290 N   0  0  0  0  0  0  0  0  0  0  0  0
  -24.0910  -10.6210   20.9540 C   0  0  0  0  0  0  0  0  0  0  0  0
  -24.5730   -9.6190   21.8260 C   0  0  0  0  0  3  0  0  0  0  0  0
  -23.8650   -8.4100   21.9880 C   0  0  0  0  0  3  0  0  0  0  0  0
  -22.6600   -8.1920   21.2790 C   0  0  0  0  0  0  0  0  0  0  0  0
  -22.1960   -9.1820   20.3950 C   0  0  0  0  0  3  0  0  0  0  0  0
  -22.9050  -10.3840   20.2310 C   0  0  0  0  0  3  0  0  0  0  0  0
  -21.9180   -7.0380   21.3550 O   0  0  0  0  0  0  0  0  0  0  0  0
  -21.8570   -6.2960   22.5070 C   0  0  0  0  0  0  0  0  0  0  0  0
  -21.4020   -6.8470   23.7250 C   0  0  0  0  0  3  0  0  0  0  0  0
  -21.2900   -6.0300   24.8680 C   0  0  0  0  0  3  0  0  0  0  0  0
  -21.6210   -4.6650   24.7940 C   0  0  0  0  0  0  0  0  0  0  0  0
  -22.0690   -4.1130   23.5810 C   0  0  0  0  0  3  0  0  0  0  0  0
  -22.1830   -4.9270   22.4400 C   0  0  0  0  0  0  0  0  0  0  0  0
  -22.5950   -4.3860   21.2680 F   0  0  0  0  0  0  0  0  0  0  0  0
  -21.5060   -3.8780   25.8890 F   0  0  0  0  0  0  0  0  0  0  0  0
  -22.9990  -13.6910   21.4320 C   0  0  0  0  0  0  0  0  0  0  0  0
  -22.3770  -12.9370   22.3320 N   0  0  0  0  0  0  0  0  0  0  0  0
  -22.5060  -14.7460   21.0360 O   0  0  0  0  0  0  0  0  0  0  0  0
  -22.7910  -12.0820   22.6730 H   0  0  0  0  0  0  0  0  0  0  0  0
  -21.4720  -13.2160   22.6820 H   0  0  0  0  0  0  0  0  0  0  0  0
  -25.5340  -15.4210   20.4540 N   0  0  0  0  0  0  0  0  0  0  0  0
  -24.7880  -16.0650   20.6930 H   0  0  0  0  0  0  0  0  0  0  0  0
  -26.3440  -15.8830   20.0590 H   0  0  0  0  0  0  0  0  0  0  0  0
  -30.1870  -23.1880   22.8940 N   0  0  0  0  0  4  0  0  0  0  0  0
  -31.1310  -23.1050   22.5550 H   0  0  0  0  0  0  0  0  0  0  0  0
  -30.1910  -23.9130   23.5930 H   0  0  0  0  0  0  0  0  0  0  0  0
  -29.2820  -23.6380   21.8110 C   0  0  0  0  0  2  0  0  0  0  0  0
  -29.5090  -25.1120   21.4220 C   0  0  0  0  0  2  0  0  0  0  0  0
  -28.6060  -25.5250   20.2500 C   0  0  0  0  0  2  0  0  0  0  0  0
  -28.6590  -26.9400   20.0620 O   0  0  0  0  0  0  0  0  0  0  0  0
  -24.5480  -31.7850   23.2040 C   0  0  0  0  0  0  0  0  0  0  0  0
  -27.4480  -27.5930   20.0370 C   0  0  0  0  0  0  0  0  0  0  0  0
  -23.4320  -30.3780   21.5020 C   0  0  0  0  0  3  0  0  0  0  0  0
  -24.9790  -28.9620   20.0510 C   0  0  0  0  0  0  0  0  0  0  0  0
  -25.9360  -30.8740   21.3480 C   0  0  0  0  0  2  0  0  0  0  0  0
  -26.0980  -29.5300   20.6700 C   0  0  0  0  0  0  0  0  0  0  0  0
  -27.3370  -28.8540   20.6580 C   0  0  0  0  0  3  0  0  0  0  0  0
  -26.3140  -27.0400   19.3980 C   0  0  0  0  0  3  0  0  0  0  0  0
  -25.0800  -27.7140   19.4110 C   0  0  0  0  0  3  0  0  0  0  0  0
  -23.6900  -29.7510   20.1050 C   0  0  0  0  0  2  0  0  0  0  0  0
  -24.6550  -31.0240   22.0780 N   0  0  0  0  0  0  0  0  0  0  0  0
  -23.4490  -31.9870   23.7370 O   0  0  0  0  0  0  0  0  0  0  0  0
  -22.8230  -29.2950   22.4230 C   0  0  0  0  0  0  0  0  0  0  0  0
  -21.5140  -29.0430   22.2600 N   0  0  0  0  0  0  0  0  0  0  0  0
  -23.5240  -28.6850   23.2330 O   0  0  0  0  0  0  0  0  0  0  0  0
  -21.0090  -29.5900   21.5780 H   0  0  0  0  0  0  0  0  0  0  0  0
  -18.2000  -27.6590   22.6470 C   0  0  0  0  0  0  0  0  0  0  0  0
  -20.7330  -28.0430   22.9870 C   0  0  0  0  0  3  0  0  0  0  0  0
  -20.9260  -26.6360   22.3760 C   0  0  0  0  0  2  0  0  0  0  0  0
  -19.8660  -26.2830   21.3280 C   0  0  0  0  0  2  0  0  0  0  0  0
  -18.4630  -26.3390   21.9420 C   0  0  0  0  0  2  0  0  0  0  0  0
  -19.2660  -28.4660   23.1220 C   0  0  0  0  0  0  0  0  0  0  0  0
  -18.9690  -29.7020   23.7370 C   0  0  0  0  0  3  0  0  0  0  0  0
  -17.6360  -30.1300   23.8840 C   0  0  0  0  0  3  0  0  0  0  0  0
  -16.5830  -29.3180   23.4270 C   0  0  0  0  0  3  0  0  0  0  0  0
  -16.8660  -28.0850   22.8130 C   0  0  0  0  0  3  0  0  0  0  0  0
  -25.7950  -32.4560   23.8600 C   0  0  0  0  0  3  0  0  0  0  0  0
  -25.4350  -33.8440   24.1780 N   0  0  0  0  0  0  0  0  0  0  0  0
  -25.7540  -34.9030   23.4220 C   0  0  0  0  0  0  0  0  0  0  0  0
  -26.4550  -34.8170   22.4100 O   0  0  0  0  0  0  0  0  0  0  0  0
  -24.8180  -33.9820   24.9650 H   0  0  0  0  0  0  0  0  0  0  0  0
  -23.9720  -36.6280   23.0180 C   0  0  0  0  0  1  0  0  0  0  0  0
  -25.2090  -36.2760   23.8590 C   0  0  0  0  0  3  0  0  0  0  0  0
  -27.2930  -37.2420   24.7270 C   0  0  0  0  0  1  0  0  0  0  0  0
  -26.2070  -37.3640   23.7590 N   0  0  0  0  0  0  0  0  0  0  0  0
  -25.7660  -38.2700   23.8900 H   0  0  0  0  0  0  0  0  0  0  0  0
  -26.3010  -31.7010   25.1490 C   0  0  1  0  0  0  0  0  0  0  0  0
  -25.1860  -31.4160   26.1810 C   0  0  0  0  0  1  0  0  0  0  0  0
  -26.9500  -30.3500   24.7670 C   0  0  0  0  0  1  0  0  0  0  0  0
  -27.3990  -32.5360   25.8500 C   0  0  0  0  0  1  0  0  0  0  0  0
  2  4  1  0
  3  5  1  0
  3  6  1  0
  5  7  1  0
  6 16  1  0
  6  2  1  0
  7  1  1  0
  7  4  1  0
  8 17  1  0
  9 14  1  0
 10 11  1  0
 10  9  1  0
 12 11  1  0
 12 23  1  0
 12 13  1  0
 14  8  1  0
 14 13  1  0
 15  8  2  0
 17 19  1  0
 17 16  1  0
 18 16  2  0
 20 21  2  0
 21 40  1  0
 22 25  1  0
 22 21  1  0
 23 24  1  0
 23 20  1  0
 24 22  2  0
 25 26  1  0
 26 27  2  0
 28 31  1  0
 28 27  1  0
 29 28  2  0
 30 29  1  0
 30 25  2  0
 31 32  1  0
 32 33  1  0
 33 34  2  0
 35 34  1  0
 35 39  1  0
 36 35  2  0
 37 32  2  0
 37 36  1  0
 38 37  1  0
 40 41  1  0
 41 43  1  0
 41 44  1  0
 42 40  2  0
 45 20  1  0
 45 46  1  0
 47 45  1  0
 48 50  1  0
 48  1  1  0
 49 48  1  0
 51 48  1  0
 52 51  1  0
 53 52  1  0
 54 53  1  0
 55 66  2  0
 56 54  1  0
 56 61  1  0
 57 65  1  0
 57 67  1  0
 58 64  1  0
 58 60  1  0
 59 65  1  0
 60 59  1  0
 61 60  2  0
 62 63  1  0
 62 56  2  0
 63 58  2  0
 64 57  1  0
 65 55  1  0
 67 69  2  0
 68 67  1  0
 70 68  1  0
 71 80  2  0
 71 76  1  0
 72 68  1  0
 72 76  1  0
 73 72  1  0
 74 75  1  0
 74 73  1  0
 75 71  1  0
 76 77  2  0
 77 78  1  0
 79 78  2  0
 80 79  1  0
 81 55  1  0
 81 82  1  0
 81 91  1  0
 82 85  1  0
 83 87  1  0
 83 82  1  0
 84 83  2  0
 87 86  1  0
 89 87  1  0
 89 90  1  0
 89 88  1  0
 91 94  1  1
 91 92  1  0
 93 91  1  0
M  ISO  4   8 100  17 100  53 101  54 101
M  END
>  <TORSDO>  (17) 
F 21

>  <SCORE>  (17) 
-11.229

>  <name>  (17) 
16

>  <ligand_id>  (17) 
16

>  <original_smiles>  (17) 
[H]c1c([H])c([H])c2c(c1[H])C([H])([H])C([H])([H])C([H])([H])C2([H])N([H])C(=O)C1([H])N(C(=O)C([H])(N([H])C(=O)C([H])(N([H])C([H])([H])[H])C([H])([H])[H])C(C([H])([H])[H])(C([H])([H])[H])C([H])([H])[H])C([H])([H])c2c([H])c(OC([H])([H])C([H])([H])C([H])([H])[N+]([H])([H])C([H])([H])C3([H])C([H])([H])C([H])([H])C([H])(C(=O)N([H])C(=O)N4C([H])([H])C([H])([H])C([H])([H])C([H])(n5nc(-c6c([H])c([H])c(Oc7c([H])c([H])c(F)c([H])c7F)c([H])c6[H])c(C(=O)N([H])[H])c5N([H])[H])C4([H])[H])C([H])([H])C3([H])[H])c([H])c([H])c2C1([H])[H]

>  <smiles>  (17) 
[H]c1c([H])c([H])c2c(c1[H])C([H])([H])C([H])([H])C([H])([H])C2([H])N([H])C(=O)C1([H])N(C(=O)C([H])(N([H])C(=O)C([H])(N([H])C([H])([H])[H])C([H])([H])[H])C(C([H])([H])[H])(C([H])([H])[H])C([H])([H])[H])C([H])([H])c2c([H])c(OC([H])([H])C([H])([H])C([H])([H])[N+]([H])([H])C([H])([H])C3([H])C([H])([H])C([H])([H])C([H])(C(=O)N([H])C(=O)N4C([H])([H])C([H])([H])C([H])([H])C([H])(n5nc(-c6c([H])c([H])c(Oc7c([H])c([H])c(F)c([H])c7F)c([H])c6[H])c(C(=O)N([H])[H])c5N([H])[H])C4([H])[H])C([H])([H])C3([H])[H])c([H])c([H])c2C1([H])[H]

$$$$
17:0:0
     RDKit          3D

 97 98  0  0  1  0  0  0  0  0999 V2000
  -27.6780  -14.1340   22.3540 C   0  0  0  0  0 15  0  0  0  0  0  0
  -27.8730  -11.8290   22.0060 C   0  0  0  0  0 15  0  0  0  0  0  0
  -27.9260  -14.8770   19.0450 C   0  0  0  0  0  2  0  0  0  0  0  0
  -27.8640  -15.6750   20.7980 C   0  0  0  0  0  1  0  0  0  0  0  0
  -27.8820  -11.2930   19.6730 C   0  0  0  0  0  1  0  0  0  0  0  0
  -28.2780  -13.0570   18.4570 C   0  0  0  0  0  2  0  0  0  0  0  0
  -28.3450  -17.6940   20.6510 C   0  0  0  0  0  1  0  0  0  0  0  0
  -28.2750  -20.9950   19.9930 C   0  0  0  0  0  2  0  0  0  0  0  0
  -27.8320  -19.4310   20.1210 N   0  0  0  0  0  0  0  0  0  0  0  0
  -29.4720  -21.1090   20.2710 O   0  0  0  0  0  1  0  0  0  0  0  0
  -26.8570  -19.3940   19.8460 H   0  0  0  0  0  0  0  0  0  0  0  0
  -27.5500  -22.7870   19.5610 C   0  0  0  0  0  1  0  0  0  0  0  0
  -28.0590  -24.5850   19.4980 O   0  0  0  0  0  0  0  0  0  0  0  0
  -24.7280  -31.0550   22.5140 C   0  0  0  0  0  0  0  0  0  0  0  0
  -27.2750  -25.9720   19.4260 C   0  0  0  0  0  0  0  0  0  0  0  0
  -23.6130  -29.6790   20.8180 C   0  0  0  0  0  3  0  0  0  0  0  0
  -25.1120  -28.1390   19.3370 C   0  0  0  0  0  0  0  0  0  0  0  0
  -26.1930  -29.8550   20.7480 C   0  0  0  0  0  2  0  0  0  0  0  0
  -26.2850  -28.4320   20.0380 C   0  0  0  0  0  0  0  0  0  0  0  0
  -27.3630  -27.3750   20.0510 C   0  0  0  0  0  3  0  0  0  0  0  0
  -26.1230  -25.9780   18.6110 C   0  0  0  0  0  3  0  0  0  0  0  0
  -25.0880  -26.9560   18.5860 C   0  0  0  0  0  3  0  0  0  0  0  0
  -23.8940  -29.0740   19.4130 C   0  0  0  0  0  2  0  0  0  0  0  0
  -24.8700  -30.2360   21.4120 N   0  0  0  0  0  0  0  0  0  0  0  0
  -23.6170  -31.2900   23.0220 O   0  0  0  0  0  0  0  0  0  0  0  0
  -22.9390  -28.6270   21.7410 C   0  0  0  0  0  0  0  0  0  0  0  0
  -21.6020  -28.4760   21.6690 N   0  0  0  0  0  0  0  0  0  0  0  0
  -23.6310  -27.9450   22.5030 O   0  0  0  0  0  0  0  0  0  0  0  0
  -21.0880  -29.0750   21.0400 H   0  0  0  0  0  0  0  0  0  0  0  0
  -18.2450  -27.2220   22.2810 C   0  0  0  0  0  0  0  0  0  0  0  0
  -20.8190  -27.4770   22.4080 C   0  0  0  0  0  3  0  0  0  0  0  0
  -20.8830  -26.0970   21.7140 C   0  0  0  0  0  2  0  0  0  0  0  0
  -19.7240  -25.8580   20.7420 C   0  0  0  0  0  2  0  0  0  0  0  0
  -18.3810  -25.9390   21.4740 C   0  0  0  0  0  2  0  0  0  0  0  0
  -19.3880  -27.9520   22.7050 C   0  0  0  0  0  0  0  0  0  0  0  0
  -19.2050  -29.1500   23.4280 C   0  0  0  0  0  3  0  0  0  0  0  0
  -17.9130  -29.6240   23.7230 C   0  0  0  0  0  3  0  0  0  0  0  0
  -16.7870  -28.8930   23.3100 C   0  0  0  0  0  3  0  0  0  0  0  0
  -16.9530  -27.6920   22.5970 C   0  0  0  0  0  3  0  0  0  0  0  0
  -25.9490  -31.7530   23.1880 C   0  0  0  0  0  3  0  0  0  0  0  0
  -25.5070  -33.0650   23.7040 N   0  0  0  0  0  0  0  0  0  0  0  0
  -25.7660  -34.2530   23.1390 C   0  0  0  0  0  0  0  0  0  0  0  0
  -26.4580  -34.3640   22.1240 O   0  0  0  0  0  0  0  0  0  0  0  0
  -24.8940  -33.0460   24.5060 H   0  0  0  0  0  0  0  0  0  0  0  0
  -23.9160  -35.9650   23.0310 C   0  0  0  0  0  1  0  0  0  0  0  0
  -25.1710  -35.5180   23.7990 C   0  0  0  0  0  3  0  0  0  0  0  0
  -27.2080  -36.4240   24.8290 C   0  0  0  0  0  1  0  0  0  0  0  0
  -26.1240  -36.6470   23.8770 N   0  0  0  0  0  0  0  0  0  0  0  0
  -25.6470  -37.5070   24.1310 H   0  0  0  0  0  0  0  0  0  0  0  0
  -26.5660  -30.9050   24.3700 C   0  0  1  0  0  0  0  0  0  0  0  0
  -25.5280  -30.4650   25.4310 C   0  0  0  0  0  1  0  0  0  0  0  0
  -27.2590  -29.6290   23.8420 C   0  0  0  0  0  1  0  0  0  0  0  0
  -27.6600  -31.7290   25.0900 C   0  0  0  0  0  1  0  0  0  0  0  0
  -29.9370  -13.6020   18.1370 C   0  0  0  0  0  2  0  0  0  0  0  0
  -31.7400  -13.9120   20.4700 C   0  0  0  0  0  0  0  0  0  0  0  0
  -31.8260  -11.6120   21.0420 C   0  0  0  0  0  2  0  0  0  0  0  0
  -31.3300  -11.3000   19.6830 C   0  0  0  0  0  2  0  0  0  0  0  0
  -29.9300  -11.6350   19.9010 C   0  0  0  0  0  2  0  0  0  0  0  0
  -28.9950  -13.0510   20.5930 C   0  0  0  0  0  2  0  0  0  0  0  0
  -30.0180  -13.0160   21.8530 C   0  0  0  0  0  2  0  0  0  0  0  0
  -31.3230  -12.9500   21.3130 N   0  0  0  0  0  0  0  0  0  0  0  0
  -32.7880  -14.4180   20.8350 O   0  0  0  0  0  0  0  0  0  0  0  0
  -31.1070  -14.1490   19.1720 N   0  0  0  0  0  0  0  0  0  0  0  0
  -31.6130  -14.8980   18.7250 H   0  0  0  0  0  0  0  0  0  0  0  0
  -25.5950  -14.0220   20.5630 C   0  0  0  0  0  0  0  0  0  0  0  0
  -24.4650  -13.3080   20.9670 C   0  0  0  0  0  0  0  0  0  0  0  0
  -24.7290  -11.9760   21.1800 C   0  0  0  0  0  3  0  0  0  0  0  0
  -26.7480  -13.2320   20.4690 N   0  0  0  0  0  2  0  0  0  0  0  0
  -25.7800  -12.0900   20.5920 N   0  0  0  0  0  2  0  0  0  0  0  0
  -24.0600  -10.6270   21.2550 C   0  0  0  0  0  0  0  0  0  0  0  0
  -24.4710   -9.5740   22.1240 C   0  0  0  0  0  3  0  0  0  0  0  0
  -23.7070   -8.3820   22.2520 C   0  0  0  0  0  3  0  0  0  0  0  0
  -22.5310   -8.2060   21.4860 C   0  0  0  0  0  0  0  0  0  0  0  0
  -22.2040   -9.1810   20.5310 C   0  0  0  0  0  3  0  0  0  0  0  0
  -22.9590  -10.3640   20.4090 C   0  0  0  0  0  3  0  0  0  0  0  0
  -21.6880   -7.1170   21.5590 O   0  0  0  0  0  0  0  0  0  0  0  0
  -21.5730   -6.3480   22.6930 C   0  0  0  0  0  0  0  0  0  0  0  0
  -21.2520   -6.8980   23.9520 C   0  0  0  0  0  3  0  0  0  0  0  0
  -21.0850   -6.0530   25.0700 C   0  0  0  0  0  3  0  0  0  0  0  0
  -21.2310   -4.6590   24.9290 C   0  0  0  0  0  0  0  0  0  0  0  0
  -21.5340   -4.1080   23.6730 C   0  0  0  0  0  3  0  0  0  0  0  0
  -21.6950   -4.9510   22.5580 C   0  0  0  0  0  0  0  0  0  0  0  0
  -21.9640   -4.4120   21.3420 F   0  0  0  0  0  0  0  0  0  0  0  0
  -21.0710   -3.8450   25.9980 F   0  0  0  0  0  0  0  0  0  0  0  0
  -23.0960  -13.8010   20.9030 C   0  0  0  0  0  0  0  0  0  0  0  0
  -22.2270  -13.2250   21.7150 N   0  0  0  0  0  0  0  0  0  0  0  0
  -22.8070  -14.7060   20.1320 O   0  0  0  0  0  0  0  0  0  0  0  0
  -22.5060  -12.4830   22.3370 H   0  0  0  0  0  0  0  0  0  0  0  0
  -21.2610  -13.5330   21.7190 H   0  0  0  0  0  0  0  0  0  0  0  0
  -25.5440  -15.3250   20.1900 N   0  0  0  0  0  0  0  0  0  0  0  0
  -24.6590  -15.8030   20.0520 H   0  0  0  0  0  0  0  0  0  0  0  0
  -26.3400  -15.7830   19.7700 H   0  0  0  0  0  0  0  0  0  0  0  0
  -26.8690  -10.3680   18.8570 C   0  0  0  0  0  2  0  0  0  0  0  0
  -26.5270   -9.1020   19.5410 N   0  0  0  0  0  4  0  0  0  0  0  0
  -27.3490   -8.5560   19.7160 H   0  0  0  0  0  0  0  0  0  0  0  0
  -25.8990   -8.5600   18.9720 H   0  0  0  0  0  0  0  0  0  0  0  0
  -26.0760   -9.3030   20.4170 H   0  0  0  0  0  0  0  0  0  0  0  0
  3  4  1  0
  6  3  1  0
  8  9  1  0
  8 10  1  0
  9  7  1  0
 11  9  1  0
 13 12  1  0
 14 25  2  0
 15 13  1  0
 15 20  1  0
 16 24  1  0
 16 26  1  0
 17 23  1  0
 17 19  1  0
 18 24  1  0
 19 20  2  0
 19 18  1  0
 21 15  2  0
 22 21  1  0
 22 17  2  0
 23 16  1  0
 24 14  1  0
 26 28  2  0
 27 26  1  0
 29 27  1  0
 30 39  2  0
 30 35  1  0
 31 27  1  0
 31 35  1  0
 32 31  1  0
 33 34  1  0
 33 32  1  0
 34 30  1  0
 35 36  2  0
 36 37  1  0
 38 37  2  0
 39 38  1  0
 40 14  1  0
 40 41  1  0
 40 50  1  0
 41 44  1  0
 42 41  1  0
 42 46  1  0
 43 42  2  0
 46 45  1  0
 46 48  1  0
 48 49  1  0
 48 47  1  0
 50 53  1  1
 50 51  1  0
 52 50  1  0
 54  6  1  0
 54 63  1  0
 55 62  2  0
 55 61  1  0
 56 61  1  0
 57 58  1  0
 57 56  1  0
 58 59  1  0
 59 60  1  0
 61 60  1  0
 63 55  1  0
 64 63  1  0
 65 66  2  0
 66 67  1  0
 67 70  1  0
 68 65  1  0
 68 69  1  0
 69 67  1  0
 70 71  1  0
 71 72  2  0
 73 76  1  0
 73 72  1  0
 74 73  2  0
 75 74  1  0
 75 70  2  0
 76 77  1  0
 77 78  1  0
 78 79  2  0
 80 79  1  0
 80 84  1  0
 81 80  2  0
 82 77  2  0
 82 81  1  0
 83 82  1  0
 85 66  1  0
 85 86  1  0
 86 89  1  0
 86 88  1  0
 87 85  2  0
 90 65  1  0
 91 90  1  0
 92 90  1  0
 93 94  1  0
 93  5  1  0
 94 95  1  0
 94 97  1  0
 96 94  1  0
M  ISO  4  12 101  13 101  55 100  63 100
M  END
>  <TORSDO>  (18) 
F 22

>  <SCORE>  (18) 
-8.923

>  <name>  (18) 
17

>  <ligand_id>  (18) 
17

>  <original_smiles>  (18) 
[H]c1c([H])c([H])c2c(c1[H])C([H])([H])C([H])([H])C([H])([H])C2([H])N([H])C(=O)C1([H])N(C(=O)C([H])(N([H])C(=O)C([H])(N([H])C([H])([H])[H])C([H])([H])[H])C(C([H])([H])[H])(C([H])([H])[H])C([H])([H])[H])C([H])([H])c2c([H])c(OC([H])([H])C(=O)N([H])C([H])([H])C3([H])C([H])([H])C([H])([H])C([H])(C([H])([H])[N+]([H])([H])[H])C([H])(C([H])([H])N([H])C(=O)N4C([H])([H])C([H])([H])C([H])([H])C([H])(n5nc(-c6c([H])c([H])c(Oc7c([H])c([H])c(F)c([H])c7F)c([H])c6[H])c(C(=O)N([H])[H])c5N([H])[H])C4([H])[H])C3([H])[H])c([H])c([H])c2C1([H])[H]

>  <smiles>  (18) 
[H]c1c([H])c([H])c2c(c1[H])C([H])([H])C([H])([H])C([H])([H])C2([H])N([H])C(=O)C1([H])N(C(=O)C([H])(N([H])C(=O)C([H])(N([H])C([H])([H])[H])C([H])([H])[H])C(C([H])([H])[H])(C([H])([H])[H])C([H])([H])[H])C([H])([H])c2c([H])c(OC([H])([H])C(=O)N([H])C([H])([H])C3([H])C([H])([H])C([H])([H])C([H])(C([H])([H])[N+]([H])([H])[H])C([H])(C([H])([H])N([H])C(=O)N4C([H])([H])C([H])([H])C([H])([H])C([H])(n5nc(-c6c([H])c([H])c(Oc7c([H])c([H])c(F)c([H])c7F)c([H])c6[H])c(C(=O)N([H])[H])c5N([H])[H])C4([H])[H])C3([H])[H])c([H])c([H])c2C1([H])[H]

$$$$
18:0:0
     RDKit          3D

 97106  0  0  1  0  0  0  0  0999 V2000
  -30.3090  -20.4370   19.0190 C   0  0  0  0  0  0  0  0  0  0  0  0
  -32.0230  -23.6110   19.7420 C   0  0  0  0  0  2  0  0  0  0  0  0
  -32.0970  -22.0830   19.6690 C   0  0  0  0  0  2  0  0  0  0  0  0
  -29.7830  -22.7480   19.6600 C   0  0  0  0  0  2  0  0  0  0  0  0
  -30.6050  -23.9030   20.2330 C   0  0  0  0  0  3  0  0  0  0  0  0
  -30.7180  -21.6430   19.4570 N   0  0  0  0  0  0  0  0  0  0  0  0
  -29.1100  -20.1870   18.8470 O   0  0  0  0  0  0  0  0  0  0  0  0
  -31.9800  -19.5490   17.2920 C   0  0  0  0  0  2  0  0  0  0  0  0
  -31.5080  -18.1470   16.9470 C   0  0  0  0  0  2  0  0  0  0  0  0
  -31.3420  -19.3490   18.6750 C   0  0  0  0  0  3  0  0  0  0  0  0
  -30.6140  -18.2160   18.1050 N   0  0  2  0  0  4  0  0  0  0  0  0
  -29.7180  -18.6330   17.8740 H   0  0  0  0  0  0  0  0  0  0  0  0
  -30.3930  -16.9440   18.8520 C   0  0  0  0  0  3  0  0  0  0  0  0
  -27.7910  -17.1010   18.8540 C   0  0  0  0  0  1  0  0  0  0  0  0
  -29.0470  -16.3570   18.3710 C   0  0  0  0  0  2  0  0  0  0  0  0
  -30.5120  -17.0160   20.4130 C   0  0  0  0  0  2  0  0  0  0  0  0
  -30.9770  -14.6780   21.1460 C   0  0  0  0  0  0  0  0  0  0  0  0
  -30.8500  -12.3800   20.3100 C   0  0  0  0  0  2  0  0  0  0  0  0
  -30.0780  -12.3990   18.9750 C   0  0  0  0  0  2  0  0  0  0  0  0
  -28.5510  -12.3430   19.2080 C   0  0  0  0  0  2  0  0  0  0  0  0
  -28.0420  -13.2870   20.3370 C   0  0  0  0  0  3  0  0  0  0  0  0
  -28.9600  -13.2330   21.5810 C   0  0  0  0  0  2  0  0  0  0  0  0
  -30.3410  -13.4800   21.1390 N   0  0  0  0  0  0  0  0  0  0  0  0
  -32.1790  -14.8180   20.9110 O   0  0  0  0  0  0  0  0  0  0  0  0
  -30.1570  -15.7390   21.0630 N   0  0  0  0  0  0  0  0  0  0  0  0
  -29.1790  -15.5650   21.2390 H   0  0  0  0  0  0  0  0  0  0  0  0
  -25.5860  -13.9150   20.7880 C   0  0  0  0  0  0  0  0  0  0  0  0
  -24.4820  -13.1500   21.0510 C   0  0  0  0  0  0  0  0  0  0  0  0
  -24.9380  -11.7970   21.0830 C   0  0  0  0  0  0  0  0  0  0  0  0
  -26.6450  -13.0250   20.6750 N   0  0  0  0  0  0  0  0  0  0  0  0
  -26.2520  -11.7480   20.9100 N   0  0  0  0  0  0  0  0  0  0  0  0
  -24.1910  -10.5400   21.2090 C   0  0  0  0  0  0  0  0  0  0  0  0
  -24.5250   -9.5810   22.1900 C   0  0  0  0  0  3  0  0  0  0  0  0
  -23.7810   -8.3860   22.3010 C   0  0  0  0  0  3  0  0  0  0  0  0
  -22.6900   -8.1440   21.4330 C   0  0  0  0  0  0  0  0  0  0  0  0
  -22.3770   -9.0940   20.4440 C   0  0  0  0  0  3  0  0  0  0  0  0
  -23.1220  -10.2790   20.3290 C   0  0  0  0  0  3  0  0  0  0  0  0
  -21.9270   -7.0020   21.4540 O   0  0  0  0  0  0  0  0  0  0  0  0
  -21.7620   -6.2650   22.6010 C   0  0  0  0  0  0  0  0  0  0  0  0
  -21.2060   -6.8260   23.7730 C   0  0  0  0  0  3  0  0  0  0  0  0
  -20.9890   -6.0170   24.9050 C   0  0  0  0  0  3  0  0  0  0  0  0
  -21.3150   -4.6480   24.8660 C   0  0  0  0  0  0  0  0  0  0  0  0
  -21.8620   -4.0860   23.7000 C   0  0  0  0  0  3  0  0  0  0  0  0
  -22.0820   -4.8930   22.5700 C   0  0  0  0  0  0  0  0  0  0  0  0
  -22.5910   -4.3430   21.4410 F   0  0  0  0  0  0  0  0  0  0  0  0
  -21.0970   -3.8690   25.9520 F   0  0  0  0  0  0  0  0  0  0  0  0
  -23.0660  -13.6370   21.1730 C   0  0  0  0  0  0  0  0  0  0  0  0
  -22.2490  -12.9580   21.9710 N   0  0  0  0  0  0  0  0  0  0  0  0
  -22.6890  -14.6550   20.5940 O   0  0  0  0  0  0  0  0  0  0  0  0
  -22.5610  -12.1360   22.4670 H   0  0  0  0  0  0  0  0  0  0  0  0
  -21.2940  -13.2670   22.0900 H   0  0  0  0  0  0  0  0  0  0  0  0
  -25.7710  -15.2830   20.6150 N   0  0  0  0  0  0  0  0  0  0  0  0
  -24.9890  -15.9280   20.6200 H   0  0  0  0  0  0  0  0  0  0  0  0
  -26.6390  -15.7180   20.3370 H   0  0  0  0  0  0  0  0  0  0  0  0
  -30.0970  -25.3090   19.8600 C   0  0  0  0  0  2  0  0  0  0  0  0
  -28.5950  -25.5620   20.0960 C   0  0  0  0  0  2  0  0  0  0  0  0
  -28.4600  -26.9720   20.1620 O   0  0  0  0  0  0  0  0  0  0  0  0
  -24.5740  -31.9840   23.2930 C   0  0  0  0  0  0  0  0  0  0  0  0
  -27.2240  -27.5740   20.2000 C   0  0  0  0  0  0  0  0  0  0  0  0
  -23.3560  -30.5820   21.6550 C   0  0  0  0  0  3  0  0  0  0  0  0
  -24.8040  -29.0360   20.2320 C   0  0  0  0  0  0  0  0  0  0  0  0
  -25.8760  -30.9500   21.4400 C   0  0  0  0  0  2  0  0  0  0  0  0
  -25.9590  -29.5790   20.8060 C   0  0  0  0  0  0  0  0  0  0  0  0
  -27.1650  -28.8550   20.7870 C   0  0  0  0  0  3  0  0  0  0  0  0
  -26.0490  -27.0240   19.6370 C   0  0  0  0  0  3  0  0  0  0  0  0
  -24.8420  -27.7540   19.6490 C   0  0  0  0  0  3  0  0  0  0  0  0
  -23.5580  -29.8920   20.2770 C   0  0  0  0  0  2  0  0  0  0  0  0
  -24.6210  -31.1870   22.1880 N   0  0  0  0  0  0  0  0  0  0  0  0
  -23.4970  -32.2570   23.8410 O   0  0  0  0  0  0  0  0  0  0  0  0
  -22.7110  -29.5630   22.6200 C   0  0  0  0  0  0  0  0  0  0  0  0
  -21.3890  -29.3720   22.4880 N   0  0  0  0  0  0  0  0  0  0  0  0
  -23.3960  -28.9490   23.4430 O   0  0  0  0  0  0  0  0  0  0  0  0
  -20.9000  -29.9200   21.7940 H   0  0  0  0  0  0  0  0  0  0  0  0
  -18.0230  -28.1500   22.9580 C   0  0  0  0  0  0  0  0  0  0  0  0
  -20.5750  -28.4340   23.2570 C   0  0  0  0  0  3  0  0  0  0  0  0
  -20.6970  -26.9990   22.6940 C   0  0  0  0  0  2  0  0  0  0  0  0
  -19.6090  -26.6580   21.6700 C   0  0  0  0  0  2  0  0  0  0  0  0
  -18.2190  -26.7970   22.2970 C   0  0  0  0  0  2  0  0  0  0  0  0
  -19.1300  -28.9260   23.3940 C   0  0  0  0  0  0  0  0  0  0  0  0
  -18.8950  -30.1930   23.9700 C   0  0  0  0  0  3  0  0  0  0  0  0
  -17.5840  -30.6860   24.1160 C   0  0  0  0  0  3  0  0  0  0  0  0
  -16.4910  -29.9070   23.6960 C   0  0  0  0  0  3  0  0  0  0  0  0
  -16.7110  -28.6410   23.1240 C   0  0  0  0  0  3  0  0  0  0  0  0
  -25.8660  -32.6110   23.9060 C   0  0  0  0  0  3  0  0  0  0  0  0
  -25.5660  -34.0120   24.2310 N   0  0  0  0  0  0  0  0  0  0  0  0
  -25.9000  -35.0580   23.4640 C   0  0  0  0  0  0  0  0  0  0  0  0
  -26.5660  -34.9470   22.4310 O   0  0  0  0  0  0  0  0  0  0  0  0
  -24.9760  -34.1730   25.0340 H   0  0  0  0  0  0  0  0  0  0  0  0
  -24.1750  -36.8520   23.1090 C   0  0  0  0  0  1  0  0  0  0  0  0
  -25.4200  -36.4510   23.9150 C   0  0  0  0  0  3  0  0  0  0  0  0
  -27.5630  -37.3330   24.7260 C   0  0  0  0  0  1  0  0  0  0  0  0
  -26.4560  -37.5000   23.7880 N   0  0  0  0  0  0  0  0  0  0  0  0
  -26.0530  -38.4220   23.9350 H   0  0  0  0  0  0  0  0  0  0  0  0
  -26.3870  -31.8420   25.1810 C   0  0  1  0  0  0  0  0  0  0  0  0
  -25.2980  -31.6120   26.2560 C   0  0  0  0  0  1  0  0  0  0  0  0
  -26.9630  -30.4620   24.7880 C   0  0  0  0  0  1  0  0  0  0  0  0
  -27.5460  -32.6320   25.8340 C   0  0  0  0  0  1  0  0  0  0  0  0
  1  6  1  0
  2  5  1  0
  3  2  1  0
  4  5  1  0
  5 55  1  0
  6  4  1  0
  6  3  1  0
  7  1  2  0
  8 10  1  0
  9  8  1  0
  9 11  1  0
 10  1  1  0
 11 10  1  0
 11 13  1  0
 11 12  1  6
 13 15  1  0
 13 16  1  0
 15 14  1  0
 16 25  1  0
 18 23  1  0
 19 20  1  0
 19 18  1  0
 21 20  1  0
 21 30  1  0
 21 22  1  0
 23 17  1  0
 23 22  1  0
 24 17  2  0
 25 17  1  0
 25 26  1  0
 27 28  2  0
 28 29  1  0
 28 47  1  0
 29 32  1  0
 30 27  1  0
 30 31  1  0
 31 29  2  0
 32 33  1  0
 33 34  2  0
 35 38  1  0
 35 34  1  0
 36 35  2  0
 37 36  1  0
 37 32  2  0
 38 39  1  0
 39 40  1  0
 40 41  2  0
 42 41  1  0
 42 46  1  0
 43 42  2  0
 44 39  2  0
 44 43  1  0
 45 44  1  0
 47 48  1  0
 48 51  1  0
 48 50  1  0
 49 47  2  0
 52 53  1  0
 52 27  1  0
 54 52  1  0
 55 56  1  0
 56 57  1  0
 57 59  1  0
 58 69  2  0
 59 64  1  0
 60 68  1  0
 60 70  1  0
 61 67  1  0
 61 63  1  0
 62 68  1  0
 63 62  1  0
 64 63  2  0
 65 66  1  0
 65 59  2  0
 66 61  2  0
 67 60  1  0
 68 58  1  0
 70 72  2  0
 71 70  1  0
 73 71  1  0
 74 83  2  0
 74 79  1  0
 75 71  1  0
 75 79  1  0
 76 75  1  0
 77 78  1  0
 77 76  1  0
 78 74  1  0
 79 80  2  0
 80 81  1  0
 82 81  2  0
 83 82  1  0
 84 58  1  0
 84 85  1  0
 84 94  1  0
 85 88  1  0
 86 90  1  0
 86 85  1  0
 87 86  2  0
 90 89  1  0
 92 90  1  0
 92 93  1  0
 92 91  1  0
 94 97  1  1
 94 95  1  0
 96 94  1  0
M  ISO  4  17 100  25 100  56 101  57 101
M  END
>  <TORSDO>  (19) 
F 22

>  <SCORE>  (19) 
-12.361

>  <name>  (19) 
18

>  <ligand_id>  (19) 
18

>  <original_smiles>  (19) 
[H]c1c([H])c([H])c2c(c1[H])C([H])([H])C([H])([H])C([H])([H])C2([H])N([H])C(=O)C1([H])N(C(=O)C([H])(N([H])C(=O)C([H])(N([H])C([H])([H])[H])C([H])([H])[H])C(C([H])([H])[H])(C([H])([H])[H])C([H])([H])[H])C([H])([H])c2c([H])c(OC([H])([H])C([H])([H])C3([H])C([H])([H])N(C(=O)C4([H])C([H])([H])C([H])([H])[N+]4([H])C([H])(C([H])([H])N([H])C(=O)N4C([H])([H])C([H])([H])C([H])([H])C([H])(n5nc(-c6c([H])c([H])c(Oc7c([H])c([H])c(F)c([H])c7F)c([H])c6[H])c(C(=O)N([H])[H])c5N([H])[H])C4([H])[H])C([H])([H])C([H])([H])[H])C([H])([H])C3([H])[H])c([H])c([H])c2C1([H])[H]

>  <smiles>  (19) 
[H]c1c([H])c([H])c2c(c1[H])C([H])([H])C([H])([H])C([H])([H])C2([H])N([H])C(=O)C1([H])N(C(=O)C([H])(N([H])C(=O)C([H])(N([H])C([H])([H])[H])C([H])([H])[H])C(C([H])([H])[H])(C([H])([H])[H])C([H])([H])[H])C([H])([H])c2c([H])c(OC([H])([H])C([H])([H])C3([H])C([H])([H])N(C(=O)C4([H])C([H])([H])C([H])([H])[N+]4([H])C([H])(C([H])([H])N([H])C(=O)N4C([H])([H])C([H])([H])C([H])([H])C([H])(n5nc(-c6c([H])c([H])c(Oc7c([H])c([H])c(F)c([H])c7F)c([H])c6[H])c(C(=O)N([H])[H])c5N([H])[H])C4([H])[H])C([H])([H])C([H])([H])[H])C([H])([H])C3([H])[H])c([H])c([H])c2C1([H])[H]

$$$$
19:0:0
     RDKit          3D

 94101  0  0  1  0  0  0  0  0999 V2000
  -26.8130  -20.6850   19.3610 C   0  0  0  0  0  0  0  0  0  0  0  0
  -27.2320  -19.2460   19.3560 N   0  0  0  0  0  0  0  0  0  0  0  0
  -25.5990  -20.8420   19.2230 O   0  0  0  0  0  0  0  0  0  0  0  0
  -28.2240  -19.1630   19.5340 H   0  0  0  0  0  0  0  0  0  0  0  0
  -28.2720  -22.4070   18.0360 C   0  0  0  0  0  1  0  0  0  0  0  0
  -27.6960  -22.2330   19.4510 C   0  0  0  0  0  3  0  0  0  0  0  0
  -27.2040  -23.9430   19.9100 C   0  0  0  0  0  2  0  0  0  0  0  0
  -27.8640  -25.5020   20.0200 O   0  0  0  0  0  0  0  0  0  0  0  0
  -24.5710  -31.6760   23.1240 C   0  0  0  0  0  0  0  0  0  0  0  0
  -27.0680  -26.7630   20.0350 C   0  0  0  0  0  0  0  0  0  0  0  0
  -23.4420  -30.3080   21.4390 C   0  0  0  0  0  3  0  0  0  0  0  0
  -24.9120  -28.7610   20.0060 C   0  0  0  0  0  0  0  0  0  0  0  0
  -26.0220  -30.4820   21.3960 C   0  0  0  0  0  2  0  0  0  0  0  0
  -26.0880  -29.0870   20.6960 C   0  0  0  0  0  0  0  0  0  0  0  0
  -27.1810  -28.0960   20.7010 C   0  0  0  0  0  3  0  0  0  0  0  0
  -25.9150  -26.6640   19.2550 C   0  0  0  0  0  3  0  0  0  0  0  0
  -24.8570  -27.5790   19.2710 C   0  0  0  0  0  3  0  0  0  0  0  0
  -23.7120  -29.6920   20.0470 C   0  0  0  0  0  2  0  0  0  0  0  0
  -24.7020  -30.8510   22.0370 N   0  0  0  0  0  0  0  0  0  0  0  0
  -23.4600  -31.9510   23.6060 O   0  0  0  0  0  0  0  0  0  0  0  0
  -22.7390  -29.2670   22.3490 C   0  0  0  0  0  0  0  0  0  0  0  0
  -21.4080  -29.1170   22.2100 N   0  0  0  0  0  0  0  0  0  0  0  0
  -23.3940  -28.6040   23.1580 O   0  0  0  0  0  0  0  0  0  0  0  0
  -20.9330  -29.7040   21.5380 H   0  0  0  0  0  0  0  0  0  0  0  0
  -18.0070  -27.9490   22.6780 C   0  0  0  0  0  0  0  0  0  0  0  0
  -20.5720  -28.1640   22.9440 C   0  0  0  0  0  3  0  0  0  0  0  0
  -20.6470  -26.7520   22.3150 C   0  0  0  0  0  2  0  0  0  0  0  0
  -19.5380  -26.4880   21.2920 C   0  0  0  0  0  2  0  0  0  0  0  0
  -18.1610  -26.6270   21.9460 C   0  0  0  0  0  2  0  0  0  0  0  0
  -19.1380  -28.6770   23.1330 C   0  0  0  0  0  0  0  0  0  0  0  0
  -18.9370  -29.9150   23.7820 C   0  0  0  0  0  3  0  0  0  0  0  0
  -17.6390  -30.4250   23.9760 C   0  0  0  0  0  3  0  0  0  0  0  0
  -16.5230  -29.6940   23.5340 C   0  0  0  0  0  3  0  0  0  0  0  0
  -16.7080  -28.4570   22.8910 C   0  0  0  0  0  3  0  0  0  0  0  0
  -25.8090  -32.3290   23.8070 C   0  0  0  0  0  3  0  0  0  0  0  0
  -26.3020  -31.5330   25.0780 C   0  0  1  0  0  0  0  0  0  0  0  0
  -25.1830  -31.2390   26.1050 C   0  0  0  0  0  1  0  0  0  0  0  0
  -26.9300  -30.1800   24.6770 C   0  0  0  0  0  1  0  0  0  0  0  0
  -27.4130  -32.3350   25.7970 C   0  0  0  0  0  1  0  0  0  0  0  0
  -25.4390  -33.7050   24.1850 N   0  0  0  0  0  0  0  0  0  0  0  0
  -25.7730  -34.8080   23.5030 C   0  0  0  0  0  0  0  0  0  0  0  0
  -26.4890  -34.7760   22.4990 O   0  0  0  0  0  0  0  0  0  0  0  0
  -24.8040  -33.8010   24.9650 H   0  0  0  0  0  0  0  0  0  0  0  0
  -24.0200  -36.5870   23.1660 C   0  0  0  0  0  1  0  0  0  0  0  0
  -25.2310  -36.1600   24.0120 C   0  0  0  0  0  3  0  0  0  0  0  0
  -27.3020  -37.0450   24.9920 C   0  0  0  0  0  1  0  0  0  0  0  0
  -26.2410  -37.2410   24.0080 N   0  0  0  0  0  0  0  0  0  0  0  0
  -25.8060  -38.1420   24.1860 H   0  0  0  0  0  0  0  0  0  0  0  0
  -26.5900  -17.7520   18.8690 C   0  0  0  0  0  2  0  0  0  0  0  0
  -30.7910  -13.6610   21.4070 C   0  0  0  0  0  0  0  0  0  0  0  0
  -31.7150  -13.1640   19.0480 C   0  0  0  0  0  3  0  0  0  0  0  0
  -30.6790  -13.1460   17.7900 C   0  0  0  0  0  3  0  0  0  0  0  0
  -29.1730  -12.8130   18.1410 C   0  0  0  0  0  2  0  0  0  0  0  0
  -28.8430  -13.3140   19.6690 C   0  0  0  0  0  2  0  0  0  0  0  0
  -30.1820  -12.2220   19.9130 C   0  0  0  0  0  2  0  0  0  0  0  0
  -31.1610  -12.9260   20.3700 N   0  0  0  0  0  0  0  0  0  0  0  0
  -31.5360  -14.6820   21.4370 O   0  0  0  0  0  0  0  0  0  0  0  0
  -28.0080  -15.3500   18.4720 C   0  0  0  0  0  3  0  0  0  0  0  0
  -27.0730  -11.9260   19.3020 C   0  0  0  0  0 15  0  0  0  0  0  0
  -28.8430  -14.8840   21.7020 C   0  0  0  0  0  2  0  0  0  0  0  0
  -26.8130  -14.1490   18.6130 C   0  0  0  0  0  2  0  0  0  0  0  0
  -28.1530  -15.7760   20.1430 C   0  0  0  0  0  3  0  0  0  0  0  0
  -26.7470  -15.9590   19.3590 C   0  0  2  0  0  0  0  0  0  0  0  0
  -28.3900  -11.5990   21.2340 C   0  0  0  0  0  1  0  0  0  0  0  0
  -28.8770  -10.1080   21.3680 C   0  0  0  0  0  1  0  0  0  0  0  0
  -29.4090  -13.2410   21.9170 N   0  0  0  0  0  2  0  0  0  0  0  0
  -25.7370  -14.0940   21.1570 C   0  0  1  0  0  0  0  0  0  0  0  0
  -24.6300  -13.2370   21.1240 C   0  0  0  0  0  3  0  0  0  0  0  0
  -25.0910  -11.9450   21.1980 C   0  0  0  0  0  3  0  0  0  0  0  0
  -27.0020  -13.4810   20.9550 N   0  0  0  0  0  2  0  0  0  0  0  0
  -26.2130  -12.4100   21.6570 N   0  0  0  0  0  0  0  0  0  0  0  0
  -24.5080  -10.5370   21.2800 C   0  0  0  0  0  0  0  0  0  0  0  0
  -24.9450   -9.5120   22.1680 C   0  0  0  0  0  3  0  0  0  0  0  0
  -24.2660   -8.2620   22.2660 C   0  0  0  0  0  3  0  0  0  0  0  0
  -23.1240   -7.9970   21.4700 C   0  0  0  0  0  0  0  0  0  0  0  0
  -22.7300   -8.9750   20.5400 C   0  0  0  0  0  3  0  0  0  0  0  0
  -23.4170  -10.2050   20.4360 C   0  0  0  0  0  3  0  0  0  0  0  0
  -22.3900   -6.8260   21.4920 O   0  0  0  0  0  0  0  0  0  0  0  0
  -22.1900   -6.0960   22.6400 C   0  0  0  0  0  0  0  0  0  0  0  0
  -21.6170   -6.6650   23.7990 C   0  0  0  0  0  3  0  0  0  0  0  0
  -21.3710   -5.8660   24.9340 C   0  0  0  0  0  3  0  0  0  0  0  0
  -21.6900   -4.4950   24.9160 C   0  0  0  0  0  0  0  0  0  0  0  0
  -22.2480   -3.9190   23.7600 C   0  0  0  0  0  3  0  0  0  0  0  0
  -22.4890   -4.7160   22.6250 C   0  0  0  0  0  0  0  0  0  0  0  0
  -23.0030   -4.1480   21.5070 F   0  0  0  0  0  0  0  0  0  0  0  0
  -21.4580   -3.7260   26.0060 F   0  0  0  0  0  0  0  0  0  0  0  0
  -23.2200  -13.5880   21.3690 C   0  0  0  0  0  0  0  0  0  0  0  0
  -22.5390  -12.8170   22.2130 N   0  0  0  0  0  0  0  0  0  0  0  0
  -22.7450  -14.5930   20.8620 O   0  0  0  0  0  0  0  0  0  0  0  0
  -22.9700  -12.0180   22.6550 H   0  0  0  0  0  0  0  0  0  0  0  0
  -21.5770  -13.0400   22.4260 H   0  0  0  0  0  0  0  0  0  0  0  0
  -25.7290  -15.3060   21.7960 N   0  0  0  0  0  0  0  0  0  0  0  0
  -24.8790  -15.8230   21.9800 H   0  0  0  0  0  0  0  0  0  0  0  0
  -26.5680  -15.8720   21.8000 H   0  0  0  0  0  0  0  0  0  0  0  0
  1  6  1  0
  2  1  1  0
  2  4  1  0
  3  1  2  0
  6  5  1  0
  6  7  1  0
  7  8  1  0
  8 10  1  0
  9 20  2  0
 10 15  1  0
 11 19  1  0
 11 21  1  0
 12 18  1  0
 12 14  1  0
 13 19  1  0
 14 15  2  0
 14 13  1  0
 16 17  1  0
 16 10  2  0
 17 12  2  0
 18 11  1  0
 19  9  1  0
 21 23  2  0
 22 21  1  0
 24 22  1  0
 25 34  2  0
 25 30  1  0
 26 22  1  0
 26 30  1  0
 27 26  1  0
 28 29  1  0
 28 27  1  0
 29 25  1  0
 30 31  2  0
 31 32  1  0
 33 32  2  0
 34 33  1  0
 35  9  1  0
 35 40  1  0
 35 36  1  0
 36 39  1  1
 36 37  1  0
 38 36  1  0
 40 43  1  0
 41 45  1  0
 41 40  1  0
 42 41  2  0
 45 44  1  0
 47 45  1  0
 47 48  1  0
 47 46  1  0
 49  2  1  0
 50 57  2  0
 50 66  1  0
 51 56  1  0
 52 53  1  0
 52 51  2  0
 53 54  1  0
 54 55  1  0
 55 56  1  0
 56 50  1  0
 58 61  1  0
 58 63  1  0
 58 62  1  0
 60 66  1  0
 61 63  1  0
 62 60  1  0
 63 49  1  6
 63 62  1  0
 64 65  1  0
 67 71  1  0
 67 92  1  1
 68 67  1  0
 68 69  1  0
 68 87  1  0
 69 72  1  0
 69 71  1  0
 70 67  1  0
 71 70  1  0
 72 73  1  0
 73 74  2  0
 75 78  1  0
 75 74  1  0
 76 75  2  0
 77 76  1  0
 77 72  2  0
 78 79  1  0
 79 80  1  0
 80 81  2  0
 82 81  1  0
 82 86  1  0
 83 82  2  0
 84 79  2  0
 84 83  1  0
 85 84  1  0
 87 88  1  0
 88 91  1  0
 88 90  1  0
 89 87  2  0
 92 94  1  0
 92 93  1  0
M  ISO  4   7 101   8 101  50 100  66 100
M  END
>  <TORSDO>  (20) 
F 19

>  <SCORE>  (20) 
-11.363

>  <name>  (20) 
19

>  <ligand_id>  (20) 
19

>  <original_smiles>  (20) 
[H]c1c([H])c([H])c2c(c1[H])C([H])([H])C([H])([H])C([H])([H])C2([H])N([H])C(=O)C1([H])N(C(=O)C([H])(N([H])C(=O)C([H])(N([H])C([H])([H])[H])C([H])([H])[H])C(C([H])([H])[H])(C([H])([H])[H])C([H])([H])[H])C([H])([H])c2c([H])c(OC([H])([H])C([H])(C(=O)N([H])C([H])([H])C3([H])C4([H])C([H])([H])N(C(=O)N5C([H])([H])C([H])([H])C([H])([H])C([H])(n6nc(-c7c([H])c([H])c(Oc8c([H])c([H])c(F)c([H])c8F)c([H])c7[H])c(C(=O)N([H])[H])c6N([H])[H])C5([H])[H])C([H])(C([H])([H])[H])C([H])([H])C3([H])C4([H])[H])C([H])([H])[H])c([H])c([H])c2C1([H])[H]

>  <smiles>  (20) 
[H]c1c([H])c([H])c2c(c1[H])C([H])([H])C([H])([H])C([H])([H])C2([H])N([H])C(=O)C1([H])N(C(=O)C([H])(N([H])C(=O)C([H])(N([H])C([H])([H])[H])C([H])([H])[H])C(C([H])([H])[H])(C([H])([H])[H])C([H])([H])[H])C([H])([H])c2c([H])c(OC([H])([H])C([H])(C(=O)N([H])C([H])([H])C3([H])C4([H])C([H])([H])N(C(=O)N5C([H])([H])C([H])([H])C([H])([H])C([H])(n6nc(-c7c([H])c([H])c(Oc8c([H])c([H])c(F)c([H])c8F)c([H])c7[H])c(C(=O)N([H])[H])c6N([H])[H])C5([H])[H])C([H])(C([H])([H])[H])C([H])([H])C3([H])C4([H])[H])C([H])([H])[H])c([H])c([H])c2C1([H])[H]

$$$$
20:0:0
     RDKit          3D

 92102  0  0  1  0  0  0  0  0999 V2000
  -30.6360  -14.9090   20.3860 C   0  0  0  0  0  0  0  0  0  0  0  0
  -30.3810  -12.6080   19.3970 C   0  0  0  0  0  2  0  0  0  0  0  0
  -29.4630  -12.5980   18.1590 C   0  0  0  0  0  2  0  0  0  0  0  0
  -28.0030  -12.3860   18.5960 C   0  0  0  0  0  2  0  0  0  0  0  0
  -27.5970  -13.3190   19.7680 C   0  0  0  0  0  3  0  0  0  0  0  0
  -28.6490  -13.3370   20.8980 C   0  0  0  0  0  2  0  0  0  0  0  0
  -29.9240  -13.7200   20.2800 N   0  0  0  0  0  0  0  0  0  0  0  0
  -31.8530  -14.8410   20.1790 O   0  0  0  0  0  0  0  0  0  0  0  0
  -27.9670  -19.4300   19.6980 C   0  0  0  0  0  2  0  0  0  0  0  0
  -28.6910  -16.7880   20.3600 C   0  0  0  0  0  2  0  0  0  0  0  0
  -30.9220  -17.4670   20.4920 C   0  0  0  0  0  2  0  0  0  0  0  0
  -29.8520  -21.2680   21.4340 C   0  0  0  0  0  2  0  0  0  0  0  0
  -30.1580  -20.4660   19.2620 C   0  0  0  0  0  2  0  0  0  0  0  0
  -28.7120  -21.9650   20.5740 C   0  0  0  0  0  3  0  0  0  0  0  0
  -28.6620  -18.3680   20.6810 C   0  0  0  0  0  3  0  0  0  0  0  0
  -28.6870  -20.8460   19.4270 C   0  0  0  0  0  3  0  0  0  0  0  0
  -30.1070  -18.7130   21.0330 C   0  0  0  0  0  3  0  0  0  0  0  0
  -30.0760  -16.2140   20.5130 N   0  0  0  0  0  0  0  0  0  0  0  0
  -30.5140  -20.1400   20.6530 N   0  0  2  0  0  4  0  0  0  0  0  0
  -31.5140  -20.2170   20.7710 H   0  0  0  0  0  0  0  0  0  0  0  0
  -25.2110  -13.9090   20.4780 C   0  0  0  0  0  0  0  0  0  0  0  0
  -24.1400  -13.1390   20.8360 C   0  0  0  0  0  0  0  0  0  0  0  0
  -24.6040  -11.7880   20.8240 C   0  0  0  0  0  0  0  0  0  0  0  0
  -26.2560  -13.0280   20.2590 N   0  0  0  0  0  0  0  0  0  0  0  0
  -25.8980  -11.7480   20.5340 N   0  0  0  0  0  0  0  0  0  0  0  0
  -23.8760  -10.5270   21.0150 C   0  0  0  0  0  0  0  0  0  0  0  0
  -24.2950   -9.5670   21.9620 C   0  0  0  0  0  3  0  0  0  0  0  0
  -23.5690   -8.3700   22.1400 C   0  0  0  0  0  3  0  0  0  0  0  0
  -22.4070   -8.1240   21.3710 C   0  0  0  0  0  0  0  0  0  0  0  0
  -22.0040   -9.0710   20.4140 C   0  0  0  0  0  3  0  0  0  0  0  0
  -22.7320  -10.2610   20.2340 C   0  0  0  0  0  3  0  0  0  0  0  0
  -21.6550   -6.9770   21.4560 O   0  0  0  0  0  0  0  0  0  0  0  0
  -21.5870   -6.2440   22.6140 C   0  0  0  0  0  0  0  0  0  0  0  0
  -21.1340   -6.8070   23.8250 C   0  0  0  0  0  3  0  0  0  0  0  0
  -21.0140   -6.0020   24.9760 C   0  0  0  0  0  3  0  0  0  0  0  0
  -21.3330   -4.6340   24.9150 C   0  0  0  0  0  0  0  0  0  0  0  0
  -21.7790   -4.0680   23.7080 C   0  0  0  0  0  3  0  0  0  0  0  0
  -21.9030   -4.8700   22.5590 C   0  0  0  0  0  0  0  0  0  0  0  0
  -22.3130   -4.3170   21.3920 F   0  0  0  0  0  0  0  0  0  0  0  0
  -21.2110   -3.8580   26.0170 F   0  0  0  0  0  0  0  0  0  0  0  0
  -22.7410  -13.6190   21.0770 C   0  0  0  0  0  0  0  0  0  0  0  0
  -21.9960  -12.9390   21.9380 N   0  0  0  0  0  0  0  0  0  0  0  0
  -22.3130  -14.6410   20.5390 O   0  0  0  0  0  0  0  0  0  0  0  0
  -22.3530  -12.1230   22.4120 H   0  0  0  0  0  0  0  0  0  0  0  0
  -21.0560  -13.2520   22.1370 H   0  0  0  0  0  0  0  0  0  0  0  0
  -25.3780  -15.2780   20.2940 N   0  0  0  0  0  0  0  0  0  0  0  0
  -24.6130  -15.9350   20.3990 H   0  0  0  0  0  0  0  0  0  0  0  0
  -26.2360  -15.7130   19.9890 H   0  0  0  0  0  0  0  0  0  0  0  0
  -28.9630  -23.5480   20.1830 C   0  0  0  0  0  0  0  0  0  0  0  0
  -29.9450  -23.8110   19.4820 O   0  0  0  0  0  0  0  0  0  0  0  0
  -27.9990  -24.7840   20.6450 C   0  0  0  0  0  2  0  0  0  0  0  0
  -28.3390  -26.2560   20.3350 O   0  0  0  0  0  0  0  0  0  0  0  0
  -24.6510  -31.9080   23.2590 C   0  0  0  0  0  0  0  0  0  0  0  0
  -27.2820  -27.2190   20.2830 C   0  0  0  0  0  0  0  0  0  0  0  0
  -23.4760  -30.4910   21.6210 C   0  0  0  0  0  3  0  0  0  0  0  0
  -24.9460  -28.9210   20.2240 C   0  0  0  0  0  0  0  0  0  0  0  0
  -26.0280  -30.7800   21.4780 C   0  0  0  0  0  2  0  0  0  0  0  0
  -26.1150  -29.3860   20.8370 C   0  0  0  0  0  0  0  0  0  0  0  0
  -27.2910  -28.5510   20.8510 C   0  0  0  0  0  3  0  0  0  0  0  0
  -26.0930  -26.8510   19.6230 C   0  0  0  0  0  3  0  0  0  0  0  0
  -24.9440  -27.6650   19.6030 C   0  0  0  0  0  3  0  0  0  0  0  0
  -23.7110  -29.8070   20.2500 C   0  0  0  0  0  2  0  0  0  0  0  0
  -24.7380  -31.0810   22.1740 N   0  0  0  0  0  0  0  0  0  0  0  0
  -23.5590  -32.1920   23.7740 O   0  0  0  0  0  0  0  0  0  0  0  0
  -22.7980  -29.4830   22.5830 C   0  0  0  0  0  0  0  0  0  0  0  0
  -21.4710  -29.3030   22.4470 N   0  0  0  0  0  0  0  0  0  0  0  0
  -23.4680  -28.8670   23.4180 O   0  0  0  0  0  0  0  0  0  0  0  0
  -20.9900  -29.8500   21.7470 H   0  0  0  0  0  0  0  0  0  0  0  0
  -18.0910  -28.1000   22.9310 C   0  0  0  0  0  0  0  0  0  0  0  0
  -20.6470  -28.3700   23.2180 C   0  0  0  0  0  3  0  0  0  0  0  0
  -20.7570  -26.9350   22.6550 C   0  0  0  0  0  2  0  0  0  0  0  0
  -19.6630  -26.6010   21.6350 C   0  0  0  0  0  2  0  0  0  0  0  0
  -18.2760  -26.7480   22.2660 C   0  0  0  0  0  2  0  0  0  0  0  0
  -19.2040  -28.8700   23.3630 C   0  0  0  0  0  0  0  0  0  0  0  0
  -18.9760  -30.1360   23.9440 C   0  0  0  0  0  3  0  0  0  0  0  0
  -17.6680  -30.6330   24.0980 C   0  0  0  0  0  3  0  0  0  0  0  0
  -16.5690  -29.8610   23.6830 C   0  0  0  0  0  3  0  0  0  0  0  0
  -16.7820  -28.5970   23.1040 C   0  0  0  0  0  3  0  0  0  0  0  0
  -25.9210  -32.5560   23.8900 C   0  0  0  0  0  3  0  0  0  0  0  0
  -25.5960  -33.9550   24.2090 N   0  0  0  0  0  0  0  0  0  0  0  0
  -25.9210  -35.0070   23.4470 C   0  0  0  0  0  0  0  0  0  0  0  0
  -26.5960  -34.9040   22.4180 O   0  0  0  0  0  0  0  0  0  0  0  0
  -24.9970  -34.1080   25.0070 H   0  0  0  0  0  0  0  0  0  0  0  0
  -24.1820  -36.7890   23.0820 C   0  0  0  0  0  1  0  0  0  0  0  0
  -25.4240  -36.3960   23.8970 C   0  0  0  0  0  3  0  0  0  0  0  0
  -27.5500  -37.3010   24.7290 C   0  0  0  0  0  1  0  0  0  0  0  0
  -26.4500  -37.4560   23.7810 N   0  0  0  0  0  0  0  0  0  0  0  0
  -26.0370  -38.3740   23.9200 H   0  0  0  0  0  0  0  0  0  0  0  0
  -26.4260  -31.8000   25.1810 C   0  0  1  0  0  0  0  0  0  0  0  0
  -25.3200  -31.5680   26.2370 C   0  0  0  0  0  1  0  0  0  0  0  0
  -27.0230  -30.4230   24.8150 C   0  0  0  0  0  1  0  0  0  0  0  0
  -27.5630  -32.6080   25.8470 C   0  0  0  0  0  1  0  0  0  0  0  0
  1 18  1  0
  2  7  1  0
  3  4  1  0
  3  2  1  0
  5  4  1  0
  5 24  1  0
  5  6  1  0
  7  1  1  0
  7  6  1  0
  8  1  2  0
 10 18  1  0
 10 15  1  0
 11 18  1  0
 13 19  1  0
 14 49  1  0
 14 12  1  0
 15  9  1  0
 15 17  1  0
 16 13  1  0
 16  9  1  0
 16 14  1  0
 17 11  1  0
 19 20  1  6
 19 17  1  0
 19 12  1  0
 21 22  2  0
 22 41  1  0
 23 22  1  0
 23 26  1  0
 24 21  1  0
 24 25  1  0
 25 23  2  0
 26 27  1  0
 27 28  2  0
 29 32  1  0
 29 28  1  0
 30 29  2  0
 31 30  1  0
 31 26  2  0
 32 33  1  0
 33 34  1  0
 34 35  2  0
 36 35  1  0
 36 40  1  0
 37 36  2  0
 38 33  2  0
 38 37  1  0
 39 38  1  0
 41 42  1  0
 42 45  1  0
 42 44  1  0
 43 41  2  0
 46 47  1  0
 46 21  1  0
 48 46  1  0
 49 51  1  0
 50 49  2  0
 52 51  1  0
 53 64  2  0
 54 52  1  0
 54 59  1  0
 55 63  1  0
 55 65  1  0
 56 62  1  0
 56 58  1  0
 57 63  1  0
 58 59  2  0
 58 57  1  0
 60 54  2  0
 61 60  1  0
 61 56  2  0
 62 55  1  0
 63 53  1  0
 65 67  2  0
 66 65  1  0
 68 66  1  0
 69 78  2  0
 69 74  1  0
 70 66  1  0
 70 74  1  0
 71 70  1  0
 72 73  1  0
 72 71  1  0
 73 69  1  0
 74 75  2  0
 75 76  1  0
 77 76  2  0
 78 77  1  0
 79 53  1  0
 79 80  1  0
 79 89  1  0
 80 83  1  0
 81 85  1  0
 81 80  1  0
 82 81  2  0
 85 84  1  0
 87 85  1  0
 87 88  1  0
 87 86  1  0
 89 92  1  1
 89 90  1  0
 91 89  1  0
M  ISO  4   1 100  18 100  51 101  52 101
M  END
>  <TORSDO>  (21) 
F 17

>  <SCORE>  (21) 
-15.263

>  <name>  (21) 
20

>  <ligand_id>  (21) 
20

>  <original_smiles>  (21) 
[H]c1c([H])c([H])c2c(c1[H])C([H])([H])C([H])([H])C([H])([H])C2([H])N([H])C(=O)C1([H])N(C(=O)C([H])(N([H])C(=O)C([H])(N([H])C([H])([H])[H])C([H])([H])[H])C(C([H])([H])[H])(C([H])([H])[H])C([H])([H])[H])C([H])([H])c2c([H])c(OC([H])([H])C(=O)C3([H])C4([H])C([H])([H])C5([H])C([H])([H])N(C(=O)N6C([H])([H])C([H])([H])C([H])([H])C([H])(n7nc(-c8c([H])c([H])c(Oc9c([H])c([H])c(F)c([H])c9F)c([H])c8[H])c(C(=O)N([H])[H])c7N([H])[H])C6([H])[H])C([H])([H])C5([H])[N+]([H])(C3([H])[H])C4([H])[H])c([H])c([H])c2C1([H])[H]

>  <smiles>  (21) 
[H]c1c([H])c([H])c2c(c1[H])C([H])([H])C([H])([H])C([H])([H])C2([H])N([H])C(=O)C1([H])N(C(=O)C([H])(N([H])C(=O)C([H])(N([H])C([H])([H])[H])C([H])([H])[H])C(C([H])([H])[H])(C([H])([H])[H])C([H])([H])[H])C([H])([H])c2c([H])c(OC([H])([H])C(=O)C3([H])C4([H])C([H])([H])C5([H])C([H])([H])N(C(=O)N6C([H])([H])C([H])([H])C([H])([H])C([H])(n7nc(-c8c([H])c([H])c(Oc9c([H])c([H])c(F)c([H])c9F)c([H])c8[H])c(C(=O)N([H])[H])c7N([H])[H])C6([H])[H])C([H])([H])C5([H])[N+]([H])(C3([H])[H])C4([H])[H])c([H])c([H])c2C1([H])[H]

$$$$
21:0:0
     RDKit          3D

 94102  0  0  1  0  0  0  0  0999 V2000
  -29.0980  -22.4750   21.1680 C   0  0  0  0  0  3  0  0  0  0  0  0
  -28.9550  -20.9050   20.8210 C   0  0  0  0  0  0  0  0  0  0  0  0
  -30.5670  -18.8170   22.5560 C   0  0  0  0  0  2  0  0  0  0  0  0
  -31.0770  -20.1240   21.9330 C   0  0  0  0  0  2  0  0  0  0  0  0
  -29.8750  -18.4710   21.2230 C   0  0  0  0  0  3  0  0  0  0  0  0
  -30.0450  -19.9500   20.9110 N   0  0  0  0  0  0  0  0  0  0  0  0
  -27.8250  -20.4520   20.6490 O   0  0  0  0  0  0  0  0  0  0  0  0
  -30.6000  -17.3680   20.3000 C   0  0  0  0  0  2  0  0  0  0  0  0
  -30.9150  -14.7970   19.9840 C   0  0  0  0  0  0  0  0  0  0  0  0
  -30.6400  -12.5510   18.9110 C   0  0  0  0  0  2  0  0  0  0  0  0
  -29.6580  -12.6500   17.7240 C   0  0  0  0  0  2  0  0  0  0  0  0
  -28.2020  -12.4840   18.2060 C   0  0  0  0  0  2  0  0  0  0  0  0
  -27.8830  -13.3590   19.4470 C   0  0  0  0  0  3  0  0  0  0  0  0
  -28.9790  -13.2420   20.5300 C   0  0  0  0  0  2  0  0  0  0  0  0
  -30.2630  -13.5850   19.9070 N   0  0  0  0  0  0  0  0  0  0  0  0
  -32.0420  -14.9220   19.5010 O   0  0  0  0  0  0  0  0  0  0  0  0
  -30.2190  -15.9010   20.4450 N   0  0  0  0  0  0  0  0  0  0  0  0
  -29.2970  -15.7230   20.8120 H   0  0  0  0  0  0  0  0  0  0  0  0
  -25.5270  -13.9610   20.2700 C   0  0  0  0  0  0  0  0  0  0  0  0
  -24.4710  -13.1950   20.6830 C   0  0  0  0  0  0  0  0  0  0  0  0
  -24.9190  -11.8400   20.6150 C   0  0  0  0  0  0  0  0  0  0  0  0
  -26.5530  -13.0760   19.9790 N   0  0  0  0  0  0  0  0  0  0  0  0
  -26.1940  -11.7940   20.2460 N   0  0  0  0  0  0  0  0  0  0  0  0
  -24.1870  -10.5850   20.8290 C   0  0  0  0  0  0  0  0  0  0  0  0
  -24.5970   -9.6470   21.8050 C   0  0  0  0  0  3  0  0  0  0  0  0
  -23.8700   -8.4510   22.0010 C   0  0  0  0  0  3  0  0  0  0  0  0
  -22.7160   -8.1890   21.2230 C   0  0  0  0  0  0  0  0  0  0  0  0
  -22.3250   -9.1130   20.2390 C   0  0  0  0  0  3  0  0  0  0  0  0
  -23.0520  -10.3000   20.0400 C   0  0  0  0  0  3  0  0  0  0  0  0
  -21.9610   -7.0460   21.3270 O   0  0  0  0  0  0  0  0  0  0  0  0
  -21.8020   -6.3930   22.5220 C   0  0  0  0  0  0  0  0  0  0  0  0
  -21.2490   -7.0320   23.6550 C   0  0  0  0  0  3  0  0  0  0  0  0
  -21.0470   -6.3060   24.8440 C   0  0  0  0  0  3  0  0  0  0  0  0
  -21.3790   -4.9380   24.9000 C   0  0  0  0  0  0  0  0  0  0  0  0
  -21.9180   -4.2970   23.7710 C   0  0  0  0  0  3  0  0  0  0  0  0
  -22.1260   -5.0220   22.5850 C   0  0  0  0  0  0  0  0  0  0  0  0
  -22.6290   -4.3960   21.4940 F   0  0  0  0  0  0  0  0  0  0  0  0
  -21.1750   -4.2360   26.0390 F   0  0  0  0  0  0  0  0  0  0  0  0
  -23.0940  -13.6830   21.0280 C   0  0  0  0  0  0  0  0  0  0  0  0
  -22.4080  -13.0010   21.9390 N   0  0  0  0  0  0  0  0  0  0  0  0
  -22.6360  -14.7070   20.5240 O   0  0  0  0  0  0  0  0  0  0  0  0
  -22.7970  -12.1770   22.3710 H   0  0  0  0  0  0  0  0  0  0  0  0
  -21.4840  -13.3100   22.2130 H   0  0  0  0  0  0  0  0  0  0  0  0
  -25.7000  -15.3330   20.1000 N   0  0  0  0  0  0  0  0  0  0  0  0
  -24.9440  -15.9920   20.2520 H   0  0  0  0  0  0  0  0  0  0  0  0
  -26.5430  -15.7610   19.7390 H   0  0  0  0  0  0  0  0  0  0  0  0
  -28.4340  -22.6710   22.4700 N   0  0  0  0  0  4  0  0  0  0  0  0
  -27.4730  -22.3840   22.3990 H   0  0  0  0  0  0  0  0  0  0  0  0
  -28.4880  -23.6240   22.7780 H   0  0  0  0  0  0  0  0  0  0  0  0
  -28.8750  -22.0990   23.1690 H   0  0  0  0  0  0  0  0  0  0  0  0
  -27.3560  -23.3170   19.3080 C   0  0  0  0  0  1  0  0  0  0  0  0
  -28.6210  -23.6510   20.1240 C   0  0  0  0  0  3  0  0  0  0  0  0
  -28.4390  -25.1550   20.7090 C   0  0  0  0  0  2  0  0  0  0  0  0
  -28.4210  -26.3850   19.8660 O   0  0  0  0  0  0  0  0  0  0  0  0
  -24.6530  -31.7030   23.0400 C   0  0  0  0  0  0  0  0  0  0  0  0
  -27.2890  -27.2180   19.8980 C   0  0  0  0  0  0  0  0  0  0  0  0
  -23.4470  -30.3140   21.3880 C   0  0  0  0  0  3  0  0  0  0  0  0
  -24.9020  -28.7960   19.9310 C   0  0  0  0  0  0  0  0  0  0  0  0
  -25.9790  -30.6720   21.1760 C   0  0  0  0  0  2  0  0  0  0  0  0
  -26.0720  -29.3020   20.5140 C   0  0  0  0  0  0  0  0  0  0  0  0
  -27.2720  -28.5260   20.4820 C   0  0  0  0  0  3  0  0  0  0  0  0
  -26.0930  -26.7610   19.3070 C   0  0  0  0  0  3  0  0  0  0  0  0
  -24.9130  -27.5300   19.3230 C   0  0  0  0  0  3  0  0  0  0  0  0
  -23.6570  -29.6570   19.9970 C   0  0  0  0  0  2  0  0  0  0  0  0
  -24.7120  -30.9160   21.9260 N   0  0  0  0  0  0  0  0  0  0  0  0
  -23.5750  -31.9490   23.5990 O   0  0  0  0  0  0  0  0  0  0  0  0
  -22.8120  -29.2760   22.3440 C   0  0  0  0  0  0  0  0  0  0  0  0
  -21.4890  -29.0700   22.2250 N   0  0  0  0  0  0  0  0  0  0  0  0
  -23.5120  -28.6550   23.1480 O   0  0  0  0  0  0  0  0  0  0  0  0
  -20.9830  -29.6250   21.5510 H   0  0  0  0  0  0  0  0  0  0  0  0
  -18.1460  -27.7790   22.7210 C   0  0  0  0  0  0  0  0  0  0  0  0
  -20.6980  -28.1040   22.9910 C   0  0  0  0  0  3  0  0  0  0  0  0
  -20.8360  -26.6790   22.4040 C   0  0  0  0  0  2  0  0  0  0  0  0
  -19.7440  -26.3380   21.3860 C   0  0  0  0  0  2  0  0  0  0  0  0
  -18.3580  -26.4420   22.0300 C   0  0  0  0  0  2  0  0  0  0  0  0
  -19.2440  -28.5660   23.1570 C   0  0  0  0  0  0  0  0  0  0  0  0
  -18.9940  -29.8160   23.7620 C   0  0  0  0  0  3  0  0  0  0  0  0
  -17.6760  -30.2830   23.9330 C   0  0  0  0  0  3  0  0  0  0  0  0
  -16.5920  -29.4920   23.5150 C   0  0  0  0  0  3  0  0  0  0  0  0
  -16.8280  -28.2420   22.9160 C   0  0  0  0  0  3  0  0  0  0  0  0
  -25.9350  -32.3460   23.6530 C   0  0  0  0  0  3  0  0  0  0  0  0
  -25.5980  -33.7200   24.0510 N   0  0  0  0  0  0  0  0  0  0  0  0
  -25.8880  -34.8170   23.3380 C   0  0  0  0  0  0  0  0  0  0  0  0
  -26.5380  -34.7790   22.2890 O   0  0  0  0  0  0  0  0  0  0  0  0
  -25.0220  -33.8180   24.8750 H   0  0  0  0  0  0  0  0  0  0  0  0
  -24.1120  -36.5810   23.1000 C   0  0  0  0  0  1  0  0  0  0  0  0
  -25.3780  -36.1700   23.8680 C   0  0  0  0  0  3  0  0  0  0  0  0
  -27.5100  -37.0720   24.6950 C   0  0  0  0  0  1  0  0  0  0  0  0
  -26.3810  -37.2550   23.7860 N   0  0  0  0  0  0  0  0  0  0  0  0
  -25.9550  -38.1540   23.9930 H   0  0  0  0  0  0  0  0  0  0  0  0
  -26.5060  -31.5400   24.8860 C   0  0  1  0  0  0  0  0  0  0  0  0
  -25.4510  -31.2380   25.9750 C   0  0  0  0  0  1  0  0  0  0  0  0
  -27.1040  -30.1900   24.4270 C   0  0  0  0  0  1  0  0  0  0  0  0
  -27.6520  -32.3380   25.5510 C   0  0  0  0  0  1  0  0  0  0  0  0
  1  2  1  0
  1 47  1  0
  2  6  1  0
  4  3  1  0
  5  8  1  0
  5  3  1  0
  6  5  1  0
  6  4  1  0
  7  2  2  0
  8 17  1  0
  9 17  1  0
 10 15  1  0
 11 12  1  0
 11 10  1  0
 13 12  1  0
 13 22  1  0
 13 14  1  0
 15  9  1  0
 15 14  1  0
 16  9  2  0
 17 18  1  0
 19 20  2  0
 20 39  1  0
 21 20  1  0
 21 24  1  0
 22 23  1  0
 22 19  1  0
 23 21  2  0
 24 25  1  0
 25 26  2  0
 27 30  1  0
 27 26  1  0
 28 27  2  0
 29 28  1  0
 29 24  2  0
 30 31  1  0
 31 36  2  0
 31 32  1  0
 32 33  2  0
 33 34  1  0
 34 38  1  0
 35 34  2  0
 36 35  1  0
 37 36  1  0
 39 40  1  0
 40 43  1  0
 40 42  1  0
 41 39  2  0
 44 45  1  0
 44 19  1  0
 46 44  1  0
 47 49  1  0
 47 50  1  0
 48 47  1  0
 52 51  1  0
 52 53  1  0
 52  1  1  0
 54 56  1  0
 54 53  1  0
 55 66  2  0
 56 61  1  0
 57 65  1  0
 57 67  1  0
 58 64  1  0
 58 60  1  0
 59 65  1  0
 60 59  1  0
 61 60  2  0
 62 63  1  0
 62 56  2  0
 63 58  2  0
 64 57  1  0
 65 55  1  0
 67 69  2  0
 68 67  1  0
 70 68  1  0
 71 80  2  0
 71 76  1  0
 72 68  1  0
 72 76  1  0
 73 72  1  0
 74 75  1  0
 74 73  1  0
 75 71  1  0
 76 77  2  0
 77 78  1  0
 79 78  2  0
 80 79  1  0
 81 55  1  0
 81 82  1  0
 81 91  1  0
 82 85  1  0
 83 87  1  0
 83 82  1  0
 84 83  2  0
 87 86  1  0
 89 87  1  0
 89 90  1  0
 89 88  1  0
 91 94  1  1
 91 92  1  0
 93 91  1  0
M  ISO  4   9 100  17 100  53 101  54 101
M  END
>  <TORSDO>  (22) 
F 21

>  <SCORE>  (22) 
-12.821

>  <name>  (22) 
21

>  <ligand_id>  (22) 
21

>  <original_smiles>  (22) 
[H]c1c([H])c([H])c2c(c1[H])C([H])([H])C([H])([H])C([H])([H])C2([H])N([H])C(=O)C1([H])N(C(=O)C([H])(N([H])C(=O)C([H])(N([H])C([H])([H])[H])C([H])([H])[H])C(C([H])([H])[H])(C([H])([H])[H])C([H])([H])[H])C([H])([H])c2c([H])c(OC([H])([H])C([H])(C([H])([H])[H])C([H])(C(=O)N3C([H])([H])C([H])([H])C3([H])C([H])([H])N([H])C(=O)N3C([H])([H])C([H])([H])C([H])([H])C([H])(n4nc(-c5c([H])c([H])c(Oc6c([H])c([H])c(F)c([H])c6F)c([H])c5[H])c(C(=O)N([H])[H])c4N([H])[H])C3([H])[H])[N+]([H])([H])[H])c([H])c([H])c2C1([H])[H]

>  <smiles>  (22) 
[H]c1c([H])c([H])c2c(c1[H])C([H])([H])C([H])([H])C([H])([H])C2([H])N([H])C(=O)C1([H])N(C(=O)C([H])(N([H])C(=O)C([H])(N([H])C([H])([H])[H])C([H])([H])[H])C(C([H])([H])[H])(C([H])([H])[H])C([H])([H])[H])C([H])([H])c2c([H])c(OC([H])([H])C([H])(C([H])([H])[H])C([H])(C(=O)N3C([H])([H])C([H])([H])C3([H])C([H])([H])N([H])C(=O)N3C([H])([H])C([H])([H])C([H])([H])C([H])(n4nc(-c5c([H])c([H])c(Oc6c([H])c([H])c(F)c([H])c6F)c([H])c5[H])c(C(=O)N([H])[H])c4N([H])[H])C3([H])[H])[N+]([H])([H])[H])c([H])c([H])c2C1([H])[H]

$$$$
22:0:0
     RDKit          3D

 92101  0  0  1  0  0  0  0  0999 V2000
  -31.1570  -19.4920   20.4500 C   0  0  0  0  0  2  0  0  0  0  0  0
  -30.6220  -22.0760   20.7380 C   0  0  0  0  0  2  0  0  0  0  0  0
  -28.4410  -21.6550   20.2390 C   0  0  0  0  0  2  0  0  0  0  0  0
  -30.3950  -20.6100   21.2030 C   0  0  0  0  0  3  0  0  0  0  0  0
  -28.9230  -20.3410   20.9540 C   0  0  0  0  0  3  0  0  0  0  0  0
  -30.1560  -18.3300   20.1980 C   0  0  0  0  0  3  0  0  0  0  0  0
  -29.3030  -22.7270   20.7870 N   0  0  0  0  0  0  0  0  0  0  0  0
  -28.8350  -19.0340   20.2220 N   0  0  0  0  0  4  0  0  0  0  0  0
  -28.5730  -19.2290   19.2690 H   0  0  0  0  0  0  0  0  0  0  0  0
  -28.1160  -18.4510   20.6160 H   0  0  0  0  0  0  0  0  0  0  0  0
  -30.3380  -17.1020   21.1980 C   0  0  0  0  0  2  0  0  0  0  0  0
  -30.6060  -14.6410   20.4460 C   0  0  0  0  0  0  0  0  0  0  0  0
  -30.3570  -12.4230   19.3500 C   0  0  0  0  0  2  0  0  0  0  0  0
  -29.4160  -12.5600   18.1340 C   0  0  0  0  0  2  0  0  0  0  0  0
  -27.9410  -12.4130   18.5620 C   0  0  0  0  0  2  0  0  0  0  0  0
  -27.5880  -13.2740   19.8040 C   0  0  0  0  0  3  0  0  0  0  0  0
  -28.6440  -13.1160   20.9190 C   0  0  0  0  0  2  0  0  0  0  0  0
  -29.9530  -13.4440   20.3350 N   0  0  0  0  0  0  0  0  0  0  0  0
  -31.7760  -14.7730   20.0810 O   0  0  0  0  0  0  0  0  0  0  0  0
  -29.8610  -15.7260   20.8200 N   0  0  0  0  0  0  0  0  0  0  0  0
  -28.8930  -15.5240   21.0200 H   0  0  0  0  0  0  0  0  0  0  0  0
  -25.1950  -13.8810   20.5150 C   0  0  0  0  0  0  0  0  0  0  0  0
  -24.1260  -13.1130   20.8890 C   0  0  0  0  0  0  0  0  0  0  0  0
  -24.5850  -11.7600   20.8690 C   0  0  0  0  0  0  0  0  0  0  0  0
  -26.2370  -12.9970   20.2900 N   0  0  0  0  0  0  0  0  0  0  0  0
  -25.8760  -11.7180   20.5640 N   0  0  0  0  0  0  0  0  0  0  0  0
  -23.8550  -10.5020   21.0640 C   0  0  0  0  0  0  0  0  0  0  0  0
  -24.2950   -9.5270   21.9870 C   0  0  0  0  0  3  0  0  0  0  0  0
  -23.5650   -8.3330   22.1700 C   0  0  0  0  0  3  0  0  0  0  0  0
  -22.3820   -8.1040   21.4290 C   0  0  0  0  0  0  0  0  0  0  0  0
  -21.9600   -9.0680   20.4950 C   0  0  0  0  0  3  0  0  0  0  0  0
  -22.6910  -10.2530   20.3090 C   0  0  0  0  0  3  0  0  0  0  0  0
  -21.6230   -6.9630   21.5220 O   0  0  0  0  0  0  0  0  0  0  0  0
  -21.6000   -6.2050   22.6660 C   0  0  0  0  0  0  0  0  0  0  0  0
  -21.2290   -6.7490   23.9140 C   0  0  0  0  0  3  0  0  0  0  0  0
  -21.1510   -5.9180   25.0500 C   0  0  0  0  0  3  0  0  0  0  0  0
  -21.4370   -4.5440   24.9380 C   0  0  0  0  0  0  0  0  0  0  0  0
  -21.8030   -3.9990   23.6950 C   0  0  0  0  0  3  0  0  0  0  0  0
  -21.8820   -4.8280   22.5610 C   0  0  0  0  0  0  0  0  0  0  0  0
  -22.2130   -4.2930   21.3610 F   0  0  0  0  0  0  0  0  0  0  0  0
  -21.3550   -3.7430   26.0270 F   0  0  0  0  0  0  0  0  0  0  0  0
  -22.7280  -13.5960   21.1520 C   0  0  0  0  0  0  0  0  0  0  0  0
  -21.9940  -12.9070   22.0190 N   0  0  0  0  0  0  0  0  0  0  0  0
  -22.2960  -14.6190   20.6230 O   0  0  0  0  0  0  0  0  0  0  0  0
  -22.3560  -12.0800   22.4700 H   0  0  0  0  0  0  0  0  0  0  0  0
  -21.0550  -13.2130   22.2350 H   0  0  0  0  0  0  0  0  0  0  0  0
  -25.3600  -15.2500   20.3230 N   0  0  0  0  0  0  0  0  0  0  0  0
  -24.5750  -15.8900   20.3860 H   0  0  0  0  0  0  0  0  0  0  0  0
  -26.1750  -15.6660   19.8950 H   0  0  0  0  0  0  0  0  0  0  0  0
  -29.2920  -24.0870   20.1510 C   0  0  0  0  0  3  0  0  0  0  0  0
  -28.1670  -25.1090   20.5960 C   0  0  0  0  0  3  0  0  0  0  0  0
  -28.3520  -26.5280   20.2210 O   0  0  0  0  0  0  0  0  0  0  0  0
  -24.5940  -31.8980   23.2290 C   0  0  0  0  0  0  0  0  0  0  0  0
  -27.2210  -27.3500   20.2000 C   0  0  0  0  0  0  0  0  0  0  0  0
  -23.3910  -30.4850   21.5990 C   0  0  0  0  0  3  0  0  0  0  0  0
  -24.8450  -28.9330   20.1840 C   0  0  0  0  0  0  0  0  0  0  0  0
  -25.9260  -30.8190   21.4070 C   0  0  0  0  0  2  0  0  0  0  0  0
  -26.0110  -29.4370   20.7740 C   0  0  0  0  0  0  0  0  0  0  0  0
  -27.2030  -28.6580   20.7710 C   0  0  0  0  0  3  0  0  0  0  0  0
  -26.0360  -26.8980   19.5780 C   0  0  0  0  0  3  0  0  0  0  0  0
  -24.8580  -27.6670   19.5780 C   0  0  0  0  0  3  0  0  0  0  0  0
  -23.6040  -29.7990   20.2240 C   0  0  0  0  0  2  0  0  0  0  0  0
  -24.6570  -31.0840   22.1360 N   0  0  0  0  0  0  0  0  0  0  0  0
  -23.5120  -32.1760   23.7650 O   0  0  0  0  0  0  0  0  0  0  0  0
  -22.7360  -29.4710   22.5670 C   0  0  0  0  0  0  0  0  0  0  0  0
  -21.4110  -29.2890   22.4410 N   0  0  0  0  0  0  0  0  0  0  0  0
  -23.4170  -28.8530   23.3880 O   0  0  0  0  0  0  0  0  0  0  0  0
  -20.9220  -29.8370   21.7470 H   0  0  0  0  0  0  0  0  0  0  0  0
  -18.0390  -28.0880   22.9480 C   0  0  0  0  0  0  0  0  0  0  0  0
  -20.5950  -28.3570   23.2200 C   0  0  0  0  0  3  0  0  0  0  0  0
  -20.7010  -26.9200   22.6560 C   0  0  0  0  0  2  0  0  0  0  0  0
  -19.6020  -26.5870   21.6430 C   0  0  0  0  0  2  0  0  0  0  0  0
  -18.2190  -26.7340   22.2830 C   0  0  0  0  0  2  0  0  0  0  0  0
  -19.1550  -28.8570   23.3730 C   0  0  0  0  0  0  0  0  0  0  0  0
  -18.9300  -30.1250   23.9550 C   0  0  0  0  0  3  0  0  0  0  0  0
  -17.6240  -30.6220   24.1160 C   0  0  0  0  0  3  0  0  0  0  0  0
  -16.5230  -29.8510   23.7050 C   0  0  0  0  0  3  0  0  0  0  0  0
  -16.7300  -28.5860   23.1280 C   0  0  0  0  0  3  0  0  0  0  0  0
  -25.8780  -32.5350   23.8440 C   0  0  0  0  0  3  0  0  0  0  0  0
  -26.4060  -31.7650   25.1160 C   0  0  1  0  0  0  0  0  0  0  0  0
  -25.3200  -31.5210   26.1910 C   0  0  0  0  0  1  0  0  0  0  0  0
  -26.9910  -30.3900   24.7210 C   0  0  0  0  0  1  0  0  0  0  0  0
  -27.5570  -32.5630   25.7720 C   0  0  0  0  0  1  0  0  0  0  0  0
  -25.5620  -33.9310   24.1800 N   0  0  0  0  0  0  0  0  0  0  0  0
  -25.8800  -34.9880   23.4200 C   0  0  0  0  0  0  0  0  0  0  0  0
  -26.5420  -34.8900   22.3830 O   0  0  0  0  0  0  0  0  0  0  0  0
  -24.9700  -34.0790   24.9840 H   0  0  0  0  0  0  0  0  0  0  0  0
  -24.1310  -36.7650   23.0850 C   0  0  0  0  0  1  0  0  0  0  0  0
  -25.3850  -36.3720   23.8830 C   0  0  0  0  0  3  0  0  0  0  0  0
  -27.5230  -37.2720   24.6880 C   0  0  0  0  0  1  0  0  0  0  0  0
  -26.4060  -37.4340   23.7600 N   0  0  0  0  0  0  0  0  0  0  0  0
  -25.9950  -38.3500   23.9160 H   0  0  0  0  0  0  0  0  0  0  0  0
  2  7  1  0
  2  4  1  0
  3  7  1  0
  4  1  1  0
  5  3  1  0
  5  4  1  0
  6  8  1  0
  6  1  1  0
  6 11  1  0
  8 10  1  0
  8  5  1  0
  9  8  1  0
 12 20  1  0
 13 18  1  0
 14 15  1  0
 14 13  1  0
 16 15  1  0
 16 25  1  0
 16 17  1  0
 18 12  1  0
 18 17  1  0
 19 12  2  0
 20 21  1  0
 20 11  1  0
 22 23  2  0
 23 42  1  0
 24 23  1  0
 24 27  1  0
 25 22  1  0
 25 26  1  0
 26 24  2  0
 27 28  1  0
 28 29  2  0
 30 33  1  0
 30 29  1  0
 31 30  2  0
 32 31  1  0
 32 27  2  0
 33 34  1  0
 34 35  1  0
 35 36  2  0
 37 36  1  0
 37 41  1  0
 38 37  2  0
 39 34  2  0
 39 38  1  0
 40 39  1  0
 42 43  1  0
 43 46  1  0
 43 45  1  0
 44 42  2  0
 47 48  1  0
 47 22  1  0
 49 47  1  0
 50 51  2  0
 50  7  1  0
 52 51  1  0
 53 64  2  0
 54 52  1  0
 54 59  1  0
 55 63  1  0
 55 65  1  0
 56 62  1  0
 56 58  1  0
 57 63  1  0
 58 57  1  0
 59 58  2  0
 60 54  2  0
 61 60  1  0
 61 56  2  0
 62 55  1  0
 63 53  1  0
 65 67  2  0
 66 65  1  0
 68 66  1  0
 69 78  2  0
 69 74  1  0
 70 66  1  0
 70 74  1  0
 71 70  1  0
 72 73  1  0
 72 71  1  0
 73 69  1  0
 74 75  2  0
 75 76  1  0
 77 76  2  0
 78 77  1  0
 79 53  1  0
 79 84  1  0
 79 80  1  0
 80 83  1  1
 80 81  1  0
 82 80  1  0
 84 87  1  0
 85 89  1  0
 85 84  1  0
 86 85  2  0
 89 88  1  0
 91 89  1  0
 91 92  1  0
 91 90  1  0
M  ISO  4  12 100  20 100  51 101  52 101
M  END
>  <TORSDO>  (23) 
F 19

>  <SCORE>  (23) 
-14.379

>  <name>  (23) 
22

>  <ligand_id>  (23) 
22

>  <original_smiles>  (23) 
[H]c1c([H])c([H])c2c(c1[H])C([H])([H])C([H])([H])C([H])([H])C2([H])N([H])C(=O)C1([H])N(C(=O)C([H])(N([H])C(=O)C([H])(N([H])C([H])([H])[H])C([H])([H])[H])C(C([H])([H])[H])(C([H])([H])[H])C([H])([H])[H])C([H])([H])c2c([H])c(OC([H])([H])C([H])([H])N3C([H])([H])C4([H])C([H])([H])C([H])(C([H])([H])N([H])C(=O)N5C([H])([H])C([H])([H])C([H])([H])C([H])(n6nc(-c7c([H])c([H])c(Oc8c([H])c([H])c(F)c([H])c8F)c([H])c7[H])c(C(=O)N([H])[H])c6N([H])[H])C5([H])[H])[N+]([H])([H])C4([H])C3([H])[H])c([H])c([H])c2C1([H])[H]

>  <smiles>  (23) 
[H]c1c([H])c([H])c2c(c1[H])C([H])([H])C([H])([H])C([H])([H])C2([H])N([H])C(=O)C1([H])N(C(=O)C([H])(N([H])C(=O)C([H])(N([H])C([H])([H])[H])C([H])([H])[H])C(C([H])([H])[H])(C([H])([H])[H])C([H])([H])[H])C([H])([H])c2c([H])c(OC([H])([H])C([H])([H])N3C([H])([H])C4([H])C([H])([H])C([H])(C([H])([H])N([H])C(=O)N5C([H])([H])C([H])([H])C([H])([H])C([H])(n6nc(-c7c([H])c([H])c(Oc8c([H])c([H])c(F)c([H])c8F)c([H])c7[H])c(C(=O)N([H])[H])c6N([H])[H])C5([H])[H])[N+]([H])([H])C4([H])C3([H])[H])c([H])c([H])c2C1([H])[H]

$$$$
23:0:0
     RDKit          3D

 96104  0  0  1  0  0  0  0  0999 V2000
  -29.3540  -21.8340   19.6390 C   0  0  0  0  0  2  0  0  0  0  0  0
  -31.5810  -22.0760   19.2910 C   0  0  0  0  0  2  0  0  0  0  0  0
  -29.4760  -23.2460   19.0260 C   0  0  0  0  0  3  0  0  0  0  0  0
  -30.9880  -23.3840   18.7480 C   0  0  0  0  0  3  0  0  0  0  0  0
  -30.5020  -21.1080   19.0810 N   0  0  0  0  0  0  0  0  0  0  0  0
  -31.2780  -23.5120   17.3070 N   0  0  0  0  0  4  0  0  0  0  0  0
  -30.9290  -22.7010   16.8240 H   0  0  0  0  0  0  0  0  0  0  0  0
  -32.2710  -23.5540   17.1600 H   0  0  0  0  0  0  0  0  0  0  0  0
  -30.8710  -24.3370   16.9040 H   0  0  0  0  0  0  0  0  0  0  0  0
  -28.9000  -24.3880   19.8920 C   0  0  0  0  0  0  0  0  0  0  0  0
  -28.6180  -24.2270   21.0850 O   0  0  0  0  0  0  0  0  0  0  0  0
  -28.6870  -25.7410   19.1910 C   0  0  0  0  0  2  0  0  0  0  0  0
  -28.4400  -26.7850   20.1410 O   0  0  0  0  0  0  0  0  0  0  0  0
  -24.5840  -31.8820   23.2420 C   0  0  0  0  0  0  0  0  0  0  0  0
  -27.2320  -27.4520   20.1380 C   0  0  0  0  0  0  0  0  0  0  0  0
  -23.3740  -30.4800   21.6020 C   0  0  0  0  0  3  0  0  0  0  0  0
  -24.8230  -28.9410   20.1770 C   0  0  0  0  0  0  0  0  0  0  0  0
  -25.8970  -30.8390   21.3980 C   0  0  0  0  0  2  0  0  0  0  0  0
  -25.9810  -29.4680   20.7600 C   0  0  0  0  0  0  0  0  0  0  0  0
  -27.1820  -28.7270   20.7460 C   0  0  0  0  0  3  0  0  0  0  0  0
  -26.0460  -26.9220   19.5760 C   0  0  0  0  0  3  0  0  0  0  0  0
  -24.8480  -27.6630   19.5900 C   0  0  0  0  0  3  0  0  0  0  0  0
  -23.5810  -29.7990   20.2220 C   0  0  0  0  0  2  0  0  0  0  0  0
  -24.6370  -31.0820   22.1390 N   0  0  0  0  0  0  0  0  0  0  0  0
  -23.5040  -32.1540   23.7850 O   0  0  0  0  0  0  0  0  0  0  0  0
  -22.7260  -29.4570   22.5630 C   0  0  0  0  0  0  0  0  0  0  0  0
  -21.4020  -29.2760   22.4390 N   0  0  0  0  0  0  0  0  0  0  0  0
  -23.4120  -28.8300   23.3760 O   0  0  0  0  0  0  0  0  0  0  0  0
  -20.9110  -29.8350   21.7540 H   0  0  0  0  0  0  0  0  0  0  0  0
  -18.0270  -28.0890   22.9430 C   0  0  0  0  0  0  0  0  0  0  0  0
  -20.5860  -28.3390   23.2090 C   0  0  0  0  0  3  0  0  0  0  0  0
  -20.6830  -26.9080   22.6300 C   0  0  0  0  0  2  0  0  0  0  0  0
  -19.5780  -26.5910   21.6170 C   0  0  0  0  0  2  0  0  0  0  0  0
  -18.1980  -26.7400   22.2650 C   0  0  0  0  0  2  0  0  0  0  0  0
  -19.1490  -28.8460   23.3710 C   0  0  0  0  0  0  0  0  0  0  0  0
  -18.9360  -30.1100   23.9650 C   0  0  0  0  0  3  0  0  0  0  0  0
  -17.6330  -30.6160   24.1330 C   0  0  0  0  0  3  0  0  0  0  0  0
  -16.5260  -29.8550   23.7200 C   0  0  0  0  0  3  0  0  0  0  0  0
  -16.7230  -28.5930   23.1320 C   0  0  0  0  0  3  0  0  0  0  0  0
  -25.8720  -32.5120   23.8590 C   0  0  0  0  0  3  0  0  0  0  0  0
  -26.3940  -31.7400   25.1330 C   0  0  1  0  0  0  0  0  0  0  0  0
  -25.3050  -31.5050   26.2060 C   0  0  0  0  0  1  0  0  0  0  0  0
  -26.9730  -30.3620   24.7360 C   0  0  0  0  0  1  0  0  0  0  0  0
  -27.5480  -32.5330   25.7900 C   0  0  0  0  0  1  0  0  0  0  0  0
  -25.5670  -33.9100   24.1870 N   0  0  0  0  0  0  0  0  0  0  0  0
  -25.9040  -34.9600   23.4260 C   0  0  0  0  0  0  0  0  0  0  0  0
  -26.5760  -34.8520   22.3960 O   0  0  0  0  0  0  0  0  0  0  0  0
  -24.9730  -34.0680   24.9880 H   0  0  0  0  0  0  0  0  0  0  0  0
  -24.1820  -36.7550   23.0560 C   0  0  0  0  0  1  0  0  0  0  0  0
  -25.4170  -36.3500   23.8770 C   0  0  0  0  0  3  0  0  0  0  0  0
  -27.5490  -37.2280   24.7200 C   0  0  0  0  0  1  0  0  0  0  0  0
  -26.4530  -37.4000   23.7700 N   0  0  0  0  0  0  0  0  0  0  0  0
  -26.0490  -38.3210   23.9170 H   0  0  0  0  0  0  0  0  0  0  0  0
  -31.9430  -19.1300   18.9170 C   0  0  0  0  0  1  0  0  0  0  0  0
  -30.7560  -19.7750   19.6630 C   0  0  0  0  0  3  0  0  0  0  0  0
  -29.4710  -18.9050   19.5560 C   0  0  0  0  0  2  0  0  0  0  0  0
  -29.6130  -17.3720   19.7020 C   0  0  0  0  0  2  0  0  0  0  0  0
  -30.1580  -16.8480   21.0500 C   0  0  0  0  0  2  0  0  0  0  0  0
  -30.6590  -14.4390   20.5550 C   0  0  0  0  0  0  0  0  0  0  0  0
  -30.3760  -12.3070   19.3540 C   0  0  0  0  0  2  0  0  0  0  0  0
  -29.4500  -12.5470   18.1450 C   0  0  0  0  0  2  0  0  0  0  0  0
  -27.9670  -12.4180   18.5520 C   0  0  0  0  0  2  0  0  0  0  0  0
  -27.6210  -13.2330   19.8280 C   0  0  0  0  0  3  0  0  0  0  0  0
  -28.6580  -12.9600   20.9430 C   0  0  0  0  0  2  0  0  0  0  0  0
  -29.9980  -13.2610   20.4060 N   0  0  0  0  0  0  0  0  0  0  0  0
  -31.7610  -14.6700   20.0520 O   0  0  0  0  0  0  0  0  0  0  0  0
  -29.9420  -15.4020   21.1540 N   0  0  0  0  0  0  0  0  0  0  0  0
  -29.0640  -15.1080   21.5550 H   0  0  0  0  0  0  0  0  0  0  0  0
  -25.2070  -13.8530   20.4840 C   0  0  0  0  0  0  0  0  0  0  0  0
  -24.1310  -13.0860   20.8460 C   0  0  0  0  0  0  0  0  0  0  0  0
  -24.5920  -11.7350   20.8360 C   0  0  0  0  0  0  0  0  0  0  0  0
  -26.2560  -12.9680   20.2820 N   0  0  0  0  0  0  0  0  0  0  0  0
  -25.8870  -11.6890   20.5480 N   0  0  0  0  0  0  0  0  0  0  0  0
  -23.8620  -10.4750   21.0300 C   0  0  0  0  0  0  0  0  0  0  0  0
  -24.2850   -9.5130   21.9730 C   0  0  0  0  0  3  0  0  0  0  0  0
  -23.5580   -8.3170   22.1530 C   0  0  0  0  0  3  0  0  0  0  0  0
  -22.3900   -8.0760   21.3900 C   0  0  0  0  0  0  0  0  0  0  0  0
  -21.9850   -9.0260   20.4370 C   0  0  0  0  0  3  0  0  0  0  0  0
  -22.7150  -10.2120   20.2540 C   0  0  0  0  0  3  0  0  0  0  0  0
  -21.6360   -6.9320   21.4790 O   0  0  0  0  0  0  0  0  0  0  0  0
  -21.5840   -6.1900   22.6320 C   0  0  0  0  0  0  0  0  0  0  0  0
  -21.1620   -6.7480   23.8580 C   0  0  0  0  0  3  0  0  0  0  0  0
  -21.0540   -5.9320   25.0040 C   0  0  0  0  0  3  0  0  0  0  0  0
  -21.3610   -4.5610   24.9220 C   0  0  0  0  0  0  0  0  0  0  0  0
  -21.7790   -4.0040   23.7020 C   0  0  0  0  0  3  0  0  0  0  0  0
  -21.8860   -4.8150   22.5590 C   0  0  0  0  0  0  0  0  0  0  0  0
  -22.2660   -4.2680   21.3790 F   0  0  0  0  0  0  0  0  0  0  0  0
  -21.2530   -3.7760   26.0200 F   0  0  0  0  0  0  0  0  0  0  0  0
  -22.7300  -13.5680   21.0930 C   0  0  0  0  0  0  0  0  0  0  0  0
  -21.9870  -12.8810   21.9540 N   0  0  0  0  0  0  0  0  0  0  0  0
  -22.3000  -14.5900   20.5580 O   0  0  0  0  0  0  0  0  0  0  0  0
  -22.3460  -12.0570   22.4130 H   0  0  0  0  0  0  0  0  0  0  0  0
  -21.0450  -13.1830   22.1580 H   0  0  0  0  0  0  0  0  0  0  0  0
  -25.3780  -15.2210   20.2910 N   0  0  0  0  0  0  0  0  0  0  0  0
  -24.6140  -15.8830   20.3760 H   0  0  0  0  0  0  0  0  0  0  0  0
  -26.2370  -15.6520   19.9750 H   0  0  0  0  0  0  0  0  0  0  0  0
  3  1  1  0
  3 10  1  0
  4  6  1  0
  4  3  1  0
  4  2  1  0
  5  2  1  0
  5  1  1  0
  5 55  1  0
  7  6  1  0
  8  6  1  0
  9  6  1  0
 10 11  2  0
 12 10  1  0
 12 13  1  0
 14 25  2  0
 15 13  1  0
 15 20  1  0
 16 24  1  0
 16 26  1  0
 17 23  1  0
 17 19  1  0
 18 24  1  0
 19 18  1  0
 20 19  2  0
 21 22  1  0
 21 15  2  0
 22 17  2  0
 23 16  1  0
 24 14  1  0
 26 28  2  0
 27 26  1  0
 29 27  1  0
 30 39  2  0
 30 35  1  0
 31 27  1  0
 31 35  1  0
 32 31  1  0
 33 34  1  0
 33 32  1  0
 34 30  1  0
 35 36  2  0
 36 37  1  0
 38 37  2  0
 39 38  1  0
 40 14  1  0
 40 45  1  0
 40 41  1  0
 41 44  1  1
 41 42  1  0
 43 41  1  0
 45 48  1  0
 46 50  1  0
 46 45  1  0
 47 46  2  0
 50 49  1  0
 52 50  1  0
 52 53  1  0
 52 51  1  0
 55 54  1  0
 56 55  1  0
 56 57  1  0
 57 58  1  0
 58 67  1  0
 59 67  1  0
 60 65  1  0
 61 62  1  0
 61 60  1  0
 63 62  1  0
 63 72  1  0
 63 64  1  0
 65 59  1  0
 65 64  1  0
 66 59  2  0
 67 68  1  0
 69 70  2  0
 70 89  1  0
 71 70  1  0
 71 74  1  0
 72 69  1  0
 72 73  1  0
 73 71  2  0
 74 75  1  0
 75 76  2  0
 77 80  1  0
 77 76  1  0
 78 77  2  0
 79 78  1  0
 79 74  2  0
 80 81  1  0
 81 82  1  0
 82 83  2  0
 84 83  1  0
 84 88  1  0
 85 84  2  0
 86 81  2  0
 86 85  1  0
 87 86  1  0
 89 90  1  0
 90 93  1  0
 90 92  1  0
 91 89  2  0
 94 95  1  0
 94 69  1  0
 96 94  1  0
M  ISO  4  12 101  13 101  59 100  67 100
M  END
>  <TORSDO>  (24) 
F 23

>  <SCORE>  (24) 
-12.924

>  <name>  (24) 
23

>  <ligand_id>  (24) 
23

>  <original_smiles>  (24) 
[H]c1c([H])c([H])c2c(c1[H])C([H])([H])C([H])([H])C([H])([H])C2([H])N([H])C(=O)C1([H])N(C(=O)C([H])(N([H])C(=O)C([H])(N([H])C([H])([H])[H])C([H])([H])[H])C(C([H])([H])[H])(C([H])([H])[H])C([H])([H])[H])C([H])([H])c2c([H])c(OC([H])([H])C(=O)C3([H])C([H])([H])N(C([H])(C([H])([H])[H])C([H])([H])C([H])([H])C([H])([H])N([H])C(=O)N4C([H])([H])C([H])([H])C([H])([H])C([H])(n5nc(-c6c([H])c([H])c(Oc7c([H])c([H])c(F)c([H])c7F)c([H])c6[H])c(C(=O)N([H])[H])c5N([H])[H])C4([H])[H])C([H])([H])C3([H])[N+]([H])([H])[H])c([H])c([H])c2C1([H])[H]

>  <smiles>  (24) 
[H]c1c([H])c([H])c2c(c1[H])C([H])([H])C([H])([H])C([H])([H])C2([H])N([H])C(=O)C1([H])N(C(=O)C([H])(N([H])C(=O)C([H])(N([H])C([H])([H])[H])C([H])([H])[H])C(C([H])([H])[H])(C([H])([H])[H])C([H])([H])[H])C([H])([H])c2c([H])c(OC([H])([H])C(=O)C3([H])C([H])([H])N(C([H])(C([H])([H])[H])C([H])([H])C([H])([H])C([H])([H])N([H])C(=O)N4C([H])([H])C([H])([H])C([H])([H])C([H])(n5nc(-c6c([H])c([H])c(Oc7c([H])c([H])c(F)c([H])c7F)c([H])c6[H])c(C(=O)N([H])[H])c5N([H])[H])C4([H])[H])C([H])([H])C3([H])[N+]([H])([H])[H])c([H])c([H])c2C1([H])[H]

$$$$
24:0:0
     RDKit          3D

 98106  0  0  1  0  0  0  0  0999 V2000
  -28.5290  -21.6010   20.7060 C   0  0  0  0  0  2  0  0  0  0  0  0
  -30.8110  -18.8690   19.6090 C   0  0  0  0  0  3  0  0  0  0  0  0
  -30.0790  -19.9980   19.4530 C   0  0  0  0  0  3  0  0  0  0  0  0
  -28.8860  -17.7210   20.6910 C   0  0  0  0  0  2  0  0  0  0  0  0
  -28.3900  -19.1320   21.1130 C   0  0  0  0  0  2  0  0  0  0  0  0
  -30.4160  -17.7350   20.5460 C   0  0  0  0  0  3  0  0  0  0  0  0
  -28.7620  -20.2170   20.1490 N   0  0  1  0  0  4  0  0  0  0  0  0
  -28.0550  -20.1350   19.4330 H   0  0  0  0  0  0  0  0  0  0  0  0
  -31.1620  -16.3670   20.3270 C   0  0  0  0  0  3  0  0  0  0  0  0
  -30.6970  -14.2390   19.0710 C   0  0  0  0  0  0  0  0  0  0  0  0
  -30.1140  -12.0600   18.0540 C   0  0  0  0  0  2  0  0  0  0  0  0
  -28.9850  -12.2260   17.0200 C   0  0  0  0  0  2  0  0  0  0  0  0
  -27.6070  -12.1430   17.7050 C   0  0  0  0  0  2  0  0  0  0  0  0
  -27.5090  -13.0530   18.9570 C   0  0  0  0  0  3  0  0  0  0  0  0
  -28.7320  -12.8650   19.8820 C   0  0  0  0  0  2  0  0  0  0  0  0
  -29.9460  -13.1030   19.0810 N   0  0  0  0  0  0  0  0  0  0  0  0
  -31.6750  -14.3750   18.3300 O   0  0  0  0  0  0  0  0  0  0  0  0
  -30.3190  -15.2240   19.9140 N   0  0  0  0  0  0  0  0  0  0  0  0
  -29.4870  -15.0500   20.4570 H   0  0  0  0  0  0  0  0  0  0  0  0
  -25.3200  -13.7690   20.1020 C   0  0  0  0  0  0  0  0  0  0  0  0
  -24.2960  -13.0480   20.6540 C   0  0  0  0  0  0  0  0  0  0  0  0
  -24.6670  -11.6740   20.5260 C   0  0  0  0  0  0  0  0  0  0  0  0
  -26.2530  -12.8390   19.6740 N   0  0  0  0  0  0  0  0  0  0  0  0
  -25.8750  -11.5720   19.9850 N   0  0  0  0  0  0  0  0  0  0  0  0
  -23.9190  -10.4480   20.8360 C   0  0  0  0  0  0  0  0  0  0  0  0
  -24.3840   -9.5220   21.7960 C   0  0  0  0  0  3  0  0  0  0  0  0
  -23.6380   -8.3610   22.0910 C   0  0  0  0  0  3  0  0  0  0  0  0
  -22.4140   -8.1150   21.4260 C   0  0  0  0  0  0  0  0  0  0  0  0
  -21.9650   -9.0290   20.4560 C   0  0  0  0  0  3  0  0  0  0  0  0
  -22.7110  -10.1830   20.1600 C   0  0  0  0  0  3  0  0  0  0  0  0
  -21.6350   -7.0020   21.6280 O   0  0  0  0  0  0  0  0  0  0  0  0
  -21.5620   -6.3870   22.8530 C   0  0  0  0  0  0  0  0  0  0  0  0
  -21.1120   -7.0700   24.0030 C   0  0  0  0  0  3  0  0  0  0  0  0
  -20.9850   -6.3820   25.2270 C   0  0  0  0  0  3  0  0  0  0  0  0
  -21.2990   -5.0110   25.3000 C   0  0  0  0  0  0  0  0  0  0  0  0
  -21.7430   -4.3280   24.1540 C   0  0  0  0  0  3  0  0  0  0  0  0
  -21.8720   -5.0140   22.9330 C   0  0  0  0  0  0  0  0  0  0  0  0
  -22.2780   -4.3460   21.8270 F   0  0  0  0  0  0  0  0  0  0  0  0
  -21.1710   -4.3480   26.4720 F   0  0  0  0  0  0  0  0  0  0  0  0
  -23.0020  -13.5930   21.1840 C   0  0  0  0  0  0  0  0  0  0  0  0
  -22.4330  -12.9450   22.1950 N   0  0  0  0  0  0  0  0  0  0  0  0
  -22.5110  -14.6260   20.7320 O   0  0  0  0  0  0  0  0  0  0  0  0
  -22.8460  -12.1080   22.5790 H   0  0  0  0  0  0  0  0  0  0  0  0
  -21.5680  -13.2890   22.5880 H   0  0  0  0  0  0  0  0  0  0  0  0
  -25.5300  -15.1310   19.9110 N   0  0  0  0  0  0  0  0  0  0  0  0
  -24.8330  -15.8260   20.1550 H   0  0  0  0  0  0  0  0  0  0  0  0
  -26.3290  -15.5200   19.4290 H   0  0  0  0  0  0  0  0  0  0  0  0
  -32.6380  -14.6120   21.5590 C   0  0  0  0  0  1  0  0  0  0  0  0
  -31.9250  -15.9730   21.6160 C   0  0  0  0  0  2  0  0  0  0  0  0
  -26.9520  -22.0220   18.7420 C   0  0  0  0  0  1  0  0  0  0  0  0
  -28.0440  -22.6560   19.6460 C   0  0  0  0  0  3  0  0  0  0  0  0
  -27.5330  -24.0820   20.1410 C   0  0  0  0  0  3  0  0  0  0  0  0
  -26.4390  -23.9530   21.1400 N   0  0  0  0  0  4  0  0  0  0  0  0
  -26.7420  -23.5180   21.9960 H   0  0  0  0  0  0  0  0  0  0  0  0
  -25.6660  -23.4230   20.7730 H   0  0  0  0  0  0  0  0  0  0  0  0
  -26.0810  -24.8610   21.3870 H   0  0  0  0  0  0  0  0  0  0  0  0
  -28.5610  -25.1890   20.5900 C   0  0  0  0  0  2  0  0  0  0  0  0
  -28.4640  -26.5460   20.0420 O   0  0  0  0  0  0  0  0  0  0  0  0
  -24.5820  -31.7300   23.1600 C   0  0  0  0  0  0  0  0  0  0  0  0
  -27.2870  -27.2790   20.1010 C   0  0  0  0  0  0  0  0  0  0  0  0
  -23.4070  -30.3170   21.5100 C   0  0  0  0  0  3  0  0  0  0  0  0
  -24.8870  -28.8030   20.0930 C   0  0  0  0  0  0  0  0  0  0  0  0
  -25.9330  -30.6970   21.3300 C   0  0  0  0  0  2  0  0  0  0  0  0
  -26.0390  -29.3220   20.6960 C   0  0  0  0  0  0  0  0  0  0  0  0
  -27.2410  -28.5680   20.6980 C   0  0  0  0  0  3  0  0  0  0  0  0
  -26.1210  -26.8120   19.4550 C   0  0  0  0  0  3  0  0  0  0  0  0
  -24.9250  -27.5470   19.4700 C   0  0  0  0  0  3  0  0  0  0  0  0
  -23.6350  -29.6500   20.1290 C   0  0  0  0  0  2  0  0  0  0  0  0
  -24.6600  -30.9290   22.0580 N   0  0  0  0  0  0  0  0  0  0  0  0
  -23.4930  -31.9840   23.6940 O   0  0  0  0  0  0  0  0  0  0  0  0
  -22.7650  -29.2800   22.4600 C   0  0  0  0  0  0  0  0  0  0  0  0
  -21.4540  -29.0410   22.2950 N   0  0  0  0  0  0  0  0  0  0  0  0
  -23.4480  -28.6910   23.3040 O   0  0  0  0  0  0  0  0  0  0  0  0
  -20.9620  -29.5700   21.5870 H   0  0  0  0  0  0  0  0  0  0  0  0
  -18.1190  -27.7060   22.6930 C   0  0  0  0  0  0  0  0  0  0  0  0
  -20.6520  -28.0800   23.0520 C   0  0  0  0  0  3  0  0  0  0  0  0
  -20.8380  -26.6460   22.5030 C   0  0  0  0  0  2  0  0  0  0  0  0
  -19.7870  -26.2580   21.4580 C   0  0  0  0  0  2  0  0  0  0  0  0
  -18.3780  -26.3550   22.0490 C   0  0  0  0  0  2  0  0  0  0  0  0
  -19.1880  -28.5220   23.1500 C   0  0  0  0  0  0  0  0  0  0  0  0
  -18.8930  -29.7850   23.7100 C   0  0  0  0  0  3  0  0  0  0  0  0
  -17.5640  -30.2320   23.8220 C   0  0  0  0  0  3  0  0  0  0  0  0
  -16.5080  -29.4120   23.3860 C   0  0  0  0  0  3  0  0  0  0  0  0
  -16.7880  -28.1520   22.8250 C   0  0  0  0  0  3  0  0  0  0  0  0
  -25.8530  -32.3810   23.7850 C   0  0  0  0  0  3  0  0  0  0  0  0
  -26.4110  -31.5860   25.0280 C   0  0  1  0  0  0  0  0  0  0  0  0
  -25.3290  -31.2290   26.0740 C   0  0  0  0  0  1  0  0  0  0  0  0
  -27.0840  -30.2700   24.5730 C   0  0  0  0  0  1  0  0  0  0  0  0
  -27.5040  -32.4210   25.7370 C   0  0  0  0  0  1  0  0  0  0  0  0
  -25.5060  -33.7580   24.1640 N   0  0  0  0  0  0  0  0  0  0  0  0
  -25.8010  -34.8440   23.4380 C   0  0  0  0  0  0  0  0  0  0  0  0
  -26.4660  -34.7950   22.4000 O   0  0  0  0  0  0  0  0  0  0  0  0
  -24.9260  -33.8690   24.9820 H   0  0  0  0  0  0  0  0  0  0  0  0
  -24.0300  -36.6010   23.1380 C   0  0  0  0  0  1  0  0  0  0  0  0
  -25.2740  -36.2010   23.9450 C   0  0  0  0  0  3  0  0  0  0  0  0
  -27.3770  -37.1070   24.8300 C   0  0  0  0  0  1  0  0  0  0  0  0
  -26.2790  -37.2840   23.8820 N   0  0  0  0  0  0  0  0  0  0  0  0
  -25.8480  -38.1870   24.0620 H   0  0  0  0  0  0  0  0  0  0  0  0
  2  6  1  0
  3  2  2  0
  3  7  1  0
  4  5  1  0
  6  9  1  0
  6  4  1  0
  7  1  1  0
  7  5  1  0
  7  8  1  6
  9 49  1  0
 10 16  1  0
 10 18  1  0
 11 16  1  0
 12 13  1  0
 12 11  1  0
 14 13  1  0
 14 23  1  0
 14 15  1  0
 16 15  1  0
 17 10  2  0
 18  9  1  0
 18 19  1  0
 20 21  2  0
 21 40  1  0
 22 21  1  0
 22 25  1  0
 23 24  1  0
 23 20  1  0
 24 22  2  0
 25 26  1  0
 26 27  2  0
 28 31  1  0
 28 27  1  0
 29 28  2  0
 30 29  1  0
 30 25  2  0
 31 32  1  0
 32 37  2  0
 32 33  1  0
 33 34  2  0
 34 35  1  0
 35 39  1  0
 36 35  2  0
 37 36  1  0
 38 37  1  0
 40 41  1  0
 41 43  1  0
 41 44  1  0
 42 40  2  0
 45 20  1  0
 45 46  1  0
 47 45  1  0
 48 49  1  0
 51 50  1  0
 51 52  1  0
 51  1  1  0
 52 57  1  0
 52 53  1  0
 53 56  1  0
 53 54  1  0
 55 53  1  0
 58 60  1  0
 58 57  1  0
 59 70  2  0
 60 65  1  0
 61 69  1  0
 61 71  1  0
 62 68  1  0
 62 64  1  0
 63 69  1  0
 64 65  2  0
 64 63  1  0
 66 67  1  0
 66 60  2  0
 67 62  2  0
 68 61  1  0
 69 59  1  0
 71 73  2  0
 72 71  1  0
 74 72  1  0
 75 84  2  0
 75 80  1  0
 76 72  1  0
 76 80  1  0
 77 76  1  0
 78 79  1  0
 78 77  1  0
 79 75  1  0
 80 81  2  0
 81 82  1  0
 83 82  2  0
 84 83  1  0
 85 59  1  0
 85 90  1  0
 85 86  1  0
 86 89  1  1
 86 87  1  0
 88 86  1  0
 90 93  1  0
 91 95  1  0
 91 90  1  0
 92 91  2  0
 95 94  1  0
 97 95  1  0
 97 98  1  0
 97 96  1  0
M  ISO  4  10 100  18 100  57 101  58 101
M  END
>  <TORSDO>  (25) 
F 23

>  <SCORE>  (25) 
-8.924

>  <name>  (25) 
24

>  <ligand_id>  (25) 
24

>  <original_smiles>  (25) 
[H]C1=C([H])[N+]([H])(C([H])([H])C([H])(C([H])([H])[H])C([H])(C([H])([H])Oc2c([H])c([H])c3c(c2[H])C([H])([H])N(C(=O)C([H])(N([H])C(=O)C([H])(N([H])C([H])([H])[H])C([H])([H])[H])C(C([H])([H])[H])(C([H])([H])[H])C([H])([H])[H])C([H])(C(=O)N([H])C2([H])c4c([H])c([H])c([H])c([H])c4C([H])([H])C([H])([H])C2([H])[H])C3([H])[H])[N+]([H])([H])[H])C([H])([H])C([H])([H])C1([H])C([H])(N([H])C(=O)N1C([H])([H])C([H])([H])C([H])([H])C([H])(n2nc(-c3c([H])c([H])c(Oc4c([H])c([H])c(F)c([H])c4F)c([H])c3[H])c(C(=O)N([H])[H])c2N([H])[H])C1([H])[H])C([H])([H])C([H])([H])[H]

>  <smiles>  (25) 
[H]C1=C([H])[N+]([H])(C([H])([H])C([H])(C([H])([H])[H])C([H])(C([H])([H])Oc2c([H])c([H])c3c(c2[H])C([H])([H])N(C(=O)C([H])(N([H])C(=O)C([H])(N([H])C([H])([H])[H])C([H])([H])[H])C(C([H])([H])[H])(C([H])([H])[H])C([H])([H])[H])C([H])(C(=O)N([H])C2([H])c4c([H])c([H])c([H])c([H])c4C([H])([H])C([H])([H])C2([H])[H])C3([H])[H])[N+]([H])([H])[H])C([H])([H])C([H])([H])C1([H])C([H])(N([H])C(=O)N1C([H])([H])C([H])([H])C([H])([H])C([H])(n2nc(-c3c([H])c([H])c(Oc4c([H])c([H])c(F)c([H])c4F)c([H])c3[H])c(C(=O)N([H])[H])c2N([H])[H])C1([H])[H])C([H])([H])C([H])([H])[H]

$$$$
25:0:0
     RDKit          3D

 98107  0  0  1  0  0  0  0  0999 V2000
  -28.0470  -19.9750   20.9390 C   0  0  0  0  0  3  0  0  0  0  0  0
  -30.3130  -19.2120   21.3830 C   0  0  0  0  0  3  0  0  0  0  0  0
  -29.2810  -20.1460   21.5880 C   0  0  0  0  0  0  0  0  0  0  0  0
  -27.9000  -18.9860   19.9510 C   0  0  0  0  0  0  0  0  0  0  0  0
  -30.1280  -18.1130   20.5120 C   0  0  0  0  0  0  0  0  0  0  0  0
  -28.9510  -18.0640   19.7050 C   0  0  0  0  0  0  0  0  0  0  0  0
  -26.6120  -18.9960   19.1380 C   0  0  0  0  0  1  0  0  0  0  0  0
  -28.8550  -17.1340   18.5020 C   0  0  0  0  0  1  0  0  0  0  0  0
  -29.5370  -21.4370   22.3310 C   0  0  0  0  0  2  0  0  0  0  0  0
  -29.4000  -22.4580   21.2870 N   0  0  0  0  0  4  0  0  0  0  0  0
  -28.4750  -22.3340   20.9110 H   0  0  0  0  0  0  0  0  0  0  0  0
  -30.0590  -22.2410   20.5560 H   0  0  0  0  0  0  0  0  0  0  0  0
  -29.5680  -23.8560   21.7060 C   0  0  0  0  0  2  0  0  0  0  0  0
  -28.9750  -24.7730   20.6290 C   0  0  0  0  0  2  0  0  0  0  0  0
  -29.1420  -26.2650   20.9210 C   0  0  0  0  0  2  0  0  0  0  0  0
  -28.6450  -26.9560   19.7840 O   0  0  0  0  0  0  0  0  0  0  0  0
  -24.7140  -31.7830   23.2630 C   0  0  0  0  0  0  0  0  0  0  0  0
  -27.4480  -27.6020   19.9350 C   0  0  0  0  0  0  0  0  0  0  0  0
  -23.5380  -30.4670   21.5290 C   0  0  0  0  0  3  0  0  0  0  0  0
  -25.0220  -29.0270   20.0410 C   0  0  0  0  0  0  0  0  0  0  0  0
  -26.0530  -30.8820   21.3640 C   0  0  0  0  0  2  0  0  0  0  0  0
  -26.1630  -29.5400   20.6710 C   0  0  0  0  0  0  0  0  0  0  0  0
  -27.3780  -28.8290   20.6250 C   0  0  0  0  0  3  0  0  0  0  0  0
  -26.2960  -27.0940   19.3000 C   0  0  0  0  0  3  0  0  0  0  0  0
  -25.0790  -27.7990   19.3600 C   0  0  0  0  0  3  0  0  0  0  0  0
  -23.7690  -29.8680   20.1160 C   0  0  0  0  0  2  0  0  0  0  0  0
  -24.7880  -31.0580   22.1130 N   0  0  0  0  0  0  0  0  0  0  0  0
  -23.6260  -31.9990   23.8170 O   0  0  0  0  0  0  0  0  0  0  0  0
  -22.8980  -29.3850   22.4260 C   0  0  0  0  0  0  0  0  0  0  0  0
  -21.5720  -29.2130   22.2920 N   0  0  0  0  0  0  0  0  0  0  0  0
  -23.5850  -28.7080   23.1970 O   0  0  0  0  0  0  0  0  0  0  0  0
  -21.0840  -29.8110   21.6390 H   0  0  0  0  0  0  0  0  0  0  0  0
  -18.2030  -27.9800   22.7390 C   0  0  0  0  0  0  0  0  0  0  0  0
  -20.7630  -28.2200   22.9970 C   0  0  0  0  0  3  0  0  0  0  0  0
  -20.8600  -26.8320   22.3240 C   0  0  0  0  0  2  0  0  0  0  0  0
  -19.7450  -26.5740   21.3000 C   0  0  0  0  0  2  0  0  0  0  0  0
  -18.3710  -26.6820   21.9660 C   0  0  0  0  0  2  0  0  0  0  0  0
  -19.3260  -28.7100   23.2080 C   0  0  0  0  0  0  0  0  0  0  0  0
  -19.1190  -29.9320   23.8830 C   0  0  0  0  0  3  0  0  0  0  0  0
  -17.8160  -30.4220   24.0970 C   0  0  0  0  0  3  0  0  0  0  0  0
  -16.7070  -29.6850   23.6480 C   0  0  0  0  0  3  0  0  0  0  0  0
  -16.9000  -28.4650   22.9740 C   0  0  0  0  0  3  0  0  0  0  0  0
  -25.9860  -32.3930   23.9310 C   0  0  0  0  0  3  0  0  0  0  0  0
  -25.6690  -33.7760   24.3080 N   0  0  0  0  0  0  0  0  0  0  0  0
  -26.0310  -34.8570   23.6020 C   0  0  0  0  0  0  0  0  0  0  0  0
  -26.7400  -34.7930   22.5940 O   0  0  0  0  0  0  0  0  0  0  0  0
  -25.0410  -33.8990   25.0890 H   0  0  0  0  0  0  0  0  0  0  0  0
  -24.3250  -36.6740   23.2490 C   0  0  0  0  0  1  0  0  0  0  0  0
  -25.5300  -36.2280   24.0930 C   0  0  0  0  0  3  0  0  0  0  0  0
  -27.6310  -37.0740   25.0490 C   0  0  0  0  0  1  0  0  0  0  0  0
  -26.5720  -37.2790   24.0640 N   0  0  0  0  0  0  0  0  0  0  0  0
  -26.1630  -38.1970   24.2260 H   0  0  0  0  0  0  0  0  0  0  0  0
  -26.4840  -31.5720   25.1830 C   0  0  1  0  0  0  0  0  0  0  0  0
  -25.3750  -31.2880   26.2240 C   0  0  0  0  0  1  0  0  0  0  0  0
  -27.0730  -30.2130   24.7370 C   0  0  0  0  0  1  0  0  0  0  0  0
  -27.6290  -32.3370   25.8910 C   0  0  0  0  0  1  0  0  0  0  0  0
  -31.2260  -17.0370   20.5300 C   0  0  0  0  0  0  0  0  0  0  0  0
  -31.4270  -14.5560   20.5870 C   0  0  0  0  0  0  0  0  0  0  0  0
  -30.9850  -12.5300   19.3090 C   0  0  0  0  0  2  0  0  0  0  0  0
  -30.1080  -12.9870   18.1240 C   0  0  0  0  0  2  0  0  0  0  0  0
  -28.6110  -12.9250   18.4960 C   0  0  0  0  0  2  0  0  0  0  0  0
  -28.3030  -13.5970   19.8600 C   0  0  0  0  0  3  0  0  0  0  0  0
  -29.3280  -13.2200   20.9540 C   0  0  0  0  0  2  0  0  0  0  0  0
  -30.6790  -13.4390   20.4150 N   0  0  0  0  0  0  0  0  0  0  0  0
  -32.6320  -14.6110   20.3390 O   0  0  0  0  0  0  0  0  0  0  0  0
  -30.7090  -15.6800   20.7260 N   0  0  0  0  0  4  0  0  0  0  0  0
  -29.7180  -15.5810   20.8820 H   0  0  0  0  0  0  0  0  0  0  0  0
  -25.9150  -14.2700   20.5340 C   0  0  0  0  0  0  0  0  0  0  0  0
  -24.8040  -13.5260   20.8240 C   0  0  0  0  0  0  0  0  0  0  0  0
  -25.2210  -12.1640   20.7570 C   0  0  0  0  0  0  0  0  0  0  0  0
  -26.9310  -13.3590   20.2880 N   0  0  0  0  0  0  0  0  0  0  0  0
  -26.5170  -12.0840   20.4890 N   0  0  0  0  0  0  0  0  0  0  0  0
  -24.4390  -10.9300   20.8780 C   0  0  0  0  0  0  0  0  0  0  0  0
  -24.7930   -9.9340   21.8130 C   0  0  0  0  0  3  0  0  0  0  0  0
  -24.0240   -8.7570   21.9280 C   0  0  0  0  0  3  0  0  0  0  0  0
  -22.8860   -8.5740   21.1060 C   0  0  0  0  0  0  0  0  0  0  0  0
  -22.5490   -9.5590   20.1610 C   0  0  0  0  0  3  0  0  0  0  0  0
  -23.3200  -10.7280   20.0440 C   0  0  0  0  0  3  0  0  0  0  0  0
  -22.0940   -7.4530   21.1290 O   0  0  0  0  0  0  0  0  0  0  0  0
  -21.9090   -6.7290   22.2800 C   0  0  0  0  0  0  0  0  0  0  0  0
  -21.3730   -7.3120   23.4490 C   0  0  0  0  0  3  0  0  0  0  0  0
  -21.1290   -6.5130   24.5830 C   0  0  0  0  0  3  0  0  0  0  0  0
  -21.4120   -5.1350   24.5500 C   0  0  0  0  0  0  0  0  0  0  0  0
  -21.9450   -4.5530   23.3860 C   0  0  0  0  0  3  0  0  0  0  0  0
  -22.1870   -5.3480   22.2530 C   0  0  0  0  0  0  0  0  0  0  0  0
  -22.6780   -4.7790   21.1250 F   0  0  0  0  0  0  0  0  0  0  0  0
  -21.1740   -4.3670   25.6390 F   0  0  0  0  0  0  0  0  0  0  0  0
  -23.4210  -14.0510   21.0670 C   0  0  0  0  0  0  0  0  0  0  0  0
  -22.6530  -13.3660   21.9080 N   0  0  0  0  0  0  0  0  0  0  0  0
  -23.0260  -15.0940   20.5480 O   0  0  0  0  0  0  0  0  0  0  0  0
  -22.9940  -12.5180   22.3380 H   0  0  0  0  0  0  0  0  0  0  0  0
  -21.7220  -13.6900   22.1230 H   0  0  0  0  0  0  0  0  0  0  0  0
  -26.1210  -15.6370   20.4670 N   0  0  0  0  0  0  0  0  0  0  0  0
  -25.3530  -16.2650   20.6740 H   0  0  0  0  0  0  0  0  0  0  0  0
  -27.0030  -16.1210   20.3590 H   0  0  0  0  0  0  0  0  0  0  0  0
  -32.3480  -16.7650   18.0660 C   0  0  0  0  0  2  0  0  0  0  0  0
  -32.3480  -18.2440   18.3980 C   0  0  0  0  0  2  0  0  0  0  0  0
  -32.3650  -17.2210   19.5110 C   0  0  0  0  0  3  0  0  0  0  0  0
  1  3  1  0
  2  3  2  0
  3  9  1  0
  4  1  2  0
  5 57  1  0
  5  2  1  0
  6  4  1  0
  6  5  2  0
  7  4  1  0
  8  6  1  0
 10 13  1  0
 10  9  1  0
 11 10  1  0
 12 10  1  0
 14 15  1  0
 14 13  1  0
 16 18  1  0
 16 15  1  0
 17 28  2  0
 18 23  1  0
 19 27  1  0
 19 29  1  0
 20 26  1  0
 20 22  1  0
 21 27  1  0
 22 21  1  0
 23 22  2  0
 24 25  1  0
 24 18  2  0
 25 20  2  0
 26 19  1  0
 27 17  1  0
 29 31  2  0
 30 29  1  0
 32 30  1  0
 33 42  2  0
 33 38  1  0
 34 30  1  0
 34 38  1  0
 35 34  1  0
 36 37  1  0
 36 35  1  0
 37 33  1  0
 38 39  2  0
 39 40  1  0
 41 40  2  0
 42 41  1  0
 43 17  1  0
 43 44  1  0
 43 53  1  0
 44 47  1  0
 45 49  1  0
 45 44  1  0
 46 45  2  0
 49 48  1  0
 51 49  1  0
 51 52  1  0
 51 50  1  0
 53 56  1  1
 53 54  1  0
 55 53  1  0
 57 66  2  0
 58 66  1  0
 59 64  1  0
 60 61  1  0
 60 59  1  0
 62 61  1  0
 62 71  1  0
 62 63  1  0
 64 58  1  0
 64 63  1  0
 65 58  2  0
 66 67  1  0
 68 69  2  0
 69 88  1  0
 70 69  1  0
 70 73  1  0
 71 72  1  0
 71 68  1  0
 72 70  2  0
 73 74  1  0
 74 75  2  0
 76 79  1  0
 76 75  1  0
 77 76  2  0
 78 77  1  0
 78 73  2  0
 79 80  1  0
 80 81  1  0
 81 82  2  0
 83 82  1  0
 83 87  1  0
 84 83  2  0
 85 80  2  0
 85 84  1  0
 86 85  1  0
 88 89  1  0
 89 92  1  0
 89 91  1  0
 90 88  2  0
 93 68  1  0
 93 94  1  0
 95 93  1  0
 96 97  1  0
 96 98  1  0
 97 98  1  0
 98 57  1  0
M  ISO  4  15 101  16 101  58 100  66 100
M  END
>  <TORSDO>  (26) 
F 23

>  <SCORE>  (26) 
-11.367

>  <name>  (26) 
25

>  <ligand_id>  (26) 
25

>  <original_smiles>  (26) 
[H]c1c([H])c([H])c2c(c1[H])C([H])([H])C([H])([H])C([H])([H])C2([H])N([H])C(=O)C1([H])N(C(=O)C([H])(N([H])C(=O)C([H])(N([H])C([H])([H])[H])C([H])([H])[H])C(C([H])([H])[H])(C([H])([H])[H])C([H])([H])[H])C([H])([H])c2c([H])c(OC([H])([H])C([H])([H])C([H])([H])[N+]([H])([H])C([H])([H])c3c([H])c(C([H])([H])[H])c(C([H])([H])[H])c(C([H])(N([H])C(=O)N4C([H])([H])C([H])([H])C([H])([H])C([H])(n5nc(-c6c([H])c([H])c(Oc7c([H])c([H])c(F)c([H])c7F)c([H])c6[H])c(C(=O)N([H])[H])c5N([H])[H])C4([H])[H])C4([H])C([H])([H])C4([H])[H])c3[H])c([H])c([H])c2C1([H])[H]

>  <smiles>  (26) 
[H]c1c([H])c([H])c2c(c1[H])C([H])([H])C([H])([H])C([H])([H])C2([H])N([H])C(=O)C1([H])N(C(=O)C([H])(N([H])C(=O)C([H])(N([H])C([H])([H])[H])C([H])([H])[H])C(C([H])([H])[H])(C([H])([H])[H])C([H])([H])[H])C([H])([H])c2c([H])c(OC([H])([H])C([H])([H])C([H])([H])[N+]([H])([H])C([H])([H])c3c([H])c(C([H])([H])[H])c(C([H])([H])[H])c(C([H])(N([H])C(=O)N4C([H])([H])C([H])([H])C([H])([H])C([H])(n5nc(-c6c([H])c([H])c(Oc7c([H])c([H])c(F)c([H])c7F)c([H])c6[H])c(C(=O)N([H])[H])c5N([H])[H])C4([H])[H])C4([H])C([H])([H])C4([H])[H])c3[H])c([H])c([H])c2C1([H])[H]

$$$$
26:0:0
     RDKit          3D

 97107  0  0  1  0  0  0  0  0999 V2000
  -29.4170  -21.4720   20.5100 C   0  0  0  0  0  0  0  0  0  0  0  0
  -30.1720  -20.3180   20.6370 N   0  0  0  0  0  0  0  0  0  0  0  0
  -28.2310  -21.4060   20.1800 O   0  0  0  0  0  0  0  0  0  0  0  0
  -31.1380  -20.3900   20.9280 H   0  0  0  0  0  0  0  0  0  0  0  0
  -30.7390  -14.9610   20.6170 C   0  0  0  0  0  0  0  0  0  0  0  0
  -30.6090  -12.6640   19.5960 C   0  0  0  0  0  2  0  0  0  0  0  0
  -29.6700  -12.6330   18.3680 C   0  0  0  0  0  2  0  0  0  0  0  0
  -28.2090  -12.3610   18.7890 C   0  0  0  0  0  2  0  0  0  0  0  0
  -27.7860  -13.2330   19.9900 C   0  0  0  0  0  3  0  0  0  0  0  0
  -28.8580  -13.2210   21.1180 C   0  0  0  0  0  2  0  0  0  0  0  0
  -30.1140  -13.7160   20.5220 N   0  0  0  0  0  0  0  0  0  0  0  0
  -31.9450  -15.0130   20.3620 O   0  0  0  0  0  0  0  0  0  0  0  0
  -29.4910  -18.9710   18.7580 C   0  0  0  0  0  2  0  0  0  0  0  0
  -28.5670  -16.2890   20.6460 C   0  0  0  0  0  2  0  0  0  0  0  0
  -29.5650  -17.4630   18.7990 C   0  0  0  0  0  3  0  0  0  0  0  0
  -30.4390  -17.5390   20.0780 C   0  0  0  0  0  3  0  0  0  0  0  0
  -29.6150  -18.9650   20.2840 C   0  0  0  0  0  3  0  0  0  0  0  0
  -28.3440  -16.6220   19.1490 C   0  0  0  0  0  3  0  0  0  0  0  0
  -30.0170  -16.1800   20.6970 N   0  0  0  0  0  0  0  0  0  0  0  0
  -25.3880  -13.8800   20.6620 C   0  0  0  0  0  0  0  0  0  0  0  0
  -24.3140  -13.1110   21.0000 C   0  0  0  0  0  0  0  0  0  0  0  0
  -24.7770  -11.7610   20.9730 C   0  0  0  0  0  0  0  0  0  0  0  0
  -26.4370  -12.9870   20.4600 N   0  0  0  0  0  0  0  0  0  0  0  0
  -26.0720  -11.7130   20.7040 N   0  0  0  0  0  0  0  0  0  0  0  0
  -24.0540  -10.5010   21.1280 C   0  0  0  0  0  0  0  0  0  0  0  0
  -24.4550   -9.5410   22.0830 C   0  0  0  0  0  3  0  0  0  0  0  0
  -23.7360   -8.3370   22.2230 C   0  0  0  0  0  3  0  0  0  0  0  0
  -22.6050   -8.0890   21.4100 C   0  0  0  0  0  0  0  0  0  0  0  0
  -22.2270   -9.0380   20.4450 C   0  0  0  0  0  3  0  0  0  0  0  0
  -22.9480  -10.2340   20.3000 C   0  0  0  0  0  3  0  0  0  0  0  0
  -21.8580   -6.9380   21.4610 O   0  0  0  0  0  0  0  0  0  0  0  0
  -21.7240   -6.2230   22.6230 C   0  0  0  0  0  0  0  0  0  0  0  0
  -21.1090   -6.7730   23.7690 C   0  0  0  0  0  3  0  0  0  0  0  0
  -20.9290   -5.9780   24.9180 C   0  0  0  0  0  3  0  0  0  0  0  0
  -21.3560   -4.6360   24.9220 C   0  0  0  0  0  0  0  0  0  0  0  0
  -21.9660   -4.0870   23.7800 C   0  0  0  0  0  3  0  0  0  0  0  0
  -22.1470   -4.8790   22.6320 C   0  0  0  0  0  0  0  0  0  0  0  0
  -22.7160   -4.3400   21.5270 F   0  0  0  0  0  0  0  0  0  0  0  0
  -21.1730   -3.8690   26.0220 F   0  0  0  0  0  0  0  0  0  0  0  0
  -22.9140  -13.5920   21.2530 C   0  0  0  0  0  0  0  0  0  0  0  0
  -22.1640  -12.8800   22.0870 N   0  0  0  0  0  0  0  0  0  0  0  0
  -22.5000  -14.6370   20.7550 O   0  0  0  0  0  0  0  0  0  0  0  0
  -22.5140  -12.0350   22.5140 H   0  0  0  0  0  0  0  0  0  0  0  0
  -21.2260  -13.1850   22.3010 H   0  0  0  0  0  0  0  0  0  0  0  0
  -25.5410  -15.2580   20.5010 N   0  0  0  0  0  0  0  0  0  0  0  0
  -24.6260  -15.6720   20.6630 H   0  0  0  0  0  0  0  0  0  0  0  0
  -26.1410  -15.5670   21.2560 H   0  0  0  0  0  0  0  0  0  0  0  0
  -27.0130  -17.1920   18.8550 N   0  0  0  0  0  4  0  0  0  0  0  0
  -26.8880  -17.3280   17.8660 H   0  0  0  0  0  0  0  0  0  0  0  0
  -26.8570  -18.0680   19.3200 H   0  0  0  0  0  0  0  0  0  0  0  0
  -26.3050  -16.5390   19.1770 H   0  0  0  0  0  0  0  0  0  0  0  0
  -31.2100  -23.2030   19.8470 C   0  0  0  0  0  2  0  0  0  0  0  0
  -30.7300  -24.6500   19.7070 C   0  0  0  0  0  2  0  0  0  0  0  0
  -30.0000  -22.9160   20.7510 C   0  0  0  0  0  3  0  0  0  0  0  0
  -29.3090  -24.2130   20.0900 C   0  0  0  0  0  3  0  0  0  0  0  0
  -28.4050  -25.2830   20.8310 C   0  0  0  0  0  2  0  0  0  0  0  0
  -28.4470  -26.6700   20.3200 O   0  0  0  0  0  0  0  0  0  0  0  0
  -24.5470  -31.9730   23.2820 C   0  0  0  0  0  0  0  0  0  0  0  0
  -27.2800  -27.4450   20.3140 C   0  0  0  0  0  0  0  0  0  0  0  0
  -23.3830  -30.5440   21.6350 C   0  0  0  0  0  3  0  0  0  0  0  0
  -24.8770  -28.9920   20.2520 C   0  0  0  0  0  0  0  0  0  0  0  0
  -25.9170  -30.9020   21.4820 C   0  0  0  0  0  2  0  0  0  0  0  0
  -26.0260  -29.5180   20.8550 C   0  0  0  0  0  0  0  0  0  0  0  0
  -27.2320  -28.7570   20.8700 C   0  0  0  0  0  3  0  0  0  0  0  0
  -26.1080  -26.9560   19.6980 C   0  0  0  0  0  3  0  0  0  0  0  0
  -24.9180  -27.7140   19.6650 C   0  0  0  0  0  3  0  0  0  0  0  0
  -23.6270  -29.8480   20.2680 C   0  0  0  0  0  2  0  0  0  0  0  0
  -24.6330  -31.1580   22.1910 N   0  0  0  0  0  0  0  0  0  0  0  0
  -23.4530  -32.2440   23.7990 O   0  0  0  0  0  0  0  0  0  0  0  0
  -22.7170  -29.5320   22.5970 C   0  0  0  0  0  0  0  0  0  0  0  0
  -21.3940  -29.3460   22.4570 N   0  0  0  0  0  0  0  0  0  0  0  0
  -23.3910  -28.9170   23.4270 O   0  0  0  0  0  0  0  0  0  0  0  0
  -20.9120  -29.8950   21.7590 H   0  0  0  0  0  0  0  0  0  0  0  0
  -18.0150  -28.1490   22.9400 C   0  0  0  0  0  0  0  0  0  0  0  0
  -20.5720  -28.4070   23.2220 C   0  0  0  0  0  3  0  0  0  0  0  0
  -20.6760  -26.9760   22.6470 C   0  0  0  0  0  2  0  0  0  0  0  0
  -19.5790  -26.6540   21.6270 C   0  0  0  0  0  2  0  0  0  0  0  0
  -18.1930  -26.8010   22.2650 C   0  0  0  0  0  2  0  0  0  0  0  0
  -19.1320  -28.9110   23.3750 C   0  0  0  0  0  0  0  0  0  0  0  0
  -18.9110  -30.1750   23.9670 C   0  0  0  0  0  3  0  0  0  0  0  0
  -17.6050  -30.6760   24.1270 C   0  0  0  0  0  3  0  0  0  0  0  0
  -16.5030  -29.9110   23.7080 C   0  0  0  0  0  3  0  0  0  0  0  0
  -16.7080  -28.6510   23.1210 C   0  0  0  0  0  3  0  0  0  0  0  0
  -25.8140  -32.6240   23.9180 C   0  0  0  0  0  3  0  0  0  0  0  0
  -26.3080  -31.8810   25.2210 C   0  0  1  0  0  0  0  0  0  0  0  0
  -25.1920  -31.6480   26.2650 C   0  0  0  0  0  1  0  0  0  0  0  0
  -26.9170  -30.5050   24.8660 C   0  0  0  0  0  1  0  0  0  0  0  0
  -27.4330  -32.7000   25.8960 C   0  0  0  0  0  1  0  0  0  0  0  0
  -25.4920  -34.0280   24.2150 N   0  0  0  0  0  0  0  0  0  0  0  0
  -25.8410  -35.0670   23.4460 C   0  0  0  0  0  0  0  0  0  0  0  0
  -26.5350  -34.9460   22.4320 O   0  0  0  0  0  0  0  0  0  0  0  0
  -24.8790  -34.1950   24.9990 H   0  0  0  0  0  0  0  0  0  0  0  0
  -24.1360  -36.8620   22.9980 C   0  0  0  0  0  1  0  0  0  0  0  0
  -25.3410  -36.4620   23.8660 C   0  0  0  0  0  3  0  0  0  0  0  0
  -27.4340  -37.3570   24.7860 C   0  0  0  0  0  1  0  0  0  0  0  0
  -26.3810  -37.5100   23.7840 N   0  0  0  0  0  0  0  0  0  0  0  0
  -25.9720  -38.4340   23.8940 H   0  0  0  0  0  0  0  0  0  0  0  0
  1  2  1  0
  2  4  1  0
  3  1  2  0
  5 19  1  0
  6 11  1  0
  7  8  1  0
  7  6  1  0
  9  8  1  0
  9 23  1  0
  9 10  1  0
 11  5  1  0
 11 10  1  0
 12  5  2  0
 13 17  1  0
 14 19  1  0
 15 13  1  0
 15 18  1  0
 15 16  1  0
 16 17  1  0
 16 19  1  0
 17  2  1  0
 18 48  1  0
 18 14  1  0
 20 21  2  0
 21 40  1  0
 22 21  1  0
 22 25  1  0
 23 20  1  0
 23 24  1  0
 24 22  2  0
 25 26  1  0
 26 27  2  0
 28 31  1  0
 28 27  1  0
 29 28  2  0
 30 29  1  0
 30 25  2  0
 31 32  1  0
 32 37  2  0
 32 33  1  0
 33 34  2  0
 34 35  1  0
 35 39  1  0
 36 35  2  0
 37 36  1  0
 38 37  1  0
 40 41  1  0
 41 44  1  0
 41 43  1  0
 42 40  2  0
 45 20  1  0
 45 46  1  0
 45 47  1  0
 48 51  1  0
 48 50  1  0
 49 48  1  0
 52 54  1  0
 53 52  1  0
 53 55  1  0
 54  1  1  0
 55 54  1  0
 55 56  1  0
 57 56  1  0
 58 69  2  0
 59 57  1  0
 59 64  1  0
 60 68  1  0
 60 70  1  0
 61 67  1  0
 61 63  1  0
 62 68  1  0
 63 64  2  0
 63 62  1  0
 65 59  2  0
 66 65  1  0
 66 61  2  0
 67 60  1  0
 68 58  1  0
 70 72  2  0
 71 70  1  0
 73 71  1  0
 74 83  2  0
 74 79  1  0
 75 71  1  0
 75 79  1  0
 76 75  1  0
 77 78  1  0
 77 76  1  0
 78 74  1  0
 79 80  2  0
 80 81  1  0
 82 81  2  0
 83 82  1  0
 84 58  1  0
 84 89  1  0
 84 85  1  0
 85 88  1  1
 85 86  1  0
 87 85  1  0
 89 92  1  0
 90 94  1  0
 90 89  1  0
 91 90  2  0
 94 93  1  0
 96 94  1  0
 96 97  1  0
 96 95  1  0
M  ISO  4   5 100  19 100  56 101  57 101
M  END
>  <TORSDO>  (27) 
F 19

>  <SCORE>  (27) 
-14.395

>  <name>  (27) 
26

>  <ligand_id>  (27) 
26

>  <original_smiles>  (27) 
[H]c1c([H])c([H])c2c(c1[H])C([H])([H])C([H])([H])C([H])([H])C2([H])N([H])C(=O)C1([H])N(C(=O)C([H])(N([H])C(=O)C([H])(N([H])C([H])([H])[H])C([H])([H])[H])C(C([H])([H])[H])(C([H])([H])[H])C([H])([H])[H])C([H])([H])c2c([H])c(OC([H])([H])C3([H])C([H])([H])C([H])([H])C3([H])C(=O)N([H])C3([H])C([H])([H])C4([H])C3([H])N(C(=O)N3C([H])([H])C([H])([H])C([H])([H])C([H])(n5nc(-c6c([H])c([H])c(Oc7c([H])c([H])c(F)c([H])c7F)c([H])c6[H])c(C(=O)N([H])[H])c5N([H])[H])C3([H])[H])C([H])([H])C4([H])[N+]([H])([H])[H])c([H])c([H])c2C1([H])[H]

>  <smiles>  (27) 
[H]c1c([H])c([H])c2c(c1[H])C([H])([H])C([H])([H])C([H])([H])C2([H])N([H])C(=O)C1([H])N(C(=O)C([H])(N([H])C(=O)C([H])(N([H])C([H])([H])[H])C([H])([H])[H])C(C([H])([H])[H])(C([H])([H])[H])C([H])([H])[H])C([H])([H])c2c([H])c(OC([H])([H])C3([H])C([H])([H])C([H])([H])C3([H])C(=O)N([H])C3([H])C([H])([H])C4([H])C3([H])N(C(=O)N3C([H])([H])C([H])([H])C([H])([H])C([H])(n5nc(-c6c([H])c([H])c(Oc7c([H])c([H])c(F)c([H])c7F)c([H])c6[H])c(C(=O)N([H])[H])c5N([H])[H])C3([H])[H])C([H])([H])C4([H])[N+]([H])([H])[H])c([H])c([H])c2C1([H])[H]

$$$$
27:0:0
     RDKit          3D

 93102  0  0  1  0  0  0  0  0999 V2000
  -28.5690  -24.1650   22.8010 C   0  0  0  0  0  3  0  0  0  0  0  0
  -28.8330  -22.9730   22.0980 C   0  0  0  0  0  3  0  0  0  0  0  0
  -28.4000  -25.3850   22.1170 C   0  0  0  0  0  3  0  0  0  0  0  0
  -28.7570  -24.2250   20.0090 C   0  0  0  0  0  3  0  0  0  0  0  0
  -28.9180  -22.9760   20.6880 C   0  0  0  0  0  0  0  0  0  0  0  0
  -28.5000  -25.4400   20.7120 C   0  0  0  0  0  0  0  0  0  0  0  0
  -28.4410  -26.6720   20.0690 O   0  0  0  0  0  0  0  0  0  0  0  0
  -24.6350  -31.8810   23.2150 C   0  0  0  0  0  0  0  0  0  0  0  0
  -27.2820  -27.4260   20.1260 C   0  0  0  0  0  0  0  0  0  0  0  0
  -23.4310  -30.4770   21.5730 C   0  0  0  0  0  3  0  0  0  0  0  0
  -24.8870  -28.9430   20.1440 C   0  0  0  0  0  0  0  0  0  0  0  0
  -25.9570  -30.8410   21.3710 C   0  0  0  0  0  2  0  0  0  0  0  0
  -26.0460  -29.4650   20.7320 C   0  0  0  0  0  0  0  0  0  0  0  0
  -27.2490  -28.7140   20.7210 C   0  0  0  0  0  3  0  0  0  0  0  0
  -26.1070  -26.9240   19.5300 C   0  0  0  0  0  3  0  0  0  0  0  0
  -24.9130  -27.6730   19.5390 C   0  0  0  0  0  3  0  0  0  0  0  0
  -23.6390  -29.7980   20.1930 C   0  0  0  0  0  2  0  0  0  0  0  0
  -24.6930  -31.0840   22.1100 N   0  0  0  0  0  0  0  0  0  0  0  0
  -23.5540  -32.1470   23.7590 O   0  0  0  0  0  0  0  0  0  0  0  0
  -22.7870  -29.4530   22.5360 C   0  0  0  0  0  0  0  0  0  0  0  0
  -21.4600  -29.2700   22.4200 N   0  0  0  0  0  0  0  0  0  0  0  0
  -23.4760  -28.8250   23.3440 O   0  0  0  0  0  0  0  0  0  0  0  0
  -20.9670  -29.8220   21.7320 H   0  0  0  0  0  0  0  0  0  0  0  0
  -18.0930  -28.0680   22.9390 C   0  0  0  0  0  0  0  0  0  0  0  0
  -20.6510  -28.3290   23.1960 C   0  0  0  0  0  3  0  0  0  0  0  0
  -20.7510  -26.9010   22.6150 C   0  0  0  0  0  2  0  0  0  0  0  0
  -19.6480  -26.5840   21.6040 C   0  0  0  0  0  2  0  0  0  0  0  0
  -18.2660  -26.7270   22.2490 C   0  0  0  0  0  2  0  0  0  0  0  0
  -19.2140  -28.8290   23.3670 C   0  0  0  0  0  0  0  0  0  0  0  0
  -18.9970  -30.0880   23.9680 C   0  0  0  0  0  3  0  0  0  0  0  0
  -17.6930  -30.5870   24.1450 C   0  0  0  0  0  3  0  0  0  0  0  0
  -16.5880  -29.8230   23.7340 C   0  0  0  0  0  3  0  0  0  0  0  0
  -16.7880  -28.5670   23.1350 C   0  0  0  0  0  3  0  0  0  0  0  0
  -25.9180  -32.5180   23.8350 C   0  0  0  0  0  3  0  0  0  0  0  0
  -25.6010  -33.9120   24.1730 N   0  0  0  0  0  0  0  0  0  0  0  0
  -25.9280  -34.9720   23.4190 C   0  0  0  0  0  0  0  0  0  0  0  0
  -26.5960  -34.8760   22.3860 O   0  0  0  0  0  0  0  0  0  0  0  0
  -25.0020  -34.0590   24.9720 H   0  0  0  0  0  0  0  0  0  0  0  0
  -24.1860  -36.7550   23.0800 C   0  0  0  0  0  1  0  0  0  0  0  0
  -25.4320  -36.3540   23.8850 C   0  0  0  0  0  3  0  0  0  0  0  0
  -27.5650  -37.2460   24.7120 C   0  0  0  0  0  1  0  0  0  0  0  0
  -26.4590  -37.4140   23.7730 N   0  0  0  0  0  0  0  0  0  0  0  0
  -26.0490  -38.3320   23.9230 H   0  0  0  0  0  0  0  0  0  0  0  0
  -26.4500  -31.7430   25.1020 C   0  0  1  0  0  0  0  0  0  0  0  0
  -25.3680  -31.4910   26.1770 C   0  0  0  0  0  1  0  0  0  0  0  0
  -27.0400  -30.3720   24.6960 C   0  0  0  0  0  1  0  0  0  0  0  0
  -27.6000  -32.5410   25.7600 C   0  0  0  0  0  1  0  0  0  0  0  0
  -29.2290  -21.6710   19.9050 C   0  0  0  0  0  2  0  0  0  0  0  0
  -29.5620  -19.1730   20.2080 C   0  0  0  0  0  0  0  0  0  0  0  0
  -29.1010  -20.3780   20.6280 N   0  0  0  0  0  0  0  0  0  0  0  0
  -30.1990  -19.0580   19.1600 O   0  0  0  0  0  0  0  0  0  0  0  0
  -28.5740  -20.3950   21.4900 H   0  0  0  0  0  0  0  0  0  0  0  0
  -30.7560  -14.5780   20.1280 C   0  0  0  0  0  0  0  0  0  0  0  0
  -30.3690  -12.4350   18.9440 C   0  0  0  0  0  2  0  0  0  0  0  0
  -29.3720  -12.6380   17.7860 C   0  0  0  0  0  2  0  0  0  0  0  0
  -27.9250  -12.4780   18.2880 C   0  0  0  0  0  2  0  0  0  0  0  0
  -27.6490  -13.3130   19.5650 C   0  0  0  0  0  3  0  0  0  0  0  0
  -28.7530  -13.1100   20.6240 C   0  0  0  0  0  2  0  0  0  0  0  0
  -30.0430  -13.4190   19.9940 N   0  0  0  0  0  0  0  0  0  0  0  0
  -31.8700  -14.7050   19.6080 O   0  0  0  0  0  0  0  0  0  0  0  0
  -30.2870  -17.6540   22.1630 C   0  0  0  0  0  2  0  0  0  0  0  0
  -31.0620  -16.3920   21.7580 C   0  0  0  0  0  2  0  0  0  0  0  0
  -29.1750  -16.5200   20.3410 C   0  0  0  0  0  2  0  0  0  0  0  0
  -29.2460  -17.9070   21.0700 C   0  0  0  0  0  3  0  0  0  0  0  0
  -30.2150  -15.6000   20.8610 N   0  0  0  0  0  0  0  0  0  0  0  0
  -25.3000  -13.9360   20.4030 C   0  0  0  0  0  0  0  0  0  0  0  0
  -24.2440  -13.1680   20.8130 C   0  0  0  0  0  0  0  0  0  0  0  0
  -24.6890  -11.8140   20.7430 C   0  0  0  0  0  0  0  0  0  0  0  0
  -26.3220  -13.0460   20.1080 N   0  0  0  0  0  0  0  0  0  0  0  0
  -25.9630  -11.7660   20.3730 N   0  0  0  0  0  0  0  0  0  0  0  0
  -23.9600  -10.5550   20.9480 C   0  0  0  0  0  0  0  0  0  0  0  0
  -24.4140   -9.5820   21.8630 C   0  0  0  0  0  3  0  0  0  0  0  0
  -23.6860   -8.3890   22.0580 C   0  0  0  0  0  3  0  0  0  0  0  0
  -22.4900   -8.1620   21.3380 C   0  0  0  0  0  0  0  0  0  0  0  0
  -22.0550   -9.1250   20.4100 C   0  0  0  0  0  3  0  0  0  0  0  0
  -22.7840  -10.3100   20.2140 C   0  0  0  0  0  3  0  0  0  0  0  0
  -21.7310   -7.0210   21.4410 O   0  0  0  0  0  0  0  0  0  0  0  0
  -21.6910   -6.2860   22.5990 C   0  0  0  0  0  0  0  0  0  0  0  0
  -21.2990   -6.8570   23.8300 C   0  0  0  0  0  3  0  0  0  0  0  0
  -21.2040   -6.0500   24.9810 C   0  0  0  0  0  3  0  0  0  0  0  0
  -21.4920   -4.6740   24.9030 C   0  0  0  0  0  0  0  0  0  0  0  0
  -21.8790   -4.1040   23.6780 C   0  0  0  0  0  3  0  0  0  0  0  0
  -21.9740   -4.9080   22.5280 C   0  0  0  0  0  0  0  0  0  0  0  0
  -22.3260   -4.3500   21.3450 F   0  0  0  0  0  0  0  0  0  0  0  0
  -21.3940   -3.8960   26.0070 F   0  0  0  0  0  0  0  0  0  0  0  0
  -22.8660  -13.6540   21.1570 C   0  0  0  0  0  0  0  0  0  0  0  0
  -22.1750  -12.9550   22.0510 N   0  0  0  0  0  0  0  0  0  0  0  0
  -22.4120  -14.6890   20.6690 O   0  0  0  0  0  0  0  0  0  0  0  0
  -22.5570  -12.1170   22.4640 H   0  0  0  0  0  0  0  0  0  0  0  0
  -21.2530  -13.2610   22.3250 H   0  0  0  0  0  0  0  0  0  0  0  0
  -25.4670  -15.3070   20.2340 N   0  0  0  0  0  0  0  0  0  0  0  0
  -24.7160  -15.9650   20.4140 H   0  0  0  0  0  0  0  0  0  0  0  0
  -26.2970  -15.7480   19.8620 H   0  0  0  0  0  0  0  0  0  0  0  0
  2  1  2  0
  3  1  1  0
  4  5  2  0
  4  6  1  0
  5  2  1  0
  6  3  2  0
  7  9  1  0
  7  6  1  0
  8 19  2  0
  9 14  1  0
 10 18  1  0
 10 20  1  0
 11 17  1  0
 11 13  1  0
 12 18  1  0
 13 12  1  0
 14 13  2  0
 15 16  1  0
 15  9  2  0
 16 11  2  0
 17 10  1  0
 18  8  1  0
 20 22  2  0
 21 20  1  0
 23 21  1  0
 24 33  2  0
 24 29  1  0
 25 21  1  0
 25 29  1  0
 26 25  1  0
 27 28  1  0
 27 26  1  0
 28 24  1  0
 29 30  2  0
 30 31  1  0
 32 31  2  0
 33 32  1  0
 34  8  1  0
 34 35  1  0
 34 44  1  0
 35 38  1  0
 36 40  1  0
 36 35  1  0
 37 36  2  0
 40 39  1  0
 42 40  1  0
 42 43  1  0
 42 41  1  0
 44 47  1  1
 44 45  1  0
 46 44  1  0
 48 50  1  0
 48  5  1  0
 49 50  1  0
 50 52  1  0
 51 49  2  0
 53 65  1  0
 54 59  1  0
 55 56  1  0
 55 54  1  0
 57 56  1  0
 57 69  1  0
 57 58  1  0
 59 53  1  0
 59 58  1  0
 60 53  2  0
 62 61  1  0
 63 65  1  0
 63 64  1  0
 64 49  1  0
 64 61  1  0
 65 62  1  0
 66 67  2  0
 67 86  1  0
 68 67  1  0
 68 71  1  0
 69 70  1  0
 69 66  1  0
 70 68  2  0
 71 72  1  0
 72 73  2  0
 74 77  1  0
 74 73  1  0
 75 74  2  0
 76 75  1  0
 76 71  2  0
 77 78  1  0
 78 79  1  0
 79 80  2  0
 81 80  1  0
 81 85  1  0
 82 81  2  0
 83 78  2  0
 83 82  1  0
 84 83  1  0
 86 87  1  0
 87 90  1  0
 87 89  1  0
 88 86  2  0
 91 66  1  0
 91 92  1  0
 93 91  1  0
M  ISO  4   6 101   7 101  53 100  65 100
M  END
>  <TORSDO>  (28) 
F 18

>  <SCORE>  (28) 
-14.360

>  <name>  (28) 
27

>  <ligand_id>  (28) 
27

>  <original_smiles>  (28) 
[H]c1c([H])c(Oc2c([H])c([H])c3c(c2[H])C([H])([H])N(C(=O)C([H])(N([H])C(=O)C([H])(N([H])C([H])([H])[H])C([H])([H])[H])C(C([H])([H])[H])(C([H])([H])[H])C([H])([H])[H])C([H])(C(=O)N([H])C2([H])c4c([H])c([H])c([H])c([H])c4C([H])([H])C([H])([H])C2([H])[H])C3([H])[H])c([H])c(C([H])([H])N([H])C(=O)C2([H])C([H])([H])N(C(=O)N3C([H])([H])C([H])([H])C([H])([H])C([H])(n4nc(-c5c([H])c([H])c(Oc6c([H])c([H])c(F)c([H])c6F)c([H])c5[H])c(C(=O)N([H])[H])c4N([H])[H])C3([H])[H])C([H])([H])C2([H])[H])c1[H]

>  <smiles>  (28) 
[H]c1c([H])c(Oc2c([H])c([H])c3c(c2[H])C([H])([H])N(C(=O)C([H])(N([H])C(=O)C([H])(N([H])C([H])([H])[H])C([H])([H])[H])C(C([H])([H])[H])(C([H])([H])[H])C([H])([H])[H])C([H])(C(=O)N([H])C2([H])c4c([H])c([H])c([H])c([H])c4C([H])([H])C([H])([H])C2([H])[H])C3([H])[H])c([H])c(C([H])([H])N([H])C(=O)C2([H])C([H])([H])N(C(=O)N3C([H])([H])C([H])([H])C([H])([H])C([H])(n4nc(-c5c([H])c([H])c(Oc6c([H])c([H])c(F)c([H])c6F)c([H])c5[H])c(C(=O)N([H])[H])c4N([H])[H])C3([H])[H])C([H])([H])C2([H])[H])c1[H]

$$$$
28:0:0
     RDKit          3D

102111  0  0  1  0  0  0  0  0999 V2000
  -27.9140  -21.9490   21.6530 C   0  0  0  0  0  2  0  0  0  0  0  0
  -27.5500  -24.4870   21.7780 C   0  0  0  0  0  0  0  0  0  0  0  0
  -27.1840  -23.1960   21.8690 N   0  0  0  0  0  0  0  0  0  0  0  0
  -26.7280  -25.3380   22.1090 O   0  0  0  0  0  0  0  0  0  0  0  0
  -26.2340  -23.0680   22.1960 H   0  0  0  0  0  0  0  0  0  0  0  0
  -28.9440  -24.9180   21.2600 C   0  0  0  0  0  3  0  0  0  0  0  0
  -29.2590  -24.3430   19.9330 N   0  0  0  0  0  4  0  0  0  0  0  0
  -29.3090  -23.3460   19.9670 H   0  0  0  0  0  0  0  0  0  0  0  0
  -30.1400  -24.7000   19.6030 H   0  0  0  0  0  0  0  0  0  0  0  0
  -28.5540  -24.6220   19.2700 H   0  0  0  0  0  0  0  0  0  0  0  0
  -29.1290  -26.4580   21.2000 C   0  0  0  0  0  2  0  0  0  0  0  0
  -28.5270  -26.9400   20.0000 O   0  0  0  0  0  0  0  0  0  0  0  0
  -24.6000  -31.9510   23.2500 C   0  0  0  0  0  0  0  0  0  0  0  0
  -27.3500  -27.6320   20.1180 C   0  0  0  0  0  0  0  0  0  0  0  0
  -23.4280  -30.5510   21.5780 C   0  0  0  0  0  3  0  0  0  0  0  0
  -24.9200  -29.0560   20.1510 C   0  0  0  0  0  0  0  0  0  0  0  0
  -25.9440  -30.9650   21.4040 C   0  0  0  0  0  2  0  0  0  0  0  0
  -26.0610  -29.6000   20.7590 C   0  0  0  0  0  0  0  0  0  0  0  0
  -27.2800  -28.8930   20.7480 C   0  0  0  0  0  3  0  0  0  0  0  0
  -26.2000  -27.0970   19.5040 C   0  0  0  0  0  3  0  0  0  0  0  0
  -24.9800  -27.7980   19.5280 C   0  0  0  0  0  3  0  0  0  0  0  0
  -23.6590  -29.8880   20.1940 C   0  0  0  0  0  2  0  0  0  0  0  0
  -24.6740  -31.1680   22.1370 N   0  0  0  0  0  0  0  0  0  0  0  0
  -23.5110  -32.2000   23.7850 O   0  0  0  0  0  0  0  0  0  0  0  0
  -22.7870  -29.5090   22.5200 C   0  0  0  0  0  0  0  0  0  0  0  0
  -21.4680  -29.3060   22.3790 N   0  0  0  0  0  0  0  0  0  0  0  0
  -23.4730  -28.8840   23.3350 O   0  0  0  0  0  0  0  0  0  0  0  0
  -20.9780  -29.8630   21.6920 H   0  0  0  0  0  0  0  0  0  0  0  0
  -18.1060  -28.0640   22.8280 C   0  0  0  0  0  0  0  0  0  0  0  0
  -20.6580  -28.3480   23.1280 C   0  0  0  0  0  3  0  0  0  0  0  0
  -20.7830  -26.9280   22.5300 C   0  0  0  0  0  2  0  0  0  0  0  0
  -19.6940  -26.6070   21.5030 C   0  0  0  0  0  2  0  0  0  0  0  0
  -18.3050  -26.7260   22.1370 C   0  0  0  0  0  2  0  0  0  0  0  0
  -19.2120  -28.8330   23.2800 C   0  0  0  0  0  0  0  0  0  0  0  0
  -18.9730  -30.0860   23.8840 C   0  0  0  0  0  3  0  0  0  0  0  0
  -17.6610  -30.5710   24.0460 C   0  0  0  0  0  3  0  0  0  0  0  0
  -16.5700  -29.7980   23.6110 C   0  0  0  0  0  3  0  0  0  0  0  0
  -16.7930  -28.5480   23.0080 C   0  0  0  0  0  3  0  0  0  0  0  0
  -25.8720  -32.5920   23.8880 C   0  0  0  0  0  3  0  0  0  0  0  0
  -25.5540  -33.9900   24.2050 N   0  0  0  0  0  0  0  0  0  0  0  0
  -25.8990  -35.0390   23.4460 C   0  0  0  0  0  0  0  0  0  0  0  0
  -26.5940  -34.9310   22.4300 O   0  0  0  0  0  0  0  0  0  0  0  0
  -24.9440  -34.1490   24.9930 H   0  0  0  0  0  0  0  0  0  0  0  0
  -24.1750  -36.8220   23.0350 C   0  0  0  0  0  1  0  0  0  0  0  0
  -25.3950  -36.4260   23.8830 C   0  0  0  0  0  3  0  0  0  0  0  0
  -27.5040  -37.3200   24.7660 C   0  0  0  0  0  1  0  0  0  0  0  0
  -26.4260  -37.4830   23.7940 N   0  0  0  0  0  0  0  0  0  0  0  0
  -26.0140  -38.4020   23.9290 H   0  0  0  0  0  0  0  0  0  0  0  0
  -26.3760  -31.8270   25.1740 C   0  0  1  0  0  0  0  0  0  0  0  0
  -25.2650  -31.5760   26.2200 C   0  0  0  0  0  1  0  0  0  0  0  0
  -26.9820  -30.4570   24.7890 C   0  0  0  0  0  1  0  0  0  0  0  0
  -27.5030  -32.6360   25.8580 C   0  0  0  0  0  1  0  0  0  0  0  0
  -27.2010  -21.1170   20.5620 C   0  0  0  0  0  2  0  0  0  0  0  0
  -27.8590  -19.8280   20.2500 N   0  0  0  0  0  4  0  0  0  0  0  0
  -27.8330  -19.2170   21.0520 H   0  0  0  0  0  0  0  0  0  0  0  0
  -27.2980  -19.3950   19.5350 H   0  0  0  0  0  0  0  0  0  0  0  0
  -29.2470  -19.9290   19.7420 C   0  0  0  0  0  2  0  0  0  0  0  0
  -31.9140  -17.9230   18.0380 C   0  0  0  0  0  2  0  0  0  0  0  0
  -30.9390  -19.1180   18.0060 C   0  0  0  0  0  2  0  0  0  0  0  0
  -29.8680  -16.2510   18.2580 C   0  0  0  0  0  2  0  0  0  0  0  0
  -31.2940  -16.6910   18.7150 C   0  0  0  0  0  3  0  0  0  0  0  0
  -29.5160  -17.4010   19.2600 C   0  0  0  0  0  3  0  0  0  0  0  0
  -29.5750  -18.8420   18.6990 C   0  0  0  0  0  3  0  0  0  0  0  0
  -30.6920  -16.9050   20.1160 C   0  0  0  0  0  3  0  0  0  0  0  0
  -31.1670  -14.5950   20.9500 C   0  0  0  0  0  0  0  0  0  0  0  0
  -30.8990  -12.4250   19.8750 C   0  0  0  0  0  2  0  0  0  0  0  0
  -30.0840  -12.6670   18.5860 C   0  0  0  0  0  2  0  0  0  0  0  0
  -28.5700  -12.6100   18.8740 C   0  0  0  0  0  2  0  0  0  0  0  0
  -28.1500  -13.4750   20.0930 C   0  0  0  0  0  3  0  0  0  0  0  0
  -29.0900  -13.2280   21.2980 C   0  0  0  0  0  2  0  0  0  0  0  0
  -30.4790  -13.4330   20.8530 N   0  0  0  0  0  0  0  0  0  0  0  0
  -32.3820  -14.6980   20.7700 O   0  0  0  0  0  0  0  0  0  0  0  0
  -30.3700  -15.6670   20.8490 N   0  0  0  0  0  0  0  0  0  0  0  0
  -29.3930  -15.4740   20.9930 H   0  0  0  0  0  0  0  0  0  0  0  0
  -25.7240  -14.1950   20.5680 C   0  0  0  0  0  0  0  0  0  0  0  0
  -24.5940  -13.4740   20.8450 C   0  0  0  0  0  0  0  0  0  0  0  0
  -25.0000  -12.1060   20.8760 C   0  0  0  0  0  0  0  0  0  0  0  0
  -26.7470  -13.2670   20.4450 N   0  0  0  0  0  0  0  0  0  0  0  0
  -26.3100  -12.0080   20.6910 N   0  0  0  0  0  0  0  0  0  0  0  0
  -24.2080  -10.8770   21.0110 C   0  0  0  0  0  0  0  0  0  0  0  0
  -24.5460   -9.8830   21.9550 C   0  0  0  0  0  3  0  0  0  0  0  0
  -23.7610   -8.7170   22.0750 C   0  0  0  0  0  3  0  0  0  0  0  0
  -22.6240   -8.5360   21.2500 C   0  0  0  0  0  0  0  0  0  0  0  0
  -22.3080   -9.5190   20.2970 C   0  0  0  0  0  3  0  0  0  0  0  0
  -23.0930  -10.6770   20.1740 C   0  0  0  0  0  3  0  0  0  0  0  0
  -21.8180   -7.4230   21.2800 O   0  0  0  0  0  0  0  0  0  0  0  0
  -21.6880   -6.6630   22.4140 C   0  0  0  0  0  0  0  0  0  0  0  0
  -21.2410   -7.2150   23.6350 C   0  0  0  0  0  3  0  0  0  0  0  0
  -21.0530   -6.3830   24.7560 C   0  0  0  0  0  3  0  0  0  0  0  0
  -21.3040   -5.0000   24.6590 C   0  0  0  0  0  0  0  0  0  0  0  0
  -21.7430   -4.4490   23.4420 C   0  0  0  0  0  3  0  0  0  0  0  0
  -21.9330   -5.2790   22.3230 C   0  0  0  0  0  0  0  0  0  0  0  0
  -22.3380   -4.7400   21.1480 F   0  0  0  0  0  0  0  0  0  0  0  0
  -21.1170   -4.1980   25.7340 F   0  0  0  0  0  0  0  0  0  0  0  0
  -23.1980  -14.0130   20.9700 C   0  0  0  0  0  0  0  0  0  0  0  0
  -22.3650  -13.3680   21.7800 N   0  0  0  0  0  0  0  0  0  0  0  0
  -22.8500  -15.0360   20.3830 O   0  0  0  0  0  0  0  0  0  0  0  0
  -22.6550  -12.5380   22.2750 H   0  0  0  0  0  0  0  0  0  0  0  0
  -21.4240  -13.7130   21.9050 H   0  0  0  0  0  0  0  0  0  0  0  0
  -25.9590  -15.5530   20.3860 N   0  0  0  0  0  0  0  0  0  0  0  0
  -25.2090  -16.2340   20.4240 H   0  0  0  0  0  0  0  0  0  0  0  0
  -26.8260  -15.9240   20.0230 H   0  0  0  0  0  0  0  0  0  0  0  0
  1  3  1  0
  2  3  1  0
  2  4  2  0
  3  5  1  0
  6 11  1  0
  6  2  1  0
  7  8  1  0
  7  6  1  0
  9  7  1  0
 10  7  1  0
 12 14  1  0
 12 11  1  0
 13 24  2  0
 14 19  1  0
 15 23  1  0
 15 25  1  0
 16 22  1  0
 16 18  1  0
 17 23  1  0
 18 17  1  0
 19 18  2  0
 20 21  1  0
 20 14  2  0
 21 16  2  0
 22 15  1  0
 23 13  1  0
 25 27  2  0
 26 25  1  0
 28 26  1  0
 29 38  2  0
 29 34  1  0
 30 26  1  0
 30 34  1  0
 31 30  1  0
 32 33  1  0
 32 31  1  0
 33 29  1  0
 34 35  2  0
 35 36  1  0
 37 36  2  0
 38 37  1  0
 39 13  1  0
 39 40  1  0
 39 49  1  0
 40 43  1  0
 41 45  1  0
 41 40  1  0
 42 41  2  0
 45 44  1  0
 47 45  1  0
 47 48  1  0
 47 46  1  0
 49 52  1  1
 49 50  1  0
 51 49  1  0
 53  1  1  0
 54 53  1  0
 54 55  1  0
 56 54  1  0
 57 54  1  0
 59 58  1  0
 59 63  1  0
 60 61  1  0
 61 58  1  0
 61 64  1  0
 62 60  1  0
 62 64  1  0
 63 62  1  0
 63 57  1  0
 64 73  1  0
 66 71  1  0
 67 68  1  0
 67 66  1  0
 69 68  1  0
 69 78  1  0
 69 70  1  0
 71 65  1  0
 71 70  1  0
 72 65  2  0
 73 65  1  0
 73 74  1  0
 75 76  2  0
 76 77  1  0
 76 95  1  0
 77 80  1  0
 78 75  1  0
 78 79  1  0
 79 77  2  0
 80 81  1  0
 81 82  2  0
 83 86  1  0
 83 82  1  0
 84 83  2  0
 85 84  1  0
 85 80  2  0
 86 87  1  0
 87 88  1  0
 88 89  2  0
 90 89  1  0
 90 94  1  0
 91 90  2  0
 92 87  2  0
 92 91  1  0
 93 92  1  0
 95 96  1  0
 96 99  1  0
 96 98  1  0
 97 95  2  0
100101  1  0
100 75  1  0
102100  1  0
M  ISO  4  11 101  12 101  65 100  73 100
M  END
>  <TORSDO>  (29) 
F 24

>  <SCORE>  (29) 
-11.786

>  <name>  (29) 
28

>  <ligand_id>  (29) 
28

>  <original_smiles>  (29) 
[H]c1c([H])c([H])c2c(c1[H])C([H])([H])C([H])([H])C([H])([H])C2([H])N([H])C(=O)C1([H])N(C(=O)C([H])(N([H])C(=O)C([H])(N([H])C([H])([H])[H])C([H])([H])[H])C(C([H])([H])[H])(C([H])([H])[H])C([H])([H])[H])C([H])([H])c2c([H])c(OC([H])([H])C([H])(C(=O)N([H])C([H])([H])C([H])([H])[N+]([H])([H])C([H])([H])C3([H])C([H])([H])C([H])([H])C4([H])C([H])([H])C3([H])C4([H])N([H])C(=O)N3C([H])([H])C([H])([H])C([H])([H])C([H])(n4nc(-c5c([H])c([H])c(Oc6c([H])c([H])c(F)c([H])c6F)c([H])c5[H])c(C(=O)N([H])[H])c4N([H])[H])C3([H])[H])[N+]([H])([H])[H])c([H])c([H])c2C1([H])[H]

>  <smiles>  (29) 
[H]c1c([H])c([H])c2c(c1[H])C([H])([H])C([H])([H])C([H])([H])C2([H])N([H])C(=O)C1([H])N(C(=O)C([H])(N([H])C(=O)C([H])(N([H])C([H])([H])[H])C([H])([H])[H])C(C([H])([H])[H])(C([H])([H])[H])C([H])([H])[H])C([H])([H])c2c([H])c(OC([H])([H])C([H])(C(=O)N([H])C([H])([H])C([H])([H])[N+]([H])([H])C([H])([H])C3([H])C([H])([H])C([H])([H])C4([H])C([H])([H])C3([H])C4([H])N([H])C(=O)N3C([H])([H])C([H])([H])C([H])([H])C([H])(n4nc(-c5c([H])c([H])c(Oc6c([H])c([H])c(F)c([H])c6F)c([H])c5[H])c(C(=O)N([H])[H])c4N([H])[H])C3([H])[H])[N+]([H])([H])[H])c([H])c([H])c2C1([H])[H]

$$$$
29:0:0
     RDKit          3D

 95103  0  0  1  0  0  0  0  0999 V2000
  -28.3590  -21.9310   20.1560 C   0  0  0  0  0  2  0  0  0  0  0  0
  -30.1920  -20.9330   21.6610 C   0  0  0  0  0  3  0  0  0  0  0  0
  -29.2430  -19.5100   19.9400 C   0  0  0  0  0  3  0  0  0  0  0  0
  -29.3080  -20.7820   20.5780 C   0  0  0  0  0  0  0  0  0  0  0  0
  -31.0200  -19.8670   22.0760 C   0  0  0  0  0  0  0  0  0  0  0  0
  -30.0530  -18.4060   20.3480 C   0  0  0  0  0  0  0  0  0  0  0  0
  -30.9730  -18.6090   21.4120 C   0  0  0  0  0  0  0  0  0  0  0  0
  -31.9510  -20.1090   23.2530 C   0  0  0  0  0  1  0  0  0  0  0  0
  -31.9210  -17.4850   21.8100 C   0  0  0  0  0  1  0  0  0  0  0  0
  -29.9900  -17.0750   19.5450 C   0  0  0  0  0  2  0  0  0  0  0  0
  -30.6130  -14.6710   19.9720 C   0  0  0  0  0  0  0  0  0  0  0  0
  -30.2960  -12.4580   18.9360 C   0  0  0  0  0  2  0  0  0  0  0  0
  -29.2920  -12.6240   17.7750 C   0  0  0  0  0  2  0  0  0  0  0  0
  -27.8440  -12.4780   18.2800 C   0  0  0  0  0  2  0  0  0  0  0  0
  -27.5600  -13.3210   19.5530 C   0  0  0  0  0  3  0  0  0  0  0  0
  -28.6820  -13.1620   20.6060 C   0  0  0  0  0  2  0  0  0  0  0  0
  -29.9640  -13.4710   19.9550 N   0  0  0  0  0  0  0  0  0  0  0  0
  -31.7500  -14.8040   19.5140 O   0  0  0  0  0  0  0  0  0  0  0  0
  -29.8500  -15.7620   20.2410 N   0  0  0  0  0  0  0  0  0  0  0  0
  -28.9420  -15.5750   20.6370 H   0  0  0  0  0  0  0  0  0  0  0  0
  -25.2110  -13.8890   20.4290 C   0  0  0  0  0  0  0  0  0  0  0  0
  -24.1720  -13.1010   20.8430 C   0  0  0  0  0  0  0  0  0  0  0  0
  -24.6380  -11.7530   20.7550 C   0  0  0  0  0  0  0  0  0  0  0  0
  -26.2440  -13.0220   20.1120 N   0  0  0  0  0  0  0  0  0  0  0  0
  -25.9070  -11.7310   20.3680 N   0  0  0  0  0  0  0  0  0  0  0  0
  -23.9310  -10.4820   20.9600 C   0  0  0  0  0  0  0  0  0  0  0  0
  -24.3940   -9.5170   21.8820 C   0  0  0  0  0  3  0  0  0  0  0  0
  -23.6840   -8.3130   22.0750 C   0  0  0  0  0  3  0  0  0  0  0  0
  -22.4970   -8.0640   21.3460 C   0  0  0  0  0  0  0  0  0  0  0  0
  -22.0520   -9.0160   20.4120 C   0  0  0  0  0  3  0  0  0  0  0  0
  -22.7630  -10.2120   20.2160 C   0  0  0  0  0  3  0  0  0  0  0  0
  -21.7570   -6.9100   21.4470 O   0  0  0  0  0  0  0  0  0  0  0  0
  -21.7150   -6.1820   22.6080 C   0  0  0  0  0  0  0  0  0  0  0  0
  -21.2580   -6.7430   23.8220 C   0  0  0  0  0  3  0  0  0  0  0  0
  -21.1650   -5.9410   24.9770 C   0  0  0  0  0  3  0  0  0  0  0  0
  -21.5200   -4.5790   24.9190 C   0  0  0  0  0  0  0  0  0  0  0  0
  -21.9680   -4.0190   23.7100 C   0  0  0  0  0  3  0  0  0  0  0  0
  -22.0630   -4.8180   22.5580 C   0  0  0  0  0  0  0  0  0  0  0  0
  -22.4770   -4.2680   21.3910 F   0  0  0  0  0  0  0  0  0  0  0  0
  -21.4210   -3.8070   26.0250 F   0  0  0  0  0  0  0  0  0  0  0  0
  -22.7910  -13.5640   21.2060 C   0  0  0  0  0  0  0  0  0  0  0  0
  -22.1160  -12.8410   22.0920 N   0  0  0  0  0  0  0  0  0  0  0  0
  -22.3200  -14.6010   20.7400 O   0  0  0  0  0  0  0  0  0  0  0  0
  -22.5080  -12.0000   22.4870 H   0  0  0  0  0  0  0  0  0  0  0  0
  -21.1930  -13.1340   22.3800 H   0  0  0  0  0  0  0  0  0  0  0  0
  -25.3550  -15.2650   20.2760 N   0  0  0  0  0  0  0  0  0  0  0  0
  -24.5870  -15.9020   20.4560 H   0  0  0  0  0  0  0  0  0  0  0  0
  -26.1700  -15.7280   19.8930 H   0  0  0  0  0  0  0  0  0  0  0  0
  -28.8420  -23.3490   20.3070 N   0  0  0  0  0  4  0  0  0  0  0  0
  -28.8730  -23.7400   19.3790 H   0  0  0  0  0  0  0  0  0  0  0  0
  -29.7960  -23.3130   20.6270 H   0  0  0  0  0  0  0  0  0  0  0  0
  -26.5180  -24.1720   21.0160 C   0  0  0  0  0  1  0  0  0  0  0  0
  -28.0490  -24.2920   21.1830 C   0  0  0  0  0  3  0  0  0  0  0  0
  -28.5520  -25.7920   21.2090 C   0  0  0  0  0  2  0  0  0  0  0  0
  -28.2920  -26.6540   20.0720 O   0  0  0  0  0  0  0  0  0  0  0  0
  -24.5090  -31.9110   23.2130 C   0  0  0  0  0  0  0  0  0  0  0  0
  -27.1630  -27.4530   20.1230 C   0  0  0  0  0  0  0  0  0  0  0  0
  -23.3130  -30.5170   21.5600 C   0  0  0  0  0  3  0  0  0  0  0  0
  -24.7790  -28.9900   20.1300 C   0  0  0  0  0  0  0  0  0  0  0  0
  -25.8430  -30.8630   21.3860 C   0  0  0  0  0  2  0  0  0  0  0  0
  -25.9340  -29.4920   20.7450 C   0  0  0  0  0  0  0  0  0  0  0  0
  -27.1290  -28.7250   20.7510 C   0  0  0  0  0  3  0  0  0  0  0  0
  -26.0040  -27.0030   19.4610 C   0  0  0  0  0  3  0  0  0  0  0  0
  -24.8090  -27.7440   19.4870 C   0  0  0  0  0  3  0  0  0  0  0  0
  -23.5330  -29.8480   20.1780 C   0  0  0  0  0  2  0  0  0  0  0  0
  -24.5720  -31.1140   22.1100 N   0  0  0  0  0  0  0  0  0  0  0  0
  -23.4250  -32.1840   23.7490 O   0  0  0  0  0  0  0  0  0  0  0  0
  -22.6610  -29.4860   22.5100 C   0  0  0  0  0  0  0  0  0  0  0  0
  -21.3370  -29.3020   22.3770 N   0  0  0  0  0  0  0  0  0  0  0  0
  -23.3440  -28.8590   23.3250 O   0  0  0  0  0  0  0  0  0  0  0  0
  -20.8500  -29.8600   21.6900 H   0  0  0  0  0  0  0  0  0  0  0  0
  -17.9640  -28.1030   22.8620 C   0  0  0  0  0  0  0  0  0  0  0  0
  -20.5200  -28.3600   23.1410 C   0  0  0  0  0  3  0  0  0  0  0  0
  -20.6240  -26.9330   22.5530 C   0  0  0  0  0  2  0  0  0  0  0  0
  -19.5230  -26.6160   21.5350 C   0  0  0  0  0  2  0  0  0  0  0  0
  -18.1420  -26.7580   22.1780 C   0  0  0  0  0  2  0  0  0  0  0  0
  -19.0810  -28.8620   23.3000 C   0  0  0  0  0  0  0  0  0  0  0  0
  -18.8610  -30.1210   23.8990 C   0  0  0  0  0  3  0  0  0  0  0  0
  -17.5560  -30.6200   24.0670 C   0  0  0  0  0  3  0  0  0  0  0  0
  -16.4530  -29.8580   23.6470 C   0  0  0  0  0  3  0  0  0  0  0  0
  -16.6570  -28.6010   23.0500 C   0  0  0  0  0  3  0  0  0  0  0  0
  -25.7920  -32.5420   23.8390 C   0  0  0  0  0  3  0  0  0  0  0  0
  -25.4810  -33.9380   24.1730 N   0  0  0  0  0  0  0  0  0  0  0  0
  -25.8130  -34.9910   23.4160 C   0  0  0  0  0  0  0  0  0  0  0  0
  -26.4840  -34.8910   22.3850 O   0  0  0  0  0  0  0  0  0  0  0  0
  -24.8860  -34.0900   24.9740 H   0  0  0  0  0  0  0  0  0  0  0  0
  -24.0860  -36.7840   23.0590 C   0  0  0  0  0  1  0  0  0  0  0  0
  -25.3210  -36.3760   23.8760 C   0  0  0  0  0  3  0  0  0  0  0  0
  -27.4470  -37.2610   24.7310 C   0  0  0  0  0  1  0  0  0  0  0  0
  -26.3540  -37.4300   23.7770 N   0  0  0  0  0  0  0  0  0  0  0  0
  -25.9440  -38.3480   23.9250 H   0  0  0  0  0  0  0  0  0  0  0  0
  -26.3110  -31.7640   25.1110 C   0  0  1  0  0  0  0  0  0  0  0  0
  -25.2160  -31.5180   26.1740 C   0  0  0  0  0  1  0  0  0  0  0  0
  -26.8980  -30.3890   24.7100 C   0  0  0  0  0  1  0  0  0  0  0  0
  -27.4560  -32.5600   25.7790 C   0  0  0  0  0  1  0  0  0  0  0  0
  1 49  1  0
  1  4  1  0
  2  5  1  0
  3  6  2  0
  3  4  1  0
  4  2  2  0
  5  8  1  0
  6  7  1  0
  7  9  1  0
  7  5  2  0
 10 19  1  0
 10  6  1  0
 11 19  1  0
 12 17  1  0
 13 14  1  0
 13 12  1  0
 15 14  1  0
 15 24  1  0
 15 16  1  0
 17 11  1  0
 17 16  1  0
 18 11  2  0
 19 20  1  0
 21 22  2  0
 22 41  1  0
 23 22  1  0
 23 26  1  0
 24 25  1  0
 24 21  1  0
 25 23  2  0
 26 27  1  0
 27 28  2  0
 29 32  1  0
 29 28  1  0
 30 29  2  0
 31 30  1  0
 31 26  2  0
 32 33  1  0
 33 34  1  0
 34 35  2  0
 36 35  1  0
 36 40  1  0
 37 36  2  0
 38 33  2  0
 38 37  1  0
 39 38  1  0
 41 42  1  0
 42 45  1  0
 42 44  1  0
 43 41  2  0
 46 21  1  0
 46 47  1  0
 48 46  1  0
 49 51  1  0
 49 53  1  0
 50 49  1  0
 53 52  1  0
 53 54  1  0
 55 57  1  0
 55 54  1  0
 56 67  2  0
 57 62  1  0
 58 66  1  0
 58 68  1  0
 59 65  1  0
 59 61  1  0
 60 66  1  0
 61 62  2  0
 61 60  1  0
 63 64  1  0
 63 57  2  0
 64 59  2  0
 65 58  1  0
 66 56  1  0
 68 70  2  0
 69 68  1  0
 71 69  1  0
 72 81  2  0
 72 77  1  0
 73 69  1  0
 73 77  1  0
 74 73  1  0
 75 76  1  0
 75 74  1  0
 76 72  1  0
 77 78  2  0
 78 79  1  0
 80 79  2  0
 81 80  1  0
 82 56  1  0
 82 83  1  0
 82 92  1  0
 83 86  1  0
 84 88  1  0
 84 83  1  0
 85 84  2  0
 88 87  1  0
 90 88  1  0
 90 91  1  0
 90 89  1  0
 92 95  1  1
 92 93  1  0
 94 92  1  0
M  ISO  4  11 100  19 100  54 101  55 101
M  END
>  <TORSDO>  (30) 
F 21

>  <SCORE>  (30) 
-13.437

>  <name>  (30) 
29

>  <ligand_id>  (30) 
29

>  <original_smiles>  (30) 
[H]c1c([H])c([H])c2c(c1[H])C([H])([H])C([H])([H])C([H])([H])C2([H])N([H])C(=O)C1([H])N(C(=O)C([H])(N([H])C(=O)C([H])(N([H])C([H])([H])[H])C([H])([H])[H])C(C([H])([H])[H])(C([H])([H])[H])C([H])([H])[H])C([H])([H])c2c([H])c(OC([H])([H])C([H])(C([H])([H])[H])[N+]([H])([H])C([H])([H])c3c([H])c(C([H])([H])[H])c(C([H])([H])[H])c(C([H])([H])N([H])C(=O)N4C([H])([H])C([H])([H])C([H])([H])C([H])(n5nc(-c6c([H])c([H])c(Oc7c([H])c([H])c(F)c([H])c7F)c([H])c6[H])c(C(=O)N([H])[H])c5N([H])[H])C4([H])[H])c3[H])c([H])c([H])c2C1([H])[H]

>  <smiles>  (30) 
[H]c1c([H])c([H])c2c(c1[H])C([H])([H])C([H])([H])C([H])([H])C2([H])N([H])C(=O)C1([H])N(C(=O)C([H])(N([H])C(=O)C([H])(N([H])C([H])([H])[H])C([H])([H])[H])C(C([H])([H])[H])(C([H])([H])[H])C([H])([H])[H])C([H])([H])c2c([H])c(OC([H])([H])C([H])(C([H])([H])[H])[N+]([H])([H])C([H])([H])c3c([H])c(C([H])([H])[H])c(C([H])([H])[H])c(C([H])([H])N([H])C(=O)N4C([H])([H])C([H])([H])C([H])([H])C([H])(n5nc(-c6c([H])c([H])c(Oc7c([H])c([H])c(F)c([H])c7F)c([H])c6[H])c(C(=O)N([H])[H])c5N([H])[H])C4([H])[H])c3[H])c([H])c([H])c2C1([H])[H]

$$$$
30:0:0
     RDKit          3D

 95104  0  0  1  0  0  0  0  0999 V2000
  -31.1060  -19.7250   22.0620 C   0  0  0  0  0  3  0  0  0  0  0  0
  -30.5590  -18.9110   19.4070 C   0  0  0  0  0  3  0  0  0  0  0  0
  -31.1810  -20.6350   20.9970 C   0  0  0  0  0  0  0  0  0  0  0  0
  -30.9170  -20.2380   19.6980 C   0  0  0  0  0  0  0  0  0  0  0  0
  -30.7130  -18.3870   21.8030 C   0  0  0  0  0  0  0  0  0  0  0  0
  -30.4410  -17.9710   20.4620 C   0  0  0  0  0  0  0  0  0  0  0  0
  -31.4630  -22.1140   21.0790 C   0  0  0  0  0  2  0  0  0  0  0  0
  -30.9900  -21.3930   18.7340 C   0  0  0  0  0  2  0  0  0  0  0  0
  -31.1780  -22.6410   19.6430 C   0  0  0  0  0  3  0  0  0  0  0  0
  -30.5360  -17.4610   22.9930 C   0  0  0  0  0  1  0  0  0  0  0  0
  -29.9060  -24.8010   19.8030 C   0  0  0  0  0  0  0  0  0  0  0  0
  -29.9740  -23.4770   19.6110 N   0  0  0  0  0  0  0  0  0  0  0  0
  -30.8950  -25.4900   20.0660 O   0  0  0  0  0  0  0  0  0  0  0  0
  -29.1010  -23.0020   19.4210 H   0  0  0  0  0  0  0  0  0  0  0  0
  -28.5100  -25.4270   19.6630 C   0  0  0  0  0  2  0  0  0  0  0  0
  -28.4920  -26.7670   20.1650 O   0  0  0  0  0  0  0  0  0  0  0  0
  -24.5920  -31.8540   23.2320 C   0  0  0  0  0  0  0  0  0  0  0  0
  -27.2880  -27.4440   20.1530 C   0  0  0  0  0  0  0  0  0  0  0  0
  -23.4040  -30.4530   21.5770 C   0  0  0  0  0  3  0  0  0  0  0  0
  -24.8750  -28.9250   20.1640 C   0  0  0  0  0  0  0  0  0  0  0  0
  -25.9290  -30.8250   21.3980 C   0  0  0  0  0  2  0  0  0  0  0  0
  -26.0260  -29.4560   20.7570 C   0  0  0  0  0  0  0  0  0  0  0  0
  -27.2330  -28.7240   20.7480 C   0  0  0  0  0  3  0  0  0  0  0  0
  -26.1090  -26.9170   19.5700 C   0  0  0  0  0  3  0  0  0  0  0  0
  -24.9100  -27.6510   19.5720 C   0  0  0  0  0  3  0  0  0  0  0  0
  -23.6270  -29.7780   20.1980 C   0  0  0  0  0  2  0  0  0  0  0  0
  -24.6590  -31.0590   22.1280 N   0  0  0  0  0  0  0  0  0  0  0  0
  -23.5040  -32.1200   23.7630 O   0  0  0  0  0  0  0  0  0  0  0  0
  -22.7500  -29.4250   22.5280 C   0  0  0  0  0  0  0  0  0  0  0  0
  -21.4360  -29.2080   22.3610 N   0  0  0  0  0  0  0  0  0  0  0  0
  -23.4240  -28.8240   23.3690 O   0  0  0  0  0  0  0  0  0  0  0  0
  -20.9550  -29.7470   21.6530 H   0  0  0  0  0  0  0  0  0  0  0  0
  -18.0720  -27.9580   22.7780 C   0  0  0  0  0  0  0  0  0  0  0  0
  -20.6160  -28.2610   23.1150 C   0  0  0  0  0  3  0  0  0  0  0  0
  -20.7590  -26.8300   22.5490 C   0  0  0  0  0  2  0  0  0  0  0  0
  -19.6900  -26.4820   21.5090 C   0  0  0  0  0  2  0  0  0  0  0  0
  -18.2890  -26.6080   22.1150 C   0  0  0  0  0  2  0  0  0  0  0  0
  -19.1650  -28.7410   23.2320 C   0  0  0  0  0  0  0  0  0  0  0  0
  -18.9100  -30.0040   23.8080 C   0  0  0  0  0  3  0  0  0  0  0  0
  -17.5930  -30.4850   23.9360 C   0  0  0  0  0  3  0  0  0  0  0  0
  -16.5130  -29.6990   23.4970 C   0  0  0  0  0  3  0  0  0  0  0  0
  -16.7530  -28.4380   22.9230 C   0  0  0  0  0  3  0  0  0  0  0  0
  -25.8680  -32.4860   23.8660 C   0  0  0  0  0  3  0  0  0  0  0  0
  -26.3750  -31.7150   25.1470 C   0  0  1  0  0  0  0  0  0  0  0  0
  -25.2670  -31.4580   26.1960 C   0  0  0  0  0  1  0  0  0  0  0  0
  -26.9820  -30.3490   24.7550 C   0  0  0  0  0  1  0  0  0  0  0  0
  -27.5020  -32.5240   25.8320 C   0  0  0  0  0  1  0  0  0  0  0  0
  -25.5560  -33.8840   24.1890 N   0  0  0  0  0  0  0  0  0  0  0  0
  -25.9050  -34.9360   23.4370 C   0  0  0  0  0  0  0  0  0  0  0  0
  -26.5960  -34.8310   22.4190 O   0  0  0  0  0  0  0  0  0  0  0  0
  -24.9420  -34.0400   24.9760 H   0  0  0  0  0  0  0  0  0  0  0  0
  -24.2030  -36.7400   23.0210 C   0  0  0  0  0  1  0  0  0  0  0  0
  -25.4070  -36.3240   23.8810 C   0  0  0  0  0  3  0  0  0  0  0  0
  -27.5060  -37.1960   24.8130 C   0  0  0  0  0  1  0  0  0  0  0  0
  -26.4490  -37.3720   23.8190 N   0  0  0  0  0  0  0  0  0  0  0  0
  -26.0430  -38.2930   23.9500 H   0  0  0  0  0  0  0  0  0  0  0  0
  -29.8670  -16.6050   20.0790 C   0  0  0  0  0  2  0  0  0  0  0  0
  -30.9960  -14.4350   20.1740 C   0  0  0  0  0  0  0  0  0  0  0  0
  -30.6320  -12.3030   19.0010 C   0  0  0  0  0  2  0  0  0  0  0  0
  -29.6380  -12.5740   17.8530 C   0  0  0  0  0  2  0  0  0  0  0  0
  -28.1810  -12.4520   18.3410 C   0  0  0  0  0  2  0  0  0  0  0  0
  -27.9220  -13.2540   19.6440 C   0  0  0  0  0  3  0  0  0  0  0  0
  -29.0210  -12.9590   20.6950 C   0  0  0  0  0  2  0  0  0  0  0  0
  -30.3340  -13.2490   20.0880 N   0  0  0  0  0  0  0  0  0  0  0  0
  -32.0480  -14.6770   19.5750 O   0  0  0  0  0  0  0  0  0  0  0  0
  -30.3020  -15.4000   20.7900 N   0  0  0  0  0  0  0  0  0  0  0  0
  -29.6040  -15.0420   21.4240 H   0  0  0  0  0  0  0  0  0  0  0  0
  -25.5650  -13.8940   20.4660 C   0  0  0  0  0  0  0  0  0  0  0  0
  -24.5000  -13.1330   20.8710 C   0  0  0  0  0  0  0  0  0  0  0  0
  -24.9330  -11.7750   20.7900 C   0  0  0  0  0  0  0  0  0  0  0  0
  -26.5820  -12.9980   20.1740 N   0  0  0  0  0  0  0  0  0  0  0  0
  -26.2060  -11.7180   20.4200 N   0  0  0  0  0  0  0  0  0  0  0  0
  -24.1940  -10.5210   20.9890 C   0  0  0  0  0  0  0  0  0  0  0  0
  -24.6260   -9.5490   21.9160 C   0  0  0  0  0  3  0  0  0  0  0  0
  -23.8890   -8.3590   22.1040 C   0  0  0  0  0  3  0  0  0  0  0  0
  -22.7050   -8.1330   21.3640 C   0  0  0  0  0  0  0  0  0  0  0  0
  -22.2920   -9.0940   20.4240 C   0  0  0  0  0  3  0  0  0  0  0  0
  -23.0300  -10.2750   20.2350 C   0  0  0  0  0  3  0  0  0  0  0  0
  -21.9390   -6.9960   21.4610 O   0  0  0  0  0  0  0  0  0  0  0  0
  -21.8550   -6.2840   22.6290 C   0  0  0  0  0  0  0  0  0  0  0  0
  -21.3460   -6.8530   23.8160 C   0  0  0  0  0  3  0  0  0  0  0  0
  -21.2130   -6.0640   24.9750 C   0  0  0  0  0  3  0  0  0  0  0  0
  -21.5790   -4.7050   24.9480 C   0  0  0  0  0  0  0  0  0  0  0  0
  -22.0800   -4.1340   23.7660 C   0  0  0  0  0  3  0  0  0  0  0  0
  -22.2150   -4.9210   22.6090 C   0  0  0  0  0  0  0  0  0  0  0  0
  -22.6780   -4.3600   21.4650 F   0  0  0  0  0  0  0  0  0  0  0  0
  -21.4450   -3.9430   26.0600 F   0  0  0  0  0  0  0  0  0  0  0  0
  -23.1260  -13.6280   21.2240 C   0  0  0  0  0  0  0  0  0  0  0  0
  -22.4280  -12.9200   22.1050 N   0  0  0  0  0  0  0  0  0  0  0  0
  -22.6830  -14.6730   20.7510 O   0  0  0  0  0  0  0  0  0  0  0  0
  -22.8000  -12.0720   22.5060 H   0  0  0  0  0  0  0  0  0  0  0  0
  -21.5080  -13.2310   22.3850 H   0  0  0  0  0  0  0  0  0  0  0  0
  -25.7480  -15.2630   20.3050 N   0  0  0  0  0  0  0  0  0  0  0  0
  -24.9980  -15.9310   20.4440 H   0  0  0  0  0  0  0  0  0  0  0  0
  -26.5890  -15.6850   19.9350 H   0  0  0  0  0  0  0  0  0  0  0  0
  2  4  2  0
  2  6  1  0
  3  7  1  0
  3  1  2  0
  4  3  1  0
  5  1  1  0
  5 10  1  0
  6  5  2  0
  8  9  1  0
  8  4  1  0
  9 12  1  0
  9  7  1  0
 11 13  2  0
 12 11  1  0
 14 12  1  0
 15 11  1  0
 15 16  1  0
 17 28  2  0
 18 16  1  0
 18 23  1  0
 19 27  1  0
 19 29  1  0
 20 26  1  0
 20 22  1  0
 21 27  1  0
 22 21  1  0
 23 22  2  0
 24 25  1  0
 24 18  2  0
 25 20  2  0
 26 19  1  0
 27 17  1  0
 29 31  2  0
 30 29  1  0
 32 30  1  0
 33 42  2  0
 33 38  1  0
 34 30  1  0
 34 38  1  0
 35 34  1  0
 36 37  1  0
 36 35  1  0
 37 33  1  0
 38 39  2  0
 39 40  1  0
 41 40  2  0
 42 41  1  0
 43 17  1  0
 43 48  1  0
 43 44  1  0
 44 47  1  1
 44 45  1  0
 46 44  1  0
 48 51  1  0
 49 53  1  0
 49 48  1  0
 50 49  2  0
 53 52  1  0
 55 53  1  0
 55 56  1  0
 55 54  1  0
 57  6  1  0
 57 66  1  0
 58 66  1  0
 59 64  1  0
 60 61  1  0
 60 59  1  0
 62 61  1  0
 62 71  1  0
 62 63  1  0
 64 58  1  0
 64 63  1  0
 65 58  2  0
 66 67  1  0
 68 69  2  0
 69 88  1  0
 70 69  1  0
 70 73  1  0
 71 72  1  0
 71 68  1  0
 72 70  2  0
 73 74  1  0
 74 75  2  0
 76 79  1  0
 76 75  1  0
 77 76  2  0
 78 77  1  0
 78 73  2  0
 79 80  1  0
 80 81  1  0
 81 82  2  0
 83 82  1  0
 83 87  1  0
 84 83  2  0
 85 80  2  0
 85 84  1  0
 86 85  1  0
 88 89  1  0
 89 92  1  0
 89 91  1  0
 90 88  2  0
 93 94  1  0
 93 68  1  0
 95 93  1  0
M  ISO  4  15 101  16 101  58 100  66 100
M  END
>  <TORSDO>  (31) 
F 19

>  <SCORE>  (31) 
-13.897

>  <name>  (31) 
30

>  <ligand_id>  (31) 
30

>  <original_smiles>  (31) 
[H]c1c([H])c([H])c2c(c1[H])C([H])([H])C([H])([H])C([H])([H])C2([H])N([H])C(=O)C1([H])N(C(=O)C([H])(N([H])C(=O)C([H])(N([H])C([H])([H])[H])C([H])([H])[H])C(C([H])([H])[H])(C([H])([H])[H])C([H])([H])[H])C([H])([H])c2c([H])c(OC([H])([H])C(=O)N([H])C3([H])C([H])([H])c4c([H])c(C([H])([H])[H])c(C([H])([H])N([H])C(=O)N5C([H])([H])C([H])([H])C([H])([H])C([H])(n6nc(-c7c([H])c([H])c(Oc8c([H])c([H])c(F)c([H])c8F)c([H])c7[H])c(C(=O)N([H])[H])c6N([H])[H])C5([H])[H])c([H])c4C3([H])[H])c([H])c([H])c2C1([H])[H]

>  <smiles>  (31) 
[H]c1c([H])c([H])c2c(c1[H])C([H])([H])C([H])([H])C([H])([H])C2([H])N([H])C(=O)C1([H])N(C(=O)C([H])(N([H])C(=O)C([H])(N([H])C([H])([H])[H])C([H])([H])[H])C(C([H])([H])[H])(C([H])([H])[H])C([H])([H])[H])C([H])([H])c2c([H])c(OC([H])([H])C(=O)N([H])C3([H])C([H])([H])c4c([H])c(C([H])([H])[H])c(C([H])([H])N([H])C(=O)N5C([H])([H])C([H])([H])C([H])([H])C([H])(n6nc(-c7c([H])c([H])c(Oc8c([H])c([H])c(F)c([H])c8F)c([H])c7[H])c(C(=O)N([H])[H])c6N([H])[H])C5([H])[H])c([H])c4C3([H])[H])c([H])c([H])c2C1([H])[H]

$$$$
31:0:0
     RDKit          3D

104112  0  0  1  0  0  0  0  0999 V2000
  -27.5420  -21.0800   19.3290 C   0  0  0  0  0  2  0  0  0  0  0  0
  -27.0230  -22.5780   19.5050 C   0  0  0  0  0  2  0  0  0  0  0  0
  -28.7150  -21.0440   18.2190 C   0  0  0  0  0  3  0  0  0  0  0  0
  -28.6300  -22.5350   17.7590 C   0  0  0  0  0  3  0  0  0  0  0  0
  -27.1470  -23.0390   18.0310 C   0  0  0  0  0  3  0  0  0  0  0  0
  -28.6800  -20.0120   17.0380 C   0  0  0  0  0  0  0  0  0  0  0  0
  -29.6210  -19.0390   16.8430 N   0  0  0  0  0  0  0  0  0  0  0  0
  -27.7120  -20.0330   16.2930 O   0  0  0  0  0  0  0  0  0  0  0  0
  -29.1240  -18.1370   16.7660 H   0  0  0  0  0  0  0  0  0  0  0  0
  -30.8480  -19.1230   15.9190 C   0  0  0  0  0  3  0  0  0  0  0  0
  -32.3550  -18.7070   16.3630 C   0  0  0  0  0  2  0  0  0  0  0  0
  -34.2940  -18.1290   18.0170 C   0  0  0  0  0  0  0  0  0  0  0  0
  -35.2300  -15.9970   18.9670 C   0  0  0  0  0  2  0  0  0  0  0  0
  -34.7040  -14.7950   18.1500 C   0  0  0  0  0  2  0  0  0  0  0  0
  -33.2400  -14.4510   18.5300 C   0  0  0  0  0  2  0  0  0  0  0  0
  -32.3140  -15.7030   18.5740 C   0  0  0  0  0  3  0  0  0  0  0  0
  -32.9940  -16.7130   19.5340 C   0  0  0  0  0  2  0  0  0  0  0  0
  -34.2660  -17.1010   18.8980 N   0  0  0  0  0  0  0  0  0  0  0  0
  -35.3630  -18.4600   17.4530 O   0  0  0  0  0  0  0  0  0  0  0  0
  -33.0180  -18.5950   17.7100 N   0  0  0  0  0  0  0  0  0  0  0  0
  -32.4010  -18.1100   18.3540 H   0  0  0  0  0  0  0  0  0  0  0  0
  -29.7900  -16.1730   18.8810 C   0  0  0  0  0  0  0  0  0  0  0  0
  -28.8090  -15.4070   19.3640 C   0  0  0  0  0  0  0  0  0  0  0  0
  -29.4160  -14.1700   19.7840 C   0  0  0  0  0  0  0  0  0  0  0  0
  -30.9480  -15.4280   18.9840 N   0  0  0  0  0  0  0  0  0  0  0  0
  -30.7160  -14.2340   19.5960 N   0  0  0  0  0  0  0  0  0  0  0  0
  -28.8480  -12.9270   20.2680 C   0  0  0  0  0  0  0  0  0  0  0  0
  -28.4390  -12.7830   21.6170 C   0  0  0  0  0  3  0  0  0  0  0  0
  -27.8800  -11.5690   22.0700 C   0  0  0  0  0  3  0  0  0  0  0  0
  -27.7350  -10.4800   21.1780 C   0  0  0  0  0  0  0  0  0  0  0  0
  -28.1720  -10.6160   19.8470 C   0  0  0  0  0  3  0  0  0  0  0  0
  -28.7330  -11.8220   19.3980 C   0  0  0  0  0  3  0  0  0  0  0  0
  -27.2280   -9.2590   21.5380 O   0  0  0  0  0  0  0  0  0  0  0  0
  -25.8900   -9.0810   21.7890 C   0  0  0  0  0  0  0  0  0  0  0  0
  -24.9200   -9.1620   20.7660 C   0  0  0  0  0  3  0  0  0  0  0  0
  -23.5660   -8.9030   21.0580 C   0  0  0  0  0  3  0  0  0  0  0  0
  -23.1800   -8.5560   22.3650 C   0  0  0  0  0  0  0  0  0  0  0  0
  -24.1440   -8.4700   23.3840 C   0  0  0  0  0  3  0  0  0  0  0  0
  -25.4960   -8.7290   23.0960 C   0  0  0  0  0  0  0  0  0  0  0  0
  -26.4250   -8.6220   24.0770 F   0  0  0  0  0  0  0  0  0  0  0  0
  -21.8820   -8.3000   22.6420 F   0  0  0  0  0  0  0  0  0  0  0  0
  -27.3310  -15.7000   19.3770 C   0  0  0  0  0  0  0  0  0  0  0  0
  -26.5840  -15.1450   20.3130 N   0  0  0  0  0  0  0  0  0  0  0  0
  -26.8320  -16.4880   18.5580 O   0  0  0  0  0  0  0  0  0  0  0  0
  -27.0070  -14.5060   20.9900 H   0  0  0  0  0  0  0  0  0  0  0  0
  -25.5780  -15.3310   20.3630 H   0  0  0  0  0  0  0  0  0  0  0  0
  -29.8010  -17.4330   18.2930 N   0  0  0  0  0  0  0  0  0  0  0  0
  -28.8670  -17.7640   18.0640 H   0  0  0  0  0  0  0  0  0  0  0  0
  -30.4110  -17.4740   17.4970 H   0  0  0  0  0  0  0  0  0  0  0  0
  -30.7620  -18.4450   14.4530 C   0  0  0  0  0  2  0  0  0  0  0  0
  -29.6690  -18.7080   13.5000 N   0  0  0  0  0  4  0  0  0  0  0  0
  -28.9080  -18.0780   13.4880 H   0  0  0  0  0  0  0  0  0  0  0  0
  -29.2770  -19.6460   13.5290 H   0  0  0  0  0  0  0  0  0  0  0  0
  -30.2210  -18.4740   12.6590 H   0  0  0  0  0  0  0  0  0  0  0  0
  -29.6320  -23.2650   18.5880 N   0  0  0  0  0  0  0  0  0  0  0  0
  -29.8250  -22.6310   19.3780 H   0  0  0  0  0  0  0  0  0  0  0  0
  -30.5360  -23.3160   18.1670 H   0  0  0  0  0  0  0  0  0  0  0  0
  -26.7090  -24.3660   17.3520 N   0  0  0  0  0  4  0  0  0  0  0  0
  -26.2700  -23.9600   16.5280 H   0  0  0  0  0  0  0  0  0  0  0  0
  -27.5250  -24.8410   16.9610 H   0  0  0  0  0  0  0  0  0  0  0  0
  -24.3870  -24.7900   18.4430 C   0  0  0  0  0  1  0  0  0  0  0  0
  -25.5890  -25.4130   17.6750 C   0  0  0  0  0  3  0  0  0  0  0  0
  -25.1690  -26.4010   16.4290 C   0  0  0  0  0  2  0  0  0  0  0  0
  -25.5270  -27.8720   16.2440 O   0  0  0  0  0  0  0  0  0  0  0  0
  -26.1600  -28.3530   23.1600 C   0  0  0  0  0  0  0  0  0  0  0  0
  -25.1620  -28.7260   17.2940 C   0  0  0  0  0  0  0  0  0  0  0  0
  -24.0940  -29.2670   22.1800 C   0  0  0  0  0  3  0  0  0  0  0  0
  -24.1670  -29.8410   19.6890 C   0  0  0  0  0  0  0  0  0  0  0  0
  -26.2960  -29.4830   20.9230 C   0  0  0  0  0  2  0  0  0  0  0  0
  -25.4990  -29.4290   19.6360 C   0  0  0  0  0  0  0  0  0  0  0  0
  -26.0130  -28.8970   18.4250 C   0  0  0  0  0  3  0  0  0  0  0  0
  -23.8900  -29.3350   17.3340 C   0  0  0  0  0  3  0  0  0  0  0  0
  -23.3730  -29.8450   18.5350 C   0  0  0  0  0  3  0  0  0  0  0  0
  -23.6020  -30.2110   21.0460 C   0  0  0  0  0  2  0  0  0  0  0  0
  -25.5600  -28.9910   22.1150 N   0  0  0  0  0  0  0  0  0  0  0  0
  -25.5210  -28.0230   24.1910 O   0  0  0  0  0  0  0  0  0  0  0  0
  -23.2180  -27.9900   22.1720 C   0  0  0  0  0  0  0  0  0  0  0  0
  -21.8910  -28.1480   22.1200 N   0  0  0  0  0  0  0  0  0  0  0  0
  -23.7490  -26.8740   22.2270 O   0  0  0  0  0  0  0  0  0  0  0  0
  -21.5650  -29.1130   22.1850 H   0  0  0  0  0  0  0  0  0  0  0  0
  -18.5100  -27.4670   21.1550 C   0  0  0  0  0  0  0  0  0  0  0  0
  -20.8900  -27.0760   22.0090 C   0  0  0  0  0  3  0  0  0  0  0  0
  -21.0240  -26.1870   20.7450 C   0  0  0  0  0  2  0  0  0  0  0  0
  -20.2220  -26.6850   19.5010 C   0  0  0  0  0  2  0  0  0  0  0  0
  -18.7380  -26.6160   19.9150 C   0  0  0  0  0  2  0  0  0  0  0  0
  -19.5190  -27.6960   22.1170 C   0  0  0  0  0  0  0  0  0  0  0  0
  -19.2300  -28.4700   23.2870 C   0  0  0  0  0  3  0  0  0  0  0  0
  -17.9440  -29.0040   23.4830 C   0  0  0  0  0  3  0  0  0  0  0  0
  -16.9150  -28.7170   22.5830 C   0  0  0  0  0  3  0  0  0  0  0  0
  -17.2130  -27.9680   21.4280 C   0  0  0  0  0  3  0  0  0  0  0  0
  -27.6880  -28.0180   23.1320 C   0  0  0  0  0  3  0  0  0  0  0  0
  -27.9880  -26.4880   22.9340 C   0  0  1  0  0  0  0  0  0  0  0  0
  -27.2240  -25.5770   23.9160 C   0  0  0  0  0  1  0  0  0  0  0  0
  -27.6260  -26.0430   21.5040 C   0  0  0  0  0  1  0  0  0  0  0  0
  -29.4930  -26.2260   23.1140 C   0  0  0  0  0  1  0  0  0  0  0  0
  -28.2690  -28.5060   24.3940 N   0  0  0  0  0  0  0  0  0  0  0  0
  -29.2030  -29.4590   24.4880 C   0  0  0  0  0  0  0  0  0  0  0  0
  -29.7180  -29.9860   23.4930 O   0  0  0  0  0  0  0  0  0  0  0  0
  -27.8370  -28.1720   25.2460 H   0  0  0  0  0  0  0  0  0  0  0  0
  -29.0840  -31.3100   26.1800 C   0  0  0  0  0  1  0  0  0  0  0  0
  -29.6340  -29.9040   25.8960 C   0  0  0  0  0  3  0  0  0  0  0  0
  -31.6540  -28.5430   26.1540 C   0  0  0  0  0  1  0  0  0  0  0  0
  -31.0920  -29.8890   26.1030 N   0  0  0  0  0  0  0  0  0  0  0  0
  -31.3420  -30.3690   26.9620 H   0  0  0  0  0  0  0  0  0  0  0  0
  1  2  1  0
  3  6  1  0
  3  1  1  0
  4  5  1  0
  4  3  1  0
  4 55  1  0
  5 58  1  0
  5  2  1  0
  7  6  1  0
  8  6  2  0
  9  7  1  0
 10 50  1  0
 10 11  1  0
 10  7  1  0
 11 20  1  0
 12 18  1  0
 14 15  1  0
 14 13  1  0
 16 15  1  0
 16 25  1  0
 16 17  1  0
 18 13  1  0
 18 17  1  0
 19 12  2  0
 20 12  1  0
 20 21  1  0
 22 25  1  0
 22 23  2  0
 23 42  1  0
 23 24  1  0
 24 27  1  0
 25 26  1  0
 26 24  2  0
 27 28  1  0
 28 29  2  0
 30 33  1  0
 30 29  1  0
 31 30  2  0
 32 31  1  0
 32 27  2  0
 33 34  1  0
 34 39  1  0
 35 36  1  0
 35 34  2  0
 36 37  2  0
 37 41  1  0
 37 38  1  0
 39 38  2  0
 39 40  1  0
 42 43  1  0
 43 46  1  0
 43 45  1  0
 44 42  2  0
 47 22  1  0
 48 47  1  0
 49 47  1  0
 51 53  1  0
 51 50  1  0
 52 51  1  0
 54 51  1  0
 55 56  1  0
 57 55  1  0
 58 62  1  0
 59 58  1  0
 60 58  1  0
 62 61  1  0
 63 62  1  0
 64 63  1  0
 64 66  1  0
 65 76  2  0
 66 72  2  0
 66 71  1  0
 67 77  1  0
 68 74  1  0
 69 75  1  0
 70 68  1  0
 70 69  1  0
 71 70  2  0
 72 73  1  0
 73 68  2  0
 74 67  1  0
 75 67  1  0
 75 65  1  0
 77 79  2  0
 78 77  1  0
 78 80  1  0
 81 90  2  0
 81 86  1  0
 82 86  1  0
 82 78  1  0
 83 82  1  0
 84 85  1  0
 84 83  1  0
 85 81  1  0
 86 87  2  0
 87 88  1  0
 89 88  2  0
 90 89  1  0
 91 65  1  0
 91 96  1  0
 92 95  1  1
 92 91  1  0
 92 93  1  0
 94 92  1  0
 96 97  1  0
 96 99  1  0
 97101  1  0
 98 97  2  0
101103  1  0
101100  1  0
103102  1  0
103104  1  0
M  ISO  4  12 100  20 100  63 101  64 101
M  END
>  <TORSDO>  (32) 
F 25

>  <SCORE>  (32) 
-4.897

>  <name>  (32) 
31

>  <ligand_id>  (32) 
31

>  <original_smiles>  (32) 
[H]c1c([H])c([H])c2c(c1[H])C([H])([H])C([H])([H])C([H])([H])C2([H])N([H])C(=O)C1([H])N(C(=O)C([H])(N([H])C(=O)C([H])(N([H])C([H])([H])[H])C([H])([H])[H])C(C([H])([H])[H])(C([H])([H])[H])C([H])([H])[H])C([H])([H])c2c([H])c(OC([H])([H])C([H])(C([H])([H])[H])[N+]([H])([H])C3([H])C([H])([H])C([H])([H])C([H])(C(=O)N([H])C([H])(C([H])([H])N([H])C(=O)N4C([H])([H])C([H])([H])C([H])([H])C([H])(n5nc(-c6c([H])c([H])c(Oc7c([H])c([H])c(F)c([H])c7F)c([H])c6[H])c(C(=O)N([H])[H])c5N([H])[H])C4([H])[H])C([H])([H])[N+]([H])([H])[H])C3([H])N([H])[H])c([H])c([H])c2C1([H])[H]

>  <smiles>  (32) 
[H]c1c([H])c([H])c2c(c1[H])C([H])([H])C([H])([H])C([H])([H])C2([H])N([H])C(=O)C1([H])N(C(=O)C([H])(N([H])C(=O)C([H])(N([H])C([H])([H])[H])C([H])([H])[H])C(C([H])([H])[H])(C([H])([H])[H])C([H])([H])[H])C([H])([H])c2c([H])c(OC([H])([H])C([H])(C([H])([H])[H])[N+]([H])([H])C3([H])C([H])([H])C([H])([H])C([H])(C(=O)N([H])C([H])(C([H])([H])N([H])C(=O)N4C([H])([H])C([H])([H])C([H])([H])C([H])(n5nc(-c6c([H])c([H])c(Oc7c([H])c([H])c(F)c([H])c7F)c([H])c6[H])c(C(=O)N([H])[H])c5N([H])[H])C4([H])[H])C([H])([H])[N+]([H])([H])[H])C3([H])N([H])[H])c([H])c([H])c2C1([H])[H]

$$$$
32:0:0
     RDKit          3D

 99107  0  0  1  0  0  0  0  0999 V2000
  -29.2740  -17.9390   20.6140 C   0  0  0  0  0  2  0  0  0  0  0  0
  -29.0030  -19.1380   19.6930 C   0  0  0  0  0  2  0  0  0  0  0  0
  -31.1990  -19.9730   20.0130 C   0  0  0  0  0  2  0  0  0  0  0  0
  -30.7740  -17.5860   20.7210 C   0  0  0  0  0  3  0  0  0  0  0  0
  -31.5980  -18.8680   21.0200 C   0  0  0  0  0  3  0  0  0  0  0  0
  -29.7750  -20.2930   20.1560 N   0  0  0  0  0  0  0  0  0  0  0  0
  -30.9750  -16.4550   21.7680 C   0  0  0  0  0  2  0  0  0  0  0  0
  -30.7600  -14.3730   20.4450 C   0  0  0  0  0  0  0  0  0  0  0  0
  -30.3450  -12.3140   19.1640 C   0  0  0  0  0  2  0  0  0  0  0  0
  -29.3930  -12.5880   17.9870 C   0  0  0  0  0  2  0  0  0  0  0  0
  -27.9240  -12.4620   18.4330 C   0  0  0  0  0  2  0  0  0  0  0  0
  -27.6230  -13.2670   19.7250 C   0  0  0  0  0  3  0  0  0  0  0  0
  -28.6830  -12.9840   20.8120 C   0  0  0  0  0  2  0  0  0  0  0  0
  -30.0160  -13.2570   20.2420 N   0  0  0  0  0  0  0  0  0  0  0  0
  -31.7930  -14.6240   19.8170 O   0  0  0  0  0  0  0  0  0  0  0  0
  -30.3070  -15.2130   21.3840 N   0  0  0  0  0  0  0  0  0  0  0  0
  -29.4620  -14.9550   21.8710 H   0  0  0  0  0  0  0  0  0  0  0  0
  -25.2260  -13.8890   20.4330 C   0  0  0  0  0  0  0  0  0  0  0  0
  -24.1560  -13.1230   20.8110 C   0  0  0  0  0  0  0  0  0  0  0  0
  -24.6140  -11.7700   20.7900 C   0  0  0  0  0  0  0  0  0  0  0  0
  -26.2690  -13.0030   20.2090 N   0  0  0  0  0  0  0  0  0  0  0  0
  -25.9020  -11.7230   20.4770 N   0  0  0  0  0  0  0  0  0  0  0  0
  -23.8850  -10.5110   20.9910 C   0  0  0  0  0  0  0  0  0  0  0  0
  -24.3210   -9.5460   21.9260 C   0  0  0  0  0  3  0  0  0  0  0  0
  -23.5920   -8.3520   22.1170 C   0  0  0  0  0  3  0  0  0  0  0  0
  -22.4130   -8.1150   21.3720 C   0  0  0  0  0  0  0  0  0  0  0  0
  -21.9950   -9.0690   20.4270 C   0  0  0  0  0  3  0  0  0  0  0  0
  -22.7240  -10.2530   20.2350 C   0  0  0  0  0  3  0  0  0  0  0  0
  -21.6570   -6.9720   21.4710 O   0  0  0  0  0  0  0  0  0  0  0  0
  -21.6190   -6.2320   22.6250 C   0  0  0  0  0  0  0  0  0  0  0  0
  -21.2190   -6.7920   23.8570 C   0  0  0  0  0  3  0  0  0  0  0  0
  -21.1280   -5.9780   25.0040 C   0  0  0  0  0  3  0  0  0  0  0  0
  -21.4270   -4.6050   24.9190 C   0  0  0  0  0  0  0  0  0  0  0  0
  -21.8190   -4.0440   23.6920 C   0  0  0  0  0  3  0  0  0  0  0  0
  -21.9110   -4.8550   22.5470 C   0  0  0  0  0  0  0  0  0  0  0  0
  -22.2700   -4.3050   21.3610 F   0  0  0  0  0  0  0  0  0  0  0  0
  -21.3330   -3.8210   26.0190 F   0  0  0  0  0  0  0  0  0  0  0  0
  -22.7620  -13.6080   21.0870 C   0  0  0  0  0  0  0  0  0  0  0  0
  -22.0370  -12.9190   21.9630 N   0  0  0  0  0  0  0  0  0  0  0  0
  -22.3240  -14.6320   20.5650 O   0  0  0  0  0  0  0  0  0  0  0  0
  -22.4040  -12.0890   22.4050 H   0  0  0  0  0  0  0  0  0  0  0  0
  -21.1020  -13.2240   22.1910 H   0  0  0  0  0  0  0  0  0  0  0  0
  -25.3960  -15.2570   20.2430 N   0  0  0  0  0  0  0  0  0  0  0  0
  -24.6340  -15.9170   20.3470 H   0  0  0  0  0  0  0  0  0  0  0  0
  -26.2540  -15.6890   19.9230 H   0  0  0  0  0  0  0  0  0  0  0  0
  -33.1350  -18.6350   20.9760 C   0  0  0  0  0  2  0  0  0  0  0  0
  -33.9100  -19.7710   21.5120 N   0  0  0  0  0  4  0  0  0  0  0  0
  -33.7820  -20.6030   20.9680 H   0  0  0  0  0  0  0  0  0  0  0  0
  -34.8890  -19.5450   21.4970 H   0  0  0  0  0  0  0  0  0  0  0  0
  -33.6540  -19.9580   22.4650 H   0  0  0  0  0  0  0  0  0  0  0  0
  -29.4000  -21.4810   19.3820 C   0  0  0  0  0  2  0  0  0  0  0  0
  -30.0420  -22.8910   21.4670 C   0  0  0  0  0  1  0  0  0  0  0  0
  -29.9740  -22.8230   19.9240 C   0  0  0  0  0  3  0  0  0  0  0  0
  -29.1460  -23.9420   19.4220 N   0  0  0  0  0  4  0  0  0  0  0  0
  -28.7540  -23.6620   18.5360 H   0  0  0  0  0  0  0  0  0  0  0  0
  -28.3790  -24.0770   20.0640 H   0  0  0  0  0  0  0  0  0  0  0  0
  -29.8550  -25.2290   19.2230 C   0  0  0  0  0  2  0  0  0  0  0  0
  -28.8700  -26.3720   18.9330 C   0  0  0  0  0  2  0  0  0  0  0  0
  -28.3750  -26.8400   20.1840 O   0  0  0  0  0  0  0  0  0  0  0  0
  -24.5740  -31.9760   23.2690 C   0  0  0  0  0  0  0  0  0  0  0  0
  -27.2000  -27.5500   20.1670 C   0  0  0  0  0  0  0  0  0  0  0  0
  -23.3530  -30.5700   21.6370 C   0  0  0  0  0  3  0  0  0  0  0  0
  -24.7960  -29.0290   20.2060 C   0  0  0  0  0  0  0  0  0  0  0  0
  -25.8740  -30.9300   21.4230 C   0  0  0  0  0  2  0  0  0  0  0  0
  -25.9540  -29.5590   20.7900 C   0  0  0  0  0  0  0  0  0  0  0  0
  -27.1550  -28.8180   20.7820 C   0  0  0  0  0  3  0  0  0  0  0  0
  -26.0220  -27.0180   19.5970 C   0  0  0  0  0  3  0  0  0  0  0  0
  -24.8210  -27.7530   19.6140 C   0  0  0  0  0  3  0  0  0  0  0  0
  -23.5510  -29.8840   20.2590 C   0  0  0  0  0  2  0  0  0  0  0  0
  -24.6180  -31.1730   22.1680 N   0  0  0  0  0  0  0  0  0  0  0  0
  -23.4970  -32.2520   23.8160 O   0  0  0  0  0  0  0  0  0  0  0  0
  -22.7080  -29.5530   22.6060 C   0  0  0  0  0  0  0  0  0  0  0  0
  -21.3860  -29.3640   22.4780 N   0  0  0  0  0  0  0  0  0  0  0  0
  -23.3950  -28.9360   23.4250 O   0  0  0  0  0  0  0  0  0  0  0  0
  -20.8940  -29.9150   21.7880 H   0  0  0  0  0  0  0  0  0  0  0  0
  -18.0160  -28.1580   22.9670 C   0  0  0  0  0  0  0  0  0  0  0  0
  -20.5700  -28.4300   23.2530 C   0  0  0  0  0  3  0  0  0  0  0  0
  -20.6850  -26.9930   22.6940 C   0  0  0  0  0  2  0  0  0  0  0  0
  -19.5910  -26.6550   21.6750 C   0  0  0  0  0  2  0  0  0  0  0  0
  -18.2030  -26.8030   22.3050 C   0  0  0  0  0  2  0  0  0  0  0  0
  -19.1280  -28.9290   23.3970 C   0  0  0  0  0  0  0  0  0  0  0  0
  -18.9000  -30.1990   23.9710 C   0  0  0  0  0  3  0  0  0  0  0  0
  -17.5910  -30.6960   24.1240 C   0  0  0  0  0  3  0  0  0  0  0  0
  -16.4930  -29.9200   23.7140 C   0  0  0  0  0  3  0  0  0  0  0  0
  -16.7060  -28.6540   23.1390 C   0  0  0  0  0  3  0  0  0  0  0  0
  -25.8670  -32.6040   23.8760 C   0  0  0  0  0  3  0  0  0  0  0  0
  -25.5680  -34.0050   24.2020 N   0  0  0  0  0  0  0  0  0  0  0  0
  -25.9050  -35.0520   23.4370 C   0  0  0  0  0  0  0  0  0  0  0  0
  -26.5740  -34.9410   22.4060 O   0  0  0  0  0  0  0  0  0  0  0  0
  -24.9780  -34.1670   25.0070 H   0  0  0  0  0  0  0  0  0  0  0  0
  -24.1840  -36.8490   23.0700 C   0  0  0  0  0  1  0  0  0  0  0  0
  -25.4210  -36.4430   23.8880 C   0  0  0  0  0  3  0  0  0  0  0  0
  -27.5620  -37.3160   24.7190 C   0  0  0  0  0  1  0  0  0  0  0  0
  -26.4580  -37.4930   23.7780 N   0  0  0  0  0  0  0  0  0  0  0  0
  -26.0560  -38.4120   23.9330 H   0  0  0  0  0  0  0  0  0  0  0  0
  -26.3940  -31.8350   25.1500 C   0  0  1  0  0  0  0  0  0  0  0  0
  -25.3090  -31.6030   26.2270 C   0  0  0  0  0  1  0  0  0  0  0  0
  -26.9700  -30.4540   24.7550 C   0  0  0  0  0  1  0  0  0  0  0  0
  -27.5520  -32.6270   25.8010 C   0  0  0  0  0  1  0  0  0  0  0  0
  1  4  1  0
  2  6  1  0
  2  1  1  0
  3  6  1  0
  3  5  1  0
  4  5  1  0
  4  7  1  0
  5 46  1  0
  8 16  1  0
  9 14  1  0
 10 11  1  0
 10  9  1  0
 12 11  1  0
 12 21  1  0
 12 13  1  0
 14  8  1  0
 14 13  1  0
 15  8  2  0
 16  7  1  0
 16 17  1  0
 18 19  2  0
 19 38  1  0
 20 19  1  0
 20 23  1  0
 21 18  1  0
 21 22  1  0
 22 20  2  0
 23 24  1  0
 24 25  2  0
 26 29  1  0
 26 25  1  0
 27 26  2  0
 28 27  1  0
 28 23  2  0
 29 30  1  0
 30 31  1  0
 31 32  2  0
 33 32  1  0
 33 37  1  0
 34 33  2  0
 35 30  2  0
 35 34  1  0
 36 35  1  0
 38 39  1  0
 39 42  1  0
 39 41  1  0
 40 38  2  0
 43 44  1  0
 43 18  1  0
 45 43  1  0
 46 47  1  0
 47 50  1  0
 48 47  1  0
 49 47  1  0
 51 53  1  0
 51  6  1  0
 53 52  1  0
 54 53  1  0
 54 56  1  0
 55 54  1  0
 57 54  1  0
 58 57  1  0
 58 59  1  0
 60 71  2  0
 61 59  1  0
 61 66  1  0
 62 70  1  0
 62 72  1  0
 63 69  1  0
 63 65  1  0
 64 70  1  0
 65 64  1  0
 66 65  2  0
 67 68  1  0
 67 61  2  0
 68 63  2  0
 69 62  1  0
 70 60  1  0
 72 74  2  0
 73 72  1  0
 75 73  1  0
 76 85  2  0
 76 81  1  0
 77 73  1  0
 77 81  1  0
 78 77  1  0
 79 80  1  0
 79 78  1  0
 80 76  1  0
 81 82  2  0
 82 83  1  0
 84 83  2  0
 85 84  1  0
 86 60  1  0
 86 87  1  0
 86 96  1  0
 87 90  1  0
 88 92  1  0
 88 87  1  0
 89 88  2  0
 92 91  1  0
 94 92  1  0
 94 95  1  0
 94 93  1  0
 96 99  1  1
 96 97  1  0
 98 96  1  0
M  ISO  4   8 100  16 100  58 101  59 101
M  END
>  <TORSDO>  (33) 
F 24

>  <SCORE>  (33) 
-12.923

>  <name>  (33) 
32

>  <ligand_id>  (33) 
32

>  <original_smiles>  (33) 
[H]c1c([H])c([H])c2c(c1[H])C([H])([H])C([H])([H])C([H])([H])C2([H])N([H])C(=O)C1([H])N(C(=O)C([H])(N([H])C(=O)C([H])(N([H])C([H])([H])[H])C([H])([H])[H])C(C([H])([H])[H])(C([H])([H])[H])C([H])([H])[H])C([H])([H])c2c([H])c(OC([H])([H])C([H])([H])[N+]([H])([H])C([H])(C([H])([H])[H])C([H])([H])N3C([H])([H])C([H])([H])C([H])(C([H])([H])N([H])C(=O)N4C([H])([H])C([H])([H])C([H])([H])C([H])(n5nc(-c6c([H])c([H])c(Oc7c([H])c([H])c(F)c([H])c7F)c([H])c6[H])c(C(=O)N([H])[H])c5N([H])[H])C4([H])[H])C([H])(C([H])([H])[N+]([H])([H])[H])C3([H])[H])c([H])c([H])c2C1([H])[H]

>  <smiles>  (33) 
[H]c1c([H])c([H])c2c(c1[H])C([H])([H])C([H])([H])C([H])([H])C2([H])N([H])C(=O)C1([H])N(C(=O)C([H])(N([H])C(=O)C([H])(N([H])C([H])([H])[H])C([H])([H])[H])C(C([H])([H])[H])(C([H])([H])[H])C([H])([H])[H])C([H])([H])c2c([H])c(OC([H])([H])C([H])([H])[N+]([H])([H])C([H])(C([H])([H])[H])C([H])([H])N3C([H])([H])C([H])([H])C([H])(C([H])([H])N([H])C(=O)N4C([H])([H])C([H])([H])C([H])([H])C([H])(n5nc(-c6c([H])c([H])c(Oc7c([H])c([H])c(F)c([H])c7F)c([H])c6[H])c(C(=O)N([H])[H])c5N([H])[H])C4([H])[H])C([H])(C([H])([H])[N+]([H])([H])[H])C3([H])[H])c([H])c([H])c2C1([H])[H]

$$$$
33:0:0
     RDKit          3D

 98106  0  0  1  0  0  0  0  0999 V2000
  -28.6480  -21.6400   20.2590 N   0  0  0  0  0  4  0  0  0  0  0  0
  -27.8150  -21.2230   19.8620 H   0  0  0  0  0  0  0  0  0  0  0  0
  -28.3010  -22.1200   21.1000 H   0  0  0  0  0  0  0  0  0  0  0  0
  -29.5670  -20.4870   20.5970 C   0  0  0  0  0  2  0  0  0  0  0  0
  -30.7820  -14.6870   20.0500 C   0  0  0  0  0  0  0  0  0  0  0  0
  -30.4280  -12.4790   18.9780 C   0  0  0  0  0  2  0  0  0  0  0  0
  -29.4350  -12.5850   17.8050 C   0  0  0  0  0  2  0  0  0  0  0  0
  -27.9910  -12.4110   18.3080 C   0  0  0  0  0  2  0  0  0  0  0  0
  -27.6790  -13.2750   19.5580 C   0  0  0  0  0  3  0  0  0  0  0  0
  -28.7950  -13.1610   20.6200 C   0  0  0  0  0  2  0  0  0  0  0  0
  -30.0510  -13.5260   19.9530 N   0  0  0  0  0  0  0  0  0  0  0  0
  -31.9850  -14.6400   19.7880 O   0  0  0  0  0  0  0  0  0  0  0  0
  -28.9800  -17.9630   21.0390 C   0  0  0  0  0  2  0  0  0  0  0  0
  -30.6740  -18.4460   19.3860 C   0  0  0  0  0  2  0  0  0  0  0  0
  -28.9530  -16.4450   20.6130 C   0  0  0  0  0  2  0  0  0  0  0  0
  -30.7080  -16.9330   18.9560 C   0  0  0  0  0  2  0  0  0  0  0  0
  -29.3340  -19.0260   19.9410 C   0  0  2  0  0  0  0  0  0  0  0  0
  -30.1560  -15.9250   19.9140 N   0  0  0  0  0  0  0  0  0  0  0  0
  -25.3150  -13.8600   20.3700 C   0  0  0  0  0  0  0  0  0  0  0  0
  -24.2640  -13.0790   20.7670 C   0  0  0  0  0  0  0  0  0  0  0  0
  -24.7330  -11.7310   20.7210 C   0  0  0  0  0  0  0  0  0  0  0  0
  -26.3570  -12.9860   20.1030 N   0  0  0  0  0  0  0  0  0  0  0  0
  -26.0150  -11.7010   20.3780 N   0  0  0  0  0  0  0  0  0  0  0  0
  -24.0190  -10.4650   20.9300 C   0  0  0  0  0  0  0  0  0  0  0  0
  -24.4590   -9.5150   21.8760 C   0  0  0  0  0  3  0  0  0  0  0  0
  -23.7420   -8.3150   22.0720 C   0  0  0  0  0  3  0  0  0  0  0  0
  -22.5700   -8.0580   21.3200 C   0  0  0  0  0  0  0  0  0  0  0  0
  -22.1500   -8.9980   20.3630 C   0  0  0  0  0  3  0  0  0  0  0  0
  -22.8690  -10.1890   20.1660 C   0  0  0  0  0  3  0  0  0  0  0  0
  -21.8260   -6.9080   21.4230 O   0  0  0  0  0  0  0  0  0  0  0  0
  -21.7540   -6.2010   22.5960 C   0  0  0  0  0  0  0  0  0  0  0  0
  -21.2790   -6.7840   23.7910 C   0  0  0  0  0  3  0  0  0  0  0  0
  -21.1560   -6.0020   24.9570 C   0  0  0  0  0  3  0  0  0  0  0  0
  -21.4990   -4.6370   24.9290 C   0  0  0  0  0  0  0  0  0  0  0  0
  -21.9690   -4.0530   23.7390 C   0  0  0  0  0  3  0  0  0  0  0  0
  -22.0940   -4.8320   22.5760 C   0  0  0  0  0  0  0  0  0  0  0  0
  -22.5250   -4.2590   21.4260 F   0  0  0  0  0  0  0  0  0  0  0  0
  -21.3750   -3.8830   26.0460 F   0  0  0  0  0  0  0  0  0  0  0  0
  -22.8740  -13.5520   21.0770 C   0  0  0  0  0  0  0  0  0  0  0  0
  -22.1730  -12.8550   21.9610 N   0  0  0  0  0  0  0  0  0  0  0  0
  -22.4180  -14.5760   20.5690 O   0  0  0  0  0  0  0  0  0  0  0  0
  -22.5560  -12.0300   22.4000 H   0  0  0  0  0  0  0  0  0  0  0  0
  -21.2410  -13.1560   22.2080 H   0  0  0  0  0  0  0  0  0  0  0  0
  -25.4570  -15.2330   20.1950 N   0  0  0  0  0  0  0  0  0  0  0  0
  -24.6750  -15.8660   20.3300 H   0  0  0  0  0  0  0  0  0  0  0  0
  -26.2920  -15.7000   19.8720 H   0  0  0  0  0  0  0  0  0  0  0  0
  -28.1990  -19.0830   18.8760 C   0  0  0  0  0  0  0  0  0  0  0  0
  -28.4230  -18.6450   17.6440 N   0  0  0  0  0  0  0  0  0  0  0  0
  -27.1060  -19.5640   19.1660 O   0  0  0  0  0  0  0  0  0  0  0  0
  -29.3230  -18.2590   17.4020 H   0  0  0  0  0  0  0  0  0  0  0  0
  -27.6930  -18.6570   16.9470 H   0  0  0  0  0  0  0  0  0  0  0  0
  -29.1300  -22.7170   19.3280 C   0  0  0  0  0  2  0  0  0  0  0  0
  -29.3490  -24.1810   19.8900 C   0  0  0  0  0  2  0  0  0  0  0  0
  -28.1020  -25.0620   20.2670 C   0  0  0  0  0  3  0  0  0  0  0  0
  -27.6620  -24.6430   21.6970 C   0  0  0  0  0  0  0  0  0  0  0  0
  -27.3650  -23.4450   21.9020 O   0  0  0  0  0  0  0  0  0  0  0  0
  -27.6870  -25.4820   22.6220 O   0  0  0  0  0  1  0  0  0  0  0  0
  -28.3080  -26.5280   20.1460 O   0  0  0  0  0  0  0  0  0  0  0  0
  -24.6410  -31.8990   23.2140 C   0  0  0  0  0  0  0  0  0  0  0  0
  -27.1850  -27.3660   20.0950 C   0  0  0  0  0  0  0  0  0  0  0  0
  -23.4090  -30.5090   21.5900 C   0  0  0  0  0  3  0  0  0  0  0  0
  -24.8280  -28.9790   20.1270 C   0  0  0  0  0  0  0  0  0  0  0  0
  -25.9450  -30.8310   21.3650 C   0  0  0  0  0  2  0  0  0  0  0  0
  -26.0080  -29.4610   20.7060 C   0  0  0  0  0  0  0  0  0  0  0  0
  -27.1900  -28.6650   20.6800 C   0  0  0  0  0  3  0  0  0  0  0  0
  -25.9830  -26.9420   19.4790 C   0  0  0  0  0  3  0  0  0  0  0  0
  -24.8170  -27.7250   19.5050 C   0  0  0  0  0  3  0  0  0  0  0  0
  -23.5990  -29.8560   20.1990 C   0  0  0  0  0  2  0  0  0  0  0  0
  -24.6840  -31.0960   22.1120 N   0  0  0  0  0  0  0  0  0  0  0  0
  -23.5680  -32.1680   23.7730 O   0  0  0  0  0  0  0  0  0  0  0  0
  -22.7710  -29.4770   22.5500 C   0  0  0  0  0  0  0  0  0  0  0  0
  -21.4460  -29.2850   22.4370 N   0  0  0  0  0  0  0  0  0  0  0  0
  -23.4650  -28.8600   23.3610 O   0  0  0  0  0  0  0  0  0  0  0  0
  -20.9420  -29.8280   21.7500 H   0  0  0  0  0  0  0  0  0  0  0  0
  -18.0870  -28.0520   22.9660 C   0  0  0  0  0  0  0  0  0  0  0  0
  -20.6450  -28.3450   23.2230 C   0  0  0  0  0  3  0  0  0  0  0  0
  -20.7610  -26.9090   22.6610 C   0  0  0  0  0  2  0  0  0  0  0  0
  -19.6580  -26.5670   21.6540 C   0  0  0  0  0  2  0  0  0  0  0  0
  -18.2780  -26.7010   22.3020 C   0  0  0  0  0  2  0  0  0  0  0  0
  -19.1990  -28.8310   23.3860 C   0  0  0  0  0  0  0  0  0  0  0  0
  -18.9660  -30.0970   23.9680 C   0  0  0  0  0  3  0  0  0  0  0  0
  -17.6550  -30.5830   24.1330 C   0  0  0  0  0  3  0  0  0  0  0  0
  -16.5590  -29.8020   23.7310 C   0  0  0  0  0  3  0  0  0  0  0  0
  -16.7750  -28.5390   23.1510 C   0  0  0  0  0  3  0  0  0  0  0  0
  -25.9340  -32.5300   23.8110 C   0  0  0  0  0  3  0  0  0  0  0  0
  -25.6300  -33.9280   24.1450 N   0  0  0  0  0  0  0  0  0  0  0  0
  -25.9500  -34.9820   23.3800 C   0  0  0  0  0  0  0  0  0  0  0  0
  -26.6050  -34.8800   22.3390 O   0  0  0  0  0  0  0  0  0  0  0  0
  -25.0450  -34.0820   24.9540 H   0  0  0  0  0  0  0  0  0  0  0  0
  -24.2220  -36.7760   23.0420 C   0  0  0  0  0  1  0  0  0  0  0  0
  -25.4670  -36.3680   23.8450 C   0  0  0  0  0  3  0  0  0  0  0  0
  -27.6070  -37.2500   24.6660 C   0  0  0  0  0  1  0  0  0  0  0  0
  -26.5000  -37.4220   23.7300 N   0  0  0  0  0  0  0  0  0  0  0  0
  -26.0940  -38.3410   23.8850 H   0  0  0  0  0  0  0  0  0  0  0  0
  -26.4740  -31.7600   25.0760 C   0  0  1  0  0  0  0  0  0  0  0  0
  -25.4020  -31.5180   26.1640 C   0  0  0  0  0  1  0  0  0  0  0  0
  -27.0510  -30.3840   24.6740 C   0  0  0  0  0  1  0  0  0  0  0  0
  -27.6350  -32.5550   25.7210 C   0  0  0  0  0  1  0  0  0  0  0  0
  1  4  1  0
  1  3  1  0
  2  1  1  0
  6 11  1  0
  7  8  1  0
  7  6  1  0
  9  8  1  0
  9 22  1  0
  9 10  1  0
 11  5  1  0
 11 10  1  0
 12  5  2  0
 14 17  1  0
 15 13  1  0
 16 14  1  0
 16 18  1  0
 17  4  1  1
 17 13  1  0
 18  5  1  0
 18 15  1  0
 19 20  2  0
 20 39  1  0
 21 20  1  0
 21 24  1  0
 22 19  1  0
 22 23  1  0
 23 21  2  0
 24 25  1  0
 25 26  2  0
 27 30  1  0
 27 26  1  0
 28 27  2  0
 29 28  1  0
 29 24  2  0
 30 31  1  0
 31 32  1  0
 32 33  2  0
 34 33  1  0
 34 38  1  0
 35 34  2  0
 36 31  2  0
 36 35  1  0
 37 36  1  0
 39 40  1  0
 40 43  1  0
 40 42  1  0
 41 39  2  0
 44 45  1  0
 44 19  1  0
 46 44  1  0
 47 49  2  0
 47 17  1  0
 48 47  1  0
 50 48  1  0
 51 48  1  0
 52 53  1  0
 52  1  1  0
 54 53  1  0
 54 55  1  0
 55 56  2  0
 55 57  1  0
 58 54  1  0
 59 70  2  0
 60 58  1  0
 60 65  1  0
 61 69  1  0
 61 71  1  0
 62 68  1  0
 62 64  1  0
 63 69  1  0
 64 63  1  0
 65 64  2  0
 66 67  1  0
 66 60  2  0
 67 62  2  0
 68 61  1  0
 69 59  1  0
 71 73  2  0
 72 71  1  0
 74 72  1  0
 75 84  2  0
 75 80  1  0
 76 72  1  0
 76 80  1  0
 77 76  1  0
 78 79  1  0
 78 77  1  0
 79 75  1  0
 80 81  2  0
 81 82  1  0
 83 82  2  0
 84 83  1  0
 85 59  1  0
 85 86  1  0
 85 95  1  0
 86 89  1  0
 87 91  1  0
 87 86  1  0
 88 87  2  0
 91 90  1  0
 93 91  1  0
 93 94  1  0
 93 92  1  0
 95 98  1  1
 95 96  1  0
 97 95  1  0
M  ISO  4   5 100  18 100  54 101  58 101
M  END
>  <TORSDO>  (34) 
F 22

>  <SCORE>  (34) 
-13.194

>  <name>  (34) 
33

>  <ligand_id>  (34) 
33

>  <original_smiles>  (34) 
[H]c1c([H])c([H])c2c(c1[H])C([H])([H])C([H])([H])C([H])([H])C2([H])N([H])C(=O)C1([H])N(C(=O)C([H])(N([H])C(=O)C([H])(N([H])C([H])([H])[H])C([H])([H])[H])C(C([H])([H])[H])(C([H])([H])[H])C([H])([H])[H])C([H])([H])c2c([H])c(OC([H])(C(=O)[O-])C([H])([H])C([H])([H])[N+]([H])([H])C([H])([H])C3(C(=O)N([H])[H])C([H])([H])C([H])([H])N(C(=O)N4C([H])([H])C([H])([H])C([H])([H])C([H])(n5nc(-c6c([H])c([H])c(Oc7c([H])c([H])c(F)c([H])c7F)c([H])c6[H])c(C(=O)N([H])[H])c5N([H])[H])C4([H])[H])C([H])([H])C3([H])[H])c([H])c([H])c2C1([H])[H]

>  <smiles>  (34) 
[H]c1c([H])c([H])c2c(c1[H])C([H])([H])C([H])([H])C([H])([H])C2([H])N([H])C(=O)C1([H])N(C(=O)C([H])(N([H])C(=O)C([H])(N([H])C([H])([H])[H])C([H])([H])[H])C(C([H])([H])[H])(C([H])([H])[H])C([H])([H])[H])C([H])([H])c2c([H])c(OC([H])(C(=O)[O-])C([H])([H])C([H])([H])[N+]([H])([H])C([H])([H])C3(C(=O)N([H])[H])C([H])([H])C([H])([H])N(C(=O)N4C([H])([H])C([H])([H])C([H])([H])C([H])(n5nc(-c6c([H])c([H])c(Oc7c([H])c([H])c(F)c([H])c7F)c([H])c6[H])c(C(=O)N([H])[H])c5N([H])[H])C4([H])[H])C([H])([H])C3([H])[H])c([H])c([H])c2C1([H])[H]

$$$$
34:0:0
     RDKit          3D

100108  0  0  1  0  0  0  0  0999 V2000
  -31.2410  -19.3820   21.7810 C   0  0  0  0  0  2  0  0  0  0  0  0
  -30.3250  -20.6420   21.8030 C   0  0  0  0  0  2  0  0  0  0  0  0
  -28.8670  -18.2410   20.0470 C   0  0  0  0  0  2  0  0  0  0  0  0
  -30.0310  -17.3530   20.7010 C   0  0  0  0  0  3  0  0  0  0  0  0
  -30.5960  -17.9740   22.0140 C   0  0  0  0  0  3  0  0  0  0  0  0
  -29.3510  -20.8560   20.6120 C   0  0  0  0  0  3  0  0  0  0  0  0
  -28.4620  -19.6270   20.5630 N   0  0  0  0  0  4  0  0  0  0  0  0
  -28.0120  -19.5140   21.4570 H   0  0  0  0  0  0  0  0  0  0  0  0
  -27.7180  -19.8920   19.9350 H   0  0  0  0  0  0  0  0  0  0  0  0
  -30.5260  -14.7460   20.4150 C   0  0  0  0  0  0  0  0  0  0  0  0
  -30.3410  -12.4950   19.3620 C   0  0  0  0  0  2  0  0  0  0  0  0
  -29.4110  -12.6000   18.1330 C   0  0  0  0  0  2  0  0  0  0  0  0
  -27.9330  -12.4290   18.5420 C   0  0  0  0  0  2  0  0  0  0  0  0
  -27.5540  -13.2840   19.7820 C   0  0  0  0  0  3  0  0  0  0  0  0
  -28.6070  -13.1670   20.9090 C   0  0  0  0  0  2  0  0  0  0  0  0
  -29.9110  -13.5200   20.3370 N   0  0  0  0  0  0  0  0  0  0  0  0
  -31.6920  -14.8900   20.0430 O   0  0  0  0  0  0  0  0  0  0  0  0
  -29.7530  -15.8400   20.7640 N   0  0  0  0  0  0  0  0  0  0  0  0
  -28.8150  -15.5900   21.0440 H   0  0  0  0  0  0  0  0  0  0  0  0
  -25.1590  -13.8670   20.4980 C   0  0  0  0  0  0  0  0  0  0  0  0
  -24.0960  -13.0910   20.8670 C   0  0  0  0  0  0  0  0  0  0  0  0
  -24.5630  -11.7420   20.8470 C   0  0  0  0  0  0  0  0  0  0  0  0
  -26.2080  -12.9910   20.2660 N   0  0  0  0  0  0  0  0  0  0  0  0
  -25.8570  -11.7070   20.5380 N   0  0  0  0  0  0  0  0  0  0  0  0
  -23.8430  -10.4780   21.0430 C   0  0  0  0  0  0  0  0  0  0  0  0
  -24.2840   -9.5170   21.9770 C   0  0  0  0  0  3  0  0  0  0  0  0
  -23.5660   -8.3150   22.1610 C   0  0  0  0  0  3  0  0  0  0  0  0
  -22.3920   -8.0700   21.4120 C   0  0  0  0  0  0  0  0  0  0  0  0
  -21.9700   -9.0200   20.4660 C   0  0  0  0  0  3  0  0  0  0  0  0
  -22.6870  -10.2110   20.2780 C   0  0  0  0  0  3  0  0  0  0  0  0
  -21.6410   -6.9210   21.5050 O   0  0  0  0  0  0  0  0  0  0  0  0
  -21.6080   -6.1750   22.6540 C   0  0  0  0  0  0  0  0  0  0  0  0
  -21.2020   -6.7220   23.8920 C   0  0  0  0  0  3  0  0  0  0  0  0
  -21.1190   -5.9010   25.0320 C   0  0  0  0  0  3  0  0  0  0  0  0
  -21.4290   -4.5310   24.9390 C   0  0  0  0  0  0  0  0  0  0  0  0
  -21.8270   -3.9810   23.7090 C   0  0  0  0  0  3  0  0  0  0  0  0
  -21.9130   -4.8010   22.5690 C   0  0  0  0  0  0  0  0  0  0  0  0
  -22.2780   -4.2590   21.3830 F   0  0  0  0  0  0  0  0  0  0  0  0
  -21.3390   -3.7410   26.0340 F   0  0  0  0  0  0  0  0  0  0  0  0
  -22.6950  -13.5640   21.1280 C   0  0  0  0  0  0  0  0  0  0  0  0
  -21.9620  -12.8700   21.9910 N   0  0  0  0  0  0  0  0  0  0  0  0
  -22.2610  -14.5860   20.5980 O   0  0  0  0  0  0  0  0  0  0  0  0
  -22.3280  -12.0450   22.4450 H   0  0  0  0  0  0  0  0  0  0  0  0
  -21.0200  -13.1670   22.1990 H   0  0  0  0  0  0  0  0  0  0  0  0
  -25.3120  -15.2370   20.3130 N   0  0  0  0  0  0  0  0  0  0  0  0
  -24.5240  -15.8700   20.3980 H   0  0  0  0  0  0  0  0  0  0  0  0
  -26.1240  -15.6740   19.9030 H   0  0  0  0  0  0  0  0  0  0  0  0
  -31.5830  -17.0680   22.6350 N   0  0  0  0  0  4  0  0  0  0  0  0
  -32.3700  -16.9060   22.0310 H   0  0  0  0  0  0  0  0  0  0  0  0
  -31.1670  -16.1810   22.8530 H   0  0  0  0  0  0  0  0  0  0  0  0
  -31.9200  -17.4580   23.4970 H   0  0  0  0  0  0  0  0  0  0  0  0
  -28.4840  -22.2450   20.7600 C   0  0  0  0  0  2  0  0  0  0  0  0
  -28.9990  -23.7590   20.4400 C   0  0  0  0  0  3  0  0  0  0  0  0
  -30.2400  -24.1940   21.2480 C   0  0  0  0  0  2  0  0  0  0  0  0
  -30.0380  -24.2290   22.7120 N   0  0  0  0  0  4  0  0  0  0  0  0
  -29.4100  -24.9690   22.9740 H   0  0  0  0  0  0  0  0  0  0  0  0
  -30.9200  -24.4230   23.1560 H   0  0  0  0  0  0  0  0  0  0  0  0
  -29.6900  -23.3620   23.0840 H   0  0  0  0  0  0  0  0  0  0  0  0
  -27.8900  -24.9320   20.4710 C   0  0  0  0  0  2  0  0  0  0  0  0
  -28.2220  -26.3850   20.2530 O   0  0  0  0  0  0  0  0  0  0  0  0
  -24.6060  -31.9250   23.2320 C   0  0  0  0  0  0  0  0  0  0  0  0
  -27.1450  -27.2990   20.1950 C   0  0  0  0  0  0  0  0  0  0  0  0
  -23.3860  -30.5280   21.6030 C   0  0  0  0  0  3  0  0  0  0  0  0
  -24.8140  -28.9710   20.1740 C   0  0  0  0  0  0  0  0  0  0  0  0
  -25.9300  -30.8200   21.4120 C   0  0  0  0  0  2  0  0  0  0  0  0
  -25.9940  -29.4370   20.7700 C   0  0  0  0  0  0  0  0  0  0  0  0
  -27.1650  -28.6140   20.7700 C   0  0  0  0  0  3  0  0  0  0  0  0
  -25.9440  -26.9110   19.5570 C   0  0  0  0  0  3  0  0  0  0  0  0
  -24.7940  -27.7160   19.5570 C   0  0  0  0  0  3  0  0  0  0  0  0
  -23.5900  -29.8580   20.2220 C   0  0  0  0  0  2  0  0  0  0  0  0
  -24.6600  -31.1120   22.1360 N   0  0  0  0  0  0  0  0  0  0  0  0
  -23.5260  -32.2130   23.7690 O   0  0  0  0  0  0  0  0  0  0  0  0
  -22.7250  -29.5140   22.5700 C   0  0  0  0  0  0  0  0  0  0  0  0
  -21.3970  -29.3430   22.4500 N   0  0  0  0  0  0  0  0  0  0  0  0
  -23.4040  -28.8880   23.3880 O   0  0  0  0  0  0  0  0  0  0  0  0
  -20.9100  -29.9090   21.7700 H   0  0  0  0  0  0  0  0  0  0  0  0
  -18.0120  -28.1610   22.9660 C   0  0  0  0  0  0  0  0  0  0  0  0
  -20.5730  -28.4120   23.2240 C   0  0  0  0  0  3  0  0  0  0  0  0
  -20.6640  -26.9770   22.6580 C   0  0  0  0  0  2  0  0  0  0  0  0
  -19.5570  -26.6530   21.6490 C   0  0  0  0  0  2  0  0  0  0  0  0
  -18.1800  -26.8070   22.2970 C   0  0  0  0  0  2  0  0  0  0  0  0
  -19.1350  -28.9220   23.3870 C   0  0  0  0  0  0  0  0  0  0  0  0
  -18.9230  -30.1870   23.9750 C   0  0  0  0  0  3  0  0  0  0  0  0
  -17.6210  -30.6920   24.1460 C   0  0  0  0  0  3  0  0  0  0  0  0
  -16.5130  -29.9310   23.7370 C   0  0  0  0  0  3  0  0  0  0  0  0
  -16.7080  -28.6660   23.1540 C   0  0  0  0  0  3  0  0  0  0  0  0
  -25.8950  -32.5510   23.8480 C   0  0  0  0  0  3  0  0  0  0  0  0
  -25.5910  -33.9510   24.1840 N   0  0  0  0  0  0  0  0  0  0  0  0
  -25.9210  -35.0040   23.4260 C   0  0  0  0  0  0  0  0  0  0  0  0
  -26.5820  -34.9020   22.3900 O   0  0  0  0  0  0  0  0  0  0  0  0
  -24.9990  -34.1050   24.9870 H   0  0  0  0  0  0  0  0  0  0  0  0
  -24.1910  -36.7990   23.0940 C   0  0  0  0  0  1  0  0  0  0  0  0
  -25.4390  -36.3920   23.8940 C   0  0  0  0  0  3  0  0  0  0  0  0
  -27.5880  -37.2650   24.7010 C   0  0  0  0  0  1  0  0  0  0  0  0
  -26.4740  -37.4430   23.7730 N   0  0  0  0  0  0  0  0  0  0  0  0
  -26.0750  -38.3650   23.9270 H   0  0  0  0  0  0  0  0  0  0  0  0
  -26.4160  -31.7780   25.1210 C   0  0  1  0  0  0  0  0  0  0  0  0
  -25.3250  -31.5460   26.1940 C   0  0  0  0  0  1  0  0  0  0  0  0
  -26.9960  -30.3990   24.7310 C   0  0  0  0  0  1  0  0  0  0  0  0
  -27.5760  -32.5680   25.7720 C   0  0  0  0  0  1  0  0  0  0  0  0
  1  2  1  0
  1  5  1  0
  3  7  1  0
  3  4  1  0
  4 18  1  0
  4  5  1  0
  5 48  1  0
  6 52  1  0
  6  2  1  0
  7  6  1  0
  7  8  1  0
  9  7  1  0
 10 18  1  0
 11 16  1  0
 12 13  1  0
 12 11  1  0
 14 13  1  0
 14 23  1  0
 14 15  1  0
 16 10  1  0
 16 15  1  0
 17 10  2  0
 18 19  1  0
 20 21  2  0
 21 40  1  0
 22 21  1  0
 22 25  1  0
 23 20  1  0
 23 24  1  0
 24 22  2  0
 25 26  1  0
 26 27  2  0
 28 31  1  0
 28 27  1  0
 29 28  2  0
 30 29  1  0
 30 25  2  0
 31 32  1  0
 32 33  1  0
 33 34  2  0
 35 34  1  0
 35 39  1  0
 36 35  2  0
 37 32  2  0
 37 36  1  0
 38 37  1  0
 40 41  1  0
 41 44  1  0
 41 43  1  0
 42 40  2  0
 45 46  1  0
 45 20  1  0
 47 45  1  0
 48 50  1  0
 48 51  1  0
 49 48  1  0
 53 59  1  0
 53 52  1  0
 53 54  1  0
 54 55  1  0
 55 56  1  0
 55 58  1  0
 55 57  1  0
 60 59  1  0
 61 72  2  0
 62 60  1  0
 62 67  1  0
 63 71  1  0
 63 73  1  0
 64 70  1  0
 64 66  1  0
 65 71  1  0
 66 65  1  0
 67 66  2  0
 68 62  2  0
 69 68  1  0
 69 64  2  0
 70 63  1  0
 71 61  1  0
 73 75  2  0
 74 73  1  0
 76 74  1  0
 77 86  2  0
 77 82  1  0
 78 74  1  0
 78 82  1  0
 79 78  1  0
 80 81  1  0
 80 79  1  0
 81 77  1  0
 82 83  2  0
 83 84  1  0
 85 84  2  0
 86 85  1  0
 87 61  1  0
 87 88  1  0
 87 97  1  0
 88 91  1  0
 89 93  1  0
 89 88  1  0
 90 89  2  0
 93 92  1  0
 95 93  1  0
 95 96  1  0
 95 94  1  0
 97100  1  1
 97 98  1  0
 99 97  1  0
M  ISO  4  10 100  18 100  59 101  60 101
M  END
>  <TORSDO>  (35) 
F 22

>  <SCORE>  (35) 
-13.353

>  <name>  (35) 
34

>  <ligand_id>  (35) 
34

>  <original_smiles>  (35) 
[H]c1c([H])c([H])c2c(c1[H])C([H])([H])C([H])([H])C([H])([H])C2([H])N([H])C(=O)C1([H])N(C(=O)C([H])(N([H])C(=O)C([H])(N([H])C([H])([H])[H])C([H])([H])[H])C(C([H])([H])[H])(C([H])([H])[H])C([H])([H])[H])C([H])([H])c2c([H])c(OC([H])([H])C([H])(C([H])([H])C3([H])C([H])([H])C([H])([H])C([H])([N+]([H])([H])[H])C([H])(N([H])C(=O)N4C([H])([H])C([H])([H])C([H])([H])C([H])(n5nc(-c6c([H])c([H])c(Oc7c([H])c([H])c(F)c([H])c7F)c([H])c6[H])c(C(=O)N([H])[H])c5N([H])[H])C4([H])[H])C([H])([H])[N+]3([H])[H])C([H])([H])[N+]([H])([H])[H])c([H])c([H])c2C1([H])[H]

>  <smiles>  (35) 
[H]c1c([H])c([H])c2c(c1[H])C([H])([H])C([H])([H])C([H])([H])C2([H])N([H])C(=O)C1([H])N(C(=O)C([H])(N([H])C(=O)C([H])(N([H])C([H])([H])[H])C([H])([H])[H])C(C([H])([H])[H])(C([H])([H])[H])C([H])([H])[H])C([H])([H])c2c([H])c(OC([H])([H])C([H])(C([H])([H])C3([H])C([H])([H])C([H])([H])C([H])([N+]([H])([H])[H])C([H])(N([H])C(=O)N4C([H])([H])C([H])([H])C([H])([H])C([H])(n5nc(-c6c([H])c([H])c(Oc7c([H])c([H])c(F)c([H])c7F)c([H])c6[H])c(C(=O)N([H])[H])c5N([H])[H])C4([H])[H])C([H])([H])[N+]3([H])[H])C([H])([H])[N+]([H])([H])[H])c([H])c([H])c2C1([H])[H]

$$$$
35:0:0
     RDKit          3D

101110  0  0  1  0  0  0  0  0999 V2000
  -28.9050  -21.2570   17.2280 C   0  0  0  0  0  2  0  0  0  0  0  0
  -29.6910  -19.1850   15.9240 C   0  0  0  0  0  2  0  0  0  0  0  0
  -30.7630  -18.2960   16.5580 C   0  0  0  0  0  2  0  0  0  0  0  0
  -29.2970  -18.8840   18.3130 C   0  0  0  0  0  2  0  0  0  0  0  0
  -28.8270  -19.7050   17.0890 C   0  0  0  0  0  3  0  0  0  0  0  0
  -30.1770  -17.7940   17.8210 N   0  0  2  0  0  4  0  0  0  0  0  0
  -29.5780  -17.0200   17.5750 H   0  0  0  0  0  0  0  0  0  0  0  0
  -31.1530  -17.3330   18.8520 C   0  0  0  0  0  2  0  0  0  0  0  0
  -33.3090  -14.1050   18.5480 C   0  0  0  0  0  2  0  0  0  0  0  0
  -33.5560  -16.4250   19.0550 C   0  0  0  0  0  2  0  0  0  0  0  0
  -31.8810  -14.7170   18.6180 C   0  0  0  0  0  3  0  0  0  0  0  0
  -32.1770  -16.2390   18.4020 C   0  0  0  0  0  3  0  0  0  0  0  0
  -34.2910  -15.1910   18.7520 N   0  0  0  0  0  4  0  0  0  0  0  0
  -34.8100  -15.3200   17.8980 H   0  0  0  0  0  0  0  0  0  0  0  0
  -34.9540  -14.9720   19.4810 H   0  0  0  0  0  0  0  0  0  0  0  0
  -31.1770  -14.3200   19.9600 C   0  0  0  0  0  0  0  0  0  0  0  0
  -30.3910  -12.2490   19.0320 C   0  0  0  0  0  2  0  0  0  0  0  0
  -29.3980  -12.5420   17.9030 C   0  0  0  0  0  2  0  0  0  0  0  0
  -27.9830  -12.5080   18.4690 C   0  0  0  0  0  2  0  0  0  0  0  0
  -27.7940  -13.3600   19.7570 C   0  0  0  0  0  3  0  0  0  0  0  0
  -28.9800  -13.1970   20.7710 C   0  0  0  0  0  2  0  0  0  0  0  0
  -30.2590  -13.3110   20.0150 N   0  0  0  0  0  0  0  0  0  0  0  0
  -31.5820  -14.9600   20.8900 O   0  0  0  0  0  0  0  0  0  0  0  0
  -25.3970  -13.9780   20.5130 C   0  0  0  0  0  0  0  0  0  0  0  0
  -24.3190  -13.2080   20.8700 C   0  0  0  0  0  0  0  0  0  0  0  0
  -24.7700  -11.8540   20.8290 C   0  0  0  0  0  0  0  0  0  0  0  0
  -26.4500  -13.0970   20.2990 N   0  0  0  0  0  0  0  0  0  0  0  0
  -26.0680  -11.8150   20.5430 N   0  0  0  0  0  0  0  0  0  0  0  0
  -24.0300  -10.5950   20.9990 C   0  0  0  0  0  0  0  0  0  0  0  0
  -24.4520   -9.6110   21.9220 C   0  0  0  0  0  3  0  0  0  0  0  0
  -23.7130   -8.4190   22.0880 C   0  0  0  0  0  3  0  0  0  0  0  0
  -22.5380   -8.1980   21.3320 C   0  0  0  0  0  0  0  0  0  0  0  0
  -22.1350   -9.1690   20.3980 C   0  0  0  0  0  3  0  0  0  0  0  0
  -22.8740  -10.3530   20.2280 C   0  0  0  0  0  3  0  0  0  0  0  0
  -21.7730   -7.0580   21.4100 O   0  0  0  0  0  0  0  0  0  0  0  0
  -21.7140   -6.3100   22.5600 C   0  0  0  0  0  0  0  0  0  0  0  0
  -21.2800   -6.8590   23.7860 C   0  0  0  0  0  3  0  0  0  0  0  0
  -21.1670   -6.0390   24.9260 C   0  0  0  0  0  3  0  0  0  0  0  0
  -21.4780   -4.6680   24.8410 C   0  0  0  0  0  0  0  0  0  0  0  0
  -21.9040   -4.1170   23.6200 C   0  0  0  0  0  3  0  0  0  0  0  0
  -22.0180   -4.9350   22.4830 C   0  0  0  0  0  0  0  0  0  0  0  0
  -22.4100   -4.3920   21.3030 F   0  0  0  0  0  0  0  0  0  0  0  0
  -21.3630   -3.8780   25.9350 F   0  0  0  0  0  0  0  0  0  0  0  0
  -22.9230  -13.6920   21.1450 C   0  0  0  0  0  0  0  0  0  0  0  0
  -22.1930  -12.9890   22.0050 N   0  0  0  0  0  0  0  0  0  0  0  0
  -22.4890  -14.7270   20.6400 O   0  0  0  0  0  0  0  0  0  0  0  0
  -22.5540  -12.1520   22.4360 H   0  0  0  0  0  0  0  0  0  0  0  0
  -21.2570  -13.2930   22.2350 H   0  0  0  0  0  0  0  0  0  0  0  0
  -25.5650  -15.3470   20.3290 N   0  0  0  0  0  0  0  0  0  0  0  0
  -24.8080  -16.0120   20.4410 H   0  0  0  0  0  0  0  0  0  0  0  0
  -26.4370  -15.7800   20.0550 H   0  0  0  0  0  0  0  0  0  0  0  0
  -28.1700  -21.9680   18.4100 C   0  0  0  0  0  3  0  0  0  0  0  0
  -28.2720  -23.4470   18.2210 N   0  0  0  0  0  4  0  0  0  0  0  0
  -29.1560  -23.6040   17.7630 H   0  0  0  0  0  0  0  0  0  0  0  0
  -27.5580  -23.7400   17.5700 H   0  0  0  0  0  0  0  0  0  0  0  0
  -28.2590  -24.3400   19.4210 C   0  0  0  0  0  2  0  0  0  0  0  0
  -28.6960  -25.7890   19.0600 C   0  0  0  0  0  2  0  0  0  0  0  0
  -28.4830  -26.7780   20.0860 O   0  0  0  0  0  0  0  0  0  0  0  0
  -24.6340  -31.9070   23.2300 C   0  0  0  0  0  0  0  0  0  0  0  0
  -27.2940  -27.4870   20.0970 C   0  0  0  0  0  0  0  0  0  0  0  0
  -23.4370  -30.5160   21.5750 C   0  0  0  0  0  3  0  0  0  0  0  0
  -24.8940  -28.9940   20.1430 C   0  0  0  0  0  0  0  0  0  0  0  0
  -25.9650  -30.8730   21.3930 C   0  0  0  0  0  2  0  0  0  0  0  0
  -26.0510  -29.5050   20.7460 C   0  0  0  0  0  0  0  0  0  0  0  0
  -27.2480  -28.7510   20.7370 C   0  0  0  0  0  3  0  0  0  0  0  0
  -26.1130  -26.9930   19.4970 C   0  0  0  0  0  3  0  0  0  0  0  0
  -24.9190  -27.7350   19.5240 C   0  0  0  0  0  3  0  0  0  0  0  0
  -23.6510  -29.8500   20.1910 C   0  0  0  0  0  2  0  0  0  0  0  0
  -24.6970  -31.1140   22.1240 N   0  0  0  0  0  0  0  0  0  0  0  0
  -23.5500  -32.1780   23.7650 O   0  0  0  0  0  0  0  0  0  0  0  0
  -22.7860  -29.4840   22.5240 C   0  0  0  0  0  0  0  0  0  0  0  0
  -21.4620  -29.3010   22.3900 N   0  0  0  0  0  0  0  0  0  0  0  0
  -23.4680  -28.8510   23.3340 O   0  0  0  0  0  0  0  0  0  0  0  0
  -20.9730  -29.8670   21.7110 H   0  0  0  0  0  0  0  0  0  0  0  0
  -18.0840  -28.1120   22.8740 C   0  0  0  0  0  0  0  0  0  0  0  0
  -20.6430  -28.3560   23.1480 C   0  0  0  0  0  3  0  0  0  0  0  0
  -20.7400  -26.9330   22.5510 C   0  0  0  0  0  2  0  0  0  0  0  0
  -19.6360  -26.6280   21.5340 C   0  0  0  0  0  2  0  0  0  0  0  0
  -18.2550  -26.7690   22.1820 C   0  0  0  0  0  2  0  0  0  0  0  0
  -19.2060  -28.8630   23.3120 C   0  0  0  0  0  0  0  0  0  0  0  0
  -18.9940  -30.1210   23.9170 C   0  0  0  0  0  3  0  0  0  0  0  0
  -17.6920  -30.6270   24.0900 C   0  0  0  0  0  3  0  0  0  0  0  0
  -16.5830  -29.8720   23.6690 C   0  0  0  0  0  3  0  0  0  0  0  0
  -16.7820  -28.6160   23.0660 C   0  0  0  0  0  3  0  0  0  0  0  0
  -25.9160  -32.5360   23.8590 C   0  0  0  0  0  3  0  0  0  0  0  0
  -25.6090  -33.9340   24.1860 N   0  0  0  0  0  0  0  0  0  0  0  0
  -25.9450  -34.9840   23.4250 C   0  0  0  0  0  0  0  0  0  0  0  0
  -26.6200  -34.8770   22.3980 O   0  0  0  0  0  0  0  0  0  0  0  0
  -25.0090  -34.0910   24.9840 H   0  0  0  0  0  0  0  0  0  0  0  0
  -24.2220  -36.7770   23.0520 C   0  0  0  0  0  1  0  0  0  0  0  0
  -25.4550  -36.3730   23.8760 C   0  0  0  0  0  3  0  0  0  0  0  0
  -27.5830  -37.2560   24.7280 C   0  0  0  0  0  1  0  0  0  0  0  0
  -26.4890  -37.4260   23.7730 N   0  0  0  0  0  0  0  0  0  0  0  0
  -26.0820  -38.3460   23.9190 H   0  0  0  0  0  0  0  0  0  0  0  0
  -26.4260  -31.7620   25.1360 C   0  0  1  0  0  0  0  0  0  0  0  0
  -25.3260  -31.5200   26.1950 C   0  0  0  0  0  1  0  0  0  0  0  0
  -27.0120  -30.3850   24.7430 C   0  0  0  0  0  1  0  0  0  0  0  0
  -27.5730  -32.5530   25.8060 C   0  0  0  0  0  1  0  0  0  0  0  0
  -26.0450  -21.9320   19.9040 C   0  0  0  0  0  1  0  0  0  0  0  0
  -25.7840  -21.7480   17.3880 C   0  0  0  0  0  1  0  0  0  0  0  0
  -26.7030  -21.4740   18.5930 C   0  0  0  0  0  3  0  0  0  0  0  0
  2  3  1  0
  2  5  1  0
  3  6  1  0
  5  1  1  0
  5  4  1  0
  6  4  1  0
  6  8  1  0
  6  7  1  6
  9 11  1  0
  9 13  1  0
 11 16  1  0
 12 11  1  0
 12  8  1  0
 12 10  1  0
 13 10  1  0
 13 15  1  0
 14 13  1  0
 16 22  1  0
 16 23  2  0
 17 22  1  0
 18 19  1  0
 18 17  1  0
 20 19  1  0
 20 27  1  0
 20 21  1  0
 22 21  1  0
 24 25  2  0
 25 44  1  0
 26 25  1  0
 26 29  1  0
 27 24  1  0
 27 28  1  0
 28 26  2  0
 29 30  1  0
 30 31  2  0
 32 35  1  0
 32 31  1  0
 33 32  2  0
 34 33  1  0
 34 29  2  0
 35 36  1  0
 36 37  1  0
 37 38  2  0
 39 38  1  0
 39 43  1  0
 40 39  2  0
 41 36  2  0
 41 40  1  0
 42 41  1  0
 44 45  1  0
 45 48  1  0
 45 47  1  0
 46 44  2  0
 49 50  1  0
 49 24  1  0
 51 49  1  0
 52  1  1  0
 52101  1  0
 53 52  1  0
 53 56  1  0
 54 53  1  0
 55 53  1  0
 57 56  1  0
 57 58  1  0
 58 60  1  0
 59 70  2  0
 60 65  1  0
 61 69  1  0
 61 71  1  0
 62 68  1  0
 62 64  1  0
 63 69  1  0
 64 63  1  0
 65 64  2  0
 66 67  1  0
 66 60  2  0
 67 62  2  0
 68 61  1  0
 69 59  1  0
 71 73  2  0
 72 71  1  0
 74 72  1  0
 75 84  2  0
 75 80  1  0
 76 72  1  0
 76 80  1  0
 77 76  1  0
 78 79  1  0
 78 77  1  0
 79 75  1  0
 80 81  2  0
 81 82  1  0
 83 82  2  0
 84 83  1  0
 85 59  1  0
 85 86  1  0
 85 95  1  0
 86 89  1  0
 87 91  1  0
 87 86  1  0
 88 87  2  0
 91 90  1  0
 93 91  1  0
 93 94  1  0
 93 92  1  0
 95 98  1  1
 95 96  1  0
 97 95  1  0
100101  1  0
101 99  1  0
M  ISO  4  11 100  16 100  57 101  58 101
M  END
>  <TORSDO>  (36) 
F 24

>  <SCORE>  (36) 
-12.183

>  <name>  (36) 
35

>  <ligand_id>  (36) 
35

>  <original_smiles>  (36) 
[H]c1c([H])c([H])c2c(c1[H])C([H])([H])C([H])([H])C([H])([H])C2([H])N([H])C(=O)C1([H])N(C(=O)C([H])(N([H])C(=O)C([H])(N([H])C([H])([H])[H])C([H])([H])[H])C(C([H])([H])[H])(C([H])([H])[H])C([H])([H])[H])C([H])([H])c2c([H])c(OC([H])([H])C([H])([H])[N+]([H])([H])C([H])(C([H])([H])C3([H])C([H])([H])C([H])([H])[N+]([H])(C([H])([H])C4([H])C([H])(C(=O)N5C([H])([H])C([H])([H])C([H])([H])C([H])(n6nc(-c7c([H])c([H])c(Oc8c([H])c([H])c(F)c([H])c8F)c([H])c7[H])c(C(=O)N([H])[H])c6N([H])[H])C5([H])[H])C([H])([H])[N+]([H])([H])C4([H])[H])C3([H])[H])C([H])(C([H])([H])[H])C([H])([H])[H])c([H])c([H])c2C1([H])[H]

>  <smiles>  (36) 
[H]c1c([H])c([H])c2c(c1[H])C([H])([H])C([H])([H])C([H])([H])C2([H])N([H])C(=O)C1([H])N(C(=O)C([H])(N([H])C(=O)C([H])(N([H])C([H])([H])[H])C([H])([H])[H])C(C([H])([H])[H])(C([H])([H])[H])C([H])([H])[H])C([H])([H])c2c([H])c(OC([H])([H])C([H])([H])[N+]([H])([H])C([H])(C([H])([H])C3([H])C([H])([H])C([H])([H])[N+]([H])(C([H])([H])C4([H])C([H])(C(=O)N5C([H])([H])C([H])([H])C([H])([H])C([H])(n6nc(-c7c([H])c([H])c(Oc8c([H])c([H])c(F)c([H])c8F)c([H])c7[H])c(C(=O)N([H])[H])c6N([H])[H])C5([H])[H])C([H])([H])[N+]([H])([H])C4([H])[H])C3([H])[H])C([H])(C([H])([H])[H])C([H])([H])[H])c([H])c([H])c2C1([H])[H]

$$$$
36:0:0
     RDKit          3D

103111  0  0  1  0  0  0  0  0999 V2000
  -28.7410  -21.4750   21.4140 C   0  0  0  0  0  0  0  0  0  0  0  0
  -27.8530  -22.3140   20.8590 N   0  0  0  0  0  0  0  0  0  0  0  0
  -29.5800  -21.8470   22.2380 O   0  0  0  0  0  0  0  0  0  0  0  0
  -27.2230  -21.9290   20.1690 H   0  0  0  0  0  0  0  0  0  0  0  0
  -29.9960  -19.0190   18.9390 C   0  0  0  0  0  2  0  0  0  0  0  0
  -29.9720  -17.5030   19.2090 C   0  0  0  0  0  2  0  0  0  0  0  0
  -29.4890  -17.7340   21.7370 C   0  0  0  0  0  2  0  0  0  0  0  0
  -28.6580  -19.9940   20.9980 C   0  0  0  0  0  3  0  0  0  0  0  0
  -28.7630  -19.8030   19.4480 C   0  0  0  0  0  3  0  0  0  0  0  0
  -30.3550  -17.0700   20.6440 C   0  0  0  0  0  3  0  0  0  0  0  0
  -27.4450  -19.2780   18.8440 C   0  0  0  0  0  1  0  0  0  0  0  0
  -29.6380  -19.2030   21.7780 N   0  0  0  0  0  4  0  0  0  0  0  0
  -30.5720  -19.4830   21.5290 H   0  0  0  0  0  0  0  0  0  0  0  0
  -29.5080  -19.5030   22.7320 H   0  0  0  0  0  0  0  0  0  0  0  0
  -30.9120  -14.6780   20.1180 C   0  0  0  0  0  0  0  0  0  0  0  0
  -30.5930  -12.5510   18.9240 C   0  0  0  0  0  2  0  0  0  0  0  0
  -29.5810  -12.7800   17.7830 C   0  0  0  0  0  2  0  0  0  0  0  0
  -28.1330  -12.6170   18.2870 C   0  0  0  0  0  2  0  0  0  0  0  0
  -27.8590  -13.4220   19.5850 C   0  0  0  0  0  3  0  0  0  0  0  0
  -28.9700  -13.1610   20.6260 C   0  0  0  0  0  2  0  0  0  0  0  0
  -30.2680  -13.4900   20.0060 N   0  0  0  0  0  0  0  0  0  0  0  0
  -31.9780  -14.9400   19.5520 O   0  0  0  0  0  0  0  0  0  0  0  0
  -30.2000  -15.6180   20.7520 N   0  0  0  0  0  0  0  0  0  0  0  0
  -29.3590  -15.2830   21.2000 H   0  0  0  0  0  0  0  0  0  0  0  0
  -25.5020  -14.0030   20.4490 C   0  0  0  0  0  0  0  0  0  0  0  0
  -24.4580  -13.2140   20.8520 C   0  0  0  0  0  0  0  0  0  0  0  0
  -24.9160  -11.8660   20.7420 C   0  0  0  0  0  0  0  0  0  0  0  0
  -26.5320  -13.1330   20.1260 N   0  0  0  0  0  0  0  0  0  0  0  0
  -26.1850  -11.8410   20.3560 N   0  0  0  0  0  0  0  0  0  0  0  0
  -24.2050  -10.5950   20.9270 C   0  0  0  0  0  0  0  0  0  0  0  0
  -24.6450   -9.6320   21.8610 C   0  0  0  0  0  3  0  0  0  0  0  0
  -23.9350   -8.4240   22.0340 C   0  0  0  0  0  3  0  0  0  0  0  0
  -22.7710   -8.1720   21.2710 C   0  0  0  0  0  0  0  0  0  0  0  0
  -22.3500   -9.1240   20.3250 C   0  0  0  0  0  3  0  0  0  0  0  0
  -23.0610  -10.3220   20.1510 C   0  0  0  0  0  3  0  0  0  0  0  0
  -22.0310   -7.0170   21.3520 O   0  0  0  0  0  0  0  0  0  0  0  0
  -21.9020   -6.3260   22.5320 C   0  0  0  0  0  0  0  0  0  0  0  0
  -21.3600   -6.9260   23.6900 C   0  0  0  0  0  3  0  0  0  0  0  0
  -21.1810   -6.1600   24.8600 C   0  0  0  0  0  3  0  0  0  0  0  0
  -21.5330   -4.7980   24.8710 C   0  0  0  0  0  0  0  0  0  0  0  0
  -22.0670   -4.1970   23.7170 C   0  0  0  0  0  3  0  0  0  0  0  0
  -22.2480   -4.9600   22.5500 C   0  0  0  0  0  0  0  0  0  0  0  0
  -22.7440   -4.3730   21.4330 F   0  0  0  0  0  0  0  0  0  0  0  0
  -21.3530   -4.0590   25.9900 F   0  0  0  0  0  0  0  0  0  0  0  0
  -23.0770  -13.6760   21.2230 C   0  0  0  0  0  0  0  0  0  0  0  0
  -22.4060  -12.9490   22.1100 N   0  0  0  0  0  0  0  0  0  0  0  0
  -22.6060  -14.7160   20.7650 O   0  0  0  0  0  0  0  0  0  0  0  0
  -22.8000  -12.1060   22.5020 H   0  0  0  0  0  0  0  0  0  0  0  0
  -21.4830  -13.2400   22.4010 H   0  0  0  0  0  0  0  0  0  0  0  0
  -25.6550  -15.3800   20.3140 N   0  0  0  0  0  0  0  0  0  0  0  0
  -24.8860  -16.0190   20.4780 H   0  0  0  0  0  0  0  0  0  0  0  0
  -26.4630  -15.8270   19.9030 H   0  0  0  0  0  0  0  0  0  0  0  0
  -27.6980  -23.7390   21.1610 C   0  0  0  0  0  3  0  0  0  0  0  0
  -25.7540  -23.7170   19.4580 C   0  0  0  0  0  1  0  0  0  0  0  0
  -26.2380  -24.1880   20.8520 C   0  0  0  0  0  3  0  0  0  0  0  0
  -25.2600  -23.7290   21.9630 C   0  0  0  0  0  2  0  0  0  0  0  0
  -23.9260  -24.3490   21.8470 N   0  0  0  0  0  4  0  0  0  0  0  0
  -23.9860  -25.3490   21.9200 H   0  0  0  0  0  0  0  0  0  0  0  0
  -23.3350  -24.0170   22.5900 H   0  0  0  0  0  0  0  0  0  0  0  0
  -23.4900  -24.1080   20.9750 H   0  0  0  0  0  0  0  0  0  0  0  0
  -28.7730  -24.5720   20.4170 C   0  0  0  0  0  2  0  0  0  0  0  0
  -28.9950  -25.9770   21.0140 C   0  0  0  0  0  2  0  0  0  0  0  0
  -28.9290  -26.9870   20.0090 O   0  0  0  0  0  0  0  0  0  0  0  0
  -24.7160  -31.7570   23.1640 C   0  0  0  0  0  0  0  0  0  0  0  0
  -27.7260  -27.6450   19.9940 C   0  0  0  0  0  0  0  0  0  0  0  0
  -23.6520  -30.3640   21.4180 C   0  0  0  0  0  3  0  0  0  0  0  0
  -25.2430  -28.9750   19.9880 C   0  0  0  0  0  0  0  0  0  0  0  0
  -26.1540  -30.8810   21.3300 C   0  0  0  0  0  2  0  0  0  0  0  0
  -26.3420  -29.5470   20.6400 C   0  0  0  0  0  0  0  0  0  0  0  0
  -27.5880  -28.8870   20.6450 C   0  0  0  0  0  3  0  0  0  0  0  0
  -26.6160  -27.0760   19.3380 C   0  0  0  0  0  3  0  0  0  0  0  0
  -25.3710  -27.7340   19.3360 C   0  0  0  0  0  3  0  0  0  0  0  0
  -23.9490  -29.7550   20.0200 C   0  0  0  0  0  2  0  0  0  0  0  0
  -24.8560  -31.0120   22.0310 N   0  0  0  0  0  0  0  0  0  0  0  0
  -23.6040  -31.9430   23.6750 O   0  0  0  0  0  0  0  0  0  0  0  0
  -23.0280  -29.2660   22.3090 C   0  0  0  0  0  0  0  0  0  0  0  0
  -21.7110  -29.0540   22.1600 N   0  0  0  0  0  0  0  0  0  0  0  0
  -23.7260  -28.6080   23.0860 O   0  0  0  0  0  0  0  0  0  0  0  0
  -21.2090  -29.6390   21.5080 H   0  0  0  0  0  0  0  0  0  0  0  0
  -18.3580  -27.7890   22.6100 C   0  0  0  0  0  0  0  0  0  0  0  0
  -20.9180  -28.0470   22.8620 C   0  0  0  0  0  3  0  0  0  0  0  0
  -21.0230  -26.6710   22.1660 C   0  0  0  0  0  2  0  0  0  0  0  0
  -19.9050  -26.4220   21.1470 C   0  0  0  0  0  2  0  0  0  0  0  0
  -18.5340  -26.5000   21.8240 C   0  0  0  0  0  2  0  0  0  0  0  0
  -19.4780  -28.5220   23.0850 C   0  0  0  0  0  0  0  0  0  0  0  0
  -19.2600  -29.7310   23.7820 C   0  0  0  0  0  3  0  0  0  0  0  0
  -17.9550  -30.2060   24.0080 C   0  0  0  0  0  3  0  0  0  0  0  0
  -16.8500  -29.4690   23.5490 C   0  0  0  0  0  3  0  0  0  0  0  0
  -17.0520  -28.2620   22.8560 C   0  0  0  0  0  3  0  0  0  0  0  0
  -25.9430  -32.4290   23.8590 C   0  0  0  0  0  3  0  0  0  0  0  0
  -26.4210  -31.6630   25.1540 C   0  0  1  0  0  0  0  0  0  0  0  0
  -25.2830  -31.3740   26.1590 C   0  0  0  0  0  1  0  0  0  0  0  0
  -27.0740  -30.3130   24.7790 C   0  0  0  0  0  1  0  0  0  0  0  0
  -27.5050  -32.4920   25.8830 C   0  0  0  0  0  1  0  0  0  0  0  0
  -25.5670  -33.8120   24.1800 N   0  0  0  0  0  0  0  0  0  0  0  0
  -25.8870  -34.8780   23.4350 C   0  0  0  0  0  0  0  0  0  0  0  0
  -26.6030  -34.8050   22.4310 O   0  0  0  0  0  0  0  0  0  0  0  0
  -24.9350  -33.9410   24.9570 H   0  0  0  0  0  0  0  0  0  0  0  0
  -24.0930  -36.5910   23.0230 C   0  0  0  0  0  1  0  0  0  0  0  0
  -25.3260  -36.2440   23.8720 C   0  0  0  0  0  3  0  0  0  0  0  0
  -27.3910  -37.2250   24.7670 C   0  0  0  0  0  1  0  0  0  0  0  0
  -26.3140  -37.3420   23.7870 N   0  0  0  0  0  0  0  0  0  0  0  0
  -25.8630  -38.2430   23.9180 H   0  0  0  0  0  0  0  0  0  0  0  0
  1  3  2  0
  2 53  1  0
  2  1  1  0
  4  2  1  0
  5  6  1  0
  5  9  1  0
  6 10  1  0
  7 12  1  0
  8  1  1  0
  8 12  1  0
  9 11  1  0
  9  8  1  0
 10 23  1  0
 10  7  1  0
 12 14  1  0
 13 12  1  0
 15 23  1  0
 16 21  1  0
 17 18  1  0
 17 16  1  0
 19 18  1  0
 19 28  1  0
 19 20  1  0
 21 15  1  0
 21 20  1  0
 22 15  2  0
 23 24  1  0
 25 26  2  0
 26 45  1  0
 27 26  1  0
 27 30  1  0
 28 29  1  0
 28 25  1  0
 29 27  2  0
 30 31  1  0
 31 32  2  0
 33 36  1  0
 33 32  1  0
 34 33  2  0
 35 34  1  0
 35 30  2  0
 36 37  1  0
 37 42  2  0
 37 38  1  0
 38 39  2  0
 39 40  1  0
 40 44  1  0
 41 40  2  0
 42 41  1  0
 43 42  1  0
 45 46  1  0
 46 49  1  0
 46 48  1  0
 47 45  2  0
 50 25  1  0
 50 51  1  0
 52 50  1  0
 53 61  1  0
 55 54  1  0
 55 53  1  0
 55 56  1  0
 57 58  1  0
 57 56  1  0
 57 59  1  0
 60 57  1  0
 61 62  1  0
 63 62  1  0
 64 75  2  0
 65 63  1  0
 65 70  1  0
 66 74  1  0
 66 76  1  0
 67 73  1  0
 67 69  1  0
 68 74  1  0
 69 70  2  0
 69 68  1  0
 71 65  2  0
 72 71  1  0
 72 67  2  0
 73 66  1  0
 74 64  1  0
 76 78  2  0
 77 76  1  0
 79 77  1  0
 80 89  2  0
 80 85  1  0
 81 77  1  0
 81 85  1  0
 82 81  1  0
 83 84  1  0
 83 82  1  0
 84 80  1  0
 85 86  2  0
 86 87  1  0
 88 87  2  0
 89 88  1  0
 90 64  1  0
 90 95  1  0
 90 91  1  0
 91 94  1  1
 91 92  1  0
 93 91  1  0
 95 98  1  0
 96100  1  0
 96 95  1  0
 97 96  2  0
100 99  1  0
102100  1  0
102103  1  0
102101  1  0
M  ISO  4  15 100  23 100  62 101  63 101
M  END
>  <TORSDO>  (37) 
F 23

>  <SCORE>  (37) 
-12.290

>  <name>  (37) 
36

>  <ligand_id>  (37) 
36

>  <original_smiles>  (37) 
[H]c1c([H])c([H])c2c(c1[H])C([H])([H])C([H])([H])C([H])([H])C2([H])N([H])C(=O)C1([H])N(C(=O)C([H])(N([H])C(=O)C([H])(N([H])C([H])([H])[H])C([H])([H])[H])C(C([H])([H])[H])(C([H])([H])[H])C([H])([H])[H])C([H])([H])c2c([H])c(OC([H])([H])C([H])([H])C([H])(N([H])C(=O)C3([H])C([H])(C([H])([H])[H])C([H])([H])C([H])([H])C([H])(N([H])C(=O)N4C([H])([H])C([H])([H])C([H])([H])C([H])(n5nc(-c6c([H])c([H])c(Oc7c([H])c([H])c(F)c([H])c7F)c([H])c6[H])c(C(=O)N([H])[H])c5N([H])[H])C4([H])[H])C([H])([H])[N+]3([H])[H])C([H])(C([H])([H])[H])C([H])([H])[N+]([H])([H])[H])c([H])c([H])c2C1([H])[H]

>  <smiles>  (37) 
[H]c1c([H])c([H])c2c(c1[H])C([H])([H])C([H])([H])C([H])([H])C2([H])N([H])C(=O)C1([H])N(C(=O)C([H])(N([H])C(=O)C([H])(N([H])C([H])([H])[H])C([H])([H])[H])C(C([H])([H])[H])(C([H])([H])[H])C([H])([H])[H])C([H])([H])c2c([H])c(OC([H])([H])C([H])([H])C([H])(N([H])C(=O)C3([H])C([H])(C([H])([H])[H])C([H])([H])C([H])([H])C([H])(N([H])C(=O)N4C([H])([H])C([H])([H])C([H])([H])C([H])(n5nc(-c6c([H])c([H])c(Oc7c([H])c([H])c(F)c([H])c7F)c([H])c6[H])c(C(=O)N([H])[H])c5N([H])[H])C4([H])[H])C([H])([H])[N+]3([H])[H])C([H])(C([H])([H])[H])C([H])([H])[N+]([H])([H])[H])c([H])c([H])c2C1([H])[H]

$$$$
37:0:0
     RDKit          3D

 91 99  0  0  1  0  0  0  0  0999 V2000
  -29.2540  -21.2780   18.6470 C   0  0  0  0  0  2  0  0  0  0  0  0
  -29.3280  -22.8530   18.7590 C   0  0  0  0  0  2  0  0  0  0  0  0
  -29.5130  -20.7160   20.0580 C   0  0  0  0  0  3  0  0  0  0  0  0
  -29.0060  -23.2910   20.2200 C   0  0  0  0  0  3  0  0  0  0  0  0
  -28.8860  -21.8720   20.8930 N   0  0  0  0  0  4  0  0  0  0  0  0
  -29.2600  -21.8720   21.8280 H   0  0  0  0  0  0  0  0  0  0  0  0
  -27.9100  -21.6380   20.9700 H   0  0  0  0  0  0  0  0  0  0  0  0
  -29.1480  -19.0700   20.3530 C   0  0  0  0  0  0  0  0  0  0  0  0
  -28.0460  -18.7840   20.8270 O   0  0  0  0  0  0  0  0  0  0  0  0
  -30.1480  -17.7670   20.0530 C   0  0  0  0  0  2  0  0  0  0  0  0
  -30.5760  -15.0460   20.2250 C   0  0  0  0  0  0  0  0  0  0  0  0
  -30.4720  -12.6790   19.3160 C   0  0  0  0  0  2  0  0  0  0  0  0
  -29.5320  -12.6210   18.0920 C   0  0  0  0  0  2  0  0  0  0  0  0
  -28.0770  -12.3940   18.5380 C   0  0  0  0  0  2  0  0  0  0  0  0
  -27.6690  -13.3120   19.7210 C   0  0  0  0  0  3  0  0  0  0  0  0
  -28.7340  -13.3610   20.8360 C   0  0  0  0  0  2  0  0  0  0  0  0
  -29.9930  -13.7780   20.2050 N   0  0  0  0  0  0  0  0  0  0  0  0
  -31.7740  -15.1080   19.9200 O   0  0  0  0  0  0  0  0  0  0  0  0
  -29.8080  -16.2410   20.3640 N   0  0  0  0  0  0  0  0  0  0  0  0
  -28.8420  -16.0860   20.6110 H   0  0  0  0  0  0  0  0  0  0  0  0
  -25.2950  -13.8520   20.5050 C   0  0  0  0  0  0  0  0  0  0  0  0
  -24.2420  -13.0620   20.8760 C   0  0  0  0  0  0  0  0  0  0  0  0
  -24.7190  -11.7160   20.8200 C   0  0  0  0  0  0  0  0  0  0  0  0
  -26.3430  -12.9890   20.2380 N   0  0  0  0  0  0  0  0  0  0  0  0
  -26.0070  -11.6960   20.4930 N   0  0  0  0  0  0  0  0  0  0  0  0
  -24.0050  -10.4440   21.0020 C   0  0  0  0  0  0  0  0  0  0  0  0
  -24.4210   -9.4910   21.9580 C   0  0  0  0  0  3  0  0  0  0  0  0
  -23.7030   -8.2870   22.1280 C   0  0  0  0  0  3  0  0  0  0  0  0
  -22.5560   -8.0280   21.3390 C   0  0  0  0  0  0  0  0  0  0  0  0
  -22.1610   -8.9680   20.3720 C   0  0  0  0  0  3  0  0  0  0  0  0
  -22.8790  -10.1630   20.2020 C   0  0  0  0  0  3  0  0  0  0  0  0
  -21.8130   -6.8750   21.4170 O   0  0  0  0  0  0  0  0  0  0  0  0
  -21.6950   -6.1700   22.5880 C   0  0  0  0  0  0  0  0  0  0  0  0
  -21.1190   -6.7380   23.7450 C   0  0  0  0  0  3  0  0  0  0  0  0
  -20.9540   -5.9560   24.9050 C   0  0  0  0  0  3  0  0  0  0  0  0
  -21.3570   -4.6080   24.9110 C   0  0  0  0  0  0  0  0  0  0  0  0
  -21.9290   -4.0400   23.7580 C   0  0  0  0  0  3  0  0  0  0  0  0
  -22.0940   -4.8180   22.5990 C   0  0  0  0  0  0  0  0  0  0  0  0
  -22.6260   -4.2610   21.4850 F   0  0  0  0  0  0  0  0  0  0  0  0
  -21.1920   -3.8550   26.0220 F   0  0  0  0  0  0  0  0  0  0  0  0
  -22.8460  -13.5240   21.1680 C   0  0  0  0  0  0  0  0  0  0  0  0
  -22.1320  -12.8050   22.0270 N   0  0  0  0  0  0  0  0  0  0  0  0
  -22.3970  -14.5570   20.6730 O   0  0  0  0  0  0  0  0  0  0  0  0
  -22.5130  -11.9710   22.4500 H   0  0  0  0  0  0  0  0  0  0  0  0
  -21.1950  -13.0920   22.2690 H   0  0  0  0  0  0  0  0  0  0  0  0
  -25.4450  -15.2260   20.3420 N   0  0  0  0  0  0  0  0  0  0  0  0
  -24.6680  -15.8670   20.4620 H   0  0  0  0  0  0  0  0  0  0  0  0
  -26.2750  -15.6720   19.9780 H   0  0  0  0  0  0  0  0  0  0  0  0
  -27.3930  -24.5540   21.8480 C   0  0  0  0  0  1  0  0  0  0  0  0
  -27.9090  -24.5920   20.3980 C   0  0  0  0  0  3  0  0  0  0  0  0
  -28.2050  -26.1310   20.1940 O   0  0  0  0  0  0  0  0  0  0  0  0
  -24.5950  -31.8600   23.2100 C   0  0  0  0  0  0  0  0  0  0  0  0
  -27.1650  -27.1430   20.1510 C   0  0  0  0  0  0  0  0  0  0  0  0
  -23.3990  -30.4790   21.5580 C   0  0  0  0  0  3  0  0  0  0  0  0
  -24.8490  -28.9130   20.1240 C   0  0  0  0  0  0  0  0  0  0  0  0
  -25.9560  -30.7370   21.4020 C   0  0  0  0  0  2  0  0  0  0  0  0
  -26.0290  -29.3470   20.7400 C   0  0  0  0  0  0  0  0  0  0  0  0
  -27.1900  -28.4780   20.7350 C   0  0  0  0  0  3  0  0  0  0  0  0
  -25.9610  -26.8260   19.4850 C   0  0  0  0  0  3  0  0  0  0  0  0
  -24.8280  -27.6680   19.4800 C   0  0  0  0  0  3  0  0  0  0  0  0
  -23.6240  -29.8150   20.1740 C   0  0  0  0  0  2  0  0  0  0  0  0
  -24.6710  -31.0480   22.1120 N   0  0  0  0  0  0  0  0  0  0  0  0
  -23.5080  -32.1400   23.7370 O   0  0  0  0  0  0  0  0  0  0  0  0
  -22.7190  -29.4630   22.5090 C   0  0  0  0  0  0  0  0  0  0  0  0
  -21.3920  -29.2830   22.3690 N   0  0  0  0  0  0  0  0  0  0  0  0
  -23.3850  -28.8400   23.3400 O   0  0  0  0  0  0  0  0  0  0  0  0
  -20.9100  -29.8370   21.6760 H   0  0  0  0  0  0  0  0  0  0  0  0
  -18.0110  -28.0650   22.8410 C   0  0  0  0  0  0  0  0  0  0  0  0
  -20.5690  -28.3370   23.1290 C   0  0  0  0  0  3  0  0  0  0  0  0
  -20.6800  -26.9090   22.5470 C   0  0  0  0  0  2  0  0  0  0  0  0
  -19.5870  -26.5880   21.5230 C   0  0  0  0  0  2  0  0  0  0  0  0
  -18.2000  -26.7210   22.1580 C   0  0  0  0  0  2  0  0  0  0  0  0
  -19.1250  -28.8300   23.2830 C   0  0  0  0  0  0  0  0  0  0  0  0
  -18.8940  -30.0870   23.8840 C   0  0  0  0  0  3  0  0  0  0  0  0
  -17.5850  -30.5800   24.0440 C   0  0  0  0  0  3  0  0  0  0  0  0
  -16.4870  -29.8120   23.6170 C   0  0  0  0  0  3  0  0  0  0  0  0
  -16.7020  -28.5550   23.0230 C   0  0  0  0  0  3  0  0  0  0  0  0
  -25.8710  -32.4920   23.8460 C   0  0  0  0  0  3  0  0  0  0  0  0
  -26.3560  -31.7320   25.1410 C   0  0  1  0  0  0  0  0  0  0  0  0
  -25.2400  -31.5160   26.1900 C   0  0  0  0  0  1  0  0  0  0  0  0
  -26.9360  -30.3450   24.7810 C   0  0  0  0  0  1  0  0  0  0  0  0
  -27.5020  -32.5240   25.8130 C   0  0  0  0  0  1  0  0  0  0  0  0
  -25.5670  -33.8970   24.1610 N   0  0  0  0  0  0  0  0  0  0  0  0
  -25.9100  -34.9430   23.3980 C   0  0  0  0  0  0  0  0  0  0  0  0
  -26.5800  -34.8260   22.3690 O   0  0  0  0  0  0  0  0  0  0  0  0
  -24.9690  -34.0590   24.9580 H   0  0  0  0  0  0  0  0  0  0  0  0
  -24.2020  -36.7520   23.0240 C   0  0  0  0  0  1  0  0  0  0  0  0
  -25.4360  -36.3410   23.8440 C   0  0  0  0  0  3  0  0  0  0  0  0
  -27.5700  -37.2150   24.6890 C   0  0  0  0  0  1  0  0  0  0  0  0
  -26.4800  -37.3820   23.7310 N   0  0  0  0  0  0  0  0  0  0  0  0
  -26.0820  -38.3090   23.8620 H   0  0  0  0  0  0  0  0  0  0  0  0
  1  2  1  0
  1  3  1  0
  2  4  1  0
  3  8  1  0
  3  5  1  0
  4 50  1  0
  4  5  1  0
  5  7  1  0
  5  6  1  0
  8  9  2  0
 10  8  1  0
 10 19  1  0
 11 19  1  0
 12 17  1  0
 13 14  1  0
 13 12  1  0
 15 14  1  0
 15 24  1  0
 15 16  1  0
 17 11  1  0
 17 16  1  0
 18 11  2  0
 19 20  1  0
 21 22  2  0
 22 41  1  0
 23 22  1  0
 23 26  1  0
 24 25  1  0
 24 21  1  0
 25 23  2  0
 26 27  1  0
 27 28  2  0
 29 32  1  0
 29 28  1  0
 30 29  2  0
 31 30  1  0
 31 26  2  0
 32 33  1  0
 33 38  2  0
 33 34  1  0
 34 35  2  0
 35 36  1  0
 36 40  1  0
 37 36  2  0
 38 37  1  0
 39 38  1  0
 41 42  1  0
 42 45  1  0
 42 44  1  0
 43 41  2  0
 46 47  1  0
 46 21  1  0
 48 46  1  0
 50 49  1  0
 51 50  1  0
 52 63  2  0
 53 51  1  0
 53 58  1  0
 54 62  1  0
 54 64  1  0
 55 61  1  0
 55 57  1  0
 56 62  1  0
 57 56  1  0
 58 57  2  0
 59 53  2  0
 60 59  1  0
 60 55  2  0
 61 54  1  0
 62 52  1  0
 64 66  2  0
 65 64  1  0
 67 65  1  0
 68 77  2  0
 68 73  1  0
 69 65  1  0
 69 73  1  0
 70 69  1  0
 71 72  1  0
 71 70  1  0
 72 68  1  0
 73 74  2  0
 74 75  1  0
 76 75  2  0
 77 76  1  0
 78 52  1  0
 78 83  1  0
 78 79  1  0
 79 82  1  1
 79 80  1  0
 81 79  1  0
 83 86  1  0
 84 88  1  0
 84 83  1  0
 85 84  2  0
 88 87  1  0
 90 88  1  0
 90 91  1  0
 90 89  1  0
M  ISO  4  11 100  19 100  50 101  51 101
M  END
>  <TORSDO>  (38) 
F 19

>  <SCORE>  (38) 
-14.837

>  <name>  (38) 
37

>  <ligand_id>  (38) 
37

>  <original_smiles>  (38) 
[H]c1c([H])c([H])c2c(c1[H])C([H])([H])C([H])([H])C([H])([H])C2([H])N([H])C(=O)C1([H])N(C(=O)C([H])(N([H])C(=O)C([H])(N([H])C([H])([H])[H])C([H])([H])[H])C(C([H])([H])[H])(C([H])([H])[H])C([H])([H])[H])C([H])([H])c2c([H])c(OC([H])(C([H])([H])[H])C3([H])C([H])([H])C([H])([H])C([H])(C(=O)C([H])([H])N([H])C(=O)N4C([H])([H])C([H])([H])C([H])([H])C([H])(n5nc(-c6c([H])c([H])c(Oc7c([H])c([H])c(F)c([H])c7F)c([H])c6[H])c(C(=O)N([H])[H])c5N([H])[H])C4([H])[H])[N+]3([H])[H])c([H])c([H])c2C1([H])[H]

>  <smiles>  (38) 
[H]c1c([H])c([H])c2c(c1[H])C([H])([H])C([H])([H])C([H])([H])C2([H])N([H])C(=O)C1([H])N(C(=O)C([H])(N([H])C(=O)C([H])(N([H])C([H])([H])[H])C([H])([H])[H])C(C([H])([H])[H])(C([H])([H])[H])C([H])([H])[H])C([H])([H])c2c([H])c(OC([H])(C([H])([H])[H])C3([H])C([H])([H])C([H])([H])C([H])(C(=O)C([H])([H])N([H])C(=O)N4C([H])([H])C([H])([H])C([H])([H])C([H])(n5nc(-c6c([H])c([H])c(Oc7c([H])c([H])c(F)c([H])c7F)c([H])c6[H])c(C(=O)N([H])[H])c5N([H])[H])C4([H])[H])[N+]3([H])[H])c([H])c([H])c2C1([H])[H]

$$$$
38:0:0
     RDKit          3D

 93101  0  0  1  0  0  0  0  0999 V2000
  -29.1500  -22.2700   22.3500 C   0  0  0  0  0  2  0  0  0  0  0  0
  -29.4070  -20.8130   22.7370 C   0  0  0  0  0  2  0  0  0  0  0  0
  -29.8450  -21.0390   20.3950 C   0  0  0  0  0  2  0  0  0  0  0  0
  -28.8770  -22.1590   20.8490 C   0  0  0  0  0  3  0  0  0  0  0  0
  -30.1440  -20.2190   21.5990 N   0  0  2  0  0  4  0  0  0  0  0  0
  -31.1140  -20.3990   21.8070 H   0  0  0  0  0  0  0  0  0  0  0  0
  -28.2680  -24.5210   20.2570 C   0  0  0  0  0  0  0  0  0  0  0  0
  -29.0170  -23.4140   20.0930 N   0  0  0  0  0  0  0  0  0  0  0  0
  -27.3740  -24.5830   21.1060 O   0  0  0  0  0  0  0  0  0  0  0  0
  -29.7190  -23.4450   19.3650 H   0  0  0  0  0  0  0  0  0  0  0  0
  -28.5640  -25.7240   19.3340 C   0  0  0  0  0  2  0  0  0  0  0  0
  -28.4370  -26.9830   20.0190 O   0  0  0  0  0  0  0  0  0  0  0  0
  -24.6470  -31.9530   23.3930 C   0  0  0  0  0  0  0  0  0  0  0  0
  -27.2340  -27.6650   20.0490 C   0  0  0  0  0  0  0  0  0  0  0  0
  -23.4080  -30.6260   21.7130 C   0  0  0  0  0  3  0  0  0  0  0  0
  -24.8300  -29.1590   20.1890 C   0  0  0  0  0  0  0  0  0  0  0  0
  -25.9270  -30.9990   21.4790 C   0  0  0  0  0  2  0  0  0  0  0  0
  -25.9990  -29.6580   20.7750 C   0  0  0  0  0  0  0  0  0  0  0  0
  -27.1990  -28.9170   20.7060 C   0  0  0  0  0  3  0  0  0  0  0  0
  -26.0420  -27.1770   19.4650 C   0  0  0  0  0  3  0  0  0  0  0  0
  -24.8460  -27.9150   19.5350 C   0  0  0  0  0  3  0  0  0  0  0  0
  -23.5870  -30.0110   20.2990 C   0  0  0  0  0  2  0  0  0  0  0  0
  -24.6810  -31.2050   22.2530 N   0  0  0  0  0  0  0  0  0  0  0  0
  -23.5770  -32.1970   23.9680 O   0  0  0  0  0  0  0  0  0  0  0  0
  -22.7790  -29.5600   22.6390 C   0  0  0  0  0  0  0  0  0  0  0  0
  -21.4630  -29.3370   22.4860 N   0  0  0  0  0  0  0  0  0  0  0  0
  -23.4710  -28.9380   23.4490 O   0  0  0  0  0  0  0  0  0  0  0  0
  -20.9650  -29.8930   21.8050 H   0  0  0  0  0  0  0  0  0  0  0  0
  -18.1340  -27.9880   22.8630 C   0  0  0  0  0  0  0  0  0  0  0  0
  -20.6670  -28.3550   23.2200 C   0  0  0  0  0  3  0  0  0  0  0  0
  -20.8530  -26.9370   22.6320 C   0  0  0  0  0  2  0  0  0  0  0  0
  -19.7990  -26.5790   21.5790 C   0  0  0  0  0  2  0  0  0  0  0  0
  -18.3920  -26.6550   22.1800 C   0  0  0  0  0  2  0  0  0  0  0  0
  -19.2030  -28.7930   23.3380 C   0  0  0  0  0  0  0  0  0  0  0  0
  -18.9100  -30.0390   23.9330 C   0  0  0  0  0  3  0  0  0  0  0  0
  -17.5800  -30.4810   24.0610 C   0  0  0  0  0  3  0  0  0  0  0  0
  -16.5240  -29.6730   23.6040 C   0  0  0  0  0  3  0  0  0  0  0  0
  -16.8020  -28.4290   23.0110 C   0  0  0  0  0  3  0  0  0  0  0  0
  -25.9460  -32.5560   24.0140 C   0  0  0  0  0  3  0  0  0  0  0  0
  -25.6700  -33.9610   24.3390 N   0  0  0  0  0  0  0  0  0  0  0  0
  -26.0300  -35.0030   23.5770 C   0  0  0  0  0  0  0  0  0  0  0  0
  -26.7020  -34.8800   22.5490 O   0  0  0  0  0  0  0  0  0  0  0  0
  -25.0760  -34.1330   25.1380 H   0  0  0  0  0  0  0  0  0  0  0  0
  -24.3410  -36.8280   23.2110 C   0  0  0  0  0  1  0  0  0  0  0  0
  -25.5720  -36.4040   24.0270 C   0  0  0  0  0  3  0  0  0  0  0  0
  -27.7190  -37.2490   24.8620 C   0  0  0  0  0  1  0  0  0  0  0  0
  -26.6270  -37.4330   23.9100 N   0  0  0  0  0  0  0  0  0  0  0  0
  -26.2400  -38.3630   24.0470 H   0  0  0  0  0  0  0  0  0  0  0  0
  -26.4460  -31.7750   25.2910 C   0  0  1  0  0  0  0  0  0  0  0  0
  -25.3400  -31.5390   26.3460 C   0  0  0  0  0  1  0  0  0  0  0  0
  -27.0230  -30.3970   24.8950 C   0  0  0  0  0  1  0  0  0  0  0  0
  -27.5940  -32.5580   25.9690 C   0  0  0  0  0  1  0  0  0  0  0  0
  -30.0190  -18.7380   21.4780 C   0  0  0  0  0  2  0  0  0  0  0  0
  -31.2610  -18.0840   20.8200 C   0  0  0  0  0  2  0  0  0  0  0  0
  -31.6900  -16.7180   21.4160 C   0  0  0  0  0  2  0  0  0  0  0  0
  -31.3490  -14.6510   20.0590 C   0  0  0  0  0  0  0  0  0  0  0  0
  -30.9160  -12.4880   18.9510 C   0  0  0  0  0  2  0  0  0  0  0  0
  -29.9230  -12.6520   17.7840 C   0  0  0  0  0  2  0  0  0  0  0  0
  -28.4710  -12.5520   18.2890 C   0  0  0  0  0  2  0  0  0  0  0  0
  -28.2040  -13.4600   19.5200 C   0  0  0  0  0  3  0  0  0  0  0  0
  -29.3000  -13.2720   20.5910 C   0  0  0  0  0  2  0  0  0  0  0  0
  -30.6100  -13.5150   19.9590 N   0  0  0  0  0  0  0  0  0  0  0  0
  -32.3690  -14.8500   19.3940 O   0  0  0  0  0  0  0  0  0  0  0  0
  -30.9200  -15.5560   20.9550 N   0  0  0  0  0  0  0  0  0  0  0  0
  -30.0780  -15.3210   21.4610 H   0  0  0  0  0  0  0  0  0  0  0  0
  -25.8820  -14.1550   20.3860 C   0  0  0  0  0  0  0  0  0  0  0  0
  -24.8020  -13.4210   20.7970 C   0  0  0  0  0  0  0  0  0  0  0  0
  -25.1940  -12.0510   20.6980 C   0  0  0  0  0  0  0  0  0  0  0  0
  -26.8690  -13.2340   20.0690 N   0  0  0  0  0  0  0  0  0  0  0  0
  -26.4610  -11.9620   20.3100 N   0  0  0  0  0  0  0  0  0  0  0  0
  -24.4210  -10.8180   20.8950 C   0  0  0  0  0  0  0  0  0  0  0  0
  -24.8010   -9.8530   21.8530 C   0  0  0  0  0  3  0  0  0  0  0  0
  -24.0310   -8.6840   22.0360 C   0  0  0  0  0  3  0  0  0  0  0  0
  -22.8670   -8.4730   21.2600 C   0  0  0  0  0  0  0  0  0  0  0  0
  -22.5050   -9.4260   20.2920 C   0  0  0  0  0  3  0  0  0  0  0  0
  -23.2760  -10.5860   20.1070 C   0  0  0  0  0  3  0  0  0  0  0  0
  -22.0720   -7.3560   21.3510 O   0  0  0  0  0  0  0  0  0  0  0  0
  -21.8910   -6.6950   22.5400 C   0  0  0  0  0  0  0  0  0  0  0  0
  -21.3490   -7.3380   23.6740 C   0  0  0  0  0  3  0  0  0  0  0  0
  -21.1150   -6.6040   24.8550 C   0  0  0  0  0  3  0  0  0  0  0  0
  -21.4130   -5.2290   24.9010 C   0  0  0  0  0  0  0  0  0  0  0  0
  -21.9500   -4.5860   23.7710 C   0  0  0  0  0  3  0  0  0  0  0  0
  -22.1850   -5.3180   22.5920 C   0  0  0  0  0  0  0  0  0  0  0  0
  -22.6810   -4.6900   21.5000 F   0  0  0  0  0  0  0  0  0  0  0  0
  -21.1830   -4.5230   26.0310 F   0  0  0  0  0  0  0  0  0  0  0  0
  -23.4470  -13.9540   21.1700 C   0  0  0  0  0  0  0  0  0  0  0  0
  -22.7460  -13.2700   22.0670 N   0  0  0  0  0  0  0  0  0  0  0  0
  -23.0240  -15.0090   20.6990 O   0  0  0  0  0  0  0  0  0  0  0  0
  -23.1030  -12.4150   22.4670 H   0  0  0  0  0  0  0  0  0  0  0  0
  -21.8390  -13.6070   22.3570 H   0  0  0  0  0  0  0  0  0  0  0  0
  -26.1020  -15.5210   20.2400 N   0  0  0  0  0  0  0  0  0  0  0  0
  -25.3740  -16.2070   20.4080 H   0  0  0  0  0  0  0  0  0  0  0  0
  -26.9520  -15.9280   19.8690 H   0  0  0  0  0  0  0  0  0  0  0  0
  1  2  1  0
  3  4  1  0
  3  5  1  0
  4  8  1  0
  4  1  1  0
  5  6  1  1
  5  2  1  0
  7  9  2  0
  8  7  1  0
 10  8  1  0
 11 12  1  0
 11  7  1  0
 12 14  1  0
 13 24  2  0
 14 19  1  0
 15 23  1  0
 15 25  1  0
 16 22  1  0
 16 18  1  0
 17 23  1  0
 18 17  1  0
 19 18  2  0
 20 21  1  0
 20 14  2  0
 21 16  2  0
 22 15  1  0
 23 13  1  0
 25 27  2  0
 26 25  1  0
 28 26  1  0
 29 38  2  0
 29 34  1  0
 30 26  1  0
 30 34  1  0
 31 30  1  0
 32 33  1  0
 32 31  1  0
 33 29  1  0
 34 35  2  0
 35 36  1  0
 37 36  2  0
 38 37  1  0
 39 13  1  0
 39 40  1  0
 39 49  1  0
 40 43  1  0
 41 45  1  0
 41 40  1  0
 42 41  2  0
 45 44  1  0
 47 45  1  0
 47 48  1  0
 47 46  1  0
 49 52  1  1
 49 50  1  0
 51 49  1  0
 53  5  1  0
 54 55  1  0
 54 53  1  0
 56 64  1  0
 57 62  1  0
 58 59  1  0
 58 57  1  0
 60 59  1  0
 60 69  1  0
 60 61  1  0
 62 56  1  0
 62 61  1  0
 63 56  2  0
 64 55  1  0
 64 65  1  0
 66 67  2  0
 67 86  1  0
 68 67  1  0
 68 71  1  0
 69 70  1  0
 69 66  1  0
 70 68  2  0
 71 72  1  0
 72 73  2  0
 74 77  1  0
 74 73  1  0
 75 74  2  0
 76 75  1  0
 76 71  2  0
 77 78  1  0
 78 83  2  0
 78 79  1  0
 79 80  2  0
 80 81  1  0
 81 85  1  0
 82 81  2  0
 83 82  1  0
 84 83  1  0
 86 87  1  0
 87 90  1  0
 87 89  1  0
 88 86  2  0
 91 66  1  0
 91 92  1  0
 93 91  1  0
M  ISO  4  11 101  12 101  56 100  64 100
M  END
>  <TORSDO>  (39) 
F 21

>  <SCORE>  (39) 
-11.967

>  <name>  (39) 
38

>  <ligand_id>  (39) 
38

>  <original_smiles>  (39) 
[H]c1c([H])c([H])c2c(c1[H])C([H])([H])C([H])([H])C([H])([H])C2([H])N([H])C(=O)C1([H])N(C(=O)C([H])(N([H])C(=O)C([H])(N([H])C([H])([H])[H])C([H])([H])[H])C(C([H])([H])[H])(C([H])([H])[H])C([H])([H])[H])C([H])([H])c2c([H])c(OC([H])([H])C(=O)N([H])C3([H])C([H])([H])C([H])([H])[N+]([H])(C([H])([H])C([H])([H])C([H])([H])N([H])C(=O)N4C([H])([H])C([H])([H])C([H])([H])C([H])(n5nc(-c6c([H])c([H])c(Oc7c([H])c([H])c(F)c([H])c7F)c([H])c6[H])c(C(=O)N([H])[H])c5N([H])[H])C4([H])[H])C3([H])[H])c([H])c([H])c2C1([H])[H]

>  <smiles>  (39) 
[H]c1c([H])c([H])c2c(c1[H])C([H])([H])C([H])([H])C([H])([H])C2([H])N([H])C(=O)C1([H])N(C(=O)C([H])(N([H])C(=O)C([H])(N([H])C([H])([H])[H])C([H])([H])[H])C(C([H])([H])[H])(C([H])([H])[H])C([H])([H])[H])C([H])([H])c2c([H])c(OC([H])([H])C(=O)N([H])C3([H])C([H])([H])C([H])([H])[N+]([H])(C([H])([H])C([H])([H])C([H])([H])N([H])C(=O)N4C([H])([H])C([H])([H])C([H])([H])C([H])(n5nc(-c6c([H])c([H])c(Oc7c([H])c([H])c(F)c([H])c7F)c([H])c6[H])c(C(=O)N([H])[H])c5N([H])[H])C4([H])[H])C3([H])[H])c([H])c([H])c2C1([H])[H]

$$$$
39:0:0
     RDKit          3D

 99107  0  0  1  0  0  0  0  0999 V2000
  -29.2510  -21.6440   19.9370 C   0  0  0  0  0  0  0  0  0  0  0  0
  -29.3120  -22.9030   20.4440 N   0  0  0  0  0  0  0  0  0  0  0  0
  -29.0290  -21.4540   18.7410 O   0  0  0  0  0  0  0  0  0  0  0  0
  -29.4680  -22.9830   21.4420 H   0  0  0  0  0  0  0  0  0  0  0  0
  -30.8190  -19.6390   20.4770 C   0  0  0  0  0  2  0  0  0  0  0  0
  -29.5390  -20.4130   20.8620 C   0  0  0  0  0  3  0  0  0  0  0  0
  -30.1380  -18.2660   20.7430 C   0  0  0  0  0  3  0  0  0  0  0  0
  -28.8090  -19.0690   20.5480 C   0  0  0  0  0  3  0  0  0  0  0  0
  -27.7260  -18.7330   21.5050 N   0  0  0  0  0  4  0  0  0  0  0  0
  -28.0380  -18.7630   22.4600 H   0  0  0  0  0  0  0  0  0  0  0  0
  -27.3680  -17.8100   21.3310 H   0  0  0  0  0  0  0  0  0  0  0  0
  -26.9590  -19.3730   21.4160 H   0  0  0  0  0  0  0  0  0  0  0  0
  -30.5660  -17.0810   19.8070 C   0  0  0  0  0  2  0  0  0  0  0  0
  -31.0390  -14.6090   19.7550 C   0  0  0  0  0  0  0  0  0  0  0  0
  -30.5780  -12.5020   18.5500 C   0  0  0  0  0  2  0  0  0  0  0  0
  -29.5180  -12.8090   17.4750 C   0  0  0  0  0  2  0  0  0  0  0  0
  -28.0950  -12.6610   18.0500 C   0  0  0  0  0  2  0  0  0  0  0  0
  -27.9220  -13.3990   19.4060 C   0  0  0  0  0  3  0  0  0  0  0  0
  -29.0990  -13.1060   20.3700 C   0  0  0  0  0  2  0  0  0  0  0  0
  -30.3490  -13.4350   19.6690 N   0  0  0  0  0  0  0  0  0  0  0  0
  -32.1270  -14.7620   19.1940 O   0  0  0  0  0  0  0  0  0  0  0  0
  -30.3660  -15.6720   20.2660 N   0  0  0  0  0  0  0  0  0  0  0  0
  -29.4910  -15.4540   20.7190 H   0  0  0  0  0  0  0  0  0  0  0  0
  -25.6480  -13.9820   20.4510 C   0  0  0  0  0  0  0  0  0  0  0  0
  -24.6180  -13.2010   20.8960 C   0  0  0  0  0  0  0  0  0  0  0  0
  -25.0330  -11.8480   20.7020 C   0  0  0  0  0  0  0  0  0  0  0  0
  -26.6320  -13.1050   20.0220 N   0  0  0  0  0  0  0  0  0  0  0  0
  -26.2740  -11.8120   20.2320 N   0  0  0  0  0  0  0  0  0  0  0  0
  -24.3030  -10.5890   20.8810 C   0  0  0  0  0  0  0  0  0  0  0  0
  -24.7150   -9.6270   21.8300 C   0  0  0  0  0  3  0  0  0  0  0  0
  -23.9860   -8.4290   21.9990 C   0  0  0  0  0  3  0  0  0  0  0  0
  -22.8310   -8.1870   21.2190 C   0  0  0  0  0  0  0  0  0  0  0  0
  -22.4390   -9.1380   20.2600 C   0  0  0  0  0  3  0  0  0  0  0  0
  -23.1680  -10.3260   20.0890 C   0  0  0  0  0  3  0  0  0  0  0  0
  -22.0690   -7.0450   21.3010 O   0  0  0  0  0  0  0  0  0  0  0  0
  -21.8450   -6.4110   22.4970 C   0  0  0  0  0  0  0  0  0  0  0  0
  -21.2060   -7.0620   23.5760 C   0  0  0  0  0  3  0  0  0  0  0  0
  -20.9340   -6.3540   24.7640 C   0  0  0  0  0  3  0  0  0  0  0  0
  -21.2860   -4.9950   24.8680 C   0  0  0  0  0  0  0  0  0  0  0  0
  -21.9140   -4.3410   23.7930 C   0  0  0  0  0  3  0  0  0  0  0  0
  -22.1890   -5.0480   22.6070 C   0  0  0  0  0  0  0  0  0  0  0  0
  -22.7760   -4.4100   21.5670 F   0  0  0  0  0  0  0  0  0  0  0  0
  -21.0150   -4.3120   26.0040 F   0  0  0  0  0  0  0  0  0  0  0  0
  -23.2780  -13.6770   21.3760 C   0  0  0  0  0  0  0  0  0  0  0  0
  -22.6480  -12.9350   22.2840 N   0  0  0  0  0  0  0  0  0  0  0  0
  -22.7980  -14.7370   20.9810 O   0  0  0  0  0  0  0  0  0  0  0  0
  -23.0410  -12.0730   22.6300 H   0  0  0  0  0  0  0  0  0  0  0  0
  -21.7510  -13.2380   22.6400 H   0  0  0  0  0  0  0  0  0  0  0  0
  -25.8260  -15.3620   20.3570 N   0  0  0  0  0  0  0  0  0  0  0  0
  -25.0670  -16.0010   20.5610 H   0  0  0  0  0  0  0  0  0  0  0  0
  -26.6000  -15.8080   19.8840 H   0  0  0  0  0  0  0  0  0  0  0  0
  -29.2470  -24.1920   19.6820 C   0  0  0  0  0  3  0  0  0  0  0  0
  -30.6670  -24.7680   19.4400 C   0  0  0  0  0  2  0  0  0  0  0  0
  -31.6320  -23.8080   18.8790 N   0  0  0  0  0  4  0  0  0  0  0  0
  -31.8380  -23.0770   19.5350 H   0  0  0  0  0  0  0  0  0  0  0  0
  -32.4890  -24.2900   18.6690 H   0  0  0  0  0  0  0  0  0  0  0  0
  -31.2810  -23.4030   18.0300 H   0  0  0  0  0  0  0  0  0  0  0  0
  -28.3430  -25.2830   20.3580 C   0  0  0  0  0  2  0  0  0  0  0  0
  -28.4110  -26.5990   19.7370 O   0  0  0  0  0  0  0  0  0  0  0  0
  -24.6220  -31.7450   22.9560 C   0  0  0  0  0  0  0  0  0  0  0  0
  -27.2600  -27.3690   19.7600 C   0  0  0  0  0  0  0  0  0  0  0  0
  -23.4190  -30.3890   21.2770 C   0  0  0  0  0  3  0  0  0  0  0  0
  -24.8710  -28.8990   19.8030 C   0  0  0  0  0  0  0  0  0  0  0  0
  -25.9440  -30.7590   21.0790 C   0  0  0  0  0  2  0  0  0  0  0  0
  -26.0340  -29.4020   20.4000 C   0  0  0  0  0  0  0  0  0  0  0  0
  -27.2350  -28.6530   20.3630 C   0  0  0  0  0  3  0  0  0  0  0  0
  -26.0820  -26.8890   19.1500 C   0  0  0  0  0  3  0  0  0  0  0  0
  -24.8920  -27.6420   19.1720 C   0  0  0  0  0  3  0  0  0  0  0  0
  -23.6280  -29.7570   19.8760 C   0  0  0  0  0  2  0  0  0  0  0  0
  -24.6810  -30.9790   21.8280 N   0  0  0  0  0  0  0  0  0  0  0  0
  -23.5420  -31.9940   23.5100 O   0  0  0  0  0  0  0  0  0  0  0  0
  -22.7730  -29.3370   22.2100 C   0  0  0  0  0  0  0  0  0  0  0  0
  -21.4400  -29.1900   22.1210 N   0  0  0  0  0  0  0  0  0  0  0  0
  -23.4680  -28.6570   22.9680 O   0  0  0  0  0  0  0  0  0  0  0  0
  -20.9400  -29.7960   21.4830 H   0  0  0  0  0  0  0  0  0  0  0  0
  -18.0490  -28.1030   22.7480 C   0  0  0  0  0  0  0  0  0  0  0  0
  -20.6270  -28.2330   22.8730 C   0  0  0  0  0  3  0  0  0  0  0  0
  -20.6280  -26.8460   22.1890 C   0  0  0  0  0  2  0  0  0  0  0  0
  -19.4540  -26.6460   21.2270 C   0  0  0  0  0  2  0  0  0  0  0  0
  -18.1210  -26.8020   21.9660 C   0  0  0  0  0  2  0  0  0  0  0  0
  -19.2260  -28.7830   23.1600 C   0  0  0  0  0  0  0  0  0  0  0  0
  -19.1040  -30.0060   23.8550 C   0  0  0  0  0  3  0  0  0  0  0  0
  -17.8380  -30.5490   24.1390 C   0  0  0  0  0  3  0  0  0  0  0  0
  -16.6760  -29.8660   23.7410 C   0  0  0  0  0  3  0  0  0  0  0  0
  -16.7830  -28.6440   23.0540 C   0  0  0  0  0  3  0  0  0  0  0  0
  -25.9060  -32.3670   23.5880 C   0  0  0  0  0  3  0  0  0  0  0  0
  -26.4770  -31.5210   24.7930 C   0  0  1  0  0  0  0  0  0  0  0  0
  -25.4180  -31.1730   25.8660 C   0  0  0  0  0  1  0  0  0  0  0  0
  -27.0870  -30.1960   24.2830 C   0  0  0  0  0  1  0  0  0  0  0  0
  -27.6190  -32.3000   25.4880 C   0  0  0  0  0  1  0  0  0  0  0  0
  -25.5730  -33.7290   24.0270 N   0  0  0  0  0  0  0  0  0  0  0  0
  -25.8590  -34.8420   23.3360 C   0  0  0  0  0  0  0  0  0  0  0  0
  -26.5030  -34.8300   22.2840 O   0  0  0  0  0  0  0  0  0  0  0  0
  -25.0030  -33.8080   24.8560 H   0  0  0  0  0  0  0  0  0  0  0  0
  -24.0890  -36.6170   23.1440 C   0  0  0  0  0  1  0  0  0  0  0  0
  -25.3510  -36.1810   23.9060 C   0  0  0  0  0  3  0  0  0  0  0  0
  -27.4730  -37.0530   24.7810 C   0  0  0  0  0  1  0  0  0  0  0  0
  -26.3610  -37.2620   23.8600 N   0  0  0  0  0  0  0  0  0  0  0  0
  -25.9360  -38.1610   24.0730 H   0  0  0  0  0  0  0  0  0  0  0  0
  1  2  1  0
  2  4  1  0
  3  1  2  0
  5  7  1  0
  5  6  1  0
  6  1  1  0
  7 13  1  0
  8  7  1  0
  8  6  1  0
  8  9  1  0
  9 10  1  0
 11  9  1  0
 12  9  1  0
 13 22  1  0
 14 22  1  0
 15 20  1  0
 16 17  1  0
 16 15  1  0
 18 17  1  0
 18 27  1  0
 18 19  1  0
 20 14  1  0
 20 19  1  0
 21 14  2  0
 22 23  1  0
 24 25  2  0
 25 44  1  0
 26 29  1  0
 26 25  1  0
 27 28  1  0
 27 24  1  0
 28 26  2  0
 29 30  1  0
 30 31  2  0
 32 35  1  0
 32 31  1  0
 33 32  2  0
 34 33  1  0
 34 29  2  0
 35 36  1  0
 36 41  2  0
 36 37  1  0
 37 38  2  0
 38 39  1  0
 39 43  1  0
 40 39  2  0
 41 40  1  0
 42 41  1  0
 44 45  1  0
 45 47  1  0
 45 48  1  0
 46 44  2  0
 49 24  1  0
 49 50  1  0
 51 49  1  0
 52 53  1  0
 52 58  1  0
 52  2  1  0
 54 53  1  0
 54 55  1  0
 56 54  1  0
 57 54  1  0
 59 61  1  0
 59 58  1  0
 60 71  2  0
 61 66  1  0
 62 70  1  0
 62 72  1  0
 63 69  1  0
 63 65  1  0
 64 70  1  0
 65 64  1  0
 66 65  2  0
 67 68  1  0
 67 61  2  0
 68 63  2  0
 69 62  1  0
 70 60  1  0
 72 74  2  0
 73 72  1  0
 75 73  1  0
 76 85  2  0
 76 81  1  0
 77 73  1  0
 77 81  1  0
 78 77  1  0
 79 80  1  0
 79 78  1  0
 80 76  1  0
 81 82  2  0
 82 83  1  0
 84 83  2  0
 85 84  1  0
 86 60  1  0
 86 91  1  0
 86 87  1  0
 87 90  1  1
 87 88  1  0
 89 87  1  0
 91 94  1  0
 92 96  1  0
 92 91  1  0
 93 92  2  0
 96 95  1  0
 98 96  1  0
 98 99  1  0
 98 97  1  0
M  ISO  4  14 100  22 100  58 101  59 101
M  END
>  <TORSDO>  (40) 
F 23

>  <SCORE>  (40) 
-10.594

>  <name>  (40) 
39

>  <ligand_id>  (40) 
39

>  <original_smiles>  (40) 
[H]c1c([H])c([H])c2c(c1[H])C([H])([H])C([H])([H])C([H])([H])C2([H])N([H])C(=O)C1([H])N(C(=O)C([H])(N([H])C(=O)C([H])(N([H])C([H])([H])[H])C([H])([H])[H])C(C([H])([H])[H])(C([H])([H])[H])C([H])([H])[H])C([H])([H])c2c([H])c(OC([H])([H])C([H])(N([H])C(=O)C3([H])C([H])([H])C([H])(C([H])([H])N([H])C(=O)N4C([H])([H])C([H])([H])C([H])([H])C([H])(n5nc(-c6c([H])c([H])c(Oc7c([H])c([H])c(F)c([H])c7F)c([H])c6[H])c(C(=O)N([H])[H])c5N([H])[H])C4([H])[H])C3([H])[N+]([H])([H])[H])C([H])([H])[N+]([H])([H])[H])c([H])c([H])c2C1([H])[H]

>  <smiles>  (40) 
[H]c1c([H])c([H])c2c(c1[H])C([H])([H])C([H])([H])C([H])([H])C2([H])N([H])C(=O)C1([H])N(C(=O)C([H])(N([H])C(=O)C([H])(N([H])C([H])([H])[H])C([H])([H])[H])C(C([H])([H])[H])(C([H])([H])[H])C([H])([H])[H])C([H])([H])c2c([H])c(OC([H])([H])C([H])(N([H])C(=O)C3([H])C([H])([H])C([H])(C([H])([H])N([H])C(=O)N4C([H])([H])C([H])([H])C([H])([H])C([H])(n5nc(-c6c([H])c([H])c(Oc7c([H])c([H])c(F)c([H])c7F)c([H])c6[H])c(C(=O)N([H])[H])c5N([H])[H])C4([H])[H])C3([H])[N+]([H])([H])[H])C([H])([H])[N+]([H])([H])[H])c([H])c([H])c2C1([H])[H]

$$$$
40:0:0
     RDKit          3D

101103  0  0  1  0  0  0  0  0999 V2000
  -28.6400  -21.6720   20.8000 C   0  0  0  0  0  2  0  0  0  0  0  0
  -26.5950  -21.2070   21.3610 C   0  0  0  0  0 15  0  0  0  0  0  0
  -25.7600  -25.0140   21.7790 C   0  0  0  0  0  1  0  0  0  0  0  0
  -28.2450  -20.0750   21.1780 C   0  0  0  0  0  1  0  0  0  0  0  0
  -28.5120  -23.1660   21.7430 C   0  0  0  0  0  3  0  0  0  0  0  0
  -25.8240  -23.0290   21.8770 C   0  0  0  0  0  2  0  0  0  0  0  0
  -27.2110  -24.2400   22.3790 C   0  0  1  0  0  0  0  0  0  0  0  0
  -26.3180  -23.4200   23.1580 N   0  0  0  0  0  4  0  0  0  0  0  0
  -25.7050  -24.0470   23.6830 H   0  0  0  0  0  0  0  0  0  0  0  0
  -26.7820  -22.7290   23.6940 H   0  0  0  0  0  0  0  0  0  0  0  0
  -30.1010  -16.8570   20.1820 C   0  0  0  0  0  0  0  0  0  0  0  0
  -30.9380  -14.2430   19.1980 C   0  0  0  0  0  2  0  0  0  0  0  0
  -30.3070  -13.2620   18.0980 C   0  0  0  0  0  2  0  0  0  0  0  0
  -28.9950  -12.6180   18.5300 C   0  0  0  0  0  2  0  0  0  0  0  0
  -28.2720  -13.6530   19.3990 C   0  0  0  0  0  3  0  0  0  0  0  0
  -29.0890  -14.3070   20.5420 C   0  0  0  0  0  2  0  0  0  0  0  0
  -29.9750  -15.3190   19.9500 N   0  0  0  0  0  0  0  0  0  0  0  0
  -31.3270  -16.8820   19.8610 O   0  0  0  0  0  0  0  0  0  0  0  0
  -29.0600  -18.2510   20.6200 N   0  0  0  0  0  2  0  0  0  0  0  0
  -29.9320  -18.7580   20.5590 H   0  0  0  0  0  0  0  0  0  0  0  0
  -26.0250  -14.0930   20.3910 C   0  0  0  0  0  0  0  0  0  0  0  0
  -25.0120  -13.2890   20.8140 C   0  0  0  0  0  0  0  0  0  0  0  0
  -25.4550  -11.9440   20.6080 C   0  0  0  0  0  0  0  0  0  0  0  0
  -27.0110  -13.2420   19.9480 N   0  0  0  0  0  0  0  0  0  0  0  0
  -26.6960  -11.9390   20.1260 N   0  0  0  0  0  0  0  0  0  0  0  0
  -24.7350  -10.6760   20.7650 C   0  0  0  0  0  0  0  0  0  0  0  0
  -25.2060   -9.6570   21.6210 C   0  0  0  0  0  3  0  0  0  0  0  0
  -24.4750   -8.4610   21.7700 C   0  0  0  0  0  3  0  0  0  0  0  0
  -23.2610   -8.2810   21.0690 C   0  0  0  0  0  0  0  0  0  0  0  0
  -22.8040   -9.2920   20.2060 C   0  0  0  0  0  3  0  0  0  0  0  0
  -23.5340  -10.4810   20.0520 C   0  0  0  0  0  3  0  0  0  0  0  0
  -22.4950   -7.1470   21.1340 O   0  0  0  0  0  0  0  0  0  0  0  0
  -22.3820   -6.4190   22.2890 C   0  0  0  0  0  0  0  0  0  0  0  0
  -21.9190   -6.9930   23.4920 C   0  0  0  0  0  3  0  0  0  0  0  0
  -21.7560   -6.1910   24.6400 C   0  0  0  0  0  3  0  0  0  0  0  0
  -22.0440   -4.8140   24.5840 C   0  0  0  0  0  0  0  0  0  0  0  0
  -22.4970   -4.2370   23.3850 C   0  0  0  0  0  3  0  0  0  0  0  0
  -22.6620   -5.0370   22.2390 C   0  0  0  0  0  0  0  0  0  0  0  0
  -23.0790   -4.4700   21.0810 F   0  0  0  0  0  0  0  0  0  0  0  0
  -21.8790   -4.0440   25.6830 F   0  0  0  0  0  0  0  0  0  0  0  0
  -23.6780  -13.7610   21.2970 C   0  0  0  0  0  0  0  0  0  0  0  0
  -23.0450  -13.0290   22.2040 N   0  0  0  0  0  0  0  0  0  0  0  0
  -23.2030  -14.8190   20.8890 O   0  0  0  0  0  0  0  0  0  0  0  0
  -23.4350  -12.1680   22.5610 H   0  0  0  0  0  0  0  0  0  0  0  0
  -22.1540  -13.3430   22.5600 H   0  0  0  0  0  0  0  0  0  0  0  0
  -26.2010  -15.4760   20.3430 N   0  0  0  0  0  0  0  0  0  0  0  0
  -25.4780  -16.1240   20.6410 H   0  0  0  0  0  0  0  0  0  0  0  0
  -27.0230  -15.9420   19.9870 H   0  0  0  0  0  0  0  0  0  0  0  0
  -25.6150  -27.4800   23.5540 C   0  0  0  0  0  1  0  0  0  0  0  0
  -23.6750  -25.8110   23.2110 C   0  0  0  0  0  1  0  0  0  0  0  0
  -24.5960  -26.7930   22.5040 C   0  0  0  0  0  3  0  0  0  0  0  0
  -23.2650  -28.6340   22.2410 C   0  0  0  0  0 15  0  0  0  0  0  0
  -21.3060  -29.2300   19.3330 C   0  0  0  0  0  3  0  0  0  0  0  0
  -22.0100  -29.6180   20.8810 N   0  0  0  0  0  2  0  0  0  0  0  0
  -20.3470  -29.9130   18.9140 O   0  0  0  0  0  0  0  0  0  0  0  0
  -21.7440  -30.5260   21.2010 H   0  0  0  0  0  0  0  0  0  0  0  0
  -22.0600  -27.7430   18.0690 C   0  0  0  0  0 15  0  0  0  0  0  0
  -23.8640  -26.9760   17.8260 O   0  0  0  0  0  1  0  0  0  0  0  0
  -25.4640  -30.4080   21.7390 C   0  0  0  0  0  0  0  0  0  0  0  0
  -25.2720  -27.1470   17.2840 C   0  0  0  0  0  3  0  0  0  0  0  0
  -24.1990  -29.2220   19.9420 C   0  0  0  0  0  3  0  0  0  0  0  0
  -24.7140  -29.5340   17.6000 C   0  0  0  0  0  3  0  0  0  0  0  0
  -26.3910  -29.9790   19.3770 C   0  0  0  0  0  2  0  0  0  0  0  0
  -25.9550  -29.2560   18.1210 C   0  0  0  0  0  3  0  0  0  0  0  0
  -26.3110  -27.9480   17.8300 C   0  0  0  0  0  2  0  0  0  0  0  0
  -24.9750  -27.7130   16.0830 C   0  0  0  0  0  2  0  0  0  0  0  0
  -24.2930  -28.8930   16.4220 C   0  0  0  0  0  2  0  0  0  0  0  0
  -23.7710  -30.0090   18.5960 C   0  0  0  0  0  2  0  0  0  0  0  0
  -25.3710  -29.9300   20.4330 N   0  0  0  0  0  0  0  0  0  0  0  0
  -24.5730  -30.4020   22.6260 O   0  0  0  0  0  0  0  0  0  0  0  0
  -24.3860  -27.4160   20.1540 C   0  0  0  0  0  3  0  0  0  0  0  0
  -23.2490  -26.2250   19.9340 N   0  0  0  0  0  0  0  0  0  0  0  0
  -25.3150  -27.2570   20.8710 O   0  0  0  0  0  0  0  0  0  0  0  0
  -22.7690  -26.6820   19.1590 H   0  0  0  0  0  0  0  0  0  0  0  0
  -18.7600  -26.0510   20.6460 C   0  0  0  0  0  0  0  0  0  0  0  0
  -21.5620  -25.7280   20.6080 C   0  0  0  0  0  3  0  0  0  0  0  0
  -21.1120  -24.6030   19.8800 C   0  0  0  0  0  2  0  0  0  0  0  0
  -20.0890  -24.9740   18.8480 C   0  0  0  0  0  2  0  0  0  0  0  0
  -18.7230  -25.1300   19.5030 C   0  0  0  0  0  2  0  0  0  0  0  0
  -20.0240  -26.4950   21.1770 C   0  0  0  0  0  0  0  0  0  0  0  0
  -19.7060  -27.4640   22.2350 C   0  0  0  0  0  3  0  0  0  0  0  0
  -18.3930  -27.8520   22.6950 C   0  0  0  0  0  3  0  0  0  0  0  0
  -17.2250  -27.2780   22.1540 C   0  0  0  0  0  3  0  0  0  0  0  0
  -17.4480  -26.3830   21.1030 C   0  0  0  0  0  3  0  0  0  0  0  0
  -26.7750  -31.0250   22.1290 C   0  0  0  0  0  3  0  0  0  0  0  0
  -26.5020  -32.1240   23.0520 N   0  0  0  0  0  0  0  0  0  0  0  0
  -26.6970  -33.4160   22.7500 C   0  0  0  0  0  0  0  0  0  0  0  0
  -27.1160  -33.7940   21.6480 O   0  0  0  0  0  0  0  0  0  0  0  0
  -25.8690  -31.9770   23.8350 H   0  0  0  0  0  0  0  0  0  0  0  0
  -25.0020  -35.0830   23.6650 C   0  0  0  0  0  1  0  0  0  0  0  0
  -26.3860  -34.4310   23.8390 C   0  0  0  0  0  3  0  0  0  0  0  0
  -28.7020  -35.0370   24.4560 C   0  0  0  0  0  1  0  0  0  0  0  0
  -27.3950  -35.5120   23.9920 N   0  0  0  0  0  0  0  0  0  0  0  0
  -27.0410  -36.2060   24.6500 H   0  0  0  0  0  0  0  0  0  0  0  0
  -27.8730  -30.0450   22.6800 C   0  0  1  0  0  0  0  0  0  0  0  0
  -27.4920  -29.3400   24.0000 C   0  0  0  0  0  1  0  0  0  0  0  0
  -28.3210  -28.9750   21.6400 C   0  0  0  0  0  1  0  0  0  0  0  0
  -29.1260  -30.9180   22.9520 C   0  0  0  0  0  1  0  0  0  0  0  0
  -29.3450  -24.0780   20.9940 N   0  0  0  0  0  0  0  0  0  0  0  0
  -29.8240  -24.7440   21.6000 H   0  0  0  0  0  0  0  0  0  0  0  0
  -28.7120  -24.6290   20.4290 H   0  0  0  0  0  0  0  0  0  0  0  0
  1  4  1  0
  5  1  1  0
  5  7  1  0
  6  7  1  0
  6  8  1  0
  7  3  1  1
  7  8  1  0
  8  9  1  0
  8 10  1  0
 11 19  1  0
 12 17  1  0
 13 14  1  0
 13 12  1  0
 15 14  1  0
 15 24  1  0
 15 16  1  0
 17 11  1  0
 17 16  1  0
 18 11  2  0
 20 19  1  0
 21 22  2  0
 22 41  1  0
 23 26  1  0
 23 22  1  0
 24 25  1  0
 24 21  1  0
 25 23  2  0
 26 27  1  0
 27 28  2  0
 29 32  1  0
 29 28  1  0
 30 29  2  0
 31 30  1  0
 31 26  2  0
 32 33  1  0
 33 34  1  0
 34 35  2  0
 36 35  1  0
 36 40  1  0
 37 36  2  0
 38 33  2  0
 38 37  1  0
 39 38  1  0
 41 42  1  0
 42 45  1  0
 42 44  1  0
 43 41  2  0
 46 21  1  0
 46 47  1  0
 48 46  1  0
 51 50  1  0
 51 49  1  0
 53 54  1  0
 54 56  1  0
 55 53  2  0
 59 70  2  0
 60 58  1  0
 60 65  1  0
 61 71  1  0
 61 69  1  0
 62 67  1  0
 62 64  1  0
 62 68  1  0
 63 69  1  0
 64 65  1  0
 64 63  1  0
 66 67  1  0
 66 60  1  0
 68 61  1  0
 69 59  1  0
 71 73  1  0
 72 71  1  0
 73 51  1  0
 74 72  1  0
 75 84  2  0
 75 80  1  0
 76 72  1  0
 76 80  1  0
 77 76  1  0
 78 79  1  0
 78 77  1  0
 79 75  1  0
 80 81  2  0
 81 82  1  0
 83 82  2  0
 84 83  1  0
 85 59  1  0
 85 95  1  0
 85 86  1  0
 86 89  1  0
 87 86  1  0
 87 91  1  0
 88 87  2  0
 91 90  1  0
 91 93  1  0
 93 92  1  0
 93 94  1  0
 95 98  1  1
 95 96  1  0
 97 95  1  0
 99100  1  0
 99  5  1  0
101 99  1  0
M  ISO  4  11 100  19 100  57 101  58 101
M  END
>  <TORSDO>  (41) 
F 21

>  <SCORE>  (41) 
3.077

>  <name>  (41) 
40

>  <ligand_id>  (41) 
40

>  <original_smiles>  (41) 
[H]c1c([H])c([H])c2c(c1[H])C([H])([H])C([H])([H])C([H])([H])C2([H])N([H])C(=O)C1([H])N(C(=O)C([H])(N([H])C(=O)C([H])(N([H])C([H])([H])[H])C([H])([H])[H])C(C([H])([H])[H])(C([H])([H])[H])C([H])([H])[H])C([H])([H])c2c([H])c(OC([H])([H])C(=O)N([H])C([H])([H])C(C([H])([H])[H])(C([H])([H])[H])C3([H])C4([H])C([H])([H])C([H])(N([H])C(=O)N5C([H])([H])C([H])([H])C([H])([H])C([H])(n6nc(-c7c([H])c([H])c(Oc8c([H])c([H])c(F)c([H])c8F)c([H])c7[H])c(C(=O)N([H])[H])c6N([H])[H])C5([H])[H])C([H])([H])C([H])(N([H])[H])C3([H])[N+]4([H])[H])c([H])c([H])c2C1([H])[H]

>  <smiles>  (41) 
[H]c1c([H])c([H])c2c(c1[H])C([H])([H])C([H])([H])C([H])([H])C2([H])N([H])C(=O)C1([H])N(C(=O)C([H])(N([H])C(=O)C([H])(N([H])C([H])([H])[H])C([H])([H])[H])C(C([H])([H])[H])(C([H])([H])[H])C([H])([H])[H])C([H])([H])c2c([H])c(OC([H])([H])C(=O)N([H])C([H])([H])C(C([H])([H])[H])(C([H])([H])[H])C3([H])C4([H])C([H])([H])C([H])(N([H])C(=O)N5C([H])([H])C([H])([H])C([H])([H])C([H])(n6nc(-c7c([H])c([H])c(Oc8c([H])c([H])c(F)c([H])c8F)c([H])c7[H])c(C(=O)N([H])[H])c6N([H])[H])C5([H])[H])C([H])([H])C([H])(N([H])[H])C3([H])[N+]4([H])[H])c([H])c([H])c2C1([H])[H]

$$$$
41:0:0
     RDKit          3D

 98107  0  0  1  0  0  0  0  0999 V2000
  -30.1550  -20.7120   16.4130 C   0  0  0  0  0  0  0  0  0  0  0  0
  -29.0770  -17.5620   19.3930 C   0  0  0  0  0  2  0  0  0  0  0  0
  -30.0400  -19.1800   20.8520 C   0  0  0  0  0  2  0  0  0  0  0  0
  -28.5150  -19.3340   17.6110 C   0  0  0  0  0  2  0  0  0  0  0  0
  -28.3910  -18.8960   19.0660 C   0  0  0  0  0  3  0  0  0  0  0  0
  -29.0980  -19.9630   19.9050 C   0  0  0  0  0  3  0  0  0  0  0  0
  -29.5440  -17.7230   20.8400 C   0  0  0  0  0  3  0  0  0  0  0  0
  -29.7930  -20.9390   18.9140 C   0  0  0  0  0  3  0  0  0  0  0  0
  -31.2530  -21.7770   16.4000 C   0  0  0  0  0  1  0  0  0  0  0  0
  -29.5250  -20.3930   17.5700 N   0  0  0  0  0  0  0  0  0  0  0  0
  -29.8680  -20.1720   15.3400 O   0  0  0  0  0  0  0  0  0  0  0  0
  -30.9330  -16.8330   22.7950 C   0  0  0  0  0  1  0  0  0  0  0  0
  -30.5880  -16.6750   21.3050 C   0  0  0  0  0  3  0  0  0  0  0  0
  -30.7090  -14.3600   20.3400 C   0  0  0  0  0  0  0  0  0  0  0  0
  -30.3380  -12.2530   19.1160 C   0  0  0  0  0  2  0  0  0  0  0  0
  -29.3760  -12.5080   17.9370 C   0  0  0  0  0  2  0  0  0  0  0  0
  -27.9090  -12.3870   18.3920 C   0  0  0  0  0  2  0  0  0  0  0  0
  -27.6130  -13.1960   19.6820 C   0  0  0  0  0  3  0  0  0  0  0  0
  -28.6820  -12.9190   20.7630 C   0  0  0  0  0  2  0  0  0  0  0  0
  -30.0040  -13.2110   20.1800 N   0  0  0  0  0  0  0  0  0  0  0  0
  -31.7930  -14.5650   19.7880 O   0  0  0  0  0  0  0  0  0  0  0  0
  -30.1050  -15.3080   21.0730 N   0  0  0  0  0  0  0  0  0  0  0  0
  -29.2080  -15.0640   21.4650 H   0  0  0  0  0  0  0  0  0  0  0  0
  -25.2260  -13.8280   20.4130 C   0  0  0  0  0  0  0  0  0  0  0  0
  -24.1550  -13.0660   20.7960 C   0  0  0  0  0  0  0  0  0  0  0  0
  -24.6040  -11.7110   20.7630 C   0  0  0  0  0  0  0  0  0  0  0  0
  -26.2610  -12.9370   20.1750 N   0  0  0  0  0  0  0  0  0  0  0  0
  -25.8900  -11.6590   20.4410 N   0  0  0  0  0  0  0  0  0  0  0  0
  -23.8700  -10.4560   20.9660 C   0  0  0  0  0  0  0  0  0  0  0  0
  -24.2970   -9.4930   21.9080 C   0  0  0  0  0  3  0  0  0  0  0  0
  -23.5640   -8.3010   22.0970 C   0  0  0  0  0  3  0  0  0  0  0  0
  -22.3900   -8.0640   21.3440 C   0  0  0  0  0  0  0  0  0  0  0  0
  -21.9820   -9.0140   20.3920 C   0  0  0  0  0  3  0  0  0  0  0  0
  -22.7150  -10.1970   20.2010 C   0  0  0  0  0  3  0  0  0  0  0  0
  -21.6280   -6.9250   21.4430 O   0  0  0  0  0  0  0  0  0  0  0  0
  -21.5640   -6.2000   22.6060 C   0  0  0  0  0  0  0  0  0  0  0  0
  -21.1090   -6.7700   23.8140 C   0  0  0  0  0  3  0  0  0  0  0  0
  -20.9930   -5.9710   24.9690 C   0  0  0  0  0  3  0  0  0  0  0  0
  -21.3210   -4.6040   24.9170 C   0  0  0  0  0  0  0  0  0  0  0  0
  -21.7680   -4.0330   23.7130 C   0  0  0  0  0  3  0  0  0  0  0  0
  -21.8860   -4.8290   22.5590 C   0  0  0  0  0  0  0  0  0  0  0  0
  -22.2980   -4.2690   21.3960 F   0  0  0  0  0  0  0  0  0  0  0  0
  -21.2020   -3.8340   26.0240 F   0  0  0  0  0  0  0  0  0  0  0  0
  -22.7660  -13.5560   21.0870 C   0  0  0  0  0  0  0  0  0  0  0  0
  -22.0450  -12.8660   21.9630 N   0  0  0  0  0  0  0  0  0  0  0  0
  -22.3310  -14.5860   20.5750 O   0  0  0  0  0  0  0  0  0  0  0  0
  -22.4120  -12.0330   22.3980 H   0  0  0  0  0  0  0  0  0  0  0  0
  -21.1130  -13.1740   22.2020 H   0  0  0  0  0  0  0  0  0  0  0  0
  -25.4040  -15.1960   20.2300 N   0  0  0  0  0  0  0  0  0  0  0  0
  -24.6470  -15.8620   20.3500 H   0  0  0  0  0  0  0  0  0  0  0  0
  -26.2600  -15.6240   19.9020 H   0  0  0  0  0  0  0  0  0  0  0  0
  -29.2880  -22.4110   19.0300 C   0  0  0  0  0  2  0  0  0  0  0  0
  -29.6290  -23.0560   20.3230 N   0  0  0  0  0  4  0  0  0  0  0  0
  -30.5470  -22.7370   20.5920 H   0  0  0  0  0  0  0  0  0  0  0  0
  -28.9940  -22.7360   21.0380 H   0  0  0  0  0  0  0  0  0  0  0  0
  -29.6790  -24.5480   20.3170 C   0  0  0  0  0  2  0  0  0  0  0  0
  -28.3320  -25.2330   20.0110 C   0  0  0  0  0  2  0  0  0  0  0  0
  -28.4290  -26.6530   20.2060 O   0  0  0  0  0  0  0  0  0  0  0  0
  -24.5860  -31.8360   23.2240 C   0  0  0  0  0  0  0  0  0  0  0  0
  -27.2510  -27.3760   20.1750 C   0  0  0  0  0  0  0  0  0  0  0  0
  -23.3950  -30.4390   21.5660 C   0  0  0  0  0  3  0  0  0  0  0  0
  -24.8600  -28.8970   20.1630 C   0  0  0  0  0  0  0  0  0  0  0  0
  -25.9270  -30.7850   21.4030 C   0  0  0  0  0  2  0  0  0  0  0  0
  -26.0140  -29.4150   20.7640 C   0  0  0  0  0  0  0  0  0  0  0  0
  -27.2120  -28.6620   20.7650 C   0  0  0  0  0  3  0  0  0  0  0  0
  -26.0730  -26.8760   19.5700 C   0  0  0  0  0  3  0  0  0  0  0  0
  -24.8850  -27.6270   19.5650 C   0  0  0  0  0  3  0  0  0  0  0  0
  -23.6190  -29.7580   20.1920 C   0  0  0  0  0  2  0  0  0  0  0  0
  -24.6540  -31.0350   22.1240 N   0  0  0  0  0  0  0  0  0  0  0  0
  -23.4990  -32.1130   23.7490 O   0  0  0  0  0  0  0  0  0  0  0  0
  -22.7280  -29.4200   22.5170 C   0  0  0  0  0  0  0  0  0  0  0  0
  -21.4030  -29.2500   22.3790 N   0  0  0  0  0  0  0  0  0  0  0  0
  -23.3990  -28.7850   23.3350 O   0  0  0  0  0  0  0  0  0  0  0  0
  -20.9230  -29.8140   21.6920 H   0  0  0  0  0  0  0  0  0  0  0  0
  -18.0120  -28.0950   22.8560 C   0  0  0  0  0  0  0  0  0  0  0  0
  -20.5720  -28.3160   23.1390 C   0  0  0  0  0  3  0  0  0  0  0  0
  -20.6570  -26.8880   22.5510 C   0  0  0  0  0  2  0  0  0  0  0  0
  -19.5540  -26.5890   21.5290 C   0  0  0  0  0  2  0  0  0  0  0  0
  -18.1720  -26.7500   22.1690 C   0  0  0  0  0  2  0  0  0  0  0  0
  -19.1400  -28.8380   23.2960 C   0  0  0  0  0  0  0  0  0  0  0  0
  -18.9380  -30.1000   23.8960 C   0  0  0  0  0  3  0  0  0  0  0  0
  -17.6410  -30.6200   24.0590 C   0  0  0  0  0  3  0  0  0  0  0  0
  -16.5270  -29.8740   23.6350 C   0  0  0  0  0  3  0  0  0  0  0  0
  -16.7140  -28.6130   23.0410 C   0  0  0  0  0  3  0  0  0  0  0  0
  -25.8670  -32.4620   23.8610 C   0  0  0  0  0  3  0  0  0  0  0  0
  -25.5600  -33.8610   24.1870 N   0  0  0  0  0  0  0  0  0  0  0  0
  -25.9020  -34.9100   23.4260 C   0  0  0  0  0  0  0  0  0  0  0  0
  -26.5790  -34.8020   22.4000 O   0  0  0  0  0  0  0  0  0  0  0  0
  -24.9590  -34.0210   24.9820 H   0  0  0  0  0  0  0  0  0  0  0  0
  -24.1840  -36.7080   23.0480 C   0  0  0  0  0  1  0  0  0  0  0  0
  -25.4130  -36.3000   23.8740 C   0  0  0  0  0  3  0  0  0  0  0  0
  -27.5380  -37.1810   24.7340 C   0  0  0  0  0  1  0  0  0  0  0  0
  -26.4510  -37.3490   23.7720 N   0  0  0  0  0  0  0  0  0  0  0  0
  -26.0470  -38.2720   23.9120 H   0  0  0  0  0  0  0  0  0  0  0  0
  -26.3670  -31.6880   25.1430 C   0  0  1  0  0  0  0  0  0  0  0  0
  -25.2610  -31.4500   26.1970 C   0  0  0  0  0  1  0  0  0  0  0  0
  -26.9500  -30.3100   24.7560 C   0  0  0  0  0  1  0  0  0  0  0  0
  -27.5110  -32.4810   25.8180 C   0  0  0  0  0  1  0  0  0  0  0  0
  1 10  1  0
  2  7  1  0
  5  4  1  0
  5  2  1  0
  5  6  1  0
  6  3  1  0
  7  3  1  0
  7 13  1  0
  8 52  1  0
  8  6  1  0
  9  1  1  0
 10  4  1  0
 10  8  1  0
 11  1  2  0
 13 12  1  0
 14 22  1  0
 15 20  1  0
 16 17  1  0
 16 15  1  0
 18 17  1  0
 18 27  1  0
 18 19  1  0
 20 14  1  0
 20 19  1  0
 21 14  2  0
 22 13  1  0
 22 23  1  0
 24 25  2  0
 25 44  1  0
 26 25  1  0
 26 29  1  0
 27 24  1  0
 27 28  1  0
 28 26  2  0
 29 30  1  0
 30 31  2  0
 32 35  1  0
 32 31  1  0
 33 32  2  0
 34 33  1  0
 34 29  2  0
 35 36  1  0
 36 37  1  0
 37 38  2  0
 39 38  1  0
 39 43  1  0
 40 39  2  0
 41 36  2  0
 41 40  1  0
 42 41  1  0
 44 45  1  0
 45 48  1  0
 45 47  1  0
 46 44  2  0
 49 50  1  0
 49 24  1  0
 51 49  1  0
 52 53  1  0
 53 54  1  0
 53 55  1  0
 56 53  1  0
 57 58  1  0
 57 56  1  0
 59 70  2  0
 60 58  1  0
 60 65  1  0
 61 69  1  0
 61 71  1  0
 62 68  1  0
 62 64  1  0
 63 69  1  0
 64 65  2  0
 64 63  1  0
 66 60  2  0
 67 66  1  0
 67 62  2  0
 68 61  1  0
 69 59  1  0
 71 73  2  0
 72 71  1  0
 74 72  1  0
 75 84  2  0
 75 80  1  0
 76 72  1  0
 76 80  1  0
 77 76  1  0
 78 79  1  0
 78 77  1  0
 79 75  1  0
 80 81  2  0
 81 82  1  0
 83 82  2  0
 84 83  1  0
 85 59  1  0
 85 86  1  0
 85 95  1  0
 86 89  1  0
 87 91  1  0
 87 86  1  0
 88 87  2  0
 91 90  1  0
 93 91  1  0
 93 94  1  0
 93 92  1  0
 95 98  1  1
 95 96  1  0
 97 95  1  0
M  ISO  4  14 100  22 100  57 101  58 101
M  END
>  <TORSDO>  (42) 
F 21

>  <SCORE>  (42) 
-13.616

>  <name>  (42) 
41

>  <ligand_id>  (42) 
41

>  <original_smiles>  (42) 
[H]c1c([H])c([H])c2c(c1[H])C([H])([H])C([H])([H])C([H])([H])C2([H])N([H])C(=O)C1([H])N(C(=O)C([H])(N([H])C(=O)C([H])(N([H])C([H])([H])[H])C([H])([H])[H])C(C([H])([H])[H])(C([H])([H])[H])C([H])([H])[H])C([H])([H])c2c([H])c(OC([H])([H])C([H])([H])[N+]([H])([H])C([H])([H])C3([H])N(C(=O)C([H])([H])[H])C([H])([H])C4([H])C([H])([H])C([H])(C([H])(N([H])C(=O)N5C([H])([H])C([H])([H])C([H])([H])C([H])(n6nc(-c7c([H])c([H])c(Oc8c([H])c([H])c(F)c([H])c8F)c([H])c7[H])c(C(=O)N([H])[H])c6N([H])[H])C5([H])[H])C([H])([H])[H])C([H])([H])C34[H])c([H])c([H])c2C1([H])[H]

>  <smiles>  (42) 
[H]c1c([H])c([H])c2c(c1[H])C([H])([H])C([H])([H])C([H])([H])C2([H])N([H])C(=O)C1([H])N(C(=O)C([H])(N([H])C(=O)C([H])(N([H])C([H])([H])[H])C([H])([H])[H])C(C([H])([H])[H])(C([H])([H])[H])C([H])([H])[H])C([H])([H])c2c([H])c(OC([H])([H])C([H])([H])[N+]([H])([H])C([H])([H])C3([H])N(C(=O)C([H])([H])[H])C([H])([H])C4([H])C([H])([H])C([H])(C([H])(N([H])C(=O)N5C([H])([H])C([H])([H])C([H])([H])C([H])(n6nc(-c7c([H])c([H])c(Oc8c([H])c([H])c(F)c([H])c8F)c([H])c7[H])c(C(=O)N([H])[H])c6N([H])[H])C5([H])[H])C([H])([H])[H])C([H])([H])C34[H])c([H])c([H])c2C1([H])[H]

$$$$
42:0:0
     RDKit          3D

 91100  0  0  1  0  0  0  0  0999 V2000
  -30.2380  -22.7060   18.4670 C   0  0  0  0  0  2  0  0  0  0  0  0
  -29.0930  -23.7310   18.6610 C   0  0  0  0  0  2  0  0  0  0  0  0
  -30.2330  -23.3910   20.7260 C   0  0  0  0  0  2  0  0  0  0  0  0
  -28.2220  -22.2810   20.5570 C   0  0  0  0  0  2  0  0  0  0  0  0
  -30.4250  -22.1070   19.8760 C   0  0  0  0  0  3  0  0  0  0  0  0
  -28.8370  -23.7070   20.1830 C   0  0  2  0  0  0  0  0  0  0  0  0
  -29.2420  -21.2350   20.1410 N   0  0  1  0  0  4  0  0  0  0  0  0
  -28.9400  -20.9010   19.2380 H   0  0  0  0  0  0  0  0  0  0  0  0
  -28.0710  -25.0230   20.7230 C   0  0  0  0  0  2  0  0  0  0  0  0
  -28.3420  -26.4130   20.2330 O   0  0  0  0  0  0  0  0  0  0  0  0
  -24.6400  -31.8810   23.2250 C   0  0  0  0  0  0  0  0  0  0  0  0
  -27.2470  -27.2990   20.1880 C   0  0  0  0  0  0  0  0  0  0  0  0
  -23.4340  -30.4710   21.5980 C   0  0  0  0  0  3  0  0  0  0  0  0
  -24.8830  -28.9200   20.1700 C   0  0  0  0  0  0  0  0  0  0  0  0
  -25.9730  -30.7930   21.4030 C   0  0  0  0  0  2  0  0  0  0  0  0
  -26.0540  -29.4110   20.7620 C   0  0  0  0  0  0  0  0  0  0  0  0
  -27.2420  -28.6120   20.7600 C   0  0  0  0  0  3  0  0  0  0  0  0
  -26.0600  -26.8800   19.5470 C   0  0  0  0  0  3  0  0  0  0  0  0
  -24.8890  -27.6620   19.5500 C   0  0  0  0  0  3  0  0  0  0  0  0
  -23.6450  -29.7930   20.2190 C   0  0  0  0  0  2  0  0  0  0  0  0
  -24.7020  -31.0660   22.1320 N   0  0  0  0  0  0  0  0  0  0  0  0
  -23.5570  -32.1580   23.7620 O   0  0  0  0  0  0  0  0  0  0  0  0
  -22.7770  -29.4570   22.5650 C   0  0  0  0  0  0  0  0  0  0  0  0
  -21.4510  -29.2760   22.4440 N   0  0  0  0  0  0  0  0  0  0  0  0
  -23.4600  -28.8370   23.3840 O   0  0  0  0  0  0  0  0  0  0  0  0
  -20.9580  -29.8290   21.7570 H   0  0  0  0  0  0  0  0  0  0  0  0
  -18.0790  -28.0700   22.9610 C   0  0  0  0  0  0  0  0  0  0  0  0
  -20.6370  -28.3400   23.2230 C   0  0  0  0  0  3  0  0  0  0  0  0
  -20.7440  -26.9060   22.6590 C   0  0  0  0  0  2  0  0  0  0  0  0
  -19.6400  -26.5720   21.6490 C   0  0  0  0  0  2  0  0  0  0  0  0
  -18.2590  -26.7160   22.2950 C   0  0  0  0  0  2  0  0  0  0  0  0
  -19.1950  -28.8390   23.3830 C   0  0  0  0  0  0  0  0  0  0  0  0
  -18.9730  -30.1040   23.9670 C   0  0  0  0  0  3  0  0  0  0  0  0
  -17.6660  -30.6030   24.1320 C   0  0  0  0  0  3  0  0  0  0  0  0
  -16.5630  -29.8300   23.7260 C   0  0  0  0  0  3  0  0  0  0  0  0
  -16.7710  -28.5660   23.1460 C   0  0  0  0  0  3  0  0  0  0  0  0
  -25.9230  -32.5210   23.8390 C   0  0  0  0  0  3  0  0  0  0  0  0
  -26.4510  -31.7530   25.1120 C   0  0  1  0  0  0  0  0  0  0  0  0
  -25.3670  -31.5120   26.1890 C   0  0  0  0  0  1  0  0  0  0  0  0
  -27.0350  -30.3770   24.7160 C   0  0  0  0  0  1  0  0  0  0  0  0
  -27.6040  -32.5500   25.7650 C   0  0  0  0  0  1  0  0  0  0  0  0
  -25.6070  -33.9180   24.1720 N   0  0  0  0  0  0  0  0  0  0  0  0
  -25.9270  -34.9730   23.4120 C   0  0  0  0  0  0  0  0  0  0  0  0
  -26.5870  -34.8740   22.3740 O   0  0  0  0  0  0  0  0  0  0  0  0
  -25.0180  -34.0680   24.9790 H   0  0  0  0  0  0  0  0  0  0  0  0
  -24.1850  -36.7560   23.0790 C   0  0  0  0  0  1  0  0  0  0  0  0
  -25.4370  -36.3590   23.8760 C   0  0  0  0  0  3  0  0  0  0  0  0
  -27.5770  -37.2530   24.6830 C   0  0  0  0  0  1  0  0  0  0  0  0
  -26.4630  -37.4170   23.7520 N   0  0  0  0  0  0  0  0  0  0  0  0
  -26.0540  -38.3350   23.9080 H   0  0  0  0  0  0  0  0  0  0  0  0
  -29.4630  -19.9680   20.9870 C   0  0  0  0  0  3  0  0  0  0  0  0
  -29.6180  -18.5320   20.2450 C   0  0  0  0  0  3  0  0  0  0  0  0
  -30.1620  -17.2570   21.0840 C   0  0  0  0  0  2  0  0  0  0  0  0
  -30.5760  -14.7210   20.4110 C   0  0  0  0  0  0  0  0  0  0  0  0
  -30.3680  -12.4650   19.3570 C   0  0  0  0  0  2  0  0  0  0  0  0
  -29.4210  -12.5470   18.1400 C   0  0  0  0  0  2  0  0  0  0  0  0
  -27.9490  -12.3850   18.5710 C   0  0  0  0  0  2  0  0  0  0  0  0
  -27.5870  -13.2670   19.7960 C   0  0  0  0  0  3  0  0  0  0  0  0
  -28.6480  -13.1490   20.9100 C   0  0  0  0  0  2  0  0  0  0  0  0
  -29.9440  -13.5040   20.3170 N   0  0  0  0  0  0  0  0  0  0  0  0
  -31.7600  -14.8410   20.0880 O   0  0  0  0  0  0  0  0  0  0  0  0
  -29.7960  -15.8240   20.7060 N   0  0  0  0  0  0  0  0  0  0  0  0
  -28.8260  -15.5900   20.8550 H   0  0  0  0  0  0  0  0  0  0  0  0
  -25.2030  -13.8710   20.5370 C   0  0  0  0  0  0  0  0  0  0  0  0
  -24.1350  -13.1000   20.9110 C   0  0  0  0  0  0  0  0  0  0  0  0
  -24.5940  -11.7470   20.8780 C   0  0  0  0  0  0  0  0  0  0  0  0
  -26.2430  -12.9870   20.2930 N   0  0  0  0  0  0  0  0  0  0  0  0
  -25.8840  -11.7050   20.5640 N   0  0  0  0  0  0  0  0  0  0  0  0
  -23.8650  -10.4860   21.0710 C   0  0  0  0  0  0  0  0  0  0  0  0
  -24.3080   -9.5070   21.9870 C   0  0  0  0  0  3  0  0  0  0  0  0
  -23.5770   -8.3120   22.1670 C   0  0  0  0  0  3  0  0  0  0  0  0
  -22.3890   -8.0900   21.4300 C   0  0  0  0  0  0  0  0  0  0  0  0
  -21.9640   -9.0580   20.5020 C   0  0  0  0  0  3  0  0  0  0  0  0
  -22.6980  -10.2420   20.3210 C   0  0  0  0  0  3  0  0  0  0  0  0
  -21.6290   -6.9490   21.5220 O   0  0  0  0  0  0  0  0  0  0  0  0
  -21.6110   -6.1850   22.6610 C   0  0  0  0  0  0  0  0  0  0  0  0
  -21.2300   -6.7200   23.9110 C   0  0  0  0  0  3  0  0  0  0  0  0
  -21.1530   -5.8820   25.0420 C   0  0  0  0  0  3  0  0  0  0  0  0
  -21.4490   -4.5130   24.9260 C   0  0  0  0  0  0  0  0  0  0  0  0
  -21.8260   -3.9760   23.6820 C   0  0  0  0  0  3  0  0  0  0  0  0
  -21.9000   -4.8090   22.5520 C   0  0  0  0  0  0  0  0  0  0  0  0
  -22.2400   -4.2840   21.3500 F   0  0  0  0  0  0  0  0  0  0  0  0
  -21.3700   -3.7060   26.0110 F   0  0  0  0  0  0  0  0  0  0  0  0
  -22.7380  -13.5810   21.1860 C   0  0  0  0  0  0  0  0  0  0  0  0
  -22.0120  -12.8890   22.0540 N   0  0  0  0  0  0  0  0  0  0  0  0
  -22.3020  -14.6070   20.6670 O   0  0  0  0  0  0  0  0  0  0  0  0
  -22.3780  -12.0600   22.5000 H   0  0  0  0  0  0  0  0  0  0  0  0
  -21.0740  -13.1900   22.2820 H   0  0  0  0  0  0  0  0  0  0  0  0
  -25.3700  -15.2400   20.3540 N   0  0  0  0  0  0  0  0  0  0  0  0
  -24.6080  -15.8990   20.4650 H   0  0  0  0  0  0  0  0  0  0  0  0
  -26.2130  -15.6680   19.9890 H   0  0  0  0  0  0  0  0  0  0  0  0
  1  2  1  0
  2  6  1  0
  5  1  1  0
  5  7  1  0
  5  3  1  0
  6  4  1  0
  6  9  1  1
  6  3  1  0
  7  4  1  0
  7 51  1  0
  7  8  1  6
 10  9  1  0
 11 22  2  0
 12 10  1  0
 12 17  1  0
 13 21  1  0
 13 23  1  0
 14 20  1  0
 14 16  1  0
 15 21  1  0
 16 15  1  0
 17 16  2  0
 18 19  1  0
 18 12  2  0
 19 14  2  0
 20 13  1  0
 21 11  1  0
 23 25  2  0
 24 23  1  0
 26 24  1  0
 27 36  2  0
 27 32  1  0
 28 24  1  0
 28 32  1  0
 29 28  1  0
 30 31  1  0
 30 29  1  0
 31 27  1  0
 32 33  2  0
 33 34  1  0
 35 34  2  0
 36 35  1  0
 37 11  1  0
 37 42  1  0
 37 38  1  0
 38 41  1  1
 38 39  1  0
 40 38  1  0
 42 45  1  0
 43 47  1  0
 43 42  1  0
 44 43  2  0
 47 46  1  0
 49 47  1  0
 49 50  1  0
 49 48  1  0
 52 51  2  0
 52 53  1  0
 54 62  1  0
 55 60  1  0
 56 57  1  0
 56 55  1  0
 58 57  1  0
 58 67  1  0
 58 59  1  0
 60 54  1  0
 60 59  1  0
 61 54  2  0
 62 63  1  0
 62 53  1  0
 64 65  2  0
 65 84  1  0
 66 65  1  0
 66 69  1  0
 67 64  1  0
 67 68  1  0
 68 66  2  0
 69 70  1  0
 70 71  2  0
 72 75  1  0
 72 71  1  0
 73 72  2  0
 74 73  1  0
 74 69  2  0
 75 76  1  0
 76 77  1  0
 77 78  2  0
 79 78  1  0
 79 83  1  0
 80 79  2  0
 81 76  2  0
 81 80  1  0
 82 81  1  0
 84 85  1  0
 85 88  1  0
 85 87  1  0
 86 84  2  0
 89 90  1  0
 89 64  1  0
 91 89  1  0
M  ISO  4   9 101  10 101  54 100  62 100
M  END
>  <TORSDO>  (43) 
F 20

>  <SCORE>  (43) 
-13.756

>  <name>  (43) 
42

>  <ligand_id>  (43) 
42

>  <original_smiles>  (43) 
[H]c1c([H])c([H])c2c(c1[H])C([H])([H])C([H])([H])C([H])([H])C2([H])N([H])C(=O)C1([H])N(C(=O)C([H])(N([H])C(=O)C([H])(N([H])C([H])([H])[H])C([H])([H])[H])C(C([H])([H])[H])(C([H])([H])[H])C([H])([H])[H])C([H])([H])c2c([H])c(OC([H])([H])C34C([H])([H])C([H])([H])C([H])(C3([H])[H])[N+]([H])(C([H])([H])C([H])([H])C([H])([H])N([H])C(=O)N3C([H])([H])C([H])([H])C([H])([H])C([H])(n5nc(-c6c([H])c([H])c(Oc7c([H])c([H])c(F)c([H])c7F)c([H])c6[H])c(C(=O)N([H])[H])c5N([H])[H])C3([H])[H])C4([H])[H])c([H])c([H])c2C1([H])[H]

>  <smiles>  (43) 
[H]c1c([H])c([H])c2c(c1[H])C([H])([H])C([H])([H])C([H])([H])C2([H])N([H])C(=O)C1([H])N(C(=O)C([H])(N([H])C(=O)C([H])(N([H])C([H])([H])[H])C([H])([H])[H])C(C([H])([H])[H])(C([H])([H])[H])C([H])([H])[H])C([H])([H])c2c([H])c(OC([H])([H])C34C([H])([H])C([H])([H])C([H])(C3([H])[H])[N+]([H])(C([H])([H])C([H])([H])C([H])([H])N([H])C(=O)N3C([H])([H])C([H])([H])C([H])([H])C([H])(n5nc(-c6c([H])c([H])c(Oc7c([H])c([H])c(F)c([H])c7F)c([H])c6[H])c(C(=O)N([H])[H])c5N([H])[H])C3([H])[H])C4([H])[H])c([H])c([H])c2C1([H])[H]

$$$$
43:0:0
     RDKit          3D

 99109  0  0  1  0  0  0  0  0999 V2000
  -28.8110  -21.9570   18.8100 C   0  0  0  0  0  2  0  0  0  0  0  0
  -29.5380  -23.1840   19.3800 C   0  0  0  0  0  2  0  0  0  0  0  0
  -27.3300  -22.4540   22.3280 C   0  0  0  0  0  2  0  0  0  0  0  0
  -27.6940  -22.2210   19.8330 C   0  0  0  0  0  3  0  0  0  0  0  0
  -28.1600  -23.6940   19.8330 C   0  0  0  0  0  3  0  0  0  0  0  0
  -27.7280  -21.4890   21.1870 C   0  0  0  0  0  3  0  0  0  0  0  0
  -27.9550  -24.5200   21.1180 C   0  0  0  0  0  3  0  0  0  0  0  0
  -28.1630  -23.6770   22.3200 N   0  0  0  0  0  4  0  0  0  0  0  0
  -29.1340  -23.4150   22.4020 H   0  0  0  0  0  0  0  0  0  0  0  0
  -27.9280  -24.2150   23.1400 H   0  0  0  0  0  0  0  0  0  0  0  0
  -26.8490  -20.2120   21.2140 C   0  0  0  0  0  2  0  0  0  0  0  0
  -27.4870  -18.9440   20.6300 C   0  0  0  0  0  0  0  0  0  0  0  0
  -28.5190  -18.4120   21.3050 N   0  0  0  0  0  0  0  0  0  0  0  0
  -26.9760  -18.3920   19.6540 O   0  0  0  0  0  0  0  0  0  0  0  0
  -28.9020  -18.9620   22.0630 H   0  0  0  0  0  0  0  0  0  0  0  0
  -30.6020  -14.4370   19.3430 C   0  0  0  0  0  0  0  0  0  0  0  0
  -30.0600  -12.4290   18.0060 C   0  0  0  0  0  2  0  0  0  0  0  0
  -28.9080  -12.7320   17.0300 C   0  0  0  0  0  2  0  0  0  0  0  0
  -27.5390  -12.5250   17.7100 C   0  0  0  0  0  2  0  0  0  0  0  0
  -27.4460  -13.2450   19.0800 C   0  0  0  0  0  3  0  0  0  0  0  0
  -28.6810  -12.9220   19.9470 C   0  0  0  0  0  2  0  0  0  0  0  0
  -29.8920  -13.2880   19.1870 N   0  0  0  0  0  0  0  0  0  0  0  0
  -31.5500  -14.7550   18.6140 O   0  0  0  0  0  0  0  0  0  0  0  0
  -30.0730  -16.6930   22.2220 C   0  0  0  0  0  2  0  0  0  0  0  0
  -29.4330  -16.4960   19.9380 C   0  0  0  0  0  2  0  0  0  0  0  0
  -28.9100  -17.0040   21.2790 C   0  0  0  0  0  3  0  0  0  0  0  0
  -30.8210  -15.5170   21.5700 C   0  0  0  0  0  3  0  0  0  0  0  0
  -30.8690  -14.2770   22.4840 C   0  0  0  0  0  1  0  0  0  0  0  0
  -30.1350  -15.2670   20.2960 N   0  0  0  0  0  0  0  0  0  0  0  0
  -25.2410  -13.7650   20.3060 C   0  0  0  0  0  0  0  0  0  0  0  0
  -24.2490  -12.9530   20.7840 C   0  0  0  0  0  0  0  0  0  0  0  0
  -24.6670  -11.6150   20.5080 C   0  0  0  0  0  0  0  0  0  0  0  0
  -26.2030  -12.9190   19.7770 N   0  0  0  0  0  0  0  0  0  0  0  0
  -25.8720  -11.6160   19.9530 N   0  0  0  0  0  0  0  0  0  0  0  0
  -23.9670  -10.3380   20.6890 C   0  0  0  0  0  0  0  0  0  0  0  0
  -24.5740   -9.2490   21.3500 C   0  0  0  0  0  3  0  0  0  0  0  0
  -23.8740   -8.0360   21.5240 C   0  0  0  0  0  3  0  0  0  0  0  0
  -22.5520   -7.9030   21.0390 C   0  0  0  0  0  0  0  0  0  0  0  0
  -21.9580   -8.9840   20.3610 C   0  0  0  0  0  3  0  0  0  0  0  0
  -22.6580  -10.1890   20.1850 C   0  0  0  0  0  3  0  0  0  0  0  0
  -21.8040   -6.7560   21.1380 O   0  0  0  0  0  0  0  0  0  0  0  0
  -22.0320   -5.8330   22.1270 C   0  0  0  0  0  0  0  0  0  0  0  0
  -22.0100   -6.1850   23.4950 C   0  0  0  0  0  3  0  0  0  0  0  0
  -22.1810   -5.1930   24.4790 C   0  0  0  0  0  3  0  0  0  0  0  0
  -22.3630   -3.8480   24.1010 C   0  0  0  0  0  0  0  0  0  0  0  0
  -22.3770   -3.4950   22.7410 C   0  0  0  0  0  3  0  0  0  0  0  0
  -22.2090   -4.4850   21.7570 C   0  0  0  0  0  0  0  0  0  0  0  0
  -22.2030   -4.1370   20.4470 F   0  0  0  0  0  0  0  0  0  0  0  0
  -22.5190   -2.8920   25.0470 F   0  0  0  0  0  0  0  0  0  0  0  0
  -22.9400  -13.3900   21.3750 C   0  0  0  0  0  0  0  0  0  0  0  0
  -22.3820  -12.5990   22.2860 N   0  0  0  0  0  0  0  0  0  0  0  0
  -22.4280  -14.4650   21.0670 O   0  0  0  0  0  0  0  0  0  0  0  0
  -22.8110  -11.7260   22.5550 H   0  0  0  0  0  0  0  0  0  0  0  0
  -21.5110  -12.8720   22.7210 H   0  0  0  0  0  0  0  0  0  0  0  0
  -25.3900  -15.1480   20.2530 N   0  0  0  0  0  0  0  0  0  0  0  0
  -24.6490  -15.7750   20.5460 H   0  0  0  0  0  0  0  0  0  0  0  0
  -26.1480  -15.6330   19.7880 H   0  0  0  0  0  0  0  0  0  0  0  0
  -28.8070  -25.8120   21.1800 C   0  0  0  0  0  2  0  0  0  0  0  0
  -28.5310  -26.6800   20.0870 O   0  0  0  0  0  0  0  0  0  0  0  0
  -24.6670  -31.7820   23.2670 C   0  0  0  0  0  0  0  0  0  0  0  0
  -27.3590  -27.3900   20.1720 C   0  0  0  0  0  0  0  0  0  0  0  0
  -23.4890  -30.4150   21.5730 C   0  0  0  0  0  3  0  0  0  0  0  0
  -24.9660  -28.8810   20.1730 C   0  0  0  0  0  0  0  0  0  0  0  0
  -26.0200  -30.7560   21.4480 C   0  0  0  0  0  2  0  0  0  0  0  0
  -26.1110  -29.3920   20.7990 C   0  0  0  0  0  0  0  0  0  0  0  0
  -27.3100  -28.6490   20.8080 C   0  0  0  0  0  3  0  0  0  0  0  0
  -26.2030  -26.8880   19.5400 C   0  0  0  0  0  3  0  0  0  0  0  0
  -25.0030  -27.6230   19.5500 C   0  0  0  0  0  3  0  0  0  0  0  0
  -23.7290  -29.7500   20.1930 C   0  0  0  0  0  2  0  0  0  0  0  0
  -24.7420  -30.9980   22.1550 N   0  0  0  0  0  0  0  0  0  0  0  0
  -23.5750  -32.0570   23.7850 O   0  0  0  0  0  0  0  0  0  0  0  0
  -22.8040  -29.3880   22.5020 C   0  0  0  0  0  0  0  0  0  0  0  0
  -21.4830  -29.2190   22.3350 N   0  0  0  0  0  0  0  0  0  0  0  0
  -23.4570  -28.7470   23.3310 O   0  0  0  0  0  0  0  0  0  0  0  0
  -21.0180  -29.7800   21.6340 H   0  0  0  0  0  0  0  0  0  0  0  0
  -18.0910  -28.0330   22.7030 C   0  0  0  0  0  0  0  0  0  0  0  0
  -20.6380  -28.2780   23.0690 C   0  0  0  0  0  3  0  0  0  0  0  0
  -20.7570  -26.8530   22.4800 C   0  0  0  0  0  2  0  0  0  0  0  0
  -19.6860  -26.5400   21.4290 C   0  0  0  0  0  2  0  0  0  0  0  0
  -18.2860  -26.6870   22.0280 C   0  0  0  0  0  2  0  0  0  0  0  0
  -19.1970  -28.7870   23.1770 C   0  0  0  0  0  0  0  0  0  0  0  0
  -18.9640  -30.0500   23.7660 C   0  0  0  0  0  3  0  0  0  0  0  0
  -17.6560  -30.5580   23.8860 C   0  0  0  0  0  3  0  0  0  0  0  0
  -16.5640  -29.8000   23.4280 C   0  0  0  0  0  3  0  0  0  0  0  0
  -16.7820  -28.5410   22.8410 C   0  0  0  0  0  3  0  0  0  0  0  0
  -25.9440  -32.3890   23.9280 C   0  0  0  0  0  3  0  0  0  0  0  0
  -26.4490  -31.5650   25.1750 C   0  0  1  0  0  0  0  0  0  0  0  0
  -25.3480  -31.2830   26.2210 C   0  0  0  0  0  1  0  0  0  0  0  0
  -27.0380  -30.2050   24.7290 C   0  0  0  0  0  1  0  0  0  0  0  0
  -27.5940  -32.3320   25.8790 C   0  0  0  0  0  1  0  0  0  0  0  0
  -25.6280  -33.7720   24.3090 N   0  0  0  0  0  0  0  0  0  0  0  0
  -25.9670  -34.8530   23.5940 C   0  0  0  0  0  0  0  0  0  0  0  0
  -26.6510  -34.7890   22.5680 O   0  0  0  0  0  0  0  0  0  0  0  0
  -25.0220  -33.8940   25.1070 H   0  0  0  0  0  0  0  0  0  0  0  0
  -24.2310  -36.6450   23.2900 C   0  0  0  0  0  1  0  0  0  0  0  0
  -25.4690  -36.2220   24.0960 C   0  0  0  0  0  3  0  0  0  0  0  0
  -27.6000  -37.0800   24.9620 C   0  0  0  0  0  1  0  0  0  0  0  0
  -26.4960  -37.2840   24.0270 N   0  0  0  0  0  0  0  0  0  0  0  0
  -26.0870  -38.1950   24.2130 H   0  0  0  0  0  0  0  0  0  0  0  0
  1  2  1  0
  4  1  1  0
  4  6  1  0
  5  2  1  0
  5  4  1  0
  5  7  1  0
  6 11  1  0
  6  3  1  0
  7 58  1  0
  7  8  1  0
  8  3  1  0
  8  9  1  0
  8 10  1  0
 12 11  1  0
 12 13  1  0
 13 15  1  0
 14 12  2  0
 16 29  1  0
 17 22  1  0
 18 19  1  0
 18 17  1  0
 20 19  1  0
 20 33  1  0
 20 21  1  0
 22 16  1  0
 22 21  1  0
 23 16  2  0
 25 29  1  0
 25 26  1  0
 26 13  1  0
 26 24  1  0
 27 24  1  0
 27 28  1  0
 29 27  1  0
 30 31  2  0
 31 50  1  0
 32 35  1  0
 32 31  1  0
 33 34  1  0
 33 30  1  0
 34 32  2  0
 35 36  1  0
 36 37  2  0
 38 41  1  0
 38 37  1  0
 39 38  2  0
 40 39  1  0
 40 35  2  0
 41 42  1  0
 42 43  1  0
 43 44  2  0
 45 44  1  0
 45 49  1  0
 46 45  2  0
 47 42  2  0
 47 46  1  0
 48 47  1  0
 50 51  1  0
 51 53  1  0
 51 54  1  0
 52 50  2  0
 55 30  1  0
 55 56  1  0
 57 55  1  0
 59 61  1  0
 59 58  1  0
 60 71  2  0
 61 66  1  0
 62 70  1  0
 62 72  1  0
 63 69  1  0
 63 65  1  0
 64 70  1  0
 65 66  2  0
 65 64  1  0
 67 68  1  0
 67 61  2  0
 68 63  2  0
 69 62  1  0
 70 60  1  0
 72 74  2  0
 73 72  1  0
 75 73  1  0
 76 85  2  0
 76 81  1  0
 77 73  1  0
 77 81  1  0
 78 77  1  0
 79 80  1  0
 79 78  1  0
 80 76  1  0
 81 82  2  0
 82 83  1  0
 84 83  2  0
 85 84  1  0
 86 60  1  0
 86 91  1  0
 86 87  1  0
 87 90  1  1
 87 88  1  0
 89 87  1  0
 91 94  1  0
 92 96  1  0
 92 91  1  0
 93 92  2  0
 96 95  1  0
 98 96  1  0
 98 99  1  0
 98 97  1  0
M  ISO  4  16 100  29 100  58 101  59 101
M  END
>  <TORSDO>  (44) 
F 19

>  <SCORE>  (44) 
-5.335

>  <name>  (44) 
43

>  <ligand_id>  (44) 
43

>  <original_smiles>  (44) 
[H]c1c([H])c([H])c2c(c1[H])C([H])([H])C([H])([H])C([H])([H])C2([H])N([H])C(=O)C1([H])N(C(=O)C([H])(N([H])C(=O)C([H])(N([H])C([H])([H])[H])C([H])([H])[H])C(C([H])([H])[H])(C([H])([H])[H])C([H])([H])[H])C([H])([H])c2c([H])c(OC([H])([H])C3([H])C4([H])C([H])([H])C([H])([H])C4([H])C([H])(C([H])([H])C(=O)N([H])C4([H])C([H])([H])N(C(=O)N5C([H])([H])C([H])([H])C([H])([H])C([H])(n6nc(-c7c([H])c([H])c(Oc8c([H])c([H])c(F)c([H])c8F)c([H])c7[H])c(C(=O)N([H])[H])c6N([H])[H])C5([H])[H])C([H])(C([H])([H])[H])C4([H])[H])C([H])([H])[N+]3([H])[H])c([H])c([H])c2C1([H])[H]

>  <smiles>  (44) 
[H]c1c([H])c([H])c2c(c1[H])C([H])([H])C([H])([H])C([H])([H])C2([H])N([H])C(=O)C1([H])N(C(=O)C([H])(N([H])C(=O)C([H])(N([H])C([H])([H])[H])C([H])([H])[H])C(C([H])([H])[H])(C([H])([H])[H])C([H])([H])[H])C([H])([H])c2c([H])c(OC([H])([H])C3([H])C4([H])C([H])([H])C([H])([H])C4([H])C([H])(C([H])([H])C(=O)N([H])C4([H])C([H])([H])N(C(=O)N5C([H])([H])C([H])([H])C([H])([H])C([H])(n6nc(-c7c([H])c([H])c(Oc8c([H])c([H])c(F)c([H])c8F)c([H])c7[H])c(C(=O)N([H])[H])c6N([H])[H])C5([H])[H])C([H])(C([H])([H])[H])C4([H])[H])C([H])([H])[N+]3([H])[H])c([H])c([H])c2C1([H])[H]

$$$$
44:0:0
     RDKit          3D

 95104  0  0  1  0  0  0  0  0999 V2000
  -30.0410  -21.4360   19.5640 C   0  0  0  0  0  2  0  0  0  0  0  0
  -28.4020  -21.3120   20.7260 C   0  0  0  0  0  2  0  0  0  0  0  0
  -28.9160  -22.4760   19.8180 C   0  0  0  0  0  3  0  0  0  0  0  0
  -29.0820  -20.3410   19.8290 N   0  0  2  0  0  4  0  0  0  0  0  0
  -28.5170  -20.1700   19.0100 H   0  0  0  0  0  0  0  0  0  0  0  0
  -30.7910  -14.6310   20.0240 C   0  0  0  0  0  0  0  0  0  0  0  0
  -30.3450  -12.4430   18.9410 C   0  0  0  0  0  2  0  0  0  0  0  0
  -29.3420  -12.5650   17.7810 C   0  0  0  0  0  2  0  0  0  0  0  0
  -27.9030  -12.4110   18.3070 C   0  0  0  0  0  2  0  0  0  0  0  0
  -27.6280  -13.2770   19.5660 C   0  0  0  0  0  3  0  0  0  0  0  0
  -28.7620  -13.1520   20.6100 C   0  0  0  0  0  2  0  0  0  0  0  0
  -30.0050  -13.5070   19.9170 N   0  0  0  0  0  0  0  0  0  0  0  0
  -31.9740  -14.5230   19.6940 O   0  0  0  0  0  0  0  0  0  0  0  0
  -30.6780  -18.4040   19.4000 C   0  0  0  0  0  2  0  0  0  0  0  0
  -31.2530  -17.0480   19.8860 C   0  0  0  0  0  2  0  0  0  0  0  0
  -29.1140  -16.4430   20.8960 C   0  0  0  0  0  2  0  0  0  0  0  0
  -29.6300  -19.0170   20.3530 C   0  0  0  0  0  3  0  0  0  0  0  0
  -28.5700  -17.8810   20.5090 C   0  0  0  0  0  3  0  0  0  0  0  0
  -30.2810  -15.9320   20.1210 N   0  0  0  0  0  0  0  0  0  0  0  0
  -27.9020  -17.7630   19.3580 F   0  0  0  0  0  0  0  0  0  0  0  0
  -25.2980  -13.8710   20.4560 C   0  0  0  0  0  0  0  0  0  0  0  0
  -24.2490  -13.0970   20.8690 C   0  0  0  0  0  0  0  0  0  0  0  0
  -24.6950  -11.7430   20.7740 C   0  0  0  0  0  0  0  0  0  0  0  0
  -26.3170  -12.9900   20.1370 N   0  0  0  0  0  0  0  0  0  0  0  0
  -25.9640  -11.7020   20.3890 N   0  0  0  0  0  0  0  0  0  0  0  0
  -23.9660  -10.4820   20.9690 C   0  0  0  0  0  0  0  0  0  0  0  0
  -24.4130   -9.5070   21.8880 C   0  0  0  0  0  3  0  0  0  0  0  0
  -23.6840   -8.3120   22.0740 C   0  0  0  0  0  3  0  0  0  0  0  0
  -22.4960   -8.0840   21.3390 C   0  0  0  0  0  0  0  0  0  0  0  0
  -22.0690   -9.0480   20.4080 C   0  0  0  0  0  3  0  0  0  0  0  0
  -22.7980  -10.2340   20.2210 C   0  0  0  0  0  3  0  0  0  0  0  0
  -21.7370   -6.9430   21.4350 O   0  0  0  0  0  0  0  0  0  0  0  0
  -21.6650   -6.2220   22.6000 C   0  0  0  0  0  0  0  0  0  0  0  0
  -21.1720   -6.7850   23.7970 C   0  0  0  0  0  3  0  0  0  0  0  0
  -21.0520   -5.9890   24.9530 C   0  0  0  0  0  3  0  0  0  0  0  0
  -21.4140   -4.6300   24.9130 C   0  0  0  0  0  0  0  0  0  0  0  0
  -21.9000   -4.0650   23.7220 C   0  0  0  0  0  3  0  0  0  0  0  0
  -22.0230   -4.8580   22.5670 C   0  0  0  0  0  0  0  0  0  0  0  0
  -22.4720   -4.3040   21.4160 F   0  0  0  0  0  0  0  0  0  0  0  0
  -21.2910   -3.8620   26.0220 F   0  0  0  0  0  0  0  0  0  0  0  0
  -22.8750  -13.5790   21.2330 C   0  0  0  0  0  0  0  0  0  0  0  0
  -22.1900  -12.8650   22.1190 N   0  0  0  0  0  0  0  0  0  0  0  0
  -22.4210  -14.6240   20.7690 O   0  0  0  0  0  0  0  0  0  0  0  0
  -22.5720  -12.0180   22.5150 H   0  0  0  0  0  0  0  0  0  0  0  0
  -21.2710  -13.1680   22.4050 H   0  0  0  0  0  0  0  0  0  0  0  0
  -25.4620  -15.2450   20.3000 N   0  0  0  0  0  0  0  0  0  0  0  0
  -24.6980  -15.8920   20.4540 H   0  0  0  0  0  0  0  0  0  0  0  0
  -26.2710  -15.6820   19.8760 H   0  0  0  0  0  0  0  0  0  0  0  0
  -29.1990  -23.9740   20.3060 C   0  0  0  0  0  3  0  0  0  0  0  0
  -30.4350  -24.5000   19.6850 N   0  0  0  0  0  4  0  0  0  0  0  0
  -30.3830  -24.4990   18.6800 H   0  0  0  0  0  0  0  0  0  0  0  0
  -31.2490  -23.9830   19.9680 H   0  0  0  0  0  0  0  0  0  0  0  0
  -30.5710  -25.4540   19.9760 H   0  0  0  0  0  0  0  0  0  0  0  0
  -28.0470  -25.0220   20.0140 C   0  0  0  0  0  2  0  0  0  0  0  0
  -28.2890  -26.4620   20.2660 O   0  0  0  0  0  0  0  0  0  0  0  0
  -24.5680  -31.8940   23.2130 C   0  0  0  0  0  0  0  0  0  0  0  0
  -27.1790  -27.3170   20.1960 C   0  0  0  0  0  0  0  0  0  0  0  0
  -23.3700  -30.4910   21.5750 C   0  0  0  0  0  3  0  0  0  0  0  0
  -24.8220  -28.9370   20.1650 C   0  0  0  0  0  0  0  0  0  0  0  0
  -25.9130  -30.8020   21.4060 C   0  0  0  0  0  2  0  0  0  0  0  0
  -25.9900  -29.4230   20.7660 C   0  0  0  0  0  0  0  0  0  0  0  0
  -27.1720  -28.6250   20.7730 C   0  0  0  0  0  3  0  0  0  0  0  0
  -25.9840  -26.8890   19.5670 C   0  0  0  0  0  3  0  0  0  0  0  0
  -24.8210  -27.6750   19.5570 C   0  0  0  0  0  3  0  0  0  0  0  0
  -23.5890  -29.8130   20.1990 C   0  0  0  0  0  2  0  0  0  0  0  0
  -24.6360  -31.0800   22.1210 N   0  0  0  0  0  0  0  0  0  0  0  0
  -23.4820  -32.1780   23.7380 O   0  0  0  0  0  0  0  0  0  0  0  0
  -22.7010  -29.4770   22.5340 C   0  0  0  0  0  0  0  0  0  0  0  0
  -21.3740  -29.3080   22.4030 N   0  0  0  0  0  0  0  0  0  0  0  0
  -23.3740  -28.8490   23.3550 O   0  0  0  0  0  0  0  0  0  0  0  0
  -20.8910  -29.8670   21.7140 H   0  0  0  0  0  0  0  0  0  0  0  0
  -17.9800  -28.1760   22.9330 C   0  0  0  0  0  0  0  0  0  0  0  0
  -20.5460  -28.3800   23.1750 C   0  0  0  0  0  3  0  0  0  0  0  0
  -20.6120  -26.9510   22.5860 C   0  0  0  0  0  2  0  0  0  0  0  0
  -19.4910  -26.6610   21.5820 C   0  0  0  0  0  2  0  0  0  0  0  0
  -18.1200  -26.8290   22.2440 C   0  0  0  0  0  2  0  0  0  0  0  0
  -19.1190  -28.9110   23.3560 C   0  0  0  0  0  0  0  0  0  0  0  0
  -18.9330  -30.1730   23.9610 C   0  0  0  0  0  3  0  0  0  0  0  0
  -17.6410  -30.7000   24.1460 C   0  0  0  0  0  3  0  0  0  0  0  0
  -16.5160  -29.9620   23.7390 C   0  0  0  0  0  3  0  0  0  0  0  0
  -16.6870  -28.7010   23.1380 C   0  0  0  0  0  3  0  0  0  0  0  0
  -25.8490  -32.5260   23.8380 C   0  0  0  0  0  3  0  0  0  0  0  0
  -26.3600  -31.7560   25.1180 C   0  0  1  0  0  0  0  0  0  0  0  0
  -25.2590  -31.5110   26.1770 C   0  0  0  0  0  1  0  0  0  0  0  0
  -26.9520  -30.3820   24.7300 C   0  0  0  0  0  1  0  0  0  0  0  0
  -27.5010  -32.5540   25.7890 C   0  0  0  0  0  1  0  0  0  0  0  0
  -25.5370  -33.9250   24.1660 N   0  0  0  0  0  0  0  0  0  0  0  0
  -25.8710  -34.9770   23.4060 C   0  0  0  0  0  0  0  0  0  0  0  0
  -26.5420  -34.8720   22.3760 O   0  0  0  0  0  0  0  0  0  0  0  0
  -24.9420  -34.0800   24.9660 H   0  0  0  0  0  0  0  0  0  0  0  0
  -24.1510  -36.7750   23.0370 C   0  0  0  0  0  1  0  0  0  0  0  0
  -25.3820  -36.3650   23.8610 C   0  0  0  0  0  3  0  0  0  0  0  0
  -27.5030  -37.2500   24.7270 C   0  0  0  0  0  1  0  0  0  0  0  0
  -26.4180  -37.4160   23.7630 N   0  0  0  0  0  0  0  0  0  0  0  0
  -26.0120  -38.3370   23.8980 H   0  0  0  0  0  0  0  0  0  0  0  0
  1  3  1  0
  1  4  1  0
  3 49  1  0
  3  2  1  0
  4  5  1  6
  4 17  1  0
  4  2  1  0
  6 19  1  0
  7 12  1  0
  8  9  1  0
  8  7  1  0
 10  9  1  0
 10 24  1  0
 10 11  1  0
 12  6  1  0
 12 11  1  0
 13  6  2  0
 14 15  1  0
 15 19  1  0
 17 14  1  0
 17 18  1  0
 18 20  1  0
 18 16  1  0
 19 16  1  0
 21 22  2  0
 22 41  1  0
 23 22  1  0
 23 26  1  0
 24 25  1  0
 24 21  1  0
 25 23  2  0
 26 27  1  0
 27 28  2  0
 29 32  1  0
 29 28  1  0
 30 29  2  0
 31 30  1  0
 31 26  2  0
 32 33  1  0
 33 34  1  0
 34 35  2  0
 36 35  1  0
 36 40  1  0
 37 36  2  0
 38 33  2  0
 38 37  1  0
 39 38  1  0
 41 42  1  0
 42 45  1  0
 42 44  1  0
 43 41  2  0
 46 47  1  0
 46 21  1  0
 48 46  1  0
 49 54  1  0
 50 52  1  0
 50 53  1  0
 50 49  1  0
 51 50  1  0
 54 55  1  0
 56 67  2  0
 57 55  1  0
 57 62  1  0
 58 66  1  0
 58 68  1  0
 59 65  1  0
 59 61  1  0
 60 66  1  0
 61 62  2  0
 61 60  1  0
 63 57  2  0
 64 63  1  0
 64 59  2  0
 65 58  1  0
 66 56  1  0
 68 70  2  0
 69 68  1  0
 71 69  1  0
 72 81  2  0
 72 77  1  0
 73 69  1  0
 73 77  1  0
 74 73  1  0
 75 76  1  0
 75 74  1  0
 76 72  1  0
 77 78  2  0
 78 79  1  0
 80 79  2  0
 81 80  1  0
 82 56  1  0
 82 87  1  0
 82 83  1  0
 83 86  1  1
 83 84  1  0
 85 83  1  0
 87 90  1  0
 88 92  1  0
 88 87  1  0
 89 88  2  0
 92 91  1  0
 94 92  1  0
 94 95  1  0
 94 93  1  0
M  ISO  4   6 100  19 100  54 101  55 101
M  END
>  <TORSDO>  (45) 
F 19

>  <SCORE>  (45) 
-14.651

>  <name>  (45) 
44

>  <ligand_id>  (45) 
44

>  <original_smiles>  (45) 
[H]c1c([H])c([H])c2c(c1[H])C([H])([H])C([H])([H])C([H])([H])C2([H])N([H])C(=O)C1([H])N(C(=O)C([H])(N([H])C(=O)C([H])(N([H])C([H])([H])[H])C([H])([H])[H])C(C([H])([H])[H])(C([H])([H])[H])C([H])([H])[H])C([H])([H])c2c([H])c(OC([H])([H])C([H])(C3([H])C([H])([H])[N+]([H])(C4([H])C([H])([H])C([H])([H])N(C(=O)N5C([H])([H])C([H])([H])C([H])([H])C([H])(n6nc(-c7c([H])c([H])c(Oc8c([H])c([H])c(F)c([H])c8F)c([H])c7[H])c(C(=O)N([H])[H])c6N([H])[H])C5([H])[H])C([H])([H])C4([H])F)C3([H])[H])[N+]([H])([H])[H])c([H])c([H])c2C1([H])[H]

>  <smiles>  (45) 
[H]c1c([H])c([H])c2c(c1[H])C([H])([H])C([H])([H])C([H])([H])C2([H])N([H])C(=O)C1([H])N(C(=O)C([H])(N([H])C(=O)C([H])(N([H])C([H])([H])[H])C([H])([H])[H])C(C([H])([H])[H])(C([H])([H])[H])C([H])([H])[H])C([H])([H])c2c([H])c(OC([H])([H])C([H])(C3([H])C([H])([H])[N+]([H])(C4([H])C([H])([H])C([H])([H])N(C(=O)N5C([H])([H])C([H])([H])C([H])([H])C([H])(n6nc(-c7c([H])c([H])c(Oc8c([H])c([H])c(F)c([H])c8F)c([H])c7[H])c(C(=O)N([H])[H])c6N([H])[H])C5([H])[H])C([H])([H])C4([H])F)C3([H])[H])[N+]([H])([H])[H])c([H])c([H])c2C1([H])[H]

$$$$
45:0:0
     RDKit          3D

 91100  0  0  1  0  0  0  0  0999 V2000
  -30.3580  -19.0350   19.6390 C   0  0  0  0  0  0  0  0  0  0  0  0
  -30.0270  -22.8610   18.9600 C   0  0  0  0  0  2  0  0  0  0  0  0
  -30.6910  -21.4390   18.9150 C   0  0  0  0  0  2  0  0  0  0  0  0
  -29.0230  -21.4440   20.5100 C   0  0  0  0  0  2  0  0  0  0  0  0
  -29.3860  -23.0860   20.3350 C   0  0  1  0  0  0  0  0  0  0  0  0
  -30.4780  -23.4120   21.3710 C   0  0  0  0  0  1  0  0  0  0  0  0
  -29.9800  -20.4470   19.7610 N   0  0  0  0  0  0  0  0  0  0  0  0
  -31.2490  -18.7710   18.8250 O   0  0  0  0  0  0  0  0  0  0  0  0
  -30.7840  -15.0200   19.5020 C   0  0  0  0  0  0  0  0  0  0  0  0
  -30.4170  -12.7870   18.2870 C   0  0  0  0  0  2  0  0  0  0  0  0
  -29.2940  -12.8790   17.2230 C   0  0  0  0  0  2  0  0  0  0  0  0
  -27.9150  -12.6210   17.8560 C   0  0  0  0  0  2  0  0  0  0  0  0
  -27.7330  -13.4130   19.1710 C   0  0  0  0  0  3  0  0  0  0  0  0
  -28.9470  -13.2740   20.1050 C   0  0  0  0  0  2  0  0  0  0  0  0
  -30.1370  -13.7700   19.3860 N   0  0  0  0  0  0  0  0  0  0  0  0
  -31.8070  -15.1590   18.8210 O   0  0  0  0  0  0  0  0  0  0  0  0
  -29.7960  -16.7270   22.6510 C   0  0  0  0  0  2  0  0  0  0  0  0
  -29.8690  -18.0250   21.8960 C   0  0  0  0  0  2  0  0  0  0  0  0
  -30.4910  -15.7050   21.7640 C   0  0  0  0  0  2  0  0  0  0  0  0
  -29.8380  -17.6570   20.4060 C   0  0  0  0  0  3  0  0  0  0  0  0
  -30.2820  -16.0760   20.3480 N   0  0  0  0  0  0  0  0  0  0  0  0
  -25.5200  -13.9580   20.3360 C   0  0  0  0  0  0  0  0  0  0  0  0
  -24.5140  -13.1700   20.8220 C   0  0  0  0  0  0  0  0  0  0  0  0
  -24.9390  -11.8200   20.6220 C   0  0  0  0  0  0  0  0  0  0  0  0
  -26.4870  -13.0900   19.8570 N   0  0  0  0  0  0  0  0  0  0  0  0
  -26.1600  -11.7940   20.0980 N   0  0  0  0  0  0  0  0  0  0  0  0
  -24.2260  -10.5550   20.8410 C   0  0  0  0  0  0  0  0  0  0  0  0
  -24.7130   -9.5790   21.7380 C   0  0  0  0  0  3  0  0  0  0  0  0
  -23.9990   -8.3800   21.9460 C   0  0  0  0  0  3  0  0  0  0  0  0
  -22.7840   -8.1480   21.2590 C   0  0  0  0  0  0  0  0  0  0  0  0
  -22.3150   -9.1130   20.3510 C   0  0  0  0  0  3  0  0  0  0  0  0
  -23.0290  -10.3040   20.1400 C   0  0  0  0  0  3  0  0  0  0  0  0
  -22.0350   -7.0010   21.3800 O   0  0  0  0  0  0  0  0  0  0  0  0
  -21.9490   -6.3180   22.5660 C   0  0  0  0  0  0  0  0  0  0  0  0
  -21.4690   -6.9290   23.7460 C   0  0  0  0  0  3  0  0  0  0  0  0
  -21.3290   -6.1730   24.9250 C   0  0  0  0  0  3  0  0  0  0  0  0
  -21.6620   -4.8040   24.9270 C   0  0  0  0  0  0  0  0  0  0  0  0
  -22.1330   -4.1920   23.7530 C   0  0  0  0  0  3  0  0  0  0  0  0
  -22.2740   -4.9460   22.5760 C   0  0  0  0  0  0  0  0  0  0  0  0
  -22.7110   -4.3480   21.4410 F   0  0  0  0  0  0  0  0  0  0  0  0
  -21.5200   -4.0730   26.0580 F   0  0  0  0  0  0  0  0  0  0  0  0
  -23.1900  -13.6420   21.3490 C   0  0  0  0  0  0  0  0  0  0  0  0
  -22.6100  -12.9110   22.2940 N   0  0  0  0  0  0  0  0  0  0  0  0
  -22.6840  -14.6920   20.9540 O   0  0  0  0  0  0  0  0  0  0  0  0
  -23.0380  -12.0620   22.6340 H   0  0  0  0  0  0  0  0  0  0  0  0
  -21.7270  -13.2060   22.6850 H   0  0  0  0  0  0  0  0  0  0  0  0
  -25.6840  -15.3380   20.2370 N   0  0  0  0  0  0  0  0  0  0  0  0
  -24.9640  -15.9900   20.5270 H   0  0  0  0  0  0  0  0  0  0  0  0
  -26.4910  -15.7910   19.8260 H   0  0  0  0  0  0  0  0  0  0  0  0
  -28.3040  -24.4350   20.3900 C   0  0  0  0  0  2  0  0  0  0  0  0
  -28.5760  -26.0000   20.4600 O   0  0  0  0  0  0  0  0  0  0  0  0
  -24.8500  -31.7950   23.2660 C   0  0  0  0  0  0  0  0  0  0  0  0
  -27.5290  -27.0100   20.3660 C   0  0  0  0  0  0  0  0  0  0  0  0
  -23.7070  -30.3790   21.6060 C   0  0  0  0  0  3  0  0  0  0  0  0
  -25.2030  -28.7860   20.2450 C   0  0  0  0  0  0  0  0  0  0  0  0
  -26.2680  -30.6360   21.5200 C   0  0  0  0  0  2  0  0  0  0  0  0
  -26.3660  -29.2320   20.8850 C   0  0  0  0  0  0  0  0  0  0  0  0
  -27.5290  -28.3630   20.9220 C   0  0  0  0  0  3  0  0  0  0  0  0
  -26.3340  -26.6800   19.6870 C   0  0  0  0  0  3  0  0  0  0  0  0
  -25.2040  -27.5260   19.6290 C   0  0  0  0  0  3  0  0  0  0  0  0
  -23.9740  -29.6870   20.2430 C   0  0  0  0  0  2  0  0  0  0  0  0
  -24.9610  -30.9610   22.1860 N   0  0  0  0  0  0  0  0  0  0  0  0
  -23.7480  -32.0820   23.7560 O   0  0  0  0  0  0  0  0  0  0  0  0
  -22.9980  -29.3830   22.5590 C   0  0  0  0  0  0  0  0  0  0  0  0
  -21.6780  -29.1920   22.3810 N   0  0  0  0  0  0  0  0  0  0  0  0
  -23.6410  -28.7820   23.4230 O   0  0  0  0  0  0  0  0  0  0  0  0
  -21.2150  -29.7270   21.6590 H   0  0  0  0  0  0  0  0  0  0  0  0
  -18.3050  -27.9120   22.7350 C   0  0  0  0  0  0  0  0  0  0  0  0
  -20.8380  -28.2570   23.1350 C   0  0  0  0  0  3  0  0  0  0  0  0
  -21.0090  -26.8100   22.6150 C   0  0  0  0  0  2  0  0  0  0  0  0
  -19.9760  -26.4230   21.5520 C   0  0  0  0  0  2  0  0  0  0  0  0
  -18.5560  -26.5490   22.1130 C   0  0  0  0  0  2  0  0  0  0  0  0
  -19.3770  -28.7210   23.2010 C   0  0  0  0  0  0  0  0  0  0  0  0
  -19.0890  -29.9920   23.7430 C   0  0  0  0  0  3  0  0  0  0  0  0
  -17.7630  -30.4590   23.8200 C   0  0  0  0  0  3  0  0  0  0  0  0
  -16.7060  -29.6490   23.3700 C   0  0  0  0  0  3  0  0  0  0  0  0
  -16.9780  -28.3770   22.8350 C   0  0  0  0  0  3  0  0  0  0  0  0
  -26.1040  -32.4450   23.9260 C   0  0  0  0  0  3  0  0  0  0  0  0
  -25.7670  -33.8390   24.2600 N   0  0  0  0  0  0  0  0  0  0  0  0
  -26.0980  -34.9050   23.5200 C   0  0  0  0  0  0  0  0  0  0  0  0
  -26.7860  -34.8200   22.5000 O   0  0  0  0  0  0  0  0  0  0  0  0
  -25.1550  -33.9770   25.0510 H   0  0  0  0  0  0  0  0  0  0  0  0
  -24.3460  -36.6780   23.1680 C   0  0  0  0  0  1  0  0  0  0  0  0
  -25.5880  -36.2850   23.9840 C   0  0  0  0  0  3  0  0  0  0  0  0
  -27.7050  -37.1960   24.8340 C   0  0  0  0  0  1  0  0  0  0  0  0
  -26.6060  -37.3540   23.8850 N   0  0  0  0  0  0  0  0  0  0  0  0
  -26.1850  -38.2680   24.0350 H   0  0  0  0  0  0  0  0  0  0  0  0
  -26.5920  -31.6780   25.2170 C   0  0  1  0  0  0  0  0  0  0  0  0
  -25.4710  -31.4210   26.2510 C   0  0  0  0  0  1  0  0  0  0  0  0
  -27.2050  -30.3090   24.8430 C   0  0  0  0  0  1  0  0  0  0  0  0
  -27.7140  -32.4850   25.9140 C   0  0  0  0  0  1  0  0  0  0  0  0
  1  7  1  0
  2  5  1  0
  3  2  1  0
  3  7  1  0
  5 50  1  0
  5  4  1  0
  5  6  1  1
  7  4  1  0
  8  1  2  0
  9 21  1  0
 10 15  1  0
 11 12  1  0
 11 10  1  0
 13 12  1  0
 13 25  1  0
 13 14  1  0
 15  9  1  0
 15 14  1  0
 16  9  2  0
 18 17  1  0
 19 17  1  0
 20  1  1  0
 20 18  1  0
 21 20  1  0
 21 19  1  0
 22 23  2  0
 23 42  1  0
 24 23  1  0
 24 27  1  0
 25 26  1  0
 25 22  1  0
 26 24  2  0
 27 28  1  0
 28 29  2  0
 30 33  1  0
 30 29  1  0
 31 30  2  0
 32 31  1  0
 32 27  2  0
 33 34  1  0
 34 39  2  0
 34 35  1  0
 35 36  2  0
 36 37  1  0
 37 41  1  0
 38 37  2  0
 39 38  1  0
 40 39  1  0
 42 43  1  0
 43 45  1  0
 43 46  1  0
 44 42  2  0
 47 22  1  0
 47 48  1  0
 49 47  1  0
 50 51  1  0
 52 63  2  0
 53 51  1  0
 53 58  1  0
 54 62  1  0
 54 64  1  0
 55 57  1  0
 56 62  1  0
 57 58  2  0
 57 56  1  0
 59 53  2  0
 60 59  1  0
 60 55  2  0
 61 55  1  0
 61 54  1  0
 62 52  1  0
 64 66  2  0
 65 64  1  0
 67 65  1  0
 68 77  2  0
 68 73  1  0
 69 65  1  0
 69 73  1  0
 70 69  1  0
 71 72  1  0
 71 70  1  0
 72 68  1  0
 73 74  2  0
 74 75  1  0
 76 75  2  0
 77 76  1  0
 78 52  1  0
 78 79  1  0
 78 88  1  0
 79 82  1  0
 80 84  1  0
 80 79  1  0
 81 80  2  0
 84 83  1  0
 86 84  1  0
 86 87  1  0
 86 85  1  0
 88 91  1  1
 88 89  1  0
 90 88  1  0
M  ISO  4   9 100  21 100  50 101  51 101
M  END
>  <TORSDO>  (46) 
F 17

>  <SCORE>  (46) 
-12.332

>  <name>  (46) 
45

>  <ligand_id>  (46) 
45

>  <original_smiles>  (46) 
[H]c1c([H])c([H])c2c(c1[H])C([H])([H])C([H])([H])C([H])([H])C2([H])N([H])C(=O)C1([H])N(C(=O)C([H])(N([H])C(=O)C([H])(N([H])C([H])([H])[H])C([H])([H])[H])C(C([H])([H])[H])(C([H])([H])[H])C([H])([H])[H])C([H])([H])c2c([H])c(OC([H])([H])C3(C([H])([H])[H])C([H])([H])N(C(=O)C4([H])N(C(=O)N5C([H])([H])C([H])([H])C([H])([H])C([H])(n6nc(-c7c([H])c([H])c(Oc8c([H])c([H])c(F)c([H])c8F)c([H])c7[H])c(C(=O)N([H])[H])c6N([H])[H])C5([H])[H])C([H])([H])C([H])([H])C4([H])[H])C([H])([H])C3([H])[H])c([H])c([H])c2C1([H])[H]

>  <smiles>  (46) 
[H]c1c([H])c([H])c2c(c1[H])C([H])([H])C([H])([H])C([H])([H])C2([H])N([H])C(=O)C1([H])N(C(=O)C([H])(N([H])C(=O)C([H])(N([H])C([H])([H])[H])C([H])([H])[H])C(C([H])([H])[H])(C([H])([H])[H])C([H])([H])[H])C([H])([H])c2c([H])c(OC([H])([H])C3(C([H])([H])[H])C([H])([H])N(C(=O)C4([H])N(C(=O)N5C([H])([H])C([H])([H])C([H])([H])C([H])(n6nc(-c7c([H])c([H])c(Oc8c([H])c([H])c(F)c([H])c8F)c([H])c7[H])c(C(=O)N([H])[H])c6N([H])[H])C5([H])[H])C([H])([H])C([H])([H])C4([H])[H])C([H])([H])C3([H])[H])c([H])c([H])c2C1([H])[H]

$$$$
46:0:0
     RDKit          3D

 96105  0  0  1  0  0  0  0  0999 V2000
  -26.9370  -21.3240   21.9000 C   0  0  0  0  0  1  0  0  0  0  0  0
  -28.0380  -21.6980   20.8970 C   0  0  0  0  0  3  0  0  0  0  0  0
  -29.2620  -19.7240   19.9790 C   0  0  0  0  0  0  0  0  0  0  0  0
  -29.0060  -20.6060   20.9470 N   0  0  0  0  0  0  0  0  0  0  0  0
  -28.9200  -19.9230   18.8030 O   0  0  0  0  0  0  0  0  0  0  0  0
  -29.3660  -20.3620   21.8610 H   0  0  0  0  0  0  0  0  0  0  0  0
  -31.8470  -15.1670   20.2800 C   0  0  0  0  0  0  0  0  0  0  0  0
  -31.4950  -12.9140   19.3660 C   0  0  0  0  0  2  0  0  0  0  0  0
  -30.5960  -12.9470   18.1180 C   0  0  0  0  0  2  0  0  0  0  0  0
  -29.1260  -12.7890   18.5430 C   0  0  0  0  0  2  0  0  0  0  0  0
  -28.7250  -13.7940   19.6500 C   0  0  0  0  0  3  0  0  0  0  0  0
  -29.7560  -13.8110   20.8110 C   0  0  0  0  0  2  0  0  0  0  0  0
  -31.0920  -14.0330   20.2370 N   0  0  0  0  0  0  0  0  0  0  0  0
  -33.0290  -15.1500   19.9350 O   0  0  0  0  0  0  0  0  0  0  0  0
  -31.3610  -18.1940   18.4210 C   0  0  0  0  0  2  0  0  0  0  0  0
  -30.3290  -17.0670   18.4400 C   0  0  0  0  0  2  0  0  0  0  0  0
  -32.1160  -17.5520   20.7680 C   0  0  0  0  0  2  0  0  0  0  0  0
  -29.9800  -18.4360   20.4940 C   0  0  0  0  0  3  0  0  0  0  0  0
  -31.3960  -18.6040   19.9170 C   0  0  0  0  0  3  0  0  0  0  0  0
  -30.0710  -16.9530   19.9640 C   0  0  0  0  0  3  0  0  0  0  0  0
  -31.2750  -16.3640   20.5940 N   0  0  0  0  0  0  0  0  0  0  0  0
  -26.3480  -14.4840   20.3470 C   0  0  0  0  0  0  0  0  0  0  0  0
  -25.2540  -13.7390   20.7060 C   0  0  0  0  0  0  0  0  0  0  0  0
  -25.6850  -12.3780   20.6880 C   0  0  0  0  0  0  0  0  0  0  0  0
  -27.3690  -13.5720   20.1330 N   0  0  0  0  0  0  0  0  0  0  0  0
  -26.9770  -12.3050   20.4080 N   0  0  0  0  0  0  0  0  0  0  0  0
  -24.9320  -11.1300   20.8600 C   0  0  0  0  0  0  0  0  0  0  0  0
  -25.2150  -10.2420   21.9220 C   0  0  0  0  0  3  0  0  0  0  0  0
  -24.4680   -9.0550   22.0790 C   0  0  0  0  0  3  0  0  0  0  0  0
  -23.4250   -8.7490   21.1700 C   0  0  0  0  0  0  0  0  0  0  0  0
  -23.1650   -9.6260   20.1020 C   0  0  0  0  0  3  0  0  0  0  0  0
  -23.9130  -10.8050   19.9430 C   0  0  0  0  0  3  0  0  0  0  0  0
  -22.6590   -7.6110   21.2340 O   0  0  0  0  0  0  0  0  0  0  0  0
  -22.2810   -7.0620   22.4320 C   0  0  0  0  0  0  0  0  0  0  0  0
  -21.4900   -7.7740   23.3620 C   0  0  0  0  0  3  0  0  0  0  0  0
  -21.0710   -7.1480   24.5520 C   0  0  0  0  0  3  0  0  0  0  0  0
  -21.4270   -5.8100   24.8070 C   0  0  0  0  0  0  0  0  0  0  0  0
  -22.2070   -5.0990   23.8780 C   0  0  0  0  0  3  0  0  0  0  0  0
  -22.6310   -5.7230   22.6930 C   0  0  0  0  0  0  0  0  0  0  0  0
  -23.3660   -5.0260   21.7900 F   0  0  0  0  0  0  0  0  0  0  0  0
  -21.0150   -5.2020   25.9440 F   0  0  0  0  0  0  0  0  0  0  0  0
  -23.8610  -14.2480   20.9440 C   0  0  0  0  0  0  0  0  0  0  0  0
  -23.1010  -13.5730   21.8000 N   0  0  0  0  0  0  0  0  0  0  0  0
  -23.4540  -15.2780   20.4080 O   0  0  0  0  0  0  0  0  0  0  0  0
  -23.4440  -12.7380   22.2500 H   0  0  0  0  0  0  0  0  0  0  0  0
  -22.1680  -13.8960   22.0100 H   0  0  0  0  0  0  0  0  0  0  0  0
  -26.5460  -15.8480   20.1560 N   0  0  0  0  0  0  0  0  0  0  0  0
  -25.7950  -16.5210   20.2400 H   0  0  0  0  0  0  0  0  0  0  0  0
  -27.3980  -16.2550   19.7930 H   0  0  0  0  0  0  0  0  0  0  0  0
  -28.6860  -23.0580   21.2580 C   0  0  0  0  0  2  0  0  0  0  0  0
  -28.9160  -23.9230   20.0780 N   0  0  0  0  0  4  0  0  0  0  0  0
  -29.8110  -23.6880   19.6720 H   0  0  0  0  0  0  0  0  0  0  0  0
  -28.2140  -23.7170   19.3840 H   0  0  0  0  0  0  0  0  0  0  0  0
  -28.8440  -25.3720   20.3900 C   0  0  0  0  0  2  0  0  0  0  0  0
  -29.1210  -26.2740   19.1740 C   0  0  0  0  0  2  0  0  0  0  0  0
  -28.8860  -27.6360   19.5350 O   0  0  0  0  0  0  0  0  0  0  0  0
  -24.5470  -31.8590   23.2420 C   0  0  0  0  0  0  0  0  0  0  0  0
  -27.6000  -28.1260   19.6380 C   0  0  0  0  0  0  0  0  0  0  0  0
  -23.4620  -30.5030   21.4840 C   0  0  0  0  0  3  0  0  0  0  0  0
  -25.0360  -29.3020   19.8720 C   0  0  0  0  0  0  0  0  0  0  0  0
  -25.9180  -31.1750   21.2720 C   0  0  0  0  0  2  0  0  0  0  0  0
  -26.1390  -29.8980   20.4920 C   0  0  0  0  0  0  0  0  0  0  0  0
  -27.4190  -29.3160   20.3730 C   0  0  0  0  0  3  0  0  0  0  0  0
  -26.4700  -27.5270   19.0290 C   0  0  0  0  0  3  0  0  0  0  0  0
  -25.1950  -28.1140   19.1400 C   0  0  0  0  0  3  0  0  0  0  0  0
  -23.7010  -29.9950   20.0350 C   0  0  0  0  0  2  0  0  0  0  0  0
  -24.6620  -31.1900   22.0610 N   0  0  0  0  0  0  0  0  0  0  0  0
  -23.4560  -31.9450   23.8260 O   0  0  0  0  0  0  0  0  0  0  0  0
  -22.9650  -29.3190   22.3410 C   0  0  0  0  0  0  0  0  0  0  0  0
  -21.6740  -28.9830   22.1920 N   0  0  0  0  0  0  0  0  0  0  0  0
  -23.7330  -28.7080   23.0880 O   0  0  0  0  0  0  0  0  0  0  0  0
  -21.1000  -29.5720   21.6050 H   0  0  0  0  0  0  0  0  0  0  0  0
  -18.5060  -27.2680   22.4580 C   0  0  0  0  0  0  0  0  0  0  0  0
  -20.9960  -27.8570   22.8350 C   0  0  0  0  0  3  0  0  0  0  0  0
  -21.3180  -26.5190   22.1290 C   0  0  0  0  0  2  0  0  0  0  0  0
  -20.2870  -26.1310   21.0570 C   0  0  0  0  0  2  0  0  0  0  0  0
  -18.8790  -26.0340   21.6510 C   0  0  0  0  0  2  0  0  0  0  0  0
  -19.4960  -28.1350   22.9920 C   0  0  0  0  0  0  0  0  0  0  0  0
  -19.0900  -29.2950   23.6890 C   0  0  0  0  0  3  0  0  0  0  0  0
  -17.7250  -29.5890   23.8600 C   0  0  0  0  0  3  0  0  0  0  0  0
  -16.7490  -28.7190   23.3460 C   0  0  0  0  0  3  0  0  0  0  0  0
  -17.1380  -27.5610   22.6490 C   0  0  0  0  0  3  0  0  0  0  0  0
  -25.7700  -32.5630   23.9070 C   0  0  0  0  0  3  0  0  0  0  0  0
  -25.3580  -33.9300   24.2490 N   0  0  0  0  0  0  0  0  0  0  0  0
  -25.6590  -35.0180   23.5270 C   0  0  0  0  0  0  0  0  0  0  0  0
  -26.3800  -34.9790   22.5270 O   0  0  0  0  0  0  0  0  0  0  0  0
  -24.7130  -34.0300   25.0200 H   0  0  0  0  0  0  0  0  0  0  0  0
  -23.8360  -36.7030   23.1210 C   0  0  0  0  0  1  0  0  0  0  0  0
  -25.0610  -36.3610   23.9840 C   0  0  0  0  0  3  0  0  0  0  0  0
  -27.0900  -37.3650   24.9380 C   0  0  0  0  0  1  0  0  0  0  0  0
  -26.0300  -37.4790   23.9400 N   0  0  0  0  0  0  0  0  0  0  0  0
  -25.5590  -38.3710   24.0790 H   0  0  0  0  0  0  0  0  0  0  0  0
  -26.3060  -31.8040   25.1830 C   0  0  1  0  0  0  0  0  0  0  0  0
  -25.2030  -31.4660   26.2140 C   0  0  0  0  0  1  0  0  0  0  0  0
  -26.9950  -30.4820   24.7730 C   0  0  0  0  0  1  0  0  0  0  0  0
  -27.3810  -32.6620   25.8910 C   0  0  0  0  0  1  0  0  0  0  0  0
  2  4  1  0
  2 50  1  0
  2  1  1  0
  3  4  1  0
  4  6  1  0
  5  3  2  0
  7 21  1  0
  8 13  1  0
  9 10  1  0
  9  8  1  0
 11 10  1  0
 11 25  1  0
 11 12  1  0
 13  7  1  0
 13 12  1  0
 14  7  2  0
 15 16  1  0
 18  3  1  0
 19 15  1  0
 19 18  1  0
 19 17  1  0
 20 16  1  0
 20 18  1  0
 20 21  1  0
 21 17  1  0
 22 23  2  0
 23 42  1  0
 24 23  1  0
 24 27  1  0
 25 22  1  0
 25 26  1  0
 26 24  2  0
 27 28  1  0
 28 29  2  0
 30 33  1  0
 30 29  1  0
 31 30  2  0
 32 31  1  0
 32 27  2  0
 33 34  1  0
 34 39  2  0
 34 35  1  0
 35 36  2  0
 36 37  1  0
 37 41  1  0
 38 37  2  0
 39 38  1  0
 40 39  1  0
 42 43  1  0
 43 46  1  0
 43 45  1  0
 44 42  2  0
 47 48  1  0
 47 22  1  0
 49 47  1  0
 51 54  1  0
 51 50  1  0
 52 51  1  0
 53 51  1  0
 55 56  1  0
 55 54  1  0
 56 58  1  0
 57 68  2  0
 58 63  1  0
 59 67  1  0
 59 69  1  0
 60 66  1  0
 60 62  1  0
 61 67  1  0
 62 61  1  0
 63 62  2  0
 64 65  1  0
 64 58  2  0
 65 60  2  0
 66 59  1  0
 67 57  1  0
 69 71  2  0
 70 69  1  0
 72 70  1  0
 73 82  2  0
 73 78  1  0
 74 70  1  0
 74 78  1  0
 75 74  1  0
 76 77  1  0
 76 75  1  0
 77 73  1  0
 78 79  2  0
 79 80  1  0
 81 80  2  0
 82 81  1  0
 83 57  1  0
 83 84  1  0
 83 93  1  0
 84 87  1  0
 85 89  1  0
 85 84  1  0
 86 85  2  0
 89 88  1  0
 91 89  1  0
 91 92  1  0
 91 90  1  0
 93 96  1  1
 93 94  1  0
 95 93  1  0
M  ISO  4   7 100  21 100  55 101  56 101
M  END
>  <TORSDO>  (47) 
F 21

>  <SCORE>  (47) 
-8.356

>  <name>  (47) 
46

>  <ligand_id>  (47) 
46

>  <original_smiles>  (47) 
[H]c1c([H])c([H])c2c(c1[H])C([H])([H])C([H])([H])C([H])([H])C2([H])N([H])C(=O)C1([H])N(C(=O)C([H])(N([H])C(=O)C([H])(N([H])C([H])([H])[H])C([H])([H])[H])C(C([H])([H])[H])(C([H])([H])[H])C([H])([H])[H])C([H])([H])c2c([H])c(OC([H])([H])C([H])([H])[N+]([H])([H])C([H])([H])C([H])(N([H])C(=O)C3([H])C4([H])N(C(=O)N5C([H])([H])C([H])([H])C([H])([H])C([H])(n6nc(-c7c([H])c([H])c(Oc8c([H])c([H])c(F)c([H])c8F)c([H])c7[H])c(C(=O)N([H])[H])c6N([H])[H])C5([H])[H])C([H])([H])C3([H])C([H])([H])C4([H])[H])C([H])([H])[H])c([H])c([H])c2C1([H])[H]

>  <smiles>  (47) 
[H]c1c([H])c([H])c2c(c1[H])C([H])([H])C([H])([H])C([H])([H])C2([H])N([H])C(=O)C1([H])N(C(=O)C([H])(N([H])C(=O)C([H])(N([H])C([H])([H])[H])C([H])([H])[H])C(C([H])([H])[H])(C([H])([H])[H])C([H])([H])[H])C([H])([H])c2c([H])c(OC([H])([H])C([H])([H])[N+]([H])([H])C([H])([H])C([H])(N([H])C(=O)C3([H])C4([H])N(C(=O)N5C([H])([H])C([H])([H])C([H])([H])C([H])(n6nc(-c7c([H])c([H])c(Oc8c([H])c([H])c(F)c([H])c8F)c([H])c7[H])c(C(=O)N([H])[H])c6N([H])[H])C5([H])[H])C([H])([H])C3([H])C([H])([H])C4([H])[H])C([H])([H])[H])c([H])c([H])c2C1([H])[H]

$$$$
47:0:0
     RDKit          3D

 95103  0  0  1  0  0  0  0  0999 V2000
  -28.6110  -22.7350   20.7440 C   0  0  0  0  0  0  0  0  0  0  0  0
  -30.6390  -19.8700   19.1510 C   0  0  0  0  0  2  0  0  0  0  0  0
  -29.3420  -19.0190   21.0480 C   0  0  0  0  0  2  0  0  0  0  0  0
  -29.7340  -21.1480   19.0670 C   0  0  0  0  0  2  0  0  0  0  0  0
  -28.4090  -20.2610   20.9470 C   0  0  0  0  0  2  0  0  0  0  0  0
  -29.9600  -18.5800   19.7040 C   0  0  0  0  0  3  0  0  0  0  0  0
  -28.9860  -21.4760   20.3020 N   0  0  0  0  0  0  0  0  0  0  0  0
  -27.9150  -22.8260   21.7600 O   0  0  0  0  0  0  0  0  0  0  0  0
  -32.1350  -17.5900   20.7400 C   0  0  0  0  0  1  0  0  0  0  0  0
  -30.9510  -17.3310   19.7820 C   0  0  0  0  0  3  0  0  0  0  0  0
  -31.0280  -14.7950   19.7730 C   0  0  0  0  0  0  0  0  0  0  0  0
  -30.6860  -12.5060   18.9080 C   0  0  0  0  0  2  0  0  0  0  0  0
  -29.6800  -12.5470   17.7420 C   0  0  0  0  0  2  0  0  0  0  0  0
  -28.2400  -12.4220   18.2710 C   0  0  0  0  0  2  0  0  0  0  0  0
  -27.9500  -13.3750   19.4620 C   0  0  0  0  0  3  0  0  0  0  0  0
  -29.0780  -13.3440   20.5170 C   0  0  0  0  0  2  0  0  0  0  0  0
  -30.3430  -13.6140   19.8230 N   0  0  0  0  0  0  0  0  0  0  0  0
  -32.1690  -14.8380   19.3070 O   0  0  0  0  0  0  0  0  0  0  0  0
  -30.3710  -15.9650   20.0420 N   0  0  0  0  0  0  0  0  0  0  0  0
  -29.4100  -15.9080   20.3450 H   0  0  0  0  0  0  0  0  0  0  0  0
  -25.6470  -14.0020   20.4070 C   0  0  0  0  0  0  0  0  0  0  0  0
  -24.5900  -13.2430   20.8310 C   0  0  0  0  0  0  0  0  0  0  0  0
  -25.0030  -11.8810   20.7040 C   0  0  0  0  0  0  0  0  0  0  0  0
  -26.6390  -13.1040   20.0500 N   0  0  0  0  0  0  0  0  0  0  0  0
  -26.2630  -11.8200   20.2890 N   0  0  0  0  0  0  0  0  0  0  0  0
  -24.2540  -10.6320   20.8980 C   0  0  0  0  0  0  0  0  0  0  0  0
  -24.6620   -9.6650   21.8440 C   0  0  0  0  0  3  0  0  0  0  0  0
  -23.9140   -8.4840   22.0290 C   0  0  0  0  0  3  0  0  0  0  0  0
  -22.7410   -8.2600   21.2700 C   0  0  0  0  0  0  0  0  0  0  0  0
  -22.3530   -9.2130   20.3110 C   0  0  0  0  0  3  0  0  0  0  0  0
  -23.1010  -10.3870   20.1250 C   0  0  0  0  0  3  0  0  0  0  0  0
  -21.9670   -7.1290   21.3600 O   0  0  0  0  0  0  0  0  0  0  0  0
  -21.8150   -6.4570   22.5470 C   0  0  0  0  0  0  0  0  0  0  0  0
  -21.2570   -7.0730   23.6880 C   0  0  0  0  0  3  0  0  0  0  0  0
  -21.0560   -6.3230   24.8640 C   0  0  0  0  0  3  0  0  0  0  0  0
  -21.4030   -4.9590   24.9000 C   0  0  0  0  0  0  0  0  0  0  0  0
  -21.9500   -4.3430   23.7620 C   0  0  0  0  0  3  0  0  0  0  0  0
  -22.1530   -5.0890   22.5870 C   0  0  0  0  0  0  0  0  0  0  0  0
  -22.6640   -4.4840   21.4870 F   0  0  0  0  0  0  0  0  0  0  0  0
  -21.1990   -4.2370   26.0270 F   0  0  0  0  0  0  0  0  0  0  0  0
  -23.2360  -13.7480   21.2390 C   0  0  0  0  0  0  0  0  0  0  0  0
  -22.5590  -13.0310   22.1290 N   0  0  0  0  0  0  0  0  0  0  0  0
  -22.7920  -14.8090   20.8040 O   0  0  0  0  0  0  0  0  0  0  0  0
  -22.9330  -12.1720   22.5030 H   0  0  0  0  0  0  0  0  0  0  0  0
  -21.6530  -13.3480   22.4440 H   0  0  0  0  0  0  0  0  0  0  0  0
  -25.8400  -15.3730   20.2720 N   0  0  0  0  0  0  0  0  0  0  0  0
  -25.1090  -16.0430   20.4780 H   0  0  0  0  0  0  0  0  0  0  0  0
  -26.6720  -15.7980   19.8800 H   0  0  0  0  0  0  0  0  0  0  0  0
  -28.9460  -24.1070   20.0310 C   0  0  0  0  0  3  0  0  0  0  0  0
  -28.5640  -24.1000   18.6030 N   0  0  0  0  0  4  0  0  0  0  0  0
  -27.6090  -23.8130   18.4830 H   0  0  0  0  0  0  0  0  0  0  0  0
  -29.1570  -23.4880   18.0690 H   0  0  0  0  0  0  0  0  0  0  0  0
  -28.6630  -25.0270   18.2290 H   0  0  0  0  0  0  0  0  0  0  0  0
  -28.2620  -25.3490   20.7520 C   0  0  0  0  0  2  0  0  0  0  0  0
  -28.5200  -26.7080   20.2540 O   0  0  0  0  0  0  0  0  0  0  0  0
  -24.7140  -31.9470   23.3750 C   0  0  0  0  0  0  0  0  0  0  0  0
  -27.4040  -27.5380   20.2270 C   0  0  0  0  0  0  0  0  0  0  0  0
  -23.5420  -30.5860   21.6770 C   0  0  0  0  0  3  0  0  0  0  0  0
  -25.0240  -29.0930   20.2290 C   0  0  0  0  0  0  0  0  0  0  0  0
  -26.0760  -30.9460   21.5320 C   0  0  0  0  0  2  0  0  0  0  0  0
  -26.1770  -29.5890   20.8550 C   0  0  0  0  0  0  0  0  0  0  0  0
  -27.3750  -28.8220   20.8440 C   0  0  0  0  0  3  0  0  0  0  0  0
  -26.2350  -27.0880   19.5780 C   0  0  0  0  0  3  0  0  0  0  0  0
  -25.0520  -27.8480   19.5840 C   0  0  0  0  0  3  0  0  0  0  0  0
  -23.7760  -29.9470   20.2830 C   0  0  0  0  0  2  0  0  0  0  0  0
  -24.7950  -31.1720   22.2550 N   0  0  0  0  0  0  0  0  0  0  0  0
  -23.6230  -32.2020   23.9020 O   0  0  0  0  0  0  0  0  0  0  0  0
  -22.8760  -29.5380   22.5990 C   0  0  0  0  0  0  0  0  0  0  0  0
  -21.5580  -29.3380   22.4310 N   0  0  0  0  0  0  0  0  0  0  0  0
  -23.5450  -28.9090   23.4220 O   0  0  0  0  0  0  0  0  0  0  0  0
  -21.0770  -29.9000   21.7420 H   0  0  0  0  0  0  0  0  0  0  0  0
  -18.1990  -28.0440   22.7700 C   0  0  0  0  0  0  0  0  0  0  0  0
  -20.7340  -28.3710   23.1580 C   0  0  0  0  0  3  0  0  0  0  0  0
  -20.9030  -26.9470   22.5770 C   0  0  0  0  0  2  0  0  0  0  0  0
  -19.8560  -26.6040   21.5110 C   0  0  0  0  0  2  0  0  0  0  0  0
  -18.4440  -26.7040   22.0950 C   0  0  0  0  0  2  0  0  0  0  0  0
  -19.2760  -28.8340   23.2550 C   0  0  0  0  0  0  0  0  0  0  0  0
  -18.9950  -30.0850   23.8460 C   0  0  0  0  0  3  0  0  0  0  0  0
  -17.6710  -30.5490   23.9530 C   0  0  0  0  0  3  0  0  0  0  0  0
  -16.6080  -29.7580   23.4840 C   0  0  0  0  0  3  0  0  0  0  0  0
  -16.8720  -28.5070   22.8990 C   0  0  0  0  0  3  0  0  0  0  0  0
  -25.9870  -32.5670   24.0320 C   0  0  0  0  0  3  0  0  0  0  0  0
  -26.4710  -31.7820   25.3120 C   0  0  1  0  0  0  0  0  0  0  0  0
  -25.3480  -31.5260   26.3440 C   0  0  0  0  0  1  0  0  0  0  0  0
  -27.0680  -30.4120   24.9170 C   0  0  0  0  0  1  0  0  0  0  0  0
  -27.6020  -32.5700   26.0140 C   0  0  0  0  0  1  0  0  0  0  0  0
  -25.6770  -33.9650   24.3640 N   0  0  0  0  0  0  0  0  0  0  0  0
  -26.0440  -35.0220   23.6280 C   0  0  0  0  0  0  0  0  0  0  0  0
  -26.7480  -34.9220   22.6180 O   0  0  0  0  0  0  0  0  0  0  0  0
  -25.0580  -34.1180   25.1460 H   0  0  0  0  0  0  0  0  0  0  0  0
  -24.3550  -36.8380   23.2170 C   0  0  0  0  0  1  0  0  0  0  0  0
  -25.5530  -36.4100   24.0790 C   0  0  0  0  0  3  0  0  0  0  0  0
  -27.6520  -37.2590   25.0260 C   0  0  0  0  0  1  0  0  0  0  0  0
  -26.6020  -37.4510   24.0300 N   0  0  0  0  0  0  0  0  0  0  0  0
  -26.2000  -38.3740   24.1700 H   0  0  0  0  0  0  0  0  0  0  0  0
  1  8  2  0
  2  6  1  0
  4  2  1  0
  4  7  1  0
  5  3  1  0
  6 10  1  0
  6  3  1  0
  7  1  1  0
  7  5  1  0
 10 19  1  0
 10  9  1  0
 11 17  1  0
 11 19  1  0
 12 17  1  0
 13 14  1  0
 13 12  1  0
 15 14  1  0
 15 24  1  0
 15 16  1  0
 17 16  1  0
 18 11  2  0
 19 20  1  0
 21 22  2  0
 22 41  1  0
 23 22  1  0
 23 26  1  0
 24 25  1  0
 24 21  1  0
 25 23  2  0
 26 27  1  0
 27 28  2  0
 29 32  1  0
 29 28  1  0
 30 29  2  0
 31 30  1  0
 31 26  2  0
 32 33  1  0
 33 38  2  0
 33 34  1  0
 34 35  2  0
 35 36  1  0
 36 40  1  0
 37 36  2  0
 38 37  1  0
 39 38  1  0
 41 42  1  0
 42 45  1  0
 42 44  1  0
 43 41  2  0
 46 21  1  0
 46 47  1  0
 48 46  1  0
 49  1  1  0
 49 54  1  0
 50 49  1  0
 51 50  1  0
 52 50  1  0
 53 50  1  0
 55 54  1  0
 56 67  2  0
 57 55  1  0
 57 62  1  0
 58 66  1  0
 58 68  1  0
 59 65  1  0
 59 61  1  0
 60 66  1  0
 61 60  1  0
 62 61  2  0
 63 64  1  0
 63 57  2  0
 64 59  2  0
 65 58  1  0
 66 56  1  0
 68 70  2  0
 69 68  1  0
 71 69  1  0
 72 81  2  0
 72 77  1  0
 73 69  1  0
 73 77  1  0
 74 73  1  0
 75 76  1  0
 75 74  1  0
 76 72  1  0
 77 78  2  0
 78 79  1  0
 80 79  2  0
 81 80  1  0
 82 56  1  0
 82 87  1  0
 82 83  1  0
 83 86  1  1
 83 84  1  0
 85 83  1  0
 87 90  1  0
 88 92  1  0
 88 87  1  0
 89 88  2  0
 92 91  1  0
 94 92  1  0
 94 95  1  0
 94 93  1  0
M  ISO  4  11 100  19 100  54 101  55 101
M  END
>  <TORSDO>  (48) 
F 20

>  <SCORE>  (48) 
-13.366

>  <name>  (48) 
47

>  <ligand_id>  (48) 
47

>  <original_smiles>  (48) 
[H]c1c([H])c([H])c2c(c1[H])C([H])([H])C([H])([H])C([H])([H])C2([H])N([H])C(=O)C1([H])N(C(=O)C([H])(N([H])C(=O)C([H])(N([H])C([H])([H])[H])C([H])([H])[H])C(C([H])([H])[H])(C([H])([H])[H])C([H])([H])[H])C([H])([H])c2c([H])c(OC([H])([H])C([H])(C(=O)N3C([H])([H])C([H])([H])C([H])(C([H])(N([H])C(=O)N4C([H])([H])C([H])([H])C([H])([H])C([H])(n5nc(-c6c([H])c([H])c(Oc7c([H])c([H])c(F)c([H])c7F)c([H])c6[H])c(C(=O)N([H])[H])c5N([H])[H])C4([H])[H])C([H])([H])[H])C([H])([H])C3([H])[H])[N+]([H])([H])[H])c([H])c([H])c2C1([H])[H]

>  <smiles>  (48) 
[H]c1c([H])c([H])c2c(c1[H])C([H])([H])C([H])([H])C([H])([H])C2([H])N([H])C(=O)C1([H])N(C(=O)C([H])(N([H])C(=O)C([H])(N([H])C([H])([H])[H])C([H])([H])[H])C(C([H])([H])[H])(C([H])([H])[H])C([H])([H])[H])C([H])([H])c2c([H])c(OC([H])([H])C([H])(C(=O)N3C([H])([H])C([H])([H])C([H])(C([H])(N([H])C(=O)N4C([H])([H])C([H])([H])C([H])([H])C([H])(n5nc(-c6c([H])c([H])c(Oc7c([H])c([H])c(F)c([H])c7F)c([H])c6[H])c(C(=O)N([H])[H])c5N([H])[H])C4([H])[H])C([H])([H])[H])C([H])([H])C3([H])[H])[N+]([H])([H])[H])c([H])c([H])c2C1([H])[H]

$$$$
48:0:0
     RDKit          3D

 96104  0  0  1  0  0  0  0  0999 V2000
  -30.3740  -21.7720   22.2760 C   0  0  0  0  0  0  0  0  0  0  0  0
  -29.5620  -22.8150   22.5140 N   0  0  0  0  0  0  0  0  0  0  0  0
  -31.5770  -21.9030   22.0370 O   0  0  0  0  0  0  0  0  0  0  0  0
  -28.6050  -22.5880   22.7550 H   0  0  0  0  0  0  0  0  0  0  0  0
  -29.7060  -20.3800   22.2790 C   0  0  0  0  0  2  0  0  0  0  0  0
  -30.4990  -18.9110   18.7810 C   0  0  0  0  0  3  0  0  0  0  0  0
  -30.1880  -19.8290   19.7960 C   0  0  0  0  0  0  0  0  0  0  0  0
  -30.6790  -17.5470   19.0500 C   0  0  0  0  0  0  0  0  0  0  0  0
  -30.1230  -19.3970   21.1530 C   0  0  0  0  0  0  0  0  0  0  0  0
  -30.3240  -18.0070   21.4360 C   0  0  0  0  0  0  0  0  0  0  0  0
  -30.6010  -17.0730   20.3890 C   0  0  0  0  0  0  0  0  0  0  0  0
  -29.8900  -21.2520   19.3440 C   0  0  0  0  0  1  0  0  0  0  0  0
  -30.8670  -16.6410   17.8440 C   0  0  0  0  0  1  0  0  0  0  0  0
  -30.1840  -17.5050   22.8740 C   0  0  0  0  0  1  0  0  0  0  0  0
  -31.3580  -14.6900   20.1380 C   0  0  0  0  0  0  0  0  0  0  0  0
  -31.0400  -12.5530   18.9570 C   0  0  0  0  0  2  0  0  0  0  0  0
  -30.0560  -12.7900   17.7910 C   0  0  0  0  0  2  0  0  0  0  0  0
  -28.5890  -12.6870   18.2640 C   0  0  0  0  0  2  0  0  0  0  0  0
  -28.3070  -13.4850   19.5660 C   0  0  0  0  0  3  0  0  0  0  0  0
  -29.3930  -13.1920   20.6260 C   0  0  0  0  0  2  0  0  0  0  0  0
  -30.7060  -13.5010   20.0300 N   0  0  0  0  0  0  0  0  0  0  0  0
  -32.4770  -14.8940   19.6570 O   0  0  0  0  0  0  0  0  0  0  0  0
  -30.6210  -15.6710   20.6900 N   0  0  0  0  0  0  0  0  0  0  0  0
  -29.8410  -15.3450   21.2390 H   0  0  0  0  0  0  0  0  0  0  0  0
  -25.9380  -14.1120   20.3590 C   0  0  0  0  0  0  0  0  0  0  0  0
  -24.8710  -13.3470   20.7480 C   0  0  0  0  0  0  0  0  0  0  0  0
  -25.3130  -11.9910   20.6770 C   0  0  0  0  0  0  0  0  0  0  0  0
  -26.9640  -13.2220   20.0790 N   0  0  0  0  0  0  0  0  0  0  0  0
  -26.5930  -11.9410   20.3270 N   0  0  0  0  0  0  0  0  0  0  0  0
  -24.5780  -10.7340   20.8650 C   0  0  0  0  0  0  0  0  0  0  0  0
  -24.9520   -9.8020   21.8580 C   0  0  0  0  0  3  0  0  0  0  0  0
  -24.2180   -8.6090   22.0330 C   0  0  0  0  0  3  0  0  0  0  0  0
  -23.0960   -8.3400   21.2140 C   0  0  0  0  0  0  0  0  0  0  0  0
  -22.7420   -9.2600   20.2110 C   0  0  0  0  0  3  0  0  0  0  0  0
  -23.4770  -10.4440   20.0350 C   0  0  0  0  0  3  0  0  0  0  0  0
  -22.3410   -7.1950   21.2940 O   0  0  0  0  0  0  0  0  0  0  0  0
  -22.0920   -6.5790   22.4940 C   0  0  0  0  0  0  0  0  0  0  0  0
  -21.4410   -7.2470   23.5540 C   0  0  0  0  0  3  0  0  0  0  0  0
  -21.1440   -6.5550   24.7460 C   0  0  0  0  0  3  0  0  0  0  0  0
  -21.4880   -5.1970   24.8760 C   0  0  0  0  0  0  0  0  0  0  0  0
  -22.1310   -4.5290   23.8190 C   0  0  0  0  0  3  0  0  0  0  0  0
  -22.4300   -5.2180   22.6310 C   0  0  0  0  0  0  0  0  0  0  0  0
  -23.0320   -4.5640   21.6080 F   0  0  0  0  0  0  0  0  0  0  0  0
  -21.1950   -4.5300   26.0160 F   0  0  0  0  0  0  0  0  0  0  0  0
  -23.4900  -13.8360   21.0770 C   0  0  0  0  0  0  0  0  0  0  0  0
  -22.7880  -13.1420   21.9650 N   0  0  0  0  0  0  0  0  0  0  0  0
  -23.0420  -14.8680   20.5790 O   0  0  0  0  0  0  0  0  0  0  0  0
  -23.1630  -12.3080   22.3920 H   0  0  0  0  0  0  0  0  0  0  0  0
  -21.8610  -13.4490   22.2230 H   0  0  0  0  0  0  0  0  0  0  0  0
  -26.1120  -15.4840   20.2040 N   0  0  0  0  0  0  0  0  0  0  0  0
  -25.3540  -16.1410   20.3520 H   0  0  0  0  0  0  0  0  0  0  0  0
  -26.9580  -15.9270   19.8670 H   0  0  0  0  0  0  0  0  0  0  0  0
  -29.8700  -24.2440   22.4140 C   0  0  0  0  0  2  0  0  0  0  0  0
  -29.1650  -24.8810   21.1970 C   0  0  0  0  0  2  0  0  0  0  0  0
  -29.1940  -26.4210   21.1990 C   0  0  0  0  0  2  0  0  0  0  0  0
  -28.6160  -26.8830   19.9810 O   0  0  0  0  0  0  0  0  0  0  0  0
  -24.6520  -31.8930   23.2040 C   0  0  0  0  0  0  0  0  0  0  0  0
  -27.4380  -27.5850   20.0800 C   0  0  0  0  0  0  0  0  0  0  0  0
  -23.4960  -30.4950   21.5200 C   0  0  0  0  0  3  0  0  0  0  0  0
  -25.0040  -29.0140   20.0930 C   0  0  0  0  0  0  0  0  0  0  0  0
  -26.0130  -30.9140   21.3650 C   0  0  0  0  0  2  0  0  0  0  0  0
  -26.1380  -29.5550   20.7120 C   0  0  0  0  0  0  0  0  0  0  0  0
  -27.3590  -28.8460   20.7140 C   0  0  0  0  0  3  0  0  0  0  0  0
  -26.2950  -27.0520   19.4550 C   0  0  0  0  0  3  0  0  0  0  0  0
  -25.0740  -27.7560   19.4650 C   0  0  0  0  0  3  0  0  0  0  0  0
  -23.7390  -29.8420   20.1330 C   0  0  0  0  0  2  0  0  0  0  0  0
  -24.7370  -31.1140   22.0880 N   0  0  0  0  0  0  0  0  0  0  0  0
  -23.5590  -32.1290   23.7370 O   0  0  0  0  0  0  0  0  0  0  0  0
  -22.8560  -29.4420   22.4540 C   0  0  0  0  0  0  0  0  0  0  0  0
  -21.5420  -29.2230   22.2950 N   0  0  0  0  0  0  0  0  0  0  0  0
  -23.5420  -28.8240   23.2730 O   0  0  0  0  0  0  0  0  0  0  0  0
  -21.0480  -29.7710   21.6050 H   0  0  0  0  0  0  0  0  0  0  0  0
  -18.1940  -27.9320   22.7060 C   0  0  0  0  0  0  0  0  0  0  0  0
  -20.7370  -28.2510   23.0360 C   0  0  0  0  0  3  0  0  0  0  0  0
  -20.8910  -26.8330   22.4400 C   0  0  0  0  0  2  0  0  0  0  0  0
  -19.8210  -26.4960   21.3990 C   0  0  0  0  0  2  0  0  0  0  0  0
  -18.4220  -26.5990   22.0130 C   0  0  0  0  0  2  0  0  0  0  0  0
  -19.2820  -28.7150   23.1710 C   0  0  0  0  0  0  0  0  0  0  0  0
  -19.0200  -29.9650   23.7730 C   0  0  0  0  0  3  0  0  0  0  0  0
  -17.6990  -30.4310   23.9180 C   0  0  0  0  0  3  0  0  0  0  0  0
  -16.6250  -29.6450   23.4700 C   0  0  0  0  0  3  0  0  0  0  0  0
  -16.8710  -28.3980   22.8680 C   0  0  0  0  0  3  0  0  0  0  0  0
  -25.9180  -32.5360   23.8490 C   0  0  0  0  0  3  0  0  0  0  0  0
  -25.5850  -33.9300   24.1750 N   0  0  0  0  0  0  0  0  0  0  0  0
  -25.9320  -34.9870   23.4290 C   0  0  0  0  0  0  0  0  0  0  0  0
  -26.6370  -34.8940   22.4200 O   0  0  0  0  0  0  0  0  0  0  0  0
  -24.9720  -34.0780   24.9630 H   0  0  0  0  0  0  0  0  0  0  0  0
  -24.2080  -36.7640   23.0140 C   0  0  0  0  0  1  0  0  0  0  0  0
  -25.4180  -36.3680   23.8750 C   0  0  0  0  0  3  0  0  0  0  0  0
  -27.5060  -37.2650   24.8020 C   0  0  0  0  0  1  0  0  0  0  0  0
  -26.4470  -37.4290   23.8090 N   0  0  0  0  0  0  0  0  0  0  0  0
  -26.0290  -38.3460   23.9420 H   0  0  0  0  0  0  0  0  0  0  0  0
  -26.4200  -31.7700   25.1340 C   0  0  1  0  0  0  0  0  0  0  0  0
  -25.3060  -31.5120   26.1750 C   0  0  0  0  0  1  0  0  0  0  0  0
  -27.0350  -30.4040   24.7460 C   0  0  0  0  0  1  0  0  0  0  0  0
  -27.5410  -32.5790   25.8260 C   0  0  0  0  0  1  0  0  0  0  0  0
  1  5  1  0
  1  2  1  0
  2  4  1  0
  3  1  2  0
  6  8  2  0
  6  7  1  0
  7  9  2  0
  8 11  1  0
  9 10  1  0
  9  5  1  0
 10 14  1  0
 11 23  1  0
 11 10  2  0
 12  7  1  0
 13  8  1  0
 15 23  1  0
 16 21  1  0
 17 18  1  0
 17 16  1  0
 19 18  1  0
 19 28  1  0
 19 20  1  0
 21 15  1  0
 21 20  1  0
 22 15  2  0
 23 24  1  0
 25 26  2  0
 26 45  1  0
 27 26  1  0
 27 30  1  0
 28 29  1  0
 28 25  1  0
 29 27  2  0
 30 31  1  0
 31 32  2  0
 33 36  1  0
 33 32  1  0
 34 33  2  0
 35 34  1  0
 35 30  2  0
 36 37  1  0
 37 42  2  0
 37 38  1  0
 38 39  2  0
 39 40  1  0
 40 44  1  0
 41 40  2  0
 42 41  1  0
 43 42  1  0
 45 46  1  0
 46 49  1  0
 46 48  1  0
 47 45  2  0
 50 51  1  0
 50 25  1  0
 52 50  1  0
 53  2  1  0
 54 55  1  0
 54 53  1  0
 56 58  1  0
 56 55  1  0
 57 68  2  0
 58 63  1  0
 59 67  1  0
 59 69  1  0
 60 66  1  0
 60 62  1  0
 61 67  1  0
 62 63  2  0
 62 61  1  0
 64 65  1  0
 64 58  2  0
 65 60  2  0
 66 59  1  0
 67 57  1  0
 69 71  2  0
 70 69  1  0
 72 70  1  0
 73 82  2  0
 73 78  1  0
 74 70  1  0
 74 78  1  0
 75 74  1  0
 76 77  1  0
 76 75  1  0
 77 73  1  0
 78 79  2  0
 79 80  1  0
 81 80  2  0
 82 81  1  0
 83 57  1  0
 83 84  1  0
 83 93  1  0
 84 87  1  0
 85 89  1  0
 85 84  1  0
 86 85  2  0
 89 88  1  0
 91 89  1  0
 91 92  1  0
 91 90  1  0
 93 96  1  1
 93 94  1  0
 95 93  1  0
M  ISO  4  15 100  23 100  55 101  56 101
M  END
>  <TORSDO>  (49) 
F 21

>  <SCORE>  (49) 
-11.780

>  <name>  (49) 
48

>  <ligand_id>  (49) 
48

>  <original_smiles>  (49) 
[H]c1c([H])c([H])c2c(c1[H])C([H])([H])C([H])([H])C([H])([H])C2([H])N([H])C(=O)C1([H])N(C(=O)C([H])(N([H])C(=O)C([H])(N([H])C([H])([H])[H])C([H])([H])[H])C(C([H])([H])[H])(C([H])([H])[H])C([H])([H])[H])C([H])([H])c2c([H])c(OC([H])([H])C([H])([H])C([H])([H])N([H])C(=O)C([H])([H])c3c(C([H])([H])[H])c([H])c(C([H])([H])[H])c(N([H])C(=O)N4C([H])([H])C([H])([H])C([H])([H])C([H])(n5nc(-c6c([H])c([H])c(Oc7c([H])c([H])c(F)c([H])c7F)c([H])c6[H])c(C(=O)N([H])[H])c5N([H])[H])C4([H])[H])c3C([H])([H])[H])c([H])c([H])c2C1([H])[H]

>  <smiles>  (49) 
[H]c1c([H])c([H])c2c(c1[H])C([H])([H])C([H])([H])C([H])([H])C2([H])N([H])C(=O)C1([H])N(C(=O)C([H])(N([H])C(=O)C([H])(N([H])C([H])([H])[H])C([H])([H])[H])C(C([H])([H])[H])(C([H])([H])[H])C([H])([H])[H])C([H])([H])c2c([H])c(OC([H])([H])C([H])([H])C([H])([H])N([H])C(=O)C([H])([H])c3c(C([H])([H])[H])c([H])c(C([H])([H])[H])c(N([H])C(=O)N4C([H])([H])C([H])([H])C([H])([H])C([H])(n5nc(-c6c([H])c([H])c(Oc7c([H])c([H])c(F)c([H])c7F)c([H])c6[H])c(C(=O)N([H])[H])c5N([H])[H])C4([H])[H])c3C([H])([H])[H])c([H])c([H])c2C1([H])[H]

$$$$
49:0:0
     RDKit          3D

105114  0  0  1  0  0  0  0  0999 V2000
  -26.7380  -22.5960   18.9820 C   0  0  0  0  0  0  0  0  0  0  0  0
  -26.6700  -21.6090   19.8750 N   0  0  0  0  0  0  0  0  0  0  0  0
  -27.3480  -22.4840   17.9120 O   0  0  0  0  0  0  0  0  0  0  0  0
  -26.2370  -21.6840   20.7890 H   0  0  0  0  0  0  0  0  0  0  0  0
  -26.4240  -25.5910   17.6280 C   0  0  0  0  0  2  0  0  0  0  0  0
  -25.3900  -24.5930   18.1450 C   0  0  0  0  0  2  0  0  0  0  0  0
  -27.0810  -26.0630   18.9230 C   0  0  0  0  0  2  0  0  0  0  0  0
  -26.0770  -23.9260   19.3510 C   0  0  0  0  0  3  0  0  0  0  0  0
  -27.1410  -24.8620   19.7830 N   0  0  2  0  0  4  0  0  0  0  0  0
  -27.9720  -24.3550   19.4960 H   0  0  0  0  0  0  0  0  0  0  0  0
  -27.2550  -25.1080   21.2450 C   0  0  0  0  0  2  0  0  0  0  0  0
  -28.0890  -23.9970   21.9260 C   0  0  0  0  0  2  0  0  0  0  0  0
  -28.4520  -24.2640   23.3990 C   0  0  0  0  0  2  0  0  0  0  0  0
  -29.7290  -24.8910   23.5000 O   0  0  0  0  0  0  0  0  0  0  0  0
  -28.3470  -30.1320   28.1030 C   0  0  0  0  0  0  0  0  0  0  0  0
  -29.6780  -26.2420   23.7240 C   0  0  0  0  0  0  0  0  0  0  0  0
  -28.6550  -30.8140   25.7410 C   0  0  0  0  0  3  0  0  0  0  0  0
  -29.5780  -29.0190   24.1790 C   0  0  0  0  0  0  0  0  0  0  0  0
  -29.7870  -28.7160   26.6530 C   0  0  0  0  0  2  0  0  0  0  0  0
  -29.6850  -28.1330   25.2620 C   0  0  0  0  0  0  0  0  0  0  0  0
  -29.7150  -26.7430   25.0400 C   0  0  0  0  0  3  0  0  0  0  0  0
  -29.6100  -27.1380   22.6390 C   0  0  0  0  0  3  0  0  0  0  0  0
  -29.5340  -28.5260   22.8620 C   0  0  0  0  0  3  0  0  0  0  0  0
  -29.5470  -30.4940   24.5080 C   0  0  0  0  0  2  0  0  0  0  0  0
  -28.8910  -29.8700   26.8820 N   0  0  0  0  0  0  0  0  0  0  0  0
  -27.6870  -31.1620   28.3000 O   0  0  0  0  0  0  0  0  0  0  0  0
  -27.1800  -30.8620   25.2900 C   0  0  0  0  0  0  0  0  0  0  0  0
  -26.8040  -31.9510   24.5980 N   0  0  0  0  0  0  0  0  0  0  0  0
  -26.4070  -29.9310   25.5400 O   0  0  0  0  0  0  0  0  0  0  0  0
  -27.4940  -32.6740   24.4480 H   0  0  0  0  0  0  0  0  0  0  0  0
  -24.9860  -33.8860   22.1580 C   0  0  0  0  0  0  0  0  0  0  0  0
  -25.4700  -32.1980   24.0540 C   0  0  0  0  0  3  0  0  0  0  0  0
  -25.0610  -31.1040   23.0420 C   0  0  0  0  0  2  0  0  0  0  0  0
  -25.4440  -31.4540   21.6000 C   0  0  0  0  0  2  0  0  0  0  0  0
  -24.7610  -32.7580   21.1650 C   0  0  0  0  0  2  0  0  0  0  0  0
  -25.3420  -33.6220   23.5070 C   0  0  0  0  0  0  0  0  0  0  0  0
  -25.5890  -34.7070   24.3750 C   0  0  0  0  0  3  0  0  0  0  0  0
  -25.4810  -36.0330   23.9130 C   0  0  0  0  0  3  0  0  0  0  0  0
  -25.1110  -36.2860   22.5810 C   0  0  0  0  0  3  0  0  0  0  0  0
  -24.8540  -35.2150   21.7080 C   0  0  0  0  0  3  0  0  0  0  0  0
  -28.5440  -29.1630   29.3120 C   0  0  0  0  0  3  0  0  0  0  0  0
  -27.4730  -28.0050   29.3650 C   0  0  1  0  0  0  0  0  0  0  0  0
  -26.0130  -28.5120   29.3150 C   0  0  0  0  0  1  0  0  0  0  0  0
  -27.6760  -27.0150   28.1930 C   0  0  0  0  0  1  0  0  0  0  0  0
  -27.6520  -27.1840   30.6640 C   0  0  0  0  0  1  0  0  0  0  0  0
  -28.4940  -29.9720   30.5370 N   0  0  0  0  0  0  0  0  0  0  0  0
  -29.5600  -30.5480   31.1110 C   0  0  0  0  0  0  0  0  0  0  0  0
  -30.7120  -30.3880   30.6990 O   0  0  0  0  0  0  0  0  0  0  0  0
  -27.5760  -30.1790   30.9020 H   0  0  0  0  0  0  0  0  0  0  0  0
  -29.4580  -32.9250   31.9300 C   0  0  0  0  0  1  0  0  0  0  0  0
  -29.3090  -31.4500   32.3350 C   0  0  0  0  0  3  0  0  0  0  0  0
  -29.9080  -29.8860   34.1320 C   0  0  0  0  0  1  0  0  0  0  0  0
  -30.2070  -31.1520   33.4710 N   0  0  0  0  0  0  0  0  0  0  0  0
  -30.1660  -31.8900   34.1670 H   0  0  0  0  0  0  0  0  0  0  0  0
  -28.8180  -20.8080   19.2810 C   0  0  0  0  0  0  0  0  0  0  0  0
  -27.6210  -20.5760   19.8260 N   0  0  0  0  0  0  0  0  0  0  0  0
  -29.1590  -21.9250   18.8770 O   0  0  0  0  0  0  0  0  0  0  0  0
  -27.2440  -19.6680   20.0710 H   0  0  0  0  0  0  0  0  0  0  0  0
  -29.7850  -19.6280   19.1910 C   0  0  0  0  0  2  0  0  0  0  0  0
  -31.2050  -20.0420   18.7580 C   0  0  0  0  0  2  0  0  0  0  0  0
  -31.6200  -21.4690   19.1960 C   0  0  0  0  0  2  0  0  0  0  0  0
  -33.5500  -22.5140   20.2130 C   0  0  0  0  0  0  0  0  0  0  0  0
  -34.2690  -24.8300   20.6280 C   0  0  0  0  0  2  0  0  0  0  0  0
  -33.0550  -25.7810   20.6120 C   0  0  0  0  0  2  0  0  0  0  0  0
  -32.7260  -26.2360   19.1760 C   0  0  0  0  0  2  0  0  0  0  0  0
  -32.6560  -25.0520   18.1770 C   0  0  0  0  0  3  0  0  0  0  0  0
  -33.9020  -24.1550   18.3240 C   0  0  0  0  0  2  0  0  0  0  0  0
  -33.9790  -23.7080   19.7300 N   0  0  0  0  0  0  0  0  0  0  0  0
  -33.5020  -22.2390   21.4170 O   0  0  0  0  0  0  0  0  0  0  0  0
  -33.0750  -21.6690   19.2810 N   0  0  0  0  0  0  0  0  0  0  0  0
  -31.4900  -25.2380   15.8870 C   0  0  0  0  0  0  0  0  0  0  0  0
  -31.7760  -25.9880   14.7800 C   0  0  0  0  0  0  0  0  0  0  0  0
  -32.9660  -26.7190   15.0920 C   0  0  0  0  0  0  0  0  0  0  0  0
  -32.4890  -25.5220   16.8060 N   0  0  0  0  0  0  0  0  0  0  0  0
  -33.4050  -26.3830   16.2960 N   0  0  0  0  0  0  0  0  0  0  0  0
  -33.6760  -27.7630   14.3460 C   0  0  0  0  0  0  0  0  0  0  0  0
  -35.0390  -27.6270   13.9990 C   0  0  0  0  0  3  0  0  0  0  0  0
  -35.6940  -28.6380   13.2640 C   0  0  0  0  0  3  0  0  0  0  0  0
  -34.9870  -29.7970   12.8650 C   0  0  0  0  0  0  0  0  0  0  0  0
  -33.6380  -29.9380   13.2320 C   0  0  0  0  0  3  0  0  0  0  0  0
  -32.9880  -28.9330   13.9690 C   0  0  0  0  0  3  0  0  0  0  0  0
  -35.5510  -30.8430   12.1740 O   0  0  0  0  0  0  0  0  0  0  0  0
  -36.5760  -30.6450   11.2830 C   0  0  0  0  0  0  0  0  0  0  0  0
  -36.4340  -29.8120   10.1510 C   0  0  0  0  0  3  0  0  0  0  0  0
  -37.4900  -29.6930    9.2260 C   0  0  0  0  0  3  0  0  0  0  0  0
  -38.6860  -30.4090    9.4290 C   0  0  0  0  0  0  0  0  0  0  0  0
  -38.8280  -31.2440   10.5510 C   0  0  0  0  0  3  0  0  0  0  0  0
  -37.7760  -31.3620   11.4740 C   0  0  0  0  0  0  0  0  0  0  0  0
  -37.9090  -32.1820   12.5450 F   0  0  0  0  0  0  0  0  0  0  0  0
  -39.6980  -30.3020    8.5350 F   0  0  0  0  0  0  0  0  0  0  0  0
  -30.9480  -26.1010   13.5310 C   0  0  0  0  0  0  0  0  0  0  0  0
  -31.5850  -26.3050   12.3830 N   0  0  0  0  0  0  0  0  0  0  0  0
  -29.7270  -25.9600   13.5620 O   0  0  0  0  0  0  0  0  0  0  0  0
  -32.5890  -26.4030   12.3500 H   0  0  0  0  0  0  0  0  0  0  0  0
  -31.0620  -26.3570   11.5220 H   0  0  0  0  0  0  0  0  0  0  0  0
  -30.4620  -24.3510   16.1990 N   0  0  0  0  0  0  0  0  0  0  0  0
  -29.6960  -24.1600   15.5610 H   0  0  0  0  0  0  0  0  0  0  0  0
  -30.3620  -23.8910   17.0960 H   0  0  0  0  0  0  0  0  0  0  0  0
  -33.6170  -20.2900   17.2650 C   0  0  0  0  0  2  0  0  0  0  0  0
  -33.9650  -20.6990   18.6900 C   0  0  0  0  0  3  0  0  0  0  0  0
  -33.5550  -19.2680   18.3730 C   0  0  0  0  0  3  0  0  0  0  0  0
  -34.6710  -18.3070   18.3060 N   0  0  0  0  0  4  0  0  0  0  0  0
  -35.4290  -18.6570   17.7500 H   0  0  0  0  0  0  0  0  0  0  0  0
  -34.3650  -17.4390   17.9040 H   0  0  0  0  0  0  0  0  0  0  0  0
  -35.0220  -18.1060   19.2260 H   0  0  0  0  0  0  0  0  0  0  0  0
  1  2  1  0
  2  4  1  0
  3  1  2  0
  5  6  1  0
  5  7  1  0
  6  8  1  0
  7  9  1  0
  8  1  1  0
  8  9  1  0
  9 11  1  0
  9 10  1  6
 11 12  1  0
 12 13  1  0
 13 14  1  0
 14 16  1  0
 15 26  2  0
 16 21  1  0
 17 27  1  0
 17 25  1  0
 18 24  1  0
 18 20  1  0
 19 25  1  0
 20 19  1  0
 21 20  2  0
 22 23  1  0
 22 16  2  0
 23 18  2  0
 24 17  1  0
 25 15  1  0
 27 29  2  0
 28 27  1  0
 30 28  1  0
 31 36  1  0
 32 28  1  0
 33 32  1  0
 34 33  1  0
 35 34  1  0
 35 31  1  0
 36 32  1  0
 36 37  2  0
 38 37  1  0
 39 38  2  0
 40 31  2  0
 40 39  1  0
 41 15  1  0
 41 42  1  0
 41 46  1  0
 42 45  1  1
 43 42  1  0
 44 42  1  0
 46 49  1  0
 46 47  1  0
 47 51  1  0
 48 47  2  0
 51 50  1  0
 51 53  1  0
 53 52  1  0
 53 54  1  0
 55 56  1  0
 56  2  1  0
 56 58  1  0
 57 55  2  0
 59 55  1  0
 60 59  1  0
 60 61  1  0
 61 70  1  0
 62 69  2  0
 64 63  1  0
 65 64  1  0
 66 74  1  0
 66 67  1  0
 66 65  1  0
 67 68  1  0
 68 62  1  0
 68 63  1  0
 70 62  1  0
 71 96  1  0
 71 74  1  0
 72 73  1  0
 72 71  2  0
 73 75  2  0
 75 74  1  0
 76 73  1  0
 77 76  1  0
 78 77  2  0
 79 80  2  0
 79 78  1  0
 80 81  1  0
 81 76  2  0
 82 79  1  0
 83 88  1  0
 83 82  1  0
 84 83  2  0
 85 86  2  0
 85 84  1  0
 86 87  1  0
 87 88  2  0
 88 89  1  0
 90 86  1  0
 91 93  2  0
 91 72  1  0
 92 91  1  0
 94 92  1  0
 95 92  1  0
 96 98  1  0
 97 96  1  0
 99101  1  0
 99100  1  0
100 70  1  0
101102  1  0
101100  1  0
102105  1  0
103102  1  0
104102  1  0
M  ISO  4  13 101  14 101  62 100  70 100
M  END
>  <TORSDO>  (50) 
F 26

>  <SCORE>  (50) 
1.809

>  <name>  (50) 
49

>  <ligand_id>  (50) 
49

>  <original_smiles>  (50) 
[H]c1c([H])c([H])c2c(c1[H])C([H])([H])C([H])([H])C([H])([H])C2([H])N([H])C(=O)C1([H])N(C(=O)C([H])(N([H])C(=O)C([H])(N([H])C([H])([H])[H])C([H])([H])[H])C(C([H])([H])[H])(C([H])([H])[H])C([H])([H])[H])C([H])([H])c2c([H])c(OC([H])([H])C([H])([H])C([H])([H])[N+]3([H])C([H])([H])C([H])([H])C([H])([H])C3([H])C(=O)N([H])N([H])C(=O)C([H])([H])C([H])([H])C([H])([H])N(C(=O)N3C([H])([H])C([H])([H])C([H])([H])C([H])(n4nc(-c5c([H])c([H])c(Oc6c([H])c([H])c(F)c([H])c6F)c([H])c5[H])c(C(=O)N([H])[H])c4N([H])[H])C3([H])[H])C3([H])C([H])([H])C3([H])[N+]([H])([H])[H])c([H])c([H])c2C1([H])[H]

>  <smiles>  (50) 
[H]c1c([H])c([H])c2c(c1[H])C([H])([H])C([H])([H])C([H])([H])C2([H])N([H])C(=O)C1([H])N(C(=O)C([H])(N([H])C(=O)C([H])(N([H])C([H])([H])[H])C([H])([H])[H])C(C([H])([H])[H])(C([H])([H])[H])C([H])([H])[H])C([H])([H])c2c([H])c(OC([H])([H])C([H])([H])C([H])([H])[N+]3([H])C([H])([H])C([H])([H])C([H])([H])C3([H])C(=O)N([H])N([H])C(=O)C([H])([H])C([H])([H])C([H])([H])N(C(=O)N3C([H])([H])C([H])([H])C([H])([H])C([H])(n4nc(-c5c([H])c([H])c(Oc6c([H])c([H])c(F)c([H])c6F)c([H])c5[H])c(C(=O)N([H])[H])c4N([H])[H])C3([H])[H])C3([H])C([H])([H])C3([H])[N+]([H])([H])[H])c([H])c([H])c2C1([H])[H]

$$$$
50:0:0
     RDKit          3D

103112  0  0  1  0  0  0  0  0999 V2000
  -32.2000  -16.9610   22.0110 C   0  0  0  0  0  2  0  0  0  0  0  0
  -31.2000  -21.0160   19.5650 C   0  0  0  0  0  2  0  0  0  0  0  0
  -31.6490  -17.1620   19.4980 C   0  0  0  0  0  2  0  0  0  0  0  0
  -32.4780  -18.4760   22.0090 C   0  0  0  0  0  2  0  0  0  0  0  0
  -31.2850  -19.7500   18.6820 C   0  0  0  0  0  3  0  0  0  0  0  0
  -32.3300  -16.2790   20.6240 C   0  0  0  0  0  3  0  0  0  0  0  0
  -31.9830  -18.6960   19.6150 C   0  0  0  0  0  3  0  0  0  0  0  0
  -31.5410  -20.6070   21.0150 C   0  0  0  0  0  3  0  0  0  0  0  0
  -31.6360  -19.1310   20.9830 N   0  0  2  0  0  4  0  0  0  0  0  0
  -30.6790  -18.8580   21.1740 H   0  0  0  0  0  0  0  0  0  0  0  0
  -32.4210  -13.7270   20.8440 C   0  0  0  0  0  0  0  0  0  0  0  0
  -32.0900  -11.2670   20.8280 C   0  0  0  0  0  2  0  0  0  0  0  0
  -31.3330  -10.8670   19.5460 C   0  0  0  0  0  2  0  0  0  0  0  0
  -29.8110  -10.9460   19.7800 C   0  0  0  0  0  2  0  0  0  0  0  0
  -29.3750  -12.2980   20.4120 C   0  0  0  0  0  3  0  0  0  0  0  0
  -30.2660  -12.6560   21.6230 C   0  0  0  0  0  2  0  0  0  0  0  0
  -31.6690  -12.6360   21.1750 N   0  0  0  0  0  0  0  0  0  0  0  0
  -33.6100  -13.6370   20.5280 O   0  0  0  0  0  0  0  0  0  0  0  0
  -31.7620  -14.9100   20.7710 N   0  0  0  0  0  0  0  0  0  0  0  0
  -30.7770  -14.8500   20.9750 H   0  0  0  0  0  0  0  0  0  0  0  0
  -27.0870  -13.3740   20.9010 C   0  0  0  0  0  0  0  0  0  0  0  0
  -25.8560  -12.8340   21.1580 C   0  0  0  0  0  0  0  0  0  0  0  0
  -26.0380  -11.4160   21.1540 C   0  0  0  0  0  0  0  0  0  0  0  0
  -27.9530  -12.3000   20.7570 N   0  0  0  0  0  0  0  0  0  0  0  0
  -27.3190  -11.1170   20.9670 N   0  0  0  0  0  0  0  0  0  0  0  0
  -25.0610  -10.3270   21.2590 C   0  0  0  0  0  0  0  0  0  0  0  0
  -25.2180   -9.2840   22.1970 C   0  0  0  0  0  3  0  0  0  0  0  0
  -24.2530   -8.2560   22.2960 C   0  0  0  0  0  3  0  0  0  0  0  0
  -23.1160   -8.2680   21.4520 C   0  0  0  0  0  0  0  0  0  0  0  0
  -22.9780   -9.2970   20.5040 C   0  0  0  0  0  3  0  0  0  0  0  0
  -23.9400  -10.3140   20.4040 C   0  0  0  0  0  3  0  0  0  0  0  0
  -22.1460   -7.2950   21.4560 O   0  0  0  0  0  0  0  0  0  0  0  0
  -21.8820   -6.5440   22.5730 C   0  0  0  0  0  0  0  0  0  0  0  0
  -21.4500   -7.1340   23.7810 C   0  0  0  0  0  3  0  0  0  0  0  0
  -21.1170   -6.3220   24.8840 C   0  0  0  0  0  3  0  0  0  0  0  0
  -21.2090   -4.9220   24.7810 C   0  0  0  0  0  0  0  0  0  0  0  0
  -21.6340   -4.3310   23.5800 C   0  0  0  0  0  3  0  0  0  0  0  0
  -21.9680   -5.1400   22.4780 C   0  0  0  0  0  0  0  0  0  0  0  0
  -22.3550   -4.5650   21.3160 F   0  0  0  0  0  0  0  0  0  0  0  0
  -20.8840   -4.1410   25.8390 F   0  0  0  0  0  0  0  0  0  0  0  0
  -24.5620  -13.5840   21.3010 C   0  0  0  0  0  0  0  0  0  0  0  0
  -23.6520  -13.0900   22.1350 N   0  0  0  0  0  0  0  0  0  0  0  0
  -24.3700  -14.6470   20.7120 O   0  0  0  0  0  0  0  0  0  0  0  0
  -23.8120  -12.2310   22.6390 H   0  0  0  0  0  0  0  0  0  0  0  0
  -22.7810  -13.5820   22.2680 H   0  0  0  0  0  0  0  0  0  0  0  0
  -27.5360  -14.6840   20.7520 N   0  0  0  0  0  0  0  0  0  0  0  0
  -26.8990  -15.4750   20.7710 H   0  0  0  0  0  0  0  0  0  0  0  0
  -28.4720  -14.9440   20.4710 H   0  0  0  0  0  0  0  0  0  0  0  0
  -31.9800  -20.0760   17.3180 C   0  0  0  0  0  2  0  0  0  0  0  0
  -31.4420  -21.2800   16.6060 N   0  0  0  0  0  4  0  0  0  0  0  0
  -30.4480  -21.1720   16.4740 H   0  0  0  0  0  0  0  0  0  0  0  0
  -31.8500  -21.2490   15.6820 H   0  0  0  0  0  0  0  0  0  0  0  0
  -31.7390  -22.6550   17.1350 C   0  0  0  0  0  2  0  0  0  0  0  0
  -30.6540  -23.6650   16.6390 C   0  0  0  0  0  2  0  0  0  0  0  0
  -30.4570  -24.8740   17.4200 O   0  0  0  0  0  0  0  0  0  0  0  0
  -25.4010  -27.5980   21.6800 C   0  0  0  0  0  0  0  0  0  0  0  0
  -29.1800  -25.4290   17.4910 C   0  0  0  0  0  0  0  0  0  0  0  0
  -24.6750  -26.9930   19.3970 C   0  0  0  0  0  3  0  0  0  0  0  0
  -26.5450  -26.4860   17.7380 C   0  0  0  0  0  0  0  0  0  0  0  0
  -27.0960  -27.6940   19.8500 C   0  0  0  0  0  2  0  0  0  0  0  0
  -27.5160  -26.7960   18.6990 C   0  0  0  0  0  0  0  0  0  0  0  0
  -28.8270  -26.2680   18.5810 C   0  0  0  0  0  3  0  0  0  0  0  0
  -28.1860  -25.1770   16.5110 C   0  0  0  0  0  3  0  0  0  0  0  0
  -26.8780  -25.6750   16.6450 C   0  0  0  0  0  3  0  0  0  0  0  0
  -25.1630  -27.0720   17.9270 C   0  0  0  0  0  2  0  0  0  0  0  0
  -25.7350  -27.4140   20.3700 N   0  0  0  0  0  0  0  0  0  0  0  0
  -24.2340  -27.4580   22.0710 O   0  0  0  0  0  0  0  0  0  0  0  0
  -24.1290  -25.5700   19.6620 C   0  0  0  0  0  0  0  0  0  0  0  0
  -22.8290  -25.3660   19.3930 N   0  0  0  0  0  0  0  0  0  0  0  0
  -24.8730  -24.6760   20.0740 O   0  0  0  0  0  0  0  0  0  0  0  0
  -22.2850  -26.1540   19.0680 H   0  0  0  0  0  0  0  0  0  0  0  0
  -19.5550  -23.8460   19.2320 C   0  0  0  0  0  0  0  0  0  0  0  0
  -22.1090  -24.1000   19.5330 C   0  0  0  0  0  3  0  0  0  0  0  0
  -22.2420  -23.2360   18.2590 C   0  0  0  0  0  2  0  0  0  0  0  0
  -21.0960  -23.4470   17.2640 C   0  0  0  0  0  2  0  0  0  0  0  0
  -19.7510  -23.1110   17.9160 C   0  0  0  0  0  2  0  0  0  0  0  0
  -20.6620  -24.3250   19.9830 C   0  0  0  0  0  0  0  0  0  0  0  0
  -20.4220  -25.0310   21.1800 C   0  0  0  0  0  3  0  0  0  0  0  0
  -19.1090  -25.2590   21.6320 C   0  0  0  0  0  3  0  0  0  0  0  0
  -18.0170  -24.7690   20.8930 C   0  0  0  0  0  3  0  0  0  0  0  0
  -18.2420  -24.0620   19.7000 C   0  0  0  0  0  3  0  0  0  0  0  0
  -26.4650  -28.0160   22.7420 C   0  0  0  0  0  3  0  0  0  0  0  0
  -25.9050  -29.1340   23.5100 N   0  0  0  0  0  0  0  0  0  0  0  0
  -26.2920  -30.4110   23.3850 C   0  0  0  0  0  0  0  0  0  0  0  0
  -27.2210  -30.7620   22.6520 O   0  0  0  0  0  0  0  0  0  0  0  0
  -25.1100  -28.9280   24.0990 H   0  0  0  0  0  0  0  0  0  0  0  0
  -24.5780  -32.2440   23.2800 C   0  0  0  0  0  1  0  0  0  0  0  0
  -25.5280  -31.4670   24.2040 C   0  0  0  0  0  3  0  0  0  0  0  0
  -27.1710  -31.7860   26.0020 C   0  0  0  0  0  1  0  0  0  0  0  0
  -26.4150  -32.4110   24.9190 N   0  0  0  0  0  0  0  0  0  0  0  0
  -25.8810  -33.1830   25.3110 H   0  0  0  0  0  0  0  0  0  0  0  0
  -26.8820  -26.8340   23.6990 C   0  0  1  0  0  0  0  0  0  0  0  0
  -25.6820  -26.1070   24.3480 C   0  0  0  0  0  1  0  0  0  0  0  0
  -27.7170  -25.7820   22.9320 C   0  0  0  0  0  1  0  0  0  0  0  0
  -27.7810  -27.3740   24.8370 C   0  0  0  0  0  1  0  0  0  0  0  0
  -30.5000  -21.0430   22.0830 C   0  0  0  0  0  3  0  0  0  0  0  0
  -29.4640  -20.0650   22.1380 O   0  0  0  0  0  0  0  0  0  0  0  0
  -28.9150  -20.1400   21.3620 H   0  0  0  0  0  0  0  0  0  0  0  0
  -29.8850  -22.4510   21.9040 C   0  0  0  0  0  2  0  0  0  0  0  0
  -28.6150  -22.5530   22.6480 N   0  0  0  0  0  4  0  0  0  0  0  0
  -28.0100  -21.7960   22.3800 H   0  0  0  0  0  0  0  0  0  0  0  0
  -28.1530  -23.4240   22.4550 H   0  0  0  0  0  0  0  0  0  0  0  0
  -28.7750  -22.4840   23.6350 H   0  0  0  0  0  0  0  0  0  0  0  0
  2  8  1  0
  3  6  1  0
  4  1  1  0
  5 49  1  0
  5  2  1  0
  5  7  1  0
  6 19  1  0
  6  1  1  0
  7  3  1  0
  7  9  1  0
  8 96  1  0
  9  8  1  0
  9 10  1  1
  9  4  1  0
 11 17  1  0
 12 17  1  0
 13 14  1  0
 13 12  1  0
 15 14  1  0
 15 24  1  0
 15 16  1  0
 17 16  1  0
 18 11  2  0
 19 11  1  0
 19 20  1  0
 21 22  2  0
 22 41  1  0
 23 22  1  0
 23 26  1  0
 24 21  1  0
 24 25  1  0
 25 23  2  0
 26 27  1  0
 27 28  2  0
 29 32  1  0
 29 28  1  0
 30 29  2  0
 31 30  1  0
 31 26  2  0
 32 33  1  0
 33 34  1  0
 34 35  2  0
 36 35  1  0
 36 40  1  0
 37 36  2  0
 38 33  2  0
 38 37  1  0
 39 38  1  0
 41 42  1  0
 42 45  1  0
 42 44  1  0
 43 41  2  0
 46 47  1  0
 46 21  1  0
 48 46  1  0
 50 53  1  0
 50 49  1  0
 51 50  1  0
 52 50  1  0
 54 53  1  0
 54 55  1  0
 55 57  1  0
 56 67  2  0
 57 62  1  0
 58 68  1  0
 58 66  1  0
 59 65  1  0
 59 61  1  0
 60 66  1  0
 61 60  1  0
 62 61  2  0
 63 64  1  0
 63 57  2  0
 64 59  2  0
 65 58  1  0
 66 56  1  0
 68 70  2  0
 69 68  1  0
 71 69  1  0
 72 81  2  0
 72 77  1  0
 73 69  1  0
 73 77  1  0
 74 73  1  0
 75 76  1  0
 75 74  1  0
 76 72  1  0
 77 78  2  0
 78 79  1  0
 80 79  2  0
 81 80  1  0
 82 56  1  0
 82 83  1  0
 82 92  1  0
 83 86  1  0
 84 83  1  0
 84 88  1  0
 85 84  2  0
 88 87  1  0
 88 90  1  0
 90 91  1  0
 90 89  1  0
 92 93  1  1
 92 95  1  0
 94 92  1  0
 96 99  1  0
 96 97  1  0
 98 97  1  0
 99100  1  0
100103  1  0
101100  1  0
102100  1  0
M  ISO  4  11 100  19 100  54 101  55 101
M  END
>  <TORSDO>  (51) 
F 24

>  <SCORE>  (51) 
-6.911

>  <name>  (51) 
50

>  <ligand_id>  (51) 
50

>  <original_smiles>  (51) 
[H]OC([H])(C([H])([H])[N+]([H])([H])[H])C1([H])C([H])([H])C([H])(C([H])([H])[N+]([H])([H])C([H])([H])C([H])([H])Oc2c([H])c([H])c3c(c2[H])C([H])([H])N(C(=O)C([H])(N([H])C(=O)C([H])(N([H])C([H])([H])[H])C([H])([H])[H])C(C([H])([H])[H])(C([H])([H])[H])C([H])([H])[H])C([H])(C(=O)N([H])C2([H])c4c([H])c([H])c([H])c([H])c4C([H])([H])C([H])([H])C2([H])[H])C3([H])[H])C2([H])C([H])([H])C([H])(N([H])C(=O)N3C([H])([H])C([H])([H])C([H])([H])C([H])(n4nc(-c5c([H])c([H])c(Oc6c([H])c([H])c(F)c([H])c6F)c([H])c5[H])c(C(=O)N([H])[H])c4N([H])[H])C3([H])[H])C([H])([H])C([H])([H])[N+]12[H]

>  <smiles>  (51) 
[H]OC([H])(C([H])([H])[N+]([H])([H])[H])C1([H])C([H])([H])C([H])(C([H])([H])[N+]([H])([H])C([H])([H])C([H])([H])Oc2c([H])c([H])c3c(c2[H])C([H])([H])N(C(=O)C([H])(N([H])C(=O)C([H])(N([H])C([H])([H])[H])C([H])([H])[H])C(C([H])([H])[H])(C([H])([H])[H])C([H])([H])[H])C([H])(C(=O)N([H])C2([H])c4c([H])c([H])c([H])c([H])c4C([H])([H])C([H])([H])C2([H])[H])C3([H])[H])C2([H])C([H])([H])C([H])(N([H])C(=O)N3C([H])([H])C([H])([H])C([H])([H])C([H])(n4nc(-c5c([H])c([H])c(Oc6c([H])c([H])c(F)c([H])c6F)c([H])c5[H])c(C(=O)N([H])[H])c4N([H])[H])C3([H])[H])C([H])([H])C([H])([H])[N+]12[H]

$$$$
51:0:0
     RDKit          3D

 97106  0  0  1  0  0  0  0  0999 V2000
  -30.8620  -23.6080   21.2970 C   0  0  0  0  0  2  0  0  0  0  0  0
  -30.5820  -22.6760   18.9860 C   0  0  0  0  0  2  0  0  0  0  0  0
  -30.9560  -25.0250   20.6830 C   0  0  0  0  0  2  0  0  0  0  0  0
  -30.7380  -24.0950   18.4160 C   0  0  0  0  0  2  0  0  0  0  0  0
  -31.3350  -22.5090   20.3230 C   0  0  0  0  0  3  0  0  0  0  0  0
  -30.2550  -25.1180   19.3720 N   0  0  2  0  0  4  0  0  0  0  0  0
  -29.2800  -24.9180   19.5580 H   0  0  0  0  0  0  0  0  0  0  0  0
  -31.1570  -21.0690   20.8600 C   0  0  0  0  0  2  0  0  0  0  0  0
  -32.1250  -20.6200   21.9800 C   0  0  0  0  0  2  0  0  0  0  0  0
  -31.3900  -18.3580   22.7560 C   0  0  0  0  0  0  0  0  0  0  0  0
  -32.1800  -19.1580   22.0240 N   0  0  0  0  0  0  0  0  0  0  0  0
  -30.7630  -18.7610   23.7380 O   0  0  0  0  0  0  0  0  0  0  0  0
  -32.7260  -18.7100   21.3000 H   0  0  0  0  0  0  0  0  0  0  0  0
  -31.2080  -16.9150   22.2600 C   0  0  0  0  0  2  0  0  0  0  0  0
  -30.4760  -14.5960   20.2620 C   0  0  0  0  0  0  0  0  0  0  0  0
  -30.1910  -12.4690   19.0530 C   0  0  0  0  0  2  0  0  0  0  0  0
  -29.1990  -12.7220   17.8990 C   0  0  0  0  0  2  0  0  0  0  0  0
  -27.7450  -12.5210   18.3790 C   0  0  0  0  0  2  0  0  0  0  0  0
  -27.4400  -13.2960   19.6880 C   0  0  0  0  0  3  0  0  0  0  0  0
  -28.5430  -13.0620   20.7450 C   0  0  0  0  0  2  0  0  0  0  0  0
  -29.8440  -13.3990   20.1360 N   0  0  0  0  0  0  0  0  0  0  0  0
  -31.6160  -14.8130   19.8430 O   0  0  0  0  0  0  0  0  0  0  0  0
  -29.7840  -17.6180   20.1430 C   0  0  0  0  0  2  0  0  0  0  0  0
  -29.0240  -16.4310   19.5980 C   0  0  0  0  0  2  0  0  0  0  0  0
  -29.9080  -16.8350   21.4400 C   0  0  0  0  0  3  0  0  0  0  0  0
  -29.6590  -15.6030   20.6460 N   0  0  0  0  0  0  0  0  0  0  0  0
  -25.0610  -13.8590   20.5010 C   0  0  0  0  0  0  0  0  0  0  0  0
  -24.0190  -13.0570   20.8870 C   0  0  0  0  0  0  0  0  0  0  0  0
  -24.5040  -11.7160   20.8070 C   0  0  0  0  0  0  0  0  0  0  0  0
  -26.1100  -12.9960   20.2100 N   0  0  0  0  0  0  0  0  0  0  0  0
  -25.7800  -11.7040   20.4480 N   0  0  0  0  0  0  0  0  0  0  0  0
  -23.8130  -10.4350   20.9910 C   0  0  0  0  0  0  0  0  0  0  0  0
  -24.2900   -9.4680   21.9020 C   0  0  0  0  0  3  0  0  0  0  0  0
  -23.6000   -8.2490   22.0730 C   0  0  0  0  0  3  0  0  0  0  0  0
  -22.4210   -7.9920   21.3330 C   0  0  0  0  0  0  0  0  0  0  0  0
  -21.9660   -8.9480   20.4100 C   0  0  0  0  0  3  0  0  0  0  0  0
  -22.6550  -10.1590   20.2360 C   0  0  0  0  0  3  0  0  0  0  0  0
  -21.6990   -6.8250   21.4150 O   0  0  0  0  0  0  0  0  0  0  0  0
  -21.6860   -6.0670   22.5580 C   0  0  0  0  0  0  0  0  0  0  0  0
  -21.2600   -6.5930   23.7980 C   0  0  0  0  0  3  0  0  0  0  0  0
  -21.1960   -5.7600   24.9310 C   0  0  0  0  0  3  0  0  0  0  0  0
  -21.5470   -4.4000   24.8270 C   0  0  0  0  0  0  0  0  0  0  0  0
  -21.9660   -3.8740   23.5910 C   0  0  0  0  0  3  0  0  0  0  0  0
  -22.0300   -4.7050   22.4600 C   0  0  0  0  0  0  0  0  0  0  0  0
  -22.4130   -4.1870   21.2680 F   0  0  0  0  0  0  0  0  0  0  0  0
  -21.4800   -3.5970   25.9140 F   0  0  0  0  0  0  0  0  0  0  0  0
  -22.6230  -13.5020   21.2180 C   0  0  0  0  0  0  0  0  0  0  0  0
  -21.9380  -12.7640   22.0850 N   0  0  0  0  0  0  0  0  0  0  0  0
  -22.1440  -14.5300   20.7420 O   0  0  0  0  0  0  0  0  0  0  0  0
  -22.3370  -11.9290   22.4860 H   0  0  0  0  0  0  0  0  0  0  0  0
  -21.0000  -13.0320   22.3450 H   0  0  0  0  0  0  0  0  0  0  0  0
  -25.1900  -15.2360   20.3540 N   0  0  0  0  0  0  0  0  0  0  0  0
  -24.4260  -15.8750   20.5510 H   0  0  0  0  0  0  0  0  0  0  0  0
  -26.0410  -15.7070   20.0730 H   0  0  0  0  0  0  0  0  0  0  0  0
  -30.2510  -26.4800   18.7670 C   0  0  0  0  0  2  0  0  0  0  0  0
  -29.4920  -27.5040   19.6190 C   0  0  0  0  0  2  0  0  0  0  0  0
  -28.3250  -26.8260   20.0620 O   0  0  0  0  0  0  0  0  0  0  0  0
  -24.5380  -31.9690   23.2620 C   0  0  0  0  0  0  0  0  0  0  0  0
  -27.1890  -27.5800   20.1400 C   0  0  0  0  0  0  0  0  0  0  0  0
  -23.3360  -30.5680   21.6140 C   0  0  0  0  0  3  0  0  0  0  0  0
  -24.7880  -29.0400   20.1900 C   0  0  0  0  0  0  0  0  0  0  0  0
  -25.8600  -30.9340   21.4290 C   0  0  0  0  0  2  0  0  0  0  0  0
  -25.9450  -29.5740   20.7730 C   0  0  0  0  0  0  0  0  0  0  0  0
  -27.1530  -28.8510   20.7480 C   0  0  0  0  0  3  0  0  0  0  0  0
  -26.0160  -27.0360   19.5840 C   0  0  0  0  0  3  0  0  0  0  0  0
  -24.8130  -27.7650   19.6020 C   0  0  0  0  0  3  0  0  0  0  0  0
  -23.5430  -29.8930   20.2350 C   0  0  0  0  0  2  0  0  0  0  0  0
  -24.5930  -31.1720   22.1570 N   0  0  0  0  0  0  0  0  0  0  0  0
  -23.4560  -32.2400   23.8020 O   0  0  0  0  0  0  0  0  0  0  0  0
  -22.6910  -29.5400   22.5710 C   0  0  0  0  0  0  0  0  0  0  0  0
  -21.3680  -29.3530   22.4380 N   0  0  0  0  0  0  0  0  0  0  0  0
  -23.3770  -28.9150   23.3850 O   0  0  0  0  0  0  0  0  0  0  0  0
  -20.8810  -29.9070   21.7470 H   0  0  0  0  0  0  0  0  0  0  0  0
  -17.9900  -28.1680   22.9230 C   0  0  0  0  0  0  0  0  0  0  0  0
  -20.5480  -28.4120   23.1990 C   0  0  0  0  0  3  0  0  0  0  0  0
  -20.6460  -26.9860   22.6100 C   0  0  0  0  0  2  0  0  0  0  0  0
  -19.5430  -26.6750   21.5940 C   0  0  0  0  0  2  0  0  0  0  0  0
  -18.1620  -26.8220   22.2390 C   0  0  0  0  0  2  0  0  0  0  0  0
  -19.1110  -28.9220   23.3590 C   0  0  0  0  0  0  0  0  0  0  0  0
  -18.8980  -30.1850   23.9550 C   0  0  0  0  0  3  0  0  0  0  0  0
  -17.5940  -30.6900   24.1210 C   0  0  0  0  0  3  0  0  0  0  0  0
  -16.4870  -29.9300   23.7060 C   0  0  0  0  0  3  0  0  0  0  0  0
  -16.6860  -28.6710   23.1110 C   0  0  0  0  0  3  0  0  0  0  0  0
  -25.8260  -32.5950   23.8820 C   0  0  0  0  0  3  0  0  0  0  0  0
  -25.5260  -33.9980   24.1940 N   0  0  0  0  0  0  0  0  0  0  0  0
  -25.8850  -35.0400   23.4330 C   0  0  0  0  0  0  0  0  0  0  0  0
  -26.5730  -34.9210   22.4160 O   0  0  0  0  0  0  0  0  0  0  0  0
  -24.9080  -34.1620   24.9760 H   0  0  0  0  0  0  0  0  0  0  0  0
  -24.1840  -36.8450   23.0200 C   0  0  0  0  0  1  0  0  0  0  0  0
  -25.3980  -36.4340   23.8670 C   0  0  0  0  0  3  0  0  0  0  0  0
  -27.5180  -37.3010   24.7520 C   0  0  0  0  0  1  0  0  0  0  0  0
  -26.4430  -37.4760   23.7790 N   0  0  0  0  0  0  0  0  0  0  0  0
  -26.0430  -38.4000   23.9100 H   0  0  0  0  0  0  0  0  0  0  0  0
  -26.3320  -31.8320   25.1690 C   0  0  1  0  0  0  0  0  0  0  0  0
  -25.2300  -31.6070   26.2300 C   0  0  0  0  0  1  0  0  0  0  0  0
  -26.9150  -30.4490   24.7920 C   0  0  0  0  0  1  0  0  0  0  0  0
  -27.4750  -32.6330   25.8360 C   0  0  0  0  0  1  0  0  0  0  0  0
  2  5  1  0
  3  1  1  0
  4  2  1  0
  4  6  1  0
  5  8  1  0
  5  1  1  0
  6  7  1  1
  6  3  1  0
  8  9  1  0
  9 11  1  0
 10 12  2  0
 11 10  1  0
 13 11  1  0
 14 10  1  0
 15 26  1  0
 16 21  1  0
 17 18  1  0
 17 16  1  0
 19 18  1  0
 19 30  1  0
 19 20  1  0
 21 15  1  0
 21 20  1  0
 22 15  2  0
 23 25  1  0
 24 23  1  0
 24 26  1  0
 25 14  1  0
 26 25  1  0
 27 28  2  0
 28 47  1  0
 29 28  1  0
 29 32  1  0
 30 31  1  0
 30 27  1  0
 31 29  2  0
 32 33  1  0
 33 34  2  0
 35 38  1  0
 35 34  1  0
 36 35  2  0
 37 36  1  0
 37 32  2  0
 38 39  1  0
 39 40  1  0
 40 41  2  0
 42 41  1  0
 42 46  1  0
 43 42  2  0
 44 39  2  0
 44 43  1  0
 45 44  1  0
 47 48  1  0
 48 51  1  0
 48 50  1  0
 49 47  2  0
 52 27  1  0
 52 53  1  0
 54 52  1  0
 55  6  1  0
 55 56  1  0
 56 57  1  0
 57 59  1  0
 58 69  2  0
 59 64  1  0
 60 68  1  0
 60 70  1  0
 61 67  1  0
 61 63  1  0
 62 68  1  0
 63 62  1  0
 64 63  2  0
 65 66  1  0
 65 59  2  0
 66 61  2  0
 67 60  1  0
 68 58  1  0
 70 72  2  0
 71 70  1  0
 73 71  1  0
 74 83  2  0
 74 79  1  0
 75 71  1  0
 75 79  1  0
 76 75  1  0
 77 78  1  0
 77 76  1  0
 78 74  1  0
 79 80  2  0
 80 81  1  0
 82 81  2  0
 83 82  1  0
 84 58  1  0
 84 85  1  0
 84 94  1  0
 85 88  1  0
 86 90  1  0
 86 85  1  0
 87 86  2  0
 90 89  1  0
 92 90  1  0
 92 93  1  0
 92 91  1  0
 94 97  1  1
 94 95  1  0
 96 94  1  0
M  ISO  4  15 100  26 100  56 101  57 101
M  END
>  <TORSDO>  (52) 
F 22

>  <SCORE>  (52) 
-12.717

>  <name>  (52) 
51

>  <ligand_id>  (52) 
51

>  <original_smiles>  (52) 
[H]c1c([H])c([H])c2c(c1[H])C([H])([H])C([H])([H])C([H])([H])C2([H])N([H])C(=O)C1([H])N(C(=O)C([H])(N([H])C(=O)C([H])(N([H])C([H])([H])[H])C([H])([H])[H])C(C([H])([H])[H])(C([H])([H])[H])C([H])([H])[H])C([H])([H])c2c([H])c(OC([H])([H])C([H])([H])[N+]3([H])C([H])([H])C([H])([H])C([H])(C([H])([H])C([H])([H])N([H])C(=O)C([H])([H])C4([H])N(C(=O)N5C([H])([H])C([H])([H])C([H])([H])C([H])(n6nc(-c7c([H])c([H])c(Oc8c([H])c([H])c(F)c([H])c8F)c([H])c7[H])c(C(=O)N([H])[H])c6N([H])[H])C5([H])[H])C([H])([H])C4([H])[H])C([H])([H])C3([H])[H])c([H])c([H])c2C1([H])[H]

>  <smiles>  (52) 
[H]c1c([H])c([H])c2c(c1[H])C([H])([H])C([H])([H])C([H])([H])C2([H])N([H])C(=O)C1([H])N(C(=O)C([H])(N([H])C(=O)C([H])(N([H])C([H])([H])[H])C([H])([H])[H])C(C([H])([H])[H])(C([H])([H])[H])C([H])([H])[H])C([H])([H])c2c([H])c(OC([H])([H])C([H])([H])[N+]3([H])C([H])([H])C([H])([H])C([H])(C([H])([H])C([H])([H])N([H])C(=O)C([H])([H])C4([H])N(C(=O)N5C([H])([H])C([H])([H])C([H])([H])C([H])(n6nc(-c7c([H])c([H])c(Oc8c([H])c([H])c(F)c([H])c8F)c([H])c7[H])c(C(=O)N([H])[H])c6N([H])[H])C5([H])[H])C([H])([H])C4([H])[H])C([H])([H])C3([H])[H])c([H])c([H])c2C1([H])[H]

$$$$
52:0:0
     RDKit          3D

101110  0  0  1  0  0  0  0  0999 V2000
  -30.2270  -21.8560   20.6100 C   0  0  0  0  0  3  0  0  0  0  0  0
  -28.1670  -18.4300   17.8720 C   0  0  0  0  0  0  0  0  0  0  0  0
  -30.0540  -20.3910   21.1520 C   0  0  0  0  0  0  0  0  0  0  0  0
  -28.9000  -19.7820   17.9930 C   0  0  0  0  0  2  0  0  0  0  0  0
  -27.7010  -17.6690   20.2870 C   0  0  0  0  0  2  0  0  0  0  0  0
  -27.4150  -18.6820   19.2060 C   0  0  0  0  0  3  0  0  0  0  0  0
  -29.0950  -18.0360   20.8500 C   0  0  0  0  0  3  0  0  0  0  0  0
  -28.3290  -19.8800   19.4270 C   0  0  0  0  0  3  0  0  0  0  0  0
  -29.2960  -19.4820   20.4720 N   0  0  0  0  0  0  0  0  0  0  0  0
  -28.2440  -17.4720   17.1000 O   0  0  0  0  0  0  0  0  0  0  0  0
  -30.6440  -20.0780   22.1910 O   0  0  0  0  0  0  0  0  0  0  0  0
  -30.7320  -14.6820   19.9640 C   0  0  0  0  0  0  0  0  0  0  0  0
  -30.4120  -12.4570   18.9340 C   0  0  0  0  0  2  0  0  0  0  0  0
  -29.3990  -12.6130   17.7810 C   0  0  0  0  0  2  0  0  0  0  0  0
  -27.9640  -12.4290   18.3040 C   0  0  0  0  0  2  0  0  0  0  0  0
  -27.6750  -13.3080   19.5490 C   0  0  0  0  0  3  0  0  0  0  0  0
  -28.8010  -13.1780   20.6040 C   0  0  0  0  0  2  0  0  0  0  0  0
  -30.0870  -13.4800   19.9460 N   0  0  0  0  0  0  0  0  0  0  0  0
  -31.8340  -14.8230   19.4210 O   0  0  0  0  0  0  0  0  0  0  0  0
  -30.2080  -17.0630   20.3180 C   0  0  0  0  0  0  0  0  0  0  0  0
  -30.0120  -15.7190   20.4690 N   0  0  0  0  0  0  0  0  0  0  0  0
  -31.1790  -17.5560   19.7410 O   0  0  0  0  0  0  0  0  0  0  0  0
  -29.1700  -15.4480   20.9460 H   0  0  0  0  0  0  0  0  0  0  0  0
  -25.3450  -13.8990   20.4630 C   0  0  0  0  0  0  0  0  0  0  0  0
  -24.3060  -13.1250   20.8930 C   0  0  0  0  0  0  0  0  0  0  0  0
  -24.7470  -11.7750   20.7710 C   0  0  0  0  0  0  0  0  0  0  0  0
  -26.3620  -13.0240   20.1160 N   0  0  0  0  0  0  0  0  0  0  0  0
  -26.0080  -11.7370   20.3610 N   0  0  0  0  0  0  0  0  0  0  0  0
  -24.0220  -10.5140   20.9640 C   0  0  0  0  0  0  0  0  0  0  0  0
  -24.4560   -9.5430   21.8930 C   0  0  0  0  0  3  0  0  0  0  0  0
  -23.7250   -8.3490   22.0730 C   0  0  0  0  0  3  0  0  0  0  0  0
  -22.5480   -8.1160   21.3220 C   0  0  0  0  0  0  0  0  0  0  0  0
  -22.1370   -9.0730   20.3790 C   0  0  0  0  0  3  0  0  0  0  0  0
  -22.8680  -10.2590   20.1950 C   0  0  0  0  0  3  0  0  0  0  0  0
  -21.7930   -6.9730   21.4100 O   0  0  0  0  0  0  0  0  0  0  0  0
  -21.6710   -6.2820   22.5870 C   0  0  0  0  0  0  0  0  0  0  0  0
  -21.1180   -6.8710   23.7450 C   0  0  0  0  0  3  0  0  0  0  0  0
  -20.9490   -6.1040   24.9130 C   0  0  0  0  0  3  0  0  0  0  0  0
  -21.3200   -4.7470   24.9250 C   0  0  0  0  0  0  0  0  0  0  0  0
  -21.8690   -4.1560   23.7720 C   0  0  0  0  0  3  0  0  0  0  0  0
  -22.0390   -4.9210   22.6050 C   0  0  0  0  0  0  0  0  0  0  0  0
  -22.5460   -4.3420   21.4910 F   0  0  0  0  0  0  0  0  0  0  0  0
  -21.1490   -4.0050   26.0450 F   0  0  0  0  0  0  0  0  0  0  0  0
  -22.9430  -13.6100   21.2940 C   0  0  0  0  0  0  0  0  0  0  0  0
  -22.2750  -12.8820   22.1800 N   0  0  0  0  0  0  0  0  0  0  0  0
  -22.4870  -14.6650   20.8570 O   0  0  0  0  0  0  0  0  0  0  0  0
  -22.6650  -12.0240   22.5490 H   0  0  0  0  0  0  0  0  0  0  0  0
  -21.3630  -13.1800   22.4980 H   0  0  0  0  0  0  0  0  0  0  0  0
  -25.4830  -15.2700   20.3010 N   0  0  0  0  0  0  0  0  0  0  0  0
  -24.6480  -15.8430   20.3810 H   0  0  0  0  0  0  0  0  0  0  0  0
  -26.1420  -15.6370   19.6320 H   0  0  0  0  0  0  0  0  0  0  0  0
  -29.1690  -24.0300   21.5400 C   0  0  0  0  0  0  0  0  0  0  0  0
  -29.8510  -22.8670   21.6160 N   0  0  0  0  0  0  0  0  0  0  0  0
  -29.1360  -24.7510   22.5380 O   0  0  0  0  0  0  0  0  0  0  0  0
  -30.2760  -22.7030   22.5170 H   0  0  0  0  0  0  0  0  0  0  0  0
  -28.3760  -24.4800   20.2960 C   0  0  0  0  0  2  0  0  0  0  0  0
  -28.8990  -25.7650   19.6000 C   0  0  0  0  0  2  0  0  0  0  0  0
  -28.6400  -26.9980   20.2750 O   0  0  0  0  0  0  0  0  0  0  0  0
  -24.5670  -31.9730   23.2360 C   0  0  0  0  0  0  0  0  0  0  0  0
  -27.4140  -27.6320   20.1990 C   0  0  0  0  0  0  0  0  0  0  0  0
  -23.4410  -30.5610   21.5410 C   0  0  0  0  0  3  0  0  0  0  0  0
  -24.9730  -29.0680   20.1440 C   0  0  0  0  0  0  0  0  0  0  0  0
  -25.9600  -30.9770   21.4250 C   0  0  0  0  0  2  0  0  0  0  0  0
  -26.0940  -29.6160   20.7790 C   0  0  0  0  0  0  0  0  0  0  0  0
  -27.3100  -28.9020   20.8060 C   0  0  0  0  0  3  0  0  0  0  0  0
  -26.2770  -27.0900   19.5600 C   0  0  0  0  0  3  0  0  0  0  0  0
  -25.0620  -27.8060   19.5280 C   0  0  0  0  0  3  0  0  0  0  0  0
  -23.7070  -29.8940   20.1620 C   0  0  0  0  0  2  0  0  0  0  0  0
  -24.6710  -31.1890   22.1240 N   0  0  0  0  0  0  0  0  0  0  0  0
  -23.4660  -32.2170   23.7510 O   0  0  0  0  0  0  0  0  0  0  0  0
  -22.7810  -29.5190   22.4750 C   0  0  0  0  0  0  0  0  0  0  0  0
  -21.4690  -29.3000   22.3000 N   0  0  0  0  0  0  0  0  0  0  0  0
  -23.4540  -28.9110   23.3130 O   0  0  0  0  0  0  0  0  0  0  0  0
  -20.9870  -29.8410   21.5940 H   0  0  0  0  0  0  0  0  0  0  0  0
  -18.1070  -28.0390   22.6950 C   0  0  0  0  0  0  0  0  0  0  0  0
  -20.6530  -28.3320   23.0330 C   0  0  0  0  0  3  0  0  0  0  0  0
  -20.7960  -26.9160   22.4290 C   0  0  0  0  0  2  0  0  0  0  0  0
  -19.7240  -26.5950   21.3860 C   0  0  0  0  0  2  0  0  0  0  0  0
  -18.3250  -26.7050   21.9980 C   0  0  0  0  0  2  0  0  0  0  0  0
  -19.2050  -28.8090   23.1660 C   0  0  0  0  0  0  0  0  0  0  0  0
  -18.9540  -30.0590   23.7740 C   0  0  0  0  0  3  0  0  0  0  0  0
  -17.6380  -30.5410   23.9140 C   0  0  0  0  0  3  0  0  0  0  0  0
  -16.5570  -29.7670   23.4610 C   0  0  0  0  0  3  0  0  0  0  0  0
  -16.7920  -28.5170   22.8620 C   0  0  0  0  0  3  0  0  0  0  0  0
  -25.8240  -32.6180   23.9000 C   0  0  0  0  0  3  0  0  0  0  0  0
  -25.4960  -34.0140   24.2150 N   0  0  0  0  0  0  0  0  0  0  0  0
  -25.8300  -35.0610   23.4500 C   0  0  0  0  0  0  0  0  0  0  0  0
  -26.5240  -34.9550   22.4360 O   0  0  0  0  0  0  0  0  0  0  0  0
  -24.8930  -34.1730   25.0100 H   0  0  0  0  0  0  0  0  0  0  0  0
  -24.0850  -36.8210   23.0310 C   0  0  0  0  0  1  0  0  0  0  0  0
  -25.3110  -36.4480   23.8780 C   0  0  0  0  0  3  0  0  0  0  0  0
  -27.4060  -37.3780   24.7600 C   0  0  0  0  0  1  0  0  0  0  0  0
  -26.3320  -37.5130   23.7790 N   0  0  0  0  0  0  0  0  0  0  0  0
  -25.9070  -38.4270   23.9030 H   0  0  0  0  0  0  0  0  0  0  0  0
  -26.3110  -31.8540   25.1920 C   0  0  1  0  0  0  0  0  0  0  0  0
  -25.1800  -31.5910   26.2120 C   0  0  0  0  0  1  0  0  0  0  0  0
  -26.9460  -30.4910   24.8260 C   0  0  0  0  0  1  0  0  0  0  0  0
  -27.4160  -32.6750   25.9020 C   0  0  0  0  0  1  0  0  0  0  0  0
  -31.6910  -22.9110   18.7610 C   0  0  0  0  0  1  0  0  0  0  0  0
  -32.5980  -22.8170   21.1220 C   0  0  0  0  0  1  0  0  0  0  0  0
  -31.6750  -22.1310   20.0880 C   0  0  0  0  0  3  0  0  0  0  0  0
  1101  1  0
  1  3  1  0
  1 53  1  0
  2  4  1  0
  2  6  1  0
  3 11  2  0
  5  7  1  0
  6  8  1  0
  6  5  1  0
  7 20  1  0
  8  4  1  0
  8  9  1  0
  9  7  1  0
  9  3  1  0
 10  2  2  0
 12 21  1  0
 13 18  1  0
 14 15  1  0
 14 13  1  0
 16 15  1  0
 16 27  1  0
 16 17  1  0
 18 12  1  0
 18 17  1  0
 19 12  2  0
 20 21  1  0
 21 23  1  0
 22 20  2  0
 24 25  2  0
 25 44  1  0
 26 25  1  0
 26 29  1  0
 27 28  1  0
 27 24  1  0
 28 26  2  0
 29 30  1  0
 30 31  2  0
 32 35  1  0
 32 31  1  0
 33 32  2  0
 34 33  1  0
 34 29  2  0
 35 36  1  0
 36 41  2  0
 36 37  1  0
 37 38  2  0
 38 39  1  0
 39 43  1  0
 40 39  2  0
 41 40  1  0
 42 41  1  0
 44 45  1  0
 45 48  1  0
 45 47  1  0
 46 44  2  0
 49 50  1  0
 49 24  1  0
 51 49  1  0
 52 53  1  0
 52 54  2  0
 53 55  1  0
 56 52  1  0
 57 58  1  0
 57 56  1  0
 59 70  2  0
 60 58  1  0
 60 65  1  0
 61 69  1  0
 61 71  1  0
 62 68  1  0
 62 64  1  0
 63 69  1  0
 64 65  2  0
 64 63  1  0
 66 60  2  0
 67 66  1  0
 67 62  2  0
 68 61  1  0
 69 59  1  0
 71 73  2  0
 72 71  1  0
 74 72  1  0
 75 84  2  0
 75 80  1  0
 76 72  1  0
 76 80  1  0
 77 76  1  0
 78 79  1  0
 78 77  1  0
 79 75  1  0
 80 81  2  0
 81 82  1  0
 83 82  2  0
 84 83  1  0
 85 59  1  0
 85 86  1  0
 85 95  1  0
 86 89  1  0
 87 91  1  0
 87 86  1  0
 88 87  2  0
 91 90  1  0
 93 91  1  0
 93 94  1  0
 93 92  1  0
 95 98  1  1
 95 96  1  0
 97 95  1  0
 99101  1  0
101100  1  0
M  ISO  4  12 100  21 100  57 101  58 101
M  END
>  <TORSDO>  (53) 
F 21

>  <SCORE>  (53) 
-12.741

>  <name>  (53) 
52

>  <ligand_id>  (53) 
52

>  <original_smiles>  (53) 
[H]c1c([H])c([H])c2c(c1[H])C([H])([H])C([H])([H])C([H])([H])C2([H])N([H])C(=O)C1([H])N(C(=O)C([H])(N([H])C(=O)C([H])(N([H])C([H])([H])[H])C([H])([H])[H])C(C([H])([H])[H])(C([H])([H])[H])C([H])([H])[H])C([H])([H])c2c([H])c(OC([H])([H])C([H])([H])C(=O)N([H])C([H])(C(=O)N3C([H])(C(=O)N([H])C(=O)N4C([H])([H])C([H])([H])C([H])([H])C([H])(n5nc(-c6c([H])c([H])c(Oc7c([H])c([H])c(F)c([H])c7F)c([H])c6[H])c(C(=O)N([H])[H])c5N([H])[H])C4([H])[H])C([H])([H])C4([H])C(=O)C([H])([H])C34[H])C([H])(C([H])([H])[H])C([H])([H])[H])c([H])c([H])c2C1([H])[H]

>  <smiles>  (53) 
[H]c1c([H])c([H])c2c(c1[H])C([H])([H])C([H])([H])C([H])([H])C2([H])N([H])C(=O)C1([H])N(C(=O)C([H])(N([H])C(=O)C([H])(N([H])C([H])([H])[H])C([H])([H])[H])C(C([H])([H])[H])(C([H])([H])[H])C([H])([H])[H])C([H])([H])c2c([H])c(OC([H])([H])C([H])([H])C(=O)N([H])C([H])(C(=O)N3C([H])(C(=O)N([H])C(=O)N4C([H])([H])C([H])([H])C([H])([H])C([H])(n5nc(-c6c([H])c([H])c(Oc7c([H])c([H])c(F)c([H])c7F)c([H])c6[H])c(C(=O)N([H])[H])c5N([H])[H])C4([H])[H])C([H])([H])C4([H])C(=O)C([H])([H])C34[H])C([H])(C([H])([H])[H])C([H])([H])[H])c([H])c([H])c2C1([H])[H]

$$$$
53:0:0
     RDKit          3D

 93101  0  0  1  0  0  0  0  0999 V2000
  -25.8580  -23.3400   21.6850 C   0  0  0  0  0  2  0  0  0  0  0  0
  -25.7840  -21.9920   19.4420 C   0  0  0  0  0  3  0  0  0  0  0  0
  -26.2780  -21.1610   18.3880 C   0  0  0  0  0  3  0  0  0  0  0  0
  -27.4510  -20.9410   20.8020 C   0  0  0  0  0  3  0  0  0  0  0  0
  -26.3700  -21.9720   20.7170 C   0  0  0  0  0  0  0  0  0  0  0  0
  -27.4650  -20.4090   18.5550 C   0  0  0  0  0  0  0  0  0  0  0  0
  -27.9600  -19.8820   19.7970 C   0  0  0  0  0  0  0  0  0  0  0  0
  -28.3940  -21.0280   17.5300 C   0  0  0  0  0  1  0  0  0  0  0  0
  -29.3490  -18.7260   19.8210 C   0  0  0  0  0  2  0  0  0  0  0  0
  -31.0020  -16.2160   20.6480 C   0  0  0  0  0  0  0  0  0  0  0  0
  -31.4940  -13.7380   20.1460 C   0  0  0  0  0  2  0  0  0  0  0  0
  -30.7890  -12.9490   18.9790 C   0  0  0  0  0  2  0  0  0  0  0  0
  -29.3330  -12.5810   19.3650 C   0  0  0  0  0  2  0  0  0  0  0  0
  -28.6580  -13.7610   20.0630 C   0  0  0  0  0  3  0  0  0  0  0  0
  -29.4830  -14.2360   21.2830 C   0  0  0  0  0  2  0  0  0  0  0  0
  -30.6490  -14.8310   20.7060 N   0  0  0  0  0  0  0  0  0  0  0  0
  -32.2050  -16.2440   20.6670 O   0  0  0  0  0  0  0  0  0  0  0  0
  -29.9580  -17.3580   20.6290 N   0  0  0  0  0  0  0  0  0  0  0  0
  -30.5010  -17.8570   21.3080 H   0  0  0  0  0  0  0  0  0  0  0  0
  -26.3000  -14.4790   20.5710 C   0  0  0  0  0  0  0  0  0  0  0  0
  -25.1750  -13.7970   20.8030 C   0  0  0  0  0  0  0  0  0  0  0  0
  -25.5430  -12.4030   20.8230 C   0  0  0  0  0  0  0  0  0  0  0  0
  -27.2900  -13.5390   20.4350 N   0  0  0  0  0  0  0  0  0  0  0  0
  -26.8460  -12.2690   20.6700 N   0  0  0  0  0  0  0  0  0  0  0  0
  -24.7300  -11.1940   20.9000 C   0  0  0  0  0  0  0  0  0  0  0  0
  -24.9700  -10.2030   21.8790 C   0  0  0  0  0  3  0  0  0  0  0  0
  -24.1530   -9.0640   21.9480 C   0  0  0  0  0  3  0  0  0  0  0  0
  -23.0770   -8.9000   21.0410 C   0  0  0  0  0  0  0  0  0  0  0  0
  -22.8610   -9.8780   20.0540 C   0  0  0  0  0  3  0  0  0  0  0  0
  -23.6810  -11.0140   19.9810 C   0  0  0  0  0  3  0  0  0  0  0  0
  -22.2440   -7.8130   21.0200 O   0  0  0  0  0  0  0  0  0  0  0  0
  -21.9510   -7.1110   22.1620 C   0  0  0  0  0  0  0  0  0  0  0  0
  -21.3900   -7.7360   23.2970 C   0  0  0  0  0  3  0  0  0  0  0  0
  -21.0420   -6.9650   24.4230 C   0  0  0  0  0  3  0  0  0  0  0  0
  -21.2440   -5.5710   24.4150 C   0  0  0  0  0  0  0  0  0  0  0  0
  -21.7990   -4.9480   23.2820 C   0  0  0  0  0  3  0  0  0  0  0  0
  -22.1480   -5.7160   22.1580 C   0  0  0  0  0  0  0  0  0  0  0  0
  -22.6640   -5.1080   21.0620 F   0  0  0  0  0  0  0  0  0  0  0  0
  -20.9010   -4.8290   25.4930 F   0  0  0  0  0  0  0  0  0  0  0  0
  -23.7890  -14.3610   20.8980 C   0  0  0  0  0  0  0  0  0  0  0  0
  -22.9280  -13.7350   21.6570 N   0  0  0  0  0  0  0  0  0  0  0  0
  -23.5020  -15.4160   20.3100 O   0  0  0  0  0  0  0  0  0  0  0  0
  -23.1810  -12.8820   22.1410 H   0  0  0  0  0  0  0  0  0  0  0  0
  -21.9940  -14.0990   21.7840 H   0  0  0  0  0  0  0  0  0  0  0  0
  -26.6170  -15.8420   20.4070 N   0  0  0  0  0  0  0  0  0  0  0  0
  -25.9020  -16.5630   20.3740 H   0  0  0  0  0  0  0  0  0  0  0  0
  -27.5280  -16.1610   20.1080 H   0  0  0  0  0  0  0  0  0  0  0  0
  -27.4780  -25.2800   22.3460 C   0  0  0  0  0  0  0  0  0  0  0  0
  -26.4980  -24.7240   21.6820 N   0  0  0  0  0  0  0  0  0  0  0  0
  -27.7540  -24.7390   23.4020 O   0  0  0  0  0  0  0  0  0  0  0  0
  -25.9940  -25.4680   21.2810 H   0  0  0  0  0  0  0  0  0  0  0  0
  -27.8250  -26.7800   22.0390 C   0  0  0  0  0  2  0  0  0  0  0  0
  -28.5060  -27.2300   20.7780 O   0  0  0  0  0  0  0  0  0  0  0  0
  -24.6470  -32.0220   23.6360 C   0  0  0  0  0  0  0  0  0  0  0  0
  -27.6000  -28.1170   20.2160 C   0  0  0  0  0  0  0  0  0  0  0  0
  -23.6030  -30.5960   21.9820 C   0  0  0  0  0  3  0  0  0  0  0  0
  -25.0710  -29.3120   20.3540 C   0  0  0  0  0  0  0  0  0  0  0  0
  -25.9950  -31.2760   21.6540 C   0  0  0  0  0  2  0  0  0  0  0  0
  -26.1880  -29.9990   20.8520 C   0  0  0  0  0  0  0  0  0  0  0  0
  -27.4710  -29.4430   20.7210 C   0  0  0  0  0  3  0  0  0  0  0  0
  -26.4970  -27.5160   19.5930 C   0  0  0  0  0  3  0  0  0  0  0  0
  -25.2180  -28.0970   19.6340 C   0  0  0  0  0  3  0  0  0  0  0  0
  -23.7400  -29.9650   20.5880 C   0  0  0  0  0  2  0  0  0  0  0  0
  -24.7890  -31.2830   22.5000 N   0  0  0  0  0  0  0  0  0  0  0  0
  -23.5820  -32.1430   24.2320 O   0  0  0  0  0  0  0  0  0  0  0  0
  -23.0280  -29.4760   22.8210 C   0  0  0  0  0  0  0  0  0  0  0  0
  -21.8030  -29.2640   22.4650 N   0  0  0  0  0  0  0  0  0  0  0  0
  -23.5890  -28.7500   23.6500 O   0  0  0  0  0  0  0  0  0  0  0  0
  -21.5210  -30.0270   21.7930 H   0  0  0  0  0  0  0  0  0  0  0  0
  -18.6470  -27.3000   22.6260 C   0  0  0  0  0  0  0  0  0  0  0  0
  -20.9960  -28.1470   22.9240 C   0  0  0  0  0  3  0  0  0  0  0  0
  -21.6590  -26.6590   22.8590 C   0  0  0  0  0  2  0  0  0  0  0  0
  -20.8000  -25.7990   21.9590 C   0  0  0  0  0  2  0  0  0  0  0  0
  -19.2950  -25.9630   22.1790 C   0  0  0  0  0  2  0  0  0  0  0  0
  -19.4690  -28.3090   23.1390 C   0  0  0  0  0  0  0  0  0  0  0  0
  -18.8930  -29.5400   23.6580 C   0  0  0  0  0  3  0  0  0  0  0  0
  -17.5050  -29.7400   23.8050 C   0  0  0  0  0  3  0  0  0  0  0  0
  -16.6050  -28.7870   23.2210 C   0  0  0  0  0  3  0  0  0  0  0  0
  -17.1670  -27.6280   22.6650 C   0  0  0  0  0  3  0  0  0  0  0  0
  -25.8960  -32.7830   24.2640 C   0  0  0  0  0  3  0  0  0  0  0  0
  -26.3910  -32.0780   25.5470 C   0  0  1  0  0  0  0  0  0  0  0  0
  -25.3020  -31.7760   26.6030 C   0  0  0  0  0  1  0  0  0  0  0  0
  -27.1030  -30.7380   25.1990 C   0  0  0  0  0  1  0  0  0  0  0  0
  -27.4370  -33.0020   26.2150 C   0  0  0  0  0  1  0  0  0  0  0  0
  -25.4820  -34.1600   24.4960 N   0  0  0  0  0  0  0  0  0  0  0  0
  -25.8070  -35.1910   23.7020 C   0  0  0  0  0  0  0  0  0  0  0  0
  -26.5030  -35.0880   22.6850 O   0  0  0  0  0  0  0  0  0  0  0  0
  -24.8460  -34.3280   25.2520 H   0  0  0  0  0  0  0  0  0  0  0  0
  -24.0030  -36.8790   23.2170 C   0  0  0  0  0  1  0  0  0  0  0  0
  -25.2400  -36.5880   24.0760 C   0  0  0  0  0  3  0  0  0  0  0  0
  -27.3260  -37.5780   24.8910 C   0  0  0  0  0  1  0  0  0  0  0  0
  -26.2300  -37.6670   23.9330 N   0  0  0  0  0  0  0  0  0  0  0  0
  -25.7840  -38.5660   24.0290 H   0  0  0  0  0  0  0  0  0  0  0  0
  2  5  1  0
  3  6  1  0
  3  2  2  0
  5  4  2  0
  5  1  1  0
  6  7  2  0
  7  9  1  0
  7  4  1  0
  8  6  1  0
  9 18  1  0
 10 17  2  0
 10 16  1  0
 11 16  1  0
 12 13  1  0
 12 11  1  0
 14 13  1  0
 14 23  1  0
 14 15  1  0
 16 15  1  0
 18 10  1  0
 18 19  1  0
 20 21  2  0
 21 22  1  0
 21 40  1  0
 22 25  1  0
 23 20  1  0
 23 24  1  0
 24 22  2  0
 25 26  1  0
 26 27  2  0
 28 27  1  0
 29 28  2  0
 30 29  1  0
 30 25  2  0
 31 28  1  0
 31 32  1  0
 32 33  1  0
 33 34  2  0
 35 34  1  0
 35 39  1  0
 36 35  2  0
 37 32  2  0
 37 36  1  0
 38 37  1  0
 40 41  1  0
 41 44  1  0
 41 43  1  0
 42 40  2  0
 45 20  1  0
 46 45  1  0
 47 45  1  0
 48 50  2  0
 49  1  1  0
 49 48  1  0
 51 49  1  0
 52 48  1  0
 53 52  1  0
 54 65  2  0
 55 60  1  0
 55 53  1  0
 56 64  1  0
 56 66  1  0
 57 63  1  0
 57 59  1  0
 58 64  1  0
 59 58  1  0
 60 59  2  0
 61 62  1  0
 61 55  2  0
 62 57  2  0
 63 56  1  0
 64 54  1  0
 66 68  2  0
 67 66  1  0
 69 67  1  0
 70 79  2  0
 70 75  1  0
 71 67  1  0
 71 75  1  0
 72 71  1  0
 73 74  1  0
 73 72  1  0
 74 70  1  0
 75 76  2  0
 76 77  1  0
 78 77  2  0
 79 78  1  0
 80 54  1  0
 80 85  1  0
 80 81  1  0
 81 84  1  1
 81 82  1  0
 83 81  1  0
 85 88  1  0
 86 90  1  0
 86 85  1  0
 87 86  2  0
 90 89  1  0
 92 93  1  0
 92 90  1  0
 92 91  1  0
M  ISO  4  10 100  18 100  52 101  53 101
M  END
>  <TORSDO>  (54) 
F 20

>  <SCORE>  (54) 
-9.710

>  <name>  (54) 
53

>  <ligand_id>  (54) 
53

>  <original_smiles>  (54) 
[H]c1c([H])c([H])c2c(c1[H])C([H])([H])C([H])([H])C([H])([H])C2([H])N([H])C(=O)C1([H])N(C(=O)C([H])(N([H])C(=O)C([H])(N([H])C([H])([H])[H])C([H])([H])[H])C(C([H])([H])[H])(C([H])([H])[H])C([H])([H])[H])C([H])([H])c2c([H])c(OC([H])([H])C(=O)N([H])C([H])([H])c3c([H])c([H])c(C([H])([H])[H])c(C([H])([H])N([H])C(=O)N4C([H])([H])C([H])([H])C([H])([H])C([H])(n5nc(-c6c([H])c([H])c(Oc7c([H])c([H])c(F)c([H])c7F)c([H])c6[H])c(C(=O)N([H])[H])c5N([H])[H])C4([H])[H])c3[H])c([H])c([H])c2C1([H])[H]

>  <smiles>  (54) 
[H]c1c([H])c([H])c2c(c1[H])C([H])([H])C([H])([H])C([H])([H])C2([H])N([H])C(=O)C1([H])N(C(=O)C([H])(N([H])C(=O)C([H])(N([H])C([H])([H])[H])C([H])([H])[H])C(C([H])([H])[H])(C([H])([H])[H])C([H])([H])[H])C([H])([H])c2c([H])c(OC([H])([H])C(=O)N([H])C([H])([H])c3c([H])c([H])c(C([H])([H])[H])c(C([H])([H])N([H])C(=O)N4C([H])([H])C([H])([H])C([H])([H])C([H])(n5nc(-c6c([H])c([H])c(Oc7c([H])c([H])c(F)c([H])c7F)c([H])c6[H])c(C(=O)N([H])[H])c5N([H])[H])C4([H])[H])c3[H])c([H])c([H])c2C1([H])[H]

$$$$
54:0:0
     RDKit          3D

104113  0  0  1  0  0  0  0  0999 V2000
  -32.9780  -20.0450   14.9910 C   0  0  0  0  0  2  0  0  0  0  0  0
  -34.2170  -17.9410   14.4290 C   0  0  0  0  0  2  0  0  0  0  0  0
  -34.3270  -20.7910   15.0920 C   0  0  0  0  0  2  0  0  0  0  0  0
  -35.5430  -18.7100   14.5500 C   0  0  0  0  0  2  0  0  0  0  0  0
  -33.1190  -18.5450   15.3390 C   0  0  0  0  0  3  0  0  0  0  0  0
  -35.3700  -20.1520   14.2460 N   0  0  2  0  0  4  0  0  0  0  0  0
  -35.0830  -20.2240   13.2720 H   0  0  0  0  0  0  0  0  0  0  0  0
  -36.6520  -20.8920   14.1880 C   0  0  0  0  0  2  0  0  0  0  0  0
  -37.0610  -21.1840   12.7190 C   0  0  0  0  0  3  0  0  0  0  0  0
  -36.0780  -20.6850   11.8130 O   0  0  0  0  0  0  0  0  0  0  0  0
  -36.3260  -20.9840   10.9420 H   0  0  0  0  0  0  0  0  0  0  0  0
  -38.4590  -20.6340   12.3310 C   0  0  0  0  0  2  0  0  0  0  0  0
  -39.4820  -21.5630   12.6850 O   0  0  0  0  0  0  0  0  0  0  0  0
  -38.8180  -28.0010   15.5570 C   0  0  0  0  0  0  0  0  0  0  0  0
  -39.3850  -22.9080   12.4100 C   0  0  0  0  0  0  0  0  0  0  0  0
  -38.7020  -27.9330   13.0850 C   0  0  0  0  0  3  0  0  0  0  0  0
  -39.3390  -25.7110   12.0070 C   0  0  0  0  0  0  0  0  0  0  0  0
  -40.0060  -26.1570   14.3780 C   0  0  0  0  0  2  0  0  0  0  0  0
  -39.6700  -25.1890   13.2620 C   0  0  0  0  0  0  0  0  0  0  0  0
  -39.6910  -23.7950   13.4640 C   0  0  0  0  0  3  0  0  0  0  0  0
  -39.0420  -23.4500   11.1460 C   0  0  0  0  0  3  0  0  0  0  0  0
  -39.0160  -24.8440   10.9480 C   0  0  0  0  0  3  0  0  0  0  0  0
  -39.3520  -27.2170   11.8710 C   0  0  0  0  0  2  0  0  0  0  0  0
  -39.1490  -27.3630   14.3980 N   0  0  0  0  0  0  0  0  0  0  0  0
  -38.1850  -29.0680   15.5430 O   0  0  0  0  0  0  0  0  0  0  0  0
  -37.1680  -27.9120   12.9040 C   0  0  0  0  0  0  0  0  0  0  0  0
  -36.6180  -28.9990   12.3370 N   0  0  0  0  0  0  0  0  0  0  0  0
  -36.5060  -26.9280   13.2420 O   0  0  0  0  0  0  0  0  0  0  0  0
  -37.2320  -29.7650   12.0970 H   0  0  0  0  0  0  0  0  0  0  0  0
  -33.9340  -31.4130   12.3540 C   0  0  0  0  0  0  0  0  0  0  0  0
  -35.2000  -29.1840   12.0310 C   0  0  0  0  0  3  0  0  0  0  0  0
  -34.9810  -29.3960   10.5150 C   0  0  0  0  0  2  0  0  0  0  0  0
  -34.9680  -30.8720   10.1090 C   0  0  0  0  0  2  0  0  0  0  0  0
  -33.8610  -31.6250   10.8520 C   0  0  0  0  0  2  0  0  0  0  0  0
  -34.5750  -30.2740   12.9080 C   0  0  0  0  0  0  0  0  0  0  0  0
  -34.6450  -30.1420   14.3110 C   0  0  0  0  0  3  0  0  0  0  0  0
  -34.0870  -31.1200   15.1550 C   0  0  0  0  0  3  0  0  0  0  0  0
  -33.4370  -32.2380   14.6020 C   0  0  0  0  0  3  0  0  0  0  0  0
  -33.3590  -32.3810   13.2040 C   0  0  0  0  0  3  0  0  0  0  0  0
  -39.2350  -27.4370   16.9490 C   0  0  0  0  0  3  0  0  0  0  0  0
  -38.0350  -26.7880   17.7420 C   0  0  1  0  0  0  0  0  0  0  0  0
  -37.0680  -27.8230   18.3620 C   0  0  0  0  0  1  0  0  0  0  0  0
  -37.2100  -25.8630   16.8170 C   0  0  0  0  0  1  0  0  0  0  0  0
  -38.5790  -25.8990   18.8860 C   0  0  0  0  0  1  0  0  0  0  0  0
  -39.8270  -28.5410   17.7160 N   0  0  0  0  0  0  0  0  0  0  0  0
  -41.0860  -28.9740   17.5710 C   0  0  0  0  0  0  0  0  0  0  0  0
  -41.9010  -28.4270   16.8230 O   0  0  0  0  0  0  0  0  0  0  0  0
  -39.2020  -29.0650   18.3120 H   0  0  0  0  0  0  0  0  0  0  0  0
  -41.0780  -31.4850   17.6570 C   0  0  0  0  0  1  0  0  0  0  0  0
  -41.5130  -30.2070   18.3910 C   0  0  0  0  0  3  0  0  0  0  0  0
  -43.3760  -29.4020   19.7730 C   0  0  0  0  0  1  0  0  0  0  0  0
  -42.9650  -30.2610   18.6650 N   0  0  0  0  0  0  0  0  0  0  0  0
  -43.2580  -31.2110   18.8760 H   0  0  0  0  0  0  0  0  0  0  0  0
  -31.7710  -17.7530   15.3050 C   0  0  0  0  0  3  0  0  0  0  0  0
  -32.5170  -16.2180   17.1230 C   0  0  0  0  0  0  0  0  0  0  0  0
  -31.9280  -16.4400   15.9400 N   0  0  0  0  0  0  0  0  0  0  0  0
  -33.2770  -17.0330   17.6510 O   0  0  0  0  0  0  0  0  0  0  0  0
  -31.3580  -15.6950   15.5660 H   0  0  0  0  0  0  0  0  0  0  0  0
  -32.9630  -14.4630   18.9410 C   0  0  0  0  0  2  0  0  0  0  0  0
  -32.0840  -14.9580   17.8040 C   0  0  0  0  0  3  0  0  0  0  0  0
  -32.9550  -13.7230   17.6230 C   0  0  0  0  0  3  0  0  0  0  0  0
  -32.2380  -12.4300   17.6400 N   0  0  0  0  0  4  0  0  0  0  0  0
  -31.4260  -12.4460   18.2290 H   0  0  0  0  0  0  0  0  0  0  0  0
  -32.8470  -11.7060   17.9800 H   0  0  0  0  0  0  0  0  0  0  0  0
  -31.9560  -12.1660   16.7100 H   0  0  0  0  0  0  0  0  0  0  0  0
  -30.6340  -18.5570   15.9780 C   0  0  0  0  0  2  0  0  0  0  0  0
  -30.5500  -18.9400   18.4130 C   0  0  0  0  0  0  0  0  0  0  0  0
  -29.8960  -19.9560   20.5540 C   0  0  0  0  0  2  0  0  0  0  0  0
  -28.8770  -21.0840   20.2850 C   0  0  0  0  0  2  0  0  0  0  0  0
  -29.5960  -22.4120   19.9740 C   0  0  0  0  0  2  0  0  0  0  0  0
  -30.7210  -22.2540   18.9150 C   0  0  0  0  0  3  0  0  0  0  0  0
  -31.6310  -21.0520   19.2550 C   0  0  0  0  0  2  0  0  0  0  0  0
  -30.7770  -19.8600   19.3820 N   0  0  0  0  0  0  0  0  0  0  0  0
  -29.8160  -17.9600   18.5690 O   0  0  0  0  0  0  0  0  0  0  0  0
  -31.0440  -19.2420   17.2030 N   0  0  0  0  0  0  0  0  0  0  0  0
  -31.6190  -20.0680   17.1140 H   0  0  0  0  0  0  0  0  0  0  0  0
  -31.4100  -24.4520   17.7760 C   0  0  0  0  0  0  0  0  0  0  0  0
  -32.2920  -25.4350   18.1260 C   0  0  0  0  0  0  0  0  0  0  0  0
  -32.8600  -25.0200   19.3670 C   0  0  0  0  0  0  0  0  0  0  0  0
  -31.4890  -23.4860   18.7630 N   0  0  0  0  0  0  0  0  0  0  0  0
  -32.4070  -23.8180   19.7050 N   0  0  0  0  0  0  0  0  0  0  0  0
  -33.7610  -25.7240   20.2870 C   0  0  0  0  0  0  0  0  0  0  0  0
  -35.1180  -25.3580   20.4090 C   0  0  0  0  0  3  0  0  0  0  0  0
  -35.9700  -26.0590   21.2880 C   0  0  0  0  0  3  0  0  0  0  0  0
  -35.4680  -27.1390   22.0510 C   0  0  0  0  0  0  0  0  0  0  0  0
  -34.1080  -27.4840   21.9430 C   0  0  0  0  0  3  0  0  0  0  0  0
  -33.2610  -26.7810   21.0720 C   0  0  0  0  0  3  0  0  0  0  0  0
  -36.2150  -27.8610   22.9490 O   0  0  0  0  0  0  0  0  0  0  0  0
  -37.3680  -28.5030   22.5720 C   0  0  0  0  0  0  0  0  0  0  0  0
  -37.3800  -29.4760   21.5470 C   0  0  0  0  0  3  0  0  0  0  0  0
  -38.5720  -30.1590   21.2390 C   0  0  0  0  0  3  0  0  0  0  0  0
  -39.7510  -29.8790   21.9580 C   0  0  0  0  0  0  0  0  0  0  0  0
  -39.7400  -28.9150   22.9810 C   0  0  0  0  0  3  0  0  0  0  0  0
  -38.5520  -28.2310   23.2880 C   0  0  0  0  0  0  0  0  0  0  0  0
  -38.5410  -27.3180   24.2890 F   0  0  0  0  0  0  0  0  0  0  0  0
  -40.8940  -30.5420   21.6680 F   0  0  0  0  0  0  0  0  0  0  0  0
  -32.5180  -26.7300   17.4010 C   0  0  0  0  0  0  0  0  0  0  0  0
  -33.7640  -27.0280   17.0520 N   0  0  0  0  0  0  0  0  0  0  0  0
  -31.5740  -27.4570   17.0860 O   0  0  0  0  0  0  0  0  0  0  0  0
  -34.5320  -26.4170   17.2870 H   0  0  0  0  0  0  0  0  0  0  0  0
  -33.9540  -27.8800   16.5420 H   0  0  0  0  0  0  0  0  0  0  0  0
  -30.5130  -24.3220   16.7280 N   0  0  0  0  0  0  0  0  0  0  0  0
  -30.1310  -25.2230   16.4760 H   0  0  0  0  0  0  0  0  0  0  0  0
  -29.7720  -23.6570   16.9080 H   0  0  0  0  0  0  0  0  0  0  0  0
  1  3  1  0
  1  5  1  0
  2  4  1  0
  2  5  1  0
  5 54  1  0
  6  4  1  0
  6  3  1  0
  6  7  1  6
  8  6  1  0
  9 12  1  0
  9  8  1  0
 10  9  1  0
 11 10  1  0
 12 13  1  0
 15 13  1  0
 15 20  1  0
 16 26  1  0
 16 24  1  0
 17 19  1  0
 18 24  1  0
 19 20  2  0
 19 18  1  0
 21 15  2  0
 22 21  1  0
 22 17  2  0
 23 17  1  0
 23 16  1  0
 24 14  1  0
 25 14  2  0
 26 28  2  0
 27 26  1  0
 29 27  1  0
 30 35  2  0
 30 39  1  0
 31 27  1  0
 31 35  1  0
 32 31  1  0
 33 32  1  0
 33 34  1  0
 34 30  1  0
 35 36  1  0
 36 37  2  0
 38 37  1  0
 39 38  2  0
 40 14  1  0
 40 45  1  0
 40 41  1  0
 41 42  1  1
 41 44  1  0
 43 41  1  0
 45 48  1  0
 46 45  1  0
 46 50  1  0
 47 46  2  0
 50 49  1  0
 50 52  1  0
 52 53  1  0
 52 51  1  0
 54 56  1  0
 54 66  1  0
 55 57  2  0
 56 55  1  0
 58 56  1  0
 60 55  1  0
 60 59  1  0
 61 62  1  0
 61 60  1  0
 61 59  1  0
 62 64  1  0
 62 63  1  0
 65 62  1  0
 66 75  1  0
 67 74  2  0
 67 73  1  0
 69 68  1  0
 70 69  1  0
 71 80  1  0
 71 72  1  0
 71 70  1  0
 72 73  1  0
 73 68  1  0
 75 67  1  0
 76 75  1  0
 77 78  2  0
 77 80  1  0
 78 79  1  0
 79 81  2  0
 79 82  1  0
 80 81  1  0
 82 83  2  0
 82 87  1  0
 83 84  1  0
 84 85  2  0
 85 88  1  0
 86 85  1  0
 87 86  2  0
 89 88  1  0
 89 94  1  0
 90 89  2  0
 91 90  1  0
 91 92  2  0
 92 93  1  0
 93 94  2  0
 94 95  1  0
 96 92  1  0
 97 78  1  0
 98100  1  0
 98 97  1  0
 99 97  2  0
101 98  1  0
102104  1  0
102 77  1  0
103102  1  0
M  ISO  4  12 101  13 101  67 100  75 100
M  END
>  <TORSDO>  (55) 
F 25

>  <SCORE>  (55) 
-2.805

>  <name>  (55) 
54

>  <ligand_id>  (55) 
54

>  <original_smiles>  (55) 
[H]OC([H])(C([H])([H])Oc1c([H])c([H])c2c(c1[H])C([H])([H])N(C(=O)C([H])(N([H])C(=O)C([H])(N([H])C([H])([H])[H])C([H])([H])[H])C(C([H])([H])[H])(C([H])([H])[H])C([H])([H])[H])C([H])(C(=O)N([H])C1([H])c3c([H])c([H])c([H])c([H])c3C([H])([H])C([H])([H])C1([H])[H])C2([H])[H])C([H])([H])[N+]1([H])C([H])([H])C([H])([H])C([H])(C([H])(N([H])C(=O)C2([H])C([H])([H])C2([H])[N+]([H])([H])[H])C([H])([H])N([H])C(=O)N2C([H])([H])C([H])([H])C([H])([H])C([H])(n3nc(-c4c([H])c([H])c(Oc5c([H])c([H])c(F)c([H])c5F)c([H])c4[H])c(C(=O)N([H])[H])c3N([H])[H])C2([H])[H])C([H])([H])C1([H])[H]

>  <smiles>  (55) 
[H]OC([H])(C([H])([H])Oc1c([H])c([H])c2c(c1[H])C([H])([H])N(C(=O)C([H])(N([H])C(=O)C([H])(N([H])C([H])([H])[H])C([H])([H])[H])C(C([H])([H])[H])(C([H])([H])[H])C([H])([H])[H])C([H])(C(=O)N([H])C1([H])c3c([H])c([H])c([H])c([H])c3C([H])([H])C([H])([H])C1([H])[H])C2([H])[H])C([H])([H])[N+]1([H])C([H])([H])C([H])([H])C([H])(C([H])(N([H])C(=O)C2([H])C([H])([H])C2([H])[N+]([H])([H])[H])C([H])([H])N([H])C(=O)N2C([H])([H])C([H])([H])C([H])([H])C([H])(n3nc(-c4c([H])c([H])c(Oc5c([H])c([H])c(F)c([H])c5F)c([H])c4[H])c(C(=O)N([H])[H])c3N([H])[H])C2([H])[H])C([H])([H])C1([H])[H]

$$$$
55:0:0
     RDKit          3D

 95103  0  0  1  0  0  0  0  0999 V2000
  -29.9160  -22.7520   18.8020 C   0  0  0  0  0  3  0  0  0  0  0  0
  -30.2540  -21.3680   19.0860 C   0  0  0  0  0  0  0  0  0  0  0  0
  -29.2310  -23.6580   19.6780 C   0  0  0  0  0  0  0  0  0  0  0  0
  -28.9100  -23.0300   20.9210 C   0  0  0  0  0  0  0  0  0  0  0  0
  -29.2100  -21.6250   21.2150 C   0  0  0  0  0  0  0  0  0  0  0  0
  -29.9080  -20.7100   20.3170 C   0  0  0  0  0  0  0  0  0  0  0  0
  -30.9650  -20.5920   17.9910 C   0  0  0  0  0  1  0  0  0  0  0  0
  -28.1950  -23.8920   21.9580 C   0  0  0  0  0  1  0  0  0  0  0  0
  -28.7340  -21.0990   22.5740 C   0  0  0  0  0  1  0  0  0  0  0  0
  -28.6930  -25.1080   19.1200 C   0  0  0  0  0  2  0  0  0  0  0  0
  -28.5950  -26.4640   19.8360 O   0  0  0  0  0  0  0  0  0  0  0  0
  -24.6700  -31.7720   23.0170 C   0  0  0  0  0  0  0  0  0  0  0  0
  -27.4660  -27.3520   19.7720 C   0  0  0  0  0  0  0  0  0  0  0  0
  -23.5250  -30.3750   21.3400 C   0  0  0  0  0  3  0  0  0  0  0  0
  -25.0360  -28.9390   19.8420 C   0  0  0  0  0  0  0  0  0  0  0  0
  -26.0550  -30.7910   21.1570 C   0  0  0  0  0  2  0  0  0  0  0  0
  -26.1940  -29.4330   20.4530 C   0  0  0  0  0  0  0  0  0  0  0  0
  -27.4050  -28.6520   20.4100 C   0  0  0  0  0  3  0  0  0  0  0  0
  -26.2670  -26.9460   19.1400 C   0  0  0  0  0  3  0  0  0  0  0  0
  -25.0810  -27.7070   19.1760 C   0  0  0  0  0  3  0  0  0  0  0  0
  -23.7610  -29.7610   19.9340 C   0  0  0  0  0  2  0  0  0  0  0  0
  -24.7690  -30.9990   21.8940 N   0  0  0  0  0  0  0  0  0  0  0  0
  -23.5780  -31.9790   23.5680 O   0  0  0  0  0  0  0  0  0  0  0  0
  -22.9120  -29.2990   22.2700 C   0  0  0  0  0  0  0  0  0  0  0  0
  -21.5930  -29.0710   22.1560 N   0  0  0  0  0  0  0  0  0  0  0  0
  -23.6270  -28.6730   23.0560 O   0  0  0  0  0  0  0  0  0  0  0  0
  -21.0690  -29.6320   21.4990 H   0  0  0  0  0  0  0  0  0  0  0  0
  -18.2800  -27.7040   22.6630 C   0  0  0  0  0  0  0  0  0  0  0  0
  -20.8290  -28.0630   22.8970 C   0  0  0  0  0  3  0  0  0  0  0  0
  -20.9810  -26.6630   22.2580 C   0  0  0  0  0  2  0  0  0  0  0  0
  -19.8730  -26.3340   21.2520 C   0  0  0  0  0  2  0  0  0  0  0  0
  -18.5000  -26.3920   21.9280 C   0  0  0  0  0  2  0  0  0  0  0  0
  -19.3720  -28.4950   23.1040 C   0  0  0  0  0  0  0  0  0  0  0  0
  -19.1110  -29.7190   23.7560 C   0  0  0  0  0  3  0  0  0  0  0  0
  -17.7890  -30.1530   23.9700 C   0  0  0  0  0  3  0  0  0  0  0  0
  -16.7100  -29.3600   23.5420 C   0  0  0  0  0  3  0  0  0  0  0  0
  -16.9570  -28.1350   22.8950 C   0  0  0  0  0  3  0  0  0  0  0  0
  -25.9220  -32.4470   23.6540 C   0  0  0  0  0  3  0  0  0  0  0  0
  -26.4970  -31.6510   24.8900 C   0  0  1  0  0  0  0  0  0  0  0  0
  -25.4320  -31.3030   25.9570 C   0  0  0  0  0  1  0  0  0  0  0  0
  -27.1500  -30.3270   24.4320 C   0  0  0  0  0  1  0  0  0  0  0  0
  -27.6090  -32.4780   25.5750 C   0  0  0  0  0  1  0  0  0  0  0  0
  -25.5390  -33.8100   24.0560 N   0  0  0  0  0  0  0  0  0  0  0  0
  -25.7960  -34.9160   23.3460 C   0  0  0  0  0  0  0  0  0  0  0  0
  -26.4500  -34.9020   22.3010 O   0  0  0  0  0  0  0  0  0  0  0  0
  -24.9530  -33.8880   24.8740 H   0  0  0  0  0  0  0  0  0  0  0  0
  -23.9590  -36.6240   23.1210 C   0  0  0  0  0  1  0  0  0  0  0  0
  -25.2420  -36.2520   23.8830 C   0  0  0  0  0  3  0  0  0  0  0  0
  -27.3350  -37.2290   24.7170 C   0  0  0  0  0  1  0  0  0  0  0  0
  -26.2100  -37.3680   23.7970 N   0  0  0  0  0  0  0  0  0  0  0  0
  -25.7540  -38.2560   23.9870 H   0  0  0  0  0  0  0  0  0  0  0  0
  -30.2400  -19.1360   20.7480 C   0  0  0  0  0  3  0  0  0  0  0  0
  -31.1870  -19.1830   21.8680 N   0  0  0  0  0  4  0  0  0  0  0  0
  -31.2840  -18.2770   22.2870 H   0  0  0  0  0  0  0  0  0  0  0  0
  -30.8630  -19.8360   22.5590 H   0  0  0  0  0  0  0  0  0  0  0  0
  -32.0860  -19.4910   21.5450 H   0  0  0  0  0  0  0  0  0  0  0  0
  -30.6970  -17.8320   19.8260 C   0  0  0  0  0  2  0  0  0  0  0  0
  -31.2650  -15.1900   20.2020 C   0  0  0  0  0  0  0  0  0  0  0  0
  -31.1060  -12.8220   19.3630 C   0  0  0  0  0  2  0  0  0  0  0  0
  -30.1850  -12.7820   18.1210 C   0  0  0  0  0  2  0  0  0  0  0  0
  -28.7120  -12.6200   18.5430 C   0  0  0  0  0  2  0  0  0  0  0  0
  -28.3150  -13.5900   19.6870 C   0  0  0  0  0  3  0  0  0  0  0  0
  -29.3570  -13.6040   20.8270 C   0  0  0  0  0  2  0  0  0  0  0  0
  -30.6530  -13.9460   20.2250 N   0  0  0  0  0  0  0  0  0  0  0  0
  -32.4530  -15.2560   19.8720 O   0  0  0  0  0  0  0  0  0  0  0  0
  -30.4870  -16.3580   20.3280 N   0  0  0  0  0  0  0  0  0  0  0  0
  -29.5380  -16.1530   20.6010 H   0  0  0  0  0  0  0  0  0  0  0  0
  -25.9500  -14.2450   20.4230 C   0  0  0  0  0  0  0  0  0  0  0  0
  -24.8600  -13.5010   20.7850 C   0  0  0  0  0  0  0  0  0  0  0  0
  -25.2800  -12.1360   20.7380 C   0  0  0  0  0  0  0  0  0  0  0  0
  -26.9650  -13.3360   20.1760 N   0  0  0  0  0  0  0  0  0  0  0  0
  -26.5690  -12.0620   20.4290 N   0  0  0  0  0  0  0  0  0  0  0  0
  -24.5130  -10.8950   20.9110 C   0  0  0  0  0  0  0  0  0  0  0  0
  -24.8670   -9.9350   21.8840 C   0  0  0  0  0  3  0  0  0  0  0  0
  -24.1000   -8.7610   22.0440 C   0  0  0  0  0  3  0  0  0  0  0  0
  -22.9650   -8.5380   21.2290 C   0  0  0  0  0  0  0  0  0  0  0  0
  -22.6320   -9.4850   20.2430 C   0  0  0  0  0  3  0  0  0  0  0  0
  -23.4000  -10.6500   20.0830 C   0  0  0  0  0  3  0  0  0  0  0  0
  -22.1780   -7.4130   21.2970 O   0  0  0  0  0  0  0  0  0  0  0  0
  -21.9700   -6.7490   22.4780 C   0  0  0  0  0  0  0  0  0  0  0  0
  -21.3790   -7.3810   23.5930 C   0  0  0  0  0  3  0  0  0  0  0  0
  -21.1210   -6.6410   24.7650 C   0  0  0  0  0  3  0  0  0  0  0  0
  -21.4440   -5.2720   24.8200 C   0  0  0  0  0  0  0  0  0  0  0  0
  -22.0270   -4.6410   23.7080 C   0  0  0  0  0  3  0  0  0  0  0  0
  -22.2860   -5.3770   22.5390 C   0  0  0  0  0  0  0  0  0  0  0  0
  -22.8290   -4.7590   21.4620 F   0  0  0  0  0  0  0  0  0  0  0  0
  -21.1880   -4.5600   25.9430 F   0  0  0  0  0  0  0  0  0  0  0  0
  -23.4790  -14.0200   21.0600 C   0  0  0  0  0  0  0  0  0  0  0  0
  -22.7320  -13.3440   21.9270 N   0  0  0  0  0  0  0  0  0  0  0  0
  -23.0720  -15.0580   20.5400 O   0  0  0  0  0  0  0  0  0  0  0  0
  -23.0770  -12.5060   22.3700 H   0  0  0  0  0  0  0  0  0  0  0  0
  -21.8030  -13.6720   22.1520 H   0  0  0  0  0  0  0  0  0  0  0  0
  -26.1570  -15.6090   20.2530 N   0  0  0  0  0  0  0  0  0  0  0  0
  -25.3950  -16.2750   20.3300 H   0  0  0  0  0  0  0  0  0  0  0  0
  -26.9860  -16.0110   19.8370 H   0  0  0  0  0  0  0  0  0  0  0  0
  1  2  2  0
  1  3  1  0
  2  6  1  0
  3  4  2  0
  4  5  1  0
  4  8  1  0
  5  9  1  0
  6 52  1  0
  6  5  2  0
  7  2  1  0
 10  3  1  0
 10 11  1  0
 12 23  2  0
 13 11  1  0
 13 18  1  0
 14 22  1  0
 14 24  1  0
 15 21  1  0
 15 17  1  0
 16 22  1  0
 17 16  1  0
 18 17  2  0
 19 20  1  0
 19 13  2  0
 20 15  2  0
 21 14  1  0
 22 12  1  0
 24 26  2  0
 25 24  1  0
 27 25  1  0
 28 37  2  0
 28 33  1  0
 29 25  1  0
 29 33  1  0
 30 29  1  0
 31 32  1  0
 31 30  1  0
 32 28  1  0
 33 34  2  0
 34 35  1  0
 36 35  2  0
 37 36  1  0
 38 12  1  0
 38 43  1  0
 38 39  1  0
 39 42  1  1
 39 40  1  0
 41 39  1  0
 43 46  1  0
 44 48  1  0
 44 43  1  0
 45 44  2  0
 48 47  1  0
 50 48  1  0
 50 51  1  0
 50 49  1  0
 52 57  1  0
 52 53  1  0
 53 54  1  0
 53 55  1  0
 56 53  1  0
 57 66  1  0
 58 64  1  0
 58 66  1  0
 59 64  1  0
 60 61  1  0
 60 59  1  0
 62 61  1  0
 62 71  1  0
 62 63  1  0
 64 63  1  0
 65 58  2  0
 66 67  1  0
 68 69  2  0
 69 88  1  0
 70 69  1  0
 70 73  1  0
 71 68  1  0
 71 72  1  0
 72 70  2  0
 73 74  1  0
 74 75  2  0
 76 79  1  0
 76 75  1  0
 77 76  2  0
 78 77  1  0
 78 73  2  0
 79 80  1  0
 80 85  2  0
 80 81  1  0
 81 82  2  0
 82 83  1  0
 83 87  1  0
 84 83  2  0
 85 84  1  0
 86 85  1  0
 88 89  1  0
 89 92  1  0
 89 91  1  0
 90 88  2  0
 93 94  1  0
 93 68  1  0
 95 93  1  0
M  ISO  4  10 101  11 101  58 100  66 100
M  END
>  <TORSDO>  (56) 
F 20

>  <SCORE>  (56) 
-12.059

>  <name>  (56) 
55

>  <ligand_id>  (56) 
55

>  <original_smiles>  (56) 
[H]c1c([H])c([H])c2c(c1[H])C([H])([H])C([H])([H])C([H])([H])C2([H])N([H])C(=O)C1([H])N(C(=O)C([H])(N([H])C(=O)C([H])(N([H])C([H])([H])[H])C([H])([H])[H])C(C([H])([H])[H])(C([H])([H])[H])C([H])([H])[H])C([H])([H])c2c([H])c(OC([H])([H])c3c([H])c(C([H])([H])[H])c(C([H])(C([H])([H])N([H])C(=O)N4C([H])([H])C([H])([H])C([H])([H])C([H])(n5nc(-c6c([H])c([H])c(Oc7c([H])c([H])c(F)c([H])c7F)c([H])c6[H])c(C(=O)N([H])[H])c5N([H])[H])C4([H])[H])[N+]([H])([H])[H])c(C([H])([H])[H])c3C([H])([H])[H])c([H])c([H])c2C1([H])[H]

>  <smiles>  (56) 
[H]c1c([H])c([H])c2c(c1[H])C([H])([H])C([H])([H])C([H])([H])C2([H])N([H])C(=O)C1([H])N(C(=O)C([H])(N([H])C(=O)C([H])(N([H])C([H])([H])[H])C([H])([H])[H])C(C([H])([H])[H])(C([H])([H])[H])C([H])([H])[H])C([H])([H])c2c([H])c(OC([H])([H])c3c([H])c(C([H])([H])[H])c(C([H])(C([H])([H])N([H])C(=O)N4C([H])([H])C([H])([H])C([H])([H])C([H])(n5nc(-c6c([H])c([H])c(Oc7c([H])c([H])c(F)c([H])c7F)c([H])c6[H])c(C(=O)N([H])[H])c5N([H])[H])C4([H])[H])[N+]([H])([H])[H])c(C([H])([H])[H])c3C([H])([H])[H])c([H])c([H])c2C1([H])[H]

$$$$
56:0:0
     RDKit          3D

 96104  0  0  1  0  0  0  0  0999 V2000
  -30.3160  -18.0190   20.5080 C   0  0  0  0  0  0  0  0  0  0  0  0
  -32.3470  -20.9370   19.4670 C   0  0  0  0  0  2  0  0  0  0  0  0
  -32.2500  -19.5690   20.1390 C   0  0  0  0  0  2  0  0  0  0  0  0
  -30.0310  -20.3850   19.7240 C   0  0  0  0  0  2  0  0  0  0  0  0
  -31.0000  -21.5860   19.7540 C   0  0  0  0  0  3  0  0  0  0  0  0
  -30.8280  -19.2230   20.1470 N   0  0  0  0  0  0  0  0  0  0  0  0
  -29.1080  -17.7720   20.4210 O   0  0  0  0  0  0  0  0  0  0  0  0
  -30.6860  -22.7640   18.8080 C   0  0  0  0  0  2  0  0  0  0  0  0
  -29.5600  -24.8670   19.5680 C   0  0  0  0  0  0  0  0  0  0  0  0
  -29.5440  -23.5590   19.2580 N   0  0  0  0  0  0  0  0  0  0  0  0
  -30.5980  -25.5330   19.6240 O   0  0  0  0  0  0  0  0  0  0  0  0
  -28.6400  -23.1030   19.2560 H   0  0  0  0  0  0  0  0  0  0  0  0
  -28.1940  -25.5200   19.8110 C   0  0  0  0  0  2  0  0  0  0  0  0
  -28.3070  -26.9410   19.9950 O   0  0  0  0  0  0  0  0  0  0  0  0
  -24.5390  -31.9930   23.3130 C   0  0  0  0  0  0  0  0  0  0  0  0
  -27.1250  -27.6510   20.0390 C   0  0  0  0  0  0  0  0  0  0  0  0
  -23.3020  -30.6350   21.6590 C   0  0  0  0  0  3  0  0  0  0  0  0
  -24.7260  -29.1530   20.1580 C   0  0  0  0  0  0  0  0  0  0  0  0
  -25.8230  -31.0130   21.4130 C   0  0  0  0  0  2  0  0  0  0  0  0
  -25.9000  -29.6640   20.7280 C   0  0  0  0  0  0  0  0  0  0  0  0
  -27.1040  -28.9220   20.6610 C   0  0  0  0  0  3  0  0  0  0  0  0
  -25.9220  -27.1540   19.4770 C   0  0  0  0  0  3  0  0  0  0  0  0
  -24.7340  -27.9000   19.5310 C   0  0  0  0  0  3  0  0  0  0  0  0
  -23.4820  -30.0040   20.2540 C   0  0  0  0  0  2  0  0  0  0  0  0
  -24.5750  -31.2270   22.1860 N   0  0  0  0  0  0  0  0  0  0  0  0
  -23.4690  -32.2400   23.8860 O   0  0  0  0  0  0  0  0  0  0  0  0
  -22.6810  -29.5770   22.6000 C   0  0  0  0  0  0  0  0  0  0  0  0
  -21.3710  -29.3300   22.4330 N   0  0  0  0  0  0  0  0  0  0  0  0
  -23.3710  -28.9860   23.4350 O   0  0  0  0  0  0  0  0  0  0  0  0
  -20.8760  -29.8590   21.7280 H   0  0  0  0  0  0  0  0  0  0  0  0
  -18.0680  -27.9030   22.7680 C   0  0  0  0  0  0  0  0  0  0  0  0
  -20.5780  -28.3550   23.1820 C   0  0  0  0  0  3  0  0  0  0  0  0
  -20.8180  -26.9240   22.6530 C   0  0  0  0  0  2  0  0  0  0  0  0
  -19.8090  -26.4970   21.5820 C   0  0  0  0  0  2  0  0  0  0  0  0
  -18.3840  -26.5530   22.1410 C   0  0  0  0  0  2  0  0  0  0  0  0
  -19.1000  -28.7540   23.2410 C   0  0  0  0  0  0  0  0  0  0  0  0
  -18.7580  -30.0120   23.7850 C   0  0  0  0  0  3  0  0  0  0  0  0
  -17.4150  -30.4230   23.8560 C   0  0  0  0  0  3  0  0  0  0  0  0
  -16.3930  -29.5690   23.4030 C   0  0  0  0  0  3  0  0  0  0  0  0
  -16.7200  -28.3100   22.8670 C   0  0  0  0  0  3  0  0  0  0  0  0
  -25.8370  -32.6120   23.9190 C   0  0  0  0  0  3  0  0  0  0  0  0
  -25.5460  -34.0140   24.2450 N   0  0  0  0  0  0  0  0  0  0  0  0
  -25.8950  -35.0600   23.4840 C   0  0  0  0  0  0  0  0  0  0  0  0
  -26.5650  -34.9450   22.4530 O   0  0  0  0  0  0  0  0  0  0  0  0
  -24.9490  -34.1740   25.0430 H   0  0  0  0  0  0  0  0  0  0  0  0
  -24.1910  -36.8770   23.1220 C   0  0  0  0  0  1  0  0  0  0  0  0
  -25.4250  -36.4560   23.9360 C   0  0  0  0  0  3  0  0  0  0  0  0
  -27.5620  -37.3210   24.7820 C   0  0  0  0  0  1  0  0  0  0  0  0
  -26.4720  -37.4960   23.8280 N   0  0  0  0  0  0  0  0  0  0  0  0
  -26.0740  -38.4200   23.9710 H   0  0  0  0  0  0  0  0  0  0  0  0
  -26.3600  -31.8360   25.1910 C   0  0  1  0  0  0  0  0  0  0  0  0
  -25.2710  -31.5890   26.2610 C   0  0  0  0  0  1  0  0  0  0  0  0
  -26.9440  -30.4600   24.7900 C   0  0  0  0  0  1  0  0  0  0  0  0
  -27.5090  -32.6290   25.8530 C   0  0  0  0  0  1  0  0  0  0  0  0
  -31.2650  -16.9360   21.0950 C   0  0  0  0  0  3  0  0  0  0  0  0
  -31.2590  -14.6500   20.0840 C   0  0  0  0  0  0  0  0  0  0  0  0
  -30.8780  -12.4520   19.0390 C   0  0  0  0  0  2  0  0  0  0  0  0
  -29.9090  -12.5990   17.8490 C   0  0  0  0  0  2  0  0  0  0  0  0
  -28.4440  -12.5300   18.3180 C   0  0  0  0  0  2  0  0  0  0  0  0
  -28.1570  -13.4620   19.5250 C   0  0  0  0  0  3  0  0  0  0  0  0
  -29.2230  -13.2630   20.6250 C   0  0  0  0  0  2  0  0  0  0  0  0
  -30.5510  -13.4930   20.0220 N   0  0  0  0  0  0  0  0  0  0  0  0
  -32.2910  -14.8560   19.4410 O   0  0  0  0  0  0  0  0  0  0  0  0
  -30.7510  -15.5800   20.8920 N   0  0  0  0  0  0  0  0  0  0  0  0
  -29.9250  -15.3590   21.4290 H   0  0  0  0  0  0  0  0  0  0  0  0
  -25.8180  -14.1990   20.3200 C   0  0  0  0  0  0  0  0  0  0  0  0
  -24.7200  -13.4840   20.7110 C   0  0  0  0  0  0  0  0  0  0  0  0
  -25.1000  -12.1080   20.6460 C   0  0  0  0  0  0  0  0  0  0  0  0
  -26.8030  -13.2630   20.0410 N   0  0  0  0  0  0  0  0  0  0  0  0
  -26.3720  -11.9990   20.2920 N   0  0  0  0  0  0  0  0  0  0  0  0
  -24.3110  -10.8860   20.8480 C   0  0  0  0  0  0  0  0  0  0  0  0
  -24.6880   -9.9110   21.7970 C   0  0  0  0  0  3  0  0  0  0  0  0
  -23.9040   -8.7520   21.9830 C   0  0  0  0  0  3  0  0  0  0  0  0
  -22.7280   -8.5600   21.2200 C   0  0  0  0  0  0  0  0  0  0  0  0
  -22.3690   -9.5250   20.2610 C   0  0  0  0  0  3  0  0  0  0  0  0
  -23.1530  -10.6760   20.0740 C   0  0  0  0  0  3  0  0  0  0  0  0
  -21.9170   -7.4560   21.3170 O   0  0  0  0  0  0  0  0  0  0  0  0
  -21.7800   -6.7640   22.4920 C   0  0  0  0  0  0  0  0  0  0  0  0
  -21.2720   -7.3740   23.6610 C   0  0  0  0  0  3  0  0  0  0  0  0
  -21.0830   -6.6090   24.8300 C   0  0  0  0  0  3  0  0  0  0  0  0
  -21.3890   -5.2340   24.8280 C   0  0  0  0  0  0  0  0  0  0  0  0
  -21.8910   -4.6260   23.6640 C   0  0  0  0  0  3  0  0  0  0  0  0
  -22.0810   -5.3890   22.4990 C   0  0  0  0  0  0  0  0  0  0  0  0
  -22.5450   -4.7920   21.3740 F   0  0  0  0  0  0  0  0  0  0  0  0
  -21.2010   -4.4960   25.9470 F   0  0  0  0  0  0  0  0  0  0  0  0
  -23.3620  -14.0340   21.0390 C   0  0  0  0  0  0  0  0  0  0  0  0
  -22.6300  -13.3710   21.9280 N   0  0  0  0  0  0  0  0  0  0  0  0
  -22.9620  -15.0860   20.5390 O   0  0  0  0  0  0  0  0  0  0  0  0
  -22.9640  -12.5140   22.3440 H   0  0  0  0  0  0  0  0  0  0  0  0
  -21.7200  -13.7220   22.1910 H   0  0  0  0  0  0  0  0  0  0  0  0
  -26.0520  -15.5600   20.1570 N   0  0  0  0  0  0  0  0  0  0  0  0
  -25.3340  -16.2570   20.3260 H   0  0  0  0  0  0  0  0  0  0  0  0
  -26.9200  -15.9590   19.8240 H   0  0  0  0  0  0  0  0  0  0  0  0
  -31.3870  -17.1010   22.6290 C   0  0  0  0  0  2  0  0  0  0  0  0
  -30.1320  -16.9870   23.2980 O   0  0  0  0  0  0  0  0  0  0  0  0
  -29.5700  -17.6940   22.9990 H   0  0  0  0  0  0  0  0  0  0  0  0
  1 55  1  0
  2  5  1  0
  2  3  1  0
  3  6  1  0
  4  5  1  0
  4  6  1  0
  5  8  1  0
  6  1  1  0
  7  1  2  0
  8 10  1  0
  9 11  2  0
  9 13  1  0
 10  9  1  0
 12 10  1  0
 13 14  1  0
 14 16  1  0
 15 26  2  0
 16 21  1  0
 17 25  1  0
 17 27  1  0
 18 24  1  0
 18 20  1  0
 19 25  1  0
 20 19  1  0
 21 20  2  0
 22 23  1  0
 22 16  2  0
 23 18  2  0
 24 17  1  0
 25 15  1  0
 27 29  2  0
 28 27  1  0
 30 28  1  0
 31 40  2  0
 31 36  1  0
 32 28  1  0
 32 36  1  0
 33 32  1  0
 34 35  1  0
 34 33  1  0
 35 31  1  0
 36 37  2  0
 37 38  1  0
 39 38  2  0
 40 39  1  0
 41 15  1  0
 41 42  1  0
 41 51  1  0
 42 45  1  0
 43 47  1  0
 43 42  1  0
 44 43  2  0
 47 46  1  0
 49 47  1  0
 49 50  1  0
 49 48  1  0
 51 54  1  1
 51 52  1  0
 53 51  1  0
 55 94  1  0
 56 64  1  0
 57 62  1  0
 58 59  1  0
 58 57  1  0
 60 59  1  0
 60 69  1  0
 60 61  1  0
 62 56  1  0
 62 61  1  0
 63 56  2  0
 64 55  1  0
 64 65  1  0
 66 67  2  0
 67 86  1  0
 68 67  1  0
 68 71  1  0
 69 70  1  0
 69 66  1  0
 70 68  2  0
 71 72  1  0
 72 73  2  0
 74 77  1  0
 74 73  1  0
 75 74  2  0
 76 75  1  0
 76 71  2  0
 77 78  1  0
 78 83  2  0
 78 79  1  0
 79 80  2  0
 81 80  1  0
 81 85  1  0
 82 81  2  0
 83 82  1  0
 84 83  1  0
 86 87  1  0
 87 90  1  0
 87 89  1  0
 88 86  2  0
 91 66  1  0
 91 92  1  0
 93 91  1  0
 94 95  1  0
 96 95  1  0
M  ISO  4  13 101  14 101  56 100  64 100
M  END
>  <TORSDO>  (57) 
F 22

>  <SCORE>  (57) 
-12.535

>  <name>  (57) 
56

>  <ligand_id>  (57) 
56

>  <original_smiles>  (57) 
[H]OC([H])([H])C([H])(C(=O)N1C([H])([H])C([H])([H])C([H])(C([H])([H])N([H])C(=O)C([H])([H])Oc2c([H])c([H])c3c(c2[H])C([H])([H])N(C(=O)C([H])(N([H])C(=O)C([H])(N([H])C([H])([H])[H])C([H])([H])[H])C(C([H])([H])[H])(C([H])([H])[H])C([H])([H])[H])C([H])(C(=O)N([H])C2([H])c4c([H])c([H])c([H])c([H])c4C([H])([H])C([H])([H])C2([H])[H])C3([H])[H])C1([H])[H])N([H])C(=O)N1C([H])([H])C([H])([H])C([H])([H])C([H])(n2nc(-c3c([H])c([H])c(Oc4c([H])c([H])c(F)c([H])c4F)c([H])c3[H])c(C(=O)N([H])[H])c2N([H])[H])C1([H])[H]

>  <smiles>  (57) 
[H]OC([H])([H])C([H])(C(=O)N1C([H])([H])C([H])([H])C([H])(C([H])([H])N([H])C(=O)C([H])([H])Oc2c([H])c([H])c3c(c2[H])C([H])([H])N(C(=O)C([H])(N([H])C(=O)C([H])(N([H])C([H])([H])[H])C([H])([H])[H])C(C([H])([H])[H])(C([H])([H])[H])C([H])([H])[H])C([H])(C(=O)N([H])C2([H])c4c([H])c([H])c([H])c([H])c4C([H])([H])C([H])([H])C2([H])[H])C3([H])[H])C1([H])[H])N([H])C(=O)N1C([H])([H])C([H])([H])C([H])([H])C([H])(n2nc(-c3c([H])c([H])c(Oc4c([H])c([H])c(F)c([H])c4F)c([H])c3[H])c(C(=O)N([H])[H])c2N([H])[H])C1([H])[H]

$$$$
57:0:0
     RDKit          3D

 95103  0  0  1  0  0  0  0  0999 V2000
  -29.3910  -19.8740   18.7050 C   0  0  0  0  0  3  0  0  0  0  0  0
  -29.7290  -18.5990   20.7490 C   0  0  0  0  0  3  0  0  0  0  0  0
  -29.8140  -17.4500   18.6110 C   0  0  0  0  0  3  0  0  0  0  0  0
  -29.4740  -19.8870   20.1130 C   0  0  0  0  0  0  0  0  0  0  0  0
  -29.5560  -18.6800   17.9600 C   0  0  0  0  0  0  0  0  0  0  0  0
  -29.9140  -17.3550   20.0170 C   0  0  0  0  0  0  0  0  0  0  0  0
  -30.7790  -14.9100   20.1670 C   0  0  0  0  0  0  0  0  0  0  0  0
  -30.5420  -12.6860   19.0740 C   0  0  0  0  0  2  0  0  0  0  0  0
  -29.5540  -12.8410   17.8960 C   0  0  0  0  0  2  0  0  0  0  0  0
  -28.1010  -12.6530   18.3730 C   0  0  0  0  0  2  0  0  0  0  0  0
  -27.7870  -13.4630   19.6590 C   0  0  0  0  0  3  0  0  0  0  0  0
  -28.8910  -13.2950   20.7270 C   0  0  0  0  0  2  0  0  0  0  0  0
  -30.1690  -13.6780   20.1090 N   0  0  0  0  0  0  0  0  0  0  0  0
  -31.9230  -15.0520   19.7220 O   0  0  0  0  0  0  0  0  0  0  0  0
  -30.0480  -16.0020   20.6100 N   0  0  0  0  0  0  0  0  0  0  0  0
  -29.2670  -15.7340   21.1910 H   0  0  0  0  0  0  0  0  0  0  0  0
  -25.4250  -14.0170   20.5000 C   0  0  0  0  0  0  0  0  0  0  0  0
  -24.3760  -13.2260   20.8830 C   0  0  0  0  0  0  0  0  0  0  0  0
  -24.8420  -11.8790   20.7840 C   0  0  0  0  0  0  0  0  0  0  0  0
  -26.4610  -13.1520   20.1880 N   0  0  0  0  0  0  0  0  0  0  0  0
  -26.1190  -11.8580   20.4200 N   0  0  0  0  0  0  0  0  0  0  0  0
  -24.1280  -10.6070   20.9590 C   0  0  0  0  0  0  0  0  0  0  0  0
  -24.5650   -9.6350   21.8870 C   0  0  0  0  0  3  0  0  0  0  0  0
  -23.8510   -8.4280   22.0490 C   0  0  0  0  0  3  0  0  0  0  0  0
  -22.6850   -8.1840   21.2850 C   0  0  0  0  0  0  0  0  0  0  0  0
  -22.2670   -9.1440   20.3460 C   0  0  0  0  0  3  0  0  0  0  0  0
  -22.9820  -10.3420   20.1820 C   0  0  0  0  0  3  0  0  0  0  0  0
  -21.9440   -7.0290   21.3560 O   0  0  0  0  0  0  0  0  0  0  0  0
  -21.8510   -6.3050   22.5170 C   0  0  0  0  0  0  0  0  0  0  0  0
  -21.3140   -6.8590   23.7000 C   0  0  0  0  0  3  0  0  0  0  0  0
  -21.1710   -6.0580   24.8500 C   0  0  0  0  0  3  0  0  0  0  0  0
  -21.5540   -4.7040   24.8190 C   0  0  0  0  0  0  0  0  0  0  0  0
  -22.0840   -4.1500   23.6410 C   0  0  0  0  0  3  0  0  0  0  0  0
  -22.2290   -4.9480   22.4930 C   0  0  0  0  0  0  0  0  0  0  0  0
  -22.7200   -4.4030   21.3540 F   0  0  0  0  0  0  0  0  0  0  0  0
  -21.4090   -3.9320   25.9210 F   0  0  0  0  0  0  0  0  0  0  0  0
  -22.9910  -13.6870   21.2280 C   0  0  0  0  0  0  0  0  0  0  0  0
  -22.2990  -12.9560   22.0940 N   0  0  0  0  0  0  0  0  0  0  0  0
  -22.5330  -14.7320   20.7690 O   0  0  0  0  0  0  0  0  0  0  0  0
  -22.6840  -12.1120   22.4920 H   0  0  0  0  0  0  0  0  0  0  0  0
  -21.3690  -13.2440   22.3650 H   0  0  0  0  0  0  0  0  0  0  0  0
  -25.5800  -15.3940   20.3680 N   0  0  0  0  0  0  0  0  0  0  0  0
  -24.8240  -16.0450   20.5480 H   0  0  0  0  0  0  0  0  0  0  0  0
  -26.4150  -15.8460   20.0190 H   0  0  0  0  0  0  0  0  0  0  0  0
  -29.4310  -18.7280   16.4410 C   0  0  1  0  0  0  0  0  0  0  0  0
  -29.9120  -19.8800   15.9770 F   0  0  0  0  0  0  0  0  0  0  0  0
  -30.0970  -17.7330   15.8510 F   0  0  0  0  0  0  0  0  0  0  0  0
  -28.1450  -18.6340   16.0970 F   0  0  0  0  0  0  0  0  0  0  0  0
  -29.3760  -21.2780   20.8920 C   0  0  0  0  0  2  0  0  0  0  0  0
  -28.9140  -23.8600   20.6610 C   0  0  0  0  0  0  0  0  0  0  0  0
  -28.7190  -22.5290   20.3060 N   0  0  0  0  0  0  0  0  0  0  0  0
  -29.8250  -24.1660   21.4330 O   0  0  0  0  0  0  0  0  0  0  0  0
  -27.9590  -22.3570   19.6610 H   0  0  0  0  0  0  0  0  0  0  0  0
  -27.9460  -25.0240   20.1280 C   0  0  0  0  0  2  0  0  0  0  0  0
  -28.2580  -26.4750   20.4280 O   0  0  0  0  0  0  0  0  0  0  0  0
  -24.6820  -32.0650   23.4310 C   0  0  0  0  0  0  0  0  0  0  0  0
  -27.1920  -27.4120   20.3620 C   0  0  0  0  0  0  0  0  0  0  0  0
  -23.4550  -30.6970   21.7880 C   0  0  0  0  0  3  0  0  0  0  0  0
  -24.8760  -29.1230   20.3560 C   0  0  0  0  0  0  0  0  0  0  0  0
  -26.0070  -30.9470   21.6160 C   0  0  0  0  0  2  0  0  0  0  0  0
  -26.0580  -29.5650   20.9620 C   0  0  0  0  0  0  0  0  0  0  0  0
  -27.2190  -28.7220   20.9580 C   0  0  0  0  0  3  0  0  0  0  0  0
  -25.9870  -27.0530   19.7130 C   0  0  0  0  0  3  0  0  0  0  0  0
  -24.8460  -27.8750   19.7220 C   0  0  0  0  0  3  0  0  0  0  0  0
  -23.6590  -30.0280   20.4060 C   0  0  0  0  0  2  0  0  0  0  0  0
  -24.7340  -31.2540   22.3350 N   0  0  0  0  0  0  0  0  0  0  0  0
  -23.6020  -32.3630   23.9640 O   0  0  0  0  0  0  0  0  0  0  0  0
  -22.7660  -29.6900   22.7430 C   0  0  0  0  0  0  0  0  0  0  0  0
  -21.4470  -29.4970   22.5740 N   0  0  0  0  0  0  0  0  0  0  0  0
  -23.4230  -29.0860   23.5940 O   0  0  0  0  0  0  0  0  0  0  0  0
  -20.9760  -30.0370   21.8630 H   0  0  0  0  0  0  0  0  0  0  0  0
  -18.0680  -28.2640   22.9800 C   0  0  0  0  0  0  0  0  0  0  0  0
  -20.6120  -28.5660   23.3350 C   0  0  0  0  0  3  0  0  0  0  0  0
  -20.7540  -27.1230   22.7970 C   0  0  0  0  0  2  0  0  0  0  0  0
  -19.6940  -26.7610   21.7510 C   0  0  0  0  0  2  0  0  0  0  0  0
  -18.2880  -26.9020   22.3420 C   0  0  0  0  0  2  0  0  0  0  0  0
  -19.1610  -29.0510   23.4320 C   0  0  0  0  0  0  0  0  0  0  0  0
  -18.9030  -30.3230   23.9880 C   0  0  0  0  0  3  0  0  0  0  0  0
  -17.5870  -30.8090   24.0960 C   0  0  0  0  0  3  0  0  0  0  0  0
  -16.5090  -30.0200   23.6600 C   0  0  0  0  0  3  0  0  0  0  0  0
  -16.7500  -28.7490   23.1070 C   0  0  0  0  0  3  0  0  0  0  0  0
  -25.9730  -32.6720   24.0580 C   0  0  0  0  0  3  0  0  0  0  0  0
  -26.4880  -31.8720   25.3160 C   0  0  1  0  0  0  0  0  0  0  0  0
  -25.3860  -31.5810   26.3630 C   0  0  0  0  0  1  0  0  0  0  0  0
  -27.1030  -30.5170   24.8940 C   0  0  0  0  0  1  0  0  0  0  0  0
  -27.6140  -32.6660   26.0170 C   0  0  0  0  0  1  0  0  0  0  0  0
  -25.6790  -34.0670   24.4200 N   0  0  0  0  0  0  0  0  0  0  0  0
  -25.9820  -35.1310   23.6640 C   0  0  0  0  0  0  0  0  0  0  0  0
  -26.6090  -35.0400   22.6030 O   0  0  0  0  0  0  0  0  0  0  0  0
  -25.1180  -34.2100   25.2460 H   0  0  0  0  0  0  0  0  0  0  0  0
  -24.2270  -36.9190   23.4320 C   0  0  0  0  0  1  0  0  0  0  0  0
  -25.5190  -36.5130   24.1600 C   0  0  0  0  0  3  0  0  0  0  0  0
  -27.6930  -37.4120   24.8710 C   0  0  0  0  0  1  0  0  0  0  0  0
  -26.5380  -37.5730   23.9900 N   0  0  0  0  0  0  0  0  0  0  0  0
  -26.1360  -38.4910   24.1590 H   0  0  0  0  0  0  0  0  0  0  0  0
  1  4  1  0
  3  6  2  0
  4  2  2  0
  4 49  1  0
  5  3  1  0
  5  1  2  0
  6 15  1  0
  6  2  1  0
  7 15  1  0
  8 13  1  0
  9 10  1  0
  9  8  1  0
 11 10  1  0
 11 20  1  0
 11 12  1  0
 13  7  1  0
 13 12  1  0
 14  7  2  0
 15 16  1  0
 17 18  2  0
 18 37  1  0
 19 18  1  0
 19 22  1  0
 20 21  1  0
 20 17  1  0
 21 19  2  0
 22 23  1  0
 23 24  2  0
 25 28  1  0
 25 24  1  0
 26 25  2  0
 27 26  1  0
 27 22  2  0
 28 29  1  0
 29 30  1  0
 30 31  2  0
 32 31  1  0
 32 36  1  0
 33 32  2  0
 34 29  2  0
 34 33  1  0
 35 34  1  0
 37 38  1  0
 38 41  1  0
 38 40  1  0
 39 37  2  0
 42 17  1  0
 42 43  1  0
 44 42  1  0
 45  5  1  0
 45 46  1  6
 47 45  1  0
 48 45  1  0
 50 52  2  0
 51 50  1  0
 51 49  1  0
 53 51  1  0
 54 55  1  0
 54 50  1  0
 56 67  2  0
 57 55  1  0
 57 62  1  0
 58 66  1  0
 58 68  1  0
 59 65  1  0
 59 61  1  0
 60 66  1  0
 61 60  1  0
 62 61  2  0
 63 64  1  0
 63 57  2  0
 64 59  2  0
 65 58  1  0
 66 56  1  0
 68 70  2  0
 69 68  1  0
 71 69  1  0
 72 81  2  0
 72 77  1  0
 73 69  1  0
 73 77  1  0
 74 73  1  0
 75 76  1  0
 75 74  1  0
 76 72  1  0
 77 78  2  0
 78 79  1  0
 80 79  2  0
 81 80  1  0
 82 56  1  0
 82 87  1  0
 82 83  1  0
 83 86  1  1
 83 84  1  0
 85 83  1  0
 87 90  1  0
 88 92  1  0
 88 87  1  0
 89 88  2  0
 92 91  1  0
 94 95  1  0
 94 92  1  0
 94 93  1  0
M  ISO  4   7 100  15 100  54 101  55 101
M  END
>  <TORSDO>  (58) 
F 20

>  <SCORE>  (58) 
-13.641

>  <name>  (58) 
57

>  <ligand_id>  (58) 
57

>  <original_smiles>  (58) 
[H]c1c([H])c([H])c2c(c1[H])C([H])([H])C([H])([H])C([H])([H])C2([H])N([H])C(=O)C1([H])N(C(=O)C([H])(N([H])C(=O)C([H])(N([H])C([H])([H])[H])C([H])([H])[H])C(C([H])([H])[H])(C([H])([H])[H])C([H])([H])[H])C([H])([H])c2c([H])c(OC([H])([H])C(=O)N([H])C([H])([H])c3c([H])c(N([H])C(=O)N4C([H])([H])C([H])([H])C([H])([H])C([H])(n5nc(-c6c([H])c([H])c(Oc7c([H])c([H])c(F)c([H])c7F)c([H])c6[H])c(C(=O)N([H])[H])c5N([H])[H])C4([H])[H])c([H])c(C(F)(F)F)c3[H])c([H])c([H])c2C1([H])[H]

>  <smiles>  (58) 
[H]c1c([H])c([H])c2c(c1[H])C([H])([H])C([H])([H])C([H])([H])C2([H])N([H])C(=O)C1([H])N(C(=O)C([H])(N([H])C(=O)C([H])(N([H])C([H])([H])[H])C([H])([H])[H])C(C([H])([H])[H])(C([H])([H])[H])C([H])([H])[H])C([H])([H])c2c([H])c(OC([H])([H])C(=O)N([H])C([H])([H])c3c([H])c(N([H])C(=O)N4C([H])([H])C([H])([H])C([H])([H])C([H])(n5nc(-c6c([H])c([H])c(Oc7c([H])c([H])c(F)c([H])c7F)c([H])c6[H])c(C(=O)N([H])[H])c5N([H])[H])C4([H])[H])c([H])c(C(F)(F)F)c3[H])c([H])c([H])c2C1([H])[H]

$$$$
58:0:0
     RDKit          3D

 95104  0  0  1  0  0  0  0  0999 V2000
  -32.5110  -23.2710   20.5150 C   0  0  0  0  0  2  0  0  0  0  0  0
  -31.9670  -22.0750   19.7380 C   0  0  0  0  0  2  0  0  0  0  0  0
  -31.3070  -24.2040   20.5940 C   0  0  0  0  0  2  0  0  0  0  0  0
  -30.4840  -21.9670   20.1520 C   0  0  0  0  0  3  0  0  0  0  0  0
  -30.1010  -23.3380   20.6170 N   0  0  2  0  0  4  0  0  0  0  0  0
  -29.8710  -23.1420   21.5890 H   0  0  0  0  0  0  0  0  0  0  0  0
  -30.2670  -21.0060   21.3650 C   0  0  0  0  0  0  0  0  0  0  0  0
  -30.0390  -21.5040   22.4770 O   0  0  0  0  0  0  0  0  0  0  0  0
  -30.4880  -18.8390   19.9610 C   0  0  0  0  0  3  0  0  0  0  0  0
  -30.2450  -18.6920   22.3660 C   0  0  0  0  0  3  0  0  0  0  0  0
  -30.5650  -17.4260   19.8880 C   0  0  0  0  0  3  0  0  0  0  0  0
  -30.2960  -17.2840   22.2930 C   0  0  0  0  0  3  0  0  0  0  0  0
  -30.3340  -19.5020   21.2070 C   0  0  0  0  0  0  0  0  0  0  0  0
  -30.4660  -16.6290   21.0560 C   0  0  0  0  0  0  0  0  0  0  0  0
  -30.9780  -14.3360   20.1620 C   0  0  0  0  0  0  0  0  0  0  0  0
  -30.5800  -12.2360   18.9180 C   0  0  0  0  0  2  0  0  0  0  0  0
  -29.5620  -12.5100   17.7910 C   0  0  0  0  0  2  0  0  0  0  0  0
  -28.1170  -12.3780   18.3080 C   0  0  0  0  0  2  0  0  0  0  0  0
  -27.8810  -13.1560   19.6310 C   0  0  0  0  0  3  0  0  0  0  0  0
  -29.0000  -12.8500   20.6530 C   0  0  0  0  0  2  0  0  0  0  0  0
  -30.2980  -13.1640   20.0250 N   0  0  0  0  0  0  0  0  0  0  0  0
  -32.0020  -14.5960   19.5220 O   0  0  0  0  0  0  0  0  0  0  0  0
  -30.4480  -15.1990   21.0500 N   0  0  0  0  0  0  0  0  0  0  0  0
  -29.7980  -14.7710   21.6940 H   0  0  0  0  0  0  0  0  0  0  0  0
  -25.5450  -13.7720   20.5230 C   0  0  0  0  0  0  0  0  0  0  0  0
  -24.4860  -13.0010   20.9220 C   0  0  0  0  0  0  0  0  0  0  0  0
  -24.9130  -11.6440   20.7880 C   0  0  0  0  0  0  0  0  0  0  0  0
  -26.5540  -12.8840   20.1800 N   0  0  0  0  0  0  0  0  0  0  0  0
  -26.1790  -11.5970   20.3910 N   0  0  0  0  0  0  0  0  0  0  0  0
  -24.1730  -10.3870   20.9610 C   0  0  0  0  0  0  0  0  0  0  0  0
  -24.5830   -9.4090   21.8920 C   0  0  0  0  0  3  0  0  0  0  0  0
  -23.8430   -8.2170   22.0530 C   0  0  0  0  0  3  0  0  0  0  0  0
  -22.6790   -7.9960   21.2810 C   0  0  0  0  0  0  0  0  0  0  0  0
  -22.2870   -8.9630   20.3380 C   0  0  0  0  0  3  0  0  0  0  0  0
  -23.0270  -10.1450   20.1760 C   0  0  0  0  0  3  0  0  0  0  0  0
  -21.9130   -6.8580   21.3510 O   0  0  0  0  0  0  0  0  0  0  0  0
  -21.7620   -6.1620   22.5240 C   0  0  0  0  0  0  0  0  0  0  0  0
  -21.2040   -6.7580   23.6770 C   0  0  0  0  0  3  0  0  0  0  0  0
  -21.0030   -5.9870   24.8390 C   0  0  0  0  0  3  0  0  0  0  0  0
  -21.3490   -4.6220   24.8490 C   0  0  0  0  0  0  0  0  0  0  0  0
  -21.8980   -4.0260   23.7000 C   0  0  0  0  0  3  0  0  0  0  0  0
  -22.1010   -4.7940   22.5400 C   0  0  0  0  0  0  0  0  0  0  0  0
  -22.6110   -4.2100   21.4280 F   0  0  0  0  0  0  0  0  0  0  0  0
  -21.1470   -3.8790   25.9620 F   0  0  0  0  0  0  0  0  0  0  0  0
  -23.1220  -13.4880   21.3170 C   0  0  0  0  0  0  0  0  0  0  0  0
  -22.4590  -12.7820   22.2270 N   0  0  0  0  0  0  0  0  0  0  0  0
  -22.6550  -14.5290   20.8560 O   0  0  0  0  0  0  0  0  0  0  0  0
  -22.8490  -11.9390   22.6190 H   0  0  0  0  0  0  0  0  0  0  0  0
  -21.5460  -13.0890   22.5330 H   0  0  0  0  0  0  0  0  0  0  0  0
  -25.7300  -15.1460   20.4060 N   0  0  0  0  0  0  0  0  0  0  0  0
  -24.9950  -15.8130   20.6160 H   0  0  0  0  0  0  0  0  0  0  0  0
  -26.5770  -15.5840   20.0640 H   0  0  0  0  0  0  0  0  0  0  0  0
  -28.9140  -23.9790   19.9750 C   0  0  0  0  0  2  0  0  0  0  0  0
  -28.3800  -25.1970   20.7820 C   0  0  0  0  0  2  0  0  0  0  0  0
  -28.4890  -26.4480   20.0770 O   0  0  0  0  0  0  0  0  0  0  0  0
  -24.5810  -31.5990   23.0760 C   0  0  0  0  0  0  0  0  0  0  0  0
  -27.3290  -27.1890   20.0480 C   0  0  0  0  0  0  0  0  0  0  0  0
  -23.4240  -30.1880   21.4050 C   0  0  0  0  0  3  0  0  0  0  0  0
  -24.9230  -28.6660   20.0090 C   0  0  0  0  0  0  0  0  0  0  0  0
  -25.9480  -30.5750   21.2590 C   0  0  0  0  0  2  0  0  0  0  0  0
  -26.0630  -29.2060   20.6200 C   0  0  0  0  0  0  0  0  0  0  0  0
  -27.2740  -28.4750   20.6310 C   0  0  0  0  0  3  0  0  0  0  0  0
  -26.1760  -26.6640   19.4280 C   0  0  0  0  0  3  0  0  0  0  0  0
  -24.9730  -27.3950   19.4100 C   0  0  0  0  0  3  0  0  0  0  0  0
  -23.6690  -29.5120   20.0300 C   0  0  0  0  0  2  0  0  0  0  0  0
  -24.6680  -30.8030   21.9730 N   0  0  0  0  0  0  0  0  0  0  0  0
  -23.4870  -31.8580   23.5940 O   0  0  0  0  0  0  0  0  0  0  0  0
  -22.7620  -29.1590   22.3500 C   0  0  0  0  0  0  0  0  0  0  0  0
  -21.4360  -28.9930   22.2190 N   0  0  0  0  0  0  0  0  0  0  0  0
  -23.4390  -28.5140   23.1550 O   0  0  0  0  0  0  0  0  0  0  0  0
  -20.9510  -29.5660   21.5430 H   0  0  0  0  0  0  0  0  0  0  0  0
  -18.0470  -27.8480   22.7210 C   0  0  0  0  0  0  0  0  0  0  0  0
  -20.6110  -28.0510   22.9740 C   0  0  0  0  0  3  0  0  0  0  0  0
  -20.6810  -26.6320   22.3610 C   0  0  0  0  0  2  0  0  0  0  0  0
  -19.5630  -26.3550   21.3510 C   0  0  0  0  0  2  0  0  0  0  0  0
  -18.1900  -26.5120   22.0100 C   0  0  0  0  0  2  0  0  0  0  0  0
  -19.1830  -28.5770   23.1590 C   0  0  0  0  0  0  0  0  0  0  0  0
  -18.9950  -29.8310   23.7820 C   0  0  0  0  0  3  0  0  0  0  0  0
  -17.7020  -30.3540   23.9690 C   0  0  0  0  0  3  0  0  0  0  0  0
  -16.5790  -29.6190   23.5480 C   0  0  0  0  0  3  0  0  0  0  0  0
  -16.7530  -28.3690   22.9300 C   0  0  0  0  0  3  0  0  0  0  0  0
  -25.8480  -32.2400   23.7240 C   0  0  0  0  0  3  0  0  0  0  0  0
  -26.3630  -31.4560   24.9940 C   0  0  1  0  0  0  0  0  0  0  0  0
  -25.2620  -31.1840   26.0460 C   0  0  0  0  0  1  0  0  0  0  0  0
  -26.9710  -30.0950   24.5830 C   0  0  0  0  0  1  0  0  0  0  0  0
  -27.4920  -32.2590   25.6830 C   0  0  0  0  0  1  0  0  0  0  0  0
  -25.5150  -33.6290   24.0690 N   0  0  0  0  0  0  0  0  0  0  0  0
  -25.8430  -34.6940   23.3270 C   0  0  0  0  0  0  0  0  0  0  0  0
  -26.5290  -34.6140   22.3050 O   0  0  0  0  0  0  0  0  0  0  0  0
  -24.9120  -33.7650   24.8670 H   0  0  0  0  0  0  0  0  0  0  0  0
  -24.1020  -36.4720   22.9600 C   0  0  0  0  0  1  0  0  0  0  0  0
  -25.3280  -36.0690   23.7960 C   0  0  0  0  0  3  0  0  0  0  0  0
  -27.4240  -36.9720   24.7020 C   0  0  0  0  0  1  0  0  0  0  0  0
  -26.3500  -37.1360   23.7250 N   0  0  0  0  0  0  0  0  0  0  0  0
  -25.9290  -38.0490   23.8690 H   0  0  0  0  0  0  0  0  0  0  0  0
  1  3  1  0
  2  4  1  0
  2  1  1  0
  3  5  1  0
  4  5  1  0
  4  7  1  0
  5  6  1  1
  7  8  2  0
  9 13  1  0
 11  9  2  0
 11 14  1  0
 12 10  1  0
 13  7  1  0
 13 10  2  0
 14 12  2  0
 15 23  1  0
 16 21  1  0
 17 18  1  0
 17 16  1  0
 19 18  1  0
 19 28  1  0
 19 20  1  0
 21 15  1  0
 21 20  1  0
 22 15  2  0
 23 14  1  0
 23 24  1  0
 25 26  2  0
 26 45  1  0
 27 26  1  0
 27 30  1  0
 28 29  1  0
 28 25  1  0
 29 27  2  0
 30 31  1  0
 31 32  2  0
 33 36  1  0
 33 32  1  0
 34 33  2  0
 35 34  1  0
 35 30  2  0
 36 37  1  0
 37 42  2  0
 37 38  1  0
 38 39  2  0
 39 40  1  0
 40 44  1  0
 41 40  2  0
 42 41  1  0
 43 42  1  0
 45 46  1  0
 46 49  1  0
 46 48  1  0
 47 45  2  0
 50 25  1  0
 50 51  1  0
 52 50  1  0
 53  5  1  0
 53 54  1  0
 55 54  1  0
 56 67  2  0
 57 55  1  0
 57 62  1  0
 58 66  1  0
 58 68  1  0
 59 65  1  0
 59 61  1  0
 60 66  1  0
 61 62  2  0
 61 60  1  0
 63 57  2  0
 64 63  1  0
 64 59  2  0
 65 58  1  0
 66 56  1  0
 68 70  2  0
 69 68  1  0
 71 69  1  0
 72 81  2  0
 72 77  1  0
 73 69  1  0
 73 77  1  0
 74 73  1  0
 75 76  1  0
 75 74  1  0
 76 72  1  0
 77 78  2  0
 78 79  1  0
 80 79  2  0
 81 80  1  0
 82 56  1  0
 82 87  1  0
 82 83  1  0
 83 86  1  1
 83 84  1  0
 85 83  1  0
 87 90  1  0
 88 92  1  0
 88 87  1  0
 89 88  2  0
 92 91  1  0
 94 92  1  0
 94 95  1  0
 94 93  1  0
M  ISO  4  15 100  23 100  54 101  55 101
M  END
>  <TORSDO>  (59) 
F 20

>  <SCORE>  (59) 
-12.611

>  <name>  (59) 
58

>  <ligand_id>  (59) 
58

>  <original_smiles>  (59) 
[H]c1c([H])c([H])c2c(c1[H])C([H])([H])C([H])([H])C([H])([H])C2([H])N([H])C(=O)C1([H])N(C(=O)C([H])(N([H])C(=O)C([H])(N([H])C([H])([H])[H])C([H])([H])[H])C(C([H])([H])[H])(C([H])([H])[H])C([H])([H])[H])C([H])([H])c2c([H])c(OC([H])([H])C([H])([H])[N+]3([H])C([H])([H])C([H])([H])C([H])([H])C3([H])C(=O)c3c([H])c([H])c(N([H])C(=O)N4C([H])([H])C([H])([H])C([H])([H])C([H])(n5nc(-c6c([H])c([H])c(Oc7c([H])c([H])c(F)c([H])c7F)c([H])c6[H])c(C(=O)N([H])[H])c5N([H])[H])C4([H])[H])c([H])c3[H])c([H])c([H])c2C1([H])[H]

>  <smiles>  (59) 
[H]c1c([H])c([H])c2c(c1[H])C([H])([H])C([H])([H])C([H])([H])C2([H])N([H])C(=O)C1([H])N(C(=O)C([H])(N([H])C(=O)C([H])(N([H])C([H])([H])[H])C([H])([H])[H])C(C([H])([H])[H])(C([H])([H])[H])C([H])([H])[H])C([H])([H])c2c([H])c(OC([H])([H])C([H])([H])[N+]3([H])C([H])([H])C([H])([H])C([H])([H])C3([H])C(=O)c3c([H])c([H])c(N([H])C(=O)N4C([H])([H])C([H])([H])C([H])([H])C([H])(n5nc(-c6c([H])c([H])c(Oc7c([H])c([H])c(F)c([H])c7F)c([H])c6[H])c(C(=O)N([H])[H])c5N([H])[H])C4([H])[H])c([H])c3[H])c([H])c([H])c2C1([H])[H]

$$$$
59:0:0
     RDKit          3D

 94103  0  0  1  0  0  0  0  0999 V2000
  -28.8270  -22.4220   20.0940 C   0  0  0  0  0  3  0  0  0  0  0  0
  -30.0080  -20.1840   20.6160 C   0  0  0  0  0  0  0  0  0  0  0  0
  -29.1310  -21.1940   20.9230 N   0  0  0  0  0  0  0  0  0  0  0  0
  -31.1510  -20.4480   20.2400 O   0  0  0  0  0  0  0  0  0  0  0  0
  -28.3130  -20.8620   21.4180 H   0  0  0  0  0  0  0  0  0  0  0  0
  -30.6150  -14.8120   20.3070 C   0  0  0  0  0  0  0  0  0  0  0  0
  -30.3650  -12.5310   19.3150 C   0  0  0  0  0  2  0  0  0  0  0  0
  -29.4090  -12.5310   18.1030 C   0  0  0  0  0  2  0  0  0  0  0  0
  -27.9470  -12.3360   18.5560 C   0  0  0  0  0  2  0  0  0  0  0  0
  -27.5580  -13.2420   19.7470 C   0  0  0  0  0  3  0  0  0  0  0  0
  -28.6410  -13.2750   20.8530 C   0  0  0  0  0  2  0  0  0  0  0  0
  -29.9320  -13.6120   20.2320 N   0  0  0  0  0  0  0  0  0  0  0  0
  -31.8370  -14.8210   20.1540 O   0  0  0  0  0  0  0  0  0  0  0  0
  -28.5280  -18.5770   19.3980 C   0  0  0  0  0  2  0  0  0  0  0  0
  -30.6480  -17.6470   18.7360 C   0  0  0  0  0  2  0  0  0  0  0  0
  -28.8950  -16.1580   19.2110 C   0  0  0  0  0  2  0  0  0  0  0  0
  -29.5010  -18.6690   20.6000 C   0  0  0  0  0  3  0  0  0  0  0  0
  -29.1540  -17.4900   18.5260 C   0  0  0  0  0  3  0  0  0  0  0  0
  -30.5080  -17.4400   20.2420 C   0  0  0  0  0  3  0  0  0  0  0  0
  -29.9090  -16.0240   20.2670 N   0  0  0  0  0  0  0  0  0  0  0  0
  -25.1930  -13.8630   20.5090 C   0  0  0  0  0  0  0  0  0  0  0  0
  -24.1280  -13.0930   20.8780 C   0  0  0  0  0  0  0  0  0  0  0  0
  -24.5930  -11.7430   20.8470 C   0  0  0  0  0  0  0  0  0  0  0  0
  -26.2310  -12.9740   20.2670 N   0  0  0  0  0  0  0  0  0  0  0  0
  -25.8810  -11.6980   20.5390 N   0  0  0  0  0  0  0  0  0  0  0  0
  -23.8750  -10.4800   21.0320 C   0  0  0  0  0  0  0  0  0  0  0  0
  -24.3120   -9.5200   21.9720 C   0  0  0  0  0  3  0  0  0  0  0  0
  -23.5960   -8.3170   22.1440 C   0  0  0  0  0  3  0  0  0  0  0  0
  -22.4310   -8.0700   21.3790 C   0  0  0  0  0  0  0  0  0  0  0  0
  -22.0170   -9.0190   20.4300 C   0  0  0  0  0  3  0  0  0  0  0  0
  -22.7330  -10.2140   20.2540 C   0  0  0  0  0  3  0  0  0  0  0  0
  -21.6860   -6.9190   21.4630 O   0  0  0  0  0  0  0  0  0  0  0  0
  -21.6270   -6.1870   22.6200 C   0  0  0  0  0  0  0  0  0  0  0  0
  -21.1560   -6.7410   23.8310 C   0  0  0  0  0  3  0  0  0  0  0  0
  -21.0450   -5.9320   24.9800 C   0  0  0  0  0  3  0  0  0  0  0  0
  -21.3970   -4.5710   24.9190 C   0  0  0  0  0  0  0  0  0  0  0  0
  -21.8630   -4.0160   23.7140 C   0  0  0  0  0  3  0  0  0  0  0  0
  -21.9760   -4.8220   22.5680 C   0  0  0  0  0  0  0  0  0  0  0  0
  -22.4040   -4.2790   21.4030 F   0  0  0  0  0  0  0  0  0  0  0  0
  -21.2840   -3.7900   26.0200 F   0  0  0  0  0  0  0  0  0  0  0  0
  -22.7290  -13.5690   21.1460 C   0  0  0  0  0  0  0  0  0  0  0  0
  -21.9980  -12.8690   22.0050 N   0  0  0  0  0  0  0  0  0  0  0  0
  -22.2950  -14.5990   20.6310 O   0  0  0  0  0  0  0  0  0  0  0  0
  -22.3580  -12.0330   22.4450 H   0  0  0  0  0  0  0  0  0  0  0  0
  -21.0620  -13.1750   22.2290 H   0  0  0  0  0  0  0  0  0  0  0  0
  -25.3590  -15.2360   20.3370 N   0  0  0  0  0  0  0  0  0  0  0  0
  -24.6050  -15.8990   20.4830 H   0  0  0  0  0  0  0  0  0  0  0  0
  -26.2230  -15.6740   20.0460 H   0  0  0  0  0  0  0  0  0  0  0  0
  -28.9210  -23.8940   20.7400 C   0  0  0  0  0  3  0  0  0  0  0  0
  -28.3210  -25.0960   19.8590 C   0  0  0  0  0  3  0  0  0  0  0  0
  -28.3580  -26.5230   20.2830 O   0  0  0  0  0  0  0  0  0  0  0  0
  -24.5890  -31.9040   23.2490 C   0  0  0  0  0  0  0  0  0  0  0  0
  -27.2200  -27.3530   20.1840 C   0  0  0  0  0  0  0  0  0  0  0  0
  -23.3870  -30.5070   21.6050 C   0  0  0  0  0  3  0  0  0  0  0  0
  -24.8430  -28.9660   20.1730 C   0  0  0  0  0  0  0  0  0  0  0  0
  -25.9280  -30.8260   21.4300 C   0  0  0  0  0  2  0  0  0  0  0  0
  -26.0080  -29.4500   20.7800 C   0  0  0  0  0  0  0  0  0  0  0  0
  -27.1910  -28.6510   20.7860 C   0  0  0  0  0  3  0  0  0  0  0  0
  -26.0340  -26.9440   19.5240 C   0  0  0  0  0  3  0  0  0  0  0  0
  -24.8590  -27.7170   19.5390 C   0  0  0  0  0  3  0  0  0  0  0  0
  -23.6020  -29.8350   20.2230 C   0  0  0  0  0  2  0  0  0  0  0  0
  -24.6530  -31.0960   22.1500 N   0  0  0  0  0  0  0  0  0  0  0  0
  -23.5040  -32.1780   23.7830 O   0  0  0  0  0  0  0  0  0  0  0  0
  -22.7280  -29.4860   22.5620 C   0  0  0  0  0  0  0  0  0  0  0  0
  -21.4020  -29.3040   22.4330 N   0  0  0  0  0  0  0  0  0  0  0  0
  -23.4080  -28.8600   23.3790 O   0  0  0  0  0  0  0  0  0  0  0  0
  -20.9110  -29.8600   21.7470 H   0  0  0  0  0  0  0  0  0  0  0  0
  -18.0280  -28.1070   22.9420 C   0  0  0  0  0  0  0  0  0  0  0  0
  -20.5870  -28.3640   23.2040 C   0  0  0  0  0  3  0  0  0  0  0  0
  -20.6860  -26.9340   22.6240 C   0  0  0  0  0  2  0  0  0  0  0  0
  -19.5810  -26.6170   21.6100 C   0  0  0  0  0  2  0  0  0  0  0  0
  -18.2010  -26.7600   22.2600 C   0  0  0  0  0  2  0  0  0  0  0  0
  -19.1480  -28.8660   23.3710 C   0  0  0  0  0  0  0  0  0  0  0  0
  -18.9330  -30.1270   23.9700 C   0  0  0  0  0  3  0  0  0  0  0  0
  -17.6290  -30.6280   24.1430 C   0  0  0  0  0  3  0  0  0  0  0  0
  -16.5230  -29.8660   23.7280 C   0  0  0  0  0  3  0  0  0  0  0  0
  -16.7230  -28.6060   23.1360 C   0  0  0  0  0  3  0  0  0  0  0  0
  -25.8710  -32.5370   23.8730 C   0  0  0  0  0  3  0  0  0  0  0  0
  -25.5640  -33.9390   24.1870 N   0  0  0  0  0  0  0  0  0  0  0  0
  -25.9060  -34.9850   23.4220 C   0  0  0  0  0  0  0  0  0  0  0  0
  -26.5820  -34.8690   22.3970 O   0  0  0  0  0  0  0  0  0  0  0  0
  -24.9660  -34.1040   24.9840 H   0  0  0  0  0  0  0  0  0  0  0  0
  -24.1940  -36.7870   23.0330 C   0  0  0  0  0  1  0  0  0  0  0  0
  -25.4210  -36.3800   23.8650 C   0  0  0  0  0  3  0  0  0  0  0  0
  -27.5460  -37.2560   24.7250 C   0  0  0  0  0  1  0  0  0  0  0  0
  -26.4620  -37.4250   23.7630 N   0  0  0  0  0  0  0  0  0  0  0  0
  -26.0600  -38.3490   23.8980 H   0  0  0  0  0  0  0  0  0  0  0  0
  -26.3800  -31.7760   25.1600 C   0  0  1  0  0  0  0  0  0  0  0  0
  -25.2800  -31.5500   26.2230 C   0  0  0  0  0  1  0  0  0  0  0  0
  -26.9610  -30.3930   24.7870 C   0  0  0  0  0  1  0  0  0  0  0  0
  -27.5270  -32.5750   25.8210 C   0  0  0  0  0  1  0  0  0  0  0  0
  -27.4040  -22.1810   19.5260 C   0  0  0  0  0  2  0  0  0  0  0  0
  -27.3120  -22.5600   18.1680 O   0  0  0  0  0  0  0  0  0  0  0  0
  -26.4760  -22.2450   17.8380 H   0  0  0  0  0  0  0  0  0  0  0  0
  1 92  1  0
  1 49  1  0
  1  3  1  0
  2  3  1  0
  3  5  1  0
  4  2  2  0
  7 12  1  0
  8  9  1  0
  8  7  1  0
 10  9  1  0
 10 24  1  0
 10 11  1  0
 12  6  1  0
 12 11  1  0
 13  6  2  0
 14 17  1  0
 16 20  1  0
 17  2  1  0
 18 15  1  0
 18 16  1  0
 18 14  1  0
 19 15  1  0
 19 20  1  0
 19 17  1  0
 20  6  1  0
 21 22  2  0
 22 41  1  0
 23 22  1  0
 23 26  1  0
 24 21  1  0
 24 25  1  0
 25 23  2  0
 26 27  1  0
 27 28  2  0
 29 32  1  0
 29 28  1  0
 30 29  2  0
 31 30  1  0
 31 26  2  0
 32 33  1  0
 33 34  1  0
 34 35  2  0
 36 35  1  0
 36 40  1  0
 37 36  2  0
 38 33  2  0
 38 37  1  0
 39 38  1  0
 41 42  1  0
 42 45  1  0
 42 44  1  0
 43 41  2  0
 46 47  1  0
 46 21  1  0
 48 46  1  0
 50 51  1  0
 50 49  2  0
 52 63  2  0
 53 51  1  0
 53 58  1  0
 54 62  1  0
 54 64  1  0
 55 61  1  0
 55 57  1  0
 56 62  1  0
 57 58  2  0
 57 56  1  0
 59 60  1  0
 59 53  2  0
 60 55  2  0
 61 54  1  0
 62 52  1  0
 64 66  2  0
 65 64  1  0
 67 65  1  0
 68 77  2  0
 68 73  1  0
 69 65  1  0
 69 73  1  0
 70 69  1  0
 71 72  1  0
 71 70  1  0
 72 68  1  0
 73 74  2  0
 74 75  1  0
 76 75  2  0
 77 76  1  0
 78 52  1  0
 78 79  1  0
 78 88  1  0
 79 82  1  0
 80 84  1  0
 80 79  1  0
 81 80  2  0
 84 83  1  0
 86 84  1  0
 86 87  1  0
 86 85  1  0
 88 91  1  1
 88 89  1  0
 90 88  1  0
 93 92  1  0
 94 93  1  0
M  ISO  4   6 100  20 100  50 101  51 101
M  END
>  <TORSDO>  (60) 
F 21

>  <SCORE>  (60) 
-13.927

>  <name>  (60) 
59

>  <ligand_id>  (60) 
59

>  <original_smiles>  (60) 
[H]OC([H])([H])C([H])(N([H])C(=O)C1([H])C([H])([H])C2([H])C([H])([H])N(C(=O)N3C([H])([H])C([H])([H])C([H])([H])C([H])(n4nc(-c5c([H])c([H])c(Oc6c([H])c([H])c(F)c([H])c6F)c([H])c5[H])c(C(=O)N([H])[H])c4N([H])[H])C3([H])[H])C1([H])C2([H])[H])C([H])([H])C([H])([H])Oc1c([H])c([H])c2c(c1[H])C([H])([H])N(C(=O)C([H])(N([H])C(=O)C([H])(N([H])C([H])([H])[H])C([H])([H])[H])C(C([H])([H])[H])(C([H])([H])[H])C([H])([H])[H])C([H])(C(=O)N([H])C1([H])c3c([H])c([H])c([H])c([H])c3C([H])([H])C([H])([H])C1([H])[H])C2([H])[H]

>  <smiles>  (60) 
[H]OC([H])([H])C([H])(N([H])C(=O)C1([H])C([H])([H])C2([H])C([H])([H])N(C(=O)N3C([H])([H])C([H])([H])C([H])([H])C([H])(n4nc(-c5c([H])c([H])c(Oc6c([H])c([H])c(F)c([H])c6F)c([H])c5[H])c(C(=O)N([H])[H])c4N([H])[H])C3([H])[H])C1([H])C2([H])[H])C([H])([H])C([H])([H])Oc1c([H])c([H])c2c(c1[H])C([H])([H])N(C(=O)C([H])(N([H])C(=O)C([H])(N([H])C([H])([H])[H])C([H])([H])[H])C(C([H])([H])[H])(C([H])([H])[H])C([H])([H])[H])C([H])(C(=O)N([H])C1([H])c3c([H])c([H])c([H])c([H])c3C([H])([H])C([H])([H])C1([H])[H])C2([H])[H]

$$$$
60:0:0
     RDKit          3D

 94102  0  0  1  0  0  0  0  0999 V2000
  -31.1560  -20.6850   18.2130 C   0  0  0  0  0  2  0  0  0  0  0  0
  -30.9860  -21.9500   19.0380 C   0  0  0  0  0  2  0  0  0  0  0  0
  -30.9700  -19.4010   19.0380 C   0  0  0  0  0  2  0  0  0  0  0  0
  -29.3340  -20.7510   20.5580 C   0  0  0  0  0  2  0  0  0  0  0  0
  -29.5560  -21.9600   19.5730 C   0  0  0  0  0  3  0  0  0  0  0  0
  -30.1170  -19.4790   20.2710 N   0  0  1  0  0  4  0  0  0  0  0  0
  -30.8160  -19.5450   20.9950 H   0  0  0  0  0  0  0  0  0  0  0  0
  -28.2650  -24.1340   19.5950 C   0  0  0  0  0  0  0  0  0  0  0  0
  -29.2560  -23.3370   20.0550 N   0  0  0  0  0  0  0  0  0  0  0  0
  -27.1490  -23.6750   19.3470 O   0  0  0  0  0  0  0  0  0  0  0  0
  -30.0680  -23.8470   20.3790 H   0  0  0  0  0  0  0  0  0  0  0  0
  -28.6130  -25.6020   19.1820 C   0  0  0  0  0  2  0  0  0  0  0  0
  -28.3530  -26.6300   20.1680 O   0  0  0  0  0  0  0  0  0  0  0  0
  -24.5830  -31.8730   23.2140 C   0  0  0  0  0  0  0  0  0  0  0  0
  -27.1890  -27.3870   20.1130 C   0  0  0  0  0  0  0  0  0  0  0  0
  -23.3640  -30.4730   21.5810 C   0  0  0  0  0  3  0  0  0  0  0  0
  -24.8030  -28.9330   20.1380 C   0  0  0  0  0  0  0  0  0  0  0  0
  -25.8930  -30.8140   21.3700 C   0  0  0  0  0  2  0  0  0  0  0  0
  -25.9680  -29.4400   20.7270 C   0  0  0  0  0  0  0  0  0  0  0  0
  -27.1570  -28.6690   20.7220 C   0  0  0  0  0  3  0  0  0  0  0  0
  -26.0040  -26.9080   19.5120 C   0  0  0  0  0  3  0  0  0  0  0  0
  -24.8180  -27.6680   19.5280 C   0  0  0  0  0  3  0  0  0  0  0  0
  -23.5620  -29.7970   20.1980 C   0  0  0  0  0  2  0  0  0  0  0  0
  -24.6320  -31.0700   22.1120 N   0  0  0  0  0  0  0  0  0  0  0  0
  -23.5060  -32.1480   23.7600 O   0  0  0  0  0  0  0  0  0  0  0  0
  -22.7180  -29.4540   22.5450 C   0  0  0  0  0  0  0  0  0  0  0  0
  -21.3910  -29.2730   22.4290 N   0  0  0  0  0  0  0  0  0  0  0  0
  -23.4070  -28.8260   23.3540 O   0  0  0  0  0  0  0  0  0  0  0  0
  -20.8950  -29.8310   21.7480 H   0  0  0  0  0  0  0  0  0  0  0  0
  -18.0210  -28.0770   22.9480 C   0  0  0  0  0  0  0  0  0  0  0  0
  -20.5810  -28.3350   23.2050 C   0  0  0  0  0  3  0  0  0  0  0  0
  -20.6800  -26.9030   22.6280 C   0  0  0  0  0  2  0  0  0  0  0  0
  -19.5720  -26.5800   21.6200 C   0  0  0  0  0  2  0  0  0  0  0  0
  -18.1940  -26.7270   22.2720 C   0  0  0  0  0  2  0  0  0  0  0  0
  -19.1420  -28.8390   23.3720 C   0  0  0  0  0  0  0  0  0  0  0  0
  -18.9290  -30.1020   23.9630 C   0  0  0  0  0  3  0  0  0  0  0  0
  -17.6250  -30.6060   24.1350 C   0  0  0  0  0  3  0  0  0  0  0  0
  -16.5180  -29.8400   23.7280 C   0  0  0  0  0  3  0  0  0  0  0  0
  -16.7160  -28.5780   23.1420 C   0  0  0  0  0  3  0  0  0  0  0  0
  -25.8740  -32.5030   23.8230 C   0  0  0  0  0  3  0  0  0  0  0  0
  -26.4080  -31.7250   25.0890 C   0  0  1  0  0  0  0  0  0  0  0  0
  -25.3290  -31.4790   26.1690 C   0  0  0  0  0  1  0  0  0  0  0  0
  -26.9880  -30.3510   24.6800 C   0  0  0  0  0  1  0  0  0  0  0  0
  -27.5660  -32.5170   25.7400 C   0  0  0  0  0  1  0  0  0  0  0  0
  -25.5670  -33.8990   24.1650 N   0  0  0  0  0  0  0  0  0  0  0  0
  -25.8910  -34.9560   23.4080 C   0  0  0  0  0  0  0  0  0  0  0  0
  -26.5510  -34.8590   22.3710 O   0  0  0  0  0  0  0  0  0  0  0  0
  -24.9800  -34.0480   24.9720 H   0  0  0  0  0  0  0  0  0  0  0  0
  -24.1570  -36.7470   23.0790 C   0  0  0  0  0  1  0  0  0  0  0  0
  -25.4070  -36.3410   23.8780 C   0  0  0  0  0  3  0  0  0  0  0  0
  -27.5480  -37.2220   24.6930 C   0  0  0  0  0  1  0  0  0  0  0  0
  -26.4370  -37.3960   23.7610 N   0  0  0  0  0  0  0  0  0  0  0  0
  -26.0330  -38.3140   23.9200 H   0  0  0  0  0  0  0  0  0  0  0  0
  -29.4480  -18.1580   20.5760 C   0  0  0  0  0  2  0  0  0  0  0  0
  -31.1160  -17.2590   22.3170 C   0  0  0  0  0  1  0  0  0  0  0  0
  -30.4690  -17.0080   20.9420 C   0  0  0  0  0  3  0  0  0  0  0  0
  -30.6140  -14.5310   20.4640 C   0  0  0  0  0  0  0  0  0  0  0  0
  -30.3070  -12.3560   19.3390 C   0  0  0  0  0  2  0  0  0  0  0  0
  -29.3700  -12.5470   18.1290 C   0  0  0  0  0  2  0  0  0  0  0  0
  -27.8980  -12.4030   18.5600 C   0  0  0  0  0  2  0  0  0  0  0  0
  -27.5550  -13.2430   19.8210 C   0  0  0  0  0  3  0  0  0  0  0  0
  -28.6140  -13.0550   20.9310 C   0  0  0  0  0  2  0  0  0  0  0  0
  -29.9290  -13.3580   20.3510 N   0  0  0  0  0  0  0  0  0  0  0  0
  -31.7600  -14.6580   20.0290 O   0  0  0  0  0  0  0  0  0  0  0  0
  -29.9290  -15.6160   20.9150 N   0  0  0  0  0  0  0  0  0  0  0  0
  -28.9800  -15.4650   21.2260 H   0  0  0  0  0  0  0  0  0  0  0  0
  -25.1580  -13.8380   20.5310 C   0  0  0  0  0  0  0  0  0  0  0  0
  -24.0940  -13.0620   20.9020 C   0  0  0  0  0  0  0  0  0  0  0  0
  -24.5600  -11.7110   20.8750 C   0  0  0  0  0  0  0  0  0  0  0  0
  -26.2050  -12.9600   20.3020 N   0  0  0  0  0  0  0  0  0  0  0  0
  -25.8510  -11.6770   20.5680 N   0  0  0  0  0  0  0  0  0  0  0  0
  -23.8380  -10.4470   21.0670 C   0  0  0  0  0  0  0  0  0  0  0  0
  -24.2830   -9.4750   21.9900 C   0  0  0  0  0  3  0  0  0  0  0  0
  -23.5610   -8.2750   22.1710 C   0  0  0  0  0  3  0  0  0  0  0  0
  -22.3810   -8.0390   21.4270 C   0  0  0  0  0  0  0  0  0  0  0  0
  -21.9550   -8.9980   20.4920 C   0  0  0  0  0  3  0  0  0  0  0  0
  -22.6770  -10.1900   20.3100 C   0  0  0  0  0  3  0  0  0  0  0  0
  -21.6300   -6.8920   21.5180 O   0  0  0  0  0  0  0  0  0  0  0  0
  -21.6090   -6.1330   22.6600 C   0  0  0  0  0  0  0  0  0  0  0  0
  -21.2260   -6.6740   23.9080 C   0  0  0  0  0  3  0  0  0  0  0  0
  -21.1510   -5.8420   25.0430 C   0  0  0  0  0  3  0  0  0  0  0  0
  -21.4500   -4.4710   24.9330 C   0  0  0  0  0  0  0  0  0  0  0  0
  -21.8280   -3.9290   23.6910 C   0  0  0  0  0  3  0  0  0  0  0  0
  -21.9040   -4.7580   22.5580 C   0  0  0  0  0  0  0  0  0  0  0  0
  -22.2470   -4.2280   21.3600 F   0  0  0  0  0  0  0  0  0  0  0  0
  -21.3720   -3.6710   26.0210 F   0  0  0  0  0  0  0  0  0  0  0  0
  -22.6940  -13.5340   21.1720 C   0  0  0  0  0  0  0  0  0  0  0  0
  -21.9680  -12.8370   22.0380 N   0  0  0  0  0  0  0  0  0  0  0  0
  -22.2520  -14.5580   20.6500 O   0  0  0  0  0  0  0  0  0  0  0  0
  -22.3380  -12.0090   22.4820 H   0  0  0  0  0  0  0  0  0  0  0  0
  -21.0290  -13.1340   22.2610 H   0  0  0  0  0  0  0  0  0  0  0  0
  -25.3190  -15.2080   20.3470 N   0  0  0  0  0  0  0  0  0  0  0  0
  -24.5470  -15.8600   20.4420 H   0  0  0  0  0  0  0  0  0  0  0  0
  -26.1580  -15.6380   19.9810 H   0  0  0  0  0  0  0  0  0  0  0  0
  1  2  1  0
  1  3  1  0
  2  5  1  0
  3  6  1  0
  5  9  1  0
  5  4  1  0
  6  4  1  0
  6 54  1  0
  6  7  1  1
  8  9  1  0
  9 11  1  0
 10  8  2  0
 12  8  1  0
 12 13  1  0
 14 25  2  0
 15 13  1  0
 15 20  1  0
 16 24  1  0
 16 26  1  0
 17 23  1  0
 17 19  1  0
 18 24  1  0
 19 18  1  0
 20 19  2  0
 21 22  1  0
 21 15  2  0
 22 17  2  0
 23 16  1  0
 24 14  1  0
 26 28  2  0
 27 26  1  0
 29 27  1  0
 30 39  2  0
 30 35  1  0
 31 27  1  0
 31 35  1  0
 32 31  1  0
 33 34  1  0
 33 32  1  0
 34 30  1  0
 35 36  2  0
 36 37  1  0
 38 37  2  0
 39 38  1  0
 40 14  1  0
 40 45  1  0
 40 41  1  0
 41 44  1  1
 41 42  1  0
 43 41  1  0
 45 48  1  0
 46 50  1  0
 46 45  1  0
 47 46  2  0
 50 49  1  0
 52 50  1  0
 52 53  1  0
 52 51  1  0
 54 56  1  0
 56 55  1  0
 57 65  1  0
 58 63  1  0
 59 60  1  0
 59 58  1  0
 61 60  1  0
 61 70  1  0
 61 62  1  0
 63 57  1  0
 63 62  1  0
 64 57  2  0
 65 56  1  0
 65 66  1  0
 67 68  2  0
 68 87  1  0
 69 68  1  0
 69 72  1  0
 70 67  1  0
 70 71  1  0
 71 69  2  0
 72 73  1  0
 73 74  2  0
 75 78  1  0
 75 74  1  0
 76 75  2  0
 77 76  1  0
 77 72  2  0
 78 79  1  0
 79 80  1  0
 80 81  2  0
 82 81  1  0
 82 86  1  0
 83 82  2  0
 84 79  2  0
 84 83  1  0
 85 84  1  0
 87 88  1  0
 88 91  1  0
 88 90  1  0
 89 87  2  0
 92 93  1  0
 92 67  1  0
 94 92  1  0
M  ISO  4  12 101  13 101  57 100  65 100
M  END
>  <TORSDO>  (61) 
F 20

>  <SCORE>  (61) 
-13.772

>  <name>  (61) 
60

>  <ligand_id>  (61) 
60

>  <original_smiles>  (61) 
[H]c1c([H])c([H])c2c(c1[H])C([H])([H])C([H])([H])C([H])([H])C2([H])N([H])C(=O)C1([H])N(C(=O)C([H])(N([H])C(=O)C([H])(N([H])C([H])([H])[H])C([H])([H])[H])C(C([H])([H])[H])(C([H])([H])[H])C([H])([H])[H])C([H])([H])c2c([H])c(OC([H])([H])C(=O)N([H])C3([H])C([H])([H])C([H])([H])C([H])([H])[N+]([H])(C([H])([H])C([H])(N([H])C(=O)N4C([H])([H])C([H])([H])C([H])([H])C([H])(n5nc(-c6c([H])c([H])c(Oc7c([H])c([H])c(F)c([H])c7F)c([H])c6[H])c(C(=O)N([H])[H])c5N([H])[H])C4([H])[H])C([H])([H])[H])C3([H])[H])c([H])c([H])c2C1([H])[H]

>  <smiles>  (61) 
[H]c1c([H])c([H])c2c(c1[H])C([H])([H])C([H])([H])C([H])([H])C2([H])N([H])C(=O)C1([H])N(C(=O)C([H])(N([H])C(=O)C([H])(N([H])C([H])([H])[H])C([H])([H])[H])C(C([H])([H])[H])(C([H])([H])[H])C([H])([H])[H])C([H])([H])c2c([H])c(OC([H])([H])C(=O)N([H])C3([H])C([H])([H])C([H])([H])C([H])([H])[N+]([H])(C([H])([H])C([H])(N([H])C(=O)N4C([H])([H])C([H])([H])C([H])([H])C([H])(n5nc(-c6c([H])c([H])c(Oc7c([H])c([H])c(F)c([H])c7F)c([H])c6[H])c(C(=O)N([H])[H])c5N([H])[H])C4([H])[H])C([H])([H])[H])C3([H])[H])c([H])c([H])c2C1([H])[H]

$$$$
61:0:0
     RDKit          3D

103112  0  0  1  0  0  0  0  0999 V2000
  -31.0380  -21.3290   20.5830 C   0  0  0  0  0  2  0  0  0  0  0  0
  -33.1560  -20.7290   19.3120 C   0  0  0  0  0  2  0  0  0  0  0  0
  -31.6530  -22.6730   20.9900 C   0  0  0  0  0  2  0  0  0  0  0  0
  -33.7710  -22.0810   19.7310 C   0  0  0  0  0  2  0  0  0  0  0  0
  -32.0860  -20.2240   20.3160 C   0  0  0  0  0  3  0  0  0  0  0  0
  -32.7000  -23.1690   19.9720 C   0  0  0  0  0  3  0  0  0  0  0  0
  -29.8600  -18.0030   18.1750 C   0  0  0  0  0  3  0  0  0  0  0  0
  -30.8220  -18.9480   18.5370 C   0  0  0  0  0  3  0  0  0  0  0  0
  -30.9880  -17.9350   20.7490 C   0  0  0  0  0  3  0  0  0  0  0  0
  -29.3610  -17.0910   19.1260 C   0  0  0  0  0  0  0  0  0  0  0  0
  -31.3330  -18.9770   19.8480 C   0  0  0  0  0  0  0  0  0  0  0  0
  -30.0040  -16.9700   20.3990 C   0  0  0  0  0  0  0  0  0  0  0  0
  -30.4990  -14.8510   21.4630 C   0  0  0  0  0  0  0  0  0  0  0  0
  -30.4970  -12.5000   20.7740 C   0  0  0  0  0  2  0  0  0  0  0  0
  -29.7510  -12.4230   19.4290 C   0  0  0  0  0  2  0  0  0  0  0  0
  -28.2420  -12.2180   19.6570 C   0  0  0  0  0  2  0  0  0  0  0  0
  -27.6510  -13.1860   20.7180 C   0  0  0  0  0  3  0  0  0  0  0  0
  -28.5470  -13.3080   21.9730 C   0  0  0  0  0  2  0  0  0  0  0  0
  -29.9130  -13.6230   21.5230 N   0  0  0  0  0  0  0  0  0  0  0  0
  -31.7120  -14.9950   21.3030 O   0  0  0  0  0  0  0  0  0  0  0  0
  -29.6790  -15.9110   21.3190 N   0  0  0  0  0  0  0  0  0  0  0  0
  -28.6990  -15.7320   21.4820 H   0  0  0  0  0  0  0  0  0  0  0  0
  -25.1630  -13.6990   21.1390 C   0  0  0  0  0  0  0  0  0  0  0  0
  -24.0910  -12.8800   21.3800 C   0  0  0  0  0  0  0  0  0  0  0  0
  -24.6120  -11.5500   21.3870 C   0  0  0  0  0  0  0  0  0  0  0  0
  -26.2630  -12.8610   21.0300 N   0  0  0  0  0  0  0  0  0  0  0  0
  -25.9290  -11.5630   21.2330 N   0  0  0  0  0  0  0  0  0  0  0  0
  -23.9200  -10.2600   21.4830 C   0  0  0  0  0  0  0  0  0  0  0  0
  -24.3220   -9.2800   22.4180 C   0  0  0  0  0  3  0  0  0  0  0  0
  -23.6330   -8.0520   22.5070 C   0  0  0  0  0  3  0  0  0  0  0  0
  -22.5340   -7.7910   21.6560 C   0  0  0  0  0  0  0  0  0  0  0  0
  -22.1520   -8.7600   20.7130 C   0  0  0  0  0  3  0  0  0  0  0  0
  -22.8410   -9.9800   20.6200 C   0  0  0  0  0  3  0  0  0  0  0  0
  -21.8220   -6.6160   21.6520 O   0  0  0  0  0  0  0  0  0  0  0  0
  -21.7530   -5.8160   22.7630 C   0  0  0  0  0  0  0  0  0  0  0  0
  -21.2060   -6.2790   23.9790 C   0  0  0  0  0  3  0  0  0  0  0  0
  -21.0920   -5.4050   25.0770 C   0  0  0  0  0  3  0  0  0  0  0  0
  -21.5110   -4.0670   24.9630 C   0  0  0  0  0  0  0  0  0  0  0  0
  -22.0540   -3.6030   23.7510 C   0  0  0  0  0  3  0  0  0  0  0  0
  -22.1710   -4.4740   22.6540 C   0  0  0  0  0  0  0  0  0  0  0  0
  -22.6780   -4.0190   21.4850 F   0  0  0  0  0  0  0  0  0  0  0  0
  -21.3890   -3.2260   26.0160 F   0  0  0  0  0  0  0  0  0  0  0  0
  -22.6530  -13.2910   21.4960 C   0  0  0  0  0  0  0  0  0  0  0  0
  -21.8630  -12.5560   22.2750 N   0  0  0  0  0  0  0  0  0  0  0  0
  -22.2300  -14.3000   20.9300 O   0  0  0  0  0  0  0  0  0  0  0  0
  -22.2140  -11.7350   22.7480 H   0  0  0  0  0  0  0  0  0  0  0  0
  -20.8900  -12.8040   22.3960 H   0  0  0  0  0  0  0  0  0  0  0  0
  -25.2800  -15.0750   20.9800 N   0  0  0  0  0  0  0  0  0  0  0  0
  -24.4570  -15.6670   20.9880 H   0  0  0  0  0  0  0  0  0  0  0  0
  -26.0800  -15.5180   20.5220 H   0  0  0  0  0  0  0  0  0  0  0  0
  -28.0800  -16.4040   18.7740 C   0  0  0  0  0  0  0  0  0  0  0  0
  -28.1270  -15.4850   17.8200 N   0  0  0  0  0  0  0  0  0  0  0  0
  -27.0290  -16.7340   19.3130 O   0  0  0  0  0  0  0  0  0  0  0  0
  -28.9880  -15.3050   17.3260 H   0  0  0  0  0  0  0  0  0  0  0  0
  -27.2960  -14.9590   17.5890 H   0  0  0  0  0  0  0  0  0  0  0  0
  -33.3350  -24.5020   20.4170 C   0  0  0  0  0  2  0  0  0  0  0  0
  -31.8910  -26.5160   20.0890 C   0  0  0  0  0  0  0  0  0  0  0  0
  -32.3230  -25.4780   20.8160 N   0  0  0  0  0  0  0  0  0  0  0  0
  -32.3580  -26.7890   18.9820 O   0  0  0  0  0  0  0  0  0  0  0  0
  -31.8750  -25.3250   21.7120 H   0  0  0  0  0  0  0  0  0  0  0  0
  -30.7800  -27.3760   20.7020 C   0  0  0  0  0  2  0  0  0  0  0  0
  -29.6030  -27.6310   19.7410 C   0  0  0  0  0  2  0  0  0  0  0  0
  -28.4390  -26.9050   20.1440 O   0  0  0  0  0  0  0  0  0  0  0  0
  -24.5370  -32.0420   23.1880 C   0  0  0  0  0  0  0  0  0  0  0  0
  -27.2640  -27.6170   20.2110 C   0  0  0  0  0  0  0  0  0  0  0  0
  -23.3430  -30.5880   21.5710 C   0  0  0  0  0  3  0  0  0  0  0  0
  -24.8250  -29.0350   20.1920 C   0  0  0  0  0  0  0  0  0  0  0  0
  -25.8550  -30.9910   21.3670 C   0  0  0  0  0  2  0  0  0  0  0  0
  -25.9620  -29.6080   20.7720 C   0  0  0  0  0  0  0  0  0  0  0  0
  -27.1800  -28.9010   20.7990 C   0  0  0  0  0  3  0  0  0  0  0  0
  -26.1050  -27.0370   19.6600 C   0  0  0  0  0  3  0  0  0  0  0  0
  -24.8850  -27.7410   19.6420 C   0  0  0  0  0  3  0  0  0  0  0  0
  -23.5620  -29.8670   20.2100 C   0  0  0  0  0  2  0  0  0  0  0  0
  -24.5940  -31.2210   22.1000 N   0  0  0  0  0  0  0  0  0  0  0  0
  -23.4550  -32.3120   23.7280 O   0  0  0  0  0  0  0  0  0  0  0  0
  -22.7090  -29.5790   22.5560 C   0  0  0  0  0  0  0  0  0  0  0  0
  -21.3840  -29.3950   22.4460 N   0  0  0  0  0  0  0  0  0  0  0  0
  -23.4050  -28.9620   23.3690 O   0  0  0  0  0  0  0  0  0  0  0  0
  -20.8860  -29.9410   21.7570 H   0  0  0  0  0  0  0  0  0  0  0  0
  -18.0180  -28.2220   23.0040 C   0  0  0  0  0  0  0  0  0  0  0  0
  -20.5790  -28.4670   23.2350 C   0  0  0  0  0  3  0  0  0  0  0  0
  -20.6680  -27.0310   22.6700 C   0  0  0  0  0  2  0  0  0  0  0  0
  -19.5490  -26.7050   21.6760 C   0  0  0  0  0  2  0  0  0  0  0  0
  -18.1770  -26.8650   22.3370 C   0  0  0  0  0  2  0  0  0  0  0  0
  -19.1460  -28.9810   23.4120 C   0  0  0  0  0  0  0  0  0  0  0  0
  -18.9460  -30.2530   23.9920 C   0  0  0  0  0  3  0  0  0  0  0  0
  -17.6470  -30.7660   24.1660 C   0  0  0  0  0  3  0  0  0  0  0  0
  -16.5330  -30.0010   23.7790 C   0  0  0  0  0  3  0  0  0  0  0  0
  -16.7170  -28.7300   23.2050 C   0  0  0  0  0  3  0  0  0  0  0  0
  -25.8190  -32.6980   23.7920 C   0  0  0  0  0  3  0  0  0  0  0  0
  -25.4810  -34.0800   24.1550 N   0  0  0  0  0  0  0  0  0  0  0  0
  -25.7520  -35.1520   23.3980 C   0  0  0  0  0  0  0  0  0  0  0  0
  -26.3870  -35.0830   22.3430 O   0  0  0  0  0  0  0  0  0  0  0  0
  -24.9200  -34.2050   24.9830 H   0  0  0  0  0  0  0  0  0  0  0  0
  -23.9540  -36.8880   23.1160 C   0  0  0  0  0  1  0  0  0  0  0  0
  -25.2320  -36.5160   23.8880 C   0  0  0  0  0  3  0  0  0  0  0  0
  -27.3560  -37.4650   24.6740 C   0  0  0  0  0  1  0  0  0  0  0  0
  -26.2260  -37.6080   23.7620 N   0  0  0  0  0  0  0  0  0  0  0  0
  -25.7930  -38.5130   23.9290 H   0  0  0  0  0  0  0  0  0  0  0  0
  -26.3940  -31.9180   25.0400 C   0  0  1  0  0  0  0  0  0  0  0  0
  -25.3380  -31.6230   26.1290 C   0  0  0  0  0  1  0  0  0  0  0  0
  -27.0070  -30.5650   24.6050 C   0  0  0  0  0  1  0  0  0  0  0  0
  -27.5370  -32.7310   25.6910 C   0  0  0  0  0  1  0  0  0  0  0  0
  1  3  1  0
  2  4  1  0
  2  5  1  0
  4  6  1  0
  5 11  1  0
  5  1  1  0
  6 56  1  0
  6  3  1  0
  7  8  2  0
  7 10  1  0
  8 11  1  0
 10 12  2  0
 11  9  2  0
 12  9  1  0
 12 21  1  0
 13 19  1  0
 14 19  1  0
 15 16  1  0
 15 14  1  0
 17 16  1  0
 17 26  1  0
 17 18  1  0
 19 18  1  0
 20 13  2  0
 21 13  1  0
 21 22  1  0
 23 24  2  0
 24 25  1  0
 24 43  1  0
 25 28  1  0
 26 23  1  0
 26 27  1  0
 27 25  2  0
 28 29  1  0
 29 30  2  0
 31 30  1  0
 32 31  2  0
 33 32  1  0
 33 28  2  0
 34 31  1  0
 34 35  1  0
 35 36  1  0
 36 37  2  0
 38 37  1  0
 38 42  1  0
 39 38  2  0
 40 35  2  0
 40 39  1  0
 41 40  1  0
 43 44  1  0
 44 47  1  0
 44 46  1  0
 45 43  2  0
 48 49  1  0
 48 23  1  0
 50 48  1  0
 51 10  1  0
 51 53  2  0
 52 51  1  0
 54 52  1  0
 55 52  1  0
 56 58  1  0
 57 61  1  0
 57 58  1  0
 58 60  1  0
 59 57  2  0
 62 63  1  0
 62 61  1  0
 63 65  1  0
 64 75  2  0
 65 70  1  0
 66 74  1  0
 66 76  1  0
 67 73  1  0
 67 69  1  0
 68 74  1  0
 69 70  2  0
 69 68  1  0
 71 65  2  0
 72 71  1  0
 72 67  2  0
 73 66  1  0
 74 64  1  0
 76 78  2  0
 77 76  1  0
 79 77  1  0
 80 89  2  0
 80 85  1  0
 81 77  1  0
 81 85  1  0
 82 81  1  0
 83 84  1  0
 83 82  1  0
 84 80  1  0
 85 86  2  0
 86 87  1  0
 88 87  2  0
 89 88  1  0
 90 64  1  0
 90 91  1  0
 90100  1  0
 91 94  1  0
 92 96  1  0
 92 91  1  0
 93 92  2  0
 96 95  1  0
 98 96  1  0
 98 99  1  0
 98 97  1  0
100103  1  1
100101  1  0
102100  1  0
M  ISO  4  13 100  21 100  62 101  63 101
M  END
>  <TORSDO>  (62) 
F 22

>  <SCORE>  (62) 
-10.001

>  <name>  (62) 
61

>  <ligand_id>  (62) 
61

>  <original_smiles>  (62) 
[H]c1c([H])c([H])c2c(c1[H])C([H])([H])C([H])([H])C([H])([H])C2([H])N([H])C(=O)C1([H])N(C(=O)C([H])(N([H])C(=O)C([H])(N([H])C([H])([H])[H])C([H])([H])[H])C(C([H])([H])[H])(C([H])([H])[H])C([H])([H])[H])C([H])([H])c2c([H])c(OC([H])([H])C([H])([H])C(=O)N([H])C([H])([H])C3([H])C([H])([H])C([H])([H])C([H])(c4c([H])c([H])c(C(=O)N([H])[H])c(N([H])C(=O)N5C([H])([H])C([H])([H])C([H])([H])C([H])(n6nc(-c7c([H])c([H])c(Oc8c([H])c([H])c(F)c([H])c8F)c([H])c7[H])c(C(=O)N([H])[H])c6N([H])[H])C5([H])[H])c4[H])C([H])([H])C3([H])[H])c([H])c([H])c2C1([H])[H]

>  <smiles>  (62) 
[H]c1c([H])c([H])c2c(c1[H])C([H])([H])C([H])([H])C([H])([H])C2([H])N([H])C(=O)C1([H])N(C(=O)C([H])(N([H])C(=O)C([H])(N([H])C([H])([H])[H])C([H])([H])[H])C(C([H])([H])[H])(C([H])([H])[H])C([H])([H])[H])C([H])([H])c2c([H])c(OC([H])([H])C([H])([H])C(=O)N([H])C([H])([H])C3([H])C([H])([H])C([H])([H])C([H])(c4c([H])c([H])c(C(=O)N([H])[H])c(N([H])C(=O)N5C([H])([H])C([H])([H])C([H])([H])C([H])(n6nc(-c7c([H])c([H])c(Oc8c([H])c([H])c(F)c([H])c8F)c([H])c7[H])c(C(=O)N([H])[H])c6N([H])[H])C5([H])[H])c4[H])C([H])([H])C3([H])[H])c([H])c([H])c2C1([H])[H]

$$$$
62:0:0
     RDKit          3D

 99107  0  0  1  0  0  0  0  0999 V2000
  -29.6870  -22.0330   21.0330 C   0  0  0  0  0  3  0  0  0  0  0  0
  -28.5030  -24.2810   21.2260 C   0  0  0  0  0  0  0  0  0  0  0  0
  -29.3000  -23.4040   20.5620 N   0  0  0  0  0  0  0  0  0  0  0  0
  -27.5110  -23.8660   21.8270 O   0  0  0  0  0  0  0  0  0  0  0  0
  -29.9790  -23.8340   19.9510 H   0  0  0  0  0  0  0  0  0  0  0  0
  -28.4260  -26.3420   22.7400 C   0  0  0  0  0  1  0  0  0  0  0  0
  -30.4570  -25.9380   21.3500 C   0  0  0  0  0  1  0  0  0  0  0  0
  -28.9210  -25.8080   21.3690 C   0  0  1  0  0  0  0  0  0  0  0  0
  -28.5150  -26.6560   20.2540 O   0  0  0  0  0  0  0  0  0  0  0  0
  -24.6530  -31.9370   23.2770 C   0  0  0  0  0  0  0  0  0  0  0  0
  -27.3710  -27.4420   20.3050 C   0  0  0  0  0  0  0  0  0  0  0  0
  -23.4850  -30.5110   21.6290 C   0  0  0  0  0  3  0  0  0  0  0  0
  -24.9750  -28.9650   20.2450 C   0  0  0  0  0  0  0  0  0  0  0  0
  -26.0140  -30.8790   21.4690 C   0  0  0  0  0  2  0  0  0  0  0  0
  -26.1220  -29.4980   20.8470 C   0  0  0  0  0  0  0  0  0  0  0  0
  -27.3270  -28.7490   20.8630 C   0  0  0  0  0  3  0  0  0  0  0  0
  -26.2110  -26.9420   19.6850 C   0  0  0  0  0  3  0  0  0  0  0  0
  -25.0160  -27.6890   19.6570 C   0  0  0  0  0  3  0  0  0  0  0  0
  -23.7260  -29.8210   20.2600 C   0  0  0  0  0  2  0  0  0  0  0  0
  -24.7350  -31.1260   22.1820 N   0  0  0  0  0  0  0  0  0  0  0  0
  -23.5600  -32.2060   23.7960 O   0  0  0  0  0  0  0  0  0  0  0  0
  -22.8250  -29.4930   22.5880 C   0  0  0  0  0  0  0  0  0  0  0  0
  -21.5010  -29.3100   22.4510 N   0  0  0  0  0  0  0  0  0  0  0  0
  -23.5010  -28.8720   23.4110 O   0  0  0  0  0  0  0  0  0  0  0  0
  -21.0150  -29.8630   21.7580 H   0  0  0  0  0  0  0  0  0  0  0  0
  -18.1210  -28.1250   22.9420 C   0  0  0  0  0  0  0  0  0  0  0  0
  -20.6800  -28.3740   23.2200 C   0  0  0  0  0  3  0  0  0  0  0  0
  -20.7780  -26.9440   22.6410 C   0  0  0  0  0  2  0  0  0  0  0  0
  -19.6780  -26.6270   21.6230 C   0  0  0  0  0  2  0  0  0  0  0  0
  -18.2940  -26.7760   22.2640 C   0  0  0  0  0  2  0  0  0  0  0  0
  -19.2420  -28.8820   23.3760 C   0  0  0  0  0  0  0  0  0  0  0  0
  -19.0260  -30.1450   23.9700 C   0  0  0  0  0  3  0  0  0  0  0  0
  -17.7230  -30.6510   24.1320 C   0  0  0  0  0  3  0  0  0  0  0  0
  -16.6170  -29.8900   23.7140 C   0  0  0  0  0  3  0  0  0  0  0  0
  -16.8170  -28.6300   23.1250 C   0  0  0  0  0  3  0  0  0  0  0  0
  -25.9220  -32.5860   23.9120 C   0  0  0  0  0  3  0  0  0  0  0  0
  -25.5980  -33.9870   24.2130 N   0  0  0  0  0  0  0  0  0  0  0  0
  -25.9340  -35.0290   23.4390 C   0  0  0  0  0  0  0  0  0  0  0  0
  -26.6170  -34.9110   22.4190 O   0  0  0  0  0  0  0  0  0  0  0  0
  -24.9930  -34.1520   25.0040 H   0  0  0  0  0  0  0  0  0  0  0  0
  -24.1960  -36.8000   23.0310 C   0  0  0  0  0  1  0  0  0  0  0  0
  -25.4300  -36.4210   23.8650 C   0  0  0  0  0  3  0  0  0  0  0  0
  -27.5500  -37.3350   24.7020 C   0  0  0  0  0  1  0  0  0  0  0  0
  -26.4560  -37.4800   23.7450 N   0  0  0  0  0  0  0  0  0  0  0  0
  -26.0430  -38.4000   23.8730 H   0  0  0  0  0  0  0  0  0  0  0  0
  -26.4200  -31.8360   25.2080 C   0  0  1  0  0  0  0  0  0  0  0  0
  -25.3080  -31.6060   26.2580 C   0  0  0  0  0  1  0  0  0  0  0  0
  -27.0200  -30.4580   24.8450 C   0  0  0  0  0  1  0  0  0  0  0  0
  -27.5520  -32.6490   25.8790 C   0  0  0  0  0  1  0  0  0  0  0  0
  -29.2010  -20.8010   20.1780 C   0  0  0  0  0  0  0  0  0  0  0  0
  -29.5130  -19.5480   20.6100 N   0  0  0  0  0  0  0  0  0  0  0  0
  -28.5650  -20.9860   19.1400 O   0  0  0  0  0  0  0  0  0  0  0  0
  -30.0350  -19.5100   21.4740 H   0  0  0  0  0  0  0  0  0  0  0  0
  -29.2440  -18.2190   19.9890 C   0  0  0  0  0  2  0  0  0  0  0  0
  -30.4660  -14.6250   19.7990 C   0  0  0  0  0  0  0  0  0  0  0  0
  -30.0380  -12.4900   18.5940 C   0  0  0  0  0  2  0  0  0  0  0  0
  -28.9760  -12.7020   17.4940 C   0  0  0  0  0  2  0  0  0  0  0  0
  -27.5550  -12.5430   18.0680 C   0  0  0  0  0  2  0  0  0  0  0  0
  -27.3500  -13.3380   19.3840 C   0  0  0  0  0  3  0  0  0  0  0  0
  -28.5110  -13.0950   20.3690 C   0  0  0  0  0  2  0  0  0  0  0  0
  -29.7600  -13.4550   19.6800 N   0  0  0  0  0  0  0  0  0  0  0  0
  -31.5330  -14.7840   19.1960 O   0  0  0  0  0  0  0  0  0  0  0  0
  -29.6950  -15.7510   21.8720 C   0  0  0  0  0  2  0  0  0  0  0  0
  -30.6260  -16.9610   21.8880 C   0  0  0  0  0  3  0  0  0  0  0  0
  -30.3040  -17.1340   20.4030 C   0  0  0  0  0  3  0  0  0  0  0  0
  -32.0820  -16.7820   22.3100 C   0  0  0  0  0  1  0  0  0  0  0  0
  -29.8540  -15.6930   20.4130 N   0  0  0  0  0  0  0  0  0  0  0  0
  -25.0430  -13.9280   20.3530 C   0  0  0  0  0  0  0  0  0  0  0  0
  -24.0140  -13.1490   20.8080 C   0  0  0  0  0  0  0  0  0  0  0  0
  -24.4620  -11.7970   20.6990 C   0  0  0  0  0  0  0  0  0  0  0  0
  -26.0540  -13.0500   19.9930 N   0  0  0  0  0  0  0  0  0  0  0  0
  -25.7150  -11.7620   20.2600 N   0  0  0  0  0  0  0  0  0  0  0  0
  -23.7530  -10.5320   20.9330 C   0  0  0  0  0  0  0  0  0  0  0  0
  -24.2570   -9.5550   21.8210 C   0  0  0  0  0  3  0  0  0  0  0  0
  -23.5480   -8.3550   22.0430 C   0  0  0  0  0  3  0  0  0  0  0  0
  -22.3200   -8.1240   21.3790 C   0  0  0  0  0  0  0  0  0  0  0  0
  -21.8330   -9.0890   20.4800 C   0  0  0  0  0  3  0  0  0  0  0  0
  -22.5430  -10.2800   20.2560 C   0  0  0  0  0  3  0  0  0  0  0  0
  -21.5750   -6.9770   21.5120 O   0  0  0  0  0  0  0  0  0  0  0  0
  -21.6030   -6.2320   22.6630 C   0  0  0  0  0  0  0  0  0  0  0  0
  -21.2700   -6.7870   23.9180 C   0  0  0  0  0  3  0  0  0  0  0  0
  -21.2410   -5.9700   25.0650 C   0  0  0  0  0  3  0  0  0  0  0  0
  -21.5350   -4.5970   24.9590 C   0  0  0  0  0  0  0  0  0  0  0  0
  -21.8610   -4.0420   23.7100 C   0  0  0  0  0  3  0  0  0  0  0  0
  -21.8910   -4.8560   22.5650 C   0  0  0  0  0  0  0  0  0  0  0  0
  -22.1860   -4.3110   21.3590 F   0  0  0  0  0  0  0  0  0  0  0  0
  -21.5000   -3.8100   26.0600 F   0  0  0  0  0  0  0  0  0  0  0  0
  -22.6520  -13.6240   21.2280 C   0  0  0  0  0  0  0  0  0  0  0  0
  -22.0100  -12.9120   22.1480 N   0  0  0  0  0  0  0  0  0  0  0  0
  -22.1670  -14.6600   20.7760 O   0  0  0  0  0  0  0  0  0  0  0  0
  -22.4150  -12.0730   22.5370 H   0  0  0  0  0  0  0  0  0  0  0  0
  -21.1020  -13.2140   22.4680 H   0  0  0  0  0  0  0  0  0  0  0  0
  -25.1980  -15.3030   20.1920 N   0  0  0  0  0  0  0  0  0  0  0  0
  -24.4570  -15.9630   20.4010 H   0  0  0  0  0  0  0  0  0  0  0  0
  -26.0170  -15.7430   19.7930 H   0  0  0  0  0  0  0  0  0  0  0  0
  -31.9800  -22.2740   19.8470 C   0  0  0  0  0  1  0  0  0  0  0  0
  -31.2460  -22.0830   21.1930 C   0  0  0  0  0  3  0  0  0  0  0  0
  -33.3090  -21.1610   22.4480 C   0  0  0  0  0  1  0  0  0  0  0  0
  -31.8620  -20.9110   21.9970 C   0  0  0  0  0  2  0  0  0  0  0  0
  1 50  1  0
  1 97  1  0
  2  8  1  0
  2  4  2  0
  3  1  1  0
  3  2  1  0
  5  3  1  0
  8  7  1  1
  8  6  1  0
  9 11  1  0
  9  8  1  0
 10 21  2  0
 11 16  1  0
 12 20  1  0
 12 22  1  0
 13 19  1  0
 13 15  1  0
 14 20  1  0
 15 16  2  0
 15 14  1  0
 17 11  2  0
 18 17  1  0
 18 13  2  0
 19 12  1  0
 20 10  1  0
 22 24  2  0
 23 22  1  0
 25 23  1  0
 26 35  2  0
 26 31  1  0
 27 23  1  0
 27 31  1  0
 28 27  1  0
 29 30  1  0
 29 28  1  0
 30 26  1  0
 31 32  2  0
 32 33  1  0
 34 33  2  0
 35 34  1  0
 36 10  1  0
 36 37  1  0
 36 46  1  0
 37 40  1  0
 38 42  1  0
 38 37  1  0
 39 38  2  0
 42 41  1  0
 44 42  1  0
 44 45  1  0
 44 43  1  0
 46 49  1  1
 46 47  1  0
 48 46  1  0
 50 51  1  0
 51 53  1  0
 52 50  2  0
 54 51  1  0
 55 67  1  0
 56 61  1  0
 57 58  1  0
 57 56  1  0
 59 58  1  0
 59 71  1  0
 59 60  1  0
 61 55  1  0
 61 60  1  0
 62 55  2  0
 63 64  1  0
 64 66  1  0
 65 54  1  0
 65 67  1  0
 65 64  1  0
 67 63  1  0
 68 69  2  0
 69 88  1  0
 70 69  1  0
 70 73  1  0
 71 72  1  0
 71 68  1  0
 72 70  2  0
 73 74  1  0
 74 75  2  0
 76 79  1  0
 76 75  1  0
 77 76  2  0
 78 77  1  0
 78 73  2  0
 79 80  1  0
 80 81  1  0
 81 82  2  0
 83 82  1  0
 83 87  1  0
 84 83  2  0
 85 80  2  0
 85 84  1  0
 86 85  1  0
 88 89  1  0
 89 92  1  0
 89 91  1  0
 90 88  2  0
 93 68  1  0
 93 94  1  0
 95 93  1  0
 97 96  1  0
 97 99  1  0
 99 98  1  0
M  ISO  4   8 101   9 101  55 100  67 100
M  END
>  <TORSDO>  (63) 
F 22

>  <SCORE>  (63) 
-11.027

>  <name>  (63) 
62

>  <ligand_id>  (63) 
62

>  <original_smiles>  (63) 
[H]c1c([H])c([H])c2c(c1[H])C([H])([H])C([H])([H])C([H])([H])C2([H])N([H])C(=O)C1([H])N(C(=O)C([H])(N([H])C(=O)C([H])(N([H])C([H])([H])[H])C([H])([H])[H])C(C([H])([H])[H])(C([H])([H])[H])C([H])([H])[H])C([H])([H])c2c([H])c(OC(C(=O)N([H])C([H])(C(=O)N([H])C([H])([H])C3([H])N(C(=O)N4C([H])([H])C([H])([H])C([H])([H])C([H])(n5nc(-c6c([H])c([H])c(Oc7c([H])c([H])c(F)c([H])c7F)c([H])c6[H])c(C(=O)N([H])[H])c5N([H])[H])C4([H])[H])C([H])([H])C3([H])C([H])([H])[H])C([H])(C([H])([H])[H])C([H])([H])C([H])([H])[H])(C([H])([H])[H])C([H])([H])[H])c([H])c([H])c2C1([H])[H]

>  <smiles>  (63) 
[H]c1c([H])c([H])c2c(c1[H])C([H])([H])C([H])([H])C([H])([H])C2([H])N([H])C(=O)C1([H])N(C(=O)C([H])(N([H])C(=O)C([H])(N([H])C([H])([H])[H])C([H])([H])[H])C(C([H])([H])[H])(C([H])([H])[H])C([H])([H])[H])C([H])([H])c2c([H])c(OC(C(=O)N([H])C([H])(C(=O)N([H])C([H])([H])C3([H])N(C(=O)N4C([H])([H])C([H])([H])C([H])([H])C([H])(n5nc(-c6c([H])c([H])c(Oc7c([H])c([H])c(F)c([H])c7F)c([H])c6[H])c(C(=O)N([H])[H])c5N([H])[H])C4([H])[H])C([H])([H])C3([H])C([H])([H])[H])C([H])(C([H])([H])[H])C([H])([H])C([H])([H])[H])(C([H])([H])[H])C([H])([H])[H])c([H])c([H])c2C1([H])[H]

$$$$
63:0:0
     RDKit          3D

 98108  0  0  1  0  0  0  0  0999 V2000
  -28.1640  -20.9070   20.2760 C   0  0  0  0  0  2  0  0  0  0  0  0
  -29.7140  -22.5620   21.3590 C   0  0  0  0  0  2  0  0  0  0  0  0
  -27.2480  -22.0970   19.9100 C   0  0  0  0  0  2  0  0  0  0  0  0
  -28.7030  -23.6740   21.0070 C   0  0  0  0  0  2  0  0  0  0  0  0
  -29.0150  -21.1930   21.5370 C   0  0  0  0  0  3  0  0  0  0  0  0
  -28.0300  -23.3420   19.7290 N   0  0  2  0  0  4  0  0  0  0  0  0
  -28.7680  -23.1100   19.0940 H   0  0  0  0  0  0  0  0  0  0  0  0
  -30.0260  -20.0740   21.9410 C   0  0  0  0  0  2  0  0  0  0  0  0
  -31.0220  -18.0450   20.9010 C   0  0  0  0  0  0  0  0  0  0  0  0
  -29.9800  -18.8700   21.1120 N   0  0  0  0  0  0  0  0  0  0  0  0
  -32.0650  -18.1080   21.5580 O   0  0  0  0  0  0  0  0  0  0  0  0
  -29.1210  -18.6860   20.6060 H   0  0  0  0  0  0  0  0  0  0  0  0
  -32.7090  -15.1180   19.9740 C   0  0  0  0  0  0  0  0  0  0  0  0
  -32.2130  -12.8220   19.2290 C   0  0  0  0  0  2  0  0  0  0  0  0
  -31.2930  -12.7980   17.9950 C   0  0  0  0  0  2  0  0  0  0  0  0
  -29.8090  -12.8420   18.4180 C   0  0  0  0  0  2  0  0  0  0  0  0
  -29.5240  -13.9600   19.4490 C   0  0  0  0  0  3  0  0  0  0  0  0
  -30.5540  -13.9340   20.6050 C   0  0  0  0  0  2  0  0  0  0  0  0
  -31.8880  -14.0310   20.0030 N   0  0  0  0  0  0  0  0  0  0  0  0
  -33.9230  -14.9740   19.8020 O   0  0  0  0  0  0  0  0  0  0  0  0
  -30.7540  -16.6930   17.2200 C   0  0  0  0  0  2  0  0  0  0  0  0
  -32.0160  -16.2480   17.1570 C   0  0  0  0  0  2  0  0  0  0  0  0
  -32.0970  -18.2950   18.1670 C   0  0  0  0  0  2  0  0  0  0  0  0
  -30.7000  -17.7250   18.3530 C   0  0  0  0  0  3  0  0  0  0  0  0
  -32.7680  -16.9210   18.2840 C   0  0  0  0  0  3  0  0  0  0  0  0
  -30.9040  -17.0290   19.7540 C   0  0  0  0  0  3  0  0  0  0  0  0
  -32.1710  -16.2760   19.4870 N   0  0  0  0  0  0  0  0  0  0  0  0
  -27.3040  -14.9650   20.2760 C   0  0  0  0  0  0  0  0  0  0  0  0
  -26.1220  -14.3820   20.6190 C   0  0  0  0  0  0  0  0  0  0  0  0
  -26.3200  -12.9760   20.4790 C   0  0  0  0  0  0  0  0  0  0  0  0
  -28.1610  -13.9220   19.9490 N   0  0  0  0  0  0  0  0  0  0  0  0
  -27.5740  -12.7220   20.1340 N   0  0  0  0  0  0  0  0  0  0  0  0
  -25.3780  -11.8580   20.5690 C   0  0  0  0  0  0  0  0  0  0  0  0
  -25.6830  -10.6930   21.3040 C   0  0  0  0  0  3  0  0  0  0  0  0
  -24.7530   -9.6370   21.3890 C   0  0  0  0  0  3  0  0  0  0  0  0
  -23.5030   -9.7400   20.7390 C   0  0  0  0  0  0  0  0  0  0  0  0
  -23.2140  -10.8890   19.9820 C   0  0  0  0  0  3  0  0  0  0  0  0
  -24.1420  -11.9380   19.8930 C   0  0  0  0  0  3  0  0  0  0  0  0
  -22.5470   -8.7560   20.7500 O   0  0  0  0  0  0  0  0  0  0  0  0
  -22.2480   -8.0550   21.8900 C   0  0  0  0  0  0  0  0  0  0  0  0
  -21.8230   -8.7010   23.0730 C   0  0  0  0  0  3  0  0  0  0  0  0
  -21.4610   -7.9380   24.2010 C   0  0  0  0  0  3  0  0  0  0  0  0
  -21.5170   -6.5330   24.1490 C   0  0  0  0  0  0  0  0  0  0  0  0
  -21.9330   -5.8870   22.9720 C   0  0  0  0  0  3  0  0  0  0  0  0
  -22.2960   -6.6470   21.8450 C   0  0  0  0  0  0  0  0  0  0  0  0
  -22.6800   -6.0220   20.7060 F   0  0  0  0  0  0  0  0  0  0  0  0
  -21.1600   -5.7990   25.2280 F   0  0  0  0  0  0  0  0  0  0  0  0
  -24.8350  -15.0850   20.9470 C   0  0  0  0  0  0  0  0  0  0  0  0
  -24.0050  -14.4790   21.7860 N   0  0  0  0  0  0  0  0  0  0  0  0
  -24.5910  -16.2070   20.4980 O   0  0  0  0  0  0  0  0  0  0  0  0
  -24.2130  -13.5670   22.1660 H   0  0  0  0  0  0  0  0  0  0  0  0
  -23.1390  -14.9310   22.0500 H   0  0  0  0  0  0  0  0  0  0  0  0
  -27.7100  -16.2940   20.1650 N   0  0  0  0  0  0  0  0  0  0  0  0
  -26.9870  -17.0090   20.1640 H   0  0  0  0  0  0  0  0  0  0  0  0
  -28.4630  -16.5110   19.5250 H   0  0  0  0  0  0  0  0  0  0  0  0
  -27.2580  -24.4540   19.0760 C   0  0  0  0  0  2  0  0  0  0  0  0
  -28.1160  -25.6940   18.6780 C   0  0  0  0  0  2  0  0  0  0  0  0
  -27.5510  -26.6730   17.7620 O   0  0  0  0  0  0  0  0  0  0  0  0
  -24.9250  -30.7300   22.9880 C   0  0  0  0  0  0  0  0  0  0  0  0
  -26.5040  -27.4200   18.2420 C   0  0  0  0  0  0  0  0  0  0  0  0
  -23.2980  -29.8580   21.3530 C   0  0  0  0  0  3  0  0  0  0  0  0
  -24.2920  -28.8530   19.2350 C   0  0  0  0  0  0  0  0  0  0  0  0
  -25.7290  -30.2960   20.6700 C   0  0  0  0  0  2  0  0  0  0  0  0
  -25.5870  -29.1820   19.6590 C   0  0  0  0  0  0  0  0  0  0  0  0
  -26.7050  -28.4700   19.1670 C   0  0  0  0  0  3  0  0  0  0  0  0
  -25.2050  -27.1630   17.7600 C   0  0  0  0  0  3  0  0  0  0  0  0
  -24.0980  -27.8480   18.2800 C   0  0  0  0  0  3  0  0  0  0  0  0
  -23.1430  -29.6410   19.8280 C   0  0  0  0  0  2  0  0  0  0  0  0
  -24.6800  -30.2920   21.7220 N   0  0  0  0  0  0  0  0  0  0  0  0
  -24.0140  -30.8110   23.8240 O   0  0  0  0  0  0  0  0  0  0  0  0
  -22.8400  -28.5760   22.0850 C   0  0  0  0  0  0  0  0  0  0  0  0
  -21.5370  -28.2780   22.0050 N   0  0  0  0  0  0  0  0  0  0  0  0
  -23.6490  -27.8680   22.6880 O   0  0  0  0  0  0  0  0  0  0  0  0
  -20.9370  -28.9230   21.5160 H   0  0  0  0  0  0  0  0  0  0  0  0
  -18.4690  -26.3550   22.0810 C   0  0  0  0  0  0  0  0  0  0  0  0
  -20.8830  -27.0990   22.5860 C   0  0  0  0  0  3  0  0  0  0  0  0
  -21.3300  -25.8020   21.8710 C   0  0  0  0  0  2  0  0  0  0  0  0
  -20.3780  -25.3690   20.7530 C   0  0  0  0  0  2  0  0  0  0  0  0
  -18.9700  -25.1540   21.2890 C   0  0  0  0  0  2  0  0  0  0  0  0
  -19.3660  -27.2810   22.6730 C   0  0  0  0  0  0  0  0  0  0  0  0
  -18.8420  -28.4060   23.3460 C   0  0  0  0  0  3  0  0  0  0  0  0
  -17.4520  -28.6070   23.4370 C   0  0  0  0  0  3  0  0  0  0  0  0
  -16.5710  -27.6750   22.8720 C   0  0  0  0  0  3  0  0  0  0  0  0
  -17.0800  -26.5510   22.1970 C   0  0  0  0  0  3  0  0  0  0  0  0
  -26.3490  -31.1770   23.4380 C   0  0  0  0  0  3  0  0  0  0  0  0
  -27.0780  -30.1170   24.3590 C   0  0  1  0  0  0  0  0  0  0  0  0
  -26.2160  -29.6480   25.5570 C   0  0  0  0  0  1  0  0  0  0  0  0
  -27.4860  -28.8680   23.5400 C   0  0  0  0  0  1  0  0  0  0  0  0
  -28.3890  -30.7200   24.9190 C   0  0  0  0  0  1  0  0  0  0  0  0
  -26.2120  -32.4610   24.1420 N   0  0  0  0  0  0  0  0  0  0  0  0
  -26.7030  -33.6280   23.7020 C   0  0  0  0  0  0  0  0  0  0  0  0
  -27.3860  -33.7280   22.6790 O   0  0  0  0  0  0  0  0  0  0  0  0
  -25.6280  -32.4680   24.9660 H   0  0  0  0  0  0  0  0  0  0  0  0
  -25.3840  -35.7710   23.7470 C   0  0  0  0  0  1  0  0  0  0  0  0
  -26.3770  -34.8880   24.5230 C   0  0  0  0  0  3  0  0  0  0  0  0
  -28.4340  -35.0210   25.8600 C   0  0  0  0  0  1  0  0  0  0  0  0
  -27.5710  -35.6830   24.8850 N   0  0  0  0  0  0  0  0  0  0  0  0
  -27.2980  -36.5840   25.2640 H   0  0  0  0  0  0  0  0  0  0  0  0
  1  5  1  0
  2  5  1  0
  3  1  1  0
  4  2  1  0
  5  8  1  0
  6  3  1  0
  6  4  1  0
  6  7  1  6
  9 10  1  0
  9 11  2  0
 10  8  1  0
 12 10  1  0
 13 19  1  0
 14 19  1  0
 15 16  1  0
 15 14  1  0
 17 16  1  0
 17 31  1  0
 17 18  1  0
 19 18  1  0
 20 13  2  0
 22 21  1  0
 23 25  1  0
 23 24  1  0
 24 21  1  0
 24 26  1  0
 25 22  1  0
 25 27  1  0
 26  9  1  0
 27 26  1  0
 27 13  1  0
 28 29  2  0
 29 48  1  0
 30 33  1  0
 30 29  1  0
 31 32  1  0
 31 28  1  0
 32 30  2  0
 33 34  1  0
 34 35  2  0
 36 39  1  0
 36 35  1  0
 37 36  2  0
 38 37  1  0
 38 33  2  0
 39 40  1  0
 40 41  1  0
 41 42  2  0
 43 42  1  0
 43 47  1  0
 44 43  2  0
 45 40  2  0
 45 44  1  0
 46 45  1  0
 48 49  1  0
 49 52  1  0
 49 51  1  0
 50 48  2  0
 53 28  1  0
 54 53  1  0
 55 53  1  0
 56  6  1  0
 57 56  1  0
 58 60  1  0
 58 57  1  0
 59 70  2  0
 60 65  1  0
 61 69  1  0
 61 71  1  0
 62 64  1  0
 62 68  1  0
 63 69  1  0
 64 63  1  0
 65 64  2  0
 66 60  2  0
 66 67  1  0
 67 62  2  0
 68 61  1  0
 69 59  1  0
 71 73  2  0
 72 71  1  0
 74 72  1  0
 75 84  2  0
 75 80  1  0
 76 72  1  0
 76 80  1  0
 77 76  1  0
 78 79  1  0
 78 77  1  0
 79 75  1  0
 80 81  2  0
 81 82  1  0
 83 82  2  0
 84 83  1  0
 85 59  1  0
 85 90  1  0
 85 86  1  0
 86 89  1  1
 86 87  1  0
 88 86  1  0
 90 93  1  0
 91 90  1  0
 91 95  1  0
 92 91  2  0
 95 94  1  0
 95 97  1  0
 97 98  1  0
 97 96  1  0
M  ISO  4  13 100  27 100  57 101  58 101
M  END
>  <TORSDO>  (64) 
F 20

>  <SCORE>  (64) 
-8.342

>  <name>  (64) 
63

>  <ligand_id>  (64) 
63

>  <original_smiles>  (64) 
[H]C1=C([H])C2([H])C([H])(C(=O)N([H])C([H])([H])C3([H])C([H])([H])C([H])([H])[N+]([H])(C([H])([H])C([H])([H])Oc4c([H])c([H])c5c(c4[H])C([H])([H])N(C(=O)C([H])(N([H])C(=O)C([H])(N([H])C([H])([H])[H])C([H])([H])[H])C(C([H])([H])[H])(C([H])([H])[H])C([H])([H])[H])C([H])(C(=O)N([H])C4([H])c6c([H])c([H])c([H])c([H])c6C([H])([H])C([H])([H])C4([H])[H])C5([H])[H])C([H])([H])C3([H])[H])N(C(=O)N3C([H])([H])C([H])([H])C([H])([H])C([H])(n4nc(-c5c([H])c([H])c(Oc6c([H])c([H])c(F)c([H])c6F)c([H])c5[H])c(C(=O)N([H])[H])c4N([H])[H])C3([H])[H])C1([H])C2([H])[H]

>  <smiles>  (64) 
[H]C1=C([H])C2([H])C([H])(C(=O)N([H])C([H])([H])C3([H])C([H])([H])C([H])([H])[N+]([H])(C([H])([H])C([H])([H])Oc4c([H])c([H])c5c(c4[H])C([H])([H])N(C(=O)C([H])(N([H])C(=O)C([H])(N([H])C([H])([H])[H])C([H])([H])[H])C(C([H])([H])[H])(C([H])([H])[H])C([H])([H])[H])C([H])(C(=O)N([H])C4([H])c6c([H])c([H])c([H])c([H])c6C([H])([H])C([H])([H])C4([H])[H])C5([H])[H])C([H])([H])C3([H])[H])N(C(=O)N3C([H])([H])C([H])([H])C([H])([H])C([H])(n4nc(-c5c([H])c([H])c(Oc6c([H])c([H])c(F)c([H])c6F)c([H])c5[H])c(C(=O)N([H])[H])c4N([H])[H])C3([H])[H])C1([H])C2([H])[H]

$$$$
64:0:0
     RDKit          3D

 98107  0  0  1  0  0  0  0  0999 V2000
  -27.8570  -22.2630   17.8250 C   0  0  0  0  0  2  0  0  0  0  0  0
  -29.5860  -23.1990   16.1850 C   0  0  0  0  0  2  0  0  0  0  0  0
  -28.8620  -22.5640   18.9450 C   0  0  0  0  0  2  0  0  0  0  0  0
  -30.4740  -23.5810   17.3960 C   0  0  0  0  0  2  0  0  0  0  0  0
  -28.5960  -22.0270   16.4770 C   0  0  0  0  0  3  0  0  0  0  0  0
  -29.5560  -23.8020   18.5300 N   0  0  2  0  0  4  0  0  0  0  0  0
  -28.8220  -24.3040   18.0520 H   0  0  0  0  0  0  0  0  0  0  0  0
  -29.2690  -20.6450   16.5070 C   0  0  0  0  0  0  0  0  0  0  0  0
  -28.4760  -19.6350   16.8700 N   0  0  0  0  0  0  0  0  0  0  0  0
  -30.4710  -20.5030   16.2720 O   0  0  0  0  0  0  0  0  0  0  0  0
  -27.4910  -19.8480   16.9910 H   0  0  0  0  0  0  0  0  0  0  0  0
  -28.9120  -18.3020   17.2590 C   0  0  0  0  0  2  0  0  0  0  0  0
  -29.1910  -18.2160   18.7810 C   0  0  0  0  0  2  0  0  0  0  0  0
  -29.9510  -16.9380   19.1430 C   0  0  0  0  0  0  0  0  0  0  0  0
  -29.9910  -16.0330   18.3060 O   0  0  0  0  0  0  0  0  0  0  0  0
  -31.3050  -14.5010   20.6370 C   0  0  0  0  0  0  0  0  0  0  0  0
  -30.9750  -12.4020   19.3880 C   0  0  0  0  0  2  0  0  0  0  0  0
  -30.0520  -12.6450   18.1750 C   0  0  0  0  0  2  0  0  0  0  0  0
  -28.5610  -12.5740   18.5710 C   0  0  0  0  0  2  0  0  0  0  0  0
  -28.2250  -13.3780   19.8590 C   0  0  0  0  0  3  0  0  0  0  0  0
  -29.2550  -13.0730   20.9720 C   0  0  0  0  0  2  0  0  0  0  0  0
  -30.5980  -13.3590   20.4360 N   0  0  0  0  0  0  0  0  0  0  0  0
  -32.4420  -14.6890   20.1980 O   0  0  0  0  0  0  0  0  0  0  0  0
  -29.8720  -17.3110   21.7590 C   0  0  0  0  0  2  0  0  0  0  0  0
  -30.5640  -16.1110   22.4070 C   0  0  0  0  0  2  0  0  0  0  0  0
  -30.6310  -16.8940   20.4970 C   0  0  0  0  0  3  0  0  0  0  0  0
  -30.5530  -15.5320   21.0610 N   0  0  0  0  0  0  0  0  0  0  0  0
  -25.8200  -14.0380   20.5100 C   0  0  0  0  0  0  0  0  0  0  0  0
  -24.7300  -13.2830   20.8460 C   0  0  0  0  0  0  0  0  0  0  0  0
  -25.1610  -11.9230   20.8150 C   0  0  0  0  0  0  0  0  0  0  0  0
  -26.8530  -13.1350   20.3010 N   0  0  0  0  0  0  0  0  0  0  0  0
  -26.4550  -11.8570   20.5350 N   0  0  0  0  0  0  0  0  0  0  0  0
  -24.4060  -10.6750   20.9730 C   0  0  0  0  0  0  0  0  0  0  0  0
  -24.7360   -9.7390   21.9780 C   0  0  0  0  0  3  0  0  0  0  0  0
  -23.9850   -8.5510   22.1190 C   0  0  0  0  0  3  0  0  0  0  0  0
  -22.8910   -8.2940   21.2600 C   0  0  0  0  0  0  0  0  0  0  0  0
  -22.5820   -9.2170   20.2440 C   0  0  0  0  0  3  0  0  0  0  0  0
  -23.3320  -10.3960   20.1010 C   0  0  0  0  0  3  0  0  0  0  0  0
  -22.1190   -7.1600   21.3120 O   0  0  0  0  0  0  0  0  0  0  0  0
  -21.8470   -6.5280   22.5000 C   0  0  0  0  0  0  0  0  0  0  0  0
  -21.1940   -7.1850   23.5650 C   0  0  0  0  0  3  0  0  0  0  0  0
  -20.8790   -6.4770   24.7430 C   0  0  0  0  0  3  0  0  0  0  0  0
  -21.2010   -5.1100   24.8510 C   0  0  0  0  0  0  0  0  0  0  0  0
  -21.8450   -4.4540   23.7880 C   0  0  0  0  0  3  0  0  0  0  0  0
  -22.1690   -5.1600   22.6170 C   0  0  0  0  0  0  0  0  0  0  0  0
  -22.7680   -4.5170   21.5870 F   0  0  0  0  0  0  0  0  0  0  0  0
  -20.8900   -4.4270   25.9780 F   0  0  0  0  0  0  0  0  0  0  0  0
  -23.3370  -13.7850   21.0980 C   0  0  0  0  0  0  0  0  0  0  0  0
  -22.5810  -13.1000   21.9480 N   0  0  0  0  0  0  0  0  0  0  0  0
  -22.9260  -14.8180   20.5700 O   0  0  0  0  0  0  0  0  0  0  0  0
  -22.9170  -12.2590   22.3920 H   0  0  0  0  0  0  0  0  0  0  0  0
  -21.6470  -13.4230   22.1610 H   0  0  0  0  0  0  0  0  0  0  0  0
  -26.0110  -15.4050   20.3520 N   0  0  0  0  0  0  0  0  0  0  0  0
  -25.2450  -16.0680   20.4420 H   0  0  0  0  0  0  0  0  0  0  0  0
  -26.8900  -15.8350   20.0930 H   0  0  0  0  0  0  0  0  0  0  0  0
  -29.8740  -24.7940   19.5860 C   0  0  0  0  0  2  0  0  0  0  0  0
  -28.5340  -25.4920   19.8670 C   0  0  0  0  0  2  0  0  0  0  0  0
  -28.5110  -26.6930   20.6260 O   0  0  0  0  0  0  0  0  0  0  0  0
  -24.5440  -31.9220   23.4120 C   0  0  0  0  0  0  0  0  0  0  0  0
  -27.3060  -27.3760   20.6000 C   0  0  0  0  0  0  0  0  0  0  0  0
  -23.4090  -30.4830   21.7510 C   0  0  0  0  0  3  0  0  0  0  0  0
  -24.9130  -28.8930   20.4660 C   0  0  0  0  0  0  0  0  0  0  0  0
  -25.9480  -30.8070   21.6830 C   0  0  0  0  0  2  0  0  0  0  0  0
  -26.0500  -29.4210   21.0870 C   0  0  0  0  0  0  0  0  0  0  0  0
  -27.2470  -28.6750   21.1520 C   0  0  0  0  0  3  0  0  0  0  0  0
  -26.1190  -26.8430   20.0210 C   0  0  0  0  0  3  0  0  0  0  0  0
  -24.9410  -27.5960   19.9370 C   0  0  0  0  0  3  0  0  0  0  0  0
  -23.6850  -29.7640   20.4090 C   0  0  0  0  0  2  0  0  0  0  0  0
  -24.6490  -31.0880   22.3390 N   0  0  0  0  0  0  0  0  0  0  0  0
  -23.4390  -32.2200   23.8850 O   0  0  0  0  0  0  0  0  0  0  0  0
  -22.6970  -29.4950   22.7040 C   0  0  0  0  0  0  0  0  0  0  0  0
  -21.3740  -29.3460   22.5360 N   0  0  0  0  0  0  0  0  0  0  0  0
  -23.3350  -28.8650   23.5530 O   0  0  0  0  0  0  0  0  0  0  0  0
  -20.9220  -29.9070   21.8270 H   0  0  0  0  0  0  0  0  0  0  0  0
  -17.9430  -28.2970   22.9800 C   0  0  0  0  0  0  0  0  0  0  0  0
  -20.5050  -28.4450   23.2940 C   0  0  0  0  0  3  0  0  0  0  0  0
  -20.5540  -27.0080   22.7250 C   0  0  0  0  0  2  0  0  0  0  0  0
  -19.4560  -26.7310   21.6910 C   0  0  0  0  0  2  0  0  0  0  0  0
  -18.0710  -26.9390   22.3100 C   0  0  0  0  0  2  0  0  0  0  0  0
  -19.0870  -29.0110   23.4260 C   0  0  0  0  0  0  0  0  0  0  0  0
  -18.9130  -30.2880   24.0040 C   0  0  0  0  0  3  0  0  0  0  0  0
  -17.6280  -30.8480   24.1420 C   0  0  0  0  0  3  0  0  0  0  0  0
  -16.4990  -30.1290   23.7120 C   0  0  0  0  0  3  0  0  0  0  0  0
  -16.6570  -28.8550   23.1380 C   0  0  0  0  0  3  0  0  0  0  0  0
  -25.8040  -32.5570   24.0760 C   0  0  0  0  0  3  0  0  0  0  0  0
  -25.4970  -33.9700   24.3390 N   0  0  0  0  0  0  0  0  0  0  0  0
  -25.8960  -34.9900   23.5670 C   0  0  0  0  0  0  0  0  0  0  0  0
  -26.6340  -34.8440   22.5890 O   0  0  0  0  0  0  0  0  0  0  0  0
  -24.8560  -34.1600   25.0960 H   0  0  0  0  0  0  0  0  0  0  0  0
  -24.2330  -36.7980   23.0210 C   0  0  0  0  0  1  0  0  0  0  0  0
  -25.3970  -36.3990   23.9430 C   0  0  0  0  0  3  0  0  0  0  0  0
  -27.4760  -37.2780   24.9150 C   0  0  0  0  0  1  0  0  0  0  0  0
  -26.4540  -37.4320   23.8820 N   0  0  0  0  0  0  0  0  0  0  0  0
  -26.0520  -38.3630   23.9690 H   0  0  0  0  0  0  0  0  0  0  0  0
  -26.2480  -31.8240   25.4010 C   0  0  1  0  0  0  0  0  0  0  0  0
  -25.0980  -31.6120   26.4140 C   0  0  0  0  0  1  0  0  0  0  0  0
  -26.8540  -30.4360   25.0850 C   0  0  0  0  0  1  0  0  0  0  0  0
  -27.3560  -32.6410   26.1060 C   0  0  0  0  0  1  0  0  0  0  0  0
  1  3  1  0
  2  5  1  0
  2  4  1  0
  4  6  1  0
  5  8  1  0
  5  1  1  0
  6  3  1  0
  6 56  1  0
  6  7  1  6
  8  9  1  0
  9 11  1  0
  9 12  1  0
 10  8  2  0
 12 13  1  0
 13 14  1  0
 15 14  2  0
 16 27  1  0
 17 22  1  0
 18 19  1  0
 18 17  1  0
 20 19  1  0
 20 31  1  0
 20 21  1  0
 22 16  1  0
 22 21  1  0
 23 16  2  0
 24 25  1  0
 26 14  1  0
 26 27  1  0
 26 24  1  0
 27 25  1  0
 28 29  2  0
 29 48  1  0
 30 29  1  0
 30 33  1  0
 31 28  1  0
 31 32  1  0
 32 30  2  0
 33 34  1  0
 34 35  2  0
 36 39  1  0
 36 35  1  0
 37 36  2  0
 38 37  1  0
 38 33  2  0
 39 40  1  0
 40 45  2  0
 40 41  1  0
 41 42  2  0
 42 43  1  0
 43 47  1  0
 44 43  2  0
 45 44  1  0
 46 45  1  0
 48 49  1  0
 49 52  1  0
 49 51  1  0
 50 48  2  0
 53 54  1  0
 53 28  1  0
 55 53  1  0
 56 57  1  0
 57 58  1  0
 59 70  2  0
 60 58  1  0
 60 65  1  0
 61 69  1  0
 61 71  1  0
 62 64  1  0
 63 69  1  0
 64 65  2  0
 64 63  1  0
 66 60  2  0
 67 66  1  0
 67 62  2  0
 68 62  1  0
 68 61  1  0
 69 59  1  0
 71 73  2  0
 72 71  1  0
 74 72  1  0
 75 84  2  0
 75 80  1  0
 76 72  1  0
 76 80  1  0
 77 76  1  0
 78 79  1  0
 78 77  1  0
 79 75  1  0
 80 81  2  0
 81 82  1  0
 83 82  2  0
 84 83  1  0
 85 59  1  0
 85 86  1  0
 85 95  1  0
 86 89  1  0
 87 91  1  0
 87 86  1  0
 88 87  2  0
 91 90  1  0
 93 91  1  0
 93 94  1  0
 93 92  1  0
 95 98  1  1
 95 96  1  0
 97 95  1  0
M  ISO  4  16 100  27 100  57 101  58 101
M  END
>  <TORSDO>  (65) 
F 22

>  <SCORE>  (65) 
-11.331

>  <name>  (65) 
64

>  <ligand_id>  (65) 
64

>  <original_smiles>  (65) 
[H]c1c([H])c([H])c2c(c1[H])C([H])([H])C([H])([H])C([H])([H])C2([H])N([H])C(=O)C1([H])N(C(=O)C([H])(N([H])C(=O)C([H])(N([H])C([H])([H])[H])C([H])([H])[H])C(C([H])([H])[H])(C([H])([H])[H])C([H])([H])[H])C([H])([H])c2c([H])c(OC([H])([H])C([H])([H])[N+]3([H])C([H])([H])C([H])([H])C([H])(C(=O)N([H])C([H])([H])C([H])([H])C(=O)C4([H])N(C(=O)N5C([H])([H])C([H])([H])C([H])([H])C([H])(n6nc(-c7c([H])c([H])c(Oc8c([H])c([H])c(F)c([H])c8F)c([H])c7[H])c(C(=O)N([H])[H])c6N([H])[H])C5([H])[H])C([H])([H])C4([H])[H])C([H])([H])C3([H])[H])c([H])c([H])c2C1([H])[H]

>  <smiles>  (65) 
[H]c1c([H])c([H])c2c(c1[H])C([H])([H])C([H])([H])C([H])([H])C2([H])N([H])C(=O)C1([H])N(C(=O)C([H])(N([H])C(=O)C([H])(N([H])C([H])([H])[H])C([H])([H])[H])C(C([H])([H])[H])(C([H])([H])[H])C([H])([H])[H])C([H])([H])c2c([H])c(OC([H])([H])C([H])([H])[N+]3([H])C([H])([H])C([H])([H])C([H])(C(=O)N([H])C([H])([H])C([H])([H])C(=O)C4([H])N(C(=O)N5C([H])([H])C([H])([H])C([H])([H])C([H])(n6nc(-c7c([H])c([H])c(Oc8c([H])c([H])c(F)c([H])c8F)c([H])c7[H])c(C(=O)N([H])[H])c6N([H])[H])C5([H])[H])C([H])([H])C4([H])[H])C([H])([H])C3([H])[H])c([H])c([H])c2C1([H])[H]

$$$$
65:0:0
     RDKit          3D

 97106  0  0  1  0  0  0  0  0999 V2000
  -29.2650  -23.0680   19.4030 N   0  0  0  0  0  4  0  0  0  0  0  0
  -29.1060  -23.4310   20.3290 H   0  0  0  0  0  0  0  0  0  0  0  0
  -28.3720  -22.7900   19.0300 H   0  0  0  0  0  0  0  0  0  0  0  0
  -31.2420  -21.9510   20.4630 C   0  0  0  0  0  2  0  0  0  0  0  0
  -30.0360  -21.0750   20.7550 C   0  0  0  0  0  3  0  0  0  0  0  0
  -30.1200  -21.8570   19.4560 C   0  0  0  0  0  3  0  0  0  0  0  0
  -29.5670  -18.7700   19.8390 C   0  0  0  0  0  3  0  0  0  0  0  0
  -29.6170  -17.3640   19.9170 C   0  0  0  0  0  3  0  0  0  0  0  0
  -30.9220  -17.5270   21.9620 C   0  0  0  0  0  3  0  0  0  0  0  0
  -30.1880  -19.5750   20.8210 C   0  0  0  0  0  0  0  0  0  0  0  0
  -30.8830  -18.9390   21.8810 C   0  0  0  0  0  0  0  0  0  0  0  0
  -30.2890  -16.7350   20.9860 C   0  0  0  0  0  0  0  0  0  0  0  0
  -31.5670  -19.7600   22.9630 C   0  0  0  0  0  1  0  0  0  0  0  0
  -30.8050  -14.4340   20.3210 C   0  0  0  0  0  0  0  0  0  0  0  0
  -30.4520  -12.3230   19.0970 C   0  0  0  0  0  2  0  0  0  0  0  0
  -29.4800  -12.5830   17.9280 C   0  0  0  0  0  2  0  0  0  0  0  0
  -28.0140  -12.4420   18.3900 C   0  0  0  0  0  2  0  0  0  0  0  0
  -27.7200  -13.2480   19.6840 C   0  0  0  0  0  3  0  0  0  0  0  0
  -28.7980  -12.9650   20.7540 C   0  0  0  0  0  2  0  0  0  0  0  0
  -30.1200  -13.2660   20.1740 N   0  0  0  0  0  0  0  0  0  0  0  0
  -31.8630  -14.6780   19.7320 O   0  0  0  0  0  0  0  0  0  0  0  0
  -30.2320  -15.3260   21.1400 N   0  0  0  0  0  0  0  0  0  0  0  0
  -29.4570  -14.9750   21.6810 H   0  0  0  0  0  0  0  0  0  0  0  0
  -25.3390  -13.8690   20.4480 C   0  0  0  0  0  0  0  0  0  0  0  0
  -24.2730  -13.1000   20.8340 C   0  0  0  0  0  0  0  0  0  0  0  0
  -24.7220  -11.7450   20.7770 C   0  0  0  0  0  0  0  0  0  0  0  0
  -26.3730  -12.9820   20.1870 N   0  0  0  0  0  0  0  0  0  0  0  0
  -26.0050  -11.6990   20.4390 N   0  0  0  0  0  0  0  0  0  0  0  0
  -23.9920  -10.4860   20.9740 C   0  0  0  0  0  0  0  0  0  0  0  0
  -24.4190   -9.5240   21.9170 C   0  0  0  0  0  3  0  0  0  0  0  0
  -23.6910   -8.3280   22.1010 C   0  0  0  0  0  3  0  0  0  0  0  0
  -22.5190   -8.0880   21.3430 C   0  0  0  0  0  0  0  0  0  0  0  0
  -22.1100   -9.0390   20.3920 C   0  0  0  0  0  3  0  0  0  0  0  0
  -22.8390  -10.2260   20.2050 C   0  0  0  0  0  3  0  0  0  0  0  0
  -21.7630   -6.9440   21.4350 O   0  0  0  0  0  0  0  0  0  0  0  0
  -21.6830   -6.2270   22.6010 C   0  0  0  0  0  0  0  0  0  0  0  0
  -21.2010   -6.8000   23.7990 C   0  0  0  0  0  3  0  0  0  0  0  0
  -21.0690   -6.0070   24.9570 C   0  0  0  0  0  3  0  0  0  0  0  0
  -21.4090   -4.6410   24.9170 C   0  0  0  0  0  0  0  0  0  0  0  0
  -21.8830   -4.0670   23.7250 C   0  0  0  0  0  3  0  0  0  0  0  0
  -22.0160   -4.8580   22.5700 C   0  0  0  0  0  0  0  0  0  0  0  0
  -22.4520   -4.2950   21.4170 F   0  0  0  0  0  0  0  0  0  0  0  0
  -21.2760   -3.8760   26.0270 F   0  0  0  0  0  0  0  0  0  0  0  0
  -22.8840  -13.5830   21.1450 C   0  0  0  0  0  0  0  0  0  0  0  0
  -22.1750  -12.8810   22.0230 N   0  0  0  0  0  0  0  0  0  0  0  0
  -22.4390  -14.6160   20.6480 O   0  0  0  0  0  0  0  0  0  0  0  0
  -22.5510  -12.0480   22.4490 H   0  0  0  0  0  0  0  0  0  0  0  0
  -21.2430  -13.1830   22.2700 H   0  0  0  0  0  0  0  0  0  0  0  0
  -25.5120  -15.2400   20.2790 N   0  0  0  0  0  0  0  0  0  0  0  0
  -24.7570  -15.9050   20.4110 H   0  0  0  0  0  0  0  0  0  0  0  0
  -26.3680  -15.6730   19.9550 H   0  0  0  0  0  0  0  0  0  0  0  0
  -29.7960  -24.1460   18.5390 C   0  0  0  0  0  2  0  0  0  0  0  0
  -28.7310  -25.2280   18.2010 C   0  0  0  0  0  3  0  0  0  0  0  0
  -28.6660  -25.3890   16.7910 O   0  0  0  0  0  0  0  0  0  0  0  0
  -27.9500  -25.9870   16.5940 H   0  0  0  0  0  0  0  0  0  0  0  0
  -28.9890  -26.6260   18.8310 C   0  0  0  0  0  2  0  0  0  0  0  0
  -28.3860  -26.7840   20.1180 O   0  0  0  0  0  0  0  0  0  0  0  0
  -24.5730  -31.9330   23.2350 C   0  0  0  0  0  0  0  0  0  0  0  0
  -27.2100  -27.5000   20.1390 C   0  0  0  0  0  0  0  0  0  0  0  0
  -23.3590  -30.5300   21.5980 C   0  0  0  0  0  3  0  0  0  0  0  0
  -24.8080  -28.9850   20.1760 C   0  0  0  0  0  0  0  0  0  0  0  0
  -25.8820  -30.8850   21.3930 C   0  0  0  0  0  2  0  0  0  0  0  0
  -25.9650  -29.5110   20.7640 C   0  0  0  0  0  0  0  0  0  0  0  0
  -27.1660  -28.7690   20.7570 C   0  0  0  0  0  3  0  0  0  0  0  0
  -26.0320  -26.9750   19.5640 C   0  0  0  0  0  3  0  0  0  0  0  0
  -24.8330  -27.7110   19.5820 C   0  0  0  0  0  3  0  0  0  0  0  0
  -23.5650  -29.8450   20.2200 C   0  0  0  0  0  2  0  0  0  0  0  0
  -24.6230  -31.1300   22.1350 N   0  0  0  0  0  0  0  0  0  0  0  0
  -23.4950  -32.2080   23.7780 O   0  0  0  0  0  0  0  0  0  0  0  0
  -22.7090  -29.5120   22.5630 C   0  0  0  0  0  0  0  0  0  0  0  0
  -21.3830  -29.3350   22.4430 N   0  0  0  0  0  0  0  0  0  0  0  0
  -23.3940  -28.8850   23.3770 O   0  0  0  0  0  0  0  0  0  0  0  0
  -20.8920  -29.8950   21.7600 H   0  0  0  0  0  0  0  0  0  0  0  0
  -18.0060  -28.1610   22.9610 C   0  0  0  0  0  0  0  0  0  0  0  0
  -20.5670  -28.4010   23.2180 C   0  0  0  0  0  3  0  0  0  0  0  0
  -20.6560  -26.9700   22.6400 C   0  0  0  0  0  2  0  0  0  0  0  0
  -19.5460  -26.6560   21.6320 C   0  0  0  0  0  2  0  0  0  0  0  0
  -18.1690  -26.8110   22.2840 C   0  0  0  0  0  2  0  0  0  0  0  0
  -19.1320  -28.9150   23.3860 C   0  0  0  0  0  0  0  0  0  0  0  0
  -18.9260  -30.1800   23.9760 C   0  0  0  0  0  3  0  0  0  0  0  0
  -17.6260  -30.6920   24.1480 C   0  0  0  0  0  3  0  0  0  0  0  0
  -16.5150  -29.9340   23.7410 C   0  0  0  0  0  3  0  0  0  0  0  0
  -16.7050  -28.6720   23.1520 C   0  0  0  0  0  3  0  0  0  0  0  0
  -25.8640  -32.5620   23.8480 C   0  0  0  0  0  3  0  0  0  0  0  0
  -25.5610  -33.9600   24.1780 N   0  0  0  0  0  0  0  0  0  0  0  0
  -25.9000  -35.0110   23.4160 C   0  0  0  0  0  0  0  0  0  0  0  0
  -26.5700  -34.9020   22.3860 O   0  0  0  0  0  0  0  0  0  0  0  0
  -24.9640  -34.1190   24.9760 H   0  0  0  0  0  0  0  0  0  0  0  0
  -24.1870  -36.8140   23.0440 C   0  0  0  0  0  1  0  0  0  0  0  0
  -25.4160  -36.4000   23.8690 C   0  0  0  0  0  3  0  0  0  0  0  0
  -27.5460  -37.2710   24.7280 C   0  0  0  0  0  1  0  0  0  0  0  0
  -26.4570  -37.4460   23.7710 N   0  0  0  0  0  0  0  0  0  0  0  0
  -26.0570  -38.3690   23.9150 H   0  0  0  0  0  0  0  0  0  0  0  0
  -26.3900  -31.7890   25.1200 C   0  0  1  0  0  0  0  0  0  0  0  0
  -25.3030  -31.5480   26.1930 C   0  0  0  0  0  1  0  0  0  0  0  0
  -26.9720  -30.4130   24.7210 C   0  0  0  0  0  1  0  0  0  0  0  0
  -27.5450  -32.5820   25.7760 C   0  0  0  0  0  1  0  0  0  0  0  0
  1  2  1  0
  3  1  1  0
  4  5  1  0
  5 10  1  0
  6  1  1  0
  6  4  1  0
  6  5  1  0
  7  8  2  0
  7 10  1  0
  8 12  1  0
 10 11  2  0
 11  9  1  0
 11 13  1  0
 12 22  1  0
 12  9  2  0
 14 22  1  0
 15 20  1  0
 16 17  1  0
 16 15  1  0
 18 17  1  0
 18 27  1  0
 18 19  1  0
 20 14  1  0
 20 19  1  0
 21 14  2  0
 22 23  1  0
 24 25  2  0
 25 44  1  0
 26 25  1  0
 26 29  1  0
 27 28  1  0
 27 24  1  0
 28 26  2  0
 29 30  1  0
 30 31  2  0
 32 35  1  0
 32 31  1  0
 33 32  2  0
 34 33  1  0
 34 29  2  0
 35 36  1  0
 36 37  1  0
 37 38  2  0
 39 38  1  0
 39 43  1  0
 40 39  2  0
 41 36  2  0
 41 40  1  0
 42 41  1  0
 44 45  1  0
 45 48  1  0
 45 47  1  0
 46 44  2  0
 49 50  1  0
 49 24  1  0
 51 49  1  0
 52  1  1  0
 53 52  1  0
 53 56  1  0
 54 53  1  0
 55 54  1  0
 56 57  1  0
 57 59  1  0
 58 69  2  0
 59 64  1  0
 60 68  1  0
 60 70  1  0
 61 67  1  0
 61 63  1  0
 62 68  1  0
 63 62  1  0
 64 63  2  0
 65 66  1  0
 65 59  2  0
 66 61  2  0
 67 60  1  0
 68 58  1  0
 70 72  2  0
 71 70  1  0
 73 71  1  0
 74 83  2  0
 74 79  1  0
 75 71  1  0
 75 79  1  0
 76 75  1  0
 77 78  1  0
 77 76  1  0
 78 74  1  0
 79 80  2  0
 80 81  1  0
 82 81  2  0
 83 82  1  0
 84 58  1  0
 84 85  1  0
 84 94  1  0
 85 88  1  0
 86 90  1  0
 86 85  1  0
 87 86  2  0
 90 89  1  0
 92 90  1  0
 92 93  1  0
 92 91  1  0
 94 97  1  1
 94 95  1  0
 96 94  1  0
M  ISO  4  14 100  22 100  56 101  57 101
M  END
>  <TORSDO>  (66) 
F 22

>  <SCORE>  (66) 
-13.589

>  <name>  (66) 
65

>  <ligand_id>  (66) 
65

>  <original_smiles>  (66) 
[H]OC([H])(C([H])([H])Oc1c([H])c([H])c2c(c1[H])C([H])([H])N(C(=O)C([H])(N([H])C(=O)C([H])(N([H])C([H])([H])[H])C([H])([H])[H])C(C([H])([H])[H])(C([H])([H])[H])C([H])([H])[H])C([H])(C(=O)N([H])C1([H])c3c([H])c([H])c([H])c([H])c3C([H])([H])C([H])([H])C1([H])[H])C2([H])[H])C([H])([H])[N+]([H])([H])C1([H])C([H])([H])C1([H])c1c([H])c([H])c(N([H])C(=O)N2C([H])([H])C([H])([H])C([H])([H])C([H])(n3nc(-c4c([H])c([H])c(Oc5c([H])c([H])c(F)c([H])c5F)c([H])c4[H])c(C(=O)N([H])[H])c3N([H])[H])C2([H])[H])c([H])c1C([H])([H])[H]

>  <smiles>  (66) 
[H]OC([H])(C([H])([H])Oc1c([H])c([H])c2c(c1[H])C([H])([H])N(C(=O)C([H])(N([H])C(=O)C([H])(N([H])C([H])([H])[H])C([H])([H])[H])C(C([H])([H])[H])(C([H])([H])[H])C([H])([H])[H])C([H])(C(=O)N([H])C1([H])c3c([H])c([H])c([H])c([H])c3C([H])([H])C([H])([H])C1([H])[H])C2([H])[H])C([H])([H])[N+]([H])([H])C1([H])C([H])([H])C1([H])c1c([H])c([H])c(N([H])C(=O)N2C([H])([H])C([H])([H])C([H])([H])C([H])(n3nc(-c4c([H])c([H])c(Oc5c([H])c([H])c(F)c([H])c5F)c([H])c4[H])c(C(=O)N([H])[H])c3N([H])[H])C2([H])[H])c([H])c1C([H])([H])[H]

$$$$
66:0:0
     RDKit          3D

101109  0  0  1  0  0  0  0  0999 V2000
  -29.5110  -19.0010   20.7640 C   0  0  0  0  0  2  0  0  0  0  0  0
  -30.3400  -17.9630   18.5870 C   0  0  0  0  0  2  0  0  0  0  0  0
  -28.3190  -19.2820   19.8230 C   0  0  0  0  0  2  0  0  0  0  0  0
  -29.9160  -19.2670   17.8980 C   0  0  0  0  0  2  0  0  0  0  0  0
  -30.6260  -18.1620   20.0930 C   0  0  0  0  0  3  0  0  0  0  0  0
  -28.7440  -19.9220   18.5460 N   0  0  2  0  0  4  0  0  0  0  0  0
  -27.9760  -19.7880   17.9050 H   0  0  0  0  0  0  0  0  0  0  0  0
  -28.9390  -21.3900   18.6220 C   0  0  0  0  0  2  0  0  0  0  0  0
  -27.8050  -22.1610   19.3250 C   0  0  0  0  0  2  0  0  0  0  0  0
  -28.0040  -23.6810   19.2860 C   0  0  0  0  0  2  0  0  0  0  0  0
  -30.2880  -24.0560   20.2360 C   0  0  0  0  0  0  0  0  0  0  0  0
  -29.4080  -24.0700   19.2270 N   0  0  0  0  0  0  0  0  0  0  0  0
  -30.0720  -23.4890   21.3100 O   0  0  0  0  0  0  0  0  0  0  0  0
  -29.7060  -24.5400   18.3840 H   0  0  0  0  0  0  0  0  0  0  0  0
  -31.5700  -24.8730   20.0100 C   0  0  0  0  0  2  0  0  0  0  0  0
  -31.5190  -26.1120   20.7310 O   0  0  0  0  0  0  0  0  0  0  0  0
  -27.5350  -30.6220   24.4550 C   0  0  0  0  0  0  0  0  0  0  0  0
  -30.3580  -26.8600   20.7260 C   0  0  0  0  0  0  0  0  0  0  0  0
  -26.4610  -29.6890   22.4320 C   0  0  0  0  0  3  0  0  0  0  0  0
  -28.0070  -28.4260   20.8450 C   0  0  0  0  0  0  0  0  0  0  0  0
  -29.0010  -29.9500   22.5620 C   0  0  0  0  0  2  0  0  0  0  0  0
  -29.1100  -28.7500   21.6460 C   0  0  0  0  0  0  0  0  0  0  0  0
  -30.2830  -27.9690   21.5910 C   0  0  0  0  0  3  0  0  0  0  0  0
  -29.2490  -26.5710   19.8940 C   0  0  0  0  0  3  0  0  0  0  0  0
  -28.0690  -27.3320   19.9670 C   0  0  0  0  0  3  0  0  0  0  0  0
  -26.7900  -29.3150   20.9630 C   0  0  0  0  0  2  0  0  0  0  0  0
  -27.6780  -30.0840   23.2120 N   0  0  0  0  0  0  0  0  0  0  0  0
  -26.4140  -30.8290   24.9370 O   0  0  0  0  0  0  0  0  0  0  0  0
  -25.6800  -28.5220   23.0740 C   0  0  0  0  0  0  0  0  0  0  0  0
  -24.4100  -28.3590   22.6710 N   0  0  0  0  0  0  0  0  0  0  0  0
  -26.2220  -27.7690   23.8880 O   0  0  0  0  0  0  0  0  0  0  0  0
  -24.0420  -29.0070   21.9890 H   0  0  0  0  0  0  0  0  0  0  0  0
  -21.1130  -26.9770   22.1640 C   0  0  0  0  0  0  0  0  0  0  0  0
  -23.4950  -27.3080   23.1120 C   0  0  0  0  0  3  0  0  0  0  0  0
  -23.8440  -25.9590   22.4430 C   0  0  0  0  0  2  0  0  0  0  0  0
  -23.0550  -25.7050   21.1540 C   0  0  0  0  0  2  0  0  0  0  0  0
  -21.5470  -25.7230   21.4260 C   0  0  0  0  0  2  0  0  0  0  0  0
  -22.0310  -27.7290   22.9430 C   0  0  0  0  0  0  0  0  0  0  0  0
  -21.5830  -28.9090   23.5760 C   0  0  0  0  0  3  0  0  0  0  0  0
  -20.2480  -29.3360   23.4430 C   0  0  0  0  0  3  0  0  0  0  0  0
  -19.3390  -28.5760   22.6860 C   0  0  0  0  0  3  0  0  0  0  0  0
  -19.7710  -27.3990   22.0510 C   0  0  0  0  0  3  0  0  0  0  0  0
  -28.7720  -31.0250   25.3190 C   0  0  0  0  0  3  0  0  0  0  0  0
  -28.8430  -30.2600   26.6960 C   0  0  1  0  0  0  0  0  0  0  0  0
  -27.4770  -30.1390   27.4090 C   0  0  0  0  0  1  0  0  0  0  0  0
  -29.4020  -28.8320   26.4940 C   0  0  0  0  0  1  0  0  0  0  0  0
  -29.8180  -30.9850   27.6520 C   0  0  0  0  0  1  0  0  0  0  0  0
  -28.7040  -32.4770   25.5330 N   0  0  0  0  0  0  0  0  0  0  0  0
  -29.3290  -33.3880   24.7750 C   0  0  0  0  0  0  0  0  0  0  0  0
  -30.0910  -33.0820   23.8530 O   0  0  0  0  0  0  0  0  0  0  0  0
  -28.0550  -32.8000   26.2360 H   0  0  0  0  0  0  0  0  0  0  0  0
  -28.0310  -35.4320   24.1050 C   0  0  0  0  0  1  0  0  0  0  0  0
  -29.0690  -34.8720   25.0900 C   0  0  0  0  0  3  0  0  0  0  0  0
  -31.2660  -35.3490   26.0770 C   0  0  0  0  0  1  0  0  0  0  0  0
  -30.2900  -35.7060   25.0520 N   0  0  0  0  0  0  0  0  0  0  0  0
  -30.0580  -36.6910   25.1590 H   0  0  0  0  0  0  0  0  0  0  0  0
  -31.0440  -16.8600   20.8520 C   0  0  0  0  0  3  0  0  0  0  0  0
  -31.5580  -15.8500   19.7980 C   0  0  0  0  0  2  0  0  0  0  0  0
  -32.5470  -13.7080   19.5160 C   0  0  0  0  0  0  0  0  0  0  0  0
  -31.7950  -11.4790   18.7850 C   0  0  0  0  0  2  0  0  0  0  0  0
  -30.7650  -11.5630   17.6460 C   0  0  0  0  0  2  0  0  0  0  0  0
  -29.3390  -11.7190   18.2040 C   0  0  0  0  0  2  0  0  0  0  0  0
  -29.2320  -12.8340   19.2710 C   0  0  0  0  0  3  0  0  0  0  0  0
  -30.3630  -12.7110   20.3200 C   0  0  0  0  0  2  0  0  0  0  0  0
  -31.6620  -12.6800   19.6190 N   0  0  0  0  0  0  0  0  0  0  0  0
  -33.5230  -13.7050   18.7640 O   0  0  0  0  0  0  0  0  0  0  0  0
  -32.3420  -14.7460   20.3310 N   0  0  0  0  0  0  0  0  0  0  0  0
  -33.2240  -15.0910   20.6810 H   0  0  0  0  0  0  0  0  0  0  0  0
  -27.1310  -13.9280   20.2860 C   0  0  0  0  0  0  0  0  0  0  0  0
  -25.9610  -13.4040   20.7600 C   0  0  0  0  0  0  0  0  0  0  0  0
  -26.0700  -11.9920   20.5950 C   0  0  0  0  0  0  0  0  0  0  0  0
  -27.9080  -12.8490   19.8940 N   0  0  0  0  0  0  0  0  0  0  0  0
  -27.2730  -11.6720   20.1290 N   0  0  0  0  0  0  0  0  0  0  0  0
  -25.0800  -10.9320   20.8010 C   0  0  0  0  0  0  0  0  0  0  0  0
  -25.4060   -9.7440   21.4900 C   0  0  0  0  0  3  0  0  0  0  0  0
  -24.4320   -8.7450   21.6920 C   0  0  0  0  0  3  0  0  0  0  0  0
  -23.1160   -8.9290   21.2040 C   0  0  0  0  0  0  0  0  0  0  0  0
  -22.8020  -10.1040   20.5000 C   0  0  0  0  0  3  0  0  0  0  0  0
  -23.7740  -11.0960   20.2950 C   0  0  0  0  0  3  0  0  0  0  0  0
  -22.1100   -8.0010   21.3260 O   0  0  0  0  0  0  0  0  0  0  0  0
  -21.9470   -7.2700   22.4750 C   0  0  0  0  0  0  0  0  0  0  0  0
  -21.8430   -7.8870   23.7410 C   0  0  0  0  0  3  0  0  0  0  0  0
  -21.6110   -7.1020   24.8880 C   0  0  0  0  0  3  0  0  0  0  0  0
  -21.4710   -5.7070   24.7700 C   0  0  0  0  0  0  0  0  0  0  0  0
  -21.5720   -5.0910   23.5090 C   0  0  0  0  0  3  0  0  0  0  0  0
  -21.8070   -5.8720   22.3630 C   0  0  0  0  0  0  0  0  0  0  0  0
  -21.8820   -5.2780   21.1480 F   0  0  0  0  0  0  0  0  0  0  0  0
  -21.2370   -4.9550   25.8710 F   0  0  0  0  0  0  0  0  0  0  0  0
  -24.7630  -14.1810   21.2310 C   0  0  0  0  0  0  0  0  0  0  0  0
  -24.0030  -13.6280   22.1690 N   0  0  0  0  0  0  0  0  0  0  0  0
  -24.5230  -15.3080   20.8010 O   0  0  0  0  0  0  0  0  0  0  0  0
  -24.2100  -12.7100   22.5370 H   0  0  0  0  0  0  0  0  0  0  0  0
  -23.2020  -14.1280   22.5270 H   0  0  0  0  0  0  0  0  0  0  0  0
  -27.5820  -15.2300   20.1330 N   0  0  0  0  0  0  0  0  0  0  0  0
  -26.9180  -15.9880   20.2410 H   0  0  0  0  0  0  0  0  0  0  0  0
  -28.3500  -15.4470   19.5140 H   0  0  0  0  0  0  0  0  0  0  0  0
  -29.9470  -16.2220   21.7580 C   0  0  0  0  0  2  0  0  0  0  0  0
  -29.9010  -16.7690   23.1240 N   0  0  0  0  0  4  0  0  0  0  0  0
  -30.7950  -16.6730   23.5740 H   0  0  0  0  0  0  0  0  0  0  0  0
  -29.2340  -16.2490   23.6700 H   0  0  0  0  0  0  0  0  0  0  0  0
  -29.6230  -17.7310   23.1400 H   0  0  0  0  0  0  0  0  0  0  0  0
  2  5  1  0
  3  1  1  0
  4  6  1  0
  4  2  1  0
  5  1  1  0
  5 57  1  0
  6  8  1  0
  6  3  1  0
  6  7  1  6
  8  9  1  0
 10  9  1  0
 11 13  2  0
 12 10  1  0
 12 11  1  0
 14 12  1  0
 15 11  1  0
 15 16  1  0
 17 28  2  0
 18 16  1  0
 18 23  1  0
 19 29  1  0
 19 27  1  0
 20 26  1  0
 20 22  1  0
 21 27  1  0
 22 21  1  0
 23 22  2  0
 24 25  1  0
 24 18  2  0
 25 20  2  0
 26 19  1  0
 27 17  1  0
 29 31  2  0
 30 29  1  0
 32 30  1  0
 33 38  1  0
 34 30  1  0
 35 34  1  0
 36 37  1  0
 36 35  1  0
 37 33  1  0
 38 34  1  0
 38 39  2  0
 40 39  1  0
 41 40  2  0
 42 33  2  0
 42 41  1  0
 43 17  1  0
 43 48  1  0
 43 44  1  0
 44 45  1  1
 44 47  1  0
 46 44  1  0
 48 51  1  0
 49 53  1  0
 49 48  1  0
 50 49  2  0
 53 52  1  0
 55 53  1  0
 55 56  1  0
 55 54  1  0
 57 58  1  0
 57 97  1  0
 58 67  1  0
 59 65  1  0
 59 67  1  0
 60 65  1  0
 61 62  1  0
 61 60  1  0
 63 62  1  0
 63 72  1  0
 63 64  1  0
 65 64  1  0
 66 59  2  0
 67 68  1  0
 69 70  2  0
 70 89  1  0
 71 70  1  0
 71 74  1  0
 72 73  1  0
 72 69  1  0
 73 71  2  0
 74 75  1  0
 75 76  2  0
 77 80  1  0
 77 76  1  0
 78 77  2  0
 79 78  1  0
 79 74  2  0
 80 81  1  0
 81 82  1  0
 82 83  2  0
 84 83  1  0
 84 88  1  0
 85 84  2  0
 86 81  2  0
 86 85  1  0
 87 86  1  0
 89 90  1  0
 90 93  1  0
 90 92  1  0
 91 89  2  0
 94 95  1  0
 94 69  1  0
 96 94  1  0
 97 98  1  0
 98101  1  0
 98 99  1  0
 98100  1  0
M  ISO  4  15 101  16 101  59 100  67 100
M  END
>  <TORSDO>  (67) 
F 25

>  <SCORE>  (67) 
-7.866

>  <name>  (67) 
66

>  <ligand_id>  (67) 
66

>  <original_smiles>  (67) 
[H]c1c([H])c([H])c2c(c1[H])C([H])([H])C([H])([H])C([H])([H])C2([H])N([H])C(=O)C1([H])N(C(=O)C([H])(N([H])C(=O)C([H])(N([H])C([H])([H])[H])C([H])([H])[H])C(C([H])([H])[H])(C([H])([H])[H])C([H])([H])[H])C([H])([H])c2c([H])c(OC([H])([H])C(=O)N([H])C([H])([H])C([H])([H])C([H])([H])[N+]3([H])C([H])([H])C([H])([H])C([H])(C([H])(C([H])([H])N([H])C(=O)N4C([H])([H])C([H])([H])C([H])([H])C([H])(n5nc(-c6c([H])c([H])c(Oc7c([H])c([H])c(F)c([H])c7F)c([H])c6[H])c(C(=O)N([H])[H])c5N([H])[H])C4([H])[H])C([H])([H])[N+]([H])([H])[H])C([H])([H])C3([H])[H])c([H])c([H])c2C1([H])[H]

>  <smiles>  (67) 
[H]c1c([H])c([H])c2c(c1[H])C([H])([H])C([H])([H])C([H])([H])C2([H])N([H])C(=O)C1([H])N(C(=O)C([H])(N([H])C(=O)C([H])(N([H])C([H])([H])[H])C([H])([H])[H])C(C([H])([H])[H])(C([H])([H])[H])C([H])([H])[H])C([H])([H])c2c([H])c(OC([H])([H])C(=O)N([H])C([H])([H])C([H])([H])C([H])([H])[N+]3([H])C([H])([H])C([H])([H])C([H])(C([H])(C([H])([H])N([H])C(=O)N4C([H])([H])C([H])([H])C([H])([H])C([H])(n5nc(-c6c([H])c([H])c(Oc7c([H])c([H])c(F)c([H])c7F)c([H])c6[H])c(C(=O)N([H])[H])c5N([H])[H])C4([H])[H])C([H])([H])[N+]([H])([H])[H])C([H])([H])C3([H])[H])c([H])c([H])c2C1([H])[H]

$$$$
67:0:0
     RDKit          3D

 97106  0  0  1  0  0  0  0  0999 V2000
  -28.5820  -22.3380   21.9280 C   0  0  0  0  0  2  0  0  0  0  0  0
  -29.1760  -23.1530   21.0400 C   0  0  0  0  0  3  0  0  0  0  0  0
  -29.6660  -21.3900   22.1960 C   0  0  0  0  0  0  0  0  0  0  0  0
  -30.6450  -23.2690   21.3650 C   0  0  0  0  0  2  0  0  0  0  0  0
  -29.1820  -22.5950   19.6210 C   0  0  0  0  0  3  0  0  0  0  0  0
  -30.8290  -21.7670   21.2620 C   0  0  0  0  0  3  0  0  0  0  0  0
  -30.4270  -21.5920   19.7520 C   0  0  0  0  0  3  0  0  0  0  0  0
  -29.6780  -20.4490   22.9920 O   0  0  0  0  0  0  0  0  0  0  0  0
  -30.2130  -20.1760   19.2780 N   0  0  0  0  0  4  0  0  0  0  0  0
  -30.4450  -20.1590   18.2960 H   0  0  0  0  0  0  0  0  0  0  0  0
  -29.2280  -19.9730   19.3330 H   0  0  0  0  0  0  0  0  0  0  0  0
  -32.4700  -19.2430   19.9860 C   0  0  0  0  0  1  0  0  0  0  0  0
  -30.9400  -19.0480   19.9770 C   0  0  0  0  0  3  0  0  0  0  0  0
  -30.6020  -17.6490   19.3570 C   0  0  0  0  0  2  0  0  0  0  0  0
  -31.5700  -15.4470   20.1800 C   0  0  0  0  0  0  0  0  0  0  0  0
  -31.5150  -13.0510   19.6000 C   0  0  0  0  0  2  0  0  0  0  0  0
  -30.6500  -12.9060   18.3280 C   0  0  0  0  0  2  0  0  0  0  0  0
  -29.1590  -12.7680   18.6900 C   0  0  0  0  0  2  0  0  0  0  0  0
  -28.6880  -13.8420   19.7070 C   0  0  0  0  0  3  0  0  0  0  0  0
  -29.6720  -13.9520   20.8970 C   0  0  0  0  0  2  0  0  0  0  0  0
  -31.0140  -14.2140   20.3520 N   0  0  0  0  0  0  0  0  0  0  0  0
  -32.7140  -15.6120   19.7510 O   0  0  0  0  0  0  0  0  0  0  0  0
  -30.6920  -16.4740   20.2630 N   0  0  0  0  0  0  0  0  0  0  0  0
  -29.8230  -16.2190   20.7080 H   0  0  0  0  0  0  0  0  0  0  0  0
  -26.2870  -14.5020   20.3600 C   0  0  0  0  0  0  0  0  0  0  0  0
  -25.1950  -13.7530   20.7060 C   0  0  0  0  0  0  0  0  0  0  0  0
  -25.6270  -12.3920   20.6820 C   0  0  0  0  0  0  0  0  0  0  0  0
  -27.3170  -13.5980   20.1520 N   0  0  0  0  0  0  0  0  0  0  0  0
  -26.9230  -12.3240   20.4030 N   0  0  0  0  0  0  0  0  0  0  0  0
  -24.8700  -11.1450   20.8540 C   0  0  0  0  0  0  0  0  0  0  0  0
  -25.1730  -10.2320   21.8890 C   0  0  0  0  0  3  0  0  0  0  0  0
  -24.4190   -9.0490   22.0420 C   0  0  0  0  0  3  0  0  0  0  0  0
  -23.3490   -8.7700   21.1580 C   0  0  0  0  0  0  0  0  0  0  0  0
  -23.0670   -9.6710   20.1160 C   0  0  0  0  0  3  0  0  0  0  0  0
  -23.8220  -10.8450   19.9600 C   0  0  0  0  0  3  0  0  0  0  0  0
  -22.5790   -7.6330   21.2160 O   0  0  0  0  0  0  0  0  0  0  0  0
  -22.2440   -7.0520   22.4120 C   0  0  0  0  0  0  0  0  0  0  0  0
  -21.5230   -7.7500   23.4040 C   0  0  0  0  0  3  0  0  0  0  0  0
  -21.1380   -7.0930   24.5900 C   0  0  0  0  0  3  0  0  0  0  0  0
  -21.4640   -5.7370   24.7810 C   0  0  0  0  0  0  0  0  0  0  0  0
  -22.1780   -5.0380   23.7920 C   0  0  0  0  0  3  0  0  0  0  0  0
  -22.5640   -5.6920   22.6090 C   0  0  0  0  0  0  0  0  0  0  0  0
  -23.2320   -5.0090   21.6500 F   0  0  0  0  0  0  0  0  0  0  0  0
  -21.0890   -5.1020   25.9170 F   0  0  0  0  0  0  0  0  0  0  0  0
  -23.8020  -14.2600   20.9490 C   0  0  0  0  0  0  0  0  0  0  0  0
  -23.0450  -13.5860   21.8060 N   0  0  0  0  0  0  0  0  0  0  0  0
  -23.3950  -15.2900   20.4130 O   0  0  0  0  0  0  0  0  0  0  0  0
  -23.3850  -12.7500   22.2590 H   0  0  0  0  0  0  0  0  0  0  0  0
  -22.1110  -13.9100   22.0120 H   0  0  0  0  0  0  0  0  0  0  0  0
  -26.4860  -15.8690   20.1830 N   0  0  0  0  0  0  0  0  0  0  0  0
  -25.7240  -16.5350   20.2500 H   0  0  0  0  0  0  0  0  0  0  0  0
  -27.3360  -16.2760   19.8180 H   0  0  0  0  0  0  0  0  0  0  0  0
  -29.3170  -23.6360   18.5800 N   0  0  0  0  0  0  0  0  0  0  0  0
  -28.7090  -23.4280   17.7910 H   0  0  0  0  0  0  0  0  0  0  0  0
  -29.2260  -25.0780   18.9290 C   0  0  0  0  0  2  0  0  0  0  0  0
  -27.8200  -25.7480   18.8630 C   0  0  0  0  0  2  0  0  0  0  0  0
  -27.9130  -27.1850   19.0260 O   0  0  0  0  0  0  0  0  0  0  0  0
  -24.5540  -31.8120   23.3050 C   0  0  0  0  0  0  0  0  0  0  0  0
  -26.7510  -27.9090   19.2580 C   0  0  0  0  0  0  0  0  0  0  0  0
  -23.1380  -30.6660   21.6320 C   0  0  0  0  0  3  0  0  0  0  0  0
  -24.3870  -29.3890   19.8080 C   0  0  0  0  0  0  0  0  0  0  0  0
  -25.6210  -31.0800   21.1710 C   0  0  0  0  0  2  0  0  0  0  0  0
  -25.6150  -29.8240   20.3160 C   0  0  0  0  0  0  0  0  0  0  0  0
  -26.7980  -29.0950   20.0350 C   0  0  0  0  0  3  0  0  0  0  0  0
  -25.4960  -27.4990   18.7470 C   0  0  0  0  0  3  0  0  0  0  0  0
  -24.3230  -28.2280   19.0190 C   0  0  0  0  0  3  0  0  0  0  0  0
  -23.1640  -30.2120   20.1480 C   0  0  0  0  0  2  0  0  0  0  0  0
  -24.4640  -31.1930   22.0940 N   0  0  0  0  0  0  0  0  0  0  0  0
  -23.5510  -31.9810   24.0150 O   0  0  0  0  0  0  0  0  0  0  0  0
  -22.6080  -29.5000   22.4980 C   0  0  0  0  0  0  0  0  0  0  0  0
  -21.3070  -29.1950   22.3610 N   0  0  0  0  0  0  0  0  0  0  0  0
  -23.3630  -28.8750   23.2470 O   0  0  0  0  0  0  0  0  0  0  0  0
  -20.7510  -29.7620   21.7360 H   0  0  0  0  0  0  0  0  0  0  0  0
  -18.1390  -27.4690   22.5870 C   0  0  0  0  0  0  0  0  0  0  0  0
  -20.6010  -28.1100   23.0420 C   0  0  0  0  0  3  0  0  0  0  0  0
  -20.9650  -26.7380   22.4310 C   0  0  0  0  0  2  0  0  0  0  0  0
  -19.9950  -26.2910   21.3330 C   0  0  0  0  0  2  0  0  0  0  0  0
  -18.5690  -26.1920   21.8830 C   0  0  0  0  0  2  0  0  0  0  0  0
  -19.0940  -28.3770   23.1160 C   0  0  0  0  0  0  0  0  0  0  0  0
  -18.6410  -29.5660   23.7280 C   0  0  0  0  0  3  0  0  0  0  0  0
  -17.2670  -29.8520   23.8170 C   0  0  0  0  0  3  0  0  0  0  0  0
  -16.3260  -28.9430   23.3040 C   0  0  0  0  0  3  0  0  0  0  0  0
  -16.7620  -27.7520   22.6960 C   0  0  0  0  0  3  0  0  0  0  0  0
  -25.9110  -32.3560   23.8480 C   0  0  0  0  0  3  0  0  0  0  0  0
  -25.6910  -33.7400   24.2870 N   0  0  0  0  0  0  0  0  0  0  0  0
  -26.0630  -34.8260   23.5970 C   0  0  0  0  0  0  0  0  0  0  0  0
  -26.7010  -34.7630   22.5410 O   0  0  0  0  0  0  0  0  0  0  0  0
  -25.1240  -33.8670   25.1130 H   0  0  0  0  0  0  0  0  0  0  0  0
  -24.4390  -36.7380   23.4100 C   0  0  0  0  0  1  0  0  0  0  0  0
  -25.6650  -36.2010   24.1670 C   0  0  0  0  0  3  0  0  0  0  0  0
  -27.8580  -36.8920   25.0280 C   0  0  0  0  0  1  0  0  0  0  0  0
  -26.7570  -37.1980   24.1170 N   0  0  0  0  0  0  0  0  0  0  0  0
  -26.4090  -38.1260   24.3390 H   0  0  0  0  0  0  0  0  0  0  0  0
  -26.5060  -31.4860   25.0220 C   0  0  1  0  0  0  0  0  0  0  0  0
  -25.4960  -31.2040   26.1590 C   0  0  0  0  0  1  0  0  0  0  0  0
  -27.0110  -30.1250   24.4900 C   0  0  0  0  0  1  0  0  0  0  0  0
  -27.7320  -32.2030   25.6370 C   0  0  0  0  0  1  0  0  0  0  0  0
  1  3  1  0
  2  4  1  0
  2  1  1  0
  3  8  2  0
  5 53  1  0
  5  7  1  0
  5  2  1  0
  6  4  1  0
  6  3  1  0
  7  9  1  0
  7  6  1  0
  9 11  1  0
  9 13  1  0
 10  9  1  0
 13 12  1  0
 14 13  1  0
 14 23  1  0
 15 23  1  0
 15 21  1  0
 16 21  1  0
 17 18  1  0
 17 16  1  0
 19 18  1  0
 19 28  1  0
 19 20  1  0
 21 20  1  0
 22 15  2  0
 23 24  1  0
 25 26  2  0
 26 45  1  0
 27 26  1  0
 27 30  1  0
 28 25  1  0
 28 29  1  0
 29 27  2  0
 30 31  1  0
 31 32  2  0
 33 36  1  0
 33 32  1  0
 34 33  2  0
 35 34  1  0
 35 30  2  0
 36 37  1  0
 37 42  2  0
 37 38  1  0
 38 39  2  0
 39 40  1  0
 40 44  1  0
 41 40  2  0
 42 41  1  0
 43 42  1  0
 45 46  1  0
 46 49  1  0
 46 48  1  0
 47 45  2  0
 50 51  1  0
 50 25  1  0
 52 50  1  0
 53 55  1  0
 54 53  1  0
 56 55  1  0
 56 57  1  0
 57 59  1  0
 58 69  2  0
 59 64  1  0
 60 68  1  0
 60 70  1  0
 61 67  1  0
 61 63  1  0
 62 68  1  0
 63 62  1  0
 64 63  2  0
 65 66  1  0
 65 59  2  0
 66 61  2  0
 67 60  1  0
 68 58  1  0
 70 72  2  0
 71 70  1  0
 73 71  1  0
 74 83  2  0
 74 79  1  0
 75 71  1  0
 75 79  1  0
 76 75  1  0
 77 78  1  0
 77 76  1  0
 78 74  1  0
 79 80  2  0
 80 81  1  0
 82 81  2  0
 83 82  1  0
 84 58  1  0
 84 85  1  0
 84 94  1  0
 85 88  1  0
 86 90  1  0
 86 85  1  0
 87 86  2  0
 90 89  1  0
 92 90  1  0
 92 93  1  0
 92 91  1  0
 94 97  1  1
 94 95  1  0
 96 94  1  0
M  ISO  4  15 100  23 100  56 101  57 101
M  END
>  <TORSDO>  (68) 
F 22

>  <SCORE>  (68) 
-10.462

>  <name>  (68) 
67

>  <ligand_id>  (68) 
67

>  <original_smiles>  (68) 
[H]C1=C2C([H])([H])C([H])(C1=O)C([H])([N+]([H])([H])C([H])(C([H])([H])[H])C([H])([H])N([H])C(=O)N1C([H])([H])C([H])([H])C([H])([H])C([H])(n3nc(-c4c([H])c([H])c(Oc5c([H])c([H])c(F)c([H])c5F)c([H])c4[H])c(C(=O)N([H])[H])c3N([H])[H])C1([H])[H])C2([H])N([H])C([H])([H])C([H])([H])Oc1c([H])c([H])c2c(c1[H])C([H])([H])N(C(=O)C([H])(N([H])C(=O)C([H])(N([H])C([H])([H])[H])C([H])([H])[H])C(C([H])([H])[H])(C([H])([H])[H])C([H])([H])[H])C([H])(C(=O)N([H])C1([H])c3c([H])c([H])c([H])c([H])c3C([H])([H])C([H])([H])C1([H])[H])C2([H])[H]

>  <smiles>  (68) 
[H]C1=C2C([H])([H])C([H])(C1=O)C([H])([N+]([H])([H])C([H])(C([H])([H])[H])C([H])([H])N([H])C(=O)N1C([H])([H])C([H])([H])C([H])([H])C([H])(n3nc(-c4c([H])c([H])c(Oc5c([H])c([H])c(F)c([H])c5F)c([H])c4[H])c(C(=O)N([H])[H])c3N([H])[H])C1([H])[H])C2([H])N([H])C([H])([H])C([H])([H])Oc1c([H])c([H])c2c(c1[H])C([H])([H])N(C(=O)C([H])(N([H])C(=O)C([H])(N([H])C([H])([H])[H])C([H])([H])[H])C(C([H])([H])[H])(C([H])([H])[H])C([H])([H])[H])C([H])(C(=O)N([H])C1([H])c3c([H])c([H])c([H])c([H])c3C([H])([H])C([H])([H])C1([H])[H])C2([H])[H]

$$$$
68:0:0
     RDKit          3D

 91 99  0  0  1  0  0  0  0  0999 V2000
  -29.5450  -23.5250   21.6480 C   0  0  0  0  0  3  0  0  0  0  0  0
  -30.2770  -22.4430   22.1770 C   0  0  0  0  0  3  0  0  0  0  0  0
  -28.7340  -21.9840   19.9680 C   0  0  0  0  0  3  0  0  0  0  0  0
  -29.5440  -20.8100   20.4480 C   0  0  0  0  0  0  0  0  0  0  0  0
  -28.6860  -23.3650   20.5510 C   0  0  0  0  0  0  0  0  0  0  0  0
  -30.2310  -21.1130   21.6680 C   0  0  0  0  0  0  0  0  0  0  0  0
  -29.5370  -19.2770   19.8460 C   0  0  0  0  0  0  0  0  0  0  0  0
  -28.6830  -19.0060   18.9960 O   0  0  0  0  0  0  0  0  0  0  0  0
  -30.5870  -18.0100   20.1590 C   0  0  0  0  0  2  0  0  0  0  0  0
  -30.9780  -15.2650   20.1350 C   0  0  0  0  0  0  0  0  0  0  0  0
  -30.8970  -12.8460   19.3650 C   0  0  0  0  0  2  0  0  0  0  0  0
  -29.9950  -12.7160   18.1170 C   0  0  0  0  0  2  0  0  0  0  0  0
  -28.5330  -12.4840   18.5430 C   0  0  0  0  0  2  0  0  0  0  0  0
  -28.0820  -13.4890   19.6400 C   0  0  0  0  0  3  0  0  0  0  0  0
  -29.1110  -13.6230   20.7810 C   0  0  0  0  0  2  0  0  0  0  0  0
  -30.3860  -14.0000   20.1590 N   0  0  0  0  0  0  0  0  0  0  0  0
  -32.1930  -15.3040   19.9150 O   0  0  0  0  0  0  0  0  0  0  0  0
  -30.2000  -16.4650   20.1550 N   0  0  0  0  0  0  0  0  0  0  0  0
  -29.2060  -16.3110   20.2260 H   0  0  0  0  0  0  0  0  0  0  0  0
  -25.7140  -14.0950   20.3810 C   0  0  0  0  0  0  0  0  0  0  0  0
  -24.6400  -13.3380   20.7550 C   0  0  0  0  0  0  0  0  0  0  0  0
  -25.0870  -11.9810   20.7270 C   0  0  0  0  0  0  0  0  0  0  0  0
  -26.7440  -13.2050   20.1390 N   0  0  0  0  0  0  0  0  0  0  0  0
  -26.3770  -11.9260   20.4140 N   0  0  0  0  0  0  0  0  0  0  0  0
  -24.3420  -10.7300   20.9200 C   0  0  0  0  0  0  0  0  0  0  0  0
  -24.7180   -9.7920   21.9080 C   0  0  0  0  0  3  0  0  0  0  0  0
  -23.9730   -8.6060   22.0870 C   0  0  0  0  0  3  0  0  0  0  0  0
  -22.8400   -8.3490   21.2780 C   0  0  0  0  0  0  0  0  0  0  0  0
  -22.4830   -9.2750   20.2830 C   0  0  0  0  0  3  0  0  0  0  0  0
  -23.2290  -10.4530   20.1020 C   0  0  0  0  0  3  0  0  0  0  0  0
  -22.0710   -7.2130   21.3650 O   0  0  0  0  0  0  0  0  0  0  0  0
  -21.8860   -6.5600   22.5570 C   0  0  0  0  0  0  0  0  0  0  0  0
  -21.3240   -7.2040   23.6820 C   0  0  0  0  0  3  0  0  0  0  0  0
  -21.0870   -6.4740   24.8630 C   0  0  0  0  0  3  0  0  0  0  0  0
  -21.4010   -5.1030   24.9200 C   0  0  0  0  0  0  0  0  0  0  0  0
  -21.9560   -4.4610   23.8010 C   0  0  0  0  0  3  0  0  0  0  0  0
  -22.1940   -5.1880   22.6210 C   0  0  0  0  0  0  0  0  0  0  0  0
  -22.7090   -4.5580   21.5380 F   0  0  0  0  0  0  0  0  0  0  0  0
  -21.1670   -4.4000   26.0540 F   0  0  0  0  0  0  0  0  0  0  0  0
  -23.2490  -13.8340   21.0130 C   0  0  0  0  0  0  0  0  0  0  0  0
  -22.5100  -13.1610   21.8880 N   0  0  0  0  0  0  0  0  0  0  0  0
  -22.8220  -14.8520   20.4710 O   0  0  0  0  0  0  0  0  0  0  0  0
  -22.8690  -12.3380   22.3490 H   0  0  0  0  0  0  0  0  0  0  0  0
  -21.5700  -13.4680   22.0920 H   0  0  0  0  0  0  0  0  0  0  0  0
  -25.8930  -15.4640   20.2070 N   0  0  0  0  0  0  0  0  0  0  0  0
  -25.1320  -16.1200   20.3580 H   0  0  0  0  0  0  0  0  0  0  0  0
  -26.7120  -15.8990   19.8040 H   0  0  0  0  0  0  0  0  0  0  0  0
  -30.9350  -20.4220   24.0460 C   0  0  0  0  0  1  0  0  0  0  0  0
  -30.8740  -20.0370   22.5550 C   0  0  0  0  0  2  0  0  0  0  0  0
  -27.6580  -24.6240   20.2100 C   0  0  0  0  0  2  0  0  0  0  0  0
  -27.9260  -26.1710   20.3510 O   0  0  0  0  0  0  0  0  0  0  0  0
  -24.5120  -32.0750   23.2160 C   0  0  0  0  0  0  0  0  0  0  0  0
  -26.9000  -27.1970   20.2490 C   0  0  0  0  0  0  0  0  0  0  0  0
  -23.2310  -30.6370   21.6820 C   0  0  0  0  0  3  0  0  0  0  0  0
  -24.6000  -29.0020   20.2450 C   0  0  0  0  0  0  0  0  0  0  0  0
  -25.7780  -30.8610   21.3940 C   0  0  0  0  0  2  0  0  0  0  0  0
  -25.8070  -29.4380   20.8020 C   0  0  0  0  0  0  0  0  0  0  0  0
  -26.9520  -28.5500   20.7980 C   0  0  0  0  0  3  0  0  0  0  0  0
  -25.6710  -26.8870   19.6220 C   0  0  0  0  0  3  0  0  0  0  0  0
  -24.5460  -27.7380   19.6390 C   0  0  0  0  0  3  0  0  0  0  0  0
  -23.3870  -29.9190   20.3150 C   0  0  0  0  0  2  0  0  0  0  0  0
  -24.5330  -31.2130   22.1540 N   0  0  0  0  0  0  0  0  0  0  0  0
  -23.4500  -32.3910   23.7760 O   0  0  0  0  0  0  0  0  0  0  0  0
  -22.5840  -29.6700   22.7050 C   0  0  0  0  0  0  0  0  0  0  0  0
  -21.2740  -29.4100   22.5600 N   0  0  0  0  0  0  0  0  0  0  0  0
  -23.2670  -29.1540   23.5930 O   0  0  0  0  0  0  0  0  0  0  0  0
  -20.7760  -29.8790   21.8150 H   0  0  0  0  0  0  0  0  0  0  0  0
  -17.9950  -27.9220   22.9610 C   0  0  0  0  0  0  0  0  0  0  0  0
  -20.4840  -28.4900   23.3840 C   0  0  0  0  0  3  0  0  0  0  0  0
  -20.7760  -27.0190   23.0070 C   0  0  0  0  0  2  0  0  0  0  0  0
  -19.8020  -26.4600   21.9660 C   0  0  0  0  0  2  0  0  0  0  0  0
  -18.3610  -26.5290   22.4790 C   0  0  0  0  0  2  0  0  0  0  0  0
  -18.9920  -28.8470   23.3710 C   0  0  0  0  0  0  0  0  0  0  0  0
  -18.5960  -30.1390   23.7790 C   0  0  0  0  0  3  0  0  0  0  0  0
  -17.2390  -30.5100   23.7850 C   0  0  0  0  0  3  0  0  0  0  0  0
  -16.2560  -29.5850   23.3910 C   0  0  0  0  0  3  0  0  0  0  0  0
  -16.6340  -28.2940   22.9830 C   0  0  0  0  0  3  0  0  0  0  0  0
  -25.8190  -32.7200   23.7670 C   0  0  0  0  0  3  0  0  0  0  0  0
  -26.4080  -31.9480   25.0100 C   0  0  1  0  0  0  0  0  0  0  0  0
  -25.3690  -31.6710   26.1210 C   0  0  0  0  0  1  0  0  0  0  0  0
  -27.0060  -30.5900   24.5740 C   0  0  0  0  0  1  0  0  0  0  0  0
  -27.5690  -32.7600   25.6300 C   0  0  0  0  0  1  0  0  0  0  0  0
  -25.5190  -34.1160   24.1240 N   0  0  0  0  0  0  0  0  0  0  0  0
  -25.8750  -35.1840   23.3960 C   0  0  0  0  0  0  0  0  0  0  0  0
  -26.5580  -35.0960   22.3730 O   0  0  0  0  0  0  0  0  0  0  0  0
  -24.9130  -34.2610   24.9190 H   0  0  0  0  0  0  0  0  0  0  0  0
  -24.1960  -37.0260   23.0380 C   0  0  0  0  0  1  0  0  0  0  0  0
  -25.3990  -36.5700   23.8780 C   0  0  0  0  0  3  0  0  0  0  0  0
  -27.5230  -37.3890   24.8020 C   0  0  0  0  0  1  0  0  0  0  0  0
  -26.4560  -37.6040   23.8290 N   0  0  0  0  0  0  0  0  0  0  0  0
  -26.0630  -38.5290   23.9870 H   0  0  0  0  0  0  0  0  0  0  0  0
  1  2  1  0
  3  4  2  0
  3  5  1  0
  4  6  1  0
  5  1  2  0
  6  2  2  0
  6 49  1  0
  7  9  1  0
  7  4  1  0
  8  7  2  0
 10 18  1  0
 10 16  1  0
 11 16  1  0
 12 13  1  0
 12 11  1  0
 14 13  1  0
 14 23  1  0
 14 15  1  0
 16 15  1  0
 17 10  2  0
 18  9  1  0
 18 19  1  0
 20 21  2  0
 21 40  1  0
 22 21  1  0
 22 25  1  0
 23 20  1  0
 23 24  1  0
 24 22  2  0
 25 26  1  0
 26 27  2  0
 28 31  1  0
 28 27  1  0
 29 28  2  0
 30 29  1  0
 30 25  2  0
 31 32  1  0
 32 37  2  0
 32 33  1  0
 33 34  2  0
 34 35  1  0
 35 39  1  0
 36 35  2  0
 37 36  1  0
 38 37  1  0
 40 41  1  0
 41 44  1  0
 41 43  1  0
 42 40  2  0
 45 46  1  0
 45 20  1  0
 47 45  1  0
 49 48  1  0
 50 51  1  0
 50  5  1  0
 52 63  2  0
 53 51  1  0
 53 58  1  0
 54 62  1  0
 54 64  1  0
 55 61  1  0
 55 57  1  0
 56 62  1  0
 57 56  1  0
 58 57  2  0
 59 60  1  0
 59 53  2  0
 60 55  2  0
 61 54  1  0
 62 52  1  0
 64 66  2  0
 65 64  1  0
 67 65  1  0
 68 77  2  0
 68 73  1  0
 69 65  1  0
 70 69  1  0
 71 72  1  0
 71 70  1  0
 72 68  1  0
 73 69  1  0
 73 74  2  0
 74 75  1  0
 76 75  2  0
 77 76  1  0
 78 52  1  0
 78 83  1  0
 78 79  1  0
 79 82  1  1
 79 80  1  0
 81 79  1  0
 83 86  1  0
 84 88  1  0
 84 83  1  0
 85 84  2  0
 88 87  1  0
 90 88  1  0
 90 91  1  0
 90 89  1  0
M  ISO  4  10 100  18 100  50 101  51 101
M  END
>  <TORSDO>  (69) 
F 20

>  <SCORE>  (69) 
-13.456

>  <name>  (69) 
68

>  <ligand_id>  (69) 
68

>  <original_smiles>  (69) 
[H]c1c([H])c([H])c2c(c1[H])C([H])([H])C([H])([H])C([H])([H])C2([H])N([H])C(=O)C1([H])N(C(=O)C([H])(N([H])C(=O)C([H])(N([H])C([H])([H])[H])C([H])([H])[H])C(C([H])([H])[H])(C([H])([H])[H])C([H])([H])[H])C([H])([H])c2c([H])c(OC([H])([H])c3c([H])c([H])c(C([H])([H])C([H])([H])[H])c(C(=O)C([H])([H])N([H])C(=O)N4C([H])([H])C([H])([H])C([H])([H])C([H])(n5nc(-c6c([H])c([H])c(Oc7c([H])c([H])c(F)c([H])c7F)c([H])c6[H])c(C(=O)N([H])[H])c5N([H])[H])C4([H])[H])c3[H])c([H])c([H])c2C1([H])[H]

>  <smiles>  (69) 
[H]c1c([H])c([H])c2c(c1[H])C([H])([H])C([H])([H])C([H])([H])C2([H])N([H])C(=O)C1([H])N(C(=O)C([H])(N([H])C(=O)C([H])(N([H])C([H])([H])[H])C([H])([H])[H])C(C([H])([H])[H])(C([H])([H])[H])C([H])([H])[H])C([H])([H])c2c([H])c(OC([H])([H])c3c([H])c([H])c(C([H])([H])C([H])([H])[H])c(C(=O)C([H])([H])N([H])C(=O)N4C([H])([H])C([H])([H])C([H])([H])C([H])(n5nc(-c6c([H])c([H])c(Oc7c([H])c([H])c(F)c([H])c7F)c([H])c6[H])c(C(=O)N([H])[H])c5N([H])[H])C4([H])[H])c3[H])c([H])c([H])c2C1([H])[H]

$$$$
69:0:0
     RDKit          3D

 96105  0  0  1  0  0  0  0  0999 V2000
  -31.0980  -23.0840   21.5040 C   0  0  0  0  0  3  0  0  0  0  0  0
  -28.8000  -22.4030   21.9150 C   0  0  0  0  0  3  0  0  0  0  0  0
  -30.6800  -24.4260   21.3830 C   0  0  0  0  0  3  0  0  0  0  0  0
  -28.3820  -23.7450   21.7930 C   0  0  0  0  0  3  0  0  0  0  0  0
  -30.1660  -22.0610   21.7860 C   0  0  0  0  0  0  0  0  0  0  0  0
  -29.3200  -24.7690   21.5410 C   0  0  0  0  0  0  0  0  0  0  0  0
  -30.7380  -20.3310   23.5380 C   0  0  0  0  0  2  0  0  0  0  0  0
  -29.7900  -19.5420   21.3250 C   0  0  0  0  0  2  0  0  0  0  0  0
  -31.2080  -18.8940   23.8120 C   0  0  0  0  0  2  0  0  0  0  0  0
  -30.6480  -20.6260   22.0280 C   0  0  0  0  0  3  0  0  0  0  0  0
  -30.2360  -18.0870   21.6610 C   0  0  0  0  0  3  0  0  0  0  0  0
  -30.3330  -17.9120   23.1340 N   0  0  0  0  0  4  0  0  0  0  0  0
  -29.4080  -17.9910   23.5280 H   0  0  0  0  0  0  0  0  0  0  0  0
  -30.6530  -16.9810   23.3490 H   0  0  0  0  0  0  0  0  0  0  0  0
  -31.5320  -17.6570   20.9150 C   0  0  0  0  0  2  0  0  0  0  0  0
  -32.0770  -16.2340   21.2080 C   0  0  0  0  0  2  0  0  0  0  0  0
  -31.5580  -14.2260   19.8130 C   0  0  0  0  0  0  0  0  0  0  0  0
  -31.0330  -12.0350   18.8000 C   0  0  0  0  0  2  0  0  0  0  0  0
  -30.0410  -12.1670   17.6300 C   0  0  0  0  0  2  0  0  0  0  0  0
  -28.5890  -12.1430   18.1430 C   0  0  0  0  0  2  0  0  0  0  0  0
  -28.3590  -13.1280   19.3180 C   0  0  0  0  0  3  0  0  0  0  0  0
  -29.4510  -12.9630   20.3980 C   0  0  0  0  0  2  0  0  0  0  0  0
  -30.7690  -13.1210   19.7560 N   0  0  0  0  0  0  0  0  0  0  0  0
  -32.5550  -14.3830   19.1010 O   0  0  0  0  0  0  0  0  0  0  0  0
  -31.2260  -15.1280   20.7520 N   0  0  0  0  0  0  0  0  0  0  0  0
  -30.4100  -14.9000   21.3010 H   0  0  0  0  0  0  0  0  0  0  0  0
  -26.0770  -13.9560   20.1770 C   0  0  0  0  0  0  0  0  0  0  0  0
  -24.9650  -13.2850   20.6120 C   0  0  0  0  0  0  0  0  0  0  0  0
  -25.2920  -11.8970   20.5480 C   0  0  0  0  0  0  0  0  0  0  0  0
  -27.0170  -12.9820   19.8790 N   0  0  0  0  0  0  0  0  0  0  0  0
  -26.5510  -11.7370   20.1570 N   0  0  0  0  0  0  0  0  0  0  0  0
  -24.4630  -10.7060   20.7800 C   0  0  0  0  0  0  0  0  0  0  0  0
  -24.8310   -9.7230   21.7250 C   0  0  0  0  0  3  0  0  0  0  0  0
  -24.0080   -8.5980   21.9440 C   0  0  0  0  0  3  0  0  0  0  0  0
  -22.8020   -8.4480   21.2170 C   0  0  0  0  0  0  0  0  0  0  0  0
  -22.4520   -9.4180   20.2630 C   0  0  0  0  0  3  0  0  0  0  0  0
  -23.2750  -10.5350   20.0420 C   0  0  0  0  0  3  0  0  0  0  0  0
  -21.9540   -7.3760   21.3450 O   0  0  0  0  0  0  0  0  0  0  0  0
  -21.8120   -6.7060   22.5350 C   0  0  0  0  0  0  0  0  0  0  0  0
  -21.4060   -7.3650   23.7160 C   0  0  0  0  0  3  0  0  0  0  0  0
  -21.2060   -6.6270   24.9000 C   0  0  0  0  0  3  0  0  0  0  0  0
  -21.4010   -5.2330   24.9040 C   0  0  0  0  0  0  0  0  0  0  0  0
  -21.8000   -4.5760   23.7270 C   0  0  0  0  0  3  0  0  0  0  0  0
  -22.0010   -5.3100   22.5450 C   0  0  0  0  0  0  0  0  0  0  0  0
  -22.3650   -4.6680   21.4090 F   0  0  0  0  0  0  0  0  0  0  0  0
  -21.2020   -4.5230   26.0380 F   0  0  0  0  0  0  0  0  0  0  0  0
  -23.6410  -13.8900   20.9760 C   0  0  0  0  0  0  0  0  0  0  0  0
  -22.9220  -13.2750   21.9090 N   0  0  0  0  0  0  0  0  0  0  0  0
  -23.2560  -14.9430   20.4680 O   0  0  0  0  0  0  0  0  0  0  0  0
  -23.2460  -12.4220   22.3400 H   0  0  0  0  0  0  0  0  0  0  0  0
  -22.0340  -13.6630   22.1960 H   0  0  0  0  0  0  0  0  0  0  0  0
  -26.3620  -15.3060   19.9930 N   0  0  0  0  0  0  0  0  0  0  0  0
  -25.6670  -16.0300   20.1400 H   0  0  0  0  0  0  0  0  0  0  0  0
  -27.2240  -15.6580   19.5990 H   0  0  0  0  0  0  0  0  0  0  0  0
  -28.8680  -26.2230   21.4780 C   0  0  0  0  0  2  0  0  0  0  0  0
  -28.2190  -26.5170   20.2430 O   0  0  0  0  0  0  0  0  0  0  0  0
  -24.6850  -31.9130   23.3360 C   0  0  0  0  0  0  0  0  0  0  0  0
  -27.1170  -27.3350   20.3010 C   0  0  0  0  0  0  0  0  0  0  0  0
  -23.4100  -30.5530   21.7080 C   0  0  0  0  0  3  0  0  0  0  0  0
  -24.7900  -28.9340   20.3000 C   0  0  0  0  0  0  0  0  0  0  0  0
  -25.9470  -30.7950   21.5050 C   0  0  0  0  0  2  0  0  0  0  0  0
  -25.9680  -29.4130   20.8880 C   0  0  0  0  0  0  0  0  0  0  0  0
  -27.1350  -28.6180   20.8960 C   0  0  0  0  0  3  0  0  0  0  0  0
  -25.9300  -26.8730   19.7000 C   0  0  0  0  0  3  0  0  0  0  0  0
  -24.7630  -27.6600   19.7070 C   0  0  0  0  0  3  0  0  0  0  0  0
  -23.5860  -29.8480   20.3360 C   0  0  0  0  0  2  0  0  0  0  0  0
  -24.6990  -31.1020   22.2420 N   0  0  0  0  0  0  0  0  0  0  0  0
  -23.6190  -32.2420   23.8750 O   0  0  0  0  0  0  0  0  0  0  0  0
  -22.7140  -29.5740   22.6800 C   0  0  0  0  0  0  0  0  0  0  0  0
  -21.3840  -29.4440   22.5430 N   0  0  0  0  0  0  0  0  0  0  0  0
  -23.3650  -28.9350   23.5090 O   0  0  0  0  0  0  0  0  0  0  0  0
  -20.9220  -30.0080   21.8440 H   0  0  0  0  0  0  0  0  0  0  0  0
  -17.9650  -28.3730   23.0050 C   0  0  0  0  0  0  0  0  0  0  0  0
  -20.5230  -28.5520   23.3210 C   0  0  0  0  0  3  0  0  0  0  0  0
  -20.5890  -27.1040   22.7790 C   0  0  0  0  0  2  0  0  0  0  0  0
  -19.4960  -26.7940   21.7520 C   0  0  0  0  0  2  0  0  0  0  0  0
  -18.1080  -27.0010   22.3660 C   0  0  0  0  0  2  0  0  0  0  0  0
  -19.1010  -29.1070   23.4390 C   0  0  0  0  0  0  0  0  0  0  0  0
  -18.9140  -30.3920   23.9940 C   0  0  0  0  0  3  0  0  0  0  0  0
  -17.6250  -30.9410   24.1210 C   0  0  0  0  0  3  0  0  0  0  0  0
  -16.5030  -30.2040   23.7050 C   0  0  0  0  0  3  0  0  0  0  0  0
  -16.6740  -28.9210   23.1540 C   0  0  0  0  0  3  0  0  0  0  0  0
  -26.0030  -32.4860   23.9480 C   0  0  0  0  0  3  0  0  0  0  0  0
  -26.5220  -31.6600   25.1880 C   0  0  1  0  0  0  0  0  0  0  0  0
  -25.4420  -31.4140   26.2680 C   0  0  0  0  0  1  0  0  0  0  0  0
  -27.0640  -30.2830   24.7390 C   0  0  0  0  0  1  0  0  0  0  0  0
  -27.7040  -32.4030   25.8550 C   0  0  0  0  0  1  0  0  0  0  0  0
  -25.7460  -33.8820   24.3220 N   0  0  0  0  0  0  0  0  0  0  0  0
  -26.0990  -34.9420   23.5830 C   0  0  0  0  0  0  0  0  0  0  0  0
  -26.7460  -34.8460   22.5370 O   0  0  0  0  0  0  0  0  0  0  0  0
  -25.1720  -34.0340   25.1380 H   0  0  0  0  0  0  0  0  0  0  0  0
  -24.4170  -36.7920   23.3100 C   0  0  0  0  0  1  0  0  0  0  0  0
  -25.6620  -36.3320   24.0840 C   0  0  0  0  0  3  0  0  0  0  0  0
  -27.8400  -37.1310   24.8910 C   0  0  0  0  0  1  0  0  0  0  0  0
  -26.7240  -37.3580   23.9760 N   0  0  0  0  0  0  0  0  0  0  0  0
  -26.3480  -38.2840   24.1580 H   0  0  0  0  0  0  0  0  0  0  0  0
  1  5  1  0
  3  1  2  0
  3  6  1  0
  4  2  1  0
  5  2  2  0
  6  4  2  0
  7  9  1  0
  8 11  1  0
  8 10  1  0
 10  5  1  0
 10  7  1  0
 11 15  1  0
 11 12  1  0
 12 14  1  0
 12 13  1  0
 12  9  1  0
 15 16  1  0
 17 25  1  0
 18 23  1  0
 19 20  1  0
 19 18  1  0
 21 20  1  0
 21 30  1  0
 21 22  1  0
 23 17  1  0
 23 22  1  0
 24 17  2  0
 25 16  1  0
 25 26  1  0
 27 28  2  0
 28 47  1  0
 29 28  1  0
 29 32  1  0
 30 31  1  0
 30 27  1  0
 31 29  2  0
 32 33  1  0
 33 34  2  0
 35 38  1  0
 35 34  1  0
 36 35  2  0
 37 36  1  0
 37 32  2  0
 38 39  1  0
 39 44  2  0
 39 40  1  0
 40 41  2  0
 41 42  1  0
 42 46  1  0
 43 42  2  0
 44 43  1  0
 45 44  1  0
 47 48  1  0
 48 51  1  0
 48 50  1  0
 49 47  2  0
 52 53  1  0
 52 27  1  0
 54 52  1  0
 55  6  1  0
 56 58  1  0
 56 55  1  0
 57 68  2  0
 58 63  1  0
 59 67  1  0
 59 69  1  0
 60 66  1  0
 60 62  1  0
 61 67  1  0
 62 63  2  0
 62 61  1  0
 64 65  1  0
 64 58  2  0
 65 60  2  0
 66 59  1  0
 67 57  1  0
 69 71  2  0
 70 69  1  0
 72 70  1  0
 73 82  2  0
 73 78  1  0
 74 70  1  0
 74 78  1  0
 75 74  1  0
 76 77  1  0
 76 75  1  0
 77 73  1  0
 78 79  2  0
 79 80  1  0
 81 80  2  0
 82 81  1  0
 83 57  1  0
 83 88  1  0
 83 84  1  0
 84 87  1  1
 84 85  1  0
 86 84  1  0
 88 91  1  0
 89 93  1  0
 89 88  1  0
 90 89  2  0
 93 92  1  0
 95 93  1  0
 95 96  1  0
 95 94  1  0
M  ISO  4  17 100  25 100  55 101  56 101
M  END
>  <TORSDO>  (70) 
F 20

>  <SCORE>  (70) 
-11.932

>  <name>  (70) 
69

>  <ligand_id>  (70) 
69

>  <original_smiles>  (70) 
[H]c1c([H])c([H])c2c(c1[H])C([H])([H])C([H])([H])C([H])([H])C2([H])N([H])C(=O)C1([H])N(C(=O)C([H])(N([H])C(=O)C([H])(N([H])C([H])([H])[H])C([H])([H])[H])C(C([H])([H])[H])(C([H])([H])[H])C([H])([H])[H])C([H])([H])c2c([H])c(OC([H])([H])c3c([H])c([H])c(C4([H])C([H])([H])C([H])([H])[N+]([H])([H])C([H])(C([H])([H])C([H])([H])N([H])C(=O)N5C([H])([H])C([H])([H])C([H])([H])C([H])(n6nc(-c7c([H])c([H])c(Oc8c([H])c([H])c(F)c([H])c8F)c([H])c7[H])c(C(=O)N([H])[H])c6N([H])[H])C5([H])[H])C4([H])[H])c([H])c3[H])c([H])c([H])c2C1([H])[H]

>  <smiles>  (70) 
[H]c1c([H])c([H])c2c(c1[H])C([H])([H])C([H])([H])C([H])([H])C2([H])N([H])C(=O)C1([H])N(C(=O)C([H])(N([H])C(=O)C([H])(N([H])C([H])([H])[H])C([H])([H])[H])C(C([H])([H])[H])(C([H])([H])[H])C([H])([H])[H])C([H])([H])c2c([H])c(OC([H])([H])c3c([H])c([H])c(C4([H])C([H])([H])C([H])([H])[N+]([H])([H])C([H])(C([H])([H])C([H])([H])N([H])C(=O)N5C([H])([H])C([H])([H])C([H])([H])C([H])(n6nc(-c7c([H])c([H])c(Oc8c([H])c([H])c(F)c([H])c8F)c([H])c7[H])c(C(=O)N([H])[H])c6N([H])[H])C5([H])[H])C4([H])[H])c([H])c3[H])c([H])c([H])c2C1([H])[H]

$$$$
70:0:0
     RDKit          3D

 96105  0  0  1  0  0  0  0  0999 V2000
  -31.5450  -22.6770   21.8720 C   0  0  0  0  0  2  0  0  0  0  0  0
  -30.9610  -22.1950   23.1820 C   0  0  0  0  0  2  0  0  0  0  0  0
  -30.1110  -22.1610   21.9150 C   0  0  2  0  0  0  0  0  0  0  0  0
  -29.7990  -20.8390   21.2450 C   0  0  0  0  0  0  0  0  0  0  0  0
  -30.0530  -19.7090   21.9410 N   0  0  0  0  0  0  0  0  0  0  0  0
  -29.3420  -20.8130   20.1020 O   0  0  0  0  0  0  0  0  0  0  0  0
  -30.3800  -19.8450   22.8880 H   0  0  0  0  0  0  0  0  0  0  0  0
  -30.5950  -14.4930   20.0570 C   0  0  0  0  0  0  0  0  0  0  0  0
  -30.2130  -12.3880   18.8070 C   0  0  0  0  0  2  0  0  0  0  0  0
  -29.1840  -12.5920   17.6790 C   0  0  0  0  0  2  0  0  0  0  0  0
  -27.7530  -12.3790   18.2060 C   0  0  0  0  0  2  0  0  0  0  0  0
  -27.4790  -13.1730   19.5090 C   0  0  0  0  0  3  0  0  0  0  0  0
  -28.6200  -12.9720   20.5380 C   0  0  0  0  0  2  0  0  0  0  0  0
  -29.8890  -13.3330   19.8920 N   0  0  0  0  0  0  0  0  0  0  0  0
  -31.6480  -14.6910   19.4440 O   0  0  0  0  0  0  0  0  0  0  0  0
  -28.8590  -17.7070   20.9160 C   0  0  0  0  0  3  0  0  0  0  0  0
  -30.6990  -17.3740   22.5040 C   0  0  0  0  0  2  0  0  0  0  0  0
  -28.8850  -16.1640   20.6850 C   0  0  0  0  0  3  0  0  0  0  0  0
  -31.1230  -16.0250   21.8860 C   0  0  0  0  0  2  0  0  0  0  0  0
  -30.1670  -18.3260   21.4250 C   0  0  0  0  0  3  0  0  0  0  0  0
  -30.1400  -15.4130   20.9610 N   0  0  0  0  0  0  0  0  0  0  0  0
  -25.1280  -13.7100   20.3970 C   0  0  0  0  0  0  0  0  0  0  0  0
  -24.1080  -12.9040   20.8250 C   0  0  0  0  0  0  0  0  0  0  0  0
  -24.6020  -11.5660   20.7430 C   0  0  0  0  0  0  0  0  0  0  0  0
  -26.1740  -12.8580   20.0770 N   0  0  0  0  0  0  0  0  0  0  0  0
  -25.8690  -11.5650   20.3490 N   0  0  0  0  0  0  0  0  0  0  0  0
  -23.9270  -10.2820   20.9630 C   0  0  0  0  0  0  0  0  0  0  0  0
  -24.4070   -9.3540   21.9130 C   0  0  0  0  0  3  0  0  0  0  0  0
  -23.7310   -8.1320   22.1250 C   0  0  0  0  0  3  0  0  0  0  0  0
  -22.5620   -7.8310   21.3870 C   0  0  0  0  0  0  0  0  0  0  0  0
  -22.1040   -8.7480   20.4260 C   0  0  0  0  0  3  0  0  0  0  0  0
  -22.7800   -9.9610   20.2110 C   0  0  0  0  0  3  0  0  0  0  0  0
  -21.8560   -6.6580   21.5050 O   0  0  0  0  0  0  0  0  0  0  0  0
  -21.7860   -5.9750   22.6940 C   0  0  0  0  0  0  0  0  0  0  0  0
  -21.2720   -6.5690   23.8680 C   0  0  0  0  0  3  0  0  0  0  0  0
  -21.1550   -5.8080   25.0480 C   0  0  0  0  0  3  0  0  0  0  0  0
  -21.5390   -4.4530   25.0550 C   0  0  0  0  0  0  0  0  0  0  0  0
  -22.0500   -3.8610   23.8880 C   0  0  0  0  0  3  0  0  0  0  0  0
  -22.1690   -4.6180   22.7080 C   0  0  0  0  0  0  0  0  0  0  0  0
  -22.6370   -4.0350   21.5800 F   0  0  0  0  0  0  0  0  0  0  0  0
  -21.4210   -3.7200   26.1860 F   0  0  0  0  0  0  0  0  0  0  0  0
  -22.7200  -13.3360   21.1970 C   0  0  0  0  0  0  0  0  0  0  0  0
  -22.0760  -12.6140   22.1060 N   0  0  0  0  0  0  0  0  0  0  0  0
  -22.2130  -14.3470   20.7120 O   0  0  0  0  0  0  0  0  0  0  0  0
  -22.4990  -11.7980   22.5240 H   0  0  0  0  0  0  0  0  0  0  0  0
  -21.1460  -12.8820   22.3900 H   0  0  0  0  0  0  0  0  0  0  0  0
  -25.2450  -15.0890   20.2340 N   0  0  0  0  0  0  0  0  0  0  0  0
  -24.4810  -15.7250   20.4350 H   0  0  0  0  0  0  0  0  0  0  0  0
  -26.0680  -15.5620   19.8850 H   0  0  0  0  0  0  0  0  0  0  0  0
  -29.0070  -23.1820   21.7770 N   0  0  0  0  0  4  0  0  0  0  0  0
  -28.4360  -23.1620   22.6080 H   0  0  0  0  0  0  0  0  0  0  0  0
  -28.4360  -22.7690   21.0550 H   0  0  0  0  0  0  0  0  0  0  0  0
  -29.5750  -25.5200   22.5750 C   0  0  0  0  0  1  0  0  0  0  0  0
  -29.2840  -24.6100   21.3570 C   0  0  0  0  0  3  0  0  0  0  0  0
  -28.1170  -25.2170   20.5140 C   0  0  0  0  0  2  0  0  0  0  0  0
  -28.3350  -26.5950   20.1090 O   0  0  0  0  0  0  0  0  0  0  0  0
  -24.5850  -31.7920   23.1690 C   0  0  0  0  0  0  0  0  0  0  0  0
  -27.1900  -27.3660   20.0410 C   0  0  0  0  0  0  0  0  0  0  0  0
  -23.3610  -30.4100   21.5220 C   0  0  0  0  0  3  0  0  0  0  0  0
  -24.8020  -28.8880   20.0610 C   0  0  0  0  0  0  0  0  0  0  0  0
  -25.8910  -30.7590   21.3170 C   0  0  0  0  0  2  0  0  0  0  0  0
  -25.9640  -29.4020   20.6470 C   0  0  0  0  0  0  0  0  0  0  0  0
  -27.1650  -28.6540   20.6240 C   0  0  0  0  0  3  0  0  0  0  0  0
  -26.0170  -26.8770   19.4230 C   0  0  0  0  0  3  0  0  0  0  0  0
  -24.8250  -27.6270   19.4360 C   0  0  0  0  0  3  0  0  0  0  0  0
  -23.5590  -29.7470   20.1310 C   0  0  0  0  0  2  0  0  0  0  0  0
  -24.6280  -31.0070   22.0560 N   0  0  0  0  0  0  0  0  0  0  0  0
  -23.5100  -32.0590   23.7240 O   0  0  0  0  0  0  0  0  0  0  0  0
  -22.7160  -29.3830   22.4810 C   0  0  0  0  0  0  0  0  0  0  0  0
  -21.3890  -29.2060   22.3650 N   0  0  0  0  0  0  0  0  0  0  0  0
  -23.4060  -28.7480   23.2820 O   0  0  0  0  0  0  0  0  0  0  0  0
  -20.8940  -29.7720   21.6910 H   0  0  0  0  0  0  0  0  0  0  0  0
  -18.0120  -28.0260   22.9010 C   0  0  0  0  0  0  0  0  0  0  0  0
  -20.5770  -28.2650   23.1360 C   0  0  0  0  0  3  0  0  0  0  0  0
  -20.6610  -26.8400   22.5400 C   0  0  0  0  0  2  0  0  0  0  0  0
  -19.5430  -26.5420   21.5360 C   0  0  0  0  0  2  0  0  0  0  0  0
  -18.1710  -26.6860   22.2000 C   0  0  0  0  0  2  0  0  0  0  0  0
  -19.1440  -28.7750   23.3230 C   0  0  0  0  0  0  0  0  0  0  0  0
  -18.9420  -30.0300   23.9380 C   0  0  0  0  0  3  0  0  0  0  0  0
  -17.6440  -30.5330   24.1370 C   0  0  0  0  0  3  0  0  0  0  0  0
  -16.5270  -29.7820   23.7300 C   0  0  0  0  0  3  0  0  0  0  0  0
  -16.7130  -28.5310   23.1140 C   0  0  0  0  0  3  0  0  0  0  0  0
  -25.8790  -32.4150   23.7830 C   0  0  0  0  0  3  0  0  0  0  0  0
  -26.4120  -31.6320   25.0460 C   0  0  1  0  0  0  0  0  0  0  0  0
  -25.3350  -31.3880   26.1290 C   0  0  0  0  0  1  0  0  0  0  0  0
  -26.9920  -30.2560   24.6430 C   0  0  0  0  0  1  0  0  0  0  0  0
  -27.5640  -32.4280   25.7040 C   0  0  0  0  0  1  0  0  0  0  0  0
  -25.5720  -33.8110   24.1270 N   0  0  0  0  0  0  0  0  0  0  0  0
  -25.9020  -34.8720   23.3770 C   0  0  0  0  0  0  0  0  0  0  0  0
  -26.5650  -34.7780   22.3400 O   0  0  0  0  0  0  0  0  0  0  0  0
  -24.9790  -33.9600   24.9290 H   0  0  0  0  0  0  0  0  0  0  0  0
  -24.1750  -36.6780   23.0600 C   0  0  0  0  0  1  0  0  0  0  0  0
  -25.4230  -36.2570   23.8540 C   0  0  0  0  0  3  0  0  0  0  0  0
  -27.5640  -37.1310   24.6790 C   0  0  0  0  0  1  0  0  0  0  0  0
  -26.4560  -37.3100   23.7440 N   0  0  0  0  0  0  0  0  0  0  0  0
  -26.0510  -38.2290   23.9050 H   0  0  0  0  0  0  0  0  0  0  0  0
  1  3  1  0
  1  2  1  0
  3  2  1  0
  4  3  1  0
  4  5  1  0
  5  7  1  0
  6  4  2  0
  8 21  1  0
  9 14  1  0
 10 11  1  0
 10  9  1  0
 12 11  1  0
 12 25  1  0
 12 13  1  0
 14  8  1  0
 14 13  1  0
 15  8  2  0
 16 20  1  0
 18 16  2  0
 18 21  1  0
 19 17  1  0
 20  5  1  0
 20 17  1  0
 21 19  1  0
 22 23  2  0
 23 42  1  0
 24 23  1  0
 24 27  1  0
 25 26  1  0
 25 22  1  0
 26 24  2  0
 27 28  1  0
 28 29  2  0
 30 33  1  0
 30 29  1  0
 31 30  2  0
 32 31  1  0
 32 27  2  0
 33 34  1  0
 34 39  2  0
 34 35  1  0
 35 36  2  0
 36 37  1  0
 37 41  1  0
 38 37  2  0
 39 38  1  0
 40 39  1  0
 42 43  1  0
 43 46  1  0
 43 45  1  0
 44 42  2  0
 47 22  1  0
 47 48  1  0
 49 47  1  0
  3 50  1  1
 50 51  1  0
 52 50  1  0
 54 50  1  0
 54 53  1  0
 55 54  1  0
 56 55  1  0
 57 68  2  0
 58 56  1  0
 58 63  1  0
 59 67  1  0
 59 69  1  0
 60 66  1  0
 60 62  1  0
 61 67  1  0
 62 61  1  0
 63 62  2  0
 64 65  1  0
 64 58  2  0
 65 60  2  0
 66 59  1  0
 67 57  1  0
 69 71  2  0
 70 69  1  0
 72 70  1  0
 73 82  2  0
 73 78  1  0
 74 70  1  0
 74 78  1  0
 75 74  1  0
 76 77  1  0
 76 75  1  0
 77 73  1  0
 78 79  2  0
 79 80  1  0
 81 80  2  0
 82 81  1  0
 83 57  1  0
 83 88  1  0
 83 84  1  0
 84 87  1  1
 84 85  1  0
 86 84  1  0
 88 91  1  0
 89 93  1  0
 89 88  1  0
 90 89  2  0
 93 92  1  0
 95 93  1  0
 95 96  1  0
 95 94  1  0
M  ISO  4   8 100  21 100  55 101  56 101
M  END
>  <TORSDO>  (71) 
F 20

>  <SCORE>  (71) 
-13.022

>  <name>  (71) 
70

>  <ligand_id>  (71) 
70

>  <original_smiles>  (71) 
[H]c1c([H])c([H])c2c(c1[H])C([H])([H])C([H])([H])C([H])([H])C2([H])N([H])C(=O)C1([H])N(C(=O)C([H])(N([H])C(=O)C([H])(N([H])C([H])([H])[H])C([H])([H])[H])C(C([H])([H])[H])(C([H])([H])[H])C([H])([H])[H])C([H])([H])c2c([H])c(OC([H])([H])C([H])(C([H])([H])[H])[N+]([H])([H])C3(C(=O)N([H])C4([H])C([H])([H])C([H])([H])N(C(=O)N5C([H])([H])C([H])([H])C([H])([H])C([H])(n6nc(-c7c([H])c([H])c(Oc8c([H])c([H])c(F)c([H])c8F)c([H])c7[H])c(C(=O)N([H])[H])c6N([H])[H])C5([H])[H])C([H])([H])C4([H])[H])C([H])([H])C3([H])[H])c([H])c([H])c2C1([H])[H]

>  <smiles>  (71) 
[H]c1c([H])c([H])c2c(c1[H])C([H])([H])C([H])([H])C([H])([H])C2([H])N([H])C(=O)C1([H])N(C(=O)C([H])(N([H])C(=O)C([H])(N([H])C([H])([H])[H])C([H])([H])[H])C(C([H])([H])[H])(C([H])([H])[H])C([H])([H])[H])C([H])([H])c2c([H])c(OC([H])([H])C([H])(C([H])([H])[H])[N+]([H])([H])C3(C(=O)N([H])C4([H])C([H])([H])C([H])([H])N(C(=O)N5C([H])([H])C([H])([H])C([H])([H])C([H])(n6nc(-c7c([H])c([H])c(Oc8c([H])c([H])c(F)c([H])c8F)c([H])c7[H])c(C(=O)N([H])[H])c6N([H])[H])C5([H])[H])C([H])([H])C4([H])[H])C([H])([H])C3([H])[H])c([H])c([H])c2C1([H])[H]

$$$$
71:0:0
     RDKit          3D

 94 98  0  0  1  0  0  0  0  0999 V2000
  -29.8650  -17.8640   20.7540 C   0  0  0  0  0  3  0  0  0  0  0  0
  -29.0880  -17.8530   19.5880 C   0  0  0  0  0  0  0  0  0  0  0  0
  -28.8780  -16.3440   19.0620 C   0  0  0  0  0  0  0  0  0  0  0  0
  -29.9930  -16.6580   21.3970 C   0  0  0  0  0  0  0  0  0  0  0  0
  -29.2030  -14.9190   19.7950 C   0  0  0  0  0  2  0  0  0  0  0  0
  -28.2490  -16.4790   17.6880 C   0  0  0  0  0  1  0  0  0  0  0  0
  -29.1600  -12.1950   19.7260 C   0  0  0  0  0 15  0  0  0  0  0  0
  -29.2250  -15.6270   21.0090 N   0  0  0  0  0  2  0  0  0  0  0  0
  -27.7960  -20.1800   18.1350 C   0  0  0  0  0  2  0  0  0  0  0  0
  -27.8370  -21.8150   18.1140 C   0  0  0  0  0  2  0  0  0  0  0  0
  -28.8370  -20.9780   20.0700 C   0  0  0  0  0  2  0  0  0  0  0  0
  -28.8670  -19.5510   19.1040 C   0  0  0  0  0  3  0  0  0  0  0  0
  -28.5180  -22.5240   19.3580 C   0  0  0  0  0  3  0  0  0  0  0  0
  -27.8310  -24.1070   19.9900 C   0  0  0  0  0  2  0  0  0  0  0  0
  -28.0950  -25.7620   19.9070 O   0  0  0  0  0  0  0  0  0  0  0  0
  -24.6420  -31.8340   23.1250 C   0  0  0  0  0  0  0  0  0  0  0  0
  -27.1020  -26.8820   20.0170 C   0  0  0  0  0  0  0  0  0  0  0  0
  -23.4170  -30.4300   21.5250 C   0  0  0  0  0  3  0  0  0  0  0  0
  -24.8210  -28.7930   20.0940 C   0  0  0  0  0  0  0  0  0  0  0  0
  -25.9870  -30.6030   21.3300 C   0  0  0  0  0  2  0  0  0  0  0  0
  -26.0330  -29.1830   20.6770 C   0  0  0  0  0  0  0  0  0  0  0  0
  -27.1730  -28.2510   20.6080 C   0  0  0  0  0  3  0  0  0  0  0  0
  -25.8460  -26.6510   19.4260 C   0  0  0  0  0  3  0  0  0  0  0  0
  -24.7500  -27.5440   19.4600 C   0  0  0  0  0  3  0  0  0  0  0  0
  -23.6170  -29.7300   20.1570 C   0  0  0  0  0  2  0  0  0  0  0  0
  -24.7080  -30.9830   22.0470 N   0  0  0  0  0  0  0  0  0  0  0  0
  -23.5590  -32.1340   23.6550 O   0  0  0  0  0  0  0  0  0  0  0  0
  -22.7280  -29.4490   22.5110 C   0  0  0  0  0  0  0  0  0  0  0  0
  -21.3950  -29.2920   22.4070 N   0  0  0  0  0  0  0  0  0  0  0  0
  -23.4010  -28.8290   23.3380 O   0  0  0  0  0  0  0  0  0  0  0  0
  -20.9050  -29.8450   21.7190 H   0  0  0  0  0  0  0  0  0  0  0  0
  -18.0180  -28.0850   22.9700 C   0  0  0  0  0  0  0  0  0  0  0  0
  -20.5810  -28.3640   23.1990 C   0  0  0  0  0  3  0  0  0  0  0  0
  -20.6770  -26.9230   22.6460 C   0  0  0  0  0  2  0  0  0  0  0  0
  -19.5650  -26.5830   21.6490 C   0  0  0  0  0  2  0  0  0  0  0  0
  -18.1930  -26.7290   22.3070 C   0  0  0  0  0  2  0  0  0  0  0  0
  -19.1380  -28.8600   23.3750 C   0  0  0  0  0  0  0  0  0  0  0  0
  -18.9170  -30.1250   23.9600 C   0  0  0  0  0  3  0  0  0  0  0  0
  -17.6110  -30.6170   24.1420 C   0  0  0  0  0  3  0  0  0  0  0  0
  -16.5060  -29.8420   23.7490 C   0  0  0  0  0  3  0  0  0  0  0  0
  -16.7110  -28.5770   23.1680 C   0  0  0  0  0  3  0  0  0  0  0  0
  -25.9190  -32.4830   23.7350 C   0  0  0  0  0  3  0  0  0  0  0  0
  -26.4630  -31.7070   24.9990 C   0  0  1  0  0  0  0  0  0  0  0  0
  -25.3910  -31.4580   26.0870 C   0  0  0  0  0  1  0  0  0  0  0  0
  -27.0440  -30.3340   24.5940 C   0  0  0  0  0  1  0  0  0  0  0  0
  -27.6260  -32.5010   25.6410 C   0  0  0  0  0  1  0  0  0  0  0  0
  -25.5930  -33.8740   24.1000 N   0  0  0  0  0  0  0  0  0  0  0  0
  -25.9110  -34.9550   23.3750 C   0  0  0  0  0  0  0  0  0  0  0  0
  -26.5710  -34.8850   22.3350 O   0  0  0  0  0  0  0  0  0  0  0  0
  -25.0040  -33.9980   24.9090 H   0  0  0  0  0  0  0  0  0  0  0  0
  -24.1780  -36.7630   23.0930 C   0  0  0  0  0  1  0  0  0  0  0  0
  -25.4260  -36.3300   23.8800 C   0  0  0  0  0  3  0  0  0  0  0  0
  -27.5650  -37.1980   24.7210 C   0  0  0  0  0  1  0  0  0  0  0  0
  -26.4560  -37.3890   23.7910 N   0  0  0  0  0  0  0  0  0  0  0  0
  -26.0480  -38.3040   23.9660 H   0  0  0  0  0  0  0  0  0  0  0  0
  -30.9730  -16.3510   22.5390 C   0  0  0  0  0  2  0  0  0  0  0  0
  -31.6890  -14.3540   21.4350 C   0  0  0  0  0  0  0  0  0  0  0  0
  -31.3000  -13.3840   19.1400 C   0  0  0  0  0  1  0  0  0  0  0  0
  -29.9090  -13.5500   17.7300 C   0  0  0  0  0 15  0  0  0  0  0  0
  -27.9800  -13.5610   18.3060 C   0  0  0  0  0 15  0  0  0  0  0  0
  -27.6440  -13.6020   20.2800 C   0  0  0  0  0  1  0  0  0  0  0  0
  -29.1380  -13.3170   21.5620 C   0  0  0  0  0  1  0  0  0  0  0  0
  -30.8570  -13.4500   20.9040 N   0  0  0  0  0  0  0  0  0  0  0  0
  -32.6060  -14.8610   20.7900 O   0  0  0  0  0  0  0  0  0  0  0  0
  -31.2580  -14.9050   22.5770 N   0  0  0  0  0  0  0  0  0  0  0  0
  -30.5260  -14.3660   23.0170 H   0  0  0  0  0  0  0  0  0  0  0  0
  -25.3190  -13.9440   20.7160 C   0  0  0  0  0  0  0  0  0  0  0  0
  -24.3240  -13.1200   21.0610 C   0  0  0  0  0  0  0  0  0  0  0  0
  -24.8570  -11.7930   21.0230 C   0  0  0  0  0  0  0  0  0  0  0  0
  -26.4000  -13.1140   20.6020 N   0  0  0  0  0  0  0  0  0  0  0  0
  -26.1560  -11.8000   20.7680 N   0  0  0  0  0  0  0  0  0  0  0  0
  -24.1630  -10.5260   21.1620 C   0  0  0  0  0  0  0  0  0  0  0  0
  -24.5670   -9.5600   22.1060 C   0  0  0  0  0  3  0  0  0  0  0  0
  -23.8330   -8.3660   22.2440 C   0  0  0  0  0  3  0  0  0  0  0  0
  -22.6860   -8.1460   21.4430 C   0  0  0  0  0  0  0  0  0  0  0  0
  -22.3110   -9.1060   20.4860 C   0  0  0  0  0  3  0  0  0  0  0  0
  -23.0460  -10.2890   20.3430 C   0  0  0  0  0  3  0  0  0  0  0  0
  -21.9190   -7.0120   21.4980 O   0  0  0  0  0  0  0  0  0  0  0  0
  -21.8010   -6.2840   22.6510 C   0  0  0  0  0  0  0  0  0  0  0  0
  -21.3170   -6.8520   23.8490 C   0  0  0  0  0  3  0  0  0  0  0  0
  -21.1460   -6.0430   24.9910 C   0  0  0  0  0  3  0  0  0  0  0  0
  -21.4530   -4.6710   24.9340 C   0  0  0  0  0  0  0  0  0  0  0  0
  -21.9320   -4.1040   23.7410 C   0  0  0  0  0  3  0  0  0  0  0  0
  -22.1040   -4.9090   22.6000 C   0  0  0  0  0  0  0  0  0  0  0  0
  -22.5440   -4.3550   21.4450 F   0  0  0  0  0  0  0  0  0  0  0  0
  -21.2810   -3.8920   26.0270 F   0  0  0  0  0  0  0  0  0  0  0  0
  -22.9380  -13.5890   21.3060 C   0  0  0  0  0  0  0  0  0  0  0  0
  -22.2250  -12.9120   22.1910 N   0  0  0  0  0  0  0  0  0  0  0  0
  -22.5200  -14.6180   20.7750 O   0  0  0  0  0  0  0  0  0  0  0  0
  -22.6050  -12.0960   22.6500 H   0  0  0  0  0  0  0  0  0  0  0  0
  -21.2910  -13.2130   22.4240 H   0  0  0  0  0  0  0  0  0  0  0  0
  -25.3630  -15.3240   20.4960 N   0  0  0  0  0  0  0  0  0  0  0  0
  -24.5050  -15.8620   20.4650 H   0  0  0  0  0  0  0  0  0  0  0  0
  -26.1640  -15.7960   20.0910 H   0  0  0  0  0  0  0  0  0  0  0  0
  1  4  2  0
  2  1  1  0
  3  2  2  0
  3  5  1  0
  4 56  1  0
  5  8  1  0
  6  3  1  0
  8  4  1  0
  9 12  1  0
 10  9  1  0
 10 13  1  0
 12  2  1  0
 12 11  1  0
 13 14  1  0
 13 11  1  0
 15 14  1  0
 15 17  1  0
 16 27  2  0
 17 22  1  0
 18 26  1  0
 18 28  1  0
 19 25  1  0
 19 21  1  0
 20 26  1  0
 21 20  1  0
 22 21  2  0
 23 24  1  0
 23 17  2  0
 24 19  2  0
 25 18  1  0
 26 16  1  0
 28 30  2  0
 29 28  1  0
 31 29  1  0
 32 41  2  0
 32 37  1  0
 33 29  1  0
 33 37  1  0
 34 33  1  0
 35 36  1  0
 35 34  1  0
 36 32  1  0
 37 38  2  0
 38 39  1  0
 40 39  2  0
 41 40  1  0
 42 16  1  0
 42 47  1  0
 42 43  1  0
 43 46  1  1
 43 44  1  0
 45 43  1  0
 47 50  1  0
 48 52  1  0
 48 47  1  0
 49 48  2  0
 52 51  1  0
 54 52  1  0
 54 55  1  0
 54 53  1  0
 56 65  1  0
 57 65  1  0
 58 63  1  0
 61 70  1  0
 63 57  1  0
 63 62  1  0
 64 57  2  0
 65 66  1  0
 67 68  2  0
 68 87  1  0
 69 68  1  0
 69 72  1  0
 70 67  1  0
 70 71  1  0
 71 69  2  0
 72 73  1  0
 73 74  2  0
 75 78  1  0
 75 74  1  0
 76 75  2  0
 77 76  1  0
 77 72  2  0
 78 79  1  0
 79 80  1  0
 80 81  2  0
 82 81  1  0
 82 86  1  0
 83 82  2  0
 84 79  2  0
 84 83  1  0
 85 84  1  0
 87 88  1  0
 88 91  1  0
 88 90  1  0
 89 87  2  0
 92 67  1  0
 93 92  1  0
 94 92  1  0
M  ISO  4  14 101  15 101  57 100  65 100
M  END
>  <TORSDO>  (72) 
F 19

>  <SCORE>  (72) 
-12.320

>  <name>  (72) 
71

>  <ligand_id>  (72) 
71

>  <original_smiles>  (72) 
[H]c1c([H])c([H])c2c(c1[H])C([H])([H])C([H])([H])C([H])([H])C2([H])N([H])C(=O)C1([H])N(C(=O)C([H])(N([H])C(=O)C([H])(N([H])C([H])([H])[H])C([H])([H])[H])C(C([H])([H])[H])(C([H])([H])[H])C([H])([H])[H])C([H])([H])c2c([H])c(OC([H])([H])C3([H])C([H])([H])C([H])([H])C([H])(c4c([H])c(C([H])([H])N([H])C(=O)N5C([H])([H])C([H])([H])C([H])([H])C([H])(n6nc(-c7c([H])c([H])c(Oc8c([H])c([H])c(F)c([H])c8F)c([H])c7[H])c(C(=O)N([H])[H])c6N([H])[H])C5([H])[H])nc(C([H])([H])[H])c4C([H])([H])[H])C3([H])[H])c([H])c([H])c2C1([H])[H]

>  <smiles>  (72) 
[H]c1c([H])c([H])c2c(c1[H])C([H])([H])C([H])([H])C([H])([H])C2([H])N([H])C(=O)C1([H])N(C(=O)C([H])(N([H])C(=O)C([H])(N([H])C([H])([H])[H])C([H])([H])[H])C(C([H])([H])[H])(C([H])([H])[H])C([H])([H])[H])C([H])([H])c2c([H])c(OC([H])([H])C3([H])C([H])([H])C([H])([H])C([H])(c4c([H])c(C([H])([H])N([H])C(=O)N5C([H])([H])C([H])([H])C([H])([H])C([H])(n6nc(-c7c([H])c([H])c(Oc8c([H])c([H])c(F)c([H])c8F)c([H])c7[H])c(C(=O)N([H])[H])c6N([H])[H])C5([H])[H])nc(C([H])([H])[H])c4C([H])([H])[H])C3([H])[H])c([H])c([H])c2C1([H])[H]

$$$$
72:0:0
     RDKit          3D

100109  0  0  1  0  0  0  0  0999 V2000
  -29.8730  -21.9320   22.5970 C   0  0  0  0  0  0  0  0  0  0  0  0
  -30.9160  -21.1300   22.8860 N   0  0  0  0  0  0  0  0  0  0  0  0
  -28.7160  -21.5200   22.4650 O   0  0  0  0  0  0  0  0  0  0  0  0
  -31.8310  -21.5490   22.9990 H   0  0  0  0  0  0  0  0  0  0  0  0
  -30.1520  -23.8690   20.9620 C   0  0  0  0  0  2  0  0  0  0  0  0
  -29.0650  -25.5430   22.3530 C   0  0  0  0  0  2  0  0  0  0  0  0
  -30.1500  -23.4360   22.4440 C   0  0  0  0  0  3  0  0  0  0  0  0
  -29.5460  -25.2920   20.9030 C   0  0  1  0  0  0  0  0  0  0  0  0
  -30.6280  -26.3160   20.4800 C   0  0  0  0  0  1  0  0  0  0  0  0
  -29.1100  -24.3550   24.5300 C   0  0  0  0  0  1  0  0  0  0  0  0
  -29.0730  -24.2420   23.0520 N   0  0  1  0  0  4  0  0  0  0  0  0
  -28.2230  -23.7480   22.8090 H   0  0  0  0  0  0  0  0  0  0  0  0
  -28.3580  -25.3530   19.9030 C   0  0  0  0  0  2  0  0  0  0  0  0
  -28.2210  -26.6950   19.4510 O   0  0  0  0  0  0  0  0  0  0  0  0
  -24.5270  -31.6210   22.9270 C   0  0  0  0  0  0  0  0  0  0  0  0
  -27.0070  -27.3290   19.5530 C   0  0  0  0  0  0  0  0  0  0  0  0
  -23.2260  -30.2650   21.3160 C   0  0  0  0  0  3  0  0  0  0  0  0
  -24.5950  -28.7790   19.7590 C   0  0  0  0  0  0  0  0  0  0  0  0
  -25.7260  -30.6580   20.9680 C   0  0  0  0  0  2  0  0  0  0  0  0
  -25.7790  -29.3090   20.2870 C   0  0  0  0  0  0  0  0  0  0  0  0
  -26.9850  -28.5910   20.1770 C   0  0  0  0  0  3  0  0  0  0  0  0
  -25.8080  -26.7990   19.0250 C   0  0  0  0  0  3  0  0  0  0  0  0
  -24.6020  -27.5220   19.1270 C   0  0  0  0  0  3  0  0  0  0  0  0
  -23.3500  -29.6240   19.9070 C   0  0  0  0  0  2  0  0  0  0  0  0
  -24.5150  -30.8610   21.7970 N   0  0  0  0  0  0  0  0  0  0  0  0
  -23.4810  -31.8660   23.5450 O   0  0  0  0  0  0  0  0  0  0  0  0
  -22.6430  -29.2100   22.2810 C   0  0  0  0  0  0  0  0  0  0  0  0
  -21.3210  -28.9900   22.1970 N   0  0  0  0  0  0  0  0  0  0  0  0
  -23.3740  -28.5930   23.0610 O   0  0  0  0  0  0  0  0  0  0  0  0
  -20.7900  -29.5410   21.5340 H   0  0  0  0  0  0  0  0  0  0  0  0
  -18.0140  -27.6400   22.7360 C   0  0  0  0  0  0  0  0  0  0  0  0
  -20.5600  -28.0160   22.9770 C   0  0  0  0  0  3  0  0  0  0  0  0
  -20.7220  -26.5930   22.3980 C   0  0  0  0  0  2  0  0  0  0  0  0
  -19.6240  -26.2180   21.3970 C   0  0  0  0  0  2  0  0  0  0  0  0
  -18.2440  -26.3000   22.0580 C   0  0  0  0  0  2  0  0  0  0  0  0
  -19.1020  -28.4520   23.1530 C   0  0  0  0  0  0  0  0  0  0  0  0
  -18.8330  -29.7050   23.7470 C   0  0  0  0  0  3  0  0  0  0  0  0
  -17.5110  -30.1490   23.9260 C   0  0  0  0  0  3  0  0  0  0  0  0
  -16.4370  -29.3340   23.5250 C   0  0  0  0  0  3  0  0  0  0  0  0
  -16.6890  -28.0820   22.9380 C   0  0  0  0  0  3  0  0  0  0  0  0
  -25.8480  -32.2380   23.4870 C   0  0  0  0  0  3  0  0  0  0  0  0
  -26.4920  -31.3830   24.6450 C   0  0  1  0  0  0  0  0  0  0  0  0
  -25.5010  -31.0210   25.7760 C   0  0  0  0  0  1  0  0  0  0  0  0
  -27.0740  -30.0640   24.0830 C   0  0  0  0  0  1  0  0  0  0  0  0
  -27.6750  -32.1560   25.2710 C   0  0  0  0  0  1  0  0  0  0  0  0
  -25.5390  -33.5960   23.9550 N   0  0  0  0  0  0  0  0  0  0  0  0
  -25.8750  -34.7180   23.3060 C   0  0  0  0  0  0  0  0  0  0  0  0
  -26.5470  -34.7170   22.2710 O   0  0  0  0  0  0  0  0  0  0  0  0
  -24.9460  -33.6700   24.7700 H   0  0  0  0  0  0  0  0  0  0  0  0
  -24.1620  -36.5450   23.1040 C   0  0  0  0  0  1  0  0  0  0  0  0
  -25.3830  -36.0540   23.8960 C   0  0  0  0  0  3  0  0  0  0  0  0
  -27.5090  -36.8230   24.8530 C   0  0  0  0  0  1  0  0  0  0  0  0
  -26.4230  -37.1050   23.9160 N   0  0  0  0  0  0  0  0  0  0  0  0
  -26.0210  -38.0070   24.1570 H   0  0  0  0  0  0  0  0  0  0  0  0
  -30.5270  -17.7170   24.3570 C   0  0  0  0  0  3  0  0  0  0  0  0
  -30.6690  -16.9190   23.2070 C   0  0  0  0  0  3  0  0  0  0  0  0
  -30.6220  -19.1200   24.2630 C   0  0  0  0  0  3  0  0  0  0  0  0
  -31.0150  -18.9190   21.8570 C   0  0  0  0  0  3  0  0  0  0  0  0
  -30.9100  -17.5110   21.9470 C   0  0  0  0  0  0  0  0  0  0  0  0
  -30.8400  -19.7220   23.0050 C   0  0  0  0  0  0  0  0  0  0  0  0
  -31.2280  -17.3830   19.4020 C   0  0  0  0  0  1  0  0  0  0  0  0
  -31.0480  -16.6080   20.7270 C   0  0  0  0  0  3  0  0  0  0  0  0
  -32.4660  -14.6420   20.1250 C   0  0  0  0  0  0  0  0  0  0  0  0
  -31.8610  -12.5230   19.0130 C   0  0  0  0  0  2  0  0  0  0  0  0
  -30.9430  -12.7910   17.8070 C   0  0  0  0  0  2  0  0  0  0  0  0
  -29.4660  -12.8540   18.2440 C   0  0  0  0  0  2  0  0  0  0  0  0
  -29.2480  -13.7680   19.4800 C   0  0  0  0  0  3  0  0  0  0  0  0
  -30.2800  -13.4530   20.5900 C   0  0  0  0  0  2  0  0  0  0  0  0
  -31.6230  -13.5820   20.0060 N   0  0  0  0  0  0  0  0  0  0  0  0
  -33.5610  -14.6950   19.5580 O   0  0  0  0  0  0  0  0  0  0  0  0
  -32.1140  -15.6300   20.9590 N   0  0  0  0  0  0  0  0  0  0  0  0
  -32.9320  -16.1000   21.3140 H   0  0  0  0  0  0  0  0  0  0  0  0
  -26.9780  -14.7090   20.2450 C   0  0  0  0  0  0  0  0  0  0  0  0
  -25.8090  -14.0950   20.6040 C   0  0  0  0  0  0  0  0  0  0  0  0
  -26.0610  -12.6910   20.5250 C   0  0  0  0  0  0  0  0  0  0  0  0
  -27.8750  -13.6890   19.9740 N   0  0  0  0  0  0  0  0  0  0  0  0
  -27.3260  -12.4690   20.1970 N   0  0  0  0  0  0  0  0  0  0  0  0
  -25.1570  -11.5440   20.6820 C   0  0  0  0  0  0  0  0  0  0  0  0
  -25.4300  -10.5140   21.6080 C   0  0  0  0  0  3  0  0  0  0  0  0
  -24.5370   -9.4300   21.7580 C   0  0  0  0  0  3  0  0  0  0  0  0
  -23.3570   -9.3730   20.9800 C   0  0  0  0  0  0  0  0  0  0  0  0
  -23.1020  -10.3890   20.0450 C   0  0  0  0  0  3  0  0  0  0  0  0
  -23.9930  -11.4640   19.8920 C   0  0  0  0  0  3  0  0  0  0  0  0
  -22.4410   -8.3510   21.0400 O   0  0  0  0  0  0  0  0  0  0  0  0
  -22.1840   -7.6830   22.2100 C   0  0  0  0  0  0  0  0  0  0  0  0
  -21.7720   -8.3600   23.3790 C   0  0  0  0  0  3  0  0  0  0  0  0
  -21.4520   -7.6290   24.5400 C   0  0  0  0  0  3  0  0  0  0  0  0
  -21.5340   -6.2250   24.5340 C   0  0  0  0  0  0  0  0  0  0  0  0
  -21.9390   -5.5470   23.3700 C   0  0  0  0  0  3  0  0  0  0  0  0
  -22.2580   -6.2760   22.2100 C   0  0  0  0  0  0  0  0  0  0  0  0
  -22.6280   -5.6180   21.0850 F   0  0  0  0  0  0  0  0  0  0  0  0
  -21.2180   -5.5230   25.6470 F   0  0  0  0  0  0  0  0  0  0  0  0
  -24.5020  -14.7650   20.9120 C   0  0  0  0  0  0  0  0  0  0  0  0
  -23.7100  -14.1790   21.8030 N   0  0  0  0  0  0  0  0  0  0  0  0
  -24.1980  -15.8420   20.4000 O   0  0  0  0  0  0  0  0  0  0  0  0
  -23.9660  -13.3050   22.2370 H   0  0  0  0  0  0  0  0  0  0  0  0
  -22.8340  -14.6120   22.0560 H   0  0  0  0  0  0  0  0  0  0  0  0
  -27.3430  -16.0460   20.1070 N   0  0  0  0  0  0  0  0  0  0  0  0
  -26.6760  -16.7970   20.2390 H   0  0  0  0  0  0  0  0  0  0  0  0
  -28.2410  -16.3740   19.7770 H   0  0  0  0  0  0  0  0  0  0  0  0
  1  2  1  0
  2  4  1  0
  2 60  1  0
  3  1  2  0
  5  7  1  0
  6 11  1  0
  7  1  1  0
  7 11  1  0
  8  9  1  6
  8  5  1  0
  8  6  1  0
 11 10  1  0
 11 12  1  1
 13  8  1  0
 14 16  1  0
 14 13  1  0
 15 26  2  0
 16 21  1  0
 17 25  1  0
 17 27  1  0
 18 24  1  0
 18 20  1  0
 19 25  1  0
 20 19  1  0
 21 20  2  0
 22 23  1  0
 22 16  2  0
 23 18  2  0
 24 17  1  0
 25 15  1  0
 27 29  2  0
 28 27  1  0
 30 28  1  0
 31 40  2  0
 31 36  1  0
 32 28  1  0
 32 36  1  0
 33 32  1  0
 34 35  1  0
 34 33  1  0
 35 31  1  0
 36 37  2  0
 37 38  1  0
 39 38  2  0
 40 39  1  0
 41 15  1  0
 41 46  1  0
 41 42  1  0
 42 45  1  1
 42 43  1  0
 44 42  1  0
 46 49  1  0
 47 51  1  0
 47 46  1  0
 48 47  2  0
 51 50  1  0
 51 53  1  0
 53 54  1  0
 53 52  1  0
 56 55  2  0
 57 55  1  0
 58 59  2  0
 58 60  1  0
 59 56  1  0
 60 57  2  0
 62 61  1  0
 62 71  1  0
 62 59  1  0
 63 71  1  0
 64 69  1  0
 65 66  1  0
 65 64  1  0
 67 66  1  0
 67 76  1  0
 67 68  1  0
 69 63  1  0
 69 68  1  0
 70 63  2  0
 71 72  1  0
 73 74  2  0
 74 93  1  0
 75 74  1  0
 75 78  1  0
 76 77  1  0
 76 73  1  0
 77 75  2  0
 78 79  1  0
 79 80  2  0
 81 84  1  0
 81 80  1  0
 82 81  2  0
 83 82  1  0
 83 78  2  0
 84 85  1  0
 85 86  1  0
 86 87  2  0
 88 87  1  0
 88 92  1  0
 89 88  2  0
 90 85  2  0
 90 89  1  0
 91 90  1  0
 93 94  1  0
 94 97  1  0
 94 96  1  0
 95 93  2  0
 98 99  1  0
 98 73  1  0
100 98  1  0
M  ISO  4  13 101  14 101  63 100  71 100
M  END
>  <TORSDO>  (73) 
F 20

>  <SCORE>  (73) 
-8.415

>  <name>  (73) 
72

>  <ligand_id>  (73) 
72

>  <original_smiles>  (73) 
[H]c1c([H])c([H])c2c(c1[H])C([H])([H])C([H])([H])C([H])([H])C2([H])N([H])C(=O)C1([H])N(C(=O)C([H])(N([H])C(=O)C([H])(N([H])C([H])([H])[H])C([H])([H])[H])C(C([H])([H])[H])(C([H])([H])[H])C([H])([H])[H])C([H])([H])c2c([H])c(OC([H])([H])C3(C([H])([H])[H])C([H])([H])C([H])(C(=O)N([H])c4c([H])c([H])c([H])c(C([H])(N([H])C(=O)N5C([H])([H])C([H])([H])C([H])([H])C([H])(n6nc(-c7c([H])c([H])c(Oc8c([H])c([H])c(F)c([H])c8F)c([H])c7[H])c(C(=O)N([H])[H])c6N([H])[H])C5([H])[H])C([H])([H])[H])c4[H])[N+]([H])(C([H])([H])[H])C3([H])[H])c([H])c([H])c2C1([H])[H]

>  <smiles>  (73) 
[H]c1c([H])c([H])c2c(c1[H])C([H])([H])C([H])([H])C([H])([H])C2([H])N([H])C(=O)C1([H])N(C(=O)C([H])(N([H])C(=O)C([H])(N([H])C([H])([H])[H])C([H])([H])[H])C(C([H])([H])[H])(C([H])([H])[H])C([H])([H])[H])C([H])([H])c2c([H])c(OC([H])([H])C3(C([H])([H])[H])C([H])([H])C([H])(C(=O)N([H])c4c([H])c([H])c([H])c(C([H])(N([H])C(=O)N5C([H])([H])C([H])([H])C([H])([H])C([H])(n6nc(-c7c([H])c([H])c(Oc8c([H])c([H])c(F)c([H])c8F)c([H])c7[H])c(C(=O)N([H])[H])c6N([H])[H])C5([H])[H])C([H])([H])[H])c4[H])[N+]([H])(C([H])([H])[H])C3([H])[H])c([H])c([H])c2C1([H])[H]

$$$$
73:0:0
     RDKit          3D

106110  0  0  1  0  0  0  0  0999 V2000
  -27.7220  -16.9320   20.4010 C   0  0  0  0  0  3  0  0  0  0  0  0
  -27.2110  -16.5420   18.1870 C   0  0  0  0  0  3  0  0  0  0  0  0
  -27.4050  -15.5220   20.7200 C   0  0  0  0  0  3  0  0  0  0  0  0
  -26.8940  -15.1280   18.5130 C   0  0  0  0  0  3  0  0  0  0  0  0
  -27.6970  -17.5730   19.0960 C   0  0  0  0  0  0  0  0  0  0  0  0
  -27.0520  -14.4450   19.7950 C   0  0  0  0  0  0  0  0  0  0  0  0
  -28.4340  -19.0840   18.6870 C   0  0  0  0  0  2  0  0  0  0  0  0
  -28.2060  -20.6590   19.0690 N   0  0  0  0  0  4  0  0  0  0  0  0
  -28.5450  -20.7550   20.0130 H   0  0  0  0  0  0  0  0  0  0  0  0
  -27.2070  -20.7670   19.1330 H   0  0  0  0  0  0  0  0  0  0  0  0
  -30.1800  -21.6640   17.7140 C   0  0  0  0  0  1  0  0  0  0  0  0
  -28.7630  -21.9680   18.2280 C   0  0  0  0  0  3  0  0  0  0  0  0
  -28.7550  -23.6530   18.7360 C   0  0  0  0  0  2  0  0  0  0  0  0
  -29.1460  -25.0720   18.0410 O   0  0  0  0  0  0  0  0  0  0  0  0
  -26.4930  -29.4170   23.2840 C   0  0  0  0  0  0  0  0  0  0  0  0
  -28.4810  -26.3010   18.4080 C   0  0  0  0  0  0  0  0  0  0  0  0
  -25.2160  -29.1020   21.2050 C   0  0  0  0  0  3  0  0  0  0  0  0
  -26.5340  -28.2840   19.1630 C   0  0  0  0  0  0  0  0  0  0  0  0
  -27.7880  -29.1280   21.1330 C   0  0  0  0  0  2  0  0  0  0  0  0
  -27.7230  -28.2030   19.9010 C   0  0  0  0  0  0  0  0  0  0  0  0
  -28.7240  -27.2290   19.5090 C   0  0  0  0  0  3  0  0  0  0  0  0
  -27.3560  -26.5810   17.6240 C   0  0  0  0  0  3  0  0  0  0  0  0
  -26.3810  -27.5180   18.0010 C   0  0  0  0  0  3  0  0  0  0  0  0
  -25.4170  -29.1810   19.6690 C   0  0  0  0  0  2  0  0  0  0  0  0
  -26.5220  -29.2110   21.9320 N   0  0  0  0  0  0  0  0  0  0  0  0
  -25.4220  -29.5190   23.9040 O   0  0  0  0  0  0  0  0  0  0  0  0
  -24.4270  -27.8160   21.5670 C   0  0  0  0  0  0  0  0  0  0  0  0
  -23.1050  -27.8160   21.3190 N   0  0  0  0  0  0  0  0  0  0  0  0
  -25.0090  -26.8420   22.0500 O   0  0  0  0  0  0  0  0  0  0  0  0
  -22.6960  -28.6550   20.9330 H   0  0  0  0  0  0  0  0  0  0  0  0
  -19.6630  -26.7350   20.9890 C   0  0  0  0  0  0  0  0  0  0  0  0
  -22.1870  -26.6970   21.5540 C   0  0  0  0  0  3  0  0  0  0  0  0
  -22.3140  -25.6290   20.4420 C   0  0  0  0  0  2  0  0  0  0  0  0
  -21.3140  -25.8310   19.2980 C   0  0  0  0  0  2  0  0  0  0  0  0
  -19.8770  -25.7830   19.8250 C   0  0  0  0  0  2  0  0  0  0  0  0
  -20.7490  -27.1760   21.7910 C   0  0  0  0  0  0  0  0  0  0  0  0
  -20.4980  -28.0860   22.8410 C   0  0  0  0  0  3  0  0  0  0  0  0
  -19.1940  -28.5500   23.0960 C   0  0  0  0  0  3  0  0  0  0  0  0
  -18.1210  -28.1000   22.3080 C   0  0  0  0  0  3  0  0  0  0  0  0
  -18.3570  -27.1920   21.2590 C   0  0  0  0  0  3  0  0  0  0  0  0
  -27.8060  -29.5610   24.1110 C   0  0  0  0  0  3  0  0  0  0  0  0
  -27.5200  -30.4490   25.2500 N   0  0  0  0  0  0  0  0  0  0  0  0
  -27.9180  -31.7230   25.3460 C   0  0  0  0  0  0  0  0  0  0  0  0
  -28.6320  -32.2650   24.4990 O   0  0  0  0  0  0  0  0  0  0  0  0
  -26.8920  -30.0880   25.9540 H   0  0  0  0  0  0  0  0  0  0  0  0
  -26.2830  -33.4440   26.1860 C   0  0  0  0  0  1  0  0  0  0  0  0
  -27.4520  -32.5260   26.5780 C   0  0  0  0  0  3  0  0  0  0  0  0
  -29.5500  -32.5220   27.8550 C   0  0  0  0  0  1  0  0  0  0  0  0
  -28.5270  -33.3320   27.1980 N   0  0  0  0  0  0  0  0  0  0  0  0
  -28.1440  -33.9740   27.8860 H   0  0  0  0  0  0  0  0  0  0  0  0
  -28.3670  -28.1770   24.6240 C   0  0  1  0  0  0  0  0  0  0  0  0
  -27.3170  -27.3160   25.3670 C   0  0  0  0  0  1  0  0  0  0  0  0
  -28.9180  -27.3350   23.4510 C   0  0  0  0  0  1  0  0  0  0  0  0
  -29.5530  -28.4160   25.5870 C   0  0  0  0  0  1  0  0  0  0  0  0
  -26.6840  -12.7680   20.1640 C   0  0  0  0  0  3  0  0  0  0  0  0
  -31.5740  -13.4700   22.2660 C   0  0  2  0  0  0  0  0  0  0  0  0
  -32.7730  -12.7880   23.0830 C   0  0  0  0  0  1  0  0  0  0  0  0
  -33.7060  -12.8010   21.4740 C   0  0  0  0  0  1  0  0  0  0  0  0
  -32.8550  -13.3690   20.0590 C   0  0  0  0  0  2  0  0  0  0  0  0
  -31.2140  -14.1260   20.0980 C   0  0  0  0  0  2  0  0  0  0  0  0
  -30.3670  -14.2260   21.8030 C   0  0  0  0  0  1  0  0  0  0  0  0
  -31.2210  -13.5880   23.1890 N   0  0  0  0  0  1  0  0  0  0  0  0
  -32.4070  -14.7510   22.2340 O   0  0  0  0  0  1  0  0  0  0  0  0
  -30.7340   -9.8110   18.4580 C   0  0  0  0  0 15  0  0  0  0  0  0
  -31.6690  -10.5550   20.4010 C   0  0  0  0  0 15  0  0  0  0  0  0
  -29.0530  -11.6500   21.7640 C   0  0  0  0  0  3  0  0  0  0  0  0
  -27.5530  -11.1290   20.2720 C   0  0  0  0  0  3  0  0  0  0  0  0
  -28.4710   -9.7830   18.4890 C   0  0  0  0  0  1  0  0  0  0  0  0
  -30.9330  -11.9160   21.6230 N   0  0  0  0  0  1  0  0  0  0  0  0
  -29.8190  -13.2080   18.2190 C   0  0  0  0  0  0  0  0  0  0  0  0
  -28.8850  -12.2550   18.3480 C   0  0  0  0  0  0  0  0  0  0  0  0
  -29.0270  -11.9150   19.8450 C   0  0  1  0  0  0  0  0  0  0  0  0
  -30.2760  -13.3620   19.4250 N   0  0  0  0  0  0  0  0  0  0  0  0
  -30.2610  -12.1770   19.6810 N   0  0  0  0  0  2  0  0  0  0  0  0
  -27.9130  -10.6650   21.3770 C   0  0  2  0  0  0  0  0  0  0  0  0
  -26.5950  -10.7590   22.0530 C   0  0  0  0  0  2  0  0  0  0  0  0
  -25.5170   -9.7700   22.1830 C   0  0  0  0  0  3  0  0  0  0  0  0
  -25.5510   -8.5060   21.5160 C   0  0  0  0  0  0  0  0  0  0  0  0
  -26.7470   -8.2650   20.8980 C   0  0  0  0  0  2  0  0  0  0  0  0
  -27.7680   -9.1430   21.3890 C   0  0  0  0  0  2  0  0  0  0  0  0
  -24.6590   -7.4490   21.5550 O   0  0  0  0  0  0  0  0  0  0  0  0
  -23.5230   -7.5320   22.3120 C   0  0  0  0  0  0  0  0  0  0  0  0
  -22.5410   -8.4720   21.9550 C   0  0  0  0  0  3  0  0  0  0  0  0
  -21.3610   -8.5820   22.7070 C   0  0  0  0  0  3  0  0  0  0  0  0
  -21.1460   -7.7300   23.8030 C   0  0  0  0  0  0  0  0  0  0  0  0
  -22.1060   -6.7600   24.1450 C   0  0  0  0  0  3  0  0  0  0  0  0
  -23.2950   -6.6510   23.3980 C   0  0  0  0  0  0  0  0  0  0  0  0
  -24.2020   -5.6990   23.7250 F   0  0  0  0  0  0  0  0  0  0  0  0
  -20.0080   -7.8420   24.5240 F   0  0  0  0  0  0  0  0  0  0  0  0
  -28.0260  -11.8260   17.1030 C   0  0  0  0  0  0  0  0  0  0  0  0
  -26.6790  -11.6990   17.0900 N   0  0  0  0  0  0  0  0  0  0  0  0
  -28.5860  -11.5100   16.0760 O   0  0  0  0  0  0  0  0  0  0  0  0
  -26.2270  -11.5230   16.2000 H   0  0  0  0  0  0  0  0  0  0  0  0
  -26.1050  -12.0360   17.8490 H   0  0  0  0  0  0  0  0  0  0  0  0
  -30.3550  -13.9600   17.2370 N   0  0  0  0  0  0  0  0  0  0  0  0
  -29.7950  -14.1170   16.4090 H   0  0  0  0  0  0  0  0  0  0  0  0
  -30.9350  -14.7550   17.4640 H   0  0  0  0  0  0  0  0  0  0  0  0
  -27.8780   -9.1500   17.2690 N   0  0  0  0  0  4  0  0  0  0  0  0
  -27.2830   -8.3770   17.5110 H   0  0  0  0  0  0  0  0  0  0  0  0
  -28.5930   -8.8160   16.6460 H   0  0  0  0  0  0  0  0  0  0  0  0
  -27.3220   -9.8350   16.7830 H   0  0  0  0  0  0  0  0  0  0  0  0
  -25.7480  -12.8720   21.4050 C   0  0  0  0  0  2  0  0  0  0  0  0
  -24.5000  -14.6960   22.5680 C   0  0  0  0  0  1  0  0  0  0  0  0
  -24.7910  -14.0010   21.2980 N   0  0  0  0  0  4  0  0  0  0  0  0
  -25.1740  -14.6830   20.6590 H   0  0  0  0  0  0  0  0  0  0  0  0
  -23.9250  -13.6670   20.9060 H   0  0  0  0  0  0  0  0  0  0  0  0
  1  3  1  0
  2  4  2  0
  2  5  1  0
  4  6  1  0
  5  1  2  0
  6 55  1  0
  6  3  2  0
  7  8  1  0
  7  5  1  0
  8 10  1  0
  8  9  1  0
 12 11  1  0
 12 13  1  0
 12  8  1  0
 14 16  1  0
 14 13  1  0
 15 26  2  0
 16 21  1  0
 17 27  1  0
 17 25  1  0
 18 24  1  0
 18 20  1  0
 19 25  1  0
 20 19  1  0
 21 20  2  0
 22 23  1  0
 22 16  2  0
 23 18  2  0
 24 17  1  0
 25 15  1  0
 27 29  2  0
 28 27  1  0
 30 28  1  0
 31 40  2  0
 31 36  1  0
 32 28  1  0
 32 36  1  0
 33 32  1  0
 34 35  1  0
 34 33  1  0
 35 31  1  0
 36 37  2  0
 37 38  1  0
 39 38  2  0
 40 39  1  0
 41 15  1  0
 41 51  1  0
 41 42  1  0
 42 43  1  0
 42 45  1  0
 43 47  1  0
 44 43  2  0
 47 46  1  0
 47 49  1  0
 49 48  1  0
 49 50  1  0
 51 52  1  1
 51 54  1  0
 53 51  1  0
 55102  1  0
 56 57  1  1
 56 62  1  0
 59 60  1  0
 59 58  1  0
 61 56  1  0
 63 56  1  0
 66 69  1  0
 67 55  1  0
 67 75  1  0
 70 71  2  0
 70 73  1  0
 72 71  1  0
 72 67  1  0
 72 66  1  0
 73 74  1  0
 73 60  1  0
 72 74  1  6
 75 80  1  6
 75 66  1  0
 75 76  1  0
 76 77  1  0
 78 81  1  0
 78 77  2  0
 79 80  1  0
 79 78  1  0
 81 82  1  0
 82 87  1  0
 83 82  2  0
 83 84  1  0
 84 85  2  0
 85 86  1  0
 85 89  1  0
 87 88  1  0
 87 86  2  0
 90 71  1  0
 91 90  1  0
 91 94  1  0
 92 90  2  0
 93 91  1  0
 95 97  1  0
 95 70  1  0
 96 95  1  0
 98 99  1  0
 98 68  1  0
100 98  1  0
101 98  1  0
104102  1  0
104103  1  0
105104  1  0
106104  1  0
M  ISO  4  13 101  14 101  56 100  69 100
M  END
>  <TORSDO>  (74) 
F 24

>  <SCORE>  (74) 
12.912

>  <name>  (74) 
73

>  <ligand_id>  (74) 
73

>  <original_smiles>  (74) 
[H]c1c([H])c([H])c2c(c1[H])C([H])([H])C([H])([H])C([H])([H])C2([H])N([H])C(=O)C1([H])N(C(=O)C([H])(N([H])C(=O)C([H])(N([H])C([H])([H])[H])C([H])([H])[H])C(C([H])([H])[H])(C([H])([H])[H])C([H])([H])[H])C([H])([H])c2c([H])c(OC([H])([H])C([H])(C([H])([H])[H])[N+]([H])([H])C([H])([H])c3c([H])c([H])c(C([H])(C4([H])C([H])([H])N(C(=O)N5C([H])([H])C([H])([H])C([H])([H])C([H])(n6nc(-c7c([H])c([H])c(Oc8c([H])c([H])c(F)c([H])c8F)c([H])c7[H])c(C(=O)N([H])[H])c6N([H])[H])C5([H])[H])C([H])([H])C([H])([H])C4([H])[N+]([H])([H])[H])C([H])([H])[N+]([H])([H])C([H])([H])[H])c([H])c3[H])c([H])c([H])c2C1([H])[H]

>  <smiles>  (74) 
[H]c1c([H])c([H])c2c(c1[H])C([H])([H])C([H])([H])C([H])([H])C2([H])N([H])C(=O)C1([H])N(C(=O)C([H])(N([H])C(=O)C([H])(N([H])C([H])([H])[H])C([H])([H])[H])C(C([H])([H])[H])(C([H])([H])[H])C([H])([H])[H])C([H])([H])c2c([H])c(OC([H])([H])C([H])(C([H])([H])[H])[N+]([H])([H])C([H])([H])c3c([H])c([H])c(C([H])(C4([H])C([H])([H])N(C(=O)N5C([H])([H])C([H])([H])C([H])([H])C([H])(n6nc(-c7c([H])c([H])c(Oc8c([H])c([H])c(F)c([H])c8F)c([H])c7[H])c(C(=O)N([H])[H])c6N([H])[H])C5([H])[H])C([H])([H])C([H])([H])C4([H])[N+]([H])([H])[H])C([H])([H])[N+]([H])([H])C([H])([H])[H])c([H])c3[H])c([H])c([H])c2C1([H])[H]

$$$$
74:0:0
     RDKit          3D

 95103  0  0  1  0  0  0  0  0999 V2000
  -27.6820  -20.6600   20.6830 C   0  0  0  0  0  3  0  0  0  0  0  0
  -29.7010  -21.9200   21.1060 C   0  0  0  0  0  3  0  0  0  0  0  0
  -28.3020  -21.9070   20.9030 C   0  0  0  0  0  0  0  0  0  0  0  0
  -28.4090  -19.4510   20.7080 C   0  0  0  0  0  0  0  0  0  0  0  0
  -30.4570  -20.7230   21.0950 C   0  0  0  0  0  0  0  0  0  0  0  0
  -29.8130  -19.4640   20.9370 C   0  0  0  0  0  0  0  0  0  0  0  0
  -27.6230  -18.1650   20.5070 C   0  0  0  0  0  1  0  0  0  0  0  0
  -31.9590  -20.8260   21.3080 C   0  0  0  0  0  1  0  0  0  0  0  0
  -27.4180  -23.1250   21.0760 C   0  0  0  0  0  0  0  0  0  0  0  0
  -27.7750  -24.3590   20.6790 N   0  0  0  0  0  0  0  0  0  0  0  0
  -26.2980  -22.9700   21.5620 O   0  0  0  0  0  0  0  0  0  0  0  0
  -27.0600  -25.0550   20.8360 H   0  0  0  0  0  0  0  0  0  0  0  0
  -28.9720  -24.8830   20.0310 C   0  0  0  0  0  2  0  0  0  0  0  0
  -29.0900  -26.4070   20.2670 C   0  0  0  0  0  2  0  0  0  0  0  0
  -28.5050  -27.1410   19.1970 O   0  0  0  0  0  0  0  0  0  0  0  0
  -24.6290  -31.7870   23.0260 C   0  0  0  0  0  0  0  0  0  0  0  0
  -27.3130  -27.7760   19.4440 C   0  0  0  0  0  0  0  0  0  0  0  0
  -23.4020  -30.4750   21.3240 C   0  0  0  0  0  3  0  0  0  0  0  0
  -24.8520  -29.1320   19.7110 C   0  0  0  0  0  0  0  0  0  0  0  0
  -25.8940  -30.9730   21.0420 C   0  0  0  0  0  2  0  0  0  0  0  0
  -26.0090  -29.6630   20.2910 C   0  0  0  0  0  0  0  0  0  0  0  0
  -27.2450  -28.9860   20.1670 C   0  0  0  0  0  3  0  0  0  0  0  0
  -26.1420  -27.2510   18.8640 C   0  0  0  0  0  3  0  0  0  0  0  0
  -24.9090  -27.9180   19.0000 C   0  0  0  0  0  3  0  0  0  0  0  0
  -23.5730  -29.9230   19.8830 C   0  0  0  0  0  2  0  0  0  0  0  0
  -24.6610  -31.0910   21.8550 N   0  0  0  0  0  0  0  0  0  0  0  0
  -23.5680  -31.9590   23.6400 O   0  0  0  0  0  0  0  0  0  0  0  0
  -22.8490  -29.3450   22.2200 C   0  0  0  0  0  0  0  0  0  0  0  0
  -21.5310  -29.1000   22.1270 N   0  0  0  0  0  0  0  0  0  0  0  0
  -23.5980  -28.6930   22.9510 O   0  0  0  0  0  0  0  0  0  0  0  0
  -20.9820  -29.6810   21.5090 H   0  0  0  0  0  0  0  0  0  0  0  0
  -18.2510  -27.6770   22.6340 C   0  0  0  0  0  0  0  0  0  0  0  0
  -20.7990  -28.0600   22.8470 C   0  0  0  0  0  3  0  0  0  0  0  0
  -20.9600  -26.6860   22.1580 C   0  0  0  0  0  2  0  0  0  0  0  0
  -19.8440  -26.3800   21.1530 C   0  0  0  0  0  2  0  0  0  0  0  0
  -18.4780  -26.3970   21.8460 C   0  0  0  0  0  2  0  0  0  0  0  0
  -19.3410  -28.4650   23.0900 C   0  0  0  0  0  0  0  0  0  0  0  0
  -19.0750  -29.6650   23.7850 C   0  0  0  0  0  3  0  0  0  0  0  0
  -17.7520  -30.0750   24.0320 C   0  0  0  0  0  3  0  0  0  0  0  0
  -16.6760  -29.2830   23.5940 C   0  0  0  0  0  3  0  0  0  0  0  0
  -16.9280  -28.0850   22.9000 C   0  0  0  0  0  3  0  0  0  0  0  0
  -25.9180  -32.4210   23.6370 C   0  0  0  0  0  3  0  0  0  0  0  0
  -25.5900  -33.7980   24.0300 N   0  0  0  0  0  0  0  0  0  0  0  0
  -25.8910  -34.8870   23.3090 C   0  0  0  0  0  0  0  0  0  0  0  0
  -26.5500  -34.8390   22.2660 O   0  0  0  0  0  0  0  0  0  0  0  0
  -25.0050  -33.9070   24.8450 H   0  0  0  0  0  0  0  0  0  0  0  0
  -24.1250  -36.6580   23.0480 C   0  0  0  0  0  1  0  0  0  0  0  0
  -25.3820  -36.2450   23.8300 C   0  0  0  0  0  3  0  0  0  0  0  0
  -27.5060  -37.1360   24.6790 C   0  0  0  0  0  1  0  0  0  0  0  0
  -26.3930  -37.3220   23.7510 N   0  0  0  0  0  0  0  0  0  0  0  0
  -25.9690  -38.2260   23.9400 H   0  0  0  0  0  0  0  0  0  0  0  0
  -26.4890  -31.6110   24.8650 C   0  0  1  0  0  0  0  0  0  0  0  0
  -25.4360  -31.3090   25.9540 C   0  0  0  0  0  1  0  0  0  0  0  0
  -27.0860  -30.2620   24.3990 C   0  0  0  0  0  1  0  0  0  0  0  0
  -27.6410  -32.4040   25.5270 C   0  0  0  0  0  1  0  0  0  0  0  0
  -30.5760  -18.1400   21.1370 C   0  0  0  0  0  2  0  0  0  0  0  0
  -30.6910  -17.2260   19.8940 C   0  0  0  0  0  2  0  0  0  0  0  0
  -31.2820  -14.7820   19.7610 C   0  0  0  0  0  0  0  0  0  0  0  0
  -30.9780  -12.5030   18.8750 C   0  0  0  0  0  2  0  0  0  0  0  0
  -29.9580  -12.5610   17.7160 C   0  0  0  0  0  2  0  0  0  0  0  0
  -28.5130  -12.4650   18.2440 C   0  0  0  0  0  2  0  0  0  0  0  0
  -28.2390  -13.4330   19.4250 C   0  0  0  0  0  3  0  0  0  0  0  0
  -29.3580  -13.3270   20.4880 C   0  0  0  0  0  2  0  0  0  0  0  0
  -30.6460  -13.5820   19.8170 N   0  0  0  0  0  0  0  0  0  0  0  0
  -32.3480  -14.9620   19.1650 O   0  0  0  0  0  0  0  0  0  0  0  0
  -30.5650  -15.8060   20.2510 N   0  0  0  0  0  0  0  0  0  0  0  0
  -29.7140  -15.5350   20.7200 H   0  0  0  0  0  0  0  0  0  0  0  0
  -25.9430  -14.1290   20.3570 C   0  0  0  0  0  0  0  0  0  0  0  0
  -24.8690  -13.3990   20.7850 C   0  0  0  0  0  0  0  0  0  0  0  0
  -25.2470  -12.0280   20.6510 C   0  0  0  0  0  0  0  0  0  0  0  0
  -26.9160  -13.2080   20.0010 N   0  0  0  0  0  0  0  0  0  0  0  0
  -26.5030  -11.9350   20.2310 N   0  0  0  0  0  0  0  0  0  0  0  0
  -24.4680  -10.7990   20.8400 C   0  0  0  0  0  0  0  0  0  0  0  0
  -24.8550   -9.8150   21.7760 C   0  0  0  0  0  3  0  0  0  0  0  0
  -24.0780   -8.6500   21.9520 C   0  0  0  0  0  3  0  0  0  0  0  0
  -22.9020   -8.4580   21.1900 C   0  0  0  0  0  0  0  0  0  0  0  0
  -22.5330   -9.4300   20.2420 C   0  0  0  0  0  3  0  0  0  0  0  0
  -23.3090  -10.5870   20.0650 C   0  0  0  0  0  3  0  0  0  0  0  0
  -22.1010   -7.3450   21.2750 O   0  0  0  0  0  0  0  0  0  0  0  0
  -21.9140   -6.6820   22.4620 C   0  0  0  0  0  0  0  0  0  0  0  0
  -21.3810   -7.3290   23.5980 C   0  0  0  0  0  3  0  0  0  0  0  0
  -21.1420   -6.5950   24.7770 C   0  0  0  0  0  3  0  0  0  0  0  0
  -21.4240   -5.2160   24.8180 C   0  0  0  0  0  0  0  0  0  0  0  0
  -21.9480   -4.5700   23.6840 C   0  0  0  0  0  3  0  0  0  0  0  0
  -22.1910   -5.3010   22.5100 C   0  0  0  0  0  0  0  0  0  0  0  0
  -22.6780   -4.6710   21.4130 F   0  0  0  0  0  0  0  0  0  0  0  0
  -21.1870   -4.5080   25.9470 F   0  0  0  0  0  0  0  0  0  0  0  0
  -23.5310  -13.9360   21.2030 C   0  0  0  0  0  0  0  0  0  0  0  0
  -22.8510  -13.2460   22.1120 N   0  0  0  0  0  0  0  0  0  0  0  0
  -23.1020  -15.0020   20.7600 O   0  0  0  0  0  0  0  0  0  0  0  0
  -23.2150  -12.3840   22.4890 H   0  0  0  0  0  0  0  0  0  0  0  0
  -21.9590  -13.5900   22.4390 H   0  0  0  0  0  0  0  0  0  0  0  0
  -26.1610  -15.4920   20.2110 N   0  0  0  0  0  0  0  0  0  0  0  0
  -25.4040  -16.1550   20.3270 H   0  0  0  0  0  0  0  0  0  0  0  0
  -26.9600  -15.8730   19.7210 H   0  0  0  0  0  0  0  0  0  0  0  0
  1  4  2  0
  1  3  1  0
  3  9  1  0
  3  2  2  0
  4  6  1  0
  5  2  1  0
  5  8  1  0
  6  5  2  0
  6 56  1  0
  7  4  1  0
  9 11  2  0
 10 12  1  0
 10  9  1  0
 13 14  1  0
 13 10  1  0
 15 17  1  0
 15 14  1  0
 16 27  2  0
 17 22  1  0
 18 26  1  0
 18 28  1  0
 19 25  1  0
 19 21  1  0
 20 26  1  0
 21 20  1  0
 22 21  2  0
 23 24  1  0
 23 17  2  0
 24 19  2  0
 25 18  1  0
 26 16  1  0
 28 30  2  0
 29 28  1  0
 31 29  1  0
 32 41  2  0
 32 37  1  0
 33 29  1  0
 33 37  1  0
 34 33  1  0
 35 36  1  0
 35 34  1  0
 36 32  1  0
 37 38  2  0
 38 39  1  0
 40 39  2  0
 41 40  1  0
 42 16  1  0
 42 43  1  0
 42 52  1  0
 43 46  1  0
 44 48  1  0
 44 43  1  0
 45 44  2  0
 48 47  1  0
 50 48  1  0
 50 51  1  0
 50 49  1  0
 52 55  1  1
 52 53  1  0
 54 52  1  0
 57 66  1  0
 57 56  1  0
 58 64  1  0
 58 66  1  0
 59 64  1  0
 60 61  1  0
 60 59  1  0
 62 61  1  0
 62 71  1  0
 62 63  1  0
 64 63  1  0
 65 58  2  0
 66 67  1  0
 68 69  2  0
 69 88  1  0
 70 69  1  0
 70 73  1  0
 71 72  1  0
 71 68  1  0
 72 70  2  0
 73 74  1  0
 74 75  2  0
 76 79  1  0
 76 75  1  0
 77 76  2  0
 78 77  1  0
 78 73  2  0
 79 80  1  0
 80 85  2  0
 80 81  1  0
 81 82  2  0
 82 83  1  0
 83 87  1  0
 84 83  2  0
 85 84  1  0
 86 85  1  0
 88 89  1  0
 89 92  1  0
 89 91  1  0
 90 88  2  0
 93 94  1  0
 93 68  1  0
 95 93  1  0
M  ISO  4  14 101  15 101  58 100  66 100
M  END
>  <TORSDO>  (75) 
F 21

>  <SCORE>  (75) 
-11.915

>  <name>  (75) 
74

>  <ligand_id>  (75) 
74

>  <original_smiles>  (75) 
[H]c1c([H])c([H])c2c(c1[H])C([H])([H])C([H])([H])C([H])([H])C2([H])N([H])C(=O)C1([H])N(C(=O)C([H])(N([H])C(=O)C([H])(N([H])C([H])([H])[H])C([H])([H])[H])C(C([H])([H])[H])(C([H])([H])[H])C([H])([H])[H])C([H])([H])c2c([H])c(OC([H])([H])C([H])([H])N([H])C(=O)c3c([H])c(C([H])([H])[H])c(C([H])([H])C([H])([H])N([H])C(=O)N4C([H])([H])C([H])([H])C([H])([H])C([H])(n5nc(-c6c([H])c([H])c(Oc7c([H])c([H])c(F)c([H])c7F)c([H])c6[H])c(C(=O)N([H])[H])c5N([H])[H])C4([H])[H])c(C([H])([H])[H])c3[H])c([H])c([H])c2C1([H])[H]

>  <smiles>  (75) 
[H]c1c([H])c([H])c2c(c1[H])C([H])([H])C([H])([H])C([H])([H])C2([H])N([H])C(=O)C1([H])N(C(=O)C([H])(N([H])C(=O)C([H])(N([H])C([H])([H])[H])C([H])([H])[H])C(C([H])([H])[H])(C([H])([H])[H])C([H])([H])[H])C([H])([H])c2c([H])c(OC([H])([H])C([H])([H])N([H])C(=O)c3c([H])c(C([H])([H])[H])c(C([H])([H])C([H])([H])N([H])C(=O)N4C([H])([H])C([H])([H])C([H])([H])C([H])(n5nc(-c6c([H])c([H])c(Oc7c([H])c([H])c(F)c([H])c7F)c([H])c6[H])c(C(=O)N([H])[H])c5N([H])[H])C4([H])[H])c(C([H])([H])[H])c3[H])c([H])c([H])c2C1([H])[H]

$$$$
75:0:0
     RDKit          3D

101110  0  0  1  0  0  0  0  0999 V2000
  -30.3110  -22.5380   20.4480 C   0  0  0  0  0  0  0  0  0  0  0  0
  -29.9340  -23.5610   19.6540 N   0  0  0  0  0  0  0  0  0  0  0  0
  -31.4400  -22.5580   20.9360 O   0  0  0  0  0  0  0  0  0  0  0  0
  -30.6680  -24.2420   19.5220 H   0  0  0  0  0  0  0  0  0  0  0  0
  -29.7600  -20.4820   21.9920 C   0  0  0  0  0  2  0  0  0  0  0  0
  -28.4430  -19.2050   19.4560 C   0  0  0  0  0  2  0  0  0  0  0  0
  -29.3660  -21.3510   20.7720 C   0  0  0  0  0  3  0  0  0  0  0  0
  -30.2550  -19.3570   21.0610 C   0  0  0  0  0  3  0  0  0  0  0  0
  -29.5940  -20.0930   19.9000 C   0  0  0  0  0  3  0  0  0  0  0  0
  -29.6560  -17.9380   21.1110 C   0  0  0  0  0  3  0  0  0  0  0  0
  -28.8270  -17.8420   19.8860 N   0  0  0  0  0  4  0  0  0  0  0  0
  -29.3730  -17.4170   19.1540 H   0  0  0  0  0  0  0  0  0  0  0  0
  -28.0070  -17.2810   20.0410 H   0  0  0  0  0  0  0  0  0  0  0  0
  -30.7010  -16.7960   21.2310 C   0  0  0  0  0  2  0  0  0  0  0  0
  -30.7680  -14.4580   20.3290 C   0  0  0  0  0  0  0  0  0  0  0  0
  -30.4150  -12.3280   19.1370 C   0  0  0  0  0  2  0  0  0  0  0  0
  -29.4580  -12.5530   17.9500 C   0  0  0  0  0  2  0  0  0  0  0  0
  -27.9910  -12.4190   18.4000 C   0  0  0  0  0  2  0  0  0  0  0  0
  -27.6770  -13.2460   19.6740 C   0  0  0  0  0  3  0  0  0  0  0  0
  -28.7460  -13.0100   20.7640 C   0  0  0  0  0  2  0  0  0  0  0  0
  -30.0660  -13.3030   20.1820 N   0  0  0  0  0  0  0  0  0  0  0  0
  -31.8550  -14.6540   19.7830 O   0  0  0  0  0  0  0  0  0  0  0  0
  -30.1530  -15.4400   21.0130 N   0  0  0  0  0  0  0  0  0  0  0  0
  -29.2800  -15.2000   21.4600 H   0  0  0  0  0  0  0  0  0  0  0  0
  -25.2890  -13.8620   20.4190 C   0  0  0  0  0  0  0  0  0  0  0  0
  -24.2270  -13.0950   20.8130 C   0  0  0  0  0  0  0  0  0  0  0  0
  -24.6810  -11.7420   20.7700 C   0  0  0  0  0  0  0  0  0  0  0  0
  -26.3270  -12.9770   20.1690 N   0  0  0  0  0  0  0  0  0  0  0  0
  -25.9660  -11.6970   20.4380 N   0  0  0  0  0  0  0  0  0  0  0  0
  -23.9530  -10.4820   20.9700 C   0  0  0  0  0  0  0  0  0  0  0  0
  -24.3860   -9.5210   21.9090 C   0  0  0  0  0  3  0  0  0  0  0  0
  -23.6590   -8.3250   22.0950 C   0  0  0  0  0  3  0  0  0  0  0  0
  -22.4870   -8.0820   21.3420 C   0  0  0  0  0  0  0  0  0  0  0  0
  -22.0740   -9.0320   20.3920 C   0  0  0  0  0  3  0  0  0  0  0  0
  -22.8010  -10.2190   20.2040 C   0  0  0  0  0  3  0  0  0  0  0  0
  -21.7310   -6.9380   21.4380 O   0  0  0  0  0  0  0  0  0  0  0  0
  -21.6700   -6.2110   22.5990 C   0  0  0  0  0  0  0  0  0  0  0  0
  -21.2190   -6.7790   23.8110 C   0  0  0  0  0  3  0  0  0  0  0  0
  -21.1060   -5.9770   24.9650 C   0  0  0  0  0  3  0  0  0  0  0  0
  -21.4350   -4.6090   24.9080 C   0  0  0  0  0  0  0  0  0  0  0  0
  -21.8790   -4.0410   23.7010 C   0  0  0  0  0  3  0  0  0  0  0  0
  -21.9930   -4.8400   22.5500 C   0  0  0  0  0  0  0  0  0  0  0  0
  -22.4030   -4.2830   21.3840 F   0  0  0  0  0  0  0  0  0  0  0  0
  -21.3190   -3.8380   26.0140 F   0  0  0  0  0  0  0  0  0  0  0  0
  -22.8350  -13.5780   21.1030 C   0  0  0  0  0  0  0  0  0  0  0  0
  -22.1150  -12.8820   21.9750 N   0  0  0  0  0  0  0  0  0  0  0  0
  -22.3990  -14.6100   20.5930 O   0  0  0  0  0  0  0  0  0  0  0  0
  -22.4830  -12.0480   22.4090 H   0  0  0  0  0  0  0  0  0  0  0  0
  -21.1810  -13.1840   22.2120 H   0  0  0  0  0  0  0  0  0  0  0  0
  -25.4500  -15.2300   20.2250 N   0  0  0  0  0  0  0  0  0  0  0  0
  -24.6120  -15.8010   20.2220 H   0  0  0  0  0  0  0  0  0  0  0  0
  -26.1370  -15.5530   19.5590 H   0  0  0  0  0  0  0  0  0  0  0  0
  -28.3990  -22.7060   17.9080 C   0  0  0  0  0  1  0  0  0  0  0  0
  -28.6870  -23.8400   18.9210 C   0  0  0  0  0  3  0  0  0  0  0  0
  -28.7820  -25.2190   18.1690 C   0  0  0  0  0  3  0  0  0  0  0  0
  -27.6170  -25.4560   17.2890 N   0  0  0  0  0  4  0  0  0  0  0  0
  -26.7970  -25.6990   17.8200 H   0  0  0  0  0  0  0  0  0  0  0  0
  -27.4090  -24.6330   16.7510 H   0  0  0  0  0  0  0  0  0  0  0  0
  -27.7980  -26.2060   16.6420 H   0  0  0  0  0  0  0  0  0  0  0  0
  -29.0910  -26.4900   19.0180 C   0  0  0  0  0  2  0  0  0  0  0  0
  -28.3020  -26.6740   20.1930 O   0  0  0  0  0  0  0  0  0  0  0  0
  -24.5620  -31.8800   23.2400 C   0  0  0  0  0  0  0  0  0  0  0  0
  -27.1680  -27.4510   20.1210 C   0  0  0  0  0  0  0  0  0  0  0  0
  -23.3390  -30.4910   21.6010 C   0  0  0  0  0  3  0  0  0  0  0  0
  -24.7770  -28.9610   20.1540 C   0  0  0  0  0  0  0  0  0  0  0  0
  -25.8640  -30.8500   21.3820 C   0  0  0  0  0  2  0  0  0  0  0  0
  -25.9430  -29.4850   20.7270 C   0  0  0  0  0  0  0  0  0  0  0  0
  -27.1420  -28.7370   20.7060 C   0  0  0  0  0  3  0  0  0  0  0  0
  -25.9720  -26.9210   19.5910 C   0  0  0  0  0  3  0  0  0  0  0  0
  -24.7860  -27.6780   19.5840 C   0  0  0  0  0  3  0  0  0  0  0  0
  -23.5320  -29.8180   20.2170 C   0  0  0  0  0  2  0  0  0  0  0  0
  -24.6070  -31.0870   22.1320 N   0  0  0  0  0  0  0  0  0  0  0  0
  -23.4860  -32.1530   23.7910 O   0  0  0  0  0  0  0  0  0  0  0  0
  -22.6930  -29.4670   22.5620 C   0  0  0  0  0  0  0  0  0  0  0  0
  -21.3700  -29.2810   22.4330 N   0  0  0  0  0  0  0  0  0  0  0  0
  -23.3780  -28.8440   23.3760 O   0  0  0  0  0  0  0  0  0  0  0  0
  -20.8750  -29.8330   21.7460 H   0  0  0  0  0  0  0  0  0  0  0  0
  -17.9990  -28.0710   22.9190 C   0  0  0  0  0  0  0  0  0  0  0  0
  -20.5550  -28.3390   23.2030 C   0  0  0  0  0  3  0  0  0  0  0  0
  -20.6650  -26.9070   22.6310 C   0  0  0  0  0  2  0  0  0  0  0  0
  -19.5680  -26.5790   21.6100 C   0  0  0  0  0  2  0  0  0  0  0  0
  -18.1830  -26.7210   22.2470 C   0  0  0  0  0  2  0  0  0  0  0  0
  -19.1120  -28.8370   23.3520 C   0  0  0  0  0  0  0  0  0  0  0  0
  -18.8860  -30.1020   23.9380 C   0  0  0  0  0  3  0  0  0  0  0  0
  -17.5800  -30.6020   24.0920 C   0  0  0  0  0  3  0  0  0  0  0  0
  -16.4800  -29.8320   23.6760 C   0  0  0  0  0  3  0  0  0  0  0  0
  -16.6900  -28.5690   23.0960 C   0  0  0  0  0  3  0  0  0  0  0  0
  -25.8540  -32.5040   23.8540 C   0  0  0  0  0  3  0  0  0  0  0  0
  -25.5580  -33.9040   24.1790 N   0  0  0  0  0  0  0  0  0  0  0  0
  -25.9070  -34.9510   23.4200 C   0  0  0  0  0  0  0  0  0  0  0  0
  -26.5860  -34.8400   22.3950 O   0  0  0  0  0  0  0  0  0  0  0  0
  -24.9570  -34.0650   24.9730 H   0  0  0  0  0  0  0  0  0  0  0  0
  -24.2070  -36.7620   23.0340 C   0  0  0  0  0  1  0  0  0  0  0  0
  -25.4270  -36.3440   23.8700 C   0  0  0  0  0  3  0  0  0  0  0  0
  -27.5550  -37.2020   24.7440 C   0  0  0  0  0  1  0  0  0  0  0  0
  -26.4750  -37.3850   23.7780 N   0  0  0  0  0  0  0  0  0  0  0  0
  -26.0770  -38.3090   23.9190 H   0  0  0  0  0  0  0  0  0  0  0  0
  -26.3710  -31.7310   25.1280 C   0  0  1  0  0  0  0  0  0  0  0  0
  -25.2810  -31.5000   26.2010 C   0  0  0  0  0  1  0  0  0  0  0  0
  -26.9430  -30.3500   24.7320 C   0  0  0  0  0  1  0  0  0  0  0  0
  -27.5280  -32.5180   25.7860 C   0  0  0  0  0  1  0  0  0  0  0  0
  1  3  2  0
  2  1  1  0
  4  2  1  0
  6 11  1  0
  7  1  1  0
  7  5  1  0
  8 10  1  0
  8  5  1  0
  9  6  1  0
  9  7  1  0
  9  8  1  0
 10 14  1  0
 11 13  1  0
 11 10  1  0
 12 11  1  0
 15 23  1  0
 16 21  1  0
 17 18  1  0
 17 16  1  0
 19 18  1  0
 19 28  1  0
 19 20  1  0
 21 15  1  0
 21 20  1  0
 22 15  2  0
 23 14  1  0
 23 24  1  0
 25 26  2  0
 26 45  1  0
 27 26  1  0
 27 30  1  0
 28 25  1  0
 28 29  1  0
 29 27  2  0
 30 31  1  0
 31 32  2  0
 33 36  1  0
 33 32  1  0
 34 33  2  0
 35 34  1  0
 35 30  2  0
 36 37  1  0
 37 38  1  0
 38 39  2  0
 40 39  1  0
 40 44  1  0
 41 40  2  0
 42 37  2  0
 42 41  1  0
 43 42  1  0
 45 46  1  0
 46 49  1  0
 46 48  1  0
 47 45  2  0
 50 25  1  0
 51 50  1  0
 52 50  1  0
 54 53  1  0
 54  2  1  0
 55 54  1  0
 55 60  1  0
 56 57  1  0
 56 55  1  0
 58 56  1  0
 59 56  1  0
 60 61  1  0
 62 73  2  0
 63 61  1  0
 63 68  1  0
 64 72  1  0
 64 74  1  0
 65 71  1  0
 65 67  1  0
 66 72  1  0
 67 66  1  0
 68 67  2  0
 69 63  2  0
 70 69  1  0
 70 65  2  0
 71 64  1  0
 72 62  1  0
 74 76  2  0
 75 74  1  0
 77 75  1  0
 78 87  2  0
 78 83  1  0
 79 75  1  0
 79 83  1  0
 80 79  1  0
 81 82  1  0
 81 80  1  0
 82 78  1  0
 83 84  2  0
 84 85  1  0
 86 85  2  0
 87 86  1  0
 88 62  1  0
 88 89  1  0
 88 98  1  0
 89 92  1  0
 90 94  1  0
 90 89  1  0
 91 90  2  0
 94 93  1  0
 96 94  1  0
 96 97  1  0
 96 95  1  0
 98101  1  1
 98 99  1  0
100 98  1  0
M  ISO  4  15 100  23 100  60 101  61 101
M  END
>  <TORSDO>  (76) 
F 22

>  <SCORE>  (76) 
-13.335

>  <name>  (76) 
75

>  <ligand_id>  (76) 
75

>  <original_smiles>  (76) 
[H]c1c([H])c([H])c2c(c1[H])C([H])([H])C([H])([H])C([H])([H])C2([H])N([H])C(=O)C1([H])N(C(=O)C([H])(N([H])C(=O)C([H])(N([H])C([H])([H])[H])C([H])([H])[H])C(C([H])([H])[H])(C([H])([H])[H])C([H])([H])[H])C([H])([H])c2c([H])c(OC([H])([H])C([H])(C([H])(N([H])C(=O)C3([H])C([H])([H])C4([H])C3([H])C([H])([H])[N+]([H])([H])C4([H])C([H])([H])N([H])C(=O)N3C([H])([H])C([H])([H])C([H])([H])C([H])(n4nc(-c5c([H])c([H])c(Oc6c([H])c([H])c(F)c([H])c6F)c([H])c5[H])c(C(=O)N([H])[H])c4N([H])[H])C3([H])[H])C([H])([H])[H])[N+]([H])([H])[H])c([H])c([H])c2C1([H])[H]

>  <smiles>  (76) 
[H]c1c([H])c([H])c2c(c1[H])C([H])([H])C([H])([H])C([H])([H])C2([H])N([H])C(=O)C1([H])N(C(=O)C([H])(N([H])C(=O)C([H])(N([H])C([H])([H])[H])C([H])([H])[H])C(C([H])([H])[H])(C([H])([H])[H])C([H])([H])[H])C([H])([H])c2c([H])c(OC([H])([H])C([H])(C([H])(N([H])C(=O)C3([H])C([H])([H])C4([H])C3([H])C([H])([H])[N+]([H])([H])C4([H])C([H])([H])N([H])C(=O)N3C([H])([H])C([H])([H])C([H])([H])C([H])(n4nc(-c5c([H])c([H])c(Oc6c([H])c([H])c(F)c([H])c6F)c([H])c5[H])c(C(=O)N([H])[H])c4N([H])[H])C3([H])[H])C([H])([H])[H])[N+]([H])([H])[H])c([H])c([H])c2C1([H])[H]

$$$$
76:0:0
     RDKit          3D

 95103  0  0  1  0  0  0  0  0999 V2000
  -29.1080  -24.0830   21.9080 C   0  0  0  0  0  3  0  0  0  0  0  0
  -29.5540  -23.0040   22.6950 C   0  0  0  0  0  3  0  0  0  0  0  0
  -29.1080  -22.5860   20.0030 C   0  0  0  0  0  3  0  0  0  0  0  0
  -29.5830  -21.4430   20.7720 C   0  0  0  0  0  0  0  0  0  0  0  0
  -28.8590  -23.9090   20.5380 C   0  0  0  0  0  0  0  0  0  0  0  0
  -29.7740  -21.7040   22.1690 C   0  0  0  0  0  0  0  0  0  0  0  0
  -30.1750  -20.6480   23.1910 C   0  0  0  0  0  1  0  0  0  0  0  0
  -29.8100  -20.0550   20.0600 C   0  0  0  0  0  0  0  0  0  0  0  0
  -29.5680  -20.0060   18.8500 O   0  0  0  0  0  0  0  0  0  0  0  0
  -30.3860  -18.6840   20.7300 C   0  0  0  0  0  3  0  0  0  0  0  0
  -31.8390  -18.8640   20.8920 N   0  0  0  0  0  4  0  0  0  0  0  0
  -32.2650  -19.0010   19.9920 H   0  0  0  0  0  0  0  0  0  0  0  0
  -32.2450  -18.0500   21.3160 H   0  0  0  0  0  0  0  0  0  0  0  0
  -32.0500  -19.6650   21.4580 H   0  0  0  0  0  0  0  0  0  0  0  0
  -30.1390  -17.3180   19.9070 C   0  0  0  0  0  2  0  0  0  0  0  0
  -30.9330  -14.8510   20.2720 C   0  0  0  0  0  0  0  0  0  0  0  0
  -30.7120  -12.5850   19.2710 C   0  0  0  0  0  2  0  0  0  0  0  0
  -29.7850  -12.6960   18.0390 C   0  0  0  0  0  2  0  0  0  0  0  0
  -28.3060  -12.5530   18.4500 C   0  0  0  0  0  2  0  0  0  0  0  0
  -27.9410  -13.4340   19.6760 C   0  0  0  0  0  3  0  0  0  0  0  0
  -28.9890  -13.3070   20.8070 C   0  0  0  0  0  2  0  0  0  0  0  0
  -30.3070  -13.6280   20.2380 N   0  0  0  0  0  0  0  0  0  0  0  0
  -32.0800  -14.9920   19.8430 O   0  0  0  0  0  0  0  0  0  0  0  0
  -30.1620  -15.9480   20.5780 N   0  0  0  0  0  0  0  0  0  0  0  0
  -29.2910  -15.6970   21.0240 H   0  0  0  0  0  0  0  0  0  0  0  0
  -25.5480  -14.0580   20.3690 C   0  0  0  0  0  0  0  0  0  0  0  0
  -24.4710  -13.2990   20.7430 C   0  0  0  0  0  0  0  0  0  0  0  0
  -24.9200  -11.9430   20.7290 C   0  0  0  0  0  0  0  0  0  0  0  0
  -26.5860  -13.1660   20.1530 N   0  0  0  0  0  0  0  0  0  0  0  0
  -26.2140  -11.8890   20.4300 N   0  0  0  0  0  0  0  0  0  0  0  0
  -24.1800  -10.6900   20.9280 C   0  0  0  0  0  0  0  0  0  0  0  0
  -24.5860   -9.7370   21.8880 C   0  0  0  0  0  3  0  0  0  0  0  0
  -23.8490   -8.5480   22.0770 C   0  0  0  0  0  3  0  0  0  0  0  0
  -22.6890   -8.3030   21.3030 C   0  0  0  0  0  0  0  0  0  0  0  0
  -22.3010   -9.2440   20.3330 C   0  0  0  0  0  3  0  0  0  0  0  0
  -23.0400  -10.4250   20.1440 C   0  0  0  0  0  3  0  0  0  0  0  0
  -21.9260   -7.1650   21.3970 O   0  0  0  0  0  0  0  0  0  0  0  0
  -21.8300   -6.4570   22.5680 C   0  0  0  0  0  0  0  0  0  0  0  0
  -21.3520   -7.0470   23.7580 C   0  0  0  0  0  3  0  0  0  0  0  0
  -21.2040   -6.2640   24.9220 C   0  0  0  0  0  3  0  0  0  0  0  0
  -21.5240   -4.8940   24.8940 C   0  0  0  0  0  0  0  0  0  0  0  0
  -21.9940   -4.3030   23.7090 C   0  0  0  0  0  3  0  0  0  0  0  0
  -22.1440   -5.0820   22.5480 C   0  0  0  0  0  0  0  0  0  0  0  0
  -22.5770   -4.5040   21.4020 F   0  0  0  0  0  0  0  0  0  0  0  0
  -21.3760   -4.1410   26.0090 F   0  0  0  0  0  0  0  0  0  0  0  0
  -23.0760  -13.7920   20.9980 C   0  0  0  0  0  0  0  0  0  0  0  0
  -22.3380  -13.1180   21.8730 N   0  0  0  0  0  0  0  0  0  0  0  0
  -22.6490  -14.8090   20.4560 O   0  0  0  0  0  0  0  0  0  0  0  0
  -22.6950  -12.2960   22.3370 H   0  0  0  0  0  0  0  0  0  0  0  0
  -21.4000  -13.4300   22.0830 H   0  0  0  0  0  0  0  0  0  0  0  0
  -25.7250  -15.4250   20.1740 N   0  0  0  0  0  0  0  0  0  0  0  0
  -24.9590  -16.0850   20.2550 H   0  0  0  0  0  0  0  0  0  0  0  0
  -26.5720  -15.8460   19.8140 H   0  0  0  0  0  0  0  0  0  0  0  0
  -28.2760  -25.1090   19.6860 C   0  0  0  0  0  2  0  0  0  0  0  0
  -28.2450  -26.5060   20.2300 O   0  0  0  0  0  0  0  0  0  0  0  0
  -24.5640  -31.9470   23.2570 C   0  0  0  0  0  0  0  0  0  0  0  0
  -27.1150  -27.3530   20.1590 C   0  0  0  0  0  0  0  0  0  0  0  0
  -23.3310  -30.5500   21.6400 C   0  0  0  0  0  3  0  0  0  0  0  0
  -24.7520  -28.9970   20.1890 C   0  0  0  0  0  0  0  0  0  0  0  0
  -25.8700  -30.8540   21.4170 C   0  0  0  0  0  2  0  0  0  0  0  0
  -25.9320  -29.4720   20.7710 C   0  0  0  0  0  0  0  0  0  0  0  0
  -27.1100  -28.6600   20.7520 C   0  0  0  0  0  3  0  0  0  0  0  0
  -25.9040  -26.9470   19.5440 C   0  0  0  0  0  3  0  0  0  0  0  0
  -24.7430  -27.7410   19.5670 C   0  0  0  0  0  3  0  0  0  0  0  0
  -23.5210  -29.8760   20.2580 C   0  0  0  0  0  2  0  0  0  0  0  0
  -24.6080  -31.1360   22.1600 N   0  0  0  0  0  0  0  0  0  0  0  0
  -23.4890  -32.2290   23.8080 O   0  0  0  0  0  0  0  0  0  0  0  0
  -22.6830  -29.5350   22.6140 C   0  0  0  0  0  0  0  0  0  0  0  0
  -21.3600  -29.3320   22.4860 N   0  0  0  0  0  0  0  0  0  0  0  0
  -23.3690  -28.9330   23.4440 O   0  0  0  0  0  0  0  0  0  0  0  0
  -20.8640  -29.8720   21.7900 H   0  0  0  0  0  0  0  0  0  0  0  0
  -18.0100  -28.0460   22.9610 C   0  0  0  0  0  0  0  0  0  0  0  0
  -20.5540  -28.3910   23.2680 C   0  0  0  0  0  3  0  0  0  0  0  0
  -20.7100  -26.9480   22.7360 C   0  0  0  0  0  2  0  0  0  0  0  0
  -19.6370  -26.5630   21.7110 C   0  0  0  0  0  2  0  0  0  0  0  0
  -18.2400  -26.6840   22.3260 C   0  0  0  0  0  2  0  0  0  0  0  0
  -19.0970  -28.8530   23.3880 C   0  0  0  0  0  0  0  0  0  0  0  0
  -18.8290  -30.1250   23.9410 C   0  0  0  0  0  3  0  0  0  0  0  0
  -17.5070  -30.5900   24.0700 C   0  0  0  0  0  3  0  0  0  0  0  0
  -16.4340  -29.7800   23.6590 C   0  0  0  0  0  3  0  0  0  0  0  0
  -16.6860  -28.5090   23.1100 C   0  0  0  0  0  3  0  0  0  0  0  0
  -25.8570  -32.5800   23.8570 C   0  0  0  0  0  3  0  0  0  0  0  0
  -25.5590  -33.9830   24.1810 N   0  0  0  0  0  0  0  0  0  0  0  0
  -25.8980  -35.0300   23.4170 C   0  0  0  0  0  0  0  0  0  0  0  0
  -26.5640  -34.9170   22.3850 O   0  0  0  0  0  0  0  0  0  0  0  0
  -24.9700  -34.1460   24.9840 H   0  0  0  0  0  0  0  0  0  0  0  0
  -24.1920  -36.8410   23.0480 C   0  0  0  0  0  1  0  0  0  0  0  0
  -25.4230  -36.4250   23.8700 C   0  0  0  0  0  3  0  0  0  0  0  0
  -27.5590  -37.2860   24.7170 C   0  0  0  0  0  1  0  0  0  0  0  0
  -26.4670  -37.4660   23.7630 N   0  0  0  0  0  0  0  0  0  0  0  0
  -26.0710  -38.3920   23.9040 H   0  0  0  0  0  0  0  0  0  0  0  0
  -26.3860  -31.8180   25.1340 C   0  0  1  0  0  0  0  0  0  0  0  0
  -25.3040  -31.5950   26.2170 C   0  0  0  0  0  1  0  0  0  0  0  0
  -26.9600  -30.4350   24.7490 C   0  0  0  0  0  1  0  0  0  0  0  0
  -27.5500  -32.6120   25.7730 C   0  0  0  0  0  1  0  0  0  0  0  0
  1  2  1  0
  3  5  1  0
  3  4  2  0
  4  6  1  0
  5  1  2  0
  6  2  2  0
  6  7  1  0
  8 10  1  0
  8  4  1  0
  9  8  2  0
 10 15  1  0
 10 11  1  0
 11 13  1  0
 11 14  1  0
 12 11  1  0
 15 24  1  0
 16 24  1  0
 17 22  1  0
 18 19  1  0
 18 17  1  0
 20 19  1  0
 20 29  1  0
 20 21  1  0
 22 16  1  0
 22 21  1  0
 23 16  2  0
 24 25  1  0
 26 27  2  0
 27 46  1  0
 28 27  1  0
 28 31  1  0
 29 26  1  0
 29 30  1  0
 30 28  2  0
 31 32  1  0
 32 33  2  0
 34 37  1  0
 34 33  1  0
 35 34  2  0
 36 35  1  0
 36 31  2  0
 37 38  1  0
 38 39  1  0
 39 40  2  0
 41 40  1  0
 41 45  1  0
 42 41  2  0
 43 38  2  0
 43 42  1  0
 44 43  1  0
 46 47  1  0
 47 50  1  0
 47 49  1  0
 48 46  2  0
 51 52  1  0
 51 26  1  0
 53 51  1  0
 54 55  1  0
 54  5  1  0
 56 67  2  0
 57 55  1  0
 57 62  1  0
 58 66  1  0
 58 68  1  0
 59 65  1  0
 59 61  1  0
 60 66  1  0
 61 60  1  0
 62 61  2  0
 63 64  1  0
 63 57  2  0
 64 59  2  0
 65 58  1  0
 66 56  1  0
 68 70  2  0
 69 68  1  0
 71 69  1  0
 72 81  2  0
 72 77  1  0
 73 69  1  0
 73 77  1  0
 74 73  1  0
 75 76  1  0
 75 74  1  0
 76 72  1  0
 77 78  2  0
 78 79  1  0
 80 79  2  0
 81 80  1  0
 82 56  1  0
 82 83  1  0
 82 92  1  0
 83 86  1  0
 84 88  1  0
 84 83  1  0
 85 84  2  0
 88 87  1  0
 90 88  1  0
 90 91  1  0
 90 89  1  0
 92 95  1  1
 92 93  1  0
 94 92  1  0
M  ISO  4  16 100  24 100  54 101  55 101
M  END
>  <TORSDO>  (77) 
F 21

>  <SCORE>  (77) 
-13.457

>  <name>  (77) 
76

>  <ligand_id>  (77) 
76

>  <original_smiles>  (77) 
[H]c1c([H])c([H])c2c(c1[H])C([H])([H])C([H])([H])C([H])([H])C2([H])N([H])C(=O)C1([H])N(C(=O)C([H])(N([H])C(=O)C([H])(N([H])C([H])([H])[H])C([H])([H])[H])C(C([H])([H])[H])(C([H])([H])[H])C([H])([H])[H])C([H])([H])c2c([H])c(OC([H])([H])c3c([H])c([H])c(C([H])([H])[H])c(C(=O)C([H])(C([H])([H])N([H])C(=O)N4C([H])([H])C([H])([H])C([H])([H])C([H])(n5nc(-c6c([H])c([H])c(Oc7c([H])c([H])c(F)c([H])c7F)c([H])c6[H])c(C(=O)N([H])[H])c5N([H])[H])C4([H])[H])[N+]([H])([H])[H])c3[H])c([H])c([H])c2C1([H])[H]

>  <smiles>  (77) 
[H]c1c([H])c([H])c2c(c1[H])C([H])([H])C([H])([H])C([H])([H])C2([H])N([H])C(=O)C1([H])N(C(=O)C([H])(N([H])C(=O)C([H])(N([H])C([H])([H])[H])C([H])([H])[H])C(C([H])([H])[H])(C([H])([H])[H])C([H])([H])[H])C([H])([H])c2c([H])c(OC([H])([H])c3c([H])c([H])c(C([H])([H])[H])c(C(=O)C([H])(C([H])([H])N([H])C(=O)N4C([H])([H])C([H])([H])C([H])([H])C([H])(n5nc(-c6c([H])c([H])c(Oc7c([H])c([H])c(F)c([H])c7F)c([H])c6[H])c(C(=O)N([H])[H])c5N([H])[H])C4([H])[H])[N+]([H])([H])[H])c3[H])c([H])c([H])c2C1([H])[H]

$$$$
77:0:0
     RDKit          3D

102111  0  0  1  0  0  0  0  0999 V2000
  -31.8630  -17.4040   21.0080 C   0  0  0  0  0  2  0  0  0  0  0  0
  -29.6170  -17.6440   21.9690 C   0  0  0  0  0  2  0  0  0  0  0  0
  -30.3010  -20.2130   21.8450 C   0  0  0  0  0  2  0  0  0  0  0  0
  -31.7920  -18.7690   21.6910 C   0  0  0  0  0  3  0  0  0  0  0  0
  -30.3870  -16.8960   20.8390 C   0  0  2  0  0  0  0  0  0  0  0  0
  -30.4860  -18.8200   22.4660 C   0  0  2  0  0  0  0  0  0  0  0  0
  -30.5620  -18.7570   23.9940 C   0  0  0  0  0  1  0  0  0  0  0  0
  -31.2920  -19.8680   20.8330 N   0  0  2  0  0  4  0  0  0  0  0  0
  -30.8150  -19.4410   20.0370 H   0  0  0  0  0  0  0  0  0  0  0  0
  -30.6960  -14.4720   20.1680 C   0  0  0  0  0  0  0  0  0  0  0  0
  -30.3710  -12.2270   19.2130 C   0  0  0  0  0  2  0  0  0  0  0  0
  -29.4210  -12.3020   18.0010 C   0  0  0  0  0  2  0  0  0  0  0  0
  -27.9570  -12.1730   18.4570 C   0  0  0  0  0  2  0  0  0  0  0  0
  -27.6100  -13.1330   19.6240 C   0  0  0  0  0  3  0  0  0  0  0  0
  -28.6770  -13.0610   20.7460 C   0  0  0  0  0  2  0  0  0  0  0  0
  -30.0080  -13.2980   20.1540 N   0  0  0  0  0  0  0  0  0  0  0  0
  -31.6960  -14.6740   19.4790 O   0  0  0  0  0  0  0  0  0  0  0  0
  -30.1940  -15.4330   20.9610 N   0  0  0  0  0  0  0  0  0  0  0  0
  -29.4440  -15.1310   21.5650 H   0  0  0  0  0  0  0  0  0  0  0  0
  -25.2310  -13.7870   20.3750 C   0  0  0  0  0  0  0  0  0  0  0  0
  -24.1610  -13.0360   20.7800 C   0  0  0  0  0  0  0  0  0  0  0  0
  -24.5980  -11.6770   20.7450 C   0  0  0  0  0  0  0  0  0  0  0  0
  -26.2600  -12.8890   20.1310 N   0  0  0  0  0  0  0  0  0  0  0  0
  -25.8800  -11.6140   20.4060 N   0  0  0  0  0  0  0  0  0  0  0  0
  -23.8530  -10.4290   20.9570 C   0  0  0  0  0  0  0  0  0  0  0  0
  -24.2890   -9.4590   21.8850 C   0  0  0  0  0  3  0  0  0  0  0  0
  -23.5460   -8.2750   22.0870 C   0  0  0  0  0  3  0  0  0  0  0  0
  -22.3530   -8.0540   21.3600 C   0  0  0  0  0  0  0  0  0  0  0  0
  -21.9340   -9.0130   20.4200 C   0  0  0  0  0  3  0  0  0  0  0  0
  -22.6780  -10.1870   20.2150 C   0  0  0  0  0  3  0  0  0  0  0  0
  -21.5800   -6.9230   21.4710 O   0  0  0  0  0  0  0  0  0  0  0  0
  -21.5520   -6.1810   22.6250 C   0  0  0  0  0  0  0  0  0  0  0  0
  -21.1570   -6.7400   23.8610 C   0  0  0  0  0  3  0  0  0  0  0  0
  -21.0750   -5.9270   25.0060 C   0  0  0  0  0  3  0  0  0  0  0  0
  -21.3810   -4.5540   24.9210 C   0  0  0  0  0  0  0  0  0  0  0  0
  -21.7700   -3.9960   23.6910 C   0  0  0  0  0  3  0  0  0  0  0  0
  -21.8530   -4.8070   22.5450 C   0  0  0  0  0  0  0  0  0  0  0  0
  -22.2090   -4.2590   21.3590 F   0  0  0  0  0  0  0  0  0  0  0  0
  -21.2950   -3.7700   26.0210 F   0  0  0  0  0  0  0  0  0  0  0  0
  -22.7790  -13.5390   21.0830 C   0  0  0  0  0  0  0  0  0  0  0  0
  -22.0640  -12.8640   21.9770 N   0  0  0  0  0  0  0  0  0  0  0  0
  -22.3440  -14.5650   20.5610 O   0  0  0  0  0  0  0  0  0  0  0  0
  -22.4310  -12.0350   22.4180 H   0  0  0  0  0  0  0  0  0  0  0  0
  -21.1390  -13.1850   22.2260 H   0  0  0  0  0  0  0  0  0  0  0  0
  -25.4060  -15.1520   20.1730 N   0  0  0  0  0  0  0  0  0  0  0  0
  -24.6140  -15.7810   20.2450 H   0  0  0  0  0  0  0  0  0  0  0  0
  -26.1590  -15.5340   19.6190 H   0  0  0  0  0  0  0  0  0  0  0  0
  -29.8220  -17.3430   19.4630 C   0  0  0  0  0  0  0  0  0  0  0  0
  -28.7710  -16.7040   18.9780 N   0  0  0  0  0  0  0  0  0  0  0  0
  -30.3150  -18.2900   18.8500 O   0  0  0  0  0  0  0  0  0  0  0  0
  -28.3310  -15.9810   19.5220 H   0  0  0  0  0  0  0  0  0  0  0  0
  -28.3730  -16.9960   18.0990 H   0  0  0  0  0  0  0  0  0  0  0  0
  -33.5110  -21.1120   21.1360 C   0  0  0  0  0  1  0  0  0  0  0  0
  -32.2010  -20.9520   20.3300 C   0  0  0  0  0  3  0  0  0  0  0  0
  -31.4760  -22.3310   20.2120 C   0  0  0  0  0  2  0  0  0  0  0  0
  -30.4430  -22.4290   19.0680 C   0  0  0  0  0  2  0  0  0  0  0  0
  -29.6370  -24.8320   19.0600 C   0  0  0  0  0  0  0  0  0  0  0  0
  -29.4650  -23.5100   19.2370 N   0  0  0  0  0  0  0  0  0  0  0  0
  -30.7430  -25.3580   18.9300 O   0  0  0  0  0  0  0  0  0  0  0  0
  -28.5030  -23.2160   19.3640 H   0  0  0  0  0  0  0  0  0  0  0  0
  -28.3410  -25.6540   18.9380 C   0  0  0  0  0  2  0  0  0  0  0  0
  -28.4230  -26.9490   19.5600 O   0  0  0  0  0  0  0  0  0  0  0  0
  -24.6300  -31.7630   23.2220 C   0  0  0  0  0  0  0  0  0  0  0  0
  -27.2400  -27.6670   19.6500 C   0  0  0  0  0  0  0  0  0  0  0  0
  -23.4050  -30.5410   21.4600 C   0  0  0  0  0  3  0  0  0  0  0  0
  -24.8390  -29.1700   19.8670 C   0  0  0  0  0  0  0  0  0  0  0  0
  -25.9320  -30.9170   21.2730 C   0  0  0  0  0  2  0  0  0  0  0  0
  -26.0080  -29.6240   20.4870 C   0  0  0  0  0  0  0  0  0  0  0  0
  -27.2090  -28.8820   20.3770 C   0  0  0  0  0  3  0  0  0  0  0  0
  -26.0360  -27.2310   19.0350 C   0  0  0  0  0  3  0  0  0  0  0  0
  -24.8500  -27.9730   19.1380 C   0  0  0  0  0  3  0  0  0  0  0  0
  -23.5960  -30.0150   20.0150 C   0  0  0  0  0  2  0  0  0  0  0  0
  -24.6760  -31.0820   22.0430 N   0  0  0  0  0  0  0  0  0  0  0  0
  -23.5560  -31.9770   23.8000 O   0  0  0  0  0  0  0  0  0  0  0  0
  -22.7660  -29.4230   22.3130 C   0  0  0  0  0  0  0  0  0  0  0  0
  -21.4370  -29.2630   22.1970 N   0  0  0  0  0  0  0  0  0  0  0  0
  -23.4620  -28.7000   23.0320 O   0  0  0  0  0  0  0  0  0  0  0  0
  -20.9380  -29.8960   21.5880 H   0  0  0  0  0  0  0  0  0  0  0  0
  -18.0580  -28.0690   22.6640 C   0  0  0  0  0  0  0  0  0  0  0  0
  -20.6280  -28.2530   22.8760 C   0  0  0  0  0  3  0  0  0  0  0  0
  -20.6850  -26.8990   22.1320 C   0  0  0  0  0  2  0  0  0  0  0  0
  -19.5430  -26.7170   21.1250 C   0  0  0  0  0  2  0  0  0  0  0  0
  -18.1860  -26.8060   21.8280 C   0  0  0  0  0  2  0  0  0  0  0  0
  -19.2040  -28.7570   23.1440 C   0  0  0  0  0  0  0  0  0  0  0  0
  -19.0300  -29.9440   23.8880 C   0  0  0  0  0  3  0  0  0  0  0  0
  -17.7410  -30.4440   24.1520 C   0  0  0  0  0  3  0  0  0  0  0  0
  -16.6090  -29.7520   23.6870 C   0  0  0  0  0  3  0  0  0  0  0  0
  -16.7700  -28.5640   22.9510 C   0  0  0  0  0  3  0  0  0  0  0  0
  -25.9240  -32.3290   23.8890 C   0  0  0  0  0  3  0  0  0  0  0  0
  -25.6340  -33.7040   24.3130 N   0  0  0  0  0  0  0  0  0  0  0  0
  -26.0070  -34.8010   23.6420 C   0  0  0  0  0  0  0  0  0  0  0  0
  -26.7000  -34.7580   22.6220 O   0  0  0  0  0  0  0  0  0  0  0  0
  -25.0210  -33.8130   25.1070 H   0  0  0  0  0  0  0  0  0  0  0  0
  -24.3240  -36.6510   23.3760 C   0  0  0  0  0  1  0  0  0  0  0  0
  -25.5350  -36.1620   24.1860 C   0  0  0  0  0  3  0  0  0  0  0  0
  -27.6600  -36.9400   25.1380 C   0  0  0  0  0  1  0  0  0  0  0  0
  -26.5910  -37.1970   24.1780 N   0  0  0  0  0  0  0  0  0  0  0  0
  -26.1980  -38.1140   24.3760 H   0  0  0  0  0  0  0  0  0  0  0  0
  -26.4240  -31.4600   25.1070 C   0  0  1  0  0  0  0  0  0  0  0  0
  -25.3260  -31.1730   26.1580 C   0  0  0  0  0  1  0  0  0  0  0  0
  -26.9770  -30.1000   24.6190 C   0  0  0  0  0  1  0  0  0  0  0  0
  -27.5910  -32.1820   25.8190 C   0  0  0  0  0  1  0  0  0  0  0  0
  2  6  1  0
  3  6  1  0
  4  1  1  0
  4  6  1  0
  5 48  1  0
  5 18  1  1
  5  1  1  0
  5  2  1  0
  6  7  1  1
  8  4  1  0
  8  3  1  0
  8  9  1  6
 10 18  1  0
 11 16  1  0
 12 13  1  0
 12 11  1  0
 14 13  1  0
 14 23  1  0
 14 15  1  0
 16 10  1  0
 16 15  1  0
 17 10  2  0
 18 19  1  0
 20 21  2  0
 21 40  1  0
 22 21  1  0
 22 25  1  0
 23 20  1  0
 23 24  1  0
 24 22  2  0
 25 26  1  0
 26 27  2  0
 28 31  1  0
 28 27  1  0
 29 28  2  0
 30 29  1  0
 30 25  2  0
 31 32  1  0
 32 33  1  0
 33 34  2  0
 35 34  1  0
 35 39  1  0
 36 35  2  0
 37 32  2  0
 37 36  1  0
 38 37  1  0
 40 41  1  0
 41 44  1  0
 41 43  1  0
 42 40  2  0
 45 46  1  0
 45 20  1  0
 47 45  1  0
 49 48  1  0
 49 51  1  0
 50 48  2  0
 52 49  1  0
 54  8  1  0
 54 53  1  0
 55 54  1  0
 56 58  1  0
 56 55  1  0
 57 58  1  0
 58 60  1  0
 59 57  2  0
 61 57  1  0
 61 62  1  0
 62 64  1  0
 63 74  2  0
 64 69  1  0
 65 73  1  0
 65 75  1  0
 66 72  1  0
 66 68  1  0
 67 73  1  0
 68 67  1  0
 69 68  2  0
 70 71  1  0
 70 64  2  0
 71 66  2  0
 72 65  1  0
 73 63  1  0
 75 77  2  0
 76 75  1  0
 78 76  1  0
 79 88  2  0
 79 84  1  0
 80 76  1  0
 80 84  1  0
 81 80  1  0
 82 83  1  0
 82 81  1  0
 83 79  1  0
 84 85  2  0
 85 86  1  0
 87 86  2  0
 88 87  1  0
 89 63  1  0
 89 90  1  0
 89 99  1  0
 90 93  1  0
 91 95  1  0
 91 90  1  0
 92 91  2  0
 95 94  1  0
 97 95  1  0
 97 98  1  0
 97 96  1  0
 99102  1  1
 99100  1  0
101 99  1  0
M  ISO  4  10 100  18 100  61 101  62 101
M  END
>  <TORSDO>  (78) 
F 22

>  <SCORE>  (78) 
-11.666

>  <name>  (78) 
77

>  <ligand_id>  (78) 
77

>  <original_smiles>  (78) 
[H]c1c([H])c([H])c2c(c1[H])C([H])([H])C([H])([H])C([H])([H])C2([H])N([H])C(=O)C1([H])N(C(=O)C([H])(N([H])C(=O)C([H])(N([H])C([H])([H])[H])C([H])([H])[H])C(C([H])([H])[H])(C([H])([H])[H])C([H])([H])[H])C([H])([H])c2c([H])c(OC([H])([H])C(=O)N([H])C([H])([H])C([H])([H])C([H])(C([H])([H])[H])[N+]3([H])C([H])([H])C4(C([H])([H])[H])C([H])([H])C(C(=O)N([H])[H])(N([H])C(=O)N5C([H])([H])C([H])([H])C([H])([H])C([H])(n6nc(-c7c([H])c([H])c(Oc8c([H])c([H])c(F)c([H])c8F)c([H])c7[H])c(C(=O)N([H])[H])c6N([H])[H])C5([H])[H])C([H])([H])C43[H])c([H])c([H])c2C1([H])[H]

>  <smiles>  (78) 
[H]c1c([H])c([H])c2c(c1[H])C([H])([H])C([H])([H])C([H])([H])C2([H])N([H])C(=O)C1([H])N(C(=O)C([H])(N([H])C(=O)C([H])(N([H])C([H])([H])[H])C([H])([H])[H])C(C([H])([H])[H])(C([H])([H])[H])C([H])([H])[H])C([H])([H])c2c([H])c(OC([H])([H])C(=O)N([H])C([H])([H])C([H])([H])C([H])(C([H])([H])[H])[N+]3([H])C([H])([H])C4(C([H])([H])[H])C([H])([H])C(C(=O)N([H])[H])(N([H])C(=O)N5C([H])([H])C([H])([H])C([H])([H])C([H])(n6nc(-c7c([H])c([H])c(Oc8c([H])c([H])c(F)c([H])c8F)c([H])c7[H])c(C(=O)N([H])[H])c6N([H])[H])C5([H])[H])C([H])([H])C43[H])c([H])c([H])c2C1([H])[H]

$$$$
78:0:0
     RDKit          3D

 99107  0  0  1  0  0  0  0  0999 V2000
  -29.3200  -20.6140   21.4170 C   0  0  0  0  0  3  0  0  0  0  0  0
  -28.7690  -19.3300   21.5360 C   0  0  0  0  0  3  0  0  0  0  0  0
  -31.2330  -19.6410   20.2760 C   0  0  0  0  0  3  0  0  0  0  0  0
  -30.5540  -20.7860   20.7660 C   0  0  0  0  0  0  0  0  0  0  0  0
  -29.4160  -18.1960   20.9970 C   0  0  0  0  0  0  0  0  0  0  0  0
  -30.6800  -18.3190   20.3380 C   0  0  0  0  0  0  0  0  0  0  0  0
  -28.6730  -16.8790   21.1330 C   0  0  0  0  0  1  0  0  0  0  0  0
  -31.1170  -22.2070   20.6170 C   0  0  0  0  0  2  0  0  0  0  0  0
  -30.1620  -23.1040   19.9090 N   0  0  0  0  0  4  0  0  0  0  0  0
  -29.2390  -22.7380   20.0750 H   0  0  0  0  0  0  0  0  0  0  0  0
  -30.3330  -22.9860   18.9210 H   0  0  0  0  0  0  0  0  0  0  0  0
  -29.8930  -24.8020   21.7500 C   0  0  0  0  0  1  0  0  0  0  0  0
  -30.1870  -24.5650   20.2510 C   0  0  0  0  0  3  0  0  0  0  0  0
  -29.1460  -25.3460   19.3980 C   0  0  0  0  0  2  0  0  0  0  0  0
  -29.0920  -26.7510   19.7270 O   0  0  0  0  0  0  0  0  0  0  0  0
  -24.7750  -31.3640   23.0560 C   0  0  0  0  0  0  0  0  0  0  0  0
  -27.8530  -27.3730   19.7310 C   0  0  0  0  0  0  0  0  0  0  0  0
  -23.7250  -29.9660   21.3110 C   0  0  0  0  0  3  0  0  0  0  0  0
  -25.3300  -28.6670   19.8150 C   0  0  0  0  0  0  0  0  0  0  0  0
  -26.2170  -30.5590   21.1840 C   0  0  0  0  0  2  0  0  0  0  0  0
  -26.4330  -29.2490   20.4530 C   0  0  0  0  0  0  0  0  0  0  0  0
  -27.6960  -28.6060   20.4100 C   0  0  0  0  0  3  0  0  0  0  0  0
  -26.7260  -26.8210   19.0760 C   0  0  0  0  0  3  0  0  0  0  0  0
  -25.4710  -27.4520   19.1300 C   0  0  0  0  0  3  0  0  0  0  0  0
  -24.0130  -29.4070   19.8940 C   0  0  0  0  0  2  0  0  0  0  0  0
  -24.9230  -30.6430   21.9080 N   0  0  0  0  0  0  0  0  0  0  0  0
  -23.6690  -31.5010   23.5930 O   0  0  0  0  0  0  0  0  0  0  0  0
  -23.1640  -28.8260   22.1910 C   0  0  0  0  0  0  0  0  0  0  0  0
  -21.8760  -28.4990   21.9970 N   0  0  0  0  0  0  0  0  0  0  0  0
  -23.8820  -28.2410   23.0030 O   0  0  0  0  0  0  0  0  0  0  0  0
  -21.3520  -29.0270   21.3110 H   0  0  0  0  0  0  0  0  0  0  0  0
  -18.6550  -26.8900   22.2650 C   0  0  0  0  0  0  0  0  0  0  0  0
  -21.1470  -27.4340   22.6870 C   0  0  0  0  0  3  0  0  0  0  0  0
  -21.4460  -26.0500   22.0690 C   0  0  0  0  0  2  0  0  0  0  0  0
  -20.4480  -25.6520   20.9770 C   0  0  0  0  0  2  0  0  0  0  0  0
  -19.0250  -25.6080   21.5420 C   0  0  0  0  0  2  0  0  0  0  0  0
  -19.6510  -27.7560   22.7880 C   0  0  0  0  0  0  0  0  0  0  0  0
  -19.2550  -28.9570   23.4120 C   0  0  0  0  0  3  0  0  0  0  0  0
  -17.8940  -29.2960   23.5260 C   0  0  0  0  0  3  0  0  0  0  0  0
  -16.9110  -28.4250   23.0260 C   0  0  0  0  0  3  0  0  0  0  0  0
  -17.2910  -27.2210   22.4020 C   0  0  0  0  0  3  0  0  0  0  0  0
  -25.9910  -32.0700   23.7350 C   0  0  0  0  0  3  0  0  0  0  0  0
  -25.5710  -33.4330   24.0820 N   0  0  0  0  0  0  0  0  0  0  0  0
  -25.8590  -34.5240   23.3580 C   0  0  0  0  0  0  0  0  0  0  0  0
  -26.5780  -34.4920   22.3560 O   0  0  0  0  0  0  0  0  0  0  0  0
  -24.9350  -33.5260   24.8610 H   0  0  0  0  0  0  0  0  0  0  0  0
  -24.0140  -36.1870   22.9720 C   0  0  0  0  0  1  0  0  0  0  0  0
  -25.2540  -35.8630   23.8190 C   0  0  0  0  0  3  0  0  0  0  0  0
  -27.2840  -36.8900   24.7440 C   0  0  0  0  0  1  0  0  0  0  0  0
  -26.2080  -36.9920   23.7600 N   0  0  0  0  0  0  0  0  0  0  0  0
  -25.7320  -37.8780   23.9010 H   0  0  0  0  0  0  0  0  0  0  0  0
  -26.5180  -31.3060   25.0110 C   0  0  1  0  0  0  0  0  0  0  0  0
  -25.4030  -30.9330   26.0170 C   0  0  0  0  0  1  0  0  0  0  0  0
  -27.2410  -30.0000   24.6100 C   0  0  0  0  0  1  0  0  0  0  0  0
  -27.5610  -32.1780   25.7500 C   0  0  0  0  0  1  0  0  0  0  0  0
  -31.3530  -17.1100   19.5930 C   0  0  0  0  0  0  0  0  0  0  0  0
  -31.9980  -14.6430   20.0120 C   0  0  0  0  0  0  0  0  0  0  0  0
  -31.5190  -12.5050   18.8920 C   0  0  0  0  0  2  0  0  0  0  0  0
  -30.5750  -12.7840   17.7010 C   0  0  0  0  0  2  0  0  0  0  0  0
  -29.1020  -12.7500   18.1510 C   0  0  0  0  0  2  0  0  0  0  0  0
  -28.8470  -13.6070   19.4180 C   0  0  0  0  0  3  0  0  0  0  0  0
  -29.9020  -13.3220   20.5130 C   0  0  0  0  0  2  0  0  0  0  0  0
  -31.2400  -13.5140   19.9280 N   0  0  0  0  0  0  0  0  0  0  0  0
  -33.1610  -14.6860   19.6080 O   0  0  0  0  0  0  0  0  0  0  0  0
  -31.3010  -15.7750   20.2710 N   0  0  0  0  0  4  0  0  0  0  0  0
  -30.3990  -15.5740   20.6760 H   0  0  0  0  0  0  0  0  0  0  0  0
  -26.5070  -14.3860   20.1540 C   0  0  0  0  0  0  0  0  0  0  0  0
  -25.3970  -13.7000   20.5650 C   0  0  0  0  0  0  0  0  0  0  0  0
  -25.7600  -12.3190   20.5410 C   0  0  0  0  0  0  0  0  0  0  0  0
  -27.4850  -13.4330   19.9200 N   0  0  0  0  0  0  0  0  0  0  0  0
  -27.0380  -12.1830   20.2100 N   0  0  0  0  0  0  0  0  0  0  0  0
  -24.9480  -11.1150   20.7540 C   0  0  0  0  0  0  0  0  0  0  0  0
  -25.2680  -10.1750   21.7600 C   0  0  0  0  0  3  0  0  0  0  0  0
  -24.4610   -9.0340   21.9560 C   0  0  0  0  0  3  0  0  0  0  0  0
  -23.3190   -8.8220   21.1460 C   0  0  0  0  0  0  0  0  0  0  0  0
  -23.0200   -9.7480   20.1320 C   0  0  0  0  0  3  0  0  0  0  0  0
  -23.8260  -10.8810   19.9340 C   0  0  0  0  0  3  0  0  0  0  0  0
  -22.4930   -7.7300   21.2480 O   0  0  0  0  0  0  0  0  0  0  0  0
  -22.2480   -7.1250   22.4550 C   0  0  0  0  0  0  0  0  0  0  0  0
  -21.7250   -7.8390   23.5550 C   0  0  0  0  0  3  0  0  0  0  0  0
  -21.4270   -7.1640   24.7550 C   0  0  0  0  0  3  0  0  0  0  0  0
  -21.6370   -5.7750   24.8530 C   0  0  0  0  0  0  0  0  0  0  0  0
  -22.1490   -5.0600   23.7570 C   0  0  0  0  0  3  0  0  0  0  0  0
  -22.4520   -5.7330   22.5600 C   0  0  0  0  0  0  0  0  0  0  0  0
  -22.9280   -5.0360   21.4990 F   0  0  0  0  0  0  0  0  0  0  0  0
  -21.3430   -5.1250   26.0040 F   0  0  0  0  0  0  0  0  0  0  0  0
  -24.0410  -14.2790   20.8560 C   0  0  0  0  0  0  0  0  0  0  0  0
  -23.2970  -13.6680   21.7720 N   0  0  0  0  0  0  0  0  0  0  0  0
  -23.6530  -15.3070   20.3060 O   0  0  0  0  0  0  0  0  0  0  0  0
  -23.6220  -12.8340   22.2360 H   0  0  0  0  0  0  0  0  0  0  0  0
  -22.3890  -14.0390   22.0120 H   0  0  0  0  0  0  0  0  0  0  0  0
  -26.7570  -15.7370   19.9360 N   0  0  0  0  0  0  0  0  0  0  0  0
  -26.0270  -16.4340   20.0220 H   0  0  0  0  0  0  0  0  0  0  0  0
  -27.5640  -16.0700   19.4240 H   0  0  0  0  0  0  0  0  0  0  0  0
  -32.7120  -17.4070   18.8710 C   0  0  0  0  0  2  0  0  0  0  0  0
  -32.6040  -18.3680   17.7550 N   0  0  0  0  0  4  0  0  0  0  0  0
  -32.0080  -18.0120   17.0280 H   0  0  0  0  0  0  0  0  0  0  0  0
  -33.5140  -18.5260   17.3590 H   0  0  0  0  0  0  0  0  0  0  0  0
  -32.2400  -19.2490   18.0690 H   0  0  0  0  0  0  0  0  0  0  0  0
  1  2  1  0
  3  6  2  0
  3  4  1  0
  4  1  2  0
  5  7  1  0
  5  2  2  0
  6  5  1  0
  8  4  1  0
  9 10  1  0
  9 13  1  0
  9  8  1  0
 11  9  1  0
 13 12  1  0
 14 15  1  0
 14 13  1  0
 15 17  1  0
 16 27  2  0
 17 22  1  0
 18 26  1  0
 18 28  1  0
 19 25  1  0
 19 21  1  0
 20 26  1  0
 21 20  1  0
 22 21  2  0
 23 24  1  0
 23 17  2  0
 24 19  2  0
 25 18  1  0
 26 16  1  0
 28 30  2  0
 29 28  1  0
 31 29  1  0
 32 41  2  0
 32 37  1  0
 33 29  1  0
 33 37  1  0
 34 33  1  0
 35 36  1  0
 35 34  1  0
 36 32  1  0
 37 38  2  0
 38 39  1  0
 40 39  2  0
 41 40  1  0
 42 16  1  0
 42 43  1  0
 42 52  1  0
 43 46  1  0
 44 48  1  0
 44 43  1  0
 45 44  2  0
 48 47  1  0
 50 48  1  0
 50 51  1  0
 50 49  1  0
 52 55  1  1
 52 53  1  0
 54 52  1  0
 56 65  2  0
 56  6  1  0
 57 65  1  0
 58 63  1  0
 59 60  1  0
 59 58  1  0
 61 60  1  0
 61 70  1  0
 61 62  1  0
 63 57  1  0
 63 62  1  0
 64 57  2  0
 65 66  1  0
 67 68  2  0
 68 87  1  0
 69 68  1  0
 69 72  1  0
 70 67  1  0
 70 71  1  0
 71 69  2  0
 72 73  1  0
 73 74  2  0
 75 78  1  0
 75 74  1  0
 76 75  2  0
 77 76  1  0
 77 72  2  0
 78 79  1  0
 79 84  2  0
 79 80  1  0
 80 81  2  0
 81 82  1  0
 82 86  1  0
 83 82  2  0
 84 83  1  0
 85 84  1  0
 87 88  1  0
 88 91  1  0
 88 90  1  0
 89 87  2  0
 92 93  1  0
 92 67  1  0
 94 92  1  0
 95 56  1  0
 96 99  1  0
 96 95  1  0
 97 96  1  0
 98 96  1  0
M  ISO  4  14 101  15 101  57 100  65 100
M  END
>  <TORSDO>  (79) 
F 23

>  <SCORE>  (79) 
-9.022

>  <name>  (79) 
78

>  <ligand_id>  (79) 
78

>  <original_smiles>  (79) 
[H]c1c([H])c([H])c2c(c1[H])C([H])([H])C([H])([H])C([H])([H])C2([H])N([H])C(=O)C1([H])N(C(=O)C([H])(N([H])C(=O)C([H])(N([H])C([H])([H])[H])C([H])([H])[H])C(C([H])([H])[H])(C([H])([H])[H])C([H])([H])[H])C([H])([H])c2c([H])c(OC([H])([H])C([H])(C([H])([H])[H])[N+]([H])([H])C([H])([H])c3c([H])c([H])c(C([H])([H])[H])c(C([H])(N([H])C(=O)N4C([H])([H])C([H])([H])C([H])([H])C([H])(n5nc(-c6c([H])c([H])c(Oc7c([H])c([H])c(F)c([H])c7F)c([H])c6[H])c(C(=O)N([H])[H])c5N([H])[H])C4([H])[H])C([H])([H])[N+]([H])([H])[H])c3[H])c([H])c([H])c2C1([H])[H]

>  <smiles>  (79) 
[H]c1c([H])c([H])c2c(c1[H])C([H])([H])C([H])([H])C([H])([H])C2([H])N([H])C(=O)C1([H])N(C(=O)C([H])(N([H])C(=O)C([H])(N([H])C([H])([H])[H])C([H])([H])[H])C(C([H])([H])[H])(C([H])([H])[H])C([H])([H])[H])C([H])([H])c2c([H])c(OC([H])([H])C([H])(C([H])([H])[H])[N+]([H])([H])C([H])([H])c3c([H])c([H])c(C([H])([H])[H])c(C([H])(N([H])C(=O)N4C([H])([H])C([H])([H])C([H])([H])C([H])(n5nc(-c6c([H])c([H])c(Oc7c([H])c([H])c(F)c([H])c7F)c([H])c6[H])c(C(=O)N([H])[H])c5N([H])[H])C4([H])[H])C([H])([H])[N+]([H])([H])[H])c3[H])c([H])c([H])c2C1([H])[H]

$$$$
79:0:0
     RDKit          3D

101109  0  0  1  0  0  0  0  0999 V2000
  -27.8320  -20.8620   20.4690 C   0  0  0  0  0  2  0  0  0  0  0  0
  -29.4000  -19.1000   21.3820 C   0  0  0  0  0  2  0  0  0  0  0  0
  -30.8070  -18.4840   21.3900 C   0  0  0  0  0  2  0  0  0  0  0  0
  -31.3290  -19.5750   19.1970 C   0  0  0  0  0  2  0  0  0  0  0  0
  -29.3090  -20.4030   20.5480 C   0  0  0  0  0  3  0  0  0  0  0  0
  -29.9290  -20.2330   19.1340 C   0  0  0  0  0  3  0  0  0  0  0  0
  -31.3690  -18.2360   19.9710 C   0  0  1  0  0  0  0  0  0  0  0  0
  -32.8430  -17.7910   20.1020 C   0  0  0  0  0  1  0  0  0  0  0  0
  -30.0280  -21.5310   18.4360 N   0  0  0  0  0  4  0  0  0  0  0  0
  -30.7520  -22.1000   18.8380 H   0  0  0  0  0  0  0  0  0  0  0  0
  -29.1660  -22.0610   18.4900 H   0  0  0  0  0  0  0  0  0  0  0  0
  -30.2430  -21.3970   17.4640 H   0  0  0  0  0  0  0  0  0  0  0  0
  -30.5630  -17.1640   19.1880 C   0  0  0  0  0  2  0  0  0  0  0  0
  -31.1850  -14.8040   19.5640 C   0  0  0  0  0  0  0  0  0  0  0  0
  -30.9790  -12.4280   18.9790 C   0  0  0  0  0  2  0  0  0  0  0  0
  -29.9910  -12.3090   17.8000 C   0  0  0  0  0  2  0  0  0  0  0  0
  -28.5400  -12.2010   18.3100 C   0  0  0  0  0  2  0  0  0  0  0  0
  -28.1920  -13.2960   19.3550 C   0  0  0  0  0  3  0  0  0  0  0  0
  -29.2900  -13.3910   20.4410 C   0  0  0  0  0  2  0  0  0  0  0  0
  -30.5840  -13.6030   19.7700 N   0  0  0  0  0  0  0  0  0  0  0  0
  -32.2640  -14.9260   18.9750 O   0  0  0  0  0  0  0  0  0  0  0  0
  -30.4390  -15.8730   19.8670 N   0  0  0  0  0  0  0  0  0  0  0  0
  -29.5830  -15.7000   20.3730 H   0  0  0  0  0  0  0  0  0  0  0  0
  -25.9040  -13.9960   20.3070 C   0  0  0  0  0  0  0  0  0  0  0  0
  -24.8290  -13.2640   20.7370 C   0  0  0  0  0  0  0  0  0  0  0  0
  -25.2060  -11.8940   20.5960 C   0  0  0  0  0  0  0  0  0  0  0  0
  -26.8700  -13.0730   19.9400 N   0  0  0  0  0  0  0  0  0  0  0  0
  -26.4570  -11.8000   20.1680 N   0  0  0  0  0  0  0  0  0  0  0  0
  -24.4250  -10.6640   20.7940 C   0  0  0  0  0  0  0  0  0  0  0  0
  -24.8140   -9.6860   21.7350 C   0  0  0  0  0  3  0  0  0  0  0  0
  -24.0400   -8.5200   21.9190 C   0  0  0  0  0  3  0  0  0  0  0  0
  -22.8600   -8.3260   21.1600 C   0  0  0  0  0  0  0  0  0  0  0  0
  -22.4900   -9.2920   20.2090 C   0  0  0  0  0  3  0  0  0  0  0  0
  -23.2650  -10.4500   20.0230 C   0  0  0  0  0  3  0  0  0  0  0  0
  -22.0590   -7.2140   21.2540 O   0  0  0  0  0  0  0  0  0  0  0  0
  -21.8800   -6.5520   22.4420 C   0  0  0  0  0  0  0  0  0  0  0  0
  -21.3510   -7.1960   23.5820 C   0  0  0  0  0  3  0  0  0  0  0  0
  -21.1200   -6.4620   24.7620 C   0  0  0  0  0  3  0  0  0  0  0  0
  -21.4060   -5.0840   24.8020 C   0  0  0  0  0  0  0  0  0  0  0  0
  -21.9290   -4.4400   23.6660 C   0  0  0  0  0  3  0  0  0  0  0  0
  -22.1620   -5.1720   22.4880 C   0  0  0  0  0  0  0  0  0  0  0  0
  -22.6450   -4.5430   21.3900 F   0  0  0  0  0  0  0  0  0  0  0  0
  -21.1780   -4.3750   25.9320 F   0  0  0  0  0  0  0  0  0  0  0  0
  -23.4940  -13.8020   21.1640 C   0  0  0  0  0  0  0  0  0  0  0  0
  -22.8190  -13.1120   22.0780 N   0  0  0  0  0  0  0  0  0  0  0  0
  -23.0610  -14.8640   20.7210 O   0  0  0  0  0  0  0  0  0  0  0  0
  -23.1840  -12.2500   22.4560 H   0  0  0  0  0  0  0  0  0  0  0  0
  -21.9270  -13.4540   22.4060 H   0  0  0  0  0  0  0  0  0  0  0  0
  -26.1300  -15.3640   20.1820 N   0  0  0  0  0  0  0  0  0  0  0  0
  -25.4150  -16.0510   20.3930 H   0  0  0  0  0  0  0  0  0  0  0  0
  -26.9700  -15.7750   19.7930 H   0  0  0  0  0  0  0  0  0  0  0  0
  -27.3750  -21.7290   21.6630 C   0  0  0  0  0  2  0  0  0  0  0  0
  -26.9620  -23.0930   21.2520 N   0  0  0  0  0  4  0  0  0  0  0  0
  -26.2790  -23.4010   21.9250 H   0  0  0  0  0  0  0  0  0  0  0  0
  -26.4970  -23.0530   20.3600 H   0  0  0  0  0  0  0  0  0  0  0  0
  -28.0210  -24.1310   21.2080 C   0  0  0  0  0  2  0  0  0  0  0  0
  -28.0340  -24.8900   19.8560 C   0  0  0  0  0  3  0  0  0  0  0  0
  -28.6880  -24.0920   18.8770 O   0  0  0  0  0  0  0  0  0  0  0  0
  -28.6060  -24.5680   18.0520 H   0  0  0  0  0  0  0  0  0  0  0  0
  -28.7310  -26.2830   19.9290 C   0  0  0  0  0  2  0  0  0  0  0  0
  -28.4040  -27.1650   18.8390 O   0  0  0  0  0  0  0  0  0  0  0  0
  -24.4930  -31.5330   22.8750 C   0  0  0  0  0  0  0  0  0  0  0  0
  -27.2120  -27.8260   19.0060 C   0  0  0  0  0  0  0  0  0  0  0  0
  -23.2700  -30.2460   21.1560 C   0  0  0  0  0  3  0  0  0  0  0  0
  -24.7170  -29.0720   19.4150 C   0  0  0  0  0  0  0  0  0  0  0  0
  -25.7260  -30.8800   20.8110 C   0  0  0  0  0  2  0  0  0  0  0  0
  -25.8730  -29.6210   19.9830 C   0  0  0  0  0  0  0  0  0  0  0  0
  -27.1290  -29.0040   19.7830 C   0  0  0  0  0  3  0  0  0  0  0  0
  -26.0470  -27.3130   18.4020 C   0  0  0  0  0  3  0  0  0  0  0  0
  -24.7990  -27.9160   18.6210 C   0  0  0  0  0  3  0  0  0  0  0  0
  -23.4090  -29.7810   19.6830 C   0  0  0  0  0  2  0  0  0  0  0  0
  -24.5190  -30.8950   21.6710 N   0  0  0  0  0  0  0  0  0  0  0  0
  -23.4470  -31.6200   23.5290 O   0  0  0  0  0  0  0  0  0  0  0  0
  -22.8080  -29.0440   22.0100 C   0  0  0  0  0  0  0  0  0  0  0  0
  -21.5090  -28.7110   21.9190 N   0  0  0  0  0  0  0  0  0  0  0  0
  -23.6100  -28.4170   22.7060 O   0  0  0  0  0  0  0  0  0  0  0  0
  -20.9150  -29.2780   21.3290 H   0  0  0  0  0  0  0  0  0  0  0  0
  -18.3490  -27.0120   22.3470 C   0  0  0  0  0  0  0  0  0  0  0  0
  -20.8530  -27.6000   22.6070 C   0  0  0  0  0  3  0  0  0  0  0  0
  -21.1390  -26.2610   21.8880 C   0  0  0  0  0  2  0  0  0  0  0  0
  -20.0630  -25.8840   20.8650 C   0  0  0  0  0  2  0  0  0  0  0  0
  -18.6920  -25.7720   21.5390 C   0  0  0  0  0  2  0  0  0  0  0  0
  -19.3640  -27.8790   22.8340 C   0  0  0  0  0  0  0  0  0  0  0  0
  -18.9880  -29.0370   23.5500 C   0  0  0  0  0  3  0  0  0  0  0  0
  -17.6320  -29.3330   23.7830 C   0  0  0  0  0  3  0  0  0  0  0  0
  -16.6330  -28.4620   23.3140 C   0  0  0  0  0  3  0  0  0  0  0  0
  -16.9930  -27.3030   22.6020 C   0  0  0  0  0  3  0  0  0  0  0  0
  -25.7690  -32.2050   23.4720 C   0  0  0  0  0  3  0  0  0  0  0  0
  -26.4610  -31.3360   24.5920 C   0  0  1  0  0  0  0  0  0  0  0  0
  -25.4910  -30.8720   25.7040 C   0  0  0  0  0  1  0  0  0  0  0  0
  -27.1150  -30.0760   23.9800 C   0  0  0  0  0  1  0  0  0  0  0  0
  -27.6020  -32.1440   25.2530 C   0  0  0  0  0  1  0  0  0  0  0  0
  -25.3700  -33.5160   24.0020 N   0  0  0  0  0  0  0  0  0  0  0  0
  -25.5700  -34.6810   23.3720 C   0  0  0  0  0  0  0  0  0  0  0  0
  -26.1790  -34.7700   22.3030 O   0  0  0  0  0  0  0  0  0  0  0  0
  -24.8220  -33.5140   24.8490 H   0  0  0  0  0  0  0  0  0  0  0  0
  -23.6820  -36.3390   23.3520 C   0  0  0  0  0  1  0  0  0  0  0  0
  -25.0030  -35.9510   24.0360 C   0  0  0  0  0  3  0  0  0  0  0  0
  -27.1080  -36.9040   24.8610 C   0  0  0  0  0  1  0  0  0  0  0  0
  -25.9370  -37.0960   24.0070 N   0  0  0  0  0  0  0  0  0  0  0  0
  -25.4710  -37.9510   24.2980 H   0  0  0  0  0  0  0  0  0  0  0  0
  1 52  1  0
  2  3  1  0
  4  7  1  0
  5  1  1  0
  5  2  1  0
  6  9  1  0
  6  4  1  0
  6  5  1  0
  7  8  1  1
  7  3  1  0
  9 11  1  0
  9 10  1  0
 12  9  1  0
 13 22  1  0
 13  7  1  0
 14 20  1  0
 14 22  1  0
 15 20  1  0
 16 17  1  0
 16 15  1  0
 18 17  1  0
 18 27  1  0
 18 19  1  0
 20 19  1  0
 21 14  2  0
 22 23  1  0
 24 25  2  0
 25 44  1  0
 26 25  1  0
 26 29  1  0
 27 28  1  0
 27 24  1  0
 28 26  2  0
 29 30  1  0
 30 31  2  0
 32 35  1  0
 32 31  1  0
 33 32  2  0
 34 33  1  0
 34 29  2  0
 35 36  1  0
 36 41  2  0
 36 37  1  0
 37 38  2  0
 38 39  1  0
 39 43  1  0
 40 39  2  0
 41 40  1  0
 42 41  1  0
 44 45  1  0
 45 48  1  0
 45 47  1  0
 46 44  2  0
 49 24  1  0
 49 50  1  0
 51 49  1  0
 53 52  1  0
 53 54  1  0
 55 53  1  0
 56 53  1  0
 57 60  1  0
 57 56  1  0
 58 57  1  0
 59 58  1  0
 61 63  1  0
 61 60  1  0
 62 73  2  0
 63 68  1  0
 64 72  1  0
 64 74  1  0
 65 71  1  0
 65 67  1  0
 66 72  1  0
 67 66  1  0
 68 67  2  0
 69 70  1  0
 69 63  2  0
 70 65  2  0
 71 64  1  0
 72 62  1  0
 74 76  2  0
 75 74  1  0
 77 75  1  0
 78 87  2  0
 78 83  1  0
 79 75  1  0
 79 83  1  0
 80 79  1  0
 81 82  1  0
 81 80  1  0
 82 78  1  0
 83 84  2  0
 84 85  1  0
 86 85  2  0
 87 86  1  0
 88 62  1  0
 88 93  1  0
 88 89  1  0
 89 92  1  1
 89 90  1  0
 91 89  1  0
 93 96  1  0
 94 93  1  0
 94 98  1  0
 95 94  2  0
 98 97  1  0
100 98  1  0
100101  1  0
100 99  1  0
M  ISO  4  14 100  22 100  60 101  61 101
M  END
>  <TORSDO>  (80) 
F 25

>  <SCORE>  (80) 
-9.605

>  <name>  (80) 
79

>  <ligand_id>  (80) 
79

>  <original_smiles>  (80) 
[H]OC([H])(C([H])([H])Oc1c([H])c([H])c2c(c1[H])C([H])([H])N(C(=O)C([H])(N([H])C(=O)C([H])(N([H])C([H])([H])[H])C([H])([H])[H])C(C([H])([H])[H])(C([H])([H])[H])C([H])([H])[H])C([H])(C(=O)N([H])C1([H])c3c([H])c([H])c([H])c([H])c3C([H])([H])C([H])([H])C1([H])[H])C2([H])[H])C([H])([H])[N+]([H])([H])C([H])([H])C([H])([H])C1([H])C([H])([H])C([H])([H])C(C([H])([H])[H])(C([H])([H])N([H])C(=O)N2C([H])([H])C([H])([H])C([H])([H])C([H])(n3nc(-c4c([H])c([H])c(Oc5c([H])c([H])c(F)c([H])c5F)c([H])c4[H])c(C(=O)N([H])[H])c3N([H])[H])C2([H])[H])C([H])([H])C1([H])[N+]([H])([H])[H]

>  <smiles>  (80) 
[H]OC([H])(C([H])([H])Oc1c([H])c([H])c2c(c1[H])C([H])([H])N(C(=O)C([H])(N([H])C(=O)C([H])(N([H])C([H])([H])[H])C([H])([H])[H])C(C([H])([H])[H])(C([H])([H])[H])C([H])([H])[H])C([H])(C(=O)N([H])C1([H])c3c([H])c([H])c([H])c([H])c3C([H])([H])C([H])([H])C1([H])[H])C2([H])[H])C([H])([H])[N+]([H])([H])C([H])([H])C([H])([H])C1([H])C([H])([H])C([H])([H])C(C([H])([H])[H])(C([H])([H])N([H])C(=O)N2C([H])([H])C([H])([H])C([H])([H])C([H])(n3nc(-c4c([H])c([H])c(Oc5c([H])c([H])c(F)c([H])c5F)c([H])c4[H])c(C(=O)N([H])[H])c3N([H])[H])C2([H])[H])C([H])([H])C1([H])[N+]([H])([H])[H]

$$$$
80:0:0
     RDKit          3D

100109  0  0  1  0  0  0  0  0999 V2000
  -28.3050  -20.5910   20.8990 C   0  0  0  0  0  0  0  0  0  0  0  0
  -28.2840  -19.3720   20.3460 N   0  0  0  0  0  0  0  0  0  0  0  0
  -28.8820  -20.8350   21.9590 O   0  0  0  0  0  0  0  0  0  0  0  0
  -27.7620  -19.2670   19.4880 H   0  0  0  0  0  0  0  0  0  0  0  0
  -27.1120  -22.8960   20.9770 C   0  0  0  0  0  2  0  0  0  0  0  0
  -28.4890  -22.2410   18.9700 C   0  0  0  0  0  2  0  0  0  0  0  0
  -28.2430  -23.8590   21.4040 C   0  0  0  0  0  2  0  0  0  0  0  0
  -29.6130  -23.1590   19.4850 C   0  0  0  0  0  2  0  0  0  0  0  0
  -27.5950  -21.7060   20.1090 C   0  0  0  0  0  3  0  0  0  0  0  0
  -29.0540  -24.3090   20.2390 N   0  0  2  0  0  4  0  0  0  0  0  0
  -28.4240  -24.7840   19.6060 H   0  0  0  0  0  0  0  0  0  0  0  0
  -30.0870  -25.3280   20.5700 C   0  0  0  0  0  2  0  0  0  0  0  0
  -29.5010  -26.7470   20.6200 C   0  0  0  0  0  2  0  0  0  0  0  0
  -28.7870  -26.9610   19.4040 O   0  0  0  0  0  0  0  0  0  0  0  0
  -24.6940  -31.4380   23.1450 C   0  0  0  0  0  0  0  0  0  0  0  0
  -27.5900  -27.6180   19.5410 C   0  0  0  0  0  0  0  0  0  0  0  0
  -23.5510  -30.1320   21.3760 C   0  0  0  0  0  3  0  0  0  0  0  0
  -25.0810  -28.8830   19.7620 C   0  0  0  0  0  0  0  0  0  0  0  0
  -26.0280  -30.7210   21.1720 C   0  0  0  0  0  2  0  0  0  0  0  0
  -26.2030  -29.4380   20.3900 C   0  0  0  0  0  0  0  0  0  0  0  0
  -27.4620  -28.8090   20.2880 C   0  0  0  0  0  3  0  0  0  0  0  0
  -26.4590  -27.0750   18.9010 C   0  0  0  0  0  3  0  0  0  0  0  0
  -25.2010  -27.6970   19.0170 C   0  0  0  0  0  3  0  0  0  0  0  0
  -23.7730  -29.6220   19.9260 C   0  0  0  0  0  2  0  0  0  0  0  0
  -24.7750  -30.7730   21.9580 N   0  0  0  0  0  0  0  0  0  0  0  0
  -23.6120  -31.5610   23.7340 O   0  0  0  0  0  0  0  0  0  0  0  0
  -23.0110  -28.9630   22.2310 C   0  0  0  0  0  0  0  0  0  0  0  0
  -21.7230  -28.6340   22.0440 N   0  0  0  0  0  0  0  0  0  0  0  0
  -23.7480  -28.3590   23.0140 O   0  0  0  0  0  0  0  0  0  0  0  0
  -21.1850  -29.1850   21.3890 H   0  0  0  0  0  0  0  0  0  0  0  0
  -18.5360  -26.9440   22.2490 C   0  0  0  0  0  0  0  0  0  0  0  0
  -21.0090  -27.5430   22.7060 C   0  0  0  0  0  3  0  0  0  0  0  0
  -21.3530  -26.1790   22.0630 C   0  0  0  0  0  2  0  0  0  0  0  0
  -20.3720  -25.7680   20.9610 C   0  0  0  0  0  2  0  0  0  0  0  0
  -18.9460  -25.6790   21.5140 C   0  0  0  0  0  2  0  0  0  0  0  0
  -19.5060  -27.8280   22.7940 C   0  0  0  0  0  0  0  0  0  0  0  0
  -19.0730  -29.0100   23.4340 C   0  0  0  0  0  3  0  0  0  0  0  0
  -17.7020  -29.3120   23.5360 C   0  0  0  0  0  3  0  0  0  0  0  0
  -16.7460  -28.4250   23.0100 C   0  0  0  0  0  3  0  0  0  0  0  0
  -17.1640  -27.2440   22.3720 C   0  0  0  0  0  3  0  0  0  0  0  0
  -25.9480  -32.0940   23.8040 C   0  0  0  0  0  3  0  0  0  0  0  0
  -25.5720  -33.4560   24.2070 N   0  0  0  0  0  0  0  0  0  0  0  0
  -25.8430  -34.5590   23.4980 C   0  0  0  0  0  0  0  0  0  0  0  0
  -26.5060  -34.5420   22.4570 O   0  0  0  0  0  0  0  0  0  0  0  0
  -24.9830  -33.5390   25.0230 H   0  0  0  0  0  0  0  0  0  0  0  0
  -24.0100  -36.2630   23.2510 C   0  0  0  0  0  1  0  0  0  0  0  0
  -25.2860  -35.8960   24.0260 C   0  0  0  0  0  3  0  0  0  0  0  0
  -27.3800  -36.8620   24.8680 C   0  0  0  0  0  1  0  0  0  0  0  0
  -26.2550  -37.0110   23.9490 N   0  0  0  0  0  0  0  0  0  0  0  0
  -25.7990  -37.8980   24.1490 H   0  0  0  0  0  0  0  0  0  0  0  0
  -26.5020  -31.2790   25.0370 C   0  0  1  0  0  0  0  0  0  0  0  0
  -25.4210  -30.9240   26.0850 C   0  0  0  0  0  1  0  0  0  0  0  0
  -27.1550  -29.9580   24.5650 C   0  0  0  0  0  1  0  0  0  0  0  0
  -27.6090  -32.0930   25.7500 C   0  0  0  0  0  1  0  0  0  0  0  0
  -29.0160  -18.1880   20.8040 C   0  0  0  0  0  2  0  0  0  0  0  0
  -31.3080  -18.5590   18.1600 C   0  0  0  0  0  2  0  0  0  0  0  0
  -31.1990  -19.0440   19.6040 C   0  0  0  0  0  2  0  0  0  0  0  0
  -30.0110  -17.7910   18.3980 C   0  0  0  0  0  2  0  0  0  0  0  0
  -30.2590  -17.8540   19.9310 C   0  0  2  0  0  0  0  0  0  0  0  0
  -31.0070  -16.6240   20.5370 C   0  0  0  0  0  3  0  0  0  0  0  0
  -30.8020  -14.3770   19.4490 C   0  0  0  0  0  0  0  0  0  0  0  0
  -30.3590  -12.1390   18.5140 C   0  0  0  0  0  2  0  0  0  0  0  0
  -29.2910  -12.2170   17.4080 C   0  0  0  0  0  2  0  0  0  0  0  0
  -27.8760  -12.1220   18.0090 C   0  0  0  0  0  2  0  0  0  0  0  0
  -27.6690  -13.0980   19.1970 C   0  0  0  0  0  3  0  0  0  0  0  0
  -28.8330  -12.9890   20.2040 C   0  0  0  0  0  2  0  0  0  0  0  0
  -30.0930  -13.2200   19.4750 N   0  0  0  0  0  0  0  0  0  0  0  0
  -31.7910  -14.5420   18.7310 O   0  0  0  0  0  0  0  0  0  0  0  0
  -30.3440  -15.3460   20.2550 N   0  0  0  0  0  0  0  0  0  0  0  0
  -29.5190  -15.1240   20.7920 H   0  0  0  0  0  0  0  0  0  0  0  0
  -25.4280  -13.8100   20.2430 C   0  0  0  0  0  0  0  0  0  0  0  0
  -24.3730  -13.0860   20.7310 C   0  0  0  0  0  0  0  0  0  0  0  0
  -24.7430  -11.7120   20.5930 C   0  0  0  0  0  0  0  0  0  0  0  0
  -26.3750  -12.8820   19.8450 N   0  0  0  0  0  0  0  0  0  0  0  0
  -25.9740  -11.6130   20.1090 N   0  0  0  0  0  0  0  0  0  0  0  0
  -23.9740  -10.4860   20.8410 C   0  0  0  0  0  0  0  0  0  0  0  0
  -24.4250   -9.5020   21.7500 C   0  0  0  0  0  3  0  0  0  0  0  0
  -23.6590   -8.3410   21.9860 C   0  0  0  0  0  3  0  0  0  0  0  0
  -22.4280   -8.1540   21.3140 C   0  0  0  0  0  0  0  0  0  0  0  0
  -21.9940   -9.1240   20.3940 C   0  0  0  0  0  3  0  0  0  0  0  0
  -22.7600  -10.2780   20.1570 C   0  0  0  0  0  3  0  0  0  0  0  0
  -21.6310   -7.0430   21.4590 O   0  0  0  0  0  0  0  0  0  0  0  0
  -21.5750   -6.3470   22.6390 C   0  0  0  0  0  0  0  0  0  0  0  0
  -21.1900   -6.9620   23.8500 C   0  0  0  0  0  3  0  0  0  0  0  0
  -21.0770   -6.1930   25.0250 C   0  0  0  0  0  3  0  0  0  0  0  0
  -21.3430   -4.8100   24.9910 C   0  0  0  0  0  0  0  0  0  0  0  0
  -21.7240   -4.1950   23.7850 C   0  0  0  0  0  3  0  0  0  0  0  0
  -21.8370   -4.9620   22.6120 C   0  0  0  0  0  0  0  0  0  0  0  0
  -22.1820   -4.3600   21.4490 F   0  0  0  0  0  0  0  0  0  0  0  0
  -21.2300   -4.0700   26.1200 F   0  0  0  0  0  0  0  0  0  0  0  0
  -23.0570  -13.6300   21.2090 C   0  0  0  0  0  0  0  0  0  0  0  0
  -22.4290  -12.9540   22.1660 N   0  0  0  0  0  0  0  0  0  0  0  0
  -22.6020  -14.6850   20.7720 O   0  0  0  0  0  0  0  0  0  0  0  0
  -22.8110  -12.0980   22.5390 H   0  0  0  0  0  0  0  0  0  0  0  0
  -21.5520  -13.2990   22.5310 H   0  0  0  0  0  0  0  0  0  0  0  0
  -25.6540  -15.1760   20.0880 N   0  0  0  0  0  0  0  0  0  0  0  0
  -24.9510  -15.8720   20.3090 H   0  0  0  0  0  0  0  0  0  0  0  0
  -26.4820  -15.5690   19.6570 H   0  0  0  0  0  0  0  0  0  0  0  0
  -32.0800  -15.5380   22.6140 C   0  0  0  0  0  1  0  0  0  0  0  0
  -31.2940  -16.7330   22.0540 C   0  0  0  0  0  2  0  0  0  0  0  0
  1  3  2  0
  2 55  1  0
  2  1  1  0
  4  2  1  0
  5  7  1  0
  6  8  1  0
  6  9  1  0
  8 10  1  0
  9  1  1  0
  9  5  1  0
 10 12  1  0
 10  7  1  0
 10 11  1  6
 12 13  1  0
 14 16  1  0
 14 13  1  0
 15 26  2  0
 16 21  1  0
 17 25  1  0
 17 27  1  0
 18 24  1  0
 18 20  1  0
 19 25  1  0
 20 19  1  0
 21 20  2  0
 22 23  1  0
 22 16  2  0
 23 18  2  0
 24 17  1  0
 25 15  1  0
 27 29  2  0
 28 27  1  0
 30 28  1  0
 31 40  2  0
 31 36  1  0
 32 28  1  0
 32 36  1  0
 33 32  1  0
 34 35  1  0
 34 33  1  0
 35 31  1  0
 36 37  2  0
 37 38  1  0
 39 38  2  0
 40 39  1  0
 41 15  1  0
 41 42  1  0
 41 51  1  0
 42 45  1  0
 43 47  1  0
 43 42  1  0
 44 43  2  0
 47 46  1  0
 49 47  1  0
 49 50  1  0
 49 48  1  0
 51 54  1  1
 51 52  1  0
 53 51  1  0
 56 58  1  0
 56 57  1  0
 57 59  1  0
 58 59  1  0
 59 60  1  0
 59 55  1  1
 60100  1  0
 61 67  1  0
 61 69  1  0
 62 67  1  0
 63 64  1  0
 63 62  1  0
 65 64  1  0
 65 74  1  0
 65 66  1  0
 67 66  1  0
 68 61  2  0
 69 60  1  0
 69 70  1  0
 71 72  2  0
 72 91  1  0
 73 72  1  0
 73 76  1  0
 74 75  1  0
 74 71  1  0
 75 73  2  0
 76 77  1  0
 77 78  2  0
 79 82  1  0
 79 78  1  0
 80 79  2  0
 81 80  1  0
 81 76  2  0
 82 83  1  0
 83 84  1  0
 84 85  2  0
 86 85  1  0
 86 90  1  0
 87 86  2  0
 88 83  2  0
 88 87  1  0
 89 88  1  0
 91 92  1  0
 92 95  1  0
 92 94  1  0
 93 91  2  0
 96 71  1  0
 96 97  1  0
 98 96  1  0
100 99  1  0
M  ISO  4  13 101  14 101  61 100  69 100
M  END
>  <TORSDO>  (81) 
F 23

>  <SCORE>  (81) 
-8.700

>  <name>  (81) 
80

>  <ligand_id>  (81) 
80

>  <original_smiles>  (81) 
[H]c1c([H])c([H])c2c(c1[H])C([H])([H])C([H])([H])C([H])([H])C2([H])N([H])C(=O)C1([H])N(C(=O)C([H])(N([H])C(=O)C([H])(N([H])C([H])([H])[H])C([H])([H])[H])C(C([H])([H])[H])(C([H])([H])[H])C([H])([H])[H])C([H])([H])c2c([H])c(OC([H])([H])C([H])([H])[N+]3([H])C([H])([H])C([H])([H])C([H])(C(=O)N([H])C([H])([H])C4(C([H])(N([H])C(=O)N5C([H])([H])C([H])([H])C([H])([H])C([H])(n6nc(-c7c([H])c([H])c(Oc8c([H])c([H])c(F)c([H])c8F)c([H])c7[H])c(C(=O)N([H])[H])c6N([H])[H])C5([H])[H])C([H])([H])C([H])([H])[H])C([H])([H])C([H])([H])C4([H])[H])C([H])([H])C3([H])[H])c([H])c([H])c2C1([H])[H]

>  <smiles>  (81) 
[H]c1c([H])c([H])c2c(c1[H])C([H])([H])C([H])([H])C([H])([H])C2([H])N([H])C(=O)C1([H])N(C(=O)C([H])(N([H])C(=O)C([H])(N([H])C([H])([H])[H])C([H])([H])[H])C(C([H])([H])[H])(C([H])([H])[H])C([H])([H])[H])C([H])([H])c2c([H])c(OC([H])([H])C([H])([H])[N+]3([H])C([H])([H])C([H])([H])C([H])(C(=O)N([H])C([H])([H])C4(C([H])(N([H])C(=O)N5C([H])([H])C([H])([H])C([H])([H])C([H])(n6nc(-c7c([H])c([H])c(Oc8c([H])c([H])c(F)c([H])c8F)c([H])c7[H])c(C(=O)N([H])[H])c6N([H])[H])C5([H])[H])C([H])([H])C([H])([H])[H])C([H])([H])C([H])([H])C4([H])[H])C([H])([H])C3([H])[H])c([H])c([H])c2C1([H])[H]

$$$$
81:0:0
     RDKit          3D

 94102  0  0  1  0  0  0  0  0999 V2000
  -27.6010  -23.1430   20.6560 C   0  0  0  0  0  3  0  0  0  0  0  0
  -27.4370  -21.7890   21.0210 C   0  0  0  0  0  3  0  0  0  0  0  0
  -29.5680  -22.4380   19.4240 C   0  0  0  0  0  3  0  0  0  0  0  0
  -28.6660  -23.5640   19.8460 C   0  0  0  0  0  0  0  0  0  0  0  0
  -28.3180  -20.7460   20.6260 C   0  0  0  0  0  0  0  0  0  0  0  0
  -29.4520  -20.9820   19.7970 C   0  0  0  0  0  0  0  0  0  0  0  0
  -28.0390  -19.3660   21.2000 C   0  0  0  0  0  1  0  0  0  0  0  0
  -28.6300  -25.1560   19.3580 C   0  0  0  0  0  2  0  0  0  0  0  0
  -28.3780  -26.4560   20.2030 O   0  0  0  0  0  0  0  0  0  0  0  0
  -24.6340  -31.9960   23.3250 C   0  0  0  0  0  0  0  0  0  0  0  0
  -27.2860  -27.4060   20.1260 C   0  0  0  0  0  0  0  0  0  0  0  0
  -23.4480  -30.6170   21.6610 C   0  0  0  0  0  3  0  0  0  0  0  0
  -24.9130  -29.1060   20.1770 C   0  0  0  0  0  0  0  0  0  0  0  0
  -25.9920  -30.9370   21.4750 C   0  0  0  0  0  2  0  0  0  0  0  0
  -26.0880  -29.5610   20.7860 C   0  0  0  0  0  0  0  0  0  0  0  0
  -27.2670  -28.7240   20.7480 C   0  0  0  0  0  3  0  0  0  0  0  0
  -26.0810  -27.0540   19.4830 C   0  0  0  0  0  3  0  0  0  0  0  0
  -24.9230  -27.8670   19.5150 C   0  0  0  0  0  3  0  0  0  0  0  0
  -23.6690  -29.9770   20.2630 C   0  0  0  0  0  2  0  0  0  0  0  0
  -24.7120  -31.2050   22.2100 N   0  0  0  0  0  0  0  0  0  0  0  0
  -23.5480  -32.2420   23.8710 O   0  0  0  0  0  0  0  0  0  0  0  0
  -22.8010  -29.5730   22.6080 C   0  0  0  0  0  0  0  0  0  0  0  0
  -21.4820  -29.3460   22.4650 N   0  0  0  0  0  0  0  0  0  0  0  0
  -23.4900  -28.9700   23.4350 O   0  0  0  0  0  0  0  0  0  0  0  0
  -20.9790  -29.8900   21.7780 H   0  0  0  0  0  0  0  0  0  0  0  0
  -18.1640  -27.9540   22.8800 C   0  0  0  0  0  0  0  0  0  0  0  0
  -20.6960  -28.3650   23.2180 C   0  0  0  0  0  3  0  0  0  0  0  0
  -20.8950  -26.9380   22.6520 C   0  0  0  0  0  2  0  0  0  0  0  0
  -19.8420  -26.5520   21.6090 C   0  0  0  0  0  2  0  0  0  0  0  0
  -18.4370  -26.6180   22.2130 C   0  0  0  0  0  2  0  0  0  0  0  0
  -19.2240  -28.7830   23.3390 C   0  0  0  0  0  0  0  0  0  0  0  0
  -18.9150  -30.0290   23.9230 C   0  0  0  0  0  3  0  0  0  0  0  0
  -17.5790  -30.4520   24.0550 C   0  0  0  0  0  3  0  0  0  0  0  0
  -16.5340  -29.6230   23.6140 C   0  0  0  0  0  3  0  0  0  0  0  0
  -16.8260  -28.3760   23.0320 C   0  0  0  0  0  3  0  0  0  0  0  0
  -25.9040  -32.6460   23.9560 C   0  0  0  0  0  3  0  0  0  0  0  0
  -25.5910  -34.0530   24.2540 N   0  0  0  0  0  0  0  0  0  0  0  0
  -25.9340  -35.0950   23.4840 C   0  0  0  0  0  0  0  0  0  0  0  0
  -26.6180  -34.9720   22.4640 O   0  0  0  0  0  0  0  0  0  0  0  0
  -24.9900  -34.2230   25.0470 H   0  0  0  0  0  0  0  0  0  0  0  0
  -24.2180  -36.8890   23.0830 C   0  0  0  0  0  1  0  0  0  0  0  0
  -25.4490  -36.4940   23.9130 C   0  0  0  0  0  3  0  0  0  0  0  0
  -27.5760  -37.3900   24.7500 C   0  0  0  0  0  1  0  0  0  0  0  0
  -26.4850  -37.5430   23.7900 N   0  0  0  0  0  0  0  0  0  0  0  0
  -26.0800  -38.4670   23.9170 H   0  0  0  0  0  0  0  0  0  0  0  0
  -26.3980  -31.9070   25.2610 C   0  0  1  0  0  0  0  0  0  0  0  0
  -25.2840  -31.6780   26.3100 C   0  0  0  0  0  1  0  0  0  0  0  0
  -27.0040  -30.5280   24.9130 C   0  0  0  0  0  1  0  0  0  0  0  0
  -27.5260  -32.7270   25.9310 C   0  0  0  0  0  1  0  0  0  0  0  0
  -30.5430  -19.7080   19.6050 C   0  0  0  0  0  3  0  0  0  0  0  0
  -30.2190  -18.0970   19.1110 C   0  0  0  0  0  2  0  0  0  0  0  0
  -31.2500  -15.5110   19.7060 C   0  0  0  0  0  0  0  0  0  0  0  0
  -31.1500  -13.0550   19.0480 C   0  0  0  0  0  2  0  0  0  0  0  0
  -30.1870  -12.8640   17.8490 C   0  0  0  0  0  2  0  0  0  0  0  0
  -28.7380  -12.6920   18.3380 C   0  0  0  0  0  2  0  0  0  0  0  0
  -28.3540  -13.7460   19.4080 C   0  0  0  0  0  3  0  0  0  0  0  0
  -29.4300  -13.8750   20.5100 C   0  0  0  0  0  2  0  0  0  0  0  0
  -30.6890  -14.2340   19.8450 N   0  0  0  0  0  0  0  0  0  0  0  0
  -32.4120  -15.5700   19.2880 O   0  0  0  0  0  0  0  0  0  0  0  0
  -30.4600  -16.6950   19.8630 N   0  0  0  0  0  0  0  0  0  0  0  0
  -29.6400  -16.4570   20.4030 H   0  0  0  0  0  0  0  0  0  0  0  0
  -26.0410  -14.4390   20.2540 C   0  0  0  0  0  0  0  0  0  0  0  0
  -24.9520  -13.7150   20.6560 C   0  0  0  0  0  0  0  0  0  0  0  0
  -25.3410  -12.3420   20.5830 C   0  0  0  0  0  0  0  0  0  0  0  0
  -27.0230  -13.5100   19.9570 N   0  0  0  0  0  0  0  0  0  0  0  0
  -26.6140  -12.2420   20.2200 N   0  0  0  0  0  0  0  0  0  0  0  0
  -24.5540  -11.1160   20.7800 C   0  0  0  0  0  0  0  0  0  0  0  0
  -24.9060  -10.1650   21.7620 C   0  0  0  0  0  3  0  0  0  0  0  0
  -24.1240   -9.0040   21.9460 C   0  0  0  0  0  3  0  0  0  0  0  0
  -22.9780   -8.7860   21.1470 C   0  0  0  0  0  0  0  0  0  0  0  0
  -22.6460   -9.7240   20.1540 C   0  0  0  0  0  3  0  0  0  0  0  0
  -23.4270  -10.8770   19.9690 C   0  0  0  0  0  3  0  0  0  0  0  0
  -22.1740   -7.6760   21.2380 O   0  0  0  0  0  0  0  0  0  0  0  0
  -21.9430   -7.0490   22.4360 C   0  0  0  0  0  0  0  0  0  0  0  0
  -21.3740   -7.7290   23.5350 C   0  0  0  0  0  3  0  0  0  0  0  0
  -21.0920   -7.0290   24.7260 C   0  0  0  0  0  3  0  0  0  0  0  0
  -21.3690   -5.6510   24.8160 C   0  0  0  0  0  0  0  0  0  0  0  0
  -21.9300   -4.9720   23.7200 C   0  0  0  0  0  3  0  0  0  0  0  0
  -22.2130   -5.6680   22.5330 C   0  0  0  0  0  0  0  0  0  0  0  0
  -22.7340   -5.0040   21.4740 F   0  0  0  0  0  0  0  0  0  0  0  0
  -21.0900   -4.9770   25.9560 F   0  0  0  0  0  0  0  0  0  0  0  0
  -23.5930  -14.2590   20.9880 C   0  0  0  0  0  0  0  0  0  0  0  0
  -22.8740  -13.6010   21.8890 N   0  0  0  0  0  0  0  0  0  0  0  0
  -23.1830  -15.3040   20.4840 O   0  0  0  0  0  0  0  0  0  0  0  0
  -23.2230  -12.7570   22.3190 H   0  0  0  0  0  0  0  0  0  0  0  0
  -21.9620  -13.9430   22.1530 H   0  0  0  0  0  0  0  0  0  0  0  0
  -26.2760  -15.8010   20.0900 N   0  0  0  0  0  0  0  0  0  0  0  0
  -25.5570  -16.4990   20.2430 H   0  0  0  0  0  0  0  0  0  0  0  0
  -27.1160  -16.1810   19.6720 H   0  0  0  0  0  0  0  0  0  0  0  0
  -31.7450  -20.2300   18.7840 C   0  0  0  0  0  2  0  0  0  0  0  0
  -32.9300  -19.3510   18.8500 N   0  0  0  0  0  4  0  0  0  0  0  0
  -33.3290  -19.3690   19.7710 H   0  0  0  0  0  0  0  0  0  0  0  0
  -33.6290  -19.6760   18.2060 H   0  0  0  0  0  0  0  0  0  0  0  0
  -32.7050  -18.4000   18.6120 H   0  0  0  0  0  0  0  0  0  0  0  0
  1  2  1  0
  3  6  2  0
  3  4  1  0
  4  1  2  0
  5  2  2  0
  5  7  1  0
  6  5  1  0
  8  4  1  0
  8  9  1  0
 10 21  2  0
 11  9  1  0
 11 16  1  0
 12 20  1  0
 12 22  1  0
 13 19  1  0
 13 15  1  0
 14 20  1  0
 15 14  1  0
 16 15  2  0
 17 18  1  0
 17 11  2  0
 18 13  2  0
 19 12  1  0
 20 10  1  0
 22 24  2  0
 23 22  1  0
 25 23  1  0
 26 35  2  0
 26 31  1  0
 27 23  1  0
 27 31  1  0
 28 27  1  0
 29 30  1  0
 29 28  1  0
 30 26  1  0
 31 32  2  0
 32 33  1  0
 34 33  2  0
 35 34  1  0
 36 10  1  0
 36 37  1  0
 36 46  1  0
 37 40  1  0
 38 42  1  0
 38 37  1  0
 39 38  2  0
 42 41  1  0
 44 42  1  0
 44 45  1  0
 44 43  1  0
 46 49  1  1
 46 47  1  0
 48 46  1  0
 50 90  1  0
 50  6  1  0
 51 50  1  0
 51 60  1  0
 52 58  1  0
 52 60  1  0
 53 58  1  0
 54 55  1  0
 54 53  1  0
 56 55  1  0
 56 65  1  0
 56 57  1  0
 58 57  1  0
 59 52  2  0
 60 61  1  0
 62 63  2  0
 63 82  1  0
 64 63  1  0
 64 67  1  0
 65 66  1  0
 65 62  1  0
 66 64  2  0
 67 68  1  0
 68 69  2  0
 70 73  1  0
 70 69  1  0
 71 70  2  0
 72 71  1  0
 72 67  2  0
 73 74  1  0
 74 79  2  0
 74 75  1  0
 75 76  2  0
 76 77  1  0
 77 81  1  0
 78 77  2  0
 79 78  1  0
 80 79  1  0
 82 83  1  0
 83 86  1  0
 83 85  1  0
 84 82  2  0
 87 88  1  0
 87 62  1  0
 89 87  1  0
 90 91  1  0
 91 92  1  0
 93 91  1  0
 94 91  1  0
M  ISO  4   8 101   9 101  52 100  60 100
M  END
>  <TORSDO>  (82) 
F 21

>  <SCORE>  (82) 
-11.844

>  <name>  (82) 
81

>  <ligand_id>  (82) 
81

>  <original_smiles>  (82) 
[H]c1c([H])c([H])c2c(c1[H])C([H])([H])C([H])([H])C([H])([H])C2([H])N([H])C(=O)C1([H])N(C(=O)C([H])(N([H])C(=O)C([H])(N([H])C([H])([H])[H])C([H])([H])[H])C(C([H])([H])[H])(C([H])([H])[H])C([H])([H])[H])C([H])([H])c2c([H])c(OC([H])([H])c3c([H])c([H])c(C([H])([H])[H])c(C([H])(C([H])([H])N([H])C(=O)N4C([H])([H])C([H])([H])C([H])([H])C([H])(n5nc(-c6c([H])c([H])c(Oc7c([H])c([H])c(F)c([H])c7F)c([H])c6[H])c(C(=O)N([H])[H])c5N([H])[H])C4([H])[H])C([H])([H])[N+]([H])([H])[H])c3[H])c([H])c([H])c2C1([H])[H]

>  <smiles>  (82) 
[H]c1c([H])c([H])c2c(c1[H])C([H])([H])C([H])([H])C([H])([H])C2([H])N([H])C(=O)C1([H])N(C(=O)C([H])(N([H])C(=O)C([H])(N([H])C([H])([H])[H])C([H])([H])[H])C(C([H])([H])[H])(C([H])([H])[H])C([H])([H])[H])C([H])([H])c2c([H])c(OC([H])([H])c3c([H])c([H])c(C([H])([H])[H])c(C([H])(C([H])([H])N([H])C(=O)N4C([H])([H])C([H])([H])C([H])([H])C([H])(n5nc(-c6c([H])c([H])c(Oc7c([H])c([H])c(F)c([H])c7F)c([H])c6[H])c(C(=O)N([H])[H])c5N([H])[H])C4([H])[H])C([H])([H])[N+]([H])([H])[H])c3[H])c([H])c([H])c2C1([H])[H]

$$$$
82:0:0
     RDKit          3D

 92100  0  0  1  0  0  0  0  0999 V2000
  -31.0140  -22.4220   21.1680 C   0  0  0  0  0  3  0  0  0  0  0  0
  -30.1340  -23.5030   20.9110 C   0  0  0  0  0  3  0  0  0  0  0  0
  -30.6660  -21.0610   20.9560 C   0  0  0  0  0  3  0  0  0  0  0  0
  -28.5060  -21.8530   20.2150 C   0  0  0  0  0  3  0  0  0  0  0  0
  -28.8290  -23.2980   20.4210 C   0  0  0  0  0  0  0  0  0  0  0  0
  -29.3960  -20.6780   20.4640 C   0  0  0  0  0  0  0  0  0  0  0  0
  -27.8640  -24.6160   20.1330 C   0  0  0  0  0  2  0  0  0  0  0  0
  -28.2000  -26.1370   20.3370 O   0  0  0  0  0  0  0  0  0  0  0  0
  -24.6130  -31.9050   23.2630 C   0  0  0  0  0  0  0  0  0  0  0  0
  -27.1680  -27.1540   20.2530 C   0  0  0  0  0  0  0  0  0  0  0  0
  -23.4100  -30.5180   21.6200 C   0  0  0  0  0  3  0  0  0  0  0  0
  -24.8550  -28.9340   20.2010 C   0  0  0  0  0  0  0  0  0  0  0  0
  -25.9670  -30.7620   21.4670 C   0  0  0  0  0  2  0  0  0  0  0  0
  -26.0350  -29.3670   20.8200 C   0  0  0  0  0  0  0  0  0  0  0  0
  -27.1910  -28.4920   20.8300 C   0  0  0  0  0  3  0  0  0  0  0  0
  -25.9620  -26.8340   19.5910 C   0  0  0  0  0  3  0  0  0  0  0  0
  -24.8310  -27.6800   19.5740 C   0  0  0  0  0  3  0  0  0  0  0  0
  -23.6350  -29.8400   20.2430 C   0  0  0  0  0  2  0  0  0  0  0  0
  -24.6830  -31.0830   22.1730 N   0  0  0  0  0  0  0  0  0  0  0  0
  -23.5270  -32.2000   23.7860 O   0  0  0  0  0  0  0  0  0  0  0  0
  -22.7200  -29.5160   22.5800 C   0  0  0  0  0  0  0  0  0  0  0  0
  -21.3920  -29.3470   22.4420 N   0  0  0  0  0  0  0  0  0  0  0  0
  -23.3820  -28.8940   23.4150 O   0  0  0  0  0  0  0  0  0  0  0  0
  -20.9130  -29.9030   21.7480 H   0  0  0  0  0  0  0  0  0  0  0  0
  -18.0070  -28.1510   22.9170 C   0  0  0  0  0  0  0  0  0  0  0  0
  -20.5630  -28.4140   23.2090 C   0  0  0  0  0  3  0  0  0  0  0  0
  -20.6700  -26.9790   22.6440 C   0  0  0  0  0  2  0  0  0  0  0  0
  -19.5780  -26.6510   21.6200 C   0  0  0  0  0  2  0  0  0  0  0  0
  -18.1910  -26.7990   22.2490 C   0  0  0  0  0  2  0  0  0  0  0  0
  -19.1220  -28.9160   23.3540 C   0  0  0  0  0  0  0  0  0  0  0  0
  -18.8960  -30.1800   23.9410 C   0  0  0  0  0  3  0  0  0  0  0  0
  -17.5890  -30.6800   24.0950 C   0  0  0  0  0  3  0  0  0  0  0  0
  -16.4900  -29.9130   23.6740 C   0  0  0  0  0  3  0  0  0  0  0  0
  -16.6980  -28.6520   23.0880 C   0  0  0  0  0  3  0  0  0  0  0  0
  -25.8900  -32.5340   23.8970 C   0  0  0  0  0  3  0  0  0  0  0  0
  -26.3900  -31.7590   25.1780 C   0  0  1  0  0  0  0  0  0  0  0  0
  -25.2840  -31.5370   26.2360 C   0  0  0  0  0  1  0  0  0  0  0  0
  -26.9620  -30.3730   24.7980 C   0  0  0  0  0  1  0  0  0  0  0  0
  -27.5410  -32.5430   25.8490 C   0  0  0  0  0  1  0  0  0  0  0  0
  -25.5840  -33.9350   24.2290 N   0  0  0  0  0  0  0  0  0  0  0  0
  -25.9040  -34.9900   23.4680 C   0  0  0  0  0  0  0  0  0  0  0  0
  -26.5510  -34.8850   22.4220 O   0  0  0  0  0  0  0  0  0  0  0  0
  -24.9990  -34.0910   25.0360 H   0  0  0  0  0  0  0  0  0  0  0  0
  -24.1580  -36.7790   23.1780 C   0  0  0  0  0  1  0  0  0  0  0  0
  -25.4320  -36.3790   23.9380 C   0  0  0  0  0  3  0  0  0  0  0  0
  -27.5920  -37.2790   24.6790 C   0  0  0  0  0  1  0  0  0  0  0  0
  -26.4550  -37.4340   23.7770 N   0  0  0  0  0  0  0  0  0  0  0  0
  -26.0510  -38.3540   23.9320 H   0  0  0  0  0  0  0  0  0  0  0  0
  -29.0840  -19.0540   20.2070 C   0  0  0  0  0  3  0  0  0  0  0  0
  -28.7660  -18.8780   18.7870 N   0  0  0  0  0  4  0  0  0  0  0  0
  -29.5820  -19.0450   18.2280 H   0  0  0  0  0  0  0  0  0  0  0  0
  -28.0480  -19.5200   18.5070 H   0  0  0  0  0  0  0  0  0  0  0  0
  -28.4490  -17.9410   18.6170 H   0  0  0  0  0  0  0  0  0  0  0  0
  -30.0620  -17.7350   20.6560 C   0  0  0  0  0  2  0  0  0  0  0  0
  -30.4990  -15.0080   20.3100 C   0  0  0  0  0  0  0  0  0  0  0  0
  -30.3900  -12.6580   19.3470 C   0  0  0  0  0  2  0  0  0  0  0  0
  -29.4490  -12.6050   18.1190 C   0  0  0  0  0  2  0  0  0  0  0  0
  -27.9830  -12.3990   18.5530 C   0  0  0  0  0  2  0  0  0  0  0  0
  -27.5840  -13.3000   19.7510 C   0  0  0  0  0  3  0  0  0  0  0  0
  -28.6510  -13.3120   20.8630 C   0  0  0  0  0  2  0  0  0  0  0  0
  -29.9050  -13.7470   20.2430 N   0  0  0  0  0  0  0  0  0  0  0  0
  -31.7050  -15.0770   20.0540 O   0  0  0  0  0  0  0  0  0  0  0  0
  -29.7140  -16.1910   20.4580 N   0  0  0  0  0  0  0  0  0  0  0  0
  -28.7300  -15.9860   20.5440 H   0  0  0  0  0  0  0  0  0  0  0  0
  -25.2070  -13.8580   20.5210 C   0  0  0  0  0  0  0  0  0  0  0  0
  -24.1530  -13.0740   20.8960 C   0  0  0  0  0  0  0  0  0  0  0  0
  -24.6270  -11.7280   20.8540 C   0  0  0  0  0  0  0  0  0  0  0  0
  -26.2540  -12.9890   20.2630 N   0  0  0  0  0  0  0  0  0  0  0  0
  -25.9150  -11.7020   20.5300 N   0  0  0  0  0  0  0  0  0  0  0  0
  -23.9100  -10.4580   21.0420 C   0  0  0  0  0  0  0  0  0  0  0  0
  -24.3590   -9.4860   21.9620 C   0  0  0  0  0  3  0  0  0  0  0  0
  -23.6420   -8.2850   22.1430 C   0  0  0  0  0  3  0  0  0  0  0  0
  -22.4610   -8.0450   21.4000 C   0  0  0  0  0  0  0  0  0  0  0  0
  -22.0300   -9.0060   20.4670 C   0  0  0  0  0  3  0  0  0  0  0  0
  -22.7490  -10.2010   20.2850 C   0  0  0  0  0  3  0  0  0  0  0  0
  -21.7150   -6.8950   21.4870 O   0  0  0  0  0  0  0  0  0  0  0  0
  -21.6850   -6.1410   22.6340 C   0  0  0  0  0  0  0  0  0  0  0  0
  -21.2630   -6.6780   23.8690 C   0  0  0  0  0  3  0  0  0  0  0  0
  -21.1850   -5.8490   25.0060 C   0  0  0  0  0  3  0  0  0  0  0  0
  -21.5170   -4.4840   24.9070 C   0  0  0  0  0  0  0  0  0  0  0  0
  -21.9340   -3.9470   23.6760 C   0  0  0  0  0  3  0  0  0  0  0  0
  -22.0160   -4.7740   22.5420 C   0  0  0  0  0  0  0  0  0  0  0  0
  -22.3970   -4.2470   21.3530 F   0  0  0  0  0  0  0  0  0  0  0  0
  -21.4340   -3.6850   25.9970 F   0  0  0  0  0  0  0  0  0  0  0  0
  -22.7530  -13.5400   21.1770 C   0  0  0  0  0  0  0  0  0  0  0  0
  -22.0380  -12.8380   22.0460 N   0  0  0  0  0  0  0  0  0  0  0  0
  -22.3070  -14.5640   20.6620 O   0  0  0  0  0  0  0  0  0  0  0  0
  -22.4210  -12.0140   22.4900 H   0  0  0  0  0  0  0  0  0  0  0  0
  -21.0940  -13.1210   22.2650 H   0  0  0  0  0  0  0  0  0  0  0  0
  -25.3570  -15.2310   20.3460 N   0  0  0  0  0  0  0  0  0  0  0  0
  -24.5730  -15.8660   20.4430 H   0  0  0  0  0  0  0  0  0  0  0  0
  -26.1680  -15.6650   19.9260 H   0  0  0  0  0  0  0  0  0  0  0  0
  2  1  2  0
  3  1  1  0
  4  5  2  0
  4  6  1  0
  5  2  1  0
  6  3  2  0
  7  8  1  0
  7  5  1  0
  9 20  2  0
 10  8  1  0
 10 15  1  0
 11 19  1  0
 11 21  1  0
 12 18  1  0
 12 14  1  0
 13 19  1  0
 14 15  2  0
 14 13  1  0
 16 10  2  0
 17 16  1  0
 17 12  2  0
 18 11  1  0
 19  9  1  0
 21 23  2  0
 22 21  1  0
 24 22  1  0
 25 34  2  0
 25 30  1  0
 26 22  1  0
 26 30  1  0
 27 26  1  0
 28 29  1  0
 28 27  1  0
 29 25  1  0
 30 31  2  0
 31 32  1  0
 33 32  2  0
 34 33  1  0
 35  9  1  0
 35 40  1  0
 35 36  1  0
 36 39  1  1
 36 37  1  0
 38 36  1  0
 40 43  1  0
 41 45  1  0
 41 40  1  0
 42 41  2  0
 45 44  1  0
 47 48  1  0
 47 45  1  0
 47 46  1  0
 49  6  1  0
 49 54  1  0
 50 49  1  0
 51 50  1  0
 52 50  1  0
 53 50  1  0
 55 63  1  0
 56 61  1  0
 57 58  1  0
 57 56  1  0
 59 58  1  0
 59 68  1  0
 59 60  1  0
 61 55  1  0
 61 60  1  0
 62 55  2  0
 63 64  1  0
 63 54  1  0
 65 66  2  0
 66 85  1  0
 67 66  1  0
 67 70  1  0
 68 65  1  0
 68 69  1  0
 69 67  2  0
 70 71  1  0
 71 72  2  0
 73 76  1  0
 73 72  1  0
 74 73  2  0
 75 74  1  0
 75 70  2  0
 76 77  1  0
 77 78  1  0
 78 79  2  0
 80 79  1  0
 80 84  1  0
 81 80  2  0
 82 77  2  0
 82 81  1  0
 83 82  1  0
 85 86  1  0
 86 89  1  0
 86 88  1  0
 87 85  2  0
 90 91  1  0
 90 65  1  0
 92 90  1  0
M  ISO  4   7 101   8 101  55 100  63 100
M  END
>  <TORSDO>  (83) 
F 20

>  <SCORE>  (83) 
-14.719

>  <name>  (83) 
82

>  <ligand_id>  (83) 
82

>  <original_smiles>  (83) 
[H]c1c([H])c([H])c2c(c1[H])C([H])([H])C([H])([H])C([H])([H])C2([H])N([H])C(=O)C1([H])N(C(=O)C([H])(N([H])C(=O)C([H])(N([H])C([H])([H])[H])C([H])([H])[H])C(C([H])([H])[H])(C([H])([H])[H])C([H])([H])[H])C([H])([H])c2c([H])c(OC([H])([H])c3c([H])c([H])c([H])c(C([H])(C([H])([H])N([H])C(=O)N4C([H])([H])C([H])([H])C([H])([H])C([H])(n5nc(-c6c([H])c([H])c(Oc7c([H])c([H])c(F)c([H])c7F)c([H])c6[H])c(C(=O)N([H])[H])c5N([H])[H])C4([H])[H])[N+]([H])([H])[H])c3[H])c([H])c([H])c2C1([H])[H]

>  <smiles>  (83) 
[H]c1c([H])c([H])c2c(c1[H])C([H])([H])C([H])([H])C([H])([H])C2([H])N([H])C(=O)C1([H])N(C(=O)C([H])(N([H])C(=O)C([H])(N([H])C([H])([H])[H])C([H])([H])[H])C(C([H])([H])[H])(C([H])([H])[H])C([H])([H])[H])C([H])([H])c2c([H])c(OC([H])([H])c3c([H])c([H])c([H])c(C([H])(C([H])([H])N([H])C(=O)N4C([H])([H])C([H])([H])C([H])([H])C([H])(n5nc(-c6c([H])c([H])c(Oc7c([H])c([H])c(F)c([H])c7F)c([H])c6[H])c(C(=O)N([H])[H])c5N([H])[H])C4([H])[H])[N+]([H])([H])[H])c3[H])c([H])c([H])c2C1([H])[H]

$$$$
83:0:0
     RDKit          3D

 96105  0  0  1  0  0  0  0  0999 V2000
  -29.0500  -18.8250   19.5660 C   0  0  0  0  0  2  0  0  0  0  0  0
  -29.0480  -20.4000   22.3020 C   0  0  0  0  0  2  0  0  0  0  0  0
  -29.5580  -18.2030   20.8780 C   0  0  0  0  0  3  0  0  0  0  0  0
  -29.6890  -20.1700   19.9530 C   0  0  0  0  0  3  0  0  0  0  0  0
  -29.9420  -19.6230   21.3490 C   0  0  0  0  0  3  0  0  0  0  0  0
  -28.8540  -21.4380   20.0890 C   0  0  0  0  0  3  0  0  0  0  0  0
  -28.3630  -21.4370   21.4910 N   0  0  0  0  0  4  0  0  0  0  0  0
  -28.4850  -22.3400   21.9180 H   0  0  0  0  0  0  0  0  0  0  0  0
  -27.3780  -21.2270   21.4870 H   0  0  0  0  0  0  0  0  0  0  0  0
  -31.2160  -14.9070   20.2570 C   0  0  0  0  0  0  0  0  0  0  0  0
  -30.9400  -12.7350   19.1440 C   0  0  0  0  0  2  0  0  0  0  0  0
  -29.9680  -12.9190   17.9610 C   0  0  0  0  0  2  0  0  0  0  0  0
  -28.5080  -12.7500   18.4230 C   0  0  0  0  0  2  0  0  0  0  0  0
  -28.1750  -13.5820   19.6900 C   0  0  0  0  0  3  0  0  0  0  0  0
  -29.2620  -13.3970   20.7760 C   0  0  0  0  0  2  0  0  0  0  0  0
  -30.5670  -13.7170   20.1710 N   0  0  0  0  0  0  0  0  0  0  0  0
  -32.3600  -15.0620   19.8140 O   0  0  0  0  0  0  0  0  0  0  0  0
  -30.7390  -17.2370   20.6760 C   0  0  0  0  0  0  0  0  0  0  0  0
  -30.4370  -15.9270   20.6570 N   0  0  0  0  0  0  0  0  0  0  0  0
  -31.8760  -17.7040   20.5280 O   0  0  0  0  0  0  0  0  0  0  0  0
  -29.4840  -15.6840   20.8720 H   0  0  0  0  0  0  0  0  0  0  0  0
  -25.7970  -14.1280   20.5110 C   0  0  0  0  0  0  0  0  0  0  0  0
  -24.7500  -13.3260   20.8790 C   0  0  0  0  0  0  0  0  0  0  0  0
  -25.2220  -11.9830   20.7660 C   0  0  0  0  0  0  0  0  0  0  0  0
  -26.8420  -13.2710   20.2020 N   0  0  0  0  0  0  0  0  0  0  0  0
  -26.5020  -11.9730   20.4160 N   0  0  0  0  0  0  0  0  0  0  0  0
  -24.5180  -10.7030   20.9170 C   0  0  0  0  0  0  0  0  0  0  0  0
  -24.9290   -9.7420   21.8660 C   0  0  0  0  0  3  0  0  0  0  0  0
  -24.2260   -8.5260   22.0040 C   0  0  0  0  0  3  0  0  0  0  0  0
  -23.0970   -8.2620   21.1920 C   0  0  0  0  0  0  0  0  0  0  0  0
  -22.7050   -9.2130   20.2320 C   0  0  0  0  0  3  0  0  0  0  0  0
  -23.4100  -10.4210   20.0920 C   0  0  0  0  0  3  0  0  0  0  0  0
  -22.3680   -7.0980   21.2380 O   0  0  0  0  0  0  0  0  0  0  0  0
  -22.1680   -6.4220   22.4160 C   0  0  0  0  0  0  0  0  0  0  0  0
  -21.5410   -7.0280   23.5260 C   0  0  0  0  0  3  0  0  0  0  0  0
  -21.2920   -6.2750   24.6910 C   0  0  0  0  0  3  0  0  0  0  0  0
  -21.6610   -4.9160   24.7430 C   0  0  0  0  0  0  0  0  0  0  0  0
  -22.2810   -4.3110   23.6370 C   0  0  0  0  0  3  0  0  0  0  0  0
  -22.5310   -5.0610   22.4750 C   0  0  0  0  0  0  0  0  0  0  0  0
  -23.1090   -4.4660   21.4030 F   0  0  0  0  0  0  0  0  0  0  0  0
  -21.4120   -4.1900   25.8590 F   0  0  0  0  0  0  0  0  0  0  0  0
  -23.3550  -13.7700   21.2180 C   0  0  0  0  0  0  0  0  0  0  0  0
  -22.6710  -13.0360   22.0880 N   0  0  0  0  0  0  0  0  0  0  0  0
  -22.8830  -14.8050   20.7480 O   0  0  0  0  0  0  0  0  0  0  0  0
  -23.0680  -12.2000   22.4920 H   0  0  0  0  0  0  0  0  0  0  0  0
  -21.7370  -13.3140   22.3570 H   0  0  0  0  0  0  0  0  0  0  0  0
  -25.9420  -15.5070   20.3920 N   0  0  0  0  0  0  0  0  0  0  0  0
  -25.1630  -16.1400   20.5400 H   0  0  0  0  0  0  0  0  0  0  0  0
  -26.7510  -15.9640   19.9930 H   0  0  0  0  0  0  0  0  0  0  0  0
  -29.6750  -22.7050   19.7590 C   0  0  0  0  0  2  0  0  0  0  0  0
  -29.5780  -25.1670   19.9680 C   0  0  0  0  0  0  0  0  0  0  0  0
  -29.0110  -23.9600   20.1240 N   0  0  0  0  0  0  0  0  0  0  0  0
  -30.7180  -25.3030   19.5130 O   0  0  0  0  0  0  0  0  0  0  0  0
  -28.0540  -23.9390   20.4530 H   0  0  0  0  0  0  0  0  0  0  0  0
  -28.7550  -26.4000   20.3560 C   0  0  0  0  0  2  0  0  0  0  0  0
  -28.3170  -27.0590   19.1700 O   0  0  0  0  0  0  0  0  0  0  0  0
  -24.6260  -31.7080   23.1020 C   0  0  0  0  0  0  0  0  0  0  0  0
  -27.1620  -27.7710   19.3510 C   0  0  0  0  0  0  0  0  0  0  0  0
  -23.3510  -30.4910   21.3670 C   0  0  0  0  0  3  0  0  0  0  0  0
  -24.7480  -29.1790   19.6830 C   0  0  0  0  0  0  0  0  0  0  0  0
  -25.8500  -30.9420   21.0730 C   0  0  0  0  0  2  0  0  0  0  0  0
  -25.9240  -29.6610   20.2710 C   0  0  0  0  0  0  0  0  0  0  0  0
  -27.1380  -28.9590   20.1110 C   0  0  0  0  0  3  0  0  0  0  0  0
  -25.9790  -27.2980   18.7550 C   0  0  0  0  0  3  0  0  0  0  0  0
  -24.7670  -27.9950   18.9240 C   0  0  0  0  0  3  0  0  0  0  0  0
  -23.4920  -29.9920   19.9030 C   0  0  0  0  0  2  0  0  0  0  0  0
  -24.6300  -31.0550   21.9070 N   0  0  0  0  0  0  0  0  0  0  0  0
  -23.5740  -31.8850   23.7320 O   0  0  0  0  0  0  0  0  0  0  0  0
  -22.7740  -29.3440   22.2250 C   0  0  0  0  0  0  0  0  0  0  0  0
  -21.4520  -29.1310   22.1260 N   0  0  0  0  0  0  0  0  0  0  0  0
  -23.5100  -28.6530   22.9370 O   0  0  0  0  0  0  0  0  0  0  0  0
  -20.9190  -29.7460   21.5280 H   0  0  0  0  0  0  0  0  0  0  0  0
  -18.1550  -27.7060   22.5230 C   0  0  0  0  0  0  0  0  0  0  0  0
  -20.6960  -28.0830   22.8130 C   0  0  0  0  0  3  0  0  0  0  0  0
  -20.8750  -26.7170   22.1090 C   0  0  0  0  0  2  0  0  0  0  0  0
  -19.7870  -26.4240   21.0720 C   0  0  0  0  0  2  0  0  0  0  0  0
  -18.4040  -26.4340   21.7310 C   0  0  0  0  0  2  0  0  0  0  0  0
  -19.2320  -28.4900   23.0160 C   0  0  0  0  0  0  0  0  0  0  0  0
  -18.9470  -29.6840   23.7150 C   0  0  0  0  0  3  0  0  0  0  0  0
  -17.6160  -30.0940   23.9270 C   0  0  0  0  0  3  0  0  0  0  0  0
  -16.5550  -29.3070   23.4490 C   0  0  0  0  0  3  0  0  0  0  0  0
  -16.8250  -28.1150   22.7530 C   0  0  0  0  0  3  0  0  0  0  0  0
  -25.9380  -32.2870   23.7240 C   0  0  0  0  0  3  0  0  0  0  0  0
  -26.4950  -31.4200   24.9190 C   0  0  1  0  0  0  0  0  0  0  0  0
  -25.4460  -31.1230   26.0160 C   0  0  0  0  0  1  0  0  0  0  0  0
  -27.0350  -30.0670   24.4010 C   0  0  0  0  0  1  0  0  0  0  0  0
  -27.6880  -32.1490   25.5820 C   0  0  0  0  0  1  0  0  0  0  0  0
  -25.6550  -33.6590   24.1630 N   0  0  0  0  0  0  0  0  0  0  0  0
  -25.9750  -34.7590   23.4690 C   0  0  0  0  0  0  0  0  0  0  0  0
  -26.6100  -34.7240   22.4130 O   0  0  0  0  0  0  0  0  0  0  0  0
  -25.0900  -33.7600   24.9930 H   0  0  0  0  0  0  0  0  0  0  0  0
  -24.2470  -36.5780   23.2980 C   0  0  0  0  0  1  0  0  0  0  0  0
  -25.5110  -36.1140   24.0370 C   0  0  0  0  0  3  0  0  0  0  0  0
  -27.6740  -36.9340   24.8620 C   0  0  0  0  0  1  0  0  0  0  0  0
  -26.5480  -37.1670   23.9610 N   0  0  0  0  0  0  0  0  0  0  0  0
  -26.1510  -38.0780   24.1780 H   0  0  0  0  0  0  0  0  0  0  0  0
  1  3  1  0
  3 18  1  0
  3  5  1  0
  4  1  1  0
  4  6  1  0
  4  5  1  0
  5  2  1  0
  6 50  1  0
  6  7  1  0
  7  8  1  0
  7  2  1  0
  9  7  1  0
 10 19  1  0
 11 16  1  0
 12 13  1  0
 12 11  1  0
 14 13  1  0
 14 25  1  0
 14 15  1  0
 16 10  1  0
 16 15  1  0
 17 10  2  0
 19 18  1  0
 19 21  1  0
 20 18  2  0
 22 23  2  0
 23 42  1  0
 24 23  1  0
 24 27  1  0
 25 26  1  0
 25 22  1  0
 26 24  2  0
 27 28  1  0
 28 29  2  0
 30 33  1  0
 30 29  1  0
 31 30  2  0
 32 31  1  0
 32 27  2  0
 33 34  1  0
 34 39  2  0
 34 35  1  0
 35 36  2  0
 36 37  1  0
 37 41  1  0
 38 37  2  0
 39 38  1  0
 40 39  1  0
 42 43  1  0
 43 46  1  0
 43 45  1  0
 44 42  2  0
 47 22  1  0
 47 48  1  0
 49 47  1  0
 50 52  1  0
 51 52  1  0
 51 55  1  0
 52 54  1  0
 53 51  2  0
 56 58  1  0
 56 55  1  0
 57 68  2  0
 58 63  1  0
 59 67  1  0
 59 69  1  0
 60 66  1  0
 60 62  1  0
 61 67  1  0
 62 61  1  0
 63 62  2  0
 64 65  1  0
 64 58  2  0
 65 60  2  0
 66 59  1  0
 67 57  1  0
 69 71  2  0
 70 69  1  0
 72 70  1  0
 73 82  2  0
 73 78  1  0
 74 70  1  0
 74 78  1  0
 75 74  1  0
 76 77  1  0
 76 75  1  0
 77 73  1  0
 78 79  2  0
 79 80  1  0
 81 80  2  0
 82 81  1  0
 83 57  1  0
 83 88  1  0
 83 84  1  0
 84 87  1  1
 84 85  1  0
 86 84  1  0
 88 91  1  0
 89 93  1  0
 89 88  1  0
 90 89  2  0
 93 92  1  0
 95 93  1  0
 95 96  1  0
 95 94  1  0
M  ISO  4  10 100  19 100  55 101  56 101
M  END
>  <TORSDO>  (84) 
F 19

>  <SCORE>  (84) 
-11.568

>  <name>  (84) 
83

>  <ligand_id>  (84) 
83

>  <original_smiles>  (84) 
[H]c1c([H])c([H])c2c(c1[H])C([H])([H])C([H])([H])C([H])([H])C2([H])N([H])C(=O)C1([H])N(C(=O)C([H])(N([H])C(=O)C([H])(N([H])C([H])([H])[H])C([H])([H])[H])C(C([H])([H])[H])(C([H])([H])[H])C([H])([H])[H])C([H])([H])c2c([H])c(OC([H])([H])C(=O)N([H])C([H])([H])C3([H])C4([H])C([H])([H])C([H])(C(=O)N([H])C(=O)N5C([H])([H])C([H])([H])C([H])([H])C([H])(n6nc(-c7c([H])c([H])c(Oc8c([H])c([H])c(F)c([H])c8F)c([H])c7[H])c(C(=O)N([H])[H])c6N([H])[H])C5([H])[H])C4([H])C([H])([H])[N+]3([H])[H])c([H])c([H])c2C1([H])[H]

>  <smiles>  (84) 
[H]c1c([H])c([H])c2c(c1[H])C([H])([H])C([H])([H])C([H])([H])C2([H])N([H])C(=O)C1([H])N(C(=O)C([H])(N([H])C(=O)C([H])(N([H])C([H])([H])[H])C([H])([H])[H])C(C([H])([H])[H])(C([H])([H])[H])C([H])([H])[H])C([H])([H])c2c([H])c(OC([H])([H])C(=O)N([H])C([H])([H])C3([H])C4([H])C([H])([H])C([H])(C(=O)N([H])C(=O)N5C([H])([H])C([H])([H])C([H])([H])C([H])(n6nc(-c7c([H])c([H])c(Oc8c([H])c([H])c(F)c([H])c8F)c([H])c7[H])c(C(=O)N([H])[H])c6N([H])[H])C5([H])[H])C4([H])C([H])([H])[N+]3([H])[H])c([H])c([H])c2C1([H])[H]

$$$$
84:0:0
     RDKit          3D

 91100  0  0  1  0  0  0  0  0999 V2000
  -28.6760  -19.5400   19.3180 C   0  0  0  0  0  3  0  0  0  0  0  0
  -30.2820  -18.4570   21.2820 C   0  0  0  0  0  3  0  0  0  0  0  0
  -29.1490  -20.4980   20.2700 C   0  0  0  0  0  0  0  0  0  0  0  0
  -28.9440  -18.1200   19.3490 C   0  0  0  0  0  0  0  0  0  0  0  0
  -30.0000  -19.8830   21.2480 C   0  0  0  0  0  0  0  0  0  0  0  0
  -29.7570  -17.5010   20.3500 C   0  0  0  0  0  0  0  0  0  0  0  0
  -28.2690  -17.2480   18.3050 C   0  0  0  0  0  1  0  0  0  0  0  0
  -30.5740  -20.7570   22.3460 C   0  0  0  0  0  1  0  0  0  0  0  0
  -30.6000  -14.9310   20.2420 C   0  0  0  0  0  0  0  0  0  0  0  0
  -30.4740  -12.6260   19.2330 C   0  0  0  0  0  2  0  0  0  0  0  0
  -29.5190  -12.6640   18.0160 C   0  0  0  0  0  2  0  0  0  0  0  0
  -28.0560  -12.4650   18.4580 C   0  0  0  0  0  2  0  0  0  0  0  0
  -27.6790  -13.3480   19.6770 C   0  0  0  0  0  3  0  0  0  0  0  0
  -28.7470  -13.2700   20.7900 C   0  0  0  0  0  2  0  0  0  0  0  0
  -30.0300  -13.6690   20.1930 N   0  0  0  0  0  0  0  0  0  0  0  0
  -31.7730  -15.0750   19.8780 O   0  0  0  0  0  0  0  0  0  0  0  0
  -29.7650  -16.0070   20.5670 N   0  0  0  0  0  0  0  0  0  0  0  0
  -28.8650  -15.6600   20.8590 H   0  0  0  0  0  0  0  0  0  0  0  0
  -25.2950  -13.9260   20.4220 C   0  0  0  0  0  0  0  0  0  0  0  0
  -24.2340  -13.1470   20.7990 C   0  0  0  0  0  0  0  0  0  0  0  0
  -24.7050  -11.7970   20.7640 C   0  0  0  0  0  0  0  0  0  0  0  0
  -26.3400  -13.0510   20.1760 N   0  0  0  0  0  0  0  0  0  0  0  0
  -25.9940  -11.7660   20.4460 N   0  0  0  0  0  0  0  0  0  0  0  0
  -23.9850  -10.5320   20.9590 C   0  0  0  0  0  0  0  0  0  0  0  0
  -24.4090   -9.5790   21.9120 C   0  0  0  0  0  3  0  0  0  0  0  0
  -23.6890   -8.3790   22.0930 C   0  0  0  0  0  3  0  0  0  0  0  0
  -22.5310   -8.1230   21.3210 C   0  0  0  0  0  0  0  0  0  0  0  0
  -22.1270   -9.0640   20.3580 C   0  0  0  0  0  3  0  0  0  0  0  0
  -22.8470  -10.2560   20.1740 C   0  0  0  0  0  3  0  0  0  0  0  0
  -21.7830   -6.9730   21.4110 O   0  0  0  0  0  0  0  0  0  0  0  0
  -21.6900   -6.2650   22.5830 C   0  0  0  0  0  0  0  0  0  0  0  0
  -21.1740   -6.8430   23.7640 C   0  0  0  0  0  3  0  0  0  0  0  0
  -21.0290   -6.0590   24.9250 C   0  0  0  0  0  3  0  0  0  0  0  0
  -21.3930   -4.6990   24.9080 C   0  0  0  0  0  0  0  0  0  0  0  0
  -21.9030   -4.1210   23.7320 C   0  0  0  0  0  3  0  0  0  0  0  0
  -22.0480   -4.9010   22.5730 C   0  0  0  0  0  0  0  0  0  0  0  0
  -22.5210   -4.3340   21.4350 F   0  0  0  0  0  0  0  0  0  0  0  0
  -21.2460   -3.9430   26.0220 F   0  0  0  0  0  0  0  0  0  0  0  0
  -22.8380  -13.6170   21.0800 C   0  0  0  0  0  0  0  0  0  0  0  0
  -22.1230  -12.9230   21.9580 N   0  0  0  0  0  0  0  0  0  0  0  0
  -22.3880  -14.6360   20.5560 O   0  0  0  0  0  0  0  0  0  0  0  0
  -22.4980  -12.0990   22.4030 H   0  0  0  0  0  0  0  0  0  0  0  0
  -21.1850  -13.2210   22.1890 H   0  0  0  0  0  0  0  0  0  0  0  0
  -25.4490  -15.2980   20.2470 N   0  0  0  0  0  0  0  0  0  0  0  0
  -24.6780  -15.9450   20.3730 H   0  0  0  0  0  0  0  0  0  0  0  0
  -26.2830  -15.7450   19.8940 H   0  0  0  0  0  0  0  0  0  0  0  0
  -28.7120  -22.8280   19.0240 C   0  0  0  0  0  2  0  0  0  0  0  0
  -28.5380  -22.0070   20.2810 C   0  0  0  0  0  3  0  0  0  0  0  0
  -29.0440  -23.5690   20.2970 C   0  0  0  0  0  3  0  0  0  0  0  0
  -28.1530  -24.8890   20.6750 C   0  0  0  0  0  2  0  0  0  0  0  0
  -28.4330  -26.3630   20.3500 O   0  0  0  0  0  0  0  0  0  0  0  0
  -24.6970  -31.9240   23.3330 C   0  0  0  0  0  0  0  0  0  0  0  0
  -27.3500  -27.2960   20.3080 C   0  0  0  0  0  0  0  0  0  0  0  0
  -23.5210  -30.5200   21.6810 C   0  0  0  0  0  3  0  0  0  0  0  0
  -24.9950  -28.9740   20.2650 C   0  0  0  0  0  0  0  0  0  0  0  0
  -26.0690  -30.8280   21.5310 C   0  0  0  0  0  2  0  0  0  0  0  0
  -26.1620  -29.4430   20.8810 C   0  0  0  0  0  0  0  0  0  0  0  0
  -27.3440  -28.6190   20.8870 C   0  0  0  0  0  3  0  0  0  0  0  0
  -26.1610  -26.9200   19.6430 C   0  0  0  0  0  3  0  0  0  0  0  0
  -25.0040  -27.7230   19.6310 C   0  0  0  0  0  3  0  0  0  0  0  0
  -23.7560  -29.8510   20.3030 C   0  0  0  0  0  2  0  0  0  0  0  0
  -24.7810  -31.1120   22.2380 N   0  0  0  0  0  0  0  0  0  0  0  0
  -23.6050  -32.1960   23.8560 O   0  0  0  0  0  0  0  0  0  0  0  0
  -22.8490  -29.5020   22.6350 C   0  0  0  0  0  0  0  0  0  0  0  0
  -21.5280  -29.3010   22.4840 N   0  0  0  0  0  0  0  0  0  0  0  0
  -23.5200  -28.8920   23.4730 O   0  0  0  0  0  0  0  0  0  0  0  0
  -21.0440  -29.8470   21.7840 H   0  0  0  0  0  0  0  0  0  0  0  0
  -18.1630  -28.0380   22.9250 C   0  0  0  0  0  0  0  0  0  0  0  0
  -20.7100  -28.3540   23.2450 C   0  0  0  0  0  3  0  0  0  0  0  0
  -20.8530  -26.9200   22.6840 C   0  0  0  0  0  2  0  0  0  0  0  0
  -19.7800  -26.5660   21.6500 C   0  0  0  0  0  2  0  0  0  0  0  0
  -18.3820  -26.6870   22.2630 C   0  0  0  0  0  2  0  0  0  0  0  0
  -19.2570  -28.8260   23.3710 C   0  0  0  0  0  0  0  0  0  0  0  0
  -18.9980  -30.0880   23.9500 C   0  0  0  0  0  3  0  0  0  0  0  0
  -17.6800  -30.5610   24.0870 C   0  0  0  0  0  3  0  0  0  0  0  0
  -16.6020  -29.7710   23.6550 C   0  0  0  0  0  3  0  0  0  0  0  0
  -16.8440  -28.5100   23.0800 C   0  0  0  0  0  3  0  0  0  0  0  0
  -25.9650  -32.5690   23.9700 C   0  0  0  0  0  3  0  0  0  0  0  0
  -25.6510  -33.9730   24.2710 N   0  0  0  0  0  0  0  0  0  0  0  0
  -25.9710  -35.0130   23.4890 C   0  0  0  0  0  0  0  0  0  0  0  0
  -26.6320  -34.8900   22.4550 O   0  0  0  0  0  0  0  0  0  0  0  0
  -25.0610  -34.1420   25.0730 H   0  0  0  0  0  0  0  0  0  0  0  0
  -24.2260  -36.7880   23.1230 C   0  0  0  0  0  1  0  0  0  0  0  0
  -25.4830  -36.4100   23.9210 C   0  0  0  0  0  3  0  0  0  0  0  0
  -27.6240  -37.3310   24.6960 C   0  0  0  0  0  1  0  0  0  0  0  0
  -26.5070  -37.4650   23.7650 N   0  0  0  0  0  0  0  0  0  0  0  0
  -26.0970  -38.3870   23.8930 H   0  0  0  0  0  0  0  0  0  0  0  0
  -26.4530  -31.8210   25.2720 C   0  0  1  0  0  0  0  0  0  0  0  0
  -25.3390  -31.6070   26.3220 C   0  0  0  0  0  1  0  0  0  0  0  0
  -27.0410  -30.4340   24.9220 C   0  0  0  0  0  1  0  0  0  0  0  0
  -27.5940  -32.6260   25.9410 C   0  0  0  0  0  1  0  0  0  0  0  0
  1  4  2  0
  1  3  1  0
  3  5  2  0
  4  6  1  0
  5  2  1  0
  5  8  1  0
  6 17  1  0
  6  2  2  0
  7  4  1  0
  9 17  1  0
 10 15  1  0
 11 12  1  0
 11 10  1  0
 13 12  1  0
 13 22  1  0
 13 14  1  0
 15  9  1  0
 15 14  1  0
 16  9  2  0
 17 18  1  0
 19 20  2  0
 20 39  1  0
 21 20  1  0
 21 24  1  0
 22 19  1  0
 22 23  1  0
 23 21  2  0
 24 25  1  0
 25 26  2  0
 27 30  1  0
 27 26  1  0
 28 27  2  0
 29 28  1  0
 29 24  2  0
 30 31  1  0
 31 32  1  0
 32 33  2  0
 34 33  1  0
 34 38  1  0
 35 34  2  0
 36 31  2  0
 36 35  1  0
 37 36  1  0
 39 40  1  0
 40 43  1  0
 40 42  1  0
 41 39  2  0
 44 45  1  0
 44 19  1  0
 46 44  1  0
 47 48  1  0
 47 49  1  0
 48  3  1  0
 48 49  1  0
 49 50  1  0
 51 50  1  0
 52 63  2  0
 53 51  1  0
 53 58  1  0
 54 62  1  0
 54 64  1  0
 55 61  1  0
 55 57  1  0
 56 62  1  0
 57 58  2  0
 57 56  1  0
 59 53  2  0
 60 59  1  0
 60 55  2  0
 61 54  1  0
 62 52  1  0
 64 66  2  0
 65 64  1  0
 67 65  1  0
 68 77  2  0
 68 73  1  0
 69 65  1  0
 69 73  1  0
 70 69  1  0
 71 72  1  0
 71 70  1  0
 72 68  1  0
 73 74  2  0
 74 75  1  0
 76 75  2  0
 77 76  1  0
 78 52  1  0
 78 79  1  0
 78 88  1  0
 79 82  1  0
 80 84  1  0
 80 79  1  0
 81 80  2  0
 84 83  1  0
 86 87  1  0
 86 84  1  0
 86 85  1  0
 88 91  1  1
 88 89  1  0
 90 88  1  0
M  ISO  4   9 100  17 100  50 101  51 101
M  END
>  <TORSDO>  (85) 
F 18

>  <SCORE>  (85) 
-14.655

>  <name>  (85) 
84

>  <ligand_id>  (85) 
84

>  <original_smiles>  (85) 
[H]c1c([H])c([H])c2c(c1[H])C([H])([H])C([H])([H])C([H])([H])C2([H])N([H])C(=O)C1([H])N(C(=O)C([H])(N([H])C(=O)C([H])(N([H])C([H])([H])[H])C([H])([H])[H])C(C([H])([H])[H])(C([H])([H])[H])C([H])([H])[H])C([H])([H])c2c([H])c(OC([H])([H])C3([H])C([H])([H])C3([H])c3c([H])c(C([H])([H])[H])c(N([H])C(=O)N4C([H])([H])C([H])([H])C([H])([H])C([H])(n5nc(-c6c([H])c([H])c(Oc7c([H])c([H])c(F)c([H])c7F)c([H])c6[H])c(C(=O)N([H])[H])c5N([H])[H])C4([H])[H])c([H])c3C([H])([H])[H])c([H])c([H])c2C1([H])[H]

>  <smiles>  (85) 
[H]c1c([H])c([H])c2c(c1[H])C([H])([H])C([H])([H])C([H])([H])C2([H])N([H])C(=O)C1([H])N(C(=O)C([H])(N([H])C(=O)C([H])(N([H])C([H])([H])[H])C([H])([H])[H])C(C([H])([H])[H])(C([H])([H])[H])C([H])([H])[H])C([H])([H])c2c([H])c(OC([H])([H])C3([H])C([H])([H])C3([H])c3c([H])c(C([H])([H])[H])c(N([H])C(=O)N4C([H])([H])C([H])([H])C([H])([H])C([H])(n5nc(-c6c([H])c([H])c(Oc7c([H])c([H])c(F)c([H])c7F)c([H])c6[H])c(C(=O)N([H])[H])c5N([H])[H])C4([H])[H])c([H])c3C([H])([H])[H])c([H])c([H])c2C1([H])[H]

$$$$
85:0:0
     RDKit          3D

100110  0  0  1  0  0  0  0  0999 V2000
  -29.1150  -21.1300   20.6330 C   0  0  0  0  0  0  0  0  0  0  0  0
  -29.6960  -19.9870   20.1800 N   0  0  0  0  0  0  0  0  0  0  0  0
  -28.8540  -21.2790   21.8300 O   0  0  0  0  0  0  0  0  0  0  0  0
  -29.9820  -20.0250   19.2110 H   0  0  0  0  0  0  0  0  0  0  0  0
  -31.0790  -14.9960   20.9530 C   0  0  0  0  0  0  0  0  0  0  0  0
  -30.9560  -12.6460   20.2110 C   0  0  0  0  0  2  0  0  0  0  0  0
  -30.1750  -12.5690   18.8790 C   0  0  0  0  0  2  0  0  0  0  0  0
  -28.6510  -12.5210   19.1160 C   0  0  0  0  0  2  0  0  0  0  0  0
  -28.1390  -13.5190   20.1920 C   0  0  0  0  0  3  0  0  0  0  0  0
  -29.0580  -13.5490   21.4320 C   0  0  0  0  0  2  0  0  0  0  0  0
  -30.4310  -13.7930   20.9670 N   0  0  0  0  0  0  0  0  0  0  0  0
  -32.3030  -15.0840   21.0380 O   0  0  0  0  0  0  0  0  0  0  0  0
  -28.5760  -17.8820   19.7680 C   0  0  0  0  0  2  0  0  0  0  0  0
  -29.8490  -17.4680   18.9870 C   0  0  0  0  0  3  0  0  0  0  0  0
  -30.6240  -17.5250   20.3050 C   0  0  0  0  0  3  0  0  0  0  0  0
  -29.5260  -18.5990   20.7300 C   0  0  0  0  0  3  0  0  0  0  0  0
  -30.3510  -16.0500   18.8560 C   0  0  0  0  0  3  0  0  0  0  0  0
  -30.3830  -16.0150   20.3500 N   0  0  0  0  0  0  0  0  0  0  0  0
  -25.6960  -14.1760   20.6420 C   0  0  0  0  0  0  0  0  0  0  0  0
  -24.5750  -13.4290   20.8750 C   0  0  0  0  0  0  0  0  0  0  0  0
  -25.0060  -12.0680   20.8890 C   0  0  0  0  0  0  0  0  0  0  0  0
  -26.7410  -13.2720   20.5310 N   0  0  0  0  0  0  0  0  0  0  0  0
  -26.3230  -11.9990   20.7430 N   0  0  0  0  0  0  0  0  0  0  0  0
  -24.2340  -10.8240   20.9740 C   0  0  0  0  0  0  0  0  0  0  0  0
  -24.6260   -9.7730   21.8320 C   0  0  0  0  0  3  0  0  0  0  0  0
  -23.8570   -8.5930   21.9130 C   0  0  0  0  0  3  0  0  0  0  0  0
  -22.6820   -8.4570   21.1340 C   0  0  0  0  0  0  0  0  0  0  0  0
  -22.3110   -9.4970   20.2640 C   0  0  0  0  0  3  0  0  0  0  0  0
  -23.0810  -10.6690   20.1810 C   0  0  0  0  0  3  0  0  0  0  0  0
  -21.8860   -7.3360   21.1310 O   0  0  0  0  0  0  0  0  0  0  0  0
  -21.8600   -6.4700   22.1940 C   0  0  0  0  0  0  0  0  0  0  0  0
  -21.4950   -6.8930   23.4920 C   0  0  0  0  0  3  0  0  0  0  0  0
  -21.4150   -5.9540   24.5400 C   0  0  0  0  0  3  0  0  0  0  0  0
  -21.6870   -4.5960   24.2930 C   0  0  0  0  0  0  0  0  0  0  0  0
  -22.0440   -4.1720   23.0000 C   0  0  0  0  0  3  0  0  0  0  0  0
  -22.1280   -5.1070   21.9530 C   0  0  0  0  0  0  0  0  0  0  0  0
  -22.4520   -4.6910   20.7050 F   0  0  0  0  0  0  0  0  0  0  0  0
  -21.6010   -3.6930   25.2970 F   0  0  0  0  0  0  0  0  0  0  0  0
  -23.1670  -13.9410   20.9770 C   0  0  0  0  0  0  0  0  0  0  0  0
  -22.3340  -13.2830   21.7740 N   0  0  0  0  0  0  0  0  0  0  0  0
  -22.8110  -14.9590   20.3840 O   0  0  0  0  0  0  0  0  0  0  0  0
  -22.6300  -12.4600   22.2770 H   0  0  0  0  0  0  0  0  0  0  0  0
  -21.3840  -13.6100   21.8860 H   0  0  0  0  0  0  0  0  0  0  0  0
  -25.9060  -15.5430   20.4900 N   0  0  0  0  0  0  0  0  0  0  0  0
  -25.1450  -16.2130   20.5120 H   0  0  0  0  0  0  0  0  0  0  0  0
  -26.7990  -15.9610   20.2730 H   0  0  0  0  0  0  0  0  0  0  0  0
  -31.7170  -15.8070   18.1530 C   0  0  0  0  0  2  0  0  0  0  0  0
  -31.6240  -15.9850   16.6940 N   0  0  0  0  0  4  0  0  0  0  0  0
  -30.9830  -15.3280   16.2870 H   0  0  0  0  0  0  0  0  0  0  0  0
  -32.5250  -15.8350   16.2750 H   0  0  0  0  0  0  0  0  0  0  0  0
  -31.3230  -16.9130   16.4570 H   0  0  0  0  0  0  0  0  0  0  0  0
  -27.7390  -24.5250   20.4020 C   0  0  0  0  0  0  0  0  0  0  0  0
  -26.4320  -21.2940   19.2760 C   0  0  0  0  0  2  0  0  0  0  0  0
  -27.7620  -21.4750   18.5440 C   0  0  0  0  0  2  0  0  0  0  0  0
  -26.2870  -22.6300   20.0110 C   0  0  0  0  0  2  0  0  0  0  0  0
  -28.6350  -22.2080   19.5800 C   0  0  0  0  0  3  0  0  0  0  0  0
  -27.6450  -23.1930   20.1170 N   0  0  0  0  0  0  0  0  0  0  0  0
  -26.9950  -25.0360   21.2470 O   0  0  0  0  0  0  0  0  0  0  0  0
  -28.6290  -25.4650   19.5330 C   0  0  0  0  0  2  0  0  0  0  0  0
  -28.5390  -26.8860   19.8900 O   0  0  0  0  0  0  0  0  0  0  0  0
  -24.5840  -31.8160   23.2080 C   0  0  0  0  0  0  0  0  0  0  0  0
  -27.3430  -27.6000   19.8650 C   0  0  0  0  0  0  0  0  0  0  0  0
  -23.4170  -30.4910   21.4770 C   0  0  0  0  0  3  0  0  0  0  0  0
  -24.9100  -29.0800   19.9550 C   0  0  0  0  0  0  0  0  0  0  0  0
  -25.9360  -30.9150   21.3080 C   0  0  0  0  0  2  0  0  0  0  0  0
  -26.0550  -29.5870   20.5790 C   0  0  0  0  0  0  0  0  0  0  0  0
  -27.2710  -28.8560   20.5260 C   0  0  0  0  0  3  0  0  0  0  0  0
  -26.1750  -27.1240   19.2250 C   0  0  0  0  0  3  0  0  0  0  0  0
  -24.9690  -27.8520   19.2720 C   0  0  0  0  0  3  0  0  0  0  0  0
  -23.6440  -29.9040   20.0570 C   0  0  0  0  0  2  0  0  0  0  0  0
  -24.6630  -31.0880   22.0570 N   0  0  0  0  0  0  0  0  0  0  0  0
  -23.4950  -32.0250   23.7620 O   0  0  0  0  0  0  0  0  0  0  0  0
  -22.7900  -29.3940   22.3710 C   0  0  0  0  0  0  0  0  0  0  0  0
  -21.4650  -29.2090   22.2550 N   0  0  0  0  0  0  0  0  0  0  0  0
  -23.4940  -28.7200   23.1260 O   0  0  0  0  0  0  0  0  0  0  0  0
  -20.9560  -29.8090   21.6210 H   0  0  0  0  0  0  0  0  0  0  0  0
  -18.1090  -27.9540   22.7390 C   0  0  0  0  0  0  0  0  0  0  0  0
  -20.6720  -28.2070   22.9680 C   0  0  0  0  0  3  0  0  0  0  0  0
  -20.7670  -26.8270   22.2760 C   0  0  0  0  0  2  0  0  0  0  0  0
  -19.6420  -26.5800   21.2660 C   0  0  0  0  0  2  0  0  0  0  0  0
  -18.2760  -26.6640   21.9530 C   0  0  0  0  0  2  0  0  0  0  0  0
  -19.2350  -28.6870   23.2020 C   0  0  0  0  0  0  0  0  0  0  0  0
  -19.0250  -29.8970   23.8980 C   0  0  0  0  0  3  0  0  0  0  0  0
  -17.7220  -30.3740   24.1350 C   0  0  0  0  0  3  0  0  0  0  0  0
  -16.6110  -29.6370   23.6870 C   0  0  0  0  0  3  0  0  0  0  0  0
  -16.8060  -28.4290   22.9950 C   0  0  0  0  0  3  0  0  0  0  0  0
  -25.8510  -32.4420   23.8700 C   0  0  0  0  0  3  0  0  0  0  0  0
  -26.3280  -31.6650   25.1580 C   0  0  1  0  0  0  0  0  0  0  0  0
  -25.2060  -31.4370   26.1990 C   0  0  0  0  0  1  0  0  0  0  0  0
  -26.9050  -30.2830   24.7770 C   0  0  0  0  0  1  0  0  0  0  0  0
  -27.4710  -32.4450   25.8490 C   0  0  0  0  0  1  0  0  0  0  0  0
  -25.5360  -33.8400   24.1960 N   0  0  0  0  0  0  0  0  0  0  0  0
  -25.8960  -34.8950   23.4520 C   0  0  0  0  0  0  0  0  0  0  0  0
  -26.5950  -34.7930   22.4410 O   0  0  0  0  0  0  0  0  0  0  0  0
  -24.9200  -33.9930   24.9820 H   0  0  0  0  0  0  0  0  0  0  0  0
  -24.1780  -36.6890   23.0580 C   0  0  0  0  0  1  0  0  0  0  0  0
  -25.3980  -36.2820   23.9000 C   0  0  0  0  0  3  0  0  0  0  0  0
  -27.5050  -37.1690   24.7970 C   0  0  0  0  0  1  0  0  0  0  0  0
  -26.4360  -37.3340   23.8150 N   0  0  0  0  0  0  0  0  0  0  0  0
  -26.0250  -38.2540   23.9470 H   0  0  0  0  0  0  0  0  0  0  0  0
  1  3  2  0
  2  1  1  0
  4  2  1  0
  5 11  1  0
  5 12  2  0
  6 11  1  0
  7  8  1  0
  7  6  1  0
  9  8  1  0
  9 22  1  0
  9 10  1  0
 11 10  1  0
 13 16  1  0
 14 13  1  0
 14 15  1  0
 15 18  1  0
 15 16  1  0
 16  2  1  0
 17 47  1  0
 17 14  1  0
 17 18  1  0
 18  5  1  0
 19 20  2  0
 20 21  1  0
 20 39  1  0
 21 24  1  0
 22 19  1  0
 22 23  1  0
 23 21  2  0
 24 25  1  0
 25 26  2  0
 27 26  1  0
 28 27  2  0
 29 28  1  0
 29 24  2  0
 30 27  1  0
 30 31  1  0
 31 32  1  0
 32 33  2  0
 34 33  1  0
 34 38  1  0
 35 34  2  0
 36 31  2  0
 36 35  1  0
 37 36  1  0
 39 40  1  0
 40 43  1  0
 40 42  1  0
 41 39  2  0
 44 45  1  0
 44 19  1  0
 46 44  1  0
 48 47  1  0
 49 48  1  0
 50 48  1  0
 51 48  1  0
 52 58  2  0
 53 55  1  0
 54 53  1  0
 54 56  1  0
 55 57  1  0
 56 57  1  0
 56  1  1  0
 57 52  1  0
 59 60  1  0
 59 52  1  0
 61 72  2  0
 62 60  1  0
 62 67  1  0
 63 71  1  0
 63 73  1  0
 64 70  1  0
 64 66  1  0
 65 71  1  0
 66 65  1  0
 67 66  2  0
 68 69  1  0
 68 62  2  0
 69 64  2  0
 70 63  1  0
 71 61  1  0
 73 75  2  0
 74 73  1  0
 76 74  1  0
 77 86  2  0
 77 82  1  0
 78 74  1  0
 78 82  1  0
 79 78  1  0
 80 81  1  0
 80 79  1  0
 81 77  1  0
 82 83  2  0
 83 84  1  0
 85 84  2  0
 86 85  1  0
 87 61  1  0
 87 92  1  0
 87 88  1  0
 88 91  1  1
 88 89  1  0
 90 88  1  0
 92 95  1  0
 93 97  1  0
 93 92  1  0
 94 93  2  0
 97 96  1  0
 99 97  1  0
 99100  1  0
 99 98  1  0
M  ISO  4   5 100  18 100  59 101  60 101
M  END
>  <TORSDO>  (86) 
F 20

>  <SCORE>  (86) 
-13.043

>  <name>  (86) 
85

>  <ligand_id>  (86) 
85

>  <original_smiles>  (86) 
[H]c1c([H])c([H])c2c(c1[H])C([H])([H])C([H])([H])C([H])([H])C2([H])N([H])C(=O)C1([H])N(C(=O)C([H])(N([H])C(=O)C([H])(N([H])C([H])([H])[H])C([H])([H])[H])C(C([H])([H])[H])(C([H])([H])[H])C([H])([H])[H])C([H])([H])c2c([H])c(OC([H])([H])C(=O)N3C([H])([H])C([H])([H])C([H])([H])C3([H])C(=O)N([H])C3([H])C([H])([H])C4([H])C3([H])N(C(=O)N3C([H])([H])C([H])([H])C([H])([H])C([H])(n5nc(-c6c([H])c([H])c(Oc7c([H])c([H])c(F)c([H])c7F)c([H])c6[H])c(C(=O)N([H])[H])c5N([H])[H])C3([H])[H])C4([H])C([H])([H])[N+]([H])([H])[H])c([H])c([H])c2C1([H])[H]

>  <smiles>  (86) 
[H]c1c([H])c([H])c2c(c1[H])C([H])([H])C([H])([H])C([H])([H])C2([H])N([H])C(=O)C1([H])N(C(=O)C([H])(N([H])C(=O)C([H])(N([H])C([H])([H])[H])C([H])([H])[H])C(C([H])([H])[H])(C([H])([H])[H])C([H])([H])[H])C([H])([H])c2c([H])c(OC([H])([H])C(=O)N3C([H])([H])C([H])([H])C([H])([H])C3([H])C(=O)N([H])C3([H])C([H])([H])C4([H])C3([H])N(C(=O)N3C([H])([H])C([H])([H])C([H])([H])C([H])(n5nc(-c6c([H])c([H])c(Oc7c([H])c([H])c(F)c([H])c7F)c([H])c6[H])c(C(=O)N([H])[H])c5N([H])[H])C3([H])[H])C4([H])C([H])([H])[N+]([H])([H])[H])c([H])c([H])c2C1([H])[H]

$$$$
86:0:0
     RDKit          3D

101109  0  0  1  0  0  0  0  0999 V2000
  -31.1890  -21.2990   24.7310 C   0  0  0  0  0  1  0  0  0  0  0  0
  -30.8860  -20.9370   23.3280 N   0  0  2  0  0  4  0  0  0  0  0  0
  -29.8950  -21.0970   23.2280 H   0  0  0  0  0  0  0  0  0  0  0  0
  -30.6020  -17.1780   23.2920 C   0  0  0  0  0  2  0  0  0  0  0  0
  -30.5470  -18.5050   24.0560 C   0  0  0  0  0  2  0  0  0  0  0  0
  -30.4390  -19.0550   21.7320 C   0  0  0  0  0  2  0  0  0  0  0  0
  -30.2100  -17.5380   21.8440 C   0  0  0  0  0  3  0  0  0  0  0  0
  -31.1120  -19.4970   23.0330 C   0  0  0  0  0  3  0  0  0  0  0  0
  -30.9340  -16.7310   20.7440 C   0  0  0  0  0  3  0  0  0  0  0  0
  -31.2430  -14.2850   20.3720 C   0  0  0  0  0  0  0  0  0  0  0  0
  -30.7910  -12.2680   19.0740 C   0  0  0  0  0  2  0  0  0  0  0  0
  -29.8430  -12.6410   17.9180 C   0  0  0  0  0  2  0  0  0  0  0  0
  -28.3680  -12.5620   18.3630 C   0  0  0  0  0  2  0  0  0  0  0  0
  -28.1080  -13.3010   19.7040 C   0  0  0  0  0  3  0  0  0  0  0  0
  -29.1650  -12.9210   20.7670 C   0  0  0  0  0  2  0  0  0  0  0  0
  -30.5020  -13.1680   20.1950 N   0  0  0  0  0  0  0  0  0  0  0  0
  -32.3630  -14.4550   19.8890 O   0  0  0  0  0  0  0  0  0  0  0  0
  -30.5530  -15.3220   20.8520 N   0  0  0  0  0  0  0  0  0  0  0  0
  -29.6410  -15.1130   21.2290 H   0  0  0  0  0  0  0  0  0  0  0  0
  -25.7240  -13.9850   20.3940 C   0  0  0  0  0  0  0  0  0  0  0  0
  -24.6350  -13.2390   20.7630 C   0  0  0  0  0  0  0  0  0  0  0  0
  -25.0610  -11.8770   20.7430 C   0  0  0  0  0  0  0  0  0  0  0  0
  -26.7470  -13.0710   20.1810 N   0  0  0  0  0  0  0  0  0  0  0  0
  -26.3520  -11.8010   20.4480 N   0  0  0  0  0  0  0  0  0  0  0  0
  -24.3020  -10.6330   20.9370 C   0  0  0  0  0  0  0  0  0  0  0  0
  -24.6820   -9.6780   21.9060 C   0  0  0  0  0  3  0  0  0  0  0  0
  -23.9270   -8.4990   22.0850 C   0  0  0  0  0  3  0  0  0  0  0  0
  -22.7780   -8.2670   21.2920 C   0  0  0  0  0  0  0  0  0  0  0  0
  -22.4160   -9.2110   20.3120 C   0  0  0  0  0  3  0  0  0  0  0  0
  -23.1710  -10.3830   20.1320 C   0  0  0  0  0  3  0  0  0  0  0  0
  -21.9960   -7.1390   21.3820 O   0  0  0  0  0  0  0  0  0  0  0  0
  -21.8440   -6.4630   22.5660 C   0  0  0  0  0  0  0  0  0  0  0  0
  -21.3490   -7.0980   23.7280 C   0  0  0  0  0  3  0  0  0  0  0  0
  -21.1340   -6.3480   24.9020 C   0  0  0  0  0  3  0  0  0  0  0  0
  -21.4060   -4.9670   24.9170 C   0  0  0  0  0  0  0  0  0  0  0  0
  -21.8990   -4.3330   23.7620 C   0  0  0  0  0  3  0  0  0  0  0  0
  -22.1130   -5.0800   22.5890 C   0  0  0  0  0  0  0  0  0  0  0  0
  -22.5610   -4.4580   21.4730 F   0  0  0  0  0  0  0  0  0  0  0  0
  -21.1980   -4.2480   26.0430 F   0  0  0  0  0  0  0  0  0  0  0  0
  -23.2500  -13.7580   21.0250 C   0  0  0  0  0  0  0  0  0  0  0  0
  -22.5110  -13.1010   21.9120 N   0  0  0  0  0  0  0  0  0  0  0  0
  -22.8370  -14.7830   20.4860 O   0  0  0  0  0  0  0  0  0  0  0  0
  -22.8640  -12.2770   22.3730 H   0  0  0  0  0  0  0  0  0  0  0  0
  -21.5880  -13.4370   22.1390 H   0  0  0  0  0  0  0  0  0  0  0  0
  -25.9220  -15.3480   20.2020 N   0  0  0  0  0  0  0  0  0  0  0  0
  -25.1660  -16.0210   20.2700 H   0  0  0  0  0  0  0  0  0  0  0  0
  -26.7830  -15.7540   19.8600 H   0  0  0  0  0  0  0  0  0  0  0  0
  -30.6040  -17.3040   19.3340 C   0  0  0  0  0  2  0  0  0  0  0  0
  -31.3560  -16.6800   18.2340 N   0  0  0  0  0  4  0  0  0  0  0  0
  -32.3270  -16.6100   18.4800 H   0  0  0  0  0  0  0  0  0  0  0  0
  -31.2790  -17.2570   17.4140 H   0  0  0  0  0  0  0  0  0  0  0  0
  -31.0080  -15.7660   18.0110 H   0  0  0  0  0  0  0  0  0  0  0  0
  -31.5480  -21.8450   22.3450 C   0  0  0  0  0  2  0  0  0  0  0  0
  -30.5170  -22.6900   21.5700 C   0  0  0  0  0  2  0  0  0  0  0  0
  -31.1740  -23.7820   20.7040 C   0  0  0  0  0  2  0  0  0  0  0  0
  -30.3720  -25.4810   19.0690 C   0  0  0  0  0  0  0  0  0  0  0  0
  -30.1760  -24.6620   20.1110 N   0  0  0  0  0  0  0  0  0  0  0  0
  -31.4070  -25.4850   18.3940 O   0  0  0  0  0  0  0  0  0  0  0  0
  -29.3010  -24.8060   20.6050 H   0  0  0  0  0  0  0  0  0  0  0  0
  -29.2270  -26.4580   18.7800 C   0  0  0  0  0  2  0  0  0  0  0  0
  -28.5780  -26.7230   20.0200 O   0  0  0  0  0  0  0  0  0  0  0  0
  -24.6020  -31.6640   23.1310 C   0  0  0  0  0  0  0  0  0  0  0  0
  -27.3920  -27.4010   19.9690 C   0  0  0  0  0  0  0  0  0  0  0  0
  -23.4450  -30.2850   21.4300 C   0  0  0  0  0  3  0  0  0  0  0  0
  -24.9530  -28.8050   19.9940 C   0  0  0  0  0  0  0  0  0  0  0  0
  -25.9610  -30.7030   21.2840 C   0  0  0  0  0  2  0  0  0  0  0  0
  -26.0840  -29.3540   20.6120 C   0  0  0  0  0  0  0  0  0  0  0  0
  -27.3030  -28.6510   20.6100 C   0  0  0  0  0  3  0  0  0  0  0  0
  -26.2520  -26.8440   19.3560 C   0  0  0  0  0  3  0  0  0  0  0  0
  -25.0280  -27.5430   19.3700 C   0  0  0  0  0  3  0  0  0  0  0  0
  -23.6850  -29.6250   20.0430 C   0  0  0  0  0  2  0  0  0  0  0  0
  -24.6870  -30.8960   22.0080 N   0  0  0  0  0  0  0  0  0  0  0  0
  -23.5090  -31.9070   23.6590 O   0  0  0  0  0  0  0  0  0  0  0  0
  -22.7920  -29.2360   22.3570 C   0  0  0  0  0  0  0  0  0  0  0  0
  -21.4700  -29.0580   22.2180 N   0  0  0  0  0  0  0  0  0  0  0  0
  -23.4740  -28.5860   23.1540 O   0  0  0  0  0  0  0  0  0  0  0  0
  -20.9820  -29.6370   21.5490 H   0  0  0  0  0  0  0  0  0  0  0  0
  -18.0930  -27.8640   22.6780 C   0  0  0  0  0  0  0  0  0  0  0  0
  -20.6520  -28.0970   22.9550 C   0  0  0  0  0  3  0  0  0  0  0  0
  -20.7470  -26.6890   22.3250 C   0  0  0  0  0  2  0  0  0  0  0  0
  -19.6390  -26.4090   21.3020 C   0  0  0  0  0  2  0  0  0  0  0  0
  -18.2590  -26.5400   21.9510 C   0  0  0  0  0  2  0  0  0  0  0  0
  -19.2160  -28.6020   23.1350 C   0  0  0  0  0  0  0  0  0  0  0  0
  -19.0060  -29.8450   23.7710 C   0  0  0  0  0  3  0  0  0  0  0  0
  -17.7040  -30.3460   23.9600 C   0  0  0  0  0  3  0  0  0  0  0  0
  -16.5960  -29.6040   23.5180 C   0  0  0  0  0  3  0  0  0  0  0  0
  -16.7900  -28.3640   22.8840 C   0  0  0  0  0  3  0  0  0  0  0  0
  -25.8700  -32.2950   23.7880 C   0  0  0  0  0  3  0  0  0  0  0  0
  -26.3760  -31.5050   25.0570 C   0  0  1  0  0  0  0  0  0  0  0  0
  -25.2700  -31.2270   26.1020 C   0  0  0  0  0  1  0  0  0  0  0  0
  -26.9880  -30.1450   24.6480 C   0  0  0  0  0  1  0  0  0  0  0  0
  -27.5070  -32.2990   25.7520 C   0  0  0  0  0  1  0  0  0  0  0  0
  -25.5400  -33.6840   24.1390 N   0  0  0  0  0  0  0  0  0  0  0  0
  -25.8770  -34.7530   23.4060 C   0  0  0  0  0  0  0  0  0  0  0  0
  -26.5650  -34.6750   22.3850 O   0  0  0  0  0  0  0  0  0  0  0  0
  -24.9250  -33.8160   24.9290 H   0  0  0  0  0  0  0  0  0  0  0  0
  -24.1300  -36.5270   23.0560 C   0  0  0  0  0  1  0  0  0  0  0  0
  -25.3650  -36.1260   23.8790 C   0  0  0  0  0  3  0  0  0  0  0  0
  -27.4730  -37.0200   24.7590 C   0  0  0  0  0  1  0  0  0  0  0  0
  -26.3830  -37.1950   23.8030 N   0  0  0  0  0  0  0  0  0  0  0  0
  -25.9620  -38.1060   23.9700 H   0  0  0  0  0  0  0  0  0  0  0  0
  2  1  1  0
  2  3  1  1
  4  5  1  0
  6  7  1  0
  6  8  1  0
  7  9  1  0
  7  4  1  0
  8  2  1  0
  8  5  1  0
  9 48  1  0
  9 18  1  0
 10 18  1  0
 11 16  1  0
 12 13  1  0
 12 11  1  0
 14 13  1  0
 14 23  1  0
 14 15  1  0
 16 10  1  0
 16 15  1  0
 17 10  2  0
 18 19  1  0
 20 21  2  0
 21 40  1  0
 22 21  1  0
 22 25  1  0
 23 20  1  0
 23 24  1  0
 24 22  2  0
 25 26  1  0
 26 27  2  0
 28 31  1  0
 28 27  1  0
 29 28  2  0
 30 29  1  0
 30 25  2  0
 31 32  1  0
 32 37  2  0
 32 33  1  0
 33 34  2  0
 34 35  1  0
 35 39  1  0
 36 35  2  0
 37 36  1  0
 38 37  1  0
 40 41  1  0
 41 44  1  0
 41 43  1  0
 42 40  2  0
 45 46  1  0
 45 20  1  0
 47 45  1  0
 49 50  1  0
 49 48  1  0
 51 49  1  0
 52 49  1  0
 53  2  1  0
 54 53  1  0
 55 54  1  0
 56 57  1  0
 57 59  1  0
 57 55  1  0
 58 56  2  0
 60 56  1  0
 60 61  1  0
 62 73  2  0
 63 61  1  0
 63 68  1  0
 64 72  1  0
 64 74  1  0
 65 71  1  0
 65 67  1  0
 66 72  1  0
 67 66  1  0
 68 67  2  0
 69 70  1  0
 69 63  2  0
 70 65  2  0
 71 64  1  0
 72 62  1  0
 74 76  2  0
 75 74  1  0
 77 75  1  0
 78 87  2  0
 78 83  1  0
 79 75  1  0
 79 83  1  0
 80 79  1  0
 81 82  1  0
 81 80  1  0
 82 78  1  0
 83 84  2  0
 84 85  1  0
 86 85  2  0
 87 86  1  0
 88 62  1  0
 88 93  1  0
 88 89  1  0
 89 92  1  1
 89 90  1  0
 91 89  1  0
 93 96  1  0
 94 98  1  0
 94 93  1  0
 95 94  2  0
 98 97  1  0
100 98  1  0
100101  1  0
100 99  1  0
M  ISO  4  10 100  18 100  60 101  61 101
M  END
>  <TORSDO>  (87) 
F 25

>  <SCORE>  (87) 
-11.031

>  <name>  (87) 
86

>  <ligand_id>  (87) 
86

>  <original_smiles>  (87) 
[H]c1c([H])c([H])c2c(c1[H])C([H])([H])C([H])([H])C([H])([H])C2([H])N([H])C(=O)C1([H])N(C(=O)C([H])(N([H])C(=O)C([H])(N([H])C([H])([H])[H])C([H])([H])[H])C(C([H])([H])[H])(C([H])([H])[H])C([H])([H])[H])C([H])([H])c2c([H])c(OC([H])([H])C(=O)N([H])C([H])([H])C([H])([H])C([H])([H])[N+]([H])(C([H])([H])[H])C3([H])C([H])([H])C([H])([H])C([H])(C([H])(N([H])C(=O)N4C([H])([H])C([H])([H])C([H])([H])C([H])(n5nc(-c6c([H])c([H])c(Oc7c([H])c([H])c(F)c([H])c7F)c([H])c6[H])c(C(=O)N([H])[H])c5N([H])[H])C4([H])[H])C([H])([H])[N+]([H])([H])[H])C3([H])[H])c([H])c([H])c2C1([H])[H]

>  <smiles>  (87) 
[H]c1c([H])c([H])c2c(c1[H])C([H])([H])C([H])([H])C([H])([H])C2([H])N([H])C(=O)C1([H])N(C(=O)C([H])(N([H])C(=O)C([H])(N([H])C([H])([H])[H])C([H])([H])[H])C(C([H])([H])[H])(C([H])([H])[H])C([H])([H])[H])C([H])([H])c2c([H])c(OC([H])([H])C(=O)N([H])C([H])([H])C([H])([H])C([H])([H])[N+]([H])(C([H])([H])[H])C3([H])C([H])([H])C([H])([H])C([H])(C([H])(N([H])C(=O)N4C([H])([H])C([H])([H])C([H])([H])C([H])(n5nc(-c6c([H])c([H])c(Oc7c([H])c([H])c(F)c([H])c7F)c([H])c6[H])c(C(=O)N([H])[H])c5N([H])[H])C4([H])[H])C([H])([H])[N+]([H])([H])[H])C3([H])[H])c([H])c([H])c2C1([H])[H]

$$$$
87:0:0
     RDKit          3D

 96 96  0  0  1  0  0  0  0  0999 V2000
  -26.0680  -25.7640   22.8070 C   0  0  0  0  0 15  0  0  0  0  0  0
  -27.4940  -24.7520   21.5160 C   0  0  0  0  0 15  0  0  0  0  0  0
  -30.4810  -23.9980   19.8080 C   0  0  0  0  0  2  0  0  0  0  0  0
  -29.3580  -24.3810   21.0010 N   0  0  0  0  0  2  0  0  0  0  0  0
  -29.9050  -24.0810   18.7230 O   0  0  0  0  0  1  0  0  0  0  0  0
  -29.8740  -24.3320   21.8730 H   0  0  0  0  0  0  0  0  0  0  0  0
  -35.3860  -22.7440   17.4920 C   0  0  0  0  0  0  0  0  0  0  0  0
  -37.3860  -22.2230   15.5450 C   0  0  0  0  0  2  0  0  0  0  0  0
  -37.2070  -22.4810   13.9950 C   0  0  0  0  0  2  0  0  0  0  0  0
  -36.3360  -21.4090   13.3230 C   0  0  0  0  0  2  0  0  0  0  0  0
  -35.2120  -21.0320   14.3030 C   0  0  0  0  0  3  0  0  0  0  0  0
  -35.7030  -20.6790   15.7220 C   0  0  0  0  0  2  0  0  0  0  0  0
  -36.0500  -21.9620   16.3640 N   0  0  0  0  0  0  0  0  0  0  0  0
  -36.3630  -23.4940   17.8030 O   0  0  0  0  0  0  0  0  0  0  0  0
  -33.5210  -21.0120   20.5650 C   0  0  0  0  0  2  0  0  0  0  0  0
  -34.1470  -20.5710   19.2170 C   0  0  0  0  0  2  0  0  0  0  0  0
  -31.9930  -21.3660   18.9730 C   0  0  0  0  0  2  0  0  0  0  0  0
  -32.4240  -23.3990   19.4190 C   0  0  0  0  0  1  0  0  0  0  0  0
  -32.3770  -22.0800   20.2870 C   0  0  0  0  0  3  0  0  0  0  0  0
  -33.3140  -21.3880   18.2260 C   0  0  0  0  0  3  0  0  0  0  0  0
  -33.8250  -22.7730   18.1730 N   0  0  0  0  0  2  0  0  0  0  0  0
  -32.9730  -19.9240   14.1070 C   0  0  0  0  0  0  0  0  0  0  0  0
  -32.5220  -18.8460   13.4120 C   0  0  0  0  0  0  0  0  0  0  0  0
  -33.6570  -18.3220   12.7170 C   0  0  0  0  0  0  0  0  0  0  0  0
  -34.3140  -20.0190   13.8170 N   0  0  0  0  0  0  0  0  0  0  0  0
  -34.7510  -19.0110   13.0240 N   0  0  0  0  0  0  0  0  0  0  0  0
  -33.7460  -17.2490   11.7260 C   0  0  0  0  0  0  0  0  0  0  0  0
  -34.5890  -16.1340   11.9160 C   0  0  0  0  0  3  0  0  0  0  0  0
  -34.6320  -15.1030   10.9540 C   0  0  0  0  0  3  0  0  0  0  0  0
  -33.8270  -15.1810    9.7930 C   0  0  0  0  0  0  0  0  0  0  0  0
  -33.0110  -16.3090    9.5990 C   0  0  0  0  0  3  0  0  0  0  0  0
  -32.9700  -17.3350   10.5530 C   0  0  0  0  0  3  0  0  0  0  0  0
  -33.8250  -14.2390    8.7930 O   0  0  0  0  0  0  0  0  0  0  0  0
  -34.2160  -12.9460    9.0240 C   0  0  0  0  0  0  0  0  0  0  0  0
  -33.5260  -12.1070    9.9270 C   0  0  0  0  0  3  0  0  0  0  0  0
  -33.9210  -10.7620   10.0790 C   0  0  0  0  0  3  0  0  0  0  0  0
  -34.9960  -10.2540    9.3250 C   0  0  0  0  0  0  0  0  0  0  0  0
  -35.6820  -11.0870    8.4240 C   0  0  0  0  0  3  0  0  0  0  0  0
  -35.2900  -12.4290    8.2720 C   0  0  0  0  0  0  0  0  0  0  0  0
  -35.9410  -13.2220    7.3860 F   0  0  0  0  0  0  0  0  0  0  0  0
  -35.3700   -8.9600    9.4660 F   0  0  0  0  0  0  0  0  0  0  0  0
  -31.0960  -18.3940   13.3270 C   0  0  0  0  0  0  0  0  0  0  0  0
  -30.8620  -17.0960   13.4410 N   0  0  0  0  0  0  0  0  0  0  0  0
  -30.1760  -19.2060   13.2190 O   0  0  0  0  0  0  0  0  0  0  0  0
  -31.6190  -16.4420   13.5660 H   0  0  0  0  0  0  0  0  0  0  0  0
  -29.9140  -16.7490   13.4000 H   0  0  0  0  0  0  0  0  0  0  0  0
  -32.3490  -20.8490   14.9360 N   0  0  0  0  0  0  0  0  0  0  0  0
  -31.3360  -20.8820   14.9650 H   0  0  0  0  0  0  0  0  0  0  0  0
  -32.7880  -21.7020   15.2510 H   0  0  0  0  0  0  0  0  0  0  0  0
  -24.1150  -26.1470   23.7610 C   0  0  0  0  0 15  0  0  0  0  0  0
  -22.3790  -27.1280   23.9360 N   0  0  0  0  0  2  0  0  0  0  0  0
  -22.0750  -26.9270   24.8810 H   0  0  0  0  0  0  0  0  0  0  0  0
  -21.7460  -26.5860   23.3650 H   0  0  0  0  0  0  0  0  0  0  0  0
  -21.7010  -29.0950   23.7550 C   0  0  0  0  0 15  0  0  0  0  0  0
  -22.7340  -30.8260   24.7240 C   0  0  0  0  0 15  0  0  0  0  0  0
  -24.4250  -31.7370   24.4800 O   0  0  0  0  0  1  0  0  0  0  0  0
  -25.3620  -28.3770   25.7570 C   0  0  0  0  0  0  0  0  0  0  0  0
  -25.3260  -32.8700   23.9470 C   0  0  0  0  0  3  0  0  0  0  0  0
  -25.1390  -29.5780   22.6900 C   0  0  0  0  0  3  0  0  0  0  0  0
  -26.0650  -31.2470   22.3950 C   0  0  1  0  0  0  0  0  0  0  0  0
  -26.4220  -30.3730   24.9550 C   0  0  0  0  0  2  0  0  0  0  0  0
  -26.5860  -31.3060   23.7930 C   0  0  0  0  0  3  0  0  0  0  0  0
  -26.6070  -32.5570   24.3340 C   0  0  0  0  0  2  0  0  0  0  0  0
  -25.4950  -33.3390   22.5870 C   0  0  0  0  0  2  0  0  0  0  0  0
  -26.0150  -32.4250   21.6970 C   0  0  0  0  0  2  0  0  0  0  0  0
  -24.7330  -30.7740   22.0880 C   0  0  0  0  0  2  0  0  0  0  0  0
  -25.6240  -29.3580   24.5730 N   0  0  0  0  0  2  0  0  0  0  0  0
  -24.8780  -27.2050   25.7070 O   0  0  0  0  0  0  0  0  0  0  0  0
  -25.0500  -28.6200   21.3790 C   0  0  0  0  0  0  0  0  0  0  0  0
  -24.0030  -27.9080   20.8670 N   0  0  0  0  0  0  0  0  0  0  0  0
  -26.1330  -28.2290   21.1360 O   0  0  0  0  0  0  0  0  0  0  0  0
  -23.0490  -28.1840   21.0470 H   0  0  0  0  0  0  0  0  0  0  0  0
  -22.5550  -25.5570   18.6540 C   0  0  0  0  0  0  0  0  0  0  0  0
  -24.2570  -26.6080   20.2380 C   0  0  0  0  0  3  0  0  0  0  0  0
  -25.0230  -26.8090   18.9060 C   0  0  0  0  0  2  0  0  0  0  0  0
  -24.0950  -27.4210   17.8850 C   0  0  0  0  0  2  0  0  0  0  0  0
  -23.1720  -26.2870   17.4680 C   0  0  0  0  0  2  0  0  0  0  0  0
  -23.0140  -25.7540   19.9840 C   0  0  0  0  0  0  0  0  0  0  0  0
  -22.3480  -25.0980   21.0440 C   0  0  0  0  0  3  0  0  0  0  0  0
  -21.2540  -24.2480   20.7750 C   0  0  0  0  0  3  0  0  0  0  0  0
  -20.8310  -24.0360   19.4480 C   0  0  0  0  0  3  0  0  0  0  0  0
  -21.4860  -24.6850   18.3910 C   0  0  0  0  0  3  0  0  0  0  0  0
  -25.6730  -28.3980   27.2660 C   0  0  0  0  0  3  0  0  0  0  0  0
  -24.6180  -27.6950   28.1180 N   0  0  0  0  0  0  0  0  0  0  0  0
  -24.0440  -28.0890   29.2630 C   0  0  0  0  0  0  0  0  0  0  0  0
  -24.3550  -29.1550   29.7870 O   0  0  0  0  0  0  0  0  0  0  0  0
  -24.3030  -26.8150   27.7380 H   0  0  0  0  0  0  0  0  0  0  0  0
  -21.6510  -27.8560   30.1260 C   0  0  0  0  0  1  0  0  0  0  0  0
  -23.0170  -27.1600   29.9770 C   0  0  0  0  0  3  0  0  0  0  0  0
  -24.6110  -25.8140   31.2910 C   0  0  0  0  0  1  0  0  0  0  0  0
  -23.4600  -26.7110   31.3190 N   0  0  0  0  0  0  0  0  0  0  0  0
  -22.7060  -26.2290   31.8020 H   0  0  0  0  0  0  0  0  0  0  0  0
  -26.9710  -27.5080   27.3800 C   0  0  1  0  0  0  0  0  0  0  0  0
  -27.1770  -26.3620   26.3280 C   0  0  0  0  0  1  0  0  0  0  0  0
  -28.2210  -28.3900   27.3450 C   0  0  0  0  0  1  0  0  0  0  0  0
  -26.9770  -26.8570   28.7690 C   0  0  0  0  0  1  0  0  0  0  0  0
  3  4  1  0
  4  6  1  0
  5  3  1  0
  7 14  2  0
  7 21  1  0
  8 13  1  0
  9  8  1  0
 10  9  1  0
 11 10  1  0
 11 12  1  0
 12 13  1  0
 13  7  1  0
 16 15  1  0
 17 19  1  0
 19 18  1  0
 19 15  1  0
 20 21  1  0
 20 17  1  0
 20 16  1  0
 22 47  1  0
 23 22  2  0
 24 26  2  0
 24 23  1  0
 25 22  1  0
 25 11  1  0
 26 25  1  0
 27 28  1  0
 27 24  1  0
 29 28  2  0
 30 29  1  0
 31 30  2  0
 31 32  1  0
 32 27  2  0
 33 34  1  0
 33 30  1  0
 34 35  1  0
 35 36  2  0
 37 41  1  0
 37 36  1  0
 38 37  2  0
 39 38  1  0
 39 34  2  0
 40 39  1  0
 42 23  1  0
 42 43  1  0
 43 45  1  0
 44 42  2  0
 46 43  1  0
 47 48  1  0
 47 49  1  0
 51 52  1  0
 53 51  1  0
 58 63  1  0
 58 56  1  0
 59 69  1  0
 60 65  1  1
 60 59  1  0
 60 62  1  0
 62 63  1  0
 62 61  1  0
 64 58  1  0
 65 64  1  0
 66 60  1  0
 66 59  1  0
 67 61  1  0
 67 57  1  0
 68 57  2  0
 70 72  1  0
 70 69  1  0
 71 69  2  0
 73 78  1  0
 74 70  1  0
 75 74  1  0
 76 75  1  0
 77 76  1  0
 77 73  1  0
 78 74  1  0
 78 79  2  0
 80 79  1  0
 81 80  2  0
 82 73  2  0
 82 81  1  0
 83 57  1  0
 83 93  1  0
 83 84  1  0
 84 85  1  0
 85 86  2  0
 85 89  1  0
 87 84  1  0
 89 88  1  0
 89 91  1  0
 90 91  1  0
 91 92  1  0
 93 96  1  1
 94 93  1  0
 95 93  1  0
M  ISO  4   7 100  21 100  55 101  56 101
M  END
>  <TORSDO>  (88) 
F 22

>  <SCORE>  (88) 
-5.309

>  <name>  (88) 
87

>  <ligand_id>  (88) 
87

>  <original_smiles>  (88) 
[H]c1c([H])c([H])c2c(c1[H])C([H])([H])C([H])([H])C([H])([H])C2([H])N([H])C(=O)C1([H])N(C(=O)C([H])(N([H])C(=O)C([H])(N([H])C([H])([H])[H])C([H])([H])[H])C(C([H])([H])[H])(C([H])([H])[H])C([H])([H])[H])C([H])([H])c2c([H])c(OC([H])([H])C([H])([H])[N+]([H])([H])C([H])([H])C([H])([H])C([H])([H])N([H])C(=O)C3([H])N(C(=O)N4C([H])([H])C([H])([H])C([H])([H])C([H])(n5nc(-c6c([H])c([H])c(Oc7c([H])c([H])c(F)c([H])c7F)c([H])c6[H])c(C(=O)N([H])[H])c5N([H])[H])C4([H])[H])C4([H])C([H])([H])C([H])([H])C3([H])C4([H])[H])c([H])c([H])c2C1([H])[H]

>  <smiles>  (88) 
[H]c1c([H])c([H])c2c(c1[H])C([H])([H])C([H])([H])C([H])([H])C2([H])N([H])C(=O)C1([H])N(C(=O)C([H])(N([H])C(=O)C([H])(N([H])C([H])([H])[H])C([H])([H])[H])C(C([H])([H])[H])(C([H])([H])[H])C([H])([H])[H])C([H])([H])c2c([H])c(OC([H])([H])C([H])([H])[N+]([H])([H])C([H])([H])C([H])([H])C([H])([H])N([H])C(=O)C3([H])N(C(=O)N4C([H])([H])C([H])([H])C([H])([H])C([H])(n5nc(-c6c([H])c([H])c(Oc7c([H])c([H])c(F)c([H])c7F)c([H])c6[H])c(C(=O)N([H])[H])c5N([H])[H])C4([H])[H])C4([H])C([H])([H])C([H])([H])C3([H])C4([H])[H])c([H])c([H])c2C1([H])[H]

$$$$
88:0:0
     RDKit          3D

 97100  0  0  1  0  0  0  0  0999 V2000
  -23.7020  -25.6710   19.3400 C   0  0  0  0  0  2  0  0  0  0  0  0
  -23.9190  -25.7450   18.1300 O   0  0  0  0  0  0  0  0  0  0  0  0
  -23.1920  -22.9890   20.4490 C   0  0  0  0  0  1  0  0  0  0  0  0
  -24.4180  -23.7640   19.8530 C   0  0  0  0  0  2  0  0  0  0  0  0
  -25.6380  -22.5220   19.1880 N   0  0  0  0  0  4  0  0  0  0  0  0
  -25.2660  -22.4360   18.2570 H   0  0  0  0  0  0  0  0  0  0  0  0
  -26.4620  -23.0710   19.0180 H   0  0  0  0  0  0  0  0  0  0  0  0
  -30.2220  -16.2960   19.4900 C   0  0  0  0  0  0  0  0  0  0  0  0
  -30.8870  -13.7180   18.8760 C   0  0  0  0  0  2  0  0  0  0  0  0
  -30.0330  -13.0560   17.7510 C   0  0  0  0  0  2  0  0  0  0  0  0
  -28.6670  -12.6130   18.2970 C   0  0  0  0  0  2  0  0  0  0  0  0
  -28.1290  -13.6540   19.3030 C   0  0  0  0  0  3  0  0  0  0  0  0
  -29.1300  -14.0820   20.3710 C   0  0  0  0  0  2  0  0  0  0  0  0
  -30.0840  -14.8390   19.5900 N   0  0  0  0  0  0  0  0  0  0  0  0
  -31.4470  -16.4000   19.1820 O   0  0  0  0  0  0  0  0  0  0  0  0
  -26.8720  -18.3330   18.6970 C   0  0  0  0  0  2  0  0  0  0  0  0
  -27.1800  -19.8050   20.5010 C   0  0  0  0  0  2  0  0  0  0  0  0
  -29.0080  -18.9780   18.7380 C   0  0  0  0  0  2  0  0  0  0  0  0
  -27.4160  -19.7450   18.4220 C   0  0  0  0  0  3  0  0  0  0  0  0
  -27.6860  -18.1460   19.9950 C   0  0  0  0  0  3  0  0  0  0  0  0
  -26.3120  -20.7860   19.3790 C   0  0  0  0  0  3  0  0  0  0  0  0
  -29.1360  -17.5360   19.4670 N   0  0  0  0  0  0  0  0  0  0  0  0
  -25.9230  -14.1800   20.3570 C   0  0  0  0  0  0  0  0  0  0  0  0
  -24.9120  -13.4010   20.8190 C   0  0  0  0  0  0  0  0  0  0  0  0
  -25.3480  -12.0540   20.6440 C   0  0  0  0  0  0  0  0  0  0  0  0
  -26.8920  -13.3040   19.9230 N   0  0  0  0  0  0  0  0  0  0  0  0
  -26.5850  -12.0130   20.1710 N   0  0  0  0  0  0  0  0  0  0  0  0
  -24.6290  -10.7960   20.8220 C   0  0  0  0  0  0  0  0  0  0  0  0
  -24.9590   -9.8930   21.8530 C   0  0  0  0  0  3  0  0  0  0  0  0
  -24.2280   -8.6980   22.0090 C   0  0  0  0  0  3  0  0  0  0  0  0
  -23.1580   -8.4030   21.1310 C   0  0  0  0  0  0  0  0  0  0  0  0
  -22.8500   -9.2990   20.0910 C   0  0  0  0  0  3  0  0  0  0  0  0
  -23.5830  -10.4840   19.9340 C   0  0  0  0  0  3  0  0  0  0  0  0
  -22.4040   -7.2580   21.1950 O   0  0  0  0  0  0  0  0  0  0  0  0
  -21.9750   -6.7490   22.3920 C   0  0  0  0  0  0  0  0  0  0  0  0
  -21.1590   -7.4940   23.2700 C   0  0  0  0  0  3  0  0  0  0  0  0
  -20.6880   -6.9040   24.4600 C   0  0  0  0  0  3  0  0  0  0  0  0
  -21.0210   -5.5720   24.7680 C   0  0  0  0  0  0  0  0  0  0  0  0
  -21.8320   -4.8290   23.8920 C   0  0  0  0  0  3  0  0  0  0  0  0
  -22.3060   -5.4150   22.7060 C   0  0  0  0  0  0  0  0  0  0  0  0
  -23.0710   -4.6900   21.8530 F   0  0  0  0  0  0  0  0  0  0  0  0
  -20.5620   -5.0000   25.9050 F   0  0  0  0  0  0  0  0  0  0  0  0
  -23.5750  -13.8910   21.2810 C   0  0  0  0  0  0  0  0  0  0  0  0
  -22.9560  -13.1780   22.2070 N   0  0  0  0  0  0  0  0  0  0  0  0
  -23.1030  -14.9450   20.8530 O   0  0  0  0  0  0  0  0  0  0  0  0
  -23.3610  -12.3280   22.5690 H   0  0  0  0  0  0  0  0  0  0  0  0
  -22.0650  -13.4890   22.5690 H   0  0  0  0  0  0  0  0  0  0  0  0
  -26.0720  -15.5490   20.2240 N   0  0  0  0  0  0  0  0  0  0  0  0
  -25.2940  -16.1700   20.4150 H   0  0  0  0  0  0  0  0  0  0  0  0
  -26.8040  -15.9840   19.6800 H   0  0  0  0  0  0  0  0  0  0  0  0
  -22.6340  -27.3550   19.7670 C   0  0  0  0  0 15  0  0  0  0  0  0
  -22.7110  -29.8270   22.3020 C   0  0  0  0  0  3  0  0  0  0  0  0
  -22.4130  -29.0880   20.7790 N   0  0  0  0  0  2  0  0  0  0  0  0
  -22.3020  -30.9840   22.4310 O   0  0  0  0  0  0  0  0  0  0  0  0
  -21.8710  -29.7000   20.1840 H   0  0  0  0  0  0  0  0  0  0  0  0
  -24.1120  -29.0370   23.7450 C   0  0  0  0  0 15  0  0  0  0  0  0
  -26.0820  -28.4010   23.3030 O   0  0  0  0  0  1  0  0  0  0  0  0
  -24.9820  -31.3870   23.2070 C   0  0  0  0  0  0  0  0  0  0  0  0
  -27.0600  -27.7050   22.3030 C   0  0  0  0  0  3  0  0  0  0  0  0
  -24.7250  -28.9690   21.4170 C   0  0  0  0  0  2  0  0  0  0  0  0
  -26.3500  -28.6370   20.0650 C   0  0  0  0  0  3  0  0  0  0  0  0
  -26.6230  -30.6890   21.5640 C   0  0  0  0  0  2  0  0  0  0  0  0
  -27.1560  -29.3990   20.9770 C   0  0  0  0  0  3  0  0  0  0  0  0
  -27.9520  -28.6630   21.8410 C   0  0  0  0  0  2  0  0  0  0  0  0
  -26.8750  -26.7220   21.2390 C   0  0  0  0  0  2  0  0  0  0  0  0
  -26.4730  -27.2540   20.0090 C   0  0  0  0  0  2  0  0  0  0  0  0
  -24.9930  -29.0630   19.9320 C   0  0  0  0  0  2  0  0  0  0  0  0
  -25.3050  -30.4540   22.1170 N   0  0  0  0  0  0  0  0  0  0  0  0
  -23.8060  -31.6620   23.5220 O   0  0  0  0  0  0  0  0  0  0  0  0
  -24.1880  -27.1320   22.3240 C   0  0  0  0  0  2  0  0  0  0  0  0
  -22.8610  -26.7500   22.9840 N   0  0  0  0  0  0  0  0  0  0  0  0
  -24.7400  -26.5430   23.2150 O   0  0  0  0  0  1  0  0  0  0  0  0
  -23.1810  -26.0960   23.6930 H   0  0  0  0  0  0  0  0  0  0  0  0
  -18.6530  -27.1620   22.2310 C   0  0  0  0  0  0  0  0  0  0  0  0
  -21.2100  -26.8250   23.1510 C   0  0  0  0  0  3  0  0  0  0  0  0
  -20.9540  -25.5440   22.4280 C   0  0  0  0  0  2  0  0  0  0  0  0
  -20.2450  -25.7420   21.0900 C   0  0  0  0  0  2  0  0  0  0  0  0
  -18.7990  -25.8930   21.4340 C   0  0  0  0  0  2  0  0  0  0  0  0
  -19.8020  -27.7590   22.8980 C   0  0  0  0  0  0  0  0  0  0  0  0
  -19.4390  -29.0220   23.4920 C   0  0  0  0  0  3  0  0  0  0  0  0
  -18.1330  -29.6050   23.4050 C   0  0  0  0  0  3  0  0  0  0  0  0
  -17.0610  -28.9300   22.8040 C   0  0  0  0  0  3  0  0  0  0  0  0
  -17.3280  -27.6800   22.2410 C   0  0  0  0  0  3  0  0  0  0  0  0
  -25.9950  -32.0540   24.2760 C   0  0  0  0  0  3  0  0  0  0  0  0
  -25.5580  -33.4550   24.4790 N   0  0  0  0  0  0  0  0  0  0  0  0
  -26.0720  -34.5140   23.8440 C   0  0  0  0  0  0  0  0  0  0  0  0
  -26.9530  -34.3810   22.9920 O   0  0  0  0  0  0  0  0  0  0  0  0
  -24.7100  -33.5960   25.0090 H   0  0  0  0  0  0  0  0  0  0  0  0
  -24.4030  -36.2980   23.2020 C   0  0  0  0  0  1  0  0  0  0  0  0
  -25.5270  -35.9160   24.1830 C   0  0  0  0  0  3  0  0  0  0  0  0
  -27.5210  -36.8700   25.2680 C   0  0  0  0  0  1  0  0  0  0  0  0
  -26.5710  -36.9690   24.1610 N   0  0  0  0  0  0  0  0  0  0  0  0
  -26.1570  -37.8950   24.1750 H   0  0  0  0  0  0  0  0  0  0  0  0
  -26.1660  -31.4280   25.7620 C   0  0  1  0  0  0  0  0  0  0  0  0
  -24.8620  -31.2580   26.5960 C   0  0  0  0  0  1  0  0  0  0  0  0
  -26.8850  -30.0650   25.7890 C   0  0  0  0  0  1  0  0  0  0  0  0
  -27.1000  -32.3520   26.5920 C   0  0  0  0  0  1  0  0  0  0  0  0
  2  1  2  0
  4  3  1  0
  5  4  1  0
  6  5  1  0
  7  5  1  0
  8 14  1  0
  9 14  1  0
 10 11  1  0
 10  9  1  0
 12 11  1  0
 12 26  1  0
 12 13  1  0
 14 13  1  0
 15  8  2  0
 18 22  1  0
 19 16  1  0
 19 18  1  0
 19 21  1  0
 20 16  1  0
 20 17  1  0
 21  5  1  0
 21 17  1  0
 22  8  1  0
 22 20  1  0
 23 24  2  0
 24 43  1  0
 25 24  1  0
 25 28  1  0
 26 27  1  0
 26 23  1  0
 27 25  2  0
 28 29  1  0
 29 30  2  0
 31 34  1  0
 31 30  1  0
 32 31  2  0
 33 32  1  0
 33 28  2  0
 34 35  1  0
 35 40  2  0
 35 36  1  0
 36 37  2  0
 37 38  1  0
 38 42  1  0
 39 38  2  0
 40 39  1  0
 41 40  1  0
 43 44  1  0
 44 47  1  0
 44 46  1  0
 45 43  2  0
 48 23  1  0
 48 49  1  0
 50 48  1  0
 52 54  2  0
 53 52  1  0
 55 53  1  0
 58 69  2  0
 59 57  1  0
 60 68  1  0
 61 67  1  0
 61 63  1  0
 62 68  1  0
 63 62  1  0
 63 64  1  0
 64 59  1  0
 65 59  1  0
 66 61  1  0
 66 65  1  0
 67 60  1  0
 68 58  1  0
 70 71  1  0
 70 72  1  0
 71 73  1  0
 74 83  2  0
 74 79  1  0
 75 71  1  0
 76 75  1  0
 77 78  1  0
 77 76  1  0
 78 74  1  0
 79 75  1  0
 79 80  2  0
 81 80  1  0
 82 81  2  0
 83 82  1  0
 84 58  1  0
 84 85  1  0
 84 94  1  0
 85 88  1  0
 86 90  1  0
 86 85  1  0
 87 86  2  0
 90 89  1  0
 92 93  1  0
 92 90  1  0
 92 91  1  0
 94 96  1  6
 94 97  1  0
 94 95  1  0
M  ISO  4   8 100  22 100  56 101  57 101
M  END
>  <TORSDO>  (89) 
F 21

>  <SCORE>  (89) 
-11.442

>  <name>  (89) 
88

>  <ligand_id>  (89) 
88

>  <original_smiles>  (89) 
[H]c1c([H])c([H])c2c(c1[H])C([H])([H])C([H])([H])C([H])([H])C2([H])N([H])C(=O)C1([H])N(C(=O)C([H])(N([H])C(=O)C([H])(N([H])C([H])([H])[H])C([H])([H])[H])C(C([H])([H])[H])(C([H])([H])[H])C([H])([H])[H])C([H])([H])c2c([H])c(OC([H])([H])C(=O)N([H])C([H])([H])C(=O)C([H])(C([H])([H])[H])[N+]([H])([H])C3([H])C([H])([H])C4([H])N(C(=O)N5C([H])([H])C([H])([H])C([H])([H])C([H])(n6nc(-c7c([H])c([H])c(Oc8c([H])c([H])c(F)c([H])c8F)c([H])c7[H])c(C(=O)N([H])[H])c6N([H])[H])C5([H])[H])C([H])([H])C3([H])C4([H])[H])c([H])c([H])c2C1([H])[H]

>  <smiles>  (89) 
[H]c1c([H])c([H])c2c(c1[H])C([H])([H])C([H])([H])C([H])([H])C2([H])N([H])C(=O)C1([H])N(C(=O)C([H])(N([H])C(=O)C([H])(N([H])C([H])([H])[H])C([H])([H])[H])C(C([H])([H])[H])(C([H])([H])[H])C([H])([H])[H])C([H])([H])c2c([H])c(OC([H])([H])C(=O)N([H])C([H])([H])C(=O)C([H])(C([H])([H])[H])[N+]([H])([H])C3([H])C([H])([H])C4([H])N(C(=O)N5C([H])([H])C([H])([H])C([H])([H])C([H])(n6nc(-c7c([H])c([H])c(Oc8c([H])c([H])c(F)c([H])c8F)c([H])c7[H])c(C(=O)N([H])[H])c6N([H])[H])C5([H])[H])C([H])([H])C3([H])C4([H])[H])c([H])c([H])c2C1([H])[H]

$$$$
89:0:0
     RDKit          3D

 94102  0  0  1  0  0  0  0  0999 V2000
  -31.1000  -18.6460   20.2870 C   0  0  0  0  0  3  0  0  0  0  0  0
  -28.7940  -18.9110   19.5930 C   0  0  0  0  0  3  0  0  0  0  0  0
  -30.1390  -20.9170   20.0720 C   0  0  0  0  0  0  0  0  0  0  0  0
  -29.8950  -18.0660   19.8510 C   0  0  0  0  0  0  0  0  0  0  0  0
  -31.2300  -20.0510   20.3980 C   0  0  0  0  0  0  0  0  0  0  0  0
  -28.9040  -20.3180   19.6820 C   0  0  0  0  0  0  0  0  0  0  0  0
  -32.5840  -20.5950   20.8390 C   0  0  0  0  0  1  0  0  0  0  0  0
  -27.6780  -21.1330   19.2780 C   0  0  0  0  0  1  0  0  0  0  0  0
  -30.3340  -22.4230   20.0390 C   0  0  0  0  0  0  0  0  0  0  0  0
  -29.4690  -23.1730   20.7350 N   0  0  0  0  0  0  0  0  0  0  0  0
  -31.2690  -22.9160   19.4040 O   0  0  0  0  0  0  0  0  0  0  0  0
  -28.7340  -22.6840   21.2290 H   0  0  0  0  0  0  0  0  0  0  0  0
  -29.5040  -24.6370   20.8500 C   0  0  0  0  0  2  0  0  0  0  0  0
  -28.3200  -25.3040   20.1230 C   0  0  0  0  0  2  0  0  0  0  0  0
  -28.3980  -26.7300   20.2500 O   0  0  0  0  0  0  0  0  0  0  0  0
  -24.5920  -31.9080   23.2660 C   0  0  0  0  0  0  0  0  0  0  0  0
  -27.2190  -27.4470   20.2070 C   0  0  0  0  0  0  0  0  0  0  0  0
  -23.3820  -30.5120   21.6220 C   0  0  0  0  0  3  0  0  0  0  0  0
  -24.8290  -28.9670   20.2010 C   0  0  0  0  0  0  0  0  0  0  0  0
  -25.9110  -30.8570   21.4310 C   0  0  0  0  0  2  0  0  0  0  0  0
  -25.9890  -29.4860   20.7910 C   0  0  0  0  0  0  0  0  0  0  0  0
  -27.1860  -28.7360   20.7850 C   0  0  0  0  0  3  0  0  0  0  0  0
  -26.0400  -26.9410   19.6080 C   0  0  0  0  0  3  0  0  0  0  0  0
  -24.8510  -27.6950   19.6050 C   0  0  0  0  0  3  0  0  0  0  0  0
  -23.5920  -29.8330   20.2410 C   0  0  0  0  0  2  0  0  0  0  0  0
  -24.6470  -31.1070   22.1650 N   0  0  0  0  0  0  0  0  0  0  0  0
  -23.5110  -32.1850   23.8040 O   0  0  0  0  0  0  0  0  0  0  0  0
  -22.7230  -29.4930   22.5800 C   0  0  0  0  0  0  0  0  0  0  0  0
  -21.3980  -29.3190   22.4500 N   0  0  0  0  0  0  0  0  0  0  0  0
  -23.4020  -28.8640   23.3960 O   0  0  0  0  0  0  0  0  0  0  0  0
  -20.9130  -29.8810   21.7640 H   0  0  0  0  0  0  0  0  0  0  0  0
  -18.0170  -28.1430   22.9380 C   0  0  0  0  0  0  0  0  0  0  0  0
  -20.5740  -28.3880   23.2210 C   0  0  0  0  0  3  0  0  0  0  0  0
  -20.6710  -26.9520   22.6520 C   0  0  0  0  0  2  0  0  0  0  0  0
  -19.5710  -26.6330   21.6340 C   0  0  0  0  0  2  0  0  0  0  0  0
  -18.1880  -26.7890   22.2690 C   0  0  0  0  0  2  0  0  0  0  0  0
  -19.1370  -28.8990   23.3710 C   0  0  0  0  0  0  0  0  0  0  0  0
  -18.9230  -30.1660   23.9570 C   0  0  0  0  0  3  0  0  0  0  0  0
  -17.6200  -30.6760   24.1140 C   0  0  0  0  0  3  0  0  0  0  0  0
  -16.5130  -29.9170   23.6960 C   0  0  0  0  0  3  0  0  0  0  0  0
  -16.7130  -28.6520   23.1130 C   0  0  0  0  0  3  0  0  0  0  0  0
  -25.8800  -32.5330   23.8860 C   0  0  0  0  0  3  0  0  0  0  0  0
  -26.3950  -31.7590   25.1630 C   0  0  1  0  0  0  0  0  0  0  0  0
  -25.3010  -31.5240   26.2310 C   0  0  0  0  0  1  0  0  0  0  0  0
  -26.9730  -30.3800   24.7670 C   0  0  0  0  0  1  0  0  0  0  0  0
  -27.5500  -32.5480   25.8230 C   0  0  0  0  0  1  0  0  0  0  0  0
  -25.5800  -33.9320   24.2160 N   0  0  0  0  0  0  0  0  0  0  0  0
  -25.9090  -34.9800   23.4490 C   0  0  0  0  0  0  0  0  0  0  0  0
  -26.5700  -34.8700   22.4120 O   0  0  0  0  0  0  0  0  0  0  0  0
  -25.0000  -34.0910   25.0260 H   0  0  0  0  0  0  0  0  0  0  0  0
  -24.1780  -36.7710   23.1010 C   0  0  0  0  0  1  0  0  0  0  0  0
  -25.4280  -36.3720   23.9020 C   0  0  0  0  0  3  0  0  0  0  0  0
  -27.5740  -37.2570   24.7010 C   0  0  0  0  0  1  0  0  0  0  0  0
  -26.4610  -37.4230   23.7710 N   0  0  0  0  0  0  0  0  0  0  0  0
  -26.0580  -38.3450   23.9150 H   0  0  0  0  0  0  0  0  0  0  0  0
  -29.8290  -16.5870   19.4690 C   0  0  0  0  0  2  0  0  0  0  0  0
  -30.6590  -14.4910   20.4240 C   0  0  0  0  0  0  0  0  0  0  0  0
  -30.3680  -12.3020   19.3660 C   0  0  0  0  0  2  0  0  0  0  0  0
  -29.4440  -12.5130   18.1470 C   0  0  0  0  0  2  0  0  0  0  0  0
  -27.9610  -12.4080   18.5550 C   0  0  0  0  0  2  0  0  0  0  0  0
  -27.6180  -13.2510   19.8130 C   0  0  0  0  0  3  0  0  0  0  0  0
  -28.6620  -13.0400   20.9370 C   0  0  0  0  0  2  0  0  0  0  0  0
  -29.9990  -13.3040   20.3790 N   0  0  0  0  0  0  0  0  0  0  0  0
  -31.8310  -14.6240   20.0620 O   0  0  0  0  0  0  0  0  0  0  0  0
  -29.8560  -15.5650   20.5320 N   0  0  0  0  0  0  0  0  0  0  0  0
  -28.9570  -15.3710   20.9430 H   0  0  0  0  0  0  0  0  0  0  0  0
  -25.2190  -13.8880   20.4890 C   0  0  0  0  0  0  0  0  0  0  0  0
  -24.1410  -13.1290   20.8530 C   0  0  0  0  0  0  0  0  0  0  0  0
  -24.5910  -11.7730   20.8430 C   0  0  0  0  0  0  0  0  0  0  0  0
  -26.2590  -12.9940   20.2800 N   0  0  0  0  0  0  0  0  0  0  0  0
  -25.8840  -11.7190   20.5510 N   0  0  0  0  0  0  0  0  0  0  0  0
  -23.8530  -10.5180   21.0400 C   0  0  0  0  0  0  0  0  0  0  0  0
  -24.2800   -9.5480   21.9730 C   0  0  0  0  0  3  0  0  0  0  0  0
  -23.5450   -8.3570   22.1560 C   0  0  0  0  0  3  0  0  0  0  0  0
  -22.3670   -8.1300   21.4060 C   0  0  0  0  0  0  0  0  0  0  0  0
  -21.9600   -9.0880   20.4610 C   0  0  0  0  0  3  0  0  0  0  0  0
  -22.6960  -10.2700   20.2740 C   0  0  0  0  0  3  0  0  0  0  0  0
  -21.6030   -6.9910   21.4980 O   0  0  0  0  0  0  0  0  0  0  0  0
  -21.5630   -6.2420   22.6470 C   0  0  0  0  0  0  0  0  0  0  0  0
  -21.1740   -6.7980   23.8860 C   0  0  0  0  0  3  0  0  0  0  0  0
  -21.0770   -5.9770   25.0260 C   0  0  0  0  0  3  0  0  0  0  0  0
  -21.3620   -4.6010   24.9290 C   0  0  0  0  0  0  0  0  0  0  0  0
  -21.7480   -4.0450   23.6960 C   0  0  0  0  0  3  0  0  0  0  0  0
  -21.8440   -4.8640   22.5580 C   0  0  0  0  0  0  0  0  0  0  0  0
  -22.1940   -4.3210   21.3660 F   0  0  0  0  0  0  0  0  0  0  0  0
  -21.2650   -3.8100   26.0220 F   0  0  0  0  0  0  0  0  0  0  0  0
  -22.7430  -13.6190   21.1040 C   0  0  0  0  0  0  0  0  0  0  0  0
  -22.0030  -12.9370   21.9700 N   0  0  0  0  0  0  0  0  0  0  0  0
  -22.3170  -14.6400   20.5660 O   0  0  0  0  0  0  0  0  0  0  0  0
  -22.3620  -12.1110   22.4250 H   0  0  0  0  0  0  0  0  0  0  0  0
  -21.0630  -13.2440   22.1820 H   0  0  0  0  0  0  0  0  0  0  0  0
  -25.3980  -15.2550   20.3000 N   0  0  0  0  0  0  0  0  0  0  0  0
  -24.6310  -15.9130   20.3930 H   0  0  0  0  0  0  0  0  0  0  0  0
  -26.2510  -15.6910   19.9730 H   0  0  0  0  0  0  0  0  0  0  0  0
  1  5  1  0
  2  6  2  0
  2  4  1  0
  3  5  2  0
  4  1  2  0
  5  7  1  0
  6  3  1  0
  8  6  1  0
  9  3  1  0
  9 10  1  0
 10 13  1  0
 10 12  1  0
 11  9  2  0
 14 15  1  0
 14 13  1  0
 16 27  2  0
 17 15  1  0
 17 22  1  0
 18 26  1  0
 18 28  1  0
 19 25  1  0
 19 21  1  0
 20 26  1  0
 21 20  1  0
 22 21  2  0
 23 17  2  0
 24 23  1  0
 24 19  2  0
 25 18  1  0
 26 16  1  0
 28 30  2  0
 29 28  1  0
 31 29  1  0
 32 41  2  0
 32 37  1  0
 33 29  1  0
 33 37  1  0
 34 33  1  0
 35 36  1  0
 35 34  1  0
 36 32  1  0
 37 38  2  0
 38 39  1  0
 40 39  2  0
 41 40  1  0
 42 16  1  0
 42 47  1  0
 42 43  1  0
 43 46  1  1
 43 44  1  0
 45 43  1  0
 47 50  1  0
 48 52  1  0
 48 47  1  0
 49 48  2  0
 52 51  1  0
 54 52  1  0
 54 55  1  0
 54 53  1  0
 56  4  1  0
 56 65  1  0
 57 65  1  0
 58 63  1  0
 59 60  1  0
 59 58  1  0
 61 60  1  0
 61 70  1  0
 61 62  1  0
 63 57  1  0
 63 62  1  0
 64 57  2  0
 65 66  1  0
 67 68  2  0
 68 87  1  0
 69 68  1  0
 69 72  1  0
 70 67  1  0
 70 71  1  0
 71 69  2  0
 72 73  1  0
 73 74  2  0
 75 78  1  0
 75 74  1  0
 76 75  2  0
 77 76  1  0
 77 72  2  0
 78 79  1  0
 79 80  1  0
 80 81  2  0
 82 81  1  0
 82 86  1  0
 83 82  2  0
 84 79  2  0
 84 83  1  0
 85 84  1  0
 87 88  1  0
 88 91  1  0
 88 90  1  0
 89 87  2  0
 92 93  1  0
 92 67  1  0
 94 92  1  0
M  ISO  4  14 101  15 101  57 100  65 100
M  END
>  <TORSDO>  (90) 
F 20

>  <SCORE>  (90) 
-14.008

>  <name>  (90) 
89

>  <ligand_id>  (90) 
89

>  <original_smiles>  (90) 
[H]c1c([H])c([H])c2c(c1[H])C([H])([H])C([H])([H])C([H])([H])C2([H])N([H])C(=O)C1([H])N(C(=O)C([H])(N([H])C(=O)C([H])(N([H])C([H])([H])[H])C([H])([H])[H])C(C([H])([H])[H])(C([H])([H])[H])C([H])([H])[H])C([H])([H])c2c([H])c(OC([H])([H])C([H])([H])N([H])C(=O)c3c(C([H])([H])[H])c([H])c(C([H])([H])N([H])C(=O)N4C([H])([H])C([H])([H])C([H])([H])C([H])(n5nc(-c6c([H])c([H])c(Oc7c([H])c([H])c(F)c([H])c7F)c([H])c6[H])c(C(=O)N([H])[H])c5N([H])[H])C4([H])[H])c([H])c3C([H])([H])[H])c([H])c([H])c2C1([H])[H]

>  <smiles>  (90) 
[H]c1c([H])c([H])c2c(c1[H])C([H])([H])C([H])([H])C([H])([H])C2([H])N([H])C(=O)C1([H])N(C(=O)C([H])(N([H])C(=O)C([H])(N([H])C([H])([H])[H])C([H])([H])[H])C(C([H])([H])[H])(C([H])([H])[H])C([H])([H])[H])C([H])([H])c2c([H])c(OC([H])([H])C([H])([H])N([H])C(=O)c3c(C([H])([H])[H])c([H])c(C([H])([H])N([H])C(=O)N4C([H])([H])C([H])([H])C([H])([H])C([H])(n5nc(-c6c([H])c([H])c(Oc7c([H])c([H])c(F)c([H])c7F)c([H])c6[H])c(C(=O)N([H])[H])c5N([H])[H])C4([H])[H])c([H])c3C([H])([H])[H])c([H])c([H])c2C1([H])[H]

$$$$
90:0:0
     RDKit          3D

101109  0  0  1  0  0  0  0  0999 V2000
  -32.8580  -21.4180   20.9700 C   0  0  0  0  0  3  0  0  0  0  0  0
  -32.1820  -22.5410   20.1310 C   0  0  0  0  0  2  0  0  0  0  0  0
  -31.0090  -24.6730   20.7290 C   0  0  0  0  0  0  0  0  0  0  0  0
  -31.2350  -23.3610   20.8950 N   0  0  0  0  0  0  0  0  0  0  0  0
  -31.6070  -25.3490   19.8890 O   0  0  0  0  0  0  0  0  0  0  0  0
  -30.6610  -22.9030   21.5890 H   0  0  0  0  0  0  0  0  0  0  0  0
  -29.9770  -25.2970   21.6740 C   0  0  0  0  0  2  0  0  0  0  0  0
  -29.4090  -26.6690   21.2570 C   0  0  0  0  0  2  0  0  0  0  0  0
  -28.4890  -26.5210   20.1710 O   0  0  0  0  0  0  0  0  0  0  0  0
  -24.5500  -31.6580   23.1930 C   0  0  0  0  0  0  0  0  0  0  0  0
  -27.3420  -27.2840   20.1830 C   0  0  0  0  0  0  0  0  0  0  0  0
  -23.4000  -30.2500   21.5090 C   0  0  0  0  0  3  0  0  0  0  0  0
  -24.9120  -28.7300   20.1240 C   0  0  0  0  0  0  0  0  0  0  0  0
  -25.9190  -30.6470   21.3780 C   0  0  0  0  0  2  0  0  0  0  0  0
  -26.0390  -29.2780   20.7460 C   0  0  0  0  0  0  0  0  0  0  0  0
  -27.2540  -28.5650   20.7770 C   0  0  0  0  0  3  0  0  0  0  0  0
  -26.2010  -26.7490   19.5510 C   0  0  0  0  0  3  0  0  0  0  0  0
  -24.9840  -27.4600   19.5250 C   0  0  0  0  0  3  0  0  0  0  0  0
  -23.6550  -29.5710   20.1360 C   0  0  0  0  0  2  0  0  0  0  0  0
  -24.6390  -30.8660   22.0870 N   0  0  0  0  0  0  0  0  0  0  0  0
  -23.4530  -31.9160   23.7070 O   0  0  0  0  0  0  0  0  0  0  0  0
  -22.7340  -29.2190   22.4500 C   0  0  0  0  0  0  0  0  0  0  0  0
  -21.4140  -29.0310   22.2880 N   0  0  0  0  0  0  0  0  0  0  0  0
  -23.4020  -28.5940   23.2780 O   0  0  0  0  0  0  0  0  0  0  0  0
  -20.9380  -29.5900   21.5940 H   0  0  0  0  0  0  0  0  0  0  0  0
  -18.0330  -27.8360   22.7080 C   0  0  0  0  0  0  0  0  0  0  0  0
  -20.5850  -28.0850   23.0330 C   0  0  0  0  0  3  0  0  0  0  0  0
  -20.6980  -26.6620   22.4400 C   0  0  0  0  0  2  0  0  0  0  0  0
  -19.6150  -26.3530   21.4030 C   0  0  0  0  0  2  0  0  0  0  0  0
  -18.2220  -26.4930   22.0210 C   0  0  0  0  0  2  0  0  0  0  0  0
  -19.1440  -28.5890   23.1700 C   0  0  0  0  0  0  0  0  0  0  0  0
  -18.9160  -29.8480   23.7690 C   0  0  0  0  0  3  0  0  0  0  0  0
  -17.6100  -30.3510   23.9150 C   0  0  0  0  0  3  0  0  0  0  0  0
  -16.5120  -29.5920   23.4730 C   0  0  0  0  0  3  0  0  0  0  0  0
  -16.7250  -28.3370   22.8740 C   0  0  0  0  0  3  0  0  0  0  0  0
  -25.8150  -32.2950   23.8490 C   0  0  0  0  0  3  0  0  0  0  0  0
  -26.3050  -31.5240   25.1370 C   0  0  1  0  0  0  0  0  0  0  0  0
  -25.1860  -31.2760   26.1750 C   0  0  0  0  0  1  0  0  0  0  0  0
  -26.9090  -30.1520   24.7550 C   0  0  0  0  0  1  0  0  0  0  0  0
  -27.4320  -32.3240   25.8310 C   0  0  0  0  0  1  0  0  0  0  0  0
  -25.4930  -33.6910   24.1690 N   0  0  0  0  0  0  0  0  0  0  0  0
  -25.8360  -34.7420   23.4110 C   0  0  0  0  0  0  0  0  0  0  0  0
  -26.5270  -34.6380   22.3940 O   0  0  0  0  0  0  0  0  0  0  0  0
  -24.8840  -33.8460   24.9580 H   0  0  0  0  0  0  0  0  0  0  0  0
  -24.1020  -36.5190   23.0120 C   0  0  0  0  0  1  0  0  0  0  0  0
  -25.3290  -36.1290   23.8510 C   0  0  0  0  0  3  0  0  0  0  0  0
  -27.4360  -37.0360   24.7250 C   0  0  0  0  0  1  0  0  0  0  0  0
  -26.3570  -37.1880   23.7530 N   0  0  0  0  0  0  0  0  0  0  0  0
  -25.9420  -38.1070   23.8830 H   0  0  0  0  0  0  0  0  0  0  0  0
  -31.8330  -20.4440   21.6230 C   0  0  0  0  0  2  0  0  0  0  0  0
  -29.5040  -17.6640   21.1940 C   0  0  0  0  0  2  0  0  0  0  0  0
  -31.2360  -17.3850   19.3620 C   0  0  0  0  0  2  0  0  0  0  0  0
  -29.7600  -19.1770   20.9860 C   0  0  0  0  0  2  0  0  0  0  0  0
  -32.0040  -18.3190   20.3180 C   0  0  0  0  0  2  0  0  0  0  0  0
  -29.9330  -16.7810   19.9910 C   0  0  2  0  0  0  0  0  0  0  0  0
  -28.8270  -16.8210   18.9110 C   0  0  0  0  0  1  0  0  0  0  0  0
  -31.1790  -19.5150   20.6550 N   0  0  2  0  0  4  0  0  0  0  0  0
  -31.0980  -20.0450   19.8000 H   0  0  0  0  0  0  0  0  0  0  0  0
  -30.7240  -14.3150   20.0760 C   0  0  0  0  0  0  0  0  0  0  0  0
  -30.3200  -12.1700   18.9580 C   0  0  0  0  0  2  0  0  0  0  0  0
  -29.3320  -12.4380   17.8030 C   0  0  0  0  0  2  0  0  0  0  0  0
  -27.8740  -12.3410   18.2920 C   0  0  0  0  0  2  0  0  0  0  0  0
  -27.6200  -13.1590   19.5890 C   0  0  0  0  0  3  0  0  0  0  0  0
  -28.7220  -12.8830   20.6420 C   0  0  0  0  0  2  0  0  0  0  0  0
  -30.0300  -13.1470   20.0180 N   0  0  0  0  0  0  0  0  0  0  0  0
  -31.8550  -14.4380   19.6110 O   0  0  0  0  0  0  0  0  0  0  0  0
  -29.9810  -15.3710   20.4640 N   0  0  0  0  0  0  0  0  0  0  0  0
  -29.1410  -15.0720   20.9380 H   0  0  0  0  0  0  0  0  0  0  0  0
  -25.2710  -13.8230   20.4090 C   0  0  0  0  0  0  0  0  0  0  0  0
  -24.2000  -13.0760   20.8150 C   0  0  0  0  0  0  0  0  0  0  0  0
  -24.6240  -11.7130   20.7520 C   0  0  0  0  0  0  0  0  0  0  0  0
  -26.2830  -12.9180   20.1240 N   0  0  0  0  0  0  0  0  0  0  0  0
  -25.8980  -11.6430   20.3900 N   0  0  0  0  0  0  0  0  0  0  0  0
  -23.8730  -10.4690   20.9610 C   0  0  0  0  0  0  0  0  0  0  0  0
  -24.3070   -9.4940   21.8860 C   0  0  0  0  0  3  0  0  0  0  0  0
  -23.5610   -8.3130   22.0850 C   0  0  0  0  0  3  0  0  0  0  0  0
  -22.3660   -8.0990   21.3580 C   0  0  0  0  0  0  0  0  0  0  0  0
  -21.9500   -9.0620   20.4210 C   0  0  0  0  0  3  0  0  0  0  0  0
  -22.6960  -10.2360   20.2230 C   0  0  0  0  0  3  0  0  0  0  0  0
  -21.5870   -6.9740   21.4690 O   0  0  0  0  0  0  0  0  0  0  0  0
  -21.5410   -6.2390   22.6280 C   0  0  0  0  0  0  0  0  0  0  0  0
  -21.1290   -6.8080   23.8530 C   0  0  0  0  0  3  0  0  0  0  0  0
  -21.0310   -6.0030   25.0050 C   0  0  0  0  0  3  0  0  0  0  0  0
  -21.3340   -4.6300   24.9320 C   0  0  0  0  0  0  0  0  0  0  0  0
  -21.7410   -4.0610   23.7110 C   0  0  0  0  0  3  0  0  0  0  0  0
  -21.8410   -4.8640   22.5620 C   0  0  0  0  0  0  0  0  0  0  0  0
  -22.2160   -4.3080   21.3850 F   0  0  0  0  0  0  0  0  0  0  0  0
  -21.2310   -3.8530   26.0350 F   0  0  0  0  0  0  0  0  0  0  0  0
  -22.8280  -13.5860   21.1500 C   0  0  0  0  0  0  0  0  0  0  0  0
  -22.1210  -12.8990   22.0400 N   0  0  0  0  0  0  0  0  0  0  0  0
  -22.3970  -14.6290   20.6610 O   0  0  0  0  0  0  0  0  0  0  0  0
  -22.4840  -12.0550   22.4570 H   0  0  0  0  0  0  0  0  0  0  0  0
  -21.2020  -13.2230   22.3090 H   0  0  0  0  0  0  0  0  0  0  0  0
  -25.4620  -15.1900   20.2360 N   0  0  0  0  0  0  0  0  0  0  0  0
  -24.7140  -15.8600   20.3810 H   0  0  0  0  0  0  0  0  0  0  0  0
  -26.2950  -15.6040   19.8430 H   0  0  0  0  0  0  0  0  0  0  0  0
  -33.8230  -22.0310   22.0240 C   0  0  0  0  0  2  0  0  0  0  0  0
  -34.9510  -21.1500   22.3870 N   0  0  0  0  0  4  0  0  0  0  0  0
  -34.6520  -20.2900   22.8130 H   0  0  0  0  0  0  0  0  0  0  0  0
  -35.5420  -21.6200   23.0500 H   0  0  0  0  0  0  0  0  0  0  0  0
  -35.5200  -20.9370   21.5860 H   0  0  0  0  0  0  0  0  0  0  0  0
  1  2  1  0
  1 50  1  0
  1 97  1  0
  2  4  1  0
  3  4  1  0
  3  7  1  0
  4  6  1  0
  5  3  2  0
  8  7  1  0
  9 11  1  0
  9  8  1  0
 10 21  2  0
 11 16  1  0
 12 20  1  0
 12 22  1  0
 13 19  1  0
 13 15  1  0
 14 20  1  0
 15 16  2  0
 15 14  1  0
 17 11  2  0
 18 17  1  0
 18 13  2  0
 19 12  1  0
 20 10  1  0
 22 24  2  0
 23 22  1  0
 25 23  1  0
 26 35  2  0
 26 31  1  0
 27 23  1  0
 27 31  1  0
 28 27  1  0
 29 30  1  0
 29 28  1  0
 30 26  1  0
 31 32  2  0
 32 33  1  0
 34 33  2  0
 35 34  1  0
 36 10  1  0
 36 41  1  0
 36 37  1  0
 37 40  1  1
 37 38  1  0
 39 37  1  0
 41 44  1  0
 42 46  1  0
 42 41  1  0
 43 42  2  0
 46 45  1  0
 48 46  1  0
 48 49  1  0
 48 47  1  0
 52 55  1  0
 52 54  1  0
 53 51  1  0
 54 57  1  0
 55 56  1  6
 55 67  1  0
 55 51  1  0
 57 53  1  0
 57 50  1  0
 57 58  1  6
 59 67  1  0
 60 65  1  0
 61 62  1  0
 61 60  1  0
 63 62  1  0
 63 72  1  0
 63 64  1  0
 65 59  1  0
 65 64  1  0
 66 59  2  0
 67 68  1  0
 69 70  2  0
 70 89  1  0
 71 70  1  0
 71 74  1  0
 72 73  1  0
 72 69  1  0
 73 71  2  0
 74 75  1  0
 75 76  2  0
 77 80  1  0
 77 76  1  0
 78 77  2  0
 79 78  1  0
 79 74  2  0
 80 81  1  0
 81 82  1  0
 82 83  2  0
 84 83  1  0
 84 88  1  0
 85 84  2  0
 86 81  2  0
 86 85  1  0
 87 86  1  0
 89 90  1  0
 90 93  1  0
 90 92  1  0
 91 89  2  0
 94 95  1  0
 94 69  1  0
 96 94  1  0
 97 98  1  0
 98 99  1  0
 98100  1  0
101 98  1  0
M  ISO  4   8 101   9 101  59 100  67 100
M  END
>  <TORSDO>  (91) 
F 24

>  <SCORE>  (91) 
-11.840

>  <name>  (91) 
90

>  <ligand_id>  (91) 
90

>  <original_smiles>  (91) 
[H]c1c([H])c([H])c2c(c1[H])C([H])([H])C([H])([H])C([H])([H])C2([H])N([H])C(=O)C1([H])N(C(=O)C([H])(N([H])C(=O)C([H])(N([H])C([H])([H])[H])C([H])([H])[H])C(C([H])([H])[H])(C([H])([H])[H])C([H])([H])[H])C([H])([H])c2c([H])c(OC([H])([H])C([H])([H])C(=O)N([H])C([H])([H])C([H])(C([H])([H])[N+]([H])([H])[H])C([H])([H])[N+]3([H])C([H])([H])C([H])([H])C(N([H])C(=O)N4C([H])([H])C([H])([H])C([H])([H])C([H])(n5nc(-c6c([H])c([H])c(Oc7c([H])c([H])c(F)c([H])c7F)c([H])c6[H])c(C(=O)N([H])[H])c5N([H])[H])C4([H])[H])(C([H])([H])[H])C([H])([H])C3([H])[H])c([H])c([H])c2C1([H])[H]

>  <smiles>  (91) 
[H]c1c([H])c([H])c2c(c1[H])C([H])([H])C([H])([H])C([H])([H])C2([H])N([H])C(=O)C1([H])N(C(=O)C([H])(N([H])C(=O)C([H])(N([H])C([H])([H])[H])C([H])([H])[H])C(C([H])([H])[H])(C([H])([H])[H])C([H])([H])[H])C([H])([H])c2c([H])c(OC([H])([H])C([H])([H])C(=O)N([H])C([H])([H])C([H])(C([H])([H])[N+]([H])([H])[H])C([H])([H])[N+]3([H])C([H])([H])C([H])([H])C(N([H])C(=O)N4C([H])([H])C([H])([H])C([H])([H])C([H])(n5nc(-c6c([H])c([H])c(Oc7c([H])c([H])c(F)c([H])c7F)c([H])c6[H])c(C(=O)N([H])[H])c5N([H])[H])C4([H])[H])(C([H])([H])[H])C([H])([H])C3([H])[H])c([H])c([H])c2C1([H])[H]

$$$$
91:0:0
     RDKit          3D

 95103  0  0  1  0  0  0  0  0999 V2000
  -27.9750  -19.6750   20.8900 C   0  0  0  0  0  2  0  0  0  0  0  0
  -27.5350  -21.0620   20.4650 C   0  0  0  0  0  2  0  0  0  0  0  0
  -29.8030  -20.7100   19.6790 C   0  0  0  0  0  2  0  0  0  0  0  0
  -29.1430  -19.2970   19.9530 C   0  0  0  0  0  3  0  0  0  0  0  0
  -28.8360  -21.8470   20.2080 C   0  0  0  0  0  3  0  0  0  0  0  0
  -27.2180  -23.5950   19.4640 C   0  0  0  0  0  1  0  0  0  0  0  0
  -28.6330  -23.1250   19.3950 N   0  0  1  0  0  4  0  0  0  0  0  0
  -28.8050  -22.8840   18.4300 H   0  0  0  0  0  0  0  0  0  0  0  0
  -29.5260  -24.2940   19.7440 C   0  0  0  0  0  2  0  0  0  0  0  0
  -29.4190  -25.5640   18.8040 C   0  0  0  0  0  2  0  0  0  0  0  0
  -29.2100  -26.8650   19.4380 O   0  0  0  0  0  0  0  0  0  0  0  0
  -24.8170  -31.1950   23.0650 C   0  0  0  0  0  0  0  0  0  0  0  0
  -27.9750  -27.5100   19.4490 C   0  0  0  0  0  0  0  0  0  0  0  0
  -23.8080  -29.9900   21.1580 C   0  0  0  0  0  3  0  0  0  0  0  0
  -25.4520  -28.8320   19.5840 C   0  0  0  0  0  0  0  0  0  0  0  0
  -26.3070  -30.5620   21.1660 C   0  0  0  0  0  2  0  0  0  0  0  0
  -26.5400  -29.3270   20.3150 C   0  0  0  0  0  0  0  0  0  0  0  0
  -27.7950  -28.6690   20.2560 C   0  0  0  0  0  3  0  0  0  0  0  0
  -26.8700  -27.0710   18.6810 C   0  0  0  0  0  3  0  0  0  0  0  0
  -25.6140  -27.6990   18.7720 C   0  0  0  0  0  3  0  0  0  0  0  0
  -24.1360  -29.5730   19.7000 C   0  0  0  0  0  2  0  0  0  0  0  0
  -24.9900  -30.5930   21.8540 N   0  0  0  0  0  0  0  0  0  0  0  0
  -23.6980  -31.2840   23.5860 O   0  0  0  0  0  0  0  0  0  0  0  0
  -23.2210  -28.7700   21.9020 C   0  0  0  0  0  0  0  0  0  0  0  0
  -21.9220  -28.5100   21.6900 N   0  0  0  0  0  0  0  0  0  0  0  0
  -23.9330  -28.0660   22.6220 O   0  0  0  0  0  0  0  0  0  0  0  0
  -21.4040  -29.1420   21.0960 H   0  0  0  0  0  0  0  0  0  0  0  0
  -18.6390  -27.0040   21.8570 C   0  0  0  0  0  0  0  0  0  0  0  0
  -21.1650  -27.3920   22.2540 C   0  0  0  0  0  3  0  0  0  0  0  0
  -21.3950  -26.0980   21.4410 C   0  0  0  0  0  2  0  0  0  0  0  0
  -20.3380  -25.8840   20.3540 C   0  0  0  0  0  2  0  0  0  0  0  0
  -18.9350  -25.8070   20.9690 C   0  0  0  0  0  2  0  0  0  0  0  0
  -19.6870  -27.7560   22.4480 C   0  0  0  0  0  0  0  0  0  0  0  0
  -19.3620  -28.8820   23.2390 C   0  0  0  0  0  3  0  0  0  0  0  0
  -18.0200  -29.2520   23.4490 C   0  0  0  0  0  3  0  0  0  0  0  0
  -16.9840  -28.4910   22.8790 C   0  0  0  0  0  3  0  0  0  0  0  0
  -17.2960  -27.3710   22.0860 C   0  0  0  0  0  3  0  0  0  0  0  0
  -26.0160  -31.8230   23.8420 C   0  0  0  0  0  3  0  0  0  0  0  0
  -25.6230  -33.1810   24.2410 N   0  0  0  0  0  0  0  0  0  0  0  0
  -26.0040  -34.2980   23.6070 C   0  0  0  0  0  0  0  0  0  0  0  0
  -26.7940  -34.2930   22.6600 O   0  0  0  0  0  0  0  0  0  0  0  0
  -24.9320  -33.2570   24.9720 H   0  0  0  0  0  0  0  0  0  0  0  0
  -24.2870  -36.0800   23.1640 C   0  0  0  0  0  1  0  0  0  0  0  0
  -25.4160  -35.6330   24.1050 C   0  0  0  0  0  3  0  0  0  0  0  0
  -27.3890  -36.4870   25.2920 C   0  0  0  0  0  1  0  0  0  0  0  0
  -26.4210  -36.7130   24.2210 N   0  0  0  0  0  0  0  0  0  0  0  0
  -25.9720  -37.6100   24.3820 H   0  0  0  0  0  0  0  0  0  0  0  0
  -26.4450  -30.9770   25.1020 C   0  0  1  0  0  0  0  0  0  0  0  0
  -25.2730  -30.6280   26.0490 C   0  0  0  0  0  1  0  0  0  0  0  0
  -27.1130  -29.6500   24.6740 C   0  0  0  0  0  1  0  0  0  0  0  0
  -27.5010  -31.7570   25.9210 C   0  0  0  0  0  1  0  0  0  0  0  0
  -29.9840  -18.0420   20.4830 C   0  0  0  0  0  3  0  0  0  0  0  0
  -29.2000  -17.3050   21.5020 N   0  0  0  0  0  4  0  0  0  0  0  0
  -28.3610  -16.9170   21.1070 H   0  0  0  0  0  0  0  0  0  0  0  0
  -28.9320  -17.9340   22.2360 H   0  0  0  0  0  0  0  0  0  0  0  0
  -29.7560  -16.5750   21.9130 H   0  0  0  0  0  0  0  0  0  0  0  0
  -30.5660  -17.0100   19.4220 C   0  0  0  0  0  2  0  0  0  0  0  0
  -31.3060  -14.5260   19.4770 C   0  0  0  0  0  0  0  0  0  0  0  0
  -30.9990  -12.2070   18.6690 C   0  0  0  0  0  2  0  0  0  0  0  0
  -29.9190  -12.2330   17.5620 C   0  0  0  0  0  2  0  0  0  0  0  0
  -28.5010  -12.1480   18.1670 C   0  0  0  0  0  2  0  0  0  0  0  0
  -28.2920  -13.1420   19.3410 C   0  0  0  0  0  3  0  0  0  0  0  0
  -29.4650  -13.0540   20.3460 C   0  0  0  0  0  2  0  0  0  0  0  0
  -30.7070  -13.3080   19.6000 N   0  0  0  0  0  0  0  0  0  0  0  0
  -32.4000  -14.6840   18.9280 O   0  0  0  0  0  0  0  0  0  0  0  0
  -30.4920  -15.5640   19.8060 N   0  0  0  0  0  0  0  0  0  0  0  0
  -29.5960  -15.2280   20.1200 H   0  0  0  0  0  0  0  0  0  0  0  0
  -26.1100  -13.9040   20.4710 C   0  0  0  0  0  0  0  0  0  0  0  0
  -25.0300  -13.2040   20.9360 C   0  0  0  0  0  0  0  0  0  0  0  0
  -25.3250  -11.8250   20.7030 C   0  0  0  0  0  0  0  0  0  0  0  0
  -27.0020  -12.9540   19.9950 N   0  0  0  0  0  0  0  0  0  0  0  0
  -26.5410  -11.6940   20.1920 N   0  0  0  0  0  0  0  0  0  0  0  0
  -24.5000  -10.6240   20.8850 C   0  0  0  0  0  0  0  0  0  0  0  0
  -24.8900   -9.5880   21.7610 C   0  0  0  0  0  3  0  0  0  0  0  0
  -24.0720   -8.4490   21.9300 C   0  0  0  0  0  3  0  0  0  0  0  0
  -22.8500   -8.3420   21.2250 C   0  0  0  0  0  0  0  0  0  0  0  0
  -22.4790   -9.3660   20.3360 C   0  0  0  0  0  3  0  0  0  0  0  0
  -23.2960  -10.4950   20.1640 C   0  0  0  0  0  3  0  0  0  0  0  0
  -22.0030   -7.2630   21.3110 O   0  0  0  0  0  0  0  0  0  0  0  0
  -21.8460   -6.5640   22.4800 C   0  0  0  0  0  0  0  0  0  0  0  0
  -21.3720   -7.1790   23.6600 C   0  0  0  0  0  3  0  0  0  0  0  0
  -21.1570   -6.4070   24.8180 C   0  0  0  0  0  3  0  0  0  0  0  0
  -21.4040   -5.0210   24.7990 C   0  0  0  0  0  0  0  0  0  0  0  0
  -21.8730   -4.4070   23.6230 C   0  0  0  0  0  3  0  0  0  0  0  0
  -22.0890   -5.1760   22.4680 C   0  0  0  0  0  0  0  0  0  0  0  0
  -22.5180   -4.5740   21.3310 F   0  0  0  0  0  0  0  0  0  0  0  0
  -21.1910   -4.2790   25.9100 F   0  0  0  0  0  0  0  0  0  0  0  0
  -23.7460  -13.7780   21.4640 C   0  0  0  0  0  0  0  0  0  0  0  0
  -23.0930  -13.0760   22.3830 N   0  0  0  0  0  0  0  0  0  0  0  0
  -23.3440  -14.8810   21.0960 O   0  0  0  0  0  0  0  0  0  0  0  0
  -23.4360  -12.1800   22.6970 H   0  0  0  0  0  0  0  0  0  0  0  0
  -22.2330  -13.4340   22.7740 H   0  0  0  0  0  0  0  0  0  0  0  0
  -26.4060  -15.2640   20.3930 N   0  0  0  0  0  0  0  0  0  0  0  0
  -25.6340  -15.9040   20.5440 H   0  0  0  0  0  0  0  0  0  0  0  0
  -27.0030  -15.5830   19.6390 H   0  0  0  0  0  0  0  0  0  0  0  0
  2  1  1  0
  3  4  1  0
  3  5  1  0
  4 52  1  0
  4  1  1  0
  5  7  1  0
  5  2  1  0
  7  6  1  0
  7  9  1  0
  7  8  1  6
 10 11  1  0
 10  9  1  0
 11 13  1  0
 12 23  2  0
 13 18  1  0
 14 22  1  0
 14 24  1  0
 15 21  1  0
 15 17  1  0
 16 22  1  0
 17 16  1  0
 18 17  2  0
 19 20  1  0
 19 13  2  0
 20 15  2  0
 21 14  1  0
 22 12  1  0
 24 26  2  0
 25 24  1  0
 27 25  1  0
 28 37  2  0
 28 33  1  0
 29 25  1  0
 29 33  1  0
 30 29  1  0
 31 32  1  0
 31 30  1  0
 32 28  1  0
 33 34  2  0
 34 35  1  0
 36 35  2  0
 37 36  1  0
 38 12  1  0
 38 39  1  0
 38 48  1  0
 39 42  1  0
 40 44  1  0
 40 39  1  0
 41 40  2  0
 44 43  1  0
 44 46  1  0
 46 47  1  0
 46 45  1  0
 48 51  1  1
 48 49  1  0
 50 48  1  0
 52 57  1  0
 52 53  1  0
 53 56  1  0
 53 55  1  0
 54 53  1  0
 57 66  1  0
 58 64  1  0
 58 66  1  0
 59 64  1  0
 60 61  1  0
 60 59  1  0
 62 61  1  0
 62 71  1  0
 62 63  1  0
 64 63  1  0
 65 58  2  0
 66 67  1  0
 68 69  2  0
 69 88  1  0
 70 73  1  0
 70 69  1  0
 71 72  1  0
 71 68  1  0
 72 70  2  0
 73 74  1  0
 74 75  2  0
 76 79  1  0
 76 75  1  0
 77 76  2  0
 78 77  1  0
 78 73  2  0
 79 80  1  0
 80 81  1  0
 81 82  2  0
 83 82  1  0
 83 87  1  0
 84 83  2  0
 85 80  2  0
 85 84  1  0
 86 85  1  0
 88 89  1  0
 89 91  1  0
 89 92  1  0
 90 88  2  0
 93 68  1  0
 93 94  1  0
 95 93  1  0
M  ISO  4  10 101  11 101  58 100  66 100
M  END
>  <TORSDO>  (92) 
F 22

>  <SCORE>  (92) 
-9.681

>  <name>  (92) 
91

>  <ligand_id>  (92) 
91

>  <original_smiles>  (92) 
[H]c1c([H])c([H])c2c(c1[H])C([H])([H])C([H])([H])C([H])([H])C2([H])N([H])C(=O)C1([H])N(C(=O)C([H])(N([H])C(=O)C([H])(N([H])C([H])([H])[H])C([H])([H])[H])C(C([H])([H])[H])(C([H])([H])[H])C([H])([H])[H])C([H])([H])c2c([H])c(OC([H])([H])C([H])([H])[N+]([H])(C([H])([H])[H])C3([H])C([H])([H])C([H])([H])C([H])(C([H])(C([H])([H])N([H])C(=O)N4C([H])([H])C([H])([H])C([H])([H])C([H])(n5nc(-c6c([H])c([H])c(Oc7c([H])c([H])c(F)c([H])c7F)c([H])c6[H])c(C(=O)N([H])[H])c5N([H])[H])C4([H])[H])[N+]([H])([H])[H])C3([H])[H])c([H])c([H])c2C1([H])[H]

>  <smiles>  (92) 
[H]c1c([H])c([H])c2c(c1[H])C([H])([H])C([H])([H])C([H])([H])C2([H])N([H])C(=O)C1([H])N(C(=O)C([H])(N([H])C(=O)C([H])(N([H])C([H])([H])[H])C([H])([H])[H])C(C([H])([H])[H])(C([H])([H])[H])C([H])([H])[H])C([H])([H])c2c([H])c(OC([H])([H])C([H])([H])[N+]([H])(C([H])([H])[H])C3([H])C([H])([H])C([H])([H])C([H])(C([H])(C([H])([H])N([H])C(=O)N4C([H])([H])C([H])([H])C([H])([H])C([H])(n5nc(-c6c([H])c([H])c(Oc7c([H])c([H])c(F)c([H])c7F)c([H])c6[H])c(C(=O)N([H])[H])c5N([H])[H])C4([H])[H])[N+]([H])([H])[H])C3([H])[H])c([H])c([H])c2C1([H])[H]

$$$$
92:0:0
     RDKit          3D

 94105  0  0  1  0  0  0  0  0999 V2000
  -28.8700  -24.0800   20.1720 C   0  0  0  0  0  0  0  0  0  0  0  0
  -28.4720  -21.1360   21.8420 C   0  0  0  0  0  2  0  0  0  0  0  0
  -28.0150  -22.5920   21.9910 C   0  0  0  0  0  2  0  0  0  0  0  0
  -29.3120  -21.5520   20.6240 C   0  0  0  0  0  3  0  0  0  0  0  0
  -28.4770  -22.7880   20.6230 N   0  0  0  0  0  0  0  0  0  0  0  0
  -29.8080  -24.2100   19.3810 O   0  0  0  0  0  0  0  0  0  0  0  0
  -29.1370  -20.6020   19.3990 C   0  0  0  0  0  0  0  0  0  0  0  0
  -28.2490  -18.2470   18.2480 C   0  0  0  0  0  2  0  0  0  0  0  0
  -30.6500  -17.3560   18.4810 C   0  0  0  0  0  2  0  0  0  0  0  0
  -29.7680  -18.5570   18.1180 C   0  0  1  0  0  0  0  0  0  0  0  0
  -28.7810  -17.9880   19.6650 C   0  0  2  0  0  0  0  0  0  0  0  0
  -29.6830  -16.7200   19.4660 C   0  0  0  0  0  3  0  0  0  0  0  0
  -29.6080  -19.2290   19.4180 N   0  0  0  0  0  0  0  0  0  0  0  0
  -28.7560  -21.1260   18.3470 O   0  0  0  0  0  0  0  0  0  0  0  0
  -30.9090  -14.7320   20.3090 C   0  0  0  0  0  0  0  0  0  0  0  0
  -30.6190  -12.5090   19.2570 C   0  0  0  0  0  2  0  0  0  0  0  0
  -29.6880  -12.6390   18.0350 C   0  0  0  0  0  2  0  0  0  0  0  0
  -28.2150  -12.4880   18.4640 C   0  0  0  0  0  2  0  0  0  0  0  0
  -27.8540  -13.3700   19.6890 C   0  0  0  0  0  3  0  0  0  0  0  0
  -28.9100  -13.2590   20.8110 C   0  0  0  0  0  2  0  0  0  0  0  0
  -30.2210  -13.5550   20.2180 N   0  0  0  0  0  0  0  0  0  0  0  0
  -32.0900  -14.8190   19.9710 O   0  0  0  0  0  0  0  0  0  0  0  0
  -30.2100  -15.8720   20.5720 N   0  0  0  0  0  0  0  0  0  0  0  0
  -30.7070  -16.4530   21.2310 H   0  0  0  0  0  0  0  0  0  0  0  0
  -25.4600  -13.9940   20.3730 C   0  0  0  0  0  0  0  0  0  0  0  0
  -24.3880  -13.2320   20.7450 C   0  0  0  0  0  0  0  0  0  0  0  0
  -24.8470  -11.8800   20.7490 C   0  0  0  0  0  0  0  0  0  0  0  0
  -26.5040  -13.1050   20.1700 N   0  0  0  0  0  0  0  0  0  0  0  0
  -26.1400  -11.8290   20.4580 N   0  0  0  0  0  0  0  0  0  0  0  0
  -24.1160  -10.6240   20.9550 C   0  0  0  0  0  0  0  0  0  0  0  0
  -24.5360   -9.6740   21.9130 C   0  0  0  0  0  3  0  0  0  0  0  0
  -23.8060   -8.4820   22.1070 C   0  0  0  0  0  3  0  0  0  0  0  0
  -22.6420   -8.2310   21.3430 C   0  0  0  0  0  0  0  0  0  0  0  0
  -22.2410   -9.1690   20.3750 C   0  0  0  0  0  3  0  0  0  0  0  0
  -22.9720  -10.3530   20.1790 C   0  0  0  0  0  3  0  0  0  0  0  0
  -21.8850   -7.0900   21.4450 O   0  0  0  0  0  0  0  0  0  0  0  0
  -21.8210   -6.3710   22.6120 C   0  0  0  0  0  0  0  0  0  0  0  0
  -21.3690   -6.9510   23.8190 C   0  0  0  0  0  3  0  0  0  0  0  0
  -21.2530   -6.1580   24.9790 C   0  0  0  0  0  3  0  0  0  0  0  0
  -21.5770   -4.7880   24.9320 C   0  0  0  0  0  0  0  0  0  0  0  0
  -22.0210   -4.2100   23.7310 C   0  0  0  0  0  3  0  0  0  0  0  0
  -22.1400   -4.9990   22.5730 C   0  0  0  0  0  0  0  0  0  0  0  0
  -22.5480   -4.4330   21.4130 F   0  0  0  0  0  0  0  0  0  0  0  0
  -21.4580   -4.0250   26.0440 F   0  0  0  0  0  0  0  0  0  0  0  0
  -22.9890  -13.7180   20.9910 C   0  0  0  0  0  0  0  0  0  0  0  0
  -22.2520  -13.0440   21.8660 N   0  0  0  0  0  0  0  0  0  0  0  0
  -22.5590  -14.7310   20.4440 O   0  0  0  0  0  0  0  0  0  0  0  0
  -22.6140  -12.2240   22.3320 H   0  0  0  0  0  0  0  0  0  0  0  0
  -21.3140  -13.3520   22.0750 H   0  0  0  0  0  0  0  0  0  0  0  0
  -25.6320  -15.3610   20.1690 N   0  0  0  0  0  0  0  0  0  0  0  0
  -24.8700  -16.0230   20.2700 H   0  0  0  0  0  0  0  0  0  0  0  0
  -26.5000  -15.7930   19.8830 H   0  0  0  0  0  0  0  0  0  0  0  0
  -28.1630  -25.3400   20.7960 C   0  0  0  0  0  2  0  0  0  0  0  0
  -28.3850  -26.6260   20.1150 O   0  0  0  0  0  0  0  0  0  0  0  0
  -24.6450  -31.9200   23.2230 C   0  0  0  0  0  0  0  0  0  0  0  0
  -27.2740  -27.4640   20.0920 C   0  0  0  0  0  0  0  0  0  0  0  0
  -23.4400  -30.5380   21.5670 C   0  0  0  0  0  3  0  0  0  0  0  0
  -24.8930  -29.0230   20.1110 C   0  0  0  0  0  0  0  0  0  0  0  0
  -25.9710  -30.8910   21.3710 C   0  0  0  0  0  2  0  0  0  0  0  0
  -26.0590  -29.5250   20.7060 C   0  0  0  0  0  0  0  0  0  0  0  0
  -27.2580  -28.7580   20.6850 C   0  0  0  0  0  3  0  0  0  0  0  0
  -26.0930  -27.0050   19.4710 C   0  0  0  0  0  3  0  0  0  0  0  0
  -24.9110  -27.7670   19.4840 C   0  0  0  0  0  3  0  0  0  0  0  0
  -23.6470  -29.8820   20.1770 C   0  0  0  0  0  2  0  0  0  0  0  0
  -24.7050  -31.1310   22.1120 N   0  0  0  0  0  0  0  0  0  0  0  0
  -23.5630  -32.1810   23.7690 O   0  0  0  0  0  0  0  0  0  0  0  0
  -22.7920  -29.5030   22.5180 C   0  0  0  0  0  0  0  0  0  0  0  0
  -21.4670  -29.3170   22.3930 N   0  0  0  0  0  0  0  0  0  0  0  0
  -23.4800  -28.8710   23.3230 O   0  0  0  0  0  0  0  0  0  0  0  0
  -20.9710  -29.8820   21.7180 H   0  0  0  0  0  0  0  0  0  0  0  0
  -18.1030  -28.0870   22.8800 C   0  0  0  0  0  0  0  0  0  0  0  0
  -20.6580  -28.3620   23.1530 C   0  0  0  0  0  3  0  0  0  0  0  0
  -20.7710  -26.9400   22.5590 C   0  0  0  0  0  2  0  0  0  0  0  0
  -19.6710  -26.6200   21.5430 C   0  0  0  0  0  2  0  0  0  0  0  0
  -18.2890  -26.7470   22.1900 C   0  0  0  0  0  2  0  0  0  0  0  0
  -19.2160  -28.8520   23.3170 C   0  0  0  0  0  0  0  0  0  0  0  0
  -18.9880  -30.1070   23.9220 C   0  0  0  0  0  3  0  0  0  0  0  0
  -17.6800  -30.5960   24.0950 C   0  0  0  0  0  3  0  0  0  0  0  0
  -16.5810  -29.8270   23.6740 C   0  0  0  0  0  3  0  0  0  0  0  0
  -16.7930  -28.5740   23.0720 C   0  0  0  0  0  3  0  0  0  0  0  0
  -25.9280  -32.5490   23.8480 C   0  0  0  0  0  3  0  0  0  0  0  0
  -25.6210  -33.9490   24.1740 N   0  0  0  0  0  0  0  0  0  0  0  0
  -25.9680  -35.0000   23.4210 C   0  0  0  0  0  0  0  0  0  0  0  0
  -26.6530  -34.8940   22.3990 O   0  0  0  0  0  0  0  0  0  0  0  0
  -25.0120  -34.1060   24.9650 H   0  0  0  0  0  0  0  0  0  0  0  0
  -24.2630  -36.8080   23.0330 C   0  0  0  0  0  1  0  0  0  0  0  0
  -25.4810  -36.3920   23.8720 C   0  0  0  0  0  3  0  0  0  0  0  0
  -27.6020  -37.2580   24.7560 C   0  0  0  0  0  1  0  0  0  0  0  0
  -26.5250  -37.4370   23.7860 N   0  0  0  0  0  0  0  0  0  0  0  0
  -26.1230  -38.3610   23.9230 H   0  0  0  0  0  0  0  0  0  0  0  0
  -26.4380  -31.7790   25.1260 C   0  0  1  0  0  0  0  0  0  0  0  0
  -25.3420  -31.5450   26.1910 C   0  0  0  0  0  1  0  0  0  0  0  0
  -27.0210  -30.4000   24.7390 C   0  0  0  0  0  1  0  0  0  0  0  0
  -27.5880  -32.5730   25.7910 C   0  0  0  0  0  1  0  0  0  0  0  0
  1  5  1  0
  1 53  1  0
  2  3  1  0
  4  7  1  0
  4  2  1  0
  5  4  1  0
  5  3  1  0
  6  1  2  0
  7 13  1  0
  9 12  1  0
 10  8  1  1
 10  9  1  0
 10 13  1  0
 10 11  1  0
 11  8  1  6
 12 11  1  0
 12 23  1  0
 13 11  1  0
 14  7  2  0
 15 23  1  0
 16 21  1  0
 17 18  1  0
 17 16  1  0
 19 18  1  0
 19 28  1  0
 19 20  1  0
 21 15  1  0
 21 20  1  0
 22 15  2  0
 23 24  1  0
 25 26  2  0
 26 27  1  0
 26 45  1  0
 27 30  1  0
 28 25  1  0
 28 29  1  0
 29 27  2  0
 30 31  1  0
 31 32  2  0
 33 36  1  0
 33 32  1  0
 34 33  2  0
 35 34  1  0
 35 30  2  0
 36 37  1  0
 37 38  1  0
 38 39  2  0
 40 39  1  0
 40 44  1  0
 41 40  2  0
 42 37  2  0
 42 41  1  0
 43 42  1  0
 45 46  1  0
 46 49  1  0
 46 48  1  0
 47 45  2  0
 50 51  1  0
 50 25  1  0
 52 50  1  0
 54 53  1  0
 55 66  2  0
 56 54  1  0
 56 61  1  0
 57 65  1  0
 57 67  1  0
 58 64  1  0
 58 60  1  0
 59 65  1  0
 60 59  1  0
 61 60  2  0
 62 63  1  0
 62 56  2  0
 63 58  2  0
 64 57  1  0
 65 55  1  0
 67 69  2  0
 68 67  1  0
 70 68  1  0
 71 80  2  0
 71 76  1  0
 72 68  1  0
 72 76  1  0
 73 72  1  0
 74 75  1  0
 74 73  1  0
 75 71  1  0
 76 77  2  0
 77 78  1  0
 79 78  2  0
 80 79  1  0
 81 55  1  0
 81 82  1  0
 81 91  1  0
 82 85  1  0
 83 87  1  0
 83 82  1  0
 84 83  2  0
 87 86  1  0
 89 87  1  0
 89 90  1  0
 89 88  1  0
 91 94  1  1
 91 92  1  0
 93 91  1  0
M  ISO  4  15 100  23 100  53 101  54 101
M  END
>  <TORSDO>  (93) 
F 18

>  <SCORE>  (93) 
-14.390

>  <name>  (93) 
92

>  <ligand_id>  (93) 
92

>  <original_smiles>  (93) 
[H]c1c([H])c([H])c2c(c1[H])C([H])([H])C([H])([H])C([H])([H])C2([H])N([H])C(=O)C1([H])N(C(=O)C([H])(N([H])C(=O)C([H])(N([H])C([H])([H])[H])C([H])([H])[H])C(C([H])([H])[H])(C([H])([H])[H])C([H])([H])[H])C([H])([H])c2c([H])c(OC([H])([H])C(=O)N3C([H])([H])C([H])([H])C3([H])C(=O)N3C4([H])C([H])([H])C([H])(N([H])C(=O)N5C([H])([H])C([H])([H])C([H])([H])C([H])(n6nc(-c7c([H])c([H])c(Oc8c([H])c([H])c(F)c([H])c8F)c([H])c7[H])c(C(=O)N([H])[H])c6N([H])[H])C5([H])[H])C3([H])C4([H])[H])c([H])c([H])c2C1([H])[H]

>  <smiles>  (93) 
[H]c1c([H])c([H])c2c(c1[H])C([H])([H])C([H])([H])C([H])([H])C2([H])N([H])C(=O)C1([H])N(C(=O)C([H])(N([H])C(=O)C([H])(N([H])C([H])([H])[H])C([H])([H])[H])C(C([H])([H])[H])(C([H])([H])[H])C([H])([H])[H])C([H])([H])c2c([H])c(OC([H])([H])C(=O)N3C([H])([H])C([H])([H])C3([H])C(=O)N3C4([H])C([H])([H])C([H])(N([H])C(=O)N5C([H])([H])C([H])([H])C([H])([H])C([H])(n6nc(-c7c([H])c([H])c(Oc8c([H])c([H])c(F)c([H])c8F)c([H])c7[H])c(C(=O)N([H])[H])c6N([H])[H])C5([H])[H])C3([H])C4([H])[H])c([H])c([H])c2C1([H])[H]

$$$$
93:0:0
     RDKit          3D

 89 97  0  0  1  0  0  0  0  0999 V2000
  -29.5970  -20.7510   18.9270 C   0  0  0  0  0  3  0  0  0  0  0  0
  -29.2710  -22.3430   21.1140 C   0  0  0  0  0  3  0  0  0  0  0  0
  -29.1690  -22.1700   18.8130 C   0  0  0  0  0  0  0  0  0  0  0  0
  -29.7010  -20.9200   21.2250 C   0  0  0  0  0  0  0  0  0  0  0  0
  -29.8910  -19.9790   20.1260 C   0  0  0  0  0  0  0  0  0  0  0  0
  -28.9750  -23.1120   19.9130 C   0  0  0  0  0  0  0  0  0  0  0  0
  -28.8720  -22.6700   17.4080 C   0  0  0  0  0  1  0  0  0  0  0  0
  -29.9890  -20.4120   22.6270 C   0  0  0  0  0  1  0  0  0  0  0  0
  -30.6560  -18.4160   20.1350 C   0  0  0  0  0  2  0  0  0  0  0  0
  -30.9890  -15.5670   20.2050 C   0  0  0  0  0  0  0  0  0  0  0  0
  -30.9710  -13.1080   19.4220 C   0  0  0  0  0  2  0  0  0  0  0  0
  -30.0500  -12.8550   18.2030 C   0  0  0  0  0  2  0  0  0  0  0  0
  -28.6050  -12.5890   18.6580 C   0  0  0  0  0  2  0  0  0  0  0  0
  -28.1430  -13.5890   19.7490 C   0  0  0  0  0  3  0  0  0  0  0  0
  -29.1940  -13.7920   20.8620 C   0  0  0  0  0  2  0  0  0  0  0  0
  -30.4200  -14.2690   20.2040 N   0  0  0  0  0  0  0  0  0  0  0  0
  -32.2060  -15.5720   19.9820 O   0  0  0  0  0  0  0  0  0  0  0  0
  -30.2350  -16.8300   20.2490 N   0  0  0  0  0  0  0  0  0  0  0  0
  -29.2440  -16.6860   20.3740 H   0  0  0  0  0  0  0  0  0  0  0  0
  -25.7890  -14.1370   20.5650 C   0  0  0  0  0  0  0  0  0  0  0  0
  -24.7310  -13.3540   20.9310 C   0  0  0  0  0  0  0  0  0  0  0  0
  -25.1930  -12.0030   20.8530 C   0  0  0  0  0  0  0  0  0  0  0  0
  -26.8240  -13.2660   20.2760 N   0  0  0  0  0  0  0  0  0  0  0  0
  -26.4790  -11.9740   20.5180 N   0  0  0  0  0  0  0  0  0  0  0  0
  -24.4650  -10.7380   21.0180 C   0  0  0  0  0  0  0  0  0  0  0  0
  -24.8660   -9.7700   21.9640 C   0  0  0  0  0  3  0  0  0  0  0  0
  -24.1330   -8.5720   22.1200 C   0  0  0  0  0  3  0  0  0  0  0  0
  -22.9850   -8.3340   21.3260 C   0  0  0  0  0  0  0  0  0  0  0  0
  -22.6040   -9.2910   20.3690 C   0  0  0  0  0  3  0  0  0  0  0  0
  -23.3380  -10.4790   20.2120 C   0  0  0  0  0  3  0  0  0  0  0  0
  -22.2280   -7.1890   21.3880 O   0  0  0  0  0  0  0  0  0  0  0  0
  -22.0520   -6.5060   22.5640 C   0  0  0  0  0  0  0  0  0  0  0  0
  -21.4570   -7.1090   23.6930 C   0  0  0  0  0  3  0  0  0  0  0  0
  -21.2310   -6.3490   24.8590 C   0  0  0  0  0  3  0  0  0  0  0  0
  -21.5930   -4.9900   24.8960 C   0  0  0  0  0  0  0  0  0  0  0  0
  -22.1820   -4.3860   23.7710 C   0  0  0  0  0  3  0  0  0  0  0  0
  -22.4080   -5.1430   22.6070 C   0  0  0  0  0  0  0  0  0  0  0  0
  -22.9570   -4.5510   21.5180 F   0  0  0  0  0  0  0  0  0  0  0  0
  -21.3700   -4.2580   26.0130 F   0  0  0  0  0  0  0  0  0  0  0  0
  -23.3400  -13.8280   21.2350 C   0  0  0  0  0  0  0  0  0  0  0  0
  -22.6280  -13.1180   22.1020 N   0  0  0  0  0  0  0  0  0  0  0  0
  -22.8960  -14.8620   20.7390 O   0  0  0  0  0  0  0  0  0  0  0  0
  -23.0020  -12.2790   22.5220 H   0  0  0  0  0  0  0  0  0  0  0  0
  -21.6970  -13.4170   22.3510 H   0  0  0  0  0  0  0  0  0  0  0  0
  -25.9520  -15.5120   20.4220 N   0  0  0  0  0  0  0  0  0  0  0  0
  -25.1890  -16.1640   20.5710 H   0  0  0  0  0  0  0  0  0  0  0  0
  -26.7870  -15.9580   20.0640 H   0  0  0  0  0  0  0  0  0  0  0  0
  -28.1640  -24.6470   19.8310 C   0  0  0  0  0  2  0  0  0  0  0  0
  -28.5350  -26.2100   20.0670 O   0  0  0  0  0  0  0  0  0  0  0  0
  -24.8140  -31.8730   23.3490 C   0  0  0  0  0  0  0  0  0  0  0  0
  -27.5210  -27.2950   20.0510 C   0  0  0  0  0  0  0  0  0  0  0  0
  -23.6840  -30.5870   21.5810 C   0  0  0  0  0  3  0  0  0  0  0  0
  -25.1940  -29.1190   20.0860 C   0  0  0  0  0  0  0  0  0  0  0  0
  -26.2500  -30.8490   21.5210 C   0  0  0  0  0  2  0  0  0  0  0  0
  -26.3590  -29.4960   20.7670 C   0  0  0  0  0  0  0  0  0  0  0  0
  -27.5180  -28.6050   20.7320 C   0  0  0  0  0  3  0  0  0  0  0  0
  -26.3250  -27.0690   19.3310 C   0  0  0  0  0  3  0  0  0  0  0  0
  -25.2000  -27.9250   19.3530 C   0  0  0  0  0  3  0  0  0  0  0  0
  -23.9590  -30.0120   20.1660 C   0  0  0  0  0  2  0  0  0  0  0  0
  -24.9360  -31.1230   22.2070 N   0  0  0  0  0  0  0  0  0  0  0  0
  -23.7070  -32.1120   23.8570 O   0  0  0  0  0  0  0  0  0  0  0  0
  -22.9790  -29.5130   22.4510 C   0  0  0  0  0  0  0  0  0  0  0  0
  -21.6570  -29.3380   22.2700 N   0  0  0  0  0  0  0  0  0  0  0  0
  -23.6280  -28.8420   23.2570 O   0  0  0  0  0  0  0  0  0  0  0  0
  -21.1860  -29.9310   21.6010 H   0  0  0  0  0  0  0  0  0  0  0  0
  -18.2780  -28.0540   22.5800 C   0  0  0  0  0  0  0  0  0  0  0  0
  -20.8240  -28.3360   22.9480 C   0  0  0  0  0  3  0  0  0  0  0  0
  -20.9680  -26.9500   22.2800 C   0  0  0  0  0  2  0  0  0  0  0  0
  -19.9040  -26.6820   21.2110 C   0  0  0  0  0  2  0  0  0  0  0  0
  -18.5000  -26.7600   21.8160 C   0  0  0  0  0  2  0  0  0  0  0  0
  -19.3700  -28.8020   23.0980 C   0  0  0  0  0  0  0  0  0  0  0  0
  -19.1070  -30.0130   23.7750 C   0  0  0  0  0  3  0  0  0  0  0  0
  -17.7880  -30.4780   23.9360 C   0  0  0  0  0  3  0  0  0  0  0  0
  -16.7110  -29.7260   23.4350 C   0  0  0  0  0  3  0  0  0  0  0  0
  -16.9580  -28.5150   22.7620 C   0  0  0  0  0  3  0  0  0  0  0  0
  -26.0590  -32.4800   24.0620 C   0  0  0  0  0  3  0  0  0  0  0  0
  -25.7360  -33.8690   24.4370 N   0  0  0  0  0  0  0  0  0  0  0  0
  -26.0710  -34.9520   23.7250 C   0  0  0  0  0  0  0  0  0  0  0  0
  -26.7500  -34.8890   22.6970 O   0  0  0  0  0  0  0  0  0  0  0  0
  -25.1360  -33.9920   25.2380 H   0  0  0  0  0  0  0  0  0  0  0  0
  -24.3290  -36.7490   23.4450 C   0  0  0  0  0  1  0  0  0  0  0  0
  -25.5780  -36.3230   24.2330 C   0  0  0  0  0  3  0  0  0  0  0  0
  -27.7050  -37.2030   25.0880 C   0  0  0  0  0  1  0  0  0  0  0  0
  -26.6010  -37.3890   24.1510 N   0  0  0  0  0  0  0  0  0  0  0  0
  -26.1860  -38.3000   24.3290 H   0  0  0  0  0  0  0  0  0  0  0  0
  -26.5030  -31.6630   25.3370 C   0  0  1  0  0  0  0  0  0  0  0  0
  -25.3540  -31.4000   26.3390 C   0  0  0  0  0  1  0  0  0  0  0  0
  -27.0940  -30.2930   24.9330 C   0  0  0  0  0  1  0  0  0  0  0  0
  -27.6280  -32.4210   26.0820 C   0  0  0  0  0  1  0  0  0  0  0  0
  1  5  1  0
  2  4  1  0
  3  1  2  0
  3  6  1  0
  4  8  1  0
  5  9  1  0
  5  4  2  0
  6  2  2  0
  7  3  1  0
  9 18  1  0
 10 18  1  0
 11 16  1  0
 12 13  1  0
 12 11  1  0
 14 13  1  0
 14 23  1  0
 14 15  1  0
 16 10  1  0
 16 15  1  0
 17 10  2  0
 18 19  1  0
 20 21  2  0
 21 40  1  0
 22 21  1  0
 22 25  1  0
 23 24  1  0
 23 20  1  0
 24 22  2  0
 25 26  1  0
 26 27  2  0
 28 31  1  0
 28 27  1  0
 29 28  2  0
 30 29  1  0
 30 25  2  0
 31 32  1  0
 32 37  2  0
 32 33  1  0
 33 34  2  0
 34 35  1  0
 35 39  1  0
 36 35  2  0
 37 36  1  0
 38 37  1  0
 40 41  1  0
 41 44  1  0
 41 43  1  0
 42 40  2  0
 45 20  1  0
 45 46  1  0
 47 45  1  0
 48  6  1  0
 48 49  1  0
 50 61  2  0
 51 49  1  0
 51 56  1  0
 52 60  1  0
 52 62  1  0
 53 59  1  0
 53 55  1  0
 54 60  1  0
 55 54  1  0
 56 55  2  0
 57 58  1  0
 57 51  2  0
 58 53  2  0
 59 52  1  0
 60 50  1  0
 62 64  2  0
 63 62  1  0
 65 63  1  0
 66 75  2  0
 66 71  1  0
 67 63  1  0
 67 71  1  0
 68 67  1  0
 69 70  1  0
 69 68  1  0
 70 66  1  0
 71 72  2  0
 72 73  1  0
 74 73  2  0
 75 74  1  0
 76 50  1  0
 76 77  1  0
 76 86  1  0
 77 80  1  0
 78 82  1  0
 78 77  1  0
 79 78  2  0
 82 81  1  0
 84 82  1  0
 84 85  1  0
 84 83  1  0
 86 89  1  1
 86 87  1  0
 88 86  1  0
M  ISO  4  10 100  18 100  48 101  49 101
M  END
>  <TORSDO>  (94) 
F 18

>  <SCORE>  (94) 
-14.451

>  <name>  (94) 
93

>  <ligand_id>  (94) 
93

>  <original_smiles>  (94) 
[H]c1c([H])c([H])c2c(c1[H])C([H])([H])C([H])([H])C([H])([H])C2([H])N([H])C(=O)C1([H])N(C(=O)C([H])(N([H])C(=O)C([H])(N([H])C([H])([H])[H])C([H])([H])[H])C(C([H])([H])[H])(C([H])([H])[H])C([H])([H])[H])C([H])([H])c2c([H])c(OC([H])([H])c3c([H])c(C([H])([H])[H])c(C([H])([H])N([H])C(=O)N4C([H])([H])C([H])([H])C([H])([H])C([H])(n5nc(-c6c([H])c([H])c(Oc7c([H])c([H])c(F)c([H])c7F)c([H])c6[H])c(C(=O)N([H])[H])c5N([H])[H])C4([H])[H])c([H])c3C([H])([H])[H])c([H])c([H])c2C1([H])[H]

>  <smiles>  (94) 
[H]c1c([H])c([H])c2c(c1[H])C([H])([H])C([H])([H])C([H])([H])C2([H])N([H])C(=O)C1([H])N(C(=O)C([H])(N([H])C(=O)C([H])(N([H])C([H])([H])[H])C([H])([H])[H])C(C([H])([H])[H])(C([H])([H])[H])C([H])([H])[H])C([H])([H])c2c([H])c(OC([H])([H])c3c([H])c(C([H])([H])[H])c(C([H])([H])N([H])C(=O)N4C([H])([H])C([H])([H])C([H])([H])C([H])(n5nc(-c6c([H])c([H])c(Oc7c([H])c([H])c(F)c([H])c7F)c([H])c6[H])c(C(=O)N([H])[H])c5N([H])[H])C4([H])[H])c([H])c3C([H])([H])[H])c([H])c([H])c2C1([H])[H]

$$$$
94:0:0
     RDKit          3D

 94103  0  0  1  0  0  0  0  0999 V2000
  -30.3870  -20.4580   20.2670 C   0  0  0  0  0  3  0  0  0  0  0  0
  -27.9940  -20.5510   20.4650 C   0  0  0  0  0  3  0  0  0  0  0  0
  -30.4190  -21.8770   20.1480 C   0  0  0  0  0  3  0  0  0  0  0  0
  -28.0190  -21.9670   20.3430 C   0  0  0  0  0  3  0  0  0  0  0  0
  -29.1680  -19.7530   20.4120 C   0  0  0  0  0  0  0  0  0  0  0  0
  -29.2370  -22.6680   20.1670 C   0  0  0  0  0  0  0  0  0  0  0  0
  -29.2000  -17.5490   19.0990 C   0  0  0  0  0  2  0  0  0  0  0  0
  -29.0380  -18.2120   20.4390 C   0  0  0  0  0  3  0  0  0  0  0  0
  -30.0910  -17.0730   20.2210 C   0  0  0  0  0  3  0  0  0  0  0  0
  -30.6380  -14.6010   20.3000 C   0  0  0  0  0  0  0  0  0  0  0  0
  -30.3630  -12.4040   19.1970 C   0  0  0  0  0  2  0  0  0  0  0  0
  -29.4080  -12.5960   17.9990 C   0  0  0  0  0  2  0  0  0  0  0  0
  -27.9380  -12.4530   18.4440 C   0  0  0  0  0  2  0  0  0  0  0  0
  -27.6110  -13.2850   19.7120 C   0  0  0  0  0  3  0  0  0  0  0  0
  -28.6830  -13.0840   20.8100 C   0  0  0  0  0  2  0  0  0  0  0  0
  -29.9940  -13.3990   20.2210 N   0  0  0  0  0  0  0  0  0  0  0  0
  -31.7930  -14.7530   19.8900 O   0  0  0  0  0  0  0  0  0  0  0  0
  -29.8500  -15.6730   20.5850 N   0  0  0  0  0  0  0  0  0  0  0  0
  -28.9250  -15.4510   20.9180 H   0  0  0  0  0  0  0  0  0  0  0  0
  -25.2260  -13.8930   20.4540 C   0  0  0  0  0  0  0  0  0  0  0  0
  -24.1610  -13.1220   20.8360 C   0  0  0  0  0  0  0  0  0  0  0  0
  -24.6200  -11.7700   20.7990 C   0  0  0  0  0  0  0  0  0  0  0  0
  -26.2660  -13.0100   20.2090 N   0  0  0  0  0  0  0  0  0  0  0  0
  -25.9060  -11.7280   20.4760 N   0  0  0  0  0  0  0  0  0  0  0  0
  -23.8930  -10.5080   20.9960 C   0  0  0  0  0  0  0  0  0  0  0  0
  -24.3230   -9.5470   21.9360 C   0  0  0  0  0  3  0  0  0  0  0  0
  -23.5970   -8.3500   22.1220 C   0  0  0  0  0  3  0  0  0  0  0  0
  -22.4260   -8.1070   21.3640 C   0  0  0  0  0  0  0  0  0  0  0  0
  -22.0140   -9.0570   20.4140 C   0  0  0  0  0  3  0  0  0  0  0  0
  -22.7410  -10.2450   20.2270 C   0  0  0  0  0  3  0  0  0  0  0  0
  -21.6710   -6.9630   21.4580 O   0  0  0  0  0  0  0  0  0  0  0  0
  -21.6080   -6.2360   22.6200 C   0  0  0  0  0  0  0  0  0  0  0  0
  -21.1500   -6.8010   23.8290 C   0  0  0  0  0  3  0  0  0  0  0  0
  -21.0350   -6.0000   24.9820 C   0  0  0  0  0  3  0  0  0  0  0  0
  -21.3680   -4.6320   24.9260 C   0  0  0  0  0  0  0  0  0  0  0  0
  -21.8200   -4.0670   23.7210 C   0  0  0  0  0  3  0  0  0  0  0  0
  -21.9370   -4.8650   22.5710 C   0  0  0  0  0  0  0  0  0  0  0  0
  -22.3520   -4.3100   21.4070 F   0  0  0  0  0  0  0  0  0  0  0  0
  -21.2510   -3.8600   26.0310 F   0  0  0  0  0  0  0  0  0  0  0  0
  -22.7680  -13.6020   21.1230 C   0  0  0  0  0  0  0  0  0  0  0  0
  -22.0430  -12.9030   21.9890 N   0  0  0  0  0  0  0  0  0  0  0  0
  -22.3300  -14.6340   20.6140 O   0  0  0  0  0  0  0  0  0  0  0  0
  -22.4090  -12.0680   22.4220 H   0  0  0  0  0  0  0  0  0  0  0  0
  -21.1090  -13.2090   22.2250 H   0  0  0  0  0  0  0  0  0  0  0  0
  -25.3890  -15.2630   20.2730 N   0  0  0  0  0  0  0  0  0  0  0  0
  -24.6170  -15.9120   20.3810 H   0  0  0  0  0  0  0  0  0  0  0  0
  -26.2220  -15.6990   19.8990 H   0  0  0  0  0  0  0  0  0  0  0  0
  -29.3120  -24.2090   19.8880 C   0  0  0  0  0  3  0  0  0  0  0  0
  -29.3040  -24.4170   18.4300 N   0  0  0  0  0  4  0  0  0  0  0  0
  -28.4440  -24.0940   18.0210 H   0  0  0  0  0  0  0  0  0  0  0  0
  -30.0640  -23.9200   17.9990 H   0  0  0  0  0  0  0  0  0  0  0  0
  -29.4100  -25.3950   18.2230 H   0  0  0  0  0  0  0  0  0  0  0  0
  -28.2550  -25.1670   20.5560 C   0  0  0  0  0  2  0  0  0  0  0  0
  -28.4030  -26.5870   20.1950 O   0  0  0  0  0  0  0  0  0  0  0  0
  -24.5990  -31.8780   23.2300 C   0  0  0  0  0  0  0  0  0  0  0  0
  -27.2550  -27.3780   20.1760 C   0  0  0  0  0  0  0  0  0  0  0  0
  -23.4070  -30.4740   21.5830 C   0  0  0  0  0  3  0  0  0  0  0  0
  -24.8710  -28.9390   20.1630 C   0  0  0  0  0  0  0  0  0  0  0  0
  -25.9400  -30.8220   21.4030 C   0  0  0  0  0  2  0  0  0  0  0  0
  -26.0310  -29.4470   20.7590 C   0  0  0  0  0  0  0  0  0  0  0  0
  -27.2270  -28.6790   20.7570 C   0  0  0  0  0  3  0  0  0  0  0  0
  -26.0770  -26.9150   19.5490 C   0  0  0  0  0  3  0  0  0  0  0  0
  -24.8940  -27.6770   19.5500 C   0  0  0  0  0  3  0  0  0  0  0  0
  -23.6270  -29.8000   20.2030 C   0  0  0  0  0  2  0  0  0  0  0  0
  -24.6670  -31.0740   22.1290 N   0  0  0  0  0  0  0  0  0  0  0  0
  -23.5140  -32.1480   23.7620 O   0  0  0  0  0  0  0  0  0  0  0  0
  -22.7510  -29.4510   22.5390 C   0  0  0  0  0  0  0  0  0  0  0  0
  -21.4250  -29.2720   22.4120 N   0  0  0  0  0  0  0  0  0  0  0  0
  -23.4320  -28.8210   23.3530 O   0  0  0  0  0  0  0  0  0  0  0  0
  -20.9360  -29.8310   21.7270 H   0  0  0  0  0  0  0  0  0  0  0  0
  -18.0450  -28.0980   22.9280 C   0  0  0  0  0  0  0  0  0  0  0  0
  -20.6070  -28.3320   23.1790 C   0  0  0  0  0  3  0  0  0  0  0  0
  -20.6920  -26.9070   22.5850 C   0  0  0  0  0  2  0  0  0  0  0  0
  -19.5790  -26.6060   21.5770 C   0  0  0  0  0  2  0  0  0  0  0  0
  -18.2030  -26.7550   22.2350 C   0  0  0  0  0  2  0  0  0  0  0  0
  -19.1740  -28.8460   23.3570 C   0  0  0  0  0  0  0  0  0  0  0  0
  -18.9710  -30.1040   23.9640 C   0  0  0  0  0  3  0  0  0  0  0  0
  -17.6720  -30.6140   24.1480 C   0  0  0  0  0  3  0  0  0  0  0  0
  -16.5580  -29.8640   23.7360 C   0  0  0  0  0  3  0  0  0  0  0  0
  -16.7450  -28.6080   23.1320 C   0  0  0  0  0  3  0  0  0  0  0  0
  -25.8790  -32.5140   23.8560 C   0  0  0  0  0  3  0  0  0  0  0  0
  -26.3910  -31.7480   25.1360 C   0  0  1  0  0  0  0  0  0  0  0  0
  -25.2930  -31.5080   26.1980 C   0  0  0  0  0  1  0  0  0  0  0  0
  -26.9810  -30.3710   24.7510 C   0  0  0  0  0  1  0  0  0  0  0  0
  -27.5350  -32.5480   25.8040 C   0  0  0  0  0  1  0  0  0  0  0  0
  -25.5640  -33.9120   24.1790 N   0  0  0  0  0  0  0  0  0  0  0  0
  -25.9030  -34.9640   23.4210 C   0  0  0  0  0  0  0  0  0  0  0  0
  -26.5820  -34.8580   22.3960 O   0  0  0  0  0  0  0  0  0  0  0  0
  -24.9630  -34.0690   24.9750 H   0  0  0  0  0  0  0  0  0  0  0  0
  -24.1840  -36.7590   23.0370 C   0  0  0  0  0  1  0  0  0  0  0  0
  -25.4090  -36.3520   23.8690 C   0  0  0  0  0  3  0  0  0  0  0  0
  -27.5280  -37.2360   24.7410 C   0  0  0  0  0  1  0  0  0  0  0  0
  -26.4460  -37.4040   23.7750 N   0  0  0  0  0  0  0  0  0  0  0  0
  -26.0380  -38.3250   23.9120 H   0  0  0  0  0  0  0  0  0  0  0  0
  1  5  1  0
  3  6  1  0
  3  1  2  0
  4  2  1  0
  5  2  2  0
  6  4  2  0
  7  9  1  0
  7  8  1  0
  8  5  1  0
  9  8  1  0
  9 18  1  0
 10 18  1  0
 11 16  1  0
 12 13  1  0
 12 11  1  0
 14 13  1  0
 14 23  1  0
 14 15  1  0
 16 10  1  0
 16 15  1  0
 17 10  2  0
 18 19  1  0
 20 21  2  0
 21 40  1  0
 22 21  1  0
 22 25  1  0
 23 20  1  0
 23 24  1  0
 24 22  2  0
 25 26  1  0
 26 27  2  0
 28 31  1  0
 28 27  1  0
 29 28  2  0
 30 29  1  0
 30 25  2  0
 31 32  1  0
 32 33  1  0
 33 34  2  0
 35 34  1  0
 35 39  1  0
 36 35  2  0
 37 32  2  0
 37 36  1  0
 38 37  1  0
 40 41  1  0
 41 44  1  0
 41 43  1  0
 42 40  2  0
 45 46  1  0
 45 20  1  0
 47 45  1  0
 48  6  1  0
 48 53  1  0
 49 48  1  0
 50 49  1  0
 51 49  1  0
 52 49  1  0
 54 53  1  0
 55 66  2  0
 56 54  1  0
 56 61  1  0
 57 65  1  0
 57 67  1  0
 58 64  1  0
 58 60  1  0
 59 65  1  0
 60 59  1  0
 61 60  2  0
 62 63  1  0
 62 56  2  0
 63 58  2  0
 64 57  1  0
 65 55  1  0
 67 69  2  0
 68 67  1  0
 70 68  1  0
 71 80  2  0
 71 76  1  0
 72 68  1  0
 72 76  1  0
 73 72  1  0
 74 75  1  0
 74 73  1  0
 75 71  1  0
 76 77  2  0
 77 78  1  0
 79 78  2  0
 80 79  1  0
 81 55  1  0
 81 86  1  0
 81 82  1  0
 82 85  1  1
 82 83  1  0
 84 82  1  0
 86 89  1  0
 87 91  1  0
 87 86  1  0
 88 87  2  0
 91 90  1  0
 93 91  1  0
 93 94  1  0
 93 92  1  0
M  ISO  4  10 100  18 100  53 101  54 101
M  END
>  <TORSDO>  (95) 
F 20

>  <SCORE>  (95) 
-14.139

>  <name>  (95) 
94

>  <ligand_id>  (95) 
94

>  <original_smiles>  (95) 
[H]c1c([H])c([H])c2c(c1[H])C([H])([H])C([H])([H])C([H])([H])C2([H])N([H])C(=O)C1([H])N(C(=O)C([H])(N([H])C(=O)C([H])(N([H])C([H])([H])[H])C([H])([H])[H])C(C([H])([H])[H])(C([H])([H])[H])C([H])([H])[H])C([H])([H])c2c([H])c(OC([H])([H])C([H])(c3c([H])c([H])c(C4([H])C([H])([H])C4([H])N([H])C(=O)N4C([H])([H])C([H])([H])C([H])([H])C([H])(n5nc(-c6c([H])c([H])c(Oc7c([H])c([H])c(F)c([H])c7F)c([H])c6[H])c(C(=O)N([H])[H])c5N([H])[H])C4([H])[H])c([H])c3[H])[N+]([H])([H])[H])c([H])c([H])c2C1([H])[H]

>  <smiles>  (95) 
[H]c1c([H])c([H])c2c(c1[H])C([H])([H])C([H])([H])C([H])([H])C2([H])N([H])C(=O)C1([H])N(C(=O)C([H])(N([H])C(=O)C([H])(N([H])C([H])([H])[H])C([H])([H])[H])C(C([H])([H])[H])(C([H])([H])[H])C([H])([H])[H])C([H])([H])c2c([H])c(OC([H])([H])C([H])(c3c([H])c([H])c(C4([H])C([H])([H])C4([H])N([H])C(=O)N4C([H])([H])C([H])([H])C([H])([H])C([H])(n5nc(-c6c([H])c([H])c(Oc7c([H])c([H])c(F)c([H])c7F)c([H])c6[H])c(C(=O)N([H])[H])c5N([H])[H])C4([H])[H])c([H])c3[H])[N+]([H])([H])[H])c([H])c([H])c2C1([H])[H]

$$$$
95:0:0
     RDKit          3D

 96104  0  0  1  0  0  0  0  0999 V2000
  -31.0930  -19.2790   21.0340 C   0  0  0  0  0  2  0  0  0  0  0  0
  -29.6300  -19.0740   19.0470 C   0  0  0  0  0  2  0  0  0  0  0  0
  -30.1830  -20.4780   21.5150 C   0  0  0  0  0  2  0  0  0  0  0  0
  -28.7690  -20.2750   19.5970 C   0  0  0  0  0  2  0  0  0  0  0  0
  -30.4830  -18.2000   20.0540 C   0  0  2  0  0  0  0  0  0  0  0  0
  -29.5330  -21.2690   20.4170 N   0  0  1  0  0  4  0  0  0  0  0  0
  -30.2520  -21.6890   19.8430 H   0  0  0  0  0  0  0  0  0  0  0  0
  -30.5680  -14.6950   20.3710 C   0  0  0  0  0  0  0  0  0  0  0  0
  -30.3980  -12.4630   19.2770 C   0  0  0  0  0  2  0  0  0  0  0  0
  -29.4460  -12.6010   18.0650 C   0  0  0  0  0  2  0  0  0  0  0  0
  -27.9720  -12.4360   18.4890 C   0  0  0  0  0  2  0  0  0  0  0  0
  -27.6160  -13.2800   19.7420 C   0  0  0  0  0  3  0  0  0  0  0  0
  -28.6730  -13.0890   20.8540 C   0  0  0  0  0  2  0  0  0  0  0  0
  -29.9850  -13.4540   20.2910 N   0  0  0  0  0  0  0  0  0  0  0  0
  -31.7130  -14.8990   19.9560 O   0  0  0  0  0  0  0  0  0  0  0  0
  -29.6300  -17.0770   20.7950 C   0  0  0  0  0  0  0  0  0  0  0  0
  -29.7230  -15.6970   20.7820 N   0  0  0  0  0  0  0  0  0  0  0  0
  -28.6910  -17.5240   21.4520 O   0  0  0  0  0  0  0  0  0  0  0  0
  -28.9060  -15.2980   21.2150 H   0  0  0  0  0  0  0  0  0  0  0  0
  -25.2150  -13.8880   20.4320 C   0  0  0  0  0  0  0  0  0  0  0  0
  -24.1450  -13.1180   20.8030 C   0  0  0  0  0  0  0  0  0  0  0  0
  -24.6090  -11.7670   20.7900 C   0  0  0  0  0  0  0  0  0  0  0  0
  -26.2620  -13.0050   20.2170 N   0  0  0  0  0  0  0  0  0  0  0  0
  -25.9020  -11.7250   20.4910 N   0  0  0  0  0  0  0  0  0  0  0  0
  -23.8820  -10.5060   20.9880 C   0  0  0  0  0  0  0  0  0  0  0  0
  -24.3100   -9.5480   21.9340 C   0  0  0  0  0  3  0  0  0  0  0  0
  -23.5850   -8.3520   22.1180 C   0  0  0  0  0  3  0  0  0  0  0  0
  -22.4170   -8.1050   21.3590 C   0  0  0  0  0  0  0  0  0  0  0  0
  -22.0080   -9.0520   20.4040 C   0  0  0  0  0  3  0  0  0  0  0  0
  -22.7350  -10.2400   20.2150 C   0  0  0  0  0  3  0  0  0  0  0  0
  -21.6630   -6.9610   21.4530 O   0  0  0  0  0  0  0  0  0  0  0  0
  -21.6110   -6.2270   22.6120 C   0  0  0  0  0  0  0  0  0  0  0  0
  -21.1820   -6.7920   23.8320 C   0  0  0  0  0  3  0  0  0  0  0  0
  -21.0770   -5.9850   24.9820 C   0  0  0  0  0  3  0  0  0  0  0  0
  -21.3910   -4.6150   24.9140 C   0  0  0  0  0  0  0  0  0  0  0  0
  -21.8130   -4.0490   23.6980 C   0  0  0  0  0  3  0  0  0  0  0  0
  -21.9200   -4.8530   22.5490 C   0  0  0  0  0  0  0  0  0  0  0  0
  -22.3070   -4.2990   21.3750 F   0  0  0  0  0  0  0  0  0  0  0  0
  -21.2820   -3.8370   26.0160 F   0  0  0  0  0  0  0  0  0  0  0  0
  -22.7450  -13.5960   21.0600 C   0  0  0  0  0  0  0  0  0  0  0  0
  -22.0120  -12.9090   21.9280 N   0  0  0  0  0  0  0  0  0  0  0  0
  -22.3100  -14.6170   20.5270 O   0  0  0  0  0  0  0  0  0  0  0  0
  -22.3760  -12.0830   22.3790 H   0  0  0  0  0  0  0  0  0  0  0  0
  -21.0730  -13.2110   22.1430 H   0  0  0  0  0  0  0  0  0  0  0  0
  -25.3780  -15.2570   20.2420 N   0  0  0  0  0  0  0  0  0  0  0  0
  -24.6090  -15.9090   20.3480 H   0  0  0  0  0  0  0  0  0  0  0  0
  -26.2280  -15.7010   19.9200 H   0  0  0  0  0  0  0  0  0  0  0  0
  -31.5700  -17.5310   19.3000 N   0  0  0  0  0  4  0  0  0  0  0  0
  -31.9330  -16.7380   19.8140 H   0  0  0  0  0  0  0  0  0  0  0  0
  -32.3330  -18.1480   19.0880 H   0  0  0  0  0  0  0  0  0  0  0  0
  -31.2270  -17.1600   18.4310 H   0  0  0  0  0  0  0  0  0  0  0  0
  -28.6930  -22.4480   20.9200 C   0  0  0  0  0  2  0  0  0  0  0  0
  -28.9900  -23.8780   20.3050 C   0  0  0  0  0  0  0  0  0  0  0  0
  -29.8980  -24.0260   19.4780 O   0  0  0  0  0  0  0  0  0  0  0  0
  -28.0940  -25.1000   20.7840 C   0  0  0  0  0  2  0  0  0  0  0  0
  -28.3730  -26.4660   20.2550 O   0  0  0  0  0  0  0  0  0  0  0  0
  -24.6160  -31.8880   23.2380 C   0  0  0  0  0  0  0  0  0  0  0  0
  -27.2680  -27.3320   20.2140 C   0  0  0  0  0  0  0  0  0  0  0  0
  -23.4280  -30.4780   21.5960 C   0  0  0  0  0  3  0  0  0  0  0  0
  -24.8950  -28.9310   20.1830 C   0  0  0  0  0  0  0  0  0  0  0  0
  -25.9660  -30.8090   21.4260 C   0  0  0  0  0  2  0  0  0  0  0  0
  -26.0580  -29.4290   20.7840 C   0  0  0  0  0  0  0  0  0  0  0  0
  -27.2510  -28.6420   20.7890 C   0  0  0  0  0  3  0  0  0  0  0  0
  -26.0860  -26.8930   19.5790 C   0  0  0  0  0  3  0  0  0  0  0  0
  -24.9120  -27.6690   19.5690 C   0  0  0  0  0  3  0  0  0  0  0  0
  -23.6530  -29.7990   20.2200 C   0  0  0  0  0  2  0  0  0  0  0  0
  -24.6890  -31.0760   22.1430 N   0  0  0  0  0  0  0  0  0  0  0  0
  -23.5290  -32.1630   23.7660 O   0  0  0  0  0  0  0  0  0  0  0  0
  -22.7640  -29.4630   22.5560 C   0  0  0  0  0  0  0  0  0  0  0  0
  -21.4380  -29.2830   22.4270 N   0  0  0  0  0  0  0  0  0  0  0  0
  -23.4410  -28.8370   23.3770 O   0  0  0  0  0  0  0  0  0  0  0  0
  -20.9500  -29.8400   21.7380 H   0  0  0  0  0  0  0  0  0  0  0  0
  -18.0580  -28.0970   22.9320 C   0  0  0  0  0  0  0  0  0  0  0  0
  -20.6180  -28.3470   23.1970 C   0  0  0  0  0  3  0  0  0  0  0  0
  -20.7130  -26.9160   22.6180 C   0  0  0  0  0  2  0  0  0  0  0  0
  -19.6090  -26.5990   21.6050 C   0  0  0  0  0  2  0  0  0  0  0  0
  -18.2290  -26.7480   22.2520 C   0  0  0  0  0  2  0  0  0  0  0  0
  -19.1800  -28.8550   23.3610 C   0  0  0  0  0  0  0  0  0  0  0  0
  -18.9660  -30.1170   23.9570 C   0  0  0  0  0  3  0  0  0  0  0  0
  -17.6630  -30.6210   24.1260 C   0  0  0  0  0  3  0  0  0  0  0  0
  -16.5560  -29.8610   23.7130 C   0  0  0  0  0  3  0  0  0  0  0  0
  -16.7540  -28.6000   23.1220 C   0  0  0  0  0  3  0  0  0  0  0  0
  -25.8930  -32.5280   23.8650 C   0  0  0  0  0  3  0  0  0  0  0  0
  -26.4030  -31.7660   25.1490 C   0  0  1  0  0  0  0  0  0  0  0  0
  -25.3040  -31.5290   26.2110 C   0  0  0  0  0  1  0  0  0  0  0  0
  -26.9940  -30.3880   24.7690 C   0  0  0  0  0  1  0  0  0  0  0  0
  -27.5470  -32.5680   25.8140 C   0  0  0  0  0  1  0  0  0  0  0  0
  -25.5750  -33.9270   24.1870 N   0  0  0  0  0  0  0  0  0  0  0  0
  -25.9100  -34.9790   23.4270 C   0  0  0  0  0  0  0  0  0  0  0  0
  -26.5890  -34.8740   22.4020 O   0  0  0  0  0  0  0  0  0  0  0  0
  -24.9740  -34.0820   24.9840 H   0  0  0  0  0  0  0  0  0  0  0  0
  -24.1840  -36.7690   23.0500 C   0  0  0  0  0  1  0  0  0  0  0  0
  -25.4160  -36.3680   23.8770 C   0  0  0  0  0  3  0  0  0  0  0  0
  -27.5400  -37.2570   24.7310 C   0  0  0  0  0  1  0  0  0  0  0  0
  -26.4480  -37.4210   23.7740 N   0  0  0  0  0  0  0  0  0  0  0  0
  -26.0390  -38.3420   23.9160 H   0  0  0  0  0  0  0  0  0  0  0  0
  1  3  1  0
  2  4  1  0
  2  5  1  0
  4  6  1  0
  5 16  1  0
  5  1  1  0
  6 52  1  0
  6  3  1  0
  6  7  1  6
  8 17  1  0
  9 14  1  0
 10 11  1  0
 10  9  1  0
 12 11  1  0
 12 23  1  0
 12 13  1  0
 14  8  1  0
 14 13  1  0
 15  8  2  0
 16 18  2  0
 17 16  1  0
 17 19  1  0
 20 21  2  0
 21 40  1  0
 22 21  1  0
 22 25  1  0
 23 20  1  0
 23 24  1  0
 24 22  2  0
 25 26  1  0
 26 27  2  0
 28 31  1  0
 28 27  1  0
 29 28  2  0
 30 29  1  0
 30 25  2  0
 31 32  1  0
 32 33  1  0
 33 34  2  0
 35 34  1  0
 35 39  1  0
 36 35  2  0
 37 32  2  0
 37 36  1  0
 38 37  1  0
 40 41  1  0
 41 44  1  0
 41 43  1  0
 42 40  2  0
 45 46  1  0
 45 20  1  0
 47 45  1  0
 48 49  1  0
  5 48  1  6
 50 48  1  0
 51 48  1  0
 53 55  1  0
 53 52  1  0
 54 53  2  0
 56 55  1  0
 57 68  2  0
 58 56  1  0
 58 63  1  0
 59 67  1  0
 59 69  1  0
 60 66  1  0
 60 62  1  0
 61 67  1  0
 62 63  2  0
 62 61  1  0
 64 58  2  0
 65 64  1  0
 65 60  2  0
 66 59  1  0
 67 57  1  0
 69 71  2  0
 70 69  1  0
 72 70  1  0
 73 82  2  0
 73 78  1  0
 74 70  1  0
 74 78  1  0
 75 74  1  0
 76 77  1  0
 76 75  1  0
 77 73  1  0
 78 79  2  0
 79 80  1  0
 81 80  2  0
 82 81  1  0
 83 57  1  0
 83 88  1  0
 83 84  1  0
 84 87  1  1
 84 85  1  0
 86 84  1  0
 88 91  1  0
 89 93  1  0
 89 88  1  0
 90 89  2  0
 93 92  1  0
 95 93  1  0
 95 96  1  0
 95 94  1  0
M  ISO  4   8 100  17 100  55 101  56 101
M  END
>  <TORSDO>  (96) 
F 20

>  <SCORE>  (96) 
-13.983

>  <name>  (96) 
95

>  <ligand_id>  (96) 
95

>  <original_smiles>  (96) 
[H]c1c([H])c([H])c2c(c1[H])C([H])([H])C([H])([H])C([H])([H])C2([H])N([H])C(=O)C1([H])N(C(=O)C([H])(N([H])C(=O)C([H])(N([H])C([H])([H])[H])C([H])([H])[H])C(C([H])([H])[H])(C([H])([H])[H])C([H])([H])[H])C([H])([H])c2c([H])c(OC([H])([H])C(=O)C([H])([H])[N+]3([H])C([H])([H])C([H])([H])C(C(=O)N([H])C(=O)N4C([H])([H])C([H])([H])C([H])([H])C([H])(n5nc(-c6c([H])c([H])c(Oc7c([H])c([H])c(F)c([H])c7F)c([H])c6[H])c(C(=O)N([H])[H])c5N([H])[H])C4([H])[H])([N+]([H])([H])[H])C([H])([H])C3([H])[H])c([H])c([H])c2C1([H])[H]

>  <smiles>  (96) 
[H]c1c([H])c([H])c2c(c1[H])C([H])([H])C([H])([H])C([H])([H])C2([H])N([H])C(=O)C1([H])N(C(=O)C([H])(N([H])C(=O)C([H])(N([H])C([H])([H])[H])C([H])([H])[H])C(C([H])([H])[H])(C([H])([H])[H])C([H])([H])[H])C([H])([H])c2c([H])c(OC([H])([H])C(=O)C([H])([H])[N+]3([H])C([H])([H])C([H])([H])C(C(=O)N([H])C(=O)N4C([H])([H])C([H])([H])C([H])([H])C([H])(n5nc(-c6c([H])c([H])c(Oc7c([H])c([H])c(F)c([H])c7F)c([H])c6[H])c(C(=O)N([H])[H])c5N([H])[H])C4([H])[H])([N+]([H])([H])[H])C([H])([H])C3([H])[H])c([H])c([H])c2C1([H])[H]

$$$$
96:0:0
     RDKit          3D

100109  0  0  1  0  0  0  0  0999 V2000
  -29.1900  -23.3750   20.0150 C   0  0  0  0  0  0  0  0  0  0  0  0
  -31.3710  -20.6230   20.7000 C   0  0  0  0  0  2  0  0  0  0  0  0
  -29.1980  -20.8480   18.9310 C   0  0  0  0  0  2  0  0  0  0  0  0
  -29.3090  -19.5930   19.9590 C   0  0  0  0  0  3  0  0  0  0  0  0
  -31.7360  -19.1080   20.3080 C   0  0  0  0  0  3  0  0  0  0  0  0
  -29.8270  -20.8020   20.8140 C   0  0  0  0  0  3  0  0  0  0  0  0
  -30.4020  -18.3000   20.1250 C   0  0  0  0  0  3  0  0  0  0  0  0
  -29.0200  -21.8500   20.0460 N   0  0  0  0  0  0  0  0  0  0  0  0
  -30.3480  -23.7890   20.0960 O   0  0  0  0  0  0  0  0  0  0  0  0
  -31.0350  -15.4620   19.7370 C   0  0  0  0  0  0  0  0  0  0  0  0
  -30.8370  -13.0200   18.9470 C   0  0  0  0  0  2  0  0  0  0  0  0
  -29.8490  -12.8170   17.7730 C   0  0  0  0  0  2  0  0  0  0  0  0
  -28.4060  -12.6530   18.2910 C   0  0  0  0  0  2  0  0  0  0  0  0
  -28.0460  -13.6880   19.3850 C   0  0  0  0  0  3  0  0  0  0  0  0
  -29.1540  -13.8240   20.4510 C   0  0  0  0  0  2  0  0  0  0  0  0
  -30.3820  -14.2090   19.7360 N   0  0  0  0  0  0  0  0  0  0  0  0
  -32.2680  -15.3960   19.6570 O   0  0  0  0  0  0  0  0  0  0  0  0
  -29.4280  -16.8130   18.4320 C   0  0  0  0  0  1  0  0  0  0  0  0
  -30.3330  -16.7510   19.5840 N   0  0  0  0  0  0  0  0  0  0  0  0
  -25.7540  -14.4060   20.2490 C   0  0  0  0  0  0  0  0  0  0  0  0
  -24.6590  -13.6950   20.6540 C   0  0  0  0  0  0  0  0  0  0  0  0
  -25.0380  -12.3190   20.5980 C   0  0  0  0  0  0  0  0  0  0  0  0
  -26.7270  -13.4650   19.9590 N   0  0  0  0  0  0  0  0  0  0  0  0
  -26.3110  -12.2030   20.2370 N   0  0  0  0  0  0  0  0  0  0  0  0
  -24.2410  -11.1030   20.8070 C   0  0  0  0  0  0  0  0  0  0  0  0
  -24.6320  -10.1170   21.7400 C   0  0  0  0  0  3  0  0  0  0  0  0
  -23.8380   -8.9670   21.9390 C   0  0  0  0  0  3  0  0  0  0  0  0
  -22.6390   -8.7960   21.2050 C   0  0  0  0  0  0  0  0  0  0  0  0
  -22.2690   -9.7690   20.2620 C   0  0  0  0  0  3  0  0  0  0  0  0
  -23.0620  -10.9110   20.0610 C   0  0  0  0  0  3  0  0  0  0  0  0
  -21.8190   -7.7000   21.3150 O   0  0  0  0  0  0  0  0  0  0  0  0
  -21.7060   -7.0000   22.4900 C   0  0  0  0  0  0  0  0  0  0  0  0
  -21.3160   -7.6250   23.6940 C   0  0  0  0  0  3  0  0  0  0  0  0
  -21.1450   -6.8550   24.8630 C   0  0  0  0  0  3  0  0  0  0  0  0
  -21.3550   -5.4640   24.8270 C   0  0  0  0  0  0  0  0  0  0  0  0
  -21.7360   -4.8400   23.6270 C   0  0  0  0  0  3  0  0  0  0  0  0
  -21.9100   -5.6060   22.4620 C   0  0  0  0  0  0  0  0  0  0  0  0
  -22.2590   -4.9970   21.3030 F   0  0  0  0  0  0  0  0  0  0  0  0
  -21.1830   -4.7240   25.9470 F   0  0  0  0  0  0  0  0  0  0  0  0
  -23.3070  -14.2580   20.9790 C   0  0  0  0  0  0  0  0  0  0  0  0
  -22.5910  -13.6320   21.9060 N   0  0  0  0  0  0  0  0  0  0  0  0
  -22.8980  -15.2890   20.4450 O   0  0  0  0  0  0  0  0  0  0  0  0
  -22.9340  -12.7970   22.3560 H   0  0  0  0  0  0  0  0  0  0  0  0
  -21.6840  -13.9930   22.1700 H   0  0  0  0  0  0  0  0  0  0  0  0
  -25.9980  -15.7640   20.0740 N   0  0  0  0  0  0  0  0  0  0  0  0
  -25.2830  -16.4680   20.2250 H   0  0  0  0  0  0  0  0  0  0  0  0
  -26.8650  -16.1500   19.7250 H   0  0  0  0  0  0  0  0  0  0  0  0
  -27.9740  -24.5760   20.0540 C   0  0  0  0  0  2  0  0  0  0  0  0
  -28.1900  -26.1670   20.1680 O   0  0  0  0  0  0  0  0  0  0  0  0
  -24.3960  -31.8810   23.1260 C   0  0  0  0  0  0  0  0  0  0  0  0
  -27.1070  -27.1590   20.1070 C   0  0  0  0  0  0  0  0  0  0  0  0
  -23.2170  -30.3940   21.5540 C   0  0  0  0  0  3  0  0  0  0  0  0
  -24.6990  -28.8530   20.1090 C   0  0  0  0  0  0  0  0  0  0  0  0
  -25.7550  -30.7600   21.3030 C   0  0  0  0  0  2  0  0  0  0  0  0
  -25.8790  -29.3510   20.6740 C   0  0  0  0  0  0  0  0  0  0  0  0
  -27.0780  -28.5220   20.6520 C   0  0  0  0  0  3  0  0  0  0  0  0
  -25.8880  -26.7890   19.4920 C   0  0  0  0  0  3  0  0  0  0  0  0
  -24.7220  -27.5900   19.4990 C   0  0  0  0  0  3  0  0  0  0  0  0
  -23.4310  -29.6970   20.1830 C   0  0  0  0  0  2  0  0  0  0  0  0
  -24.4790  -31.0370   22.0500 N   0  0  0  0  0  0  0  0  0  0  0  0
  -23.3120  -32.1230   23.6810 O   0  0  0  0  0  0  0  0  0  0  0  0
  -22.6150  -29.3790   22.5600 C   0  0  0  0  0  0  0  0  0  0  0  0
  -21.3060  -29.0900   22.4370 N   0  0  0  0  0  0  0  0  0  0  0  0
  -23.3290  -28.8530   23.4170 O   0  0  0  0  0  0  0  0  0  0  0  0
  -20.7780  -29.5690   21.7210 H   0  0  0  0  0  0  0  0  0  0  0  0
  -18.0780  -27.5020   22.8870 C   0  0  0  0  0  0  0  0  0  0  0  0
  -20.5640  -28.1180   23.2480 C   0  0  0  0  0  3  0  0  0  0  0  0
  -20.8780  -26.6690   22.8040 C   0  0  0  0  0  2  0  0  0  0  0  0
  -19.8850  -26.1270   21.7720 C   0  0  0  0  0  2  0  0  0  0  0  0
  -18.4610  -26.1390   22.3350 C   0  0  0  0  0  2  0  0  0  0  0  0
  -19.0630  -28.4370   23.3000 C   0  0  0  0  0  0  0  0  0  0  0  0
  -18.6510  -29.6990   23.7770 C   0  0  0  0  0  3  0  0  0  0  0  0
  -17.2860  -30.0340   23.8430 C   0  0  0  0  0  3  0  0  0  0  0  0
  -16.3140  -29.1010   23.4450 C   0  0  0  0  0  3  0  0  0  0  0  0
  -16.7090  -27.8360   22.9720 C   0  0  0  0  0  3  0  0  0  0  0  0
  -25.6570  -32.5960   23.7010 C   0  0  0  0  0  3  0  0  0  0  0  0
  -25.2850  -33.9860   24.0140 N   0  0  0  0  0  0  0  0  0  0  0  0
  -25.6620  -35.0590   23.3050 C   0  0  0  0  0  0  0  0  0  0  0  0
  -26.4230  -34.9820   22.3360 O   0  0  0  0  0  0  0  0  0  0  0  0
  -24.6200  -34.1180   24.7620 H   0  0  0  0  0  0  0  0  0  0  0  0
  -23.9710  -36.8520   22.7940 C   0  0  0  0  0  1  0  0  0  0  0  0
  -25.1100  -36.4330   23.7370 C   0  0  0  0  0  3  0  0  0  0  0  0
  -27.1350  -37.3000   24.8210 C   0  0  0  0  0  1  0  0  0  0  0  0
  -26.1380  -37.4960   23.7730 N   0  0  0  0  0  0  0  0  0  0  0  0
  -25.7100  -38.4070   23.9110 H   0  0  0  0  0  0  0  0  0  0  0  0
  -26.2410  -31.8850   24.9840 C   0  0  1  0  0  0  0  0  0  0  0  0
  -25.1740  -31.5580   26.0550 C   0  0  0  0  0  1  0  0  0  0  0  0
  -26.9490  -30.5640   24.6080 C   0  0  0  0  0  1  0  0  0  0  0  0
  -27.3140  -32.7870   25.6390 C   0  0  0  0  0  1  0  0  0  0  0  0
  -32.8080  -18.4670   21.2460 C   0  0  0  0  0  3  0  0  0  0  0  0
  -32.2020  -17.8760   22.4670 N   0  0  0  0  0  4  0  0  0  0  0  0
  -31.7560  -18.5700   23.0420 H   0  0  0  0  0  0  0  0  0  0  0  0
  -32.8890  -17.4110   23.0350 H   0  0  0  0  0  0  0  0  0  0  0  0
  -31.5120  -17.1840   22.2330 H   0  0  0  0  0  0  0  0  0  0  0  0
  -33.9380  -19.4760   21.6000 C   0  0  0  0  0  2  0  0  0  0  0  0
  -35.3840  -18.9270   21.4930 C   0  0  0  0  0  2  0  0  0  0  0  0
  -36.0230  -19.1990   20.1900 N   0  0  0  0  0  4  0  0  0  0  0  0
  -35.5070  -18.8160   19.4180 H   0  0  0  0  0  0  0  0  0  0  0  0
  -36.9410  -18.7910   20.1750 H   0  0  0  0  0  0  0  0  0  0  0  0
  -36.1330  -20.1880   20.0460 H   0  0  0  0  0  0  0  0  0  0  0  0
  1  8  1  0
  1 48  1  0
  1  9  2  0
  3  8  1  0
  4  3  1  0
  4  7  1  0
  4  6  1  0
  5  2  1  0
  5 90  1  0
  6  2  1  0
  7 19  1  0
  7  5  1  0
  8  6  1  0
 11 16  1  0
 12 13  1  0
 12 11  1  0
 14 13  1  0
 14 23  1  0
 14 15  1  0
 16 10  1  0
 16 15  1  0
 17 10  2  0
 18 19  1  0
 19 10  1  0
 20 21  2  0
 21 40  1  0
 22 21  1  0
 22 25  1  0
 23 24  1  0
 23 20  1  0
 24 22  2  0
 25 26  1  0
 26 27  2  0
 28 31  1  0
 28 27  1  0
 29 28  2  0
 30 29  1  0
 30 25  2  0
 31 32  1  0
 32 33  1  0
 33 34  2  0
 35 34  1  0
 35 39  1  0
 36 35  2  0
 37 32  2  0
 37 36  1  0
 38 37  1  0
 40 41  1  0
 41 44  1  0
 41 43  1  0
 42 40  2  0
 45 46  1  0
 45 20  1  0
 47 45  1  0
 48 49  1  0
 50 61  2  0
 51 49  1  0
 51 56  1  0
 52 60  1  0
 52 62  1  0
 53 59  1  0
 53 55  1  0
 54 60  1  0
 55 54  1  0
 56 55  2  0
 57 58  1  0
 57 51  2  0
 58 53  2  0
 59 52  1  0
 60 50  1  0
 62 64  2  0
 63 62  1  0
 65 63  1  0
 66 75  2  0
 66 71  1  0
 67 63  1  0
 67 71  1  0
 68 67  1  0
 69 70  1  0
 69 68  1  0
 70 66  1  0
 71 72  2  0
 72 73  1  0
 74 73  2  0
 75 74  1  0
 76 50  1  0
 76 77  1  0
 76 86  1  0
 77 80  1  0
 78 82  1  0
 78 77  1  0
 79 78  2  0
 82 81  1  0
 82 84  1  0
 84 85  1  0
 84 83  1  0
 86 89  1  1
 86 87  1  0
 88 86  1  0
 90 95  1  0
 90 91  1  0
 91 93  1  0
 91 92  1  0
 94 91  1  0
 96 95  1  0
 97 96  1  0
 98 97  1  0
 99 97  1  0
100 97  1  0
M  ISO  4  10 100  19 100  48 101  49 101
M  END
>  <TORSDO>  (97) 
F 22

>  <SCORE>  (97) 
-11.276

>  <name>  (97) 
96

>  <ligand_id>  (97) 
96

>  <original_smiles>  (97) 
[H]c1c([H])c([H])c2c(c1[H])C([H])([H])C([H])([H])C([H])([H])C2([H])N([H])C(=O)C1([H])N(C(=O)C([H])(N([H])C(=O)C([H])(N([H])C([H])([H])[H])C([H])([H])[H])C(C([H])([H])[H])(C([H])([H])[H])C([H])([H])[H])C([H])([H])c2c([H])c(OC([H])([H])C(=O)N3C([H])([H])C4([H])C3([H])C([H])([H])C([H])(C([H])(C([H])([H])C([H])([H])[N+]([H])([H])[H])[N+]([H])([H])[H])C4([H])N(C(=O)N3C([H])([H])C([H])([H])C([H])([H])C([H])(n4nc(-c5c([H])c([H])c(Oc6c([H])c([H])c(F)c([H])c6F)c([H])c5[H])c(C(=O)N([H])[H])c4N([H])[H])C3([H])[H])C([H])([H])[H])c([H])c([H])c2C1([H])[H]

>  <smiles>  (97) 
[H]c1c([H])c([H])c2c(c1[H])C([H])([H])C([H])([H])C([H])([H])C2([H])N([H])C(=O)C1([H])N(C(=O)C([H])(N([H])C(=O)C([H])(N([H])C([H])([H])[H])C([H])([H])[H])C(C([H])([H])[H])(C([H])([H])[H])C([H])([H])[H])C([H])([H])c2c([H])c(OC([H])([H])C(=O)N3C([H])([H])C4([H])C3([H])C([H])([H])C([H])(C([H])(C([H])([H])C([H])([H])[N+]([H])([H])[H])[N+]([H])([H])[H])C4([H])N(C(=O)N3C([H])([H])C([H])([H])C([H])([H])C([H])(n4nc(-c5c([H])c([H])c(Oc6c([H])c([H])c(F)c([H])c6F)c([H])c5[H])c(C(=O)N([H])[H])c4N([H])[H])C3([H])[H])C([H])([H])[H])c([H])c([H])c2C1([H])[H]

$$$$
97:0:0
     RDKit          3D

 91 99  0  0  1  0  0  0  0  0999 V2000
  -31.8340  -21.0060   21.1470 C   0  0  0  0  0  2  0  0  0  0  0  0
  -31.0030  -22.1140   21.7780 C   0  0  0  0  0  2  0  0  0  0  0  0
  -30.6270  -20.6640   20.2740 C   0  0  0  0  0  3  0  0  0  0  0  0
  -29.9460  -21.8820   20.7860 N   0  0  2  0  0  4  0  0  0  0  0  0
  -29.0870  -21.5760   21.2260 H   0  0  0  0  0  0  0  0  0  0  0  0
  -29.8340  -19.4140   20.6480 C   0  0  0  0  0  0  0  0  0  0  0  0
  -28.6180  -19.3980   20.8560 O   0  0  0  0  0  0  0  0  0  0  0  0
  -30.6220  -18.0810   20.8000 C   0  0  0  0  0  2  0  0  0  0  0  0
  -30.2050  -16.9290   19.8390 C   0  0  0  0  0  2  0  0  0  0  0  0
  -30.9550  -14.5220   20.0580 C   0  0  0  0  0  0  0  0  0  0  0  0
  -30.6780  -12.2850   19.0580 C   0  0  0  0  0  2  0  0  0  0  0  0
  -29.7080  -12.4240   17.8650 C   0  0  0  0  0  2  0  0  0  0  0  0
  -28.2430  -12.3020   18.3310 C   0  0  0  0  0  2  0  0  0  0  0  0
  -27.9290  -13.1960   19.5600 C   0  0  0  0  0  3  0  0  0  0  0  0
  -29.0100  -13.0320   20.6550 C   0  0  0  0  0  2  0  0  0  0  0  0
  -30.3210  -13.3150   20.0460 N   0  0  0  0  0  0  0  0  0  0  0  0
  -32.0700  -14.6990   19.5590 O   0  0  0  0  0  0  0  0  0  0  0  0
  -30.1800  -15.5660   20.4240 N   0  0  0  0  0  0  0  0  0  0  0  0
  -29.3110  -15.2980   20.8660 H   0  0  0  0  0  0  0  0  0  0  0  0
  -25.5650  -13.8430   20.3430 C   0  0  0  0  0  0  0  0  0  0  0  0
  -24.4940  -13.0900   20.7430 C   0  0  0  0  0  0  0  0  0  0  0  0
  -24.9300  -11.7300   20.6930 C   0  0  0  0  0  0  0  0  0  0  0  0
  -26.5860  -12.9450   20.0790 N   0  0  0  0  0  0  0  0  0  0  0  0
  -26.2090  -11.6680   20.3450 N   0  0  0  0  0  0  0  0  0  0  0  0
  -24.1880  -10.4810   20.9030 C   0  0  0  0  0  0  0  0  0  0  0  0
  -24.6020   -9.5270   21.8590 C   0  0  0  0  0  3  0  0  0  0  0  0
  -23.8630   -8.3410   22.0540 C   0  0  0  0  0  3  0  0  0  0  0  0
  -22.6940   -8.0990   21.2920 C   0  0  0  0  0  0  0  0  0  0  0  0
  -22.2990   -9.0420   20.3260 C   0  0  0  0  0  3  0  0  0  0  0  0
  -23.0390  -10.2190   20.1290 C   0  0  0  0  0  3  0  0  0  0  0  0
  -21.9270   -6.9640   21.3950 O   0  0  0  0  0  0  0  0  0  0  0  0
  -21.8320   -6.2650   22.5710 C   0  0  0  0  0  0  0  0  0  0  0  0
  -21.3340   -6.8570   23.7520 C   0  0  0  0  0  3  0  0  0  0  0  0
  -21.1880   -6.0830   24.9210 C   0  0  0  0  0  3  0  0  0  0  0  0
  -21.5290   -4.7170   24.9080 C   0  0  0  0  0  0  0  0  0  0  0  0
  -22.0200   -4.1240   23.7310 C   0  0  0  0  0  3  0  0  0  0  0  0
  -22.1680   -4.8960   22.5660 C   0  0  0  0  0  0  0  0  0  0  0  0
  -22.6210   -4.3160   21.4280 F   0  0  0  0  0  0  0  0  0  0  0  0
  -21.3810   -3.9710   26.0270 F   0  0  0  0  0  0  0  0  0  0  0  0
  -23.1160  -13.5910   21.0620 C   0  0  0  0  0  0  0  0  0  0  0  0
  -22.4010  -12.9000   21.9450 N   0  0  0  0  0  0  0  0  0  0  0  0
  -22.6810  -14.6280   20.5640 O   0  0  0  0  0  0  0  0  0  0  0  0
  -22.7650  -12.0610   22.3700 H   0  0  0  0  0  0  0  0  0  0  0  0
  -21.4780  -13.2190   22.2020 H   0  0  0  0  0  0  0  0  0  0  0  0
  -25.7470  -15.2120   20.1640 N   0  0  0  0  0  0  0  0  0  0  0  0
  -24.9940  -15.8770   20.2950 H   0  0  0  0  0  0  0  0  0  0  0  0
  -26.5920  -15.6390   19.8040 H   0  0  0  0  0  0  0  0  0  0  0  0
  -29.6950  -23.0080   19.8240 C   0  0  0  0  0  2  0  0  0  0  0  0
  -29.3430  -24.3880   20.4870 C   0  0  0  0  0  2  0  0  0  0  0  0
  -28.7070  -25.4300   19.5220 C   0  0  0  0  0  2  0  0  0  0  0  0
  -28.6180  -26.7680   20.0810 O   0  0  0  0  0  0  0  0  0  0  0  0
  -24.7180  -31.8030   23.3110 C   0  0  0  0  0  0  0  0  0  0  0  0
  -27.4330  -27.4960   20.0490 C   0  0  0  0  0  0  0  0  0  0  0  0
  -23.5470  -30.4780   21.5840 C   0  0  0  0  0  3  0  0  0  0  0  0
  -25.0300  -29.0250   20.1030 C   0  0  0  0  0  0  0  0  0  0  0  0
  -26.0780  -30.8480   21.4480 C   0  0  0  0  0  2  0  0  0  0  0  0
  -26.1780  -29.5090   20.7400 C   0  0  0  0  0  0  0  0  0  0  0  0
  -27.3760  -28.7510   20.7130 C   0  0  0  0  0  3  0  0  0  0  0  0
  -26.2610  -27.0520   19.3890 C   0  0  0  0  0  3  0  0  0  0  0  0
  -25.0700  -27.7980   19.4250 C   0  0  0  0  0  3  0  0  0  0  0  0
  -23.7820  -29.8770   20.1750 C   0  0  0  0  0  2  0  0  0  0  0  0
  -24.7980  -31.0560   22.1730 N   0  0  0  0  0  0  0  0  0  0  0  0
  -23.6260  -32.0420   23.8460 O   0  0  0  0  0  0  0  0  0  0  0  0
  -22.8880  -29.4040   22.4820 C   0  0  0  0  0  0  0  0  0  0  0  0
  -21.5620  -29.2390   22.3440 N   0  0  0  0  0  0  0  0  0  0  0  0
  -23.5670  -28.7270   23.2580 O   0  0  0  0  0  0  0  0  0  0  0  0
  -21.0760  -29.8390   21.6930 H   0  0  0  0  0  0  0  0  0  0  0  0
  -18.1730  -28.0670   22.8020 C   0  0  0  0  0  0  0  0  0  0  0  0
  -20.7390  -28.2620   23.0580 C   0  0  0  0  0  3  0  0  0  0  0  0
  -20.8100  -26.8740   22.3820 C   0  0  0  0  0  2  0  0  0  0  0  0
  -19.6910  -26.6420   21.3610 C   0  0  0  0  0  2  0  0  0  0  0  0
  -18.3190  -26.7650   22.0320 C   0  0  0  0  0  2  0  0  0  0  0  0
  -19.3100  -28.7770   23.2700 C   0  0  0  0  0  0  0  0  0  0  0  0
  -19.1220  -30.0000   23.9510 C   0  0  0  0  0  3  0  0  0  0  0  0
  -17.8280  -30.5100   24.1680 C   0  0  0  0  0  3  0  0  0  0  0  0
  -16.7060  -29.7940   23.7170 C   0  0  0  0  0  3  0  0  0  0  0  0
  -16.8800  -28.5740   23.0390 C   0  0  0  0  0  3  0  0  0  0  0  0
  -25.9890  -32.4120   23.9810 C   0  0  0  0  0  3  0  0  0  0  0  0
  -25.6760  -33.8020   24.3410 N   0  0  0  0  0  0  0  0  0  0  0  0
  -26.0380  -34.8730   23.6230 C   0  0  0  0  0  0  0  0  0  0  0  0
  -26.7410  -34.7950   22.6110 O   0  0  0  0  0  0  0  0  0  0  0  0
  -25.0570  -33.9370   25.1250 H   0  0  0  0  0  0  0  0  0  0  0  0
  -24.3380  -36.6890   23.2550 C   0  0  0  0  0  1  0  0  0  0  0  0
  -25.5420  -36.2500   24.1040 C   0  0  0  0  0  3  0  0  0  0  0  0
  -27.6430  -37.0970   25.0520 C   0  0  0  0  0  1  0  0  0  0  0  0
  -26.5850  -37.2980   24.0650 N   0  0  0  0  0  0  0  0  0  0  0  0
  -26.1790  -38.2170   24.2170 H   0  0  0  0  0  0  0  0  0  0  0  0
  -26.4720  -31.6030   25.2460 C   0  0  1  0  0  0  0  0  0  0  0  0
  -25.3520  -31.3390   26.2800 C   0  0  0  0  0  1  0  0  0  0  0  0
  -27.0630  -30.2360   24.8280 C   0  0  0  0  0  1  0  0  0  0  0  0
  -27.6080  -32.3760   25.9590 C   0  0  0  0  0  1  0  0  0  0  0  0
  1  2  1  0
  3  6  1  0
  3  4  1  0
  3  1  1  0
  4  5  1  1
  4  2  1  0
  6  8  1  0
  6  7  2  0
  9 18  1  0
  9  8  1  0
 10 18  1  0
 11 16  1  0
 12 13  1  0
 12 11  1  0
 14 13  1  0
 14 23  1  0
 14 15  1  0
 16 10  1  0
 16 15  1  0
 17 10  2  0
 18 19  1  0
 20 21  2  0
 21 40  1  0
 22 21  1  0
 22 25  1  0
 23 20  1  0
 23 24  1  0
 24 22  2  0
 25 26  1  0
 26 27  2  0
 28 31  1  0
 28 27  1  0
 29 28  2  0
 30 29  1  0
 30 25  2  0
 31 32  1  0
 32 33  1  0
 33 34  2  0
 35 34  1  0
 35 39  1  0
 36 35  2  0
 37 32  2  0
 37 36  1  0
 38 37  1  0
 40 41  1  0
 41 44  1  0
 41 43  1  0
 42 40  2  0
 45 46  1  0
 45 20  1  0
 47 45  1  0
 48 49  1  0
 48  4  1  0
 50 51  1  0
 50 49  1  0
 52 63  2  0
 53 51  1  0
 53 58  1  0
 54 62  1  0
 54 64  1  0
 55 61  1  0
 55 57  1  0
 56 62  1  0
 57 56  1  0
 58 57  2  0
 59 60  1  0
 59 53  2  0
 60 55  2  0
 61 54  1  0
 62 52  1  0
 64 66  2  0
 65 64  1  0
 67 65  1  0
 68 77  2  0
 68 73  1  0
 69 65  1  0
 69 73  1  0
 70 69  1  0
 71 72  1  0
 71 70  1  0
 72 68  1  0
 73 74  2  0
 74 75  1  0
 76 75  2  0
 77 76  1  0
 78 52  1  0
 78 79  1  0
 78 88  1  0
 79 82  1  0
 80 84  1  0
 80 79  1  0
 81 80  2  0
 84 83  1  0
 86 84  1  0
 86 87  1  0
 86 85  1  0
 88 91  1  1
 88 89  1  0
 90 88  1  0
M  ISO  4  10 100  18 100  50 101  51 101
M  END
>  <TORSDO>  (98) 
F 22

>  <SCORE>  (98) 
-12.789

>  <name>  (98) 
97

>  <ligand_id>  (98) 
97

>  <original_smiles>  (98) 
[H]c1c([H])c([H])c2c(c1[H])C([H])([H])C([H])([H])C([H])([H])C2([H])N([H])C(=O)C1([H])N(C(=O)C([H])(N([H])C(=O)C([H])(N([H])C([H])([H])[H])C([H])([H])[H])C(C([H])([H])[H])(C([H])([H])[H])C([H])([H])[H])C([H])([H])c2c([H])c(OC([H])([H])C([H])([H])C([H])([H])[N+]3([H])C([H])([H])C([H])([H])C3([H])C(=O)C([H])([H])C([H])([H])N([H])C(=O)N3C([H])([H])C([H])([H])C([H])([H])C([H])(n4nc(-c5c([H])c([H])c(Oc6c([H])c([H])c(F)c([H])c6F)c([H])c5[H])c(C(=O)N([H])[H])c4N([H])[H])C3([H])[H])c([H])c([H])c2C1([H])[H]

>  <smiles>  (98) 
[H]c1c([H])c([H])c2c(c1[H])C([H])([H])C([H])([H])C([H])([H])C2([H])N([H])C(=O)C1([H])N(C(=O)C([H])(N([H])C(=O)C([H])(N([H])C([H])([H])[H])C([H])([H])[H])C(C([H])([H])[H])(C([H])([H])[H])C([H])([H])[H])C([H])([H])c2c([H])c(OC([H])([H])C([H])([H])C([H])([H])[N+]3([H])C([H])([H])C([H])([H])C3([H])C(=O)C([H])([H])C([H])([H])N([H])C(=O)N3C([H])([H])C([H])([H])C([H])([H])C([H])(n4nc(-c5c([H])c([H])c(Oc6c([H])c([H])c(F)c([H])c6F)c([H])c5[H])c(C(=O)N([H])[H])c4N([H])[H])C3([H])[H])c([H])c([H])c2C1([H])[H]

$$$$
98:0:0
     RDKit          3D

 97105  0  0  1  0  0  0  0  0999 V2000
  -28.8110  -21.6670   21.1150 C   0  0  0  0  0  0  0  0  0  0  0  0
  -28.6490  -22.0760   22.2690 O   0  0  0  0  0  0  0  0  0  0  0  0
  -30.0100  -20.2140   19.4480 C   0  0  0  0  0  3  0  0  0  0  0  0
  -30.6830  -18.3010   21.3810 C   0  0  0  0  0  3  0  0  0  0  0  0
  -29.5520  -20.4000   20.7740 C   0  0  0  0  0  0  0  0  0  0  0  0
  -31.1700  -18.1510   20.0660 C   0  0  0  0  0  0  0  0  0  0  0  0
  -29.8850  -19.4100   21.7460 C   0  0  0  0  0  0  0  0  0  0  0  0
  -30.8010  -19.1070   19.0840 C   0  0  0  0  0  0  0  0  0  0  0  0
  -29.4180  -19.4890   23.1930 C   0  0  0  0  0  1  0  0  0  0  0  0
  -31.2340  -18.9850   17.6270 C   0  0  0  0  0  1  0  0  0  0  0  0
  -32.1360  -14.7160   19.1510 C   0  0  0  0  0  0  0  0  0  0  0  0
  -31.6020  -12.4530   18.3440 C   0  0  0  0  0  2  0  0  0  0  0  0
  -30.4250  -12.5160   17.3540 C   0  0  0  0  0  2  0  0  0  0  0  0
  -29.0880  -12.4160   18.1100 C   0  0  0  0  0  2  0  0  0  0  0  0
  -29.0000  -13.4040   19.3040 C   0  0  0  0  0  3  0  0  0  0  0  0
  -30.2750  -13.3420   20.1770 C   0  0  0  0  0  2  0  0  0  0  0  0
  -31.4370  -13.5590   19.3000 N   0  0  0  0  0  0  0  0  0  0  0  0
  -33.1020  -14.7900   18.3840 O   0  0  0  0  0  0  0  0  0  0  0  0
  -32.1300  -17.0380   19.7430 C   0  0  0  0  0  0  0  0  0  0  0  0
  -31.6210  -15.7930   19.7730 N   0  0  0  0  0  0  0  0  0  0  0  0
  -33.2940  -17.3300   19.4430 O   0  0  0  0  0  0  0  0  0  0  0  0
  -30.7200  -15.6800   20.2050 H   0  0  0  0  0  0  0  0  0  0  0  0
  -27.1060  -14.0500   20.9210 C   0  0  0  0  0  0  0  0  0  0  0  0
  -26.0060  -13.3620   21.3640 C   0  0  0  0  0  0  0  0  0  0  0  0
  -26.0800  -12.0690   20.7620 C   0  0  0  0  0  0  0  0  0  0  0  0
  -27.7930  -13.1750   20.0950 N   0  0  0  0  0  0  0  0  0  0  0  0
  -27.1930  -11.9580   20.0480 N   0  0  0  0  0  0  0  0  0  0  0  0
  -25.1290  -10.9510   20.7780 C   0  0  0  0  0  0  0  0  0  0  0  0
  -25.3850   -9.7730   21.5150 C   0  0  0  0  0  3  0  0  0  0  0  0
  -24.4450   -8.7190   21.5310 C   0  0  0  0  0  3  0  0  0  0  0  0
  -23.2350   -8.8380   20.8080 C   0  0  0  0  0  0  0  0  0  0  0  0
  -22.9940  -10.0030   20.0590 C   0  0  0  0  0  3  0  0  0  0  0  0
  -23.9320  -11.0480   20.0390 C   0  0  0  0  0  3  0  0  0  0  0  0
  -22.2760   -7.8550   20.7440 O   0  0  0  0  0  0  0  0  0  0  0  0
  -21.8580   -7.1830   21.8640 C   0  0  0  0  0  0  0  0  0  0  0  0
  -21.2990   -7.8570   22.9720 C   0  0  0  0  0  3  0  0  0  0  0  0
  -20.8180   -7.1230   24.0740 C   0  0  0  0  0  3  0  0  0  0  0  0
  -20.8850   -5.7160   24.0670 C   0  0  0  0  0  0  0  0  0  0  0  0
  -21.4370   -5.0430   22.9630 C   0  0  0  0  0  3  0  0  0  0  0  0
  -21.9190   -5.7750   21.8630 C   0  0  0  0  0  0  0  0  0  0  0  0
  -22.4300   -5.1200   20.7920 F   0  0  0  0  0  0  0  0  0  0  0  0
  -20.4160   -5.0100   25.1210 F   0  0  0  0  0  0  0  0  0  0  0  0
  -24.8990  -13.9030   22.2210 C   0  0  0  0  0  0  0  0  0  0  0  0
  -24.2930  -13.0560   23.0470 N   0  0  0  0  0  0  0  0  0  0  0  0
  -24.5970  -15.0950   22.1990 O   0  0  0  0  0  0  0  0  0  0  0  0
  -24.5570  -12.0830   23.0790 H   0  0  0  0  0  0  0  0  0  0  0  0
  -23.5570  -13.3870   23.6560 H   0  0  0  0  0  0  0  0  0  0  0  0
  -27.5660  -15.3450   21.1350 N   0  0  0  0  0  0  0  0  0  0  0  0
  -27.0470  -16.0150   21.6900 H   0  0  0  0  0  0  0  0  0  0  0  0
  -28.3880  -15.7420   20.7000 H   0  0  0  0  0  0  0  0  0  0  0  0
  -28.2670  -22.5310   19.9720 C   0  0  0  0  0  2  0  0  0  0  0  0
  -29.0940  -23.7570   19.8860 N   0  0  0  0  0  4  0  0  0  0  0  0
  -30.0270  -23.4880   19.6180 H   0  0  0  0  0  0  0  0  0  0  0  0
  -29.1500  -24.1340   20.8200 H   0  0  0  0  0  0  0  0  0  0  0  0
  -28.5610  -24.7720   18.9430 C   0  0  0  0  0  2  0  0  0  0  0  0
  -29.3720  -26.0910   18.9250 C   0  0  0  0  0  2  0  0  0  0  0  0
  -28.8740  -27.0400   17.9700 O   0  0  0  0  0  0  0  0  0  0  0  0
  -24.8890  -30.4790   22.7340 C   0  0  0  0  0  0  0  0  0  0  0  0
  -27.6390  -27.5440   18.2870 C   0  0  0  0  0  0  0  0  0  0  0  0
  -23.6600  -29.3230   20.9220 C   0  0  0  0  0  3  0  0  0  0  0  0
  -25.0820  -28.5010   18.9740 C   0  0  0  0  0  0  0  0  0  0  0  0
  -26.0290  -30.2040   20.5390 C   0  0  0  0  0  2  0  0  0  0  0  0
  -26.2230  -29.0770   19.5490 C   0  0  0  0  0  0  0  0  0  0  0  0
  -27.5070  -28.6030   19.2090 C   0  0  0  0  0  3  0  0  0  0  0  0
  -26.4880  -26.9930   17.6890 C   0  0  0  0  0  3  0  0  0  0  0  0
  -25.2080  -27.4550   18.0430 C   0  0  0  0  0  3  0  0  0  0  0  0
  -23.7430  -29.0620   19.3960 C   0  0  0  0  0  2  0  0  0  0  0  0
  -24.8840  -30.0040   21.4560 N   0  0  0  0  0  0  0  0  0  0  0  0
  -23.8820  -30.3960   23.4510 O   0  0  0  0  0  0  0  0  0  0  0  0
  -23.3450  -27.9890   21.6350 C   0  0  0  0  0  0  0  0  0  0  0  0
  -22.1030  -27.5040   21.4730 N   0  0  0  0  0  0  0  0  0  0  0  0
  -24.2090  -27.4010   22.2920 O   0  0  0  0  0  0  0  0  0  0  0  0
  -21.4520  -28.0490   20.9250 H   0  0  0  0  0  0  0  0  0  0  0  0
  -19.2170  -25.3340   21.5650 C   0  0  0  0  0  0  0  0  0  0  0  0
  -21.5900  -26.2480   22.0220 C   0  0  0  0  0  3  0  0  0  0  0  0
  -22.1040  -25.0370   21.2090 C   0  0  0  0  0  2  0  0  0  0  0  0
  -21.1450  -24.6080   20.0940 C   0  0  0  0  0  2  0  0  0  0  0  0
  -19.7770  -24.2370   20.6750 C   0  0  0  0  0  2  0  0  0  0  0  0
  -20.0670  -26.2870   22.1850 C   0  0  0  0  0  0  0  0  0  0  0  0
  -19.4920  -27.3070   22.9750 C   0  0  0  0  0  3  0  0  0  0  0  0
  -18.0980  -27.3810   23.1500 C   0  0  0  0  0  3  0  0  0  0  0  0
  -17.2620  -26.4250   22.5490 C   0  0  0  0  0  3  0  0  0  0  0  0
  -17.8220  -25.4010   21.7640 C   0  0  0  0  0  3  0  0  0  0  0  0
  -26.1450  -31.1730   23.3450 C   0  0  0  0  0  3  0  0  0  0  0  0
  -25.7060  -32.4420   23.9370 N   0  0  0  0  0  0  0  0  0  0  0  0
  -25.8480  -33.6410   23.3540 C   0  0  0  0  0  0  0  0  0  0  0  0
  -26.4350  -33.7990   22.2810 O   0  0  0  0  0  0  0  0  0  0  0  0
  -25.1730  -32.3820   24.7920 H   0  0  0  0  0  0  0  0  0  0  0  0
  -23.8900  -35.2160   23.4370 C   0  0  0  0  0  1  0  0  0  0  0  0
  -25.2390  -34.8570   24.0780 C   0  0  0  0  0  3  0  0  0  0  0  0
  -27.3150  -35.8760   24.9030 C   0  0  0  0  0  1  0  0  0  0  0  0
  -26.1230  -36.0440   24.0760 N   0  0  0  0  0  0  0  0  0  0  0  0
  -25.6220  -36.8650   24.4050 H   0  0  0  0  0  0  0  0  0  0  0  0
  -26.8890  -30.2830   24.4160 C   0  0  1  0  0  0  0  0  0  0  0  0
  -25.9520  -29.7020   25.5010 C   0  0  0  0  0  1  0  0  0  0  0  0
  -27.6120  -29.0980   23.7360 C   0  0  0  0  0  1  0  0  0  0  0  0
  -27.9830  -31.1180   25.1220 C   0  0  0  0  0  1  0  0  0  0  0  0
  1  2  2  0
  3  5  1  0
  4  7  1  0
  5  1  1  0
  5  7  2  0
  6  4  2  0
  7  9  1  0
  8  3  2  0
  8  6  1  0
 10  8  1  0
 11 17  1  0
 11 20  1  0
 12 17  1  0
 13 14  1  0
 13 12  1  0
 15 14  1  0
 15 26  1  0
 15 16  1  0
 17 16  1  0
 18 11  2  0
 19 20  1  0
 19  6  1  0
 20 22  1  0
 21 19  2  0
 23 48  1  0
 23 24  2  0
 24 43  1  0
 25 28  1  0
 25 24  1  0
 26 23  1  0
 27 26  1  0
 27 25  2  0
 28 29  1  0
 29 30  2  0
 31 30  1  0
 32 31  2  0
 33 32  1  0
 33 28  2  0
 34 31  1  0
 34 35  1  0
 35 36  1  0
 36 37  2  0
 38 37  1  0
 38 42  1  0
 39 38  2  0
 40 35  2  0
 40 39  1  0
 41 40  1  0
 43 44  1  0
 44 46  1  0
 44 47  1  0
 45 43  2  0
 48 49  1  0
 50 48  1  0
 51  1  1  0
 52 51  1  0
 52 54  1  0
 53 52  1  0
 55 52  1  0
 56 55  1  0
 57 59  1  0
 57 56  1  0
 58 69  2  0
 59 64  1  0
 60 68  1  0
 60 70  1  0
 61 67  1  0
 61 63  1  0
 62 68  1  0
 63 62  1  0
 64 63  2  0
 65 66  1  0
 65 59  2  0
 66 61  2  0
 67 60  1  0
 68 58  1  0
 70 72  2  0
 71 70  1  0
 73 71  1  0
 74 83  2  0
 74 79  1  0
 75 71  1  0
 75 79  1  0
 76 75  1  0
 77 78  1  0
 77 76  1  0
 78 74  1  0
 79 80  2  0
 80 81  1  0
 82 81  2  0
 83 82  1  0
 84 58  1  0
 84 85  1  0
 84 94  1  0
 85 88  1  0
 86 85  1  0
 86 90  1  0
 87 86  2  0
 90 89  1  0
 92 90  1  0
 92 93  1  0
 92 91  1  0
 94 97  1  1
 94 95  1  0
 96 94  1  0
M  ISO  4  11 100  20 100  56 101  57 101
M  END
>  <TORSDO>  (99) 
F 21

>  <SCORE>  (99) 
-2.673

>  <name>  (99) 
98

>  <ligand_id>  (99) 
98

>  <original_smiles>  (99) 
[H]c1c([H])c([H])c2c(c1[H])C([H])([H])C([H])([H])C([H])([H])C2([H])N([H])C(=O)C1([H])N(C(=O)C([H])(N([H])C(=O)C([H])(N([H])C([H])([H])[H])C([H])([H])[H])C(C([H])([H])[H])(C([H])([H])[H])C([H])([H])[H])C([H])([H])c2c([H])c(OC([H])([H])C([H])([H])[N+]([H])([H])C([H])([H])C(=O)c3c([H])c(C([H])([H])[H])c(C(=O)N([H])C(=O)N4C([H])([H])C([H])([H])C([H])([H])C([H])(n5nc(-c6c([H])c([H])c(Oc7c([H])c([H])c(F)c([H])c7F)c([H])c6[H])c(C(=O)N([H])[H])c5N([H])[H])C4([H])[H])c([H])c3C([H])([H])[H])c([H])c([H])c2C1([H])[H]

>  <smiles>  (99) 
[H]c1c([H])c([H])c2c(c1[H])C([H])([H])C([H])([H])C([H])([H])C2([H])N([H])C(=O)C1([H])N(C(=O)C([H])(N([H])C(=O)C([H])(N([H])C([H])([H])[H])C([H])([H])[H])C(C([H])([H])[H])(C([H])([H])[H])C([H])([H])[H])C([H])([H])c2c([H])c(OC([H])([H])C([H])([H])[N+]([H])([H])C([H])([H])C(=O)c3c([H])c(C([H])([H])[H])c(C(=O)N([H])C(=O)N4C([H])([H])C([H])([H])C([H])([H])C([H])(n5nc(-c6c([H])c([H])c(Oc7c([H])c([H])c(F)c([H])c7F)c([H])c6[H])c(C(=O)N([H])[H])c5N([H])[H])C4([H])[H])c([H])c3C([H])([H])[H])c([H])c([H])c2C1([H])[H]

$$$$
